=
 OpenBabel10272401183D

 55 59  0  0  1  0  0  0  0  0999 V2000
  188.2980  177.3370  136.1200 C   0  0  1  0  0  3  0  0  0  0  0  0
  189.6330  177.3320  135.3780 C   0  0  0  0  0  2  0  0  0  0  0  0
  190.0780  175.9120  135.0810 C   0  0  0  0  0  2  0  0  0  0  0  0
  194.2840  176.0350  136.0730 C   0  0  0  0  0  2  0  0  0  0  0  0
  191.5060  175.7310  135.4730 C   0  0  0  0  0  0  0  0  0  0  0  0
  191.9170  176.1210  136.8730 C   0  0  0  0  0  2  0  0  0  0  0  0
  193.8710  175.2230  134.8510 C   0  0  0  0  0  2  0  0  0  0  0  0
  193.3440  175.7010  137.2250 C   0  0  2  0  0  3  0  0  0  0  0  0
  192.4090  175.4090  134.5340 C   0  0  0  0  0  3  0  0  0  0  0  0
  192.6490  176.8560  138.8970 O   0  0  0  0  0  1  0  0  0  0  0  0
  193.7570  176.3680  138.3780 O   0  0  0  0  0  0  0  0  0  0  0  0
  188.0800  178.5830  136.7180 O   0  0  0  0  0  0  0  0  0  0  0  0
  187.6480  178.3090  138.0190 C   0  0  0  0  0  2  0  0  0  0  0  0
  188.6660  177.4410  138.7510 C   0  0  0  0  0  2  0  0  0  0  0  0
  188.6700  177.7250  140.2430 C   0  0  0  0  0  2  0  0  0  0  0  0
  189.8660  177.2720  140.8020 O   0  0  0  0  0  0  0  0  0  0  0  0
  189.8150  177.6730  142.1340 C   0  0  0  0  0  2  0  0  0  0  0  0
  191.7250  175.1920  145.5410 C   0  0  0  0  0  2  0  0  0  0  0  0
  192.1820  175.7500  146.8930 C   0  0  0  0  0  2  0  0  0  0  0  0
  191.4140  177.5340  144.7870 O   0  0  0  0  0  0  0  0  0  0  0  0
  189.9880  177.0820  146.7510 C   0  0  0  0  0  2  0  0  0  0  0  0
  191.3630  176.9470  147.4080 C   0  0  0  0  0  2  0  0  0  0  0  0
  191.7950  176.2190  144.4010 C   0  0  2  0  0  3  0  0  0  0  0  0
  189.0740  176.8080  144.4070 C   0  0  2  0  0  3  0  0  0  0  0  0
  190.0830  177.5620  145.2940 C   0  0  2  0  0  3  0  0  0  0  0  0
  190.9930  175.7280  143.1860 C   0  0  0  0  0  2  0  0  0  0  0  0
  189.6470  176.4490  143.0290 C   0  0  2  0  0  3  0  0  0  0  0  0
  187.2080  178.0530  145.5140 C   0  0  0  0  0  3  0  0  0  0  0  0
  185.1840  178.6660  144.3220 C   0  0  0  0  0  0  0  0  0  0  0  0
  186.9610  177.4690  143.1780 C   0  0  0  0  0  3  0  0  0  0  0  0
  185.6970  178.0680  143.1610 C   0  0  0  0  0  3  0  0  0  0  0  0
  185.9440  178.6540  145.4970 C   0  0  0  0  0  3  0  0  0  0  0  0
  187.7240  177.4630  144.3560 C   0  0  0  0  0  0  0  0  0  0  0  0
  183.8300  179.3000  144.3350 C   0  0  1  0  0  3  0  0  0  0  0  0
  183.0150  178.8720  143.1290 C   0  0  0  0  0  1  0  0  0  0  0  0
  183.1210  178.9550  145.5560 N   0  0  0  0  0  1  0  0  0  0  0  0
  187.1200  176.9840  135.1970 C   0  0  0  0  0  2  0  0  0  0  0  0
  185.9140  176.2710  135.8440 C   0  0  1  0  0  3  0  0  0  0  0  0
  183.7870  177.2220  136.7750 C   0  0  0  0  0  3  0  0  0  0  0  0
  184.6480  177.0780  135.7610 C   0  0  0  0  0  3  0  0  0  0  0  0
  184.0050  176.6250  138.1320 C   0  0  2  0  0  3  0  0  0  0  0  0
  182.9820  175.5650  138.4060 C   0  0  0  0  0  0  0  0  0  0  0  0
  182.8700  174.4860  137.5400 O   0  0  0  0  0  0  0  0  0  0  0  0
  182.2310  175.6360  139.4170 O   0  0  0  0  0  1  0  0  0  0  0  0
  183.9610  177.7260  139.1880 C   0  0  0  0  0  2  0  0  0  0  0  0
  183.9550  179.0360  138.5590 N   0  0  0  0  0  0  0  0  0  0  0  0
  183.1410  179.8990  139.3790 C   0  0  1  0  0  3  0  0  0  0  0  0
  184.4940  179.9120  139.4840 O   0  0  0  0  0  0  0  0  0  0  0  0
  182.7240  181.0310  138.6250 O   0  0  0  0  0  0  0  0  0  0  0  0
  181.3800  181.3240  138.3770 C   0  0  0  0  0  0  0  0  0  0  0  0
  180.4530  180.4500  138.7340 C   0  0  0  0  0  2  0  0  0  0  0  0
  180.9590  182.6000  137.7310 C   0  0  0  0  0  1  0  0  0  0  0  0
  185.7080  174.8760  135.2620 C   0  0  0  0  0  2  0  0  0  0  0  0
  186.7960  173.9580  135.7020 C   0  0  0  0  0  3  0  0  0  0  0  0
  186.9780  173.7180  136.9960 C   0  0  0  0  0  2  0  0  0  0  0  0
  1 37  1  6  0  0  0
  1 12  1  0  0  0  0
  2  1  1  0  0  0  0
  3  2  1  0  0  0  0
  3  5  1  0  0  0  0
  4  8  1  0  0  0  0
  5  6  1  0  0  0  0
  6  8  1  0  0  0  0
  7  4  1  0  0  0  0
  8 11  1  1  0  0  0
  9  7  1  0  0  0  0
  9  5  2  0  0  0  0
 11 10  1  0  0  0  0
 12 13  1  0  0  0  0
 13 14  1  0  0  0  0
 14 15  1  0  0  0  0
 15 16  1  0  0  0  0
 16 17  1  0  0  0  0
 18 19  1  0  0  0  0
 19 22  1  0  0  0  0
 20 25  1  0  0  0  0
 21 22  1  0  0  0  0
 23 26  1  6  0  0  0
 23 20  1  0  0  0  0
 23 18  1  0  0  0  0
 24 33  1  6  0  0  0
 24 25  1  0  0  0  0
 25 21  1  1  0  0  0
 27 17  1  6  0  0  0
 27 26  1  0  0  0  0
 27 24  1  0  0  0  0
 29 34  1  0  0  0  0
 29 32  2  0  0  0  0
 30 33  1  0  0  0  0
 31 30  2  0  0  0  0
 31 29  1  0  0  0  0
 32 28  1  0  0  0  0
 33 28  2  0  0  0  0
 34 35  1  6  0  0  0
 34 36  1  0  0  0  0
 38 37  1  6  0  0  0
 40 38  1  0  0  0  0
 40 39  2  0  0  0  0
 41 39  1  6  0  0  0
 41 42  1  0  0  0  0
 41 45  1  0  0  0  0
 42 44  1  0  0  0  0
 43 42  2  0  0  0  0
 46 45  1  0  0  0  0
 46 47  1  0  0  0  0
 46 48  1  0  0  0  0
 47 49  1  6  0  0  0
 47 48  1  0  0  0  0
 50 49  1  0  0  0  0
 50 51  2  0  0  0  0
 52 50  1  0  0  0  0
 53 54  1  0  0  0  0
 53 38  1  0  0  0  0
 54 55  2  0  0  0  0
M  END
>  <MODEL>
1

>  <REMARK>
 VINA RESULT:      -7.4      0.000      0.000
  Name = 
  24 active torsions:
  status: ('A' for Active; 'I' for Inactive)
    1  A    between atoms: C_1  and  C_53
    2  A    between atoms: N_3  and  C_38
    3  A    between atoms: C_4  and  O_35
    4  A    between atoms: C_4  and  C_37
    5  A    between atoms: C_5  and  C_37
    6  A    between atoms: C_5  and  O_40
    7  A    between atoms: C_6  and  C_53
    8  A    between atoms: C_7  and  C_20
    9  A    between atoms: C_8  and  C_22
   10  A    between atoms: C_8  and  C_43
   11  A    between atoms: C_10  and  C_32
   12  A    between atoms: C_11  and  O_50
   13  A    between atoms: C_12  and  O_50
   14  A    between atoms: C_19  and  O_40
   15  A    between atoms: C_19  and  C_49
   16  A    between atoms: C_20  and  C_22
   17  A    between atoms: C_22  and  C_46
   18  A    between atoms: C_27  and  C_54
   19  A    between atoms: O_28  and  C_44
   20  A    between atoms: C_33  and  C_52
   21  A    between atoms: O_35  and  C_43
   22  A    between atoms: C_38  and  C_53
   23  A    between atoms: C_43  and  C_51
   24  A    between atoms: C_51  and  C_54
                            x       y       z     vdW  Elec       q    Type
                         _______ _______ _______ _____ _____    ______ ____

>  <TORSDO>
F 24

$$$$
=
 OpenBabel10272401183D

 55 59  0  0  1  0  0  0  0  0999 V2000
  190.3340  175.0570  136.5530 C   0  0  1  0  0  3  0  0  0  0  0  0
  191.8130  175.4330  136.4830 C   0  0  0  0  0  2  0  0  0  0  0  0
  192.6780  174.3240  137.0530 C   0  0  0  0  0  2  0  0  0  0  0  0
  196.2890  174.5250  134.6850 C   0  0  0  0  0  2  0  0  0  0  0  0
  194.0350  174.3660  136.4350 C   0  0  0  0  0  0  0  0  0  0  0  0
  194.6460  175.7170  136.1460 C   0  0  0  0  0  2  0  0  0  0  0  0
  195.9490  173.1920  135.3430 C   0  0  0  0  0  2  0  0  0  0  0  0
  196.1100  175.6380  135.7100 C   0  0  2  0  0  3  0  0  0  0  0  0
  194.5890  173.2280  135.9890 C   0  0  0  0  0  3  0  0  0  0  0  0
  195.6190  177.7260  135.6070 O   0  0  0  0  0  1  0  0  0  0  0  0
  196.4980  176.8570  135.1550 O   0  0  0  0  0  0  0  0  0  0  0  0
  189.7970  175.4280  137.7900 O   0  0  0  0  0  0  0  0  0  0  0  0
  190.3500  176.6780  138.0850 C   0  0  0  0  0  2  0  0  0  0  0  0
  189.4730  177.4330  139.0780 C   0  0  0  0  0  2  0  0  0  0  0  0
  189.9670  177.2570  140.5040 C   0  0  0  0  0  2  0  0  0  0  0  0
  189.1590  177.9930  141.3720 O   0  0  0  0  0  0  0  0  0  0  0  0
  189.8710  178.0450  142.5680 C   0  0  0  0  0  2  0  0  0  0  0  0
  191.8020  175.2310  145.6910 C   0  0  0  0  0  2  0  0  0  0  0  0
  192.2150  175.6350  147.1100 C   0  0  0  0  0  2  0  0  0  0  0  0
  191.4270  177.6360  145.2190 O   0  0  0  0  0  0  0  0  0  0  0  0
  189.9810  176.9050  147.0820 C   0  0  0  0  0  2  0  0  0  0  0  0
  191.3480  176.7350  147.7480 C   0  0  0  0  0  2  0  0  0  0  0  0
  191.8580  176.3910  144.6850 C   0  0  2  0  0  3  0  0  0  0  0  0
  189.1190  176.8890  144.7030 C   0  0  2  0  0  3  0  0  0  0  0  0
  190.0860  177.5610  145.6960 C   0  0  2  0  0  3  0  0  0  0  0  0
  191.0950  176.0260  143.4030 C   0  0  0  0  0  2  0  0  0  0  0  0
  189.7290  176.7180  143.3050 C   0  0  2  0  0  3  0  0  0  0  0  0
  186.9310  177.3410  143.5790 C   0  0  0  0  0  3  0  0  0  0  0  0
  185.1910  178.6660  144.6340 C   0  0  0  0  0  0  0  0  0  0  0  0
  187.2860  178.2570  145.7920 C   0  0  0  0  0  3  0  0  0  0  0  0
  186.0140  178.8360  145.7580 C   0  0  0  0  0  3  0  0  0  0  0  0
  185.6560  177.9190  143.5450 C   0  0  0  0  0  3  0  0  0  0  0  0
  187.7490  177.5030  144.7010 C   0  0  0  0  0  0  0  0  0  0  0  0
  183.8330  179.2860  144.5660 C   0  0  1  0  0  3  0  0  0  0  0  0
  183.1060  178.8730  143.3000 C   0  0  0  0  0  1  0  0  0  0  0  0
  183.0470  178.9130  145.7310 N   0  0  0  0  0  1  0  0  0  0  0  0
  189.5190  175.6940  135.4140 C   0  0  0  0  0  2  0  0  0  0  0  0
  188.0170  175.9320  135.6780 C   0  0  1  0  0  3  0  0  0  0  0  0
  186.7210  177.9570  136.3960 C   0  0  0  0  0  3  0  0  0  0  0  0
  187.6370  177.3850  135.6060 C   0  0  0  0  0  3  0  0  0  0  0  0
  185.9930  177.2210  137.4780 C   0  0  2  0  0  3  0  0  0  0  0  0
  184.6290  176.8180  137.0080 C   0  0  0  0  0  0  0  0  0  0  0  0
  183.8550  175.9800  137.7990 O   0  0  0  0  0  1  0  0  0  0  0  0
  184.1720  177.2380  135.9090 O   0  0  0  0  0  0  0  0  0  0  0  0
  185.9140  178.0950  138.7280 C   0  0  0  0  0  2  0  0  0  0  0  0
  184.8350  179.0610  138.6070 N   0  0  0  0  0  0  0  0  0  0  0  0
  183.9690  178.8780  139.7450 C   0  0  1  0  0  3  0  0  0  0  0  0
  184.9040  179.8610  139.7340 O   0  0  0  0  0  0  0  0  0  0  0  0
  182.6930  179.4480  139.4800 O   0  0  0  0  0  0  0  0  0  0  0  0
  181.4970  178.7450  139.6510 C   0  0  0  0  0  0  0  0  0  0  0  0
  181.5210  177.5700  140.2580 C   0  0  0  0  0  2  0  0  0  0  0  0
  180.1910  179.2880  139.1780 C   0  0  0  0  0  1  0  0  0  0  0  0
  187.1450  175.0950  134.7480 C   0  0  0  0  0  2  0  0  0  0  0  0
  186.4570  174.0120  135.5070 C   0  0  0  0  0  3  0  0  0  0  0  0
  185.4430  173.3560  134.9540 C   0  0  0  0  0  2  0  0  0  0  0  0
  1 37  1  6  0  0  0
  1 12  1  0  0  0  0
  2  1  1  0  0  0  0
  2  3  1  0  0  0  0
  4  7  1  0  0  0  0
  4  8  1  0  0  0  0
  5  3  1  0  0  0  0
  6  5  1  0  0  0  0
  7  9  1  0  0  0  0
  8 11  1  6  0  0  0
  8  6  1  0  0  0  0
  9  5  2  0  0  0  0
 11 10  1  0  0  0  0
 12 13  1  0  0  0  0
 13 14  1  0  0  0  0
 14 15  1  0  0  0  0
 15 16  1  0  0  0  0
 16 17  1  0  0  0  0
 18 19  1  0  0  0  0
 19 22  1  0  0  0  0
 20 25  1  0  0  0  0
 21 22  1  0  0  0  0
 23 26  1  6  0  0  0
 23 20  1  0  0  0  0
 23 18  1  0  0  0  0
 24 33  1  6  0  0  0
 24 25  1  0  0  0  0
 25 21  1  1  0  0  0
 27 17  1  1  0  0  0
 27 26  1  0  0  0  0
 27 24  1  0  0  0  0
 28 33  1  0  0  0  0
 29 31  2  0  0  0  0
 31 30  1  0  0  0  0
 32 28  2  0  0  0  0
 32 29  1  0  0  0  0
 33 30  2  0  0  0  0
 34 35  1  6  0  0  0
 34 29  1  0  0  0  0
 34 36  1  0  0  0  0
 37 38  1  0  0  0  0
 38 53  1  6  0  0  0
 40 38  1  0  0  0  0
 40 39  2  0  0  0  0
 41 39  1  6  0  0  0
 41 45  1  0  0  0  0
 42 41  1  0  0  0  0
 42 43  1  0  0  0  0
 44 42  2  0  0  0  0
 46 45  1  0  0  0  0
 46 48  1  0  0  0  0
 46 47  1  0  0  0  0
 47 49  1  6  0  0  0
 48 47  1  0  0  0  0
 49 50  1  0  0  0  0
 50 51  2  0  0  0  0
 52 50  1  0  0  0  0
 53 54  1  0  0  0  0
 55 54  2  0  0  0  0
M  END
>  <MODEL>
2

>  <REMARK>
 VINA RESULT:      -7.0      1.591      2.323
  Name = 
  24 active torsions:
  status: ('A' for Active; 'I' for Inactive)
    1  A    between atoms: C_1  and  C_53
    2  A    between atoms: N_3  and  C_38
    3  A    between atoms: C_4  and  O_35
    4  A    between atoms: C_4  and  C_37
    5  A    between atoms: C_5  and  C_37
    6  A    between atoms: C_5  and  O_40
    7  A    between atoms: C_6  and  C_53
    8  A    between atoms: C_7  and  C_20
    9  A    between atoms: C_8  and  C_22
   10  A    between atoms: C_8  and  C_43
   11  A    between atoms: C_10  and  C_32
   12  A    between atoms: C_11  and  O_50
   13  A    between atoms: C_12  and  O_50
   14  A    between atoms: C_19  and  O_40
   15  A    between atoms: C_19  and  C_49
   16  A    between atoms: C_20  and  C_22
   17  A    between atoms: C_22  and  C_46
   18  A    between atoms: C_27  and  C_54
   19  A    between atoms: O_28  and  C_44
   20  A    between atoms: C_33  and  C_52
   21  A    between atoms: O_35  and  C_43
   22  A    between atoms: C_38  and  C_53
   23  A    between atoms: C_43  and  C_51
   24  A    between atoms: C_51  and  C_54
                            x       y       z     vdW  Elec       q    Type
                         _______ _______ _______ _____ _____    ______ ____

>  <TORSDO>
F 24

$$$$
=
 OpenBabel10272401183D

 55 59  0  0  1  0  0  0  0  0999 V2000
  184.4900  178.9670  140.3850 C   0  0  1  0  0  3  0  0  0  0  0  0
  185.3920  179.3250  141.5640 C   0  0  0  0  0  2  0  0  0  0  0  0
  185.8070  178.0780  142.3220 C   0  0  0  0  0  2  0  0  0  0  0  0
  185.1040  178.0620  146.5880 C   0  0  0  0  0  2  0  0  0  0  0  0
  185.6350  178.2910  143.7890 C   0  0  0  0  0  0  0  0  0  0  0  0
  186.7420  177.8380  144.7110 C   0  0  0  0  0  2  0  0  0  0  0  0
  184.1910  178.9260  145.7250 C   0  0  0  0  0  2  0  0  0  0  0  0
  186.5480  178.2920  146.1590 C   0  0  2  0  0  3  0  0  0  0  0  0
  184.4460  178.7010  144.2570 C   0  0  0  0  0  3  0  0  0  0  0  0
  187.5900  178.3590  148.0350 O   0  0  0  0  0  1  0  0  0  0  0  0
  187.4070  177.5760  146.9920 O   0  0  0  0  0  0  0  0  0  0  0  0
  185.1090  178.0100  139.5730 O   0  0  0  0  0  0  0  0  0  0  0  0
  185.5870  178.7080  138.4600 C   0  0  0  0  0  2  0  0  0  0  0  0
  186.6740  177.9070  137.7510 C   0  0  0  0  0  2  0  0  0  0  0  0
  187.2940  178.6970  136.6120 C   0  0  0  0  0  2  0  0  0  0  0  0
  188.4870  178.0890  136.2160 O   0  0  0  0  0  0  0  0  0  0  0  0
  189.1830  177.8610  137.4000 C   0  0  0  0  0  2  0  0  0  0  0  0
  191.3960  174.0810  135.9080 C   0  0  0  0  0  2  0  0  0  0  0  0
  192.9150  173.9430  135.7680 C   0  0  0  0  0  2  0  0  0  0  0  0
  191.7490  176.5030  136.3110 O   0  0  0  0  0  0  0  0  0  0  0  0
  192.9410  175.1790  138.0210 C   0  0  0  0  0  2  0  0  0  0  0  0
  193.7360  174.7570  136.7840 C   0  0  0  0  0  2  0  0  0  0  0  0
  190.8950  175.5220  135.7340 C   0  0  2  0  0  3  0  0  0  0  0  0
  190.5970  176.0300  138.4560 C   0  0  2  0  0  3  0  0  0  0  0  0
  191.9200  176.2850  137.7090 C   0  0  2  0  0  3  0  0  0  0  0  0
  189.4520  175.6540  136.2450 C   0  0  0  0  0  2  0  0  0  0  0  0
  189.3630  176.3600  137.6050 C   0  0  2  0  0  3  0  0  0  0  0  0
  189.3780  176.5950  140.5650 C   0  0  0  0  0  3  0  0  0  0  0  0
  190.4520  177.7700  142.3980 C   0  0  0  0  0  0  0  0  0  0  0  0
  191.7030  177.2430  140.3840 C   0  0  0  0  0  3  0  0  0  0  0  0
  191.6460  177.8120  141.6610 C   0  0  0  0  0  3  0  0  0  0  0  0
  189.3200  177.1620  141.8440 C   0  0  0  0  0  3  0  0  0  0  0  0
  190.5680  176.6290  139.8330 C   0  0  0  0  0  0  0  0  0  0  0  0
  190.3590  178.3830  143.7580 C   0  0  1  0  0  3  0  0  0  0  0  0
  190.3550  177.3170  144.8380 C   0  0  0  0  0  1  0  0  0  0  0  0
  191.4640  179.3020  143.9760 N   0  0  0  0  0  1  0  0  0  0  0  0
  183.1130  178.4560  140.8420 C   0  0  0  0  0  2  0  0  0  0  0  0
  182.1810  177.8850  139.7520 C   0  0  1  0  0  3  0  0  0  0  0  0
  182.4670  175.5910  138.7770 C   0  0  0  0  0  3  0  0  0  0  0  0
  182.0960  176.3850  139.7890 C   0  0  0  0  0  3  0  0  0  0  0  0
  183.0510  176.1070  137.4980 C   0  0  2  0  0  3  0  0  0  0  0  0
  182.0080  176.1410  136.4240 C   0  0  0  0  0  0  0  0  0  0  0  0
  182.0560  175.2090  135.3970 O   0  0  0  0  0  0  0  0  0  0  0  0
  181.0830  176.9990  136.4470 O   0  0  0  0  0  1  0  0  0  0  0  0
  184.2390  175.2380  137.0920 C   0  0  0  0  0  2  0  0  0  0  0  0
  184.1590  173.9350  137.7280 N   0  0  0  0  0  0  0  0  0  0  0  0
  184.6090  172.9600  136.7660 C   0  0  1  0  0  3  0  0  0  0  0  0
  185.4440  173.4240  137.7290 O   0  0  0  0  0  0  0  0  0  0  0  0
  184.1490  171.6660  137.1350 O   0  0  0  0  0  0  0  0  0  0  0  0
  183.2890  170.9090  136.3330 C   0  0  0  0  0  0  0  0  0  0  0  0
  182.1940  171.4730  135.8500 C   0  0  0  0  0  2  0  0  0  0  0  0
  183.5780  169.4850  135.9970 C   0  0  0  0  0  1  0  0  0  0  0  0
  180.7920  178.5110  139.8170 C   0  0  0  0  0  2  0  0  0  0  0  0
  180.7980  179.8680  139.2020 C   0  0  0  0  0  3  0  0  0  0  0  0
  181.4840  180.0870  138.0850 C   0  0  0  0  0  2  0  0  0  0  0  0
  1 37  1  1  0  0  0
  1  2  1  0  0  0  0
  2  3  1  0  0  0  0
  3  5  1  0  0  0  0
  5  9  2  0  0  0  0
  5  6  1  0  0  0  0
  6  8  1  0  0  0  0
  7  4  1  0  0  0  0
  8  4  1  0  0  0  0
  8 11  1  1  0  0  0
  9  7  1  0  0  0  0
 11 10  1  0  0  0  0
 12  1  1  0  0  0  0
 13 12  1  0  0  0  0
 14 13  1  0  0  0  0
 15 14  1  0  0  0  0
 16 15  1  0  0  0  0
 16 17  1  0  0  0  0
 19 18  1  0  0  0  0
 19 22  1  0  0  0  0
 20 25  1  0  0  0  0
 22 21  1  0  0  0  0
 23 18  1  1  0  0  0
 23 26  1  0  0  0  0
 23 20  1  0  0  0  0
 24 33  1  1  0  0  0
 25 21  1  6  0  0  0
 25 24  1  0  0  0  0
 26 27  1  0  0  0  0
 27 17  1  6  0  0  0
 27 24  1  0  0  0  0
 28 32  1  0  0  0  0
 29 34  1  0  0  0  0
 30 31  2  0  0  0  0
 31 29  1  0  0  0  0
 32 29  2  0  0  0  0
 33 30  1  0  0  0  0
 33 28  2  0  0  0  0
 34 36  1  0  0  0  0
 34 35  1  1  0  0  0
 38 40  1  1  0  0  0
 38 53  1  0  0  0  0
 38 37  1  0  0  0  0
 39 40  2  0  0  0  0
 41 45  1  6  0  0  0
 41 39  1  0  0  0  0
 42 44  1  0  0  0  0
 42 41  1  0  0  0  0
 43 42  2  0  0  0  0
 45 46  1  0  0  0  0
 46 48  1  0  0  0  0
 47 49  1  1  0  0  0
 47 46  1  0  0  0  0
 47 48  1  0  0  0  0
 50 49  1  0  0  0  0
 51 50  2  0  0  0  0
 52 50  1  0  0  0  0
 54 53  1  0  0  0  0
 55 54  2  0  0  0  0
M  END
>  <MODEL>
3

>  <REMARK>
 VINA RESULT:      -7.0      2.586      7.996
  Name = 
  24 active torsions:
  status: ('A' for Active; 'I' for Inactive)
    1  A    between atoms: C_1  and  C_53
    2  A    between atoms: N_3  and  C_38
    3  A    between atoms: C_4  and  O_35
    4  A    between atoms: C_4  and  C_37
    5  A    between atoms: C_5  and  C_37
    6  A    between atoms: C_5  and  O_40
    7  A    between atoms: C_6  and  C_53
    8  A    between atoms: C_7  and  C_20
    9  A    between atoms: C_8  and  C_22
   10  A    between atoms: C_8  and  C_43
   11  A    between atoms: C_10  and  C_32
   12  A    between atoms: C_11  and  O_50
   13  A    between atoms: C_12  and  O_50
   14  A    between atoms: C_19  and  O_40
   15  A    between atoms: C_19  and  C_49
   16  A    between atoms: C_20  and  C_22
   17  A    between atoms: C_22  and  C_46
   18  A    between atoms: C_27  and  C_54
   19  A    between atoms: O_28  and  C_44
   20  A    between atoms: C_33  and  C_52
   21  A    between atoms: O_35  and  C_43
   22  A    between atoms: C_38  and  C_53
   23  A    between atoms: C_43  and  C_51
   24  A    between atoms: C_51  and  C_54
                            x       y       z     vdW  Elec       q    Type
                         _______ _______ _______ _____ _____    ______ ____

>  <TORSDO>
F 24

$$$$
=
 OpenBabel10272401183D

 55 59  0  0  1  0  0  0  0  0999 V2000
  186.9280  178.3180  141.1420 C   0  0  1  0  0  3  0  0  0  0  0  0
  185.7500  179.1880  141.5740 C   0  0  0  0  0  2  0  0  0  0  0  0
  184.6880  178.3530  142.2650 C   0  0  0  0  0  2  0  0  0  0  0  0
  181.1320  179.2680  139.9840 C   0  0  0  0  0  2  0  0  0  0  0  0
  183.3980  178.4520  141.5240 C   0  0  0  0  0  0  0  0  0  0  0  0
  183.4160  178.2500  140.0270 C   0  0  0  0  0  2  0  0  0  0  0  0
  180.9690  179.0350  141.4810 C   0  0  0  0  0  2  0  0  0  0  0  0
  182.0190  178.1700  139.4090 C   0  0  2  0  0  3  0  0  0  0  0  0
  182.3050  178.8950  142.1650 C   0  0  0  0  0  3  0  0  0  0  0  0
  181.1540  177.5500  137.5450 O   0  0  0  0  0  1  0  0  0  0  0  0
  182.1120  178.3140  138.0250 O   0  0  0  0  0  0  0  0  0  0  0  0
  187.5260  178.8470  139.9930 O   0  0  0  0  0  0  0  0  0  0  0  0
  187.3600  177.8780  138.9980 C   0  0  0  0  0  2  0  0  0  0  0  0
  188.6230  177.0340  138.8550 C   0  0  0  0  0  2  0  0  0  0  0  0
  189.7860  177.8570  138.3280 C   0  0  0  0  0  2  0  0  0  0  0  0
  190.9630  177.4660  138.9680 O   0  0  0  0  0  0  0  0  0  0  0  0
  191.1820  176.1560  138.5480 C   0  0  0  0  0  2  0  0  0  0  0  0
  194.6960  174.8710  135.8270 C   0  0  0  0  0  2  0  0  0  0  0  0
  195.2550  173.4490  135.7160 C   0  0  0  0  0  2  0  0  0  0  0  0
  193.3590  174.0920  137.7650 O   0  0  0  0  0  0  0  0  0  0  0  0
  192.7710  172.7860  135.7530 C   0  0  0  0  0  2  0  0  0  0  0  0
  194.2210  172.3290  135.9300 C   0  0  0  0  0  2  0  0  0  0  0  0
  194.0800  175.1800  137.1990 C   0  0  2  0  0  3  0  0  0  0  0  0
  191.4380  174.8420  136.3860 C   0  0  2  0  0  3  0  0  0  0  0  0
  192.2950  173.6750  136.9130 C   0  0  2  0  0  3  0  0  0  0  0  0
  193.2250  176.4540  137.1290 C   0  0  0  0  0  2  0  0  0  0  0  0
  191.7180  176.1610  137.1200 C   0  0  2  0  0  3  0  0  0  0  0  0
  189.1420  175.3420  135.5300 C   0  0  0  0  0  3  0  0  0  0  0  0
  187.2360  173.9350  136.0620 C   0  0  0  0  0  0  0  0  0  0  0  0
  189.4400  173.3800  136.9170 C   0  0  0  0  0  3  0  0  0  0  0  0
  188.0740  173.0970  136.8130 C   0  0  0  0  0  3  0  0  0  0  0  0
  187.7750  175.0580  135.4230 C   0  0  0  0  0  3  0  0  0  0  0  0
  189.9800  174.5030  136.2720 C   0  0  0  0  0  0  0  0  0  0  0  0
  185.7710  173.6630  135.9450 C   0  0  1  0  0  3  0  0  0  0  0  0
  185.4720  172.1880  136.1280 C   0  0  0  0  0  1  0  0  0  0  0  0
  185.0320  174.4420  136.9260 N   0  0  0  0  0  1  0  0  0  0  0  0
  187.9770  178.1650  142.2560 C   0  0  0  0  0  2  0  0  0  0  0  0
  187.8770  176.9060  143.1430 C   0  0  1  0  0  3  0  0  0  0  0  0
  190.1990  175.9570  143.2070 C   0  0  0  0  0  3  0  0  0  0  0  0
  188.9220  175.8770  142.8120 C   0  0  0  0  0  3  0  0  0  0  0  0
  190.7280  177.0660  144.0630 C   0  0  2  0  0  3  0  0  0  0  0  0
  191.4090  178.0980  143.2170 C   0  0  0  0  0  0  0  0  0  0  0  0
  191.5900  179.3800  143.7190 O   0  0  0  0  0  1  0  0  0  0  0  0
  191.8290  177.8150  142.0610 O   0  0  0  0  0  0  0  0  0  0  0  0
  191.6770  176.4930  145.1130 C   0  0  0  0  0  2  0  0  0  0  0  0
  191.5850  177.2490  146.3500 N   0  0  0  0  0  0  0  0  0  0  0  0
  190.7270  176.5090  147.2400 C   0  0  1  0  0  3  0  0  0  0  0  0
  192.0770  176.4250  147.3460 O   0  0  0  0  0  0  0  0  0  0  0  0
  190.2350  177.3660  148.2630 O   0  0  0  0  0  0  0  0  0  0  0  0
  188.9200  177.8390  148.2900 C   0  0  0  0  0  0  0  0  0  0  0  0
  188.6770  179.0900  147.9350 C   0  0  0  0  0  2  0  0  0  0  0  0
  187.7790  176.9690  148.6980 C   0  0  0  0  0  1  0  0  0  0  0  0
  187.9130  177.2600  144.6260 C   0  0  0  0  0  2  0  0  0  0  0  0
  186.5380  177.2420  145.2030 C   0  0  0  0  0  3  0  0  0  0  0  0
  186.0040  178.3620  145.6770 C   0  0  0  0  0  2  0  0  0  0  0  0
  1  2  1  1  0  0  0
  1 37  1  0  0  0  0
  2  3  1  0  0  0  0
  4  7  1  0  0  0  0
  5  9  2  0  0  0  0
  5  3  1  0  0  0  0
  6  5  1  0  0  0  0
  7  9  1  0  0  0  0
  8 11  1  6  0  0  0
  8  4  1  0  0  0  0
  8  6  1  0  0  0  0
 10 11  1  0  0  0  0
 12  1  1  0  0  0  0
 13 12  1  0  0  0  0
 14 13  1  0  0  0  0
 15 14  1  0  0  0  0
 15 16  1  0  0  0  0
 17 16  1  0  0  0  0
 19 18  1  0  0  0  0
 19 22  1  0  0  0  0
 21 22  1  0  0  0  0
 23 18  1  6  0  0  0
 23 20  1  0  0  0  0
 24 33  1  1  0  0  0
 24 25  1  0  0  0  0
 24 27  1  0  0  0  0
 25 21  1  6  0  0  0
 25 20  1  0  0  0  0
 26 23  1  0  0  0  0
 27 26  1  0  0  0  0
 27 17  1  1  0  0  0
 28 33  1  0  0  0  0
 29 31  2  0  0  0  0
 31 30  1  0  0  0  0
 32 28  2  0  0  0  0
 32 29  1  0  0  0  0
 33 30  2  0  0  0  0
 34 29  1  0  0  0  0
 34 35  1  1  0  0  0
 34 36  1  0  0  0  0
 38 37  1  6  0  0  0
 38 53  1  0  0  0  0
 40 38  1  0  0  0  0
 40 39  2  0  0  0  0
 41 39  1  6  0  0  0
 41 45  1  0  0  0  0
 42 43  1  0  0  0  0
 42 41  1  0  0  0  0
 44 42  2  0  0  0  0
 45 46  1  0  0  0  0
 46 47  1  0  0  0  0
 46 48  1  0  0  0  0
 47 48  1  0  0  0  0
 47 49  1  1  0  0  0
 49 50  1  0  0  0  0
 50 52  1  0  0  0  0
 51 50  2  0  0  0  0
 53 54  1  0  0  0  0
 54 55  2  0  0  0  0
M  END
>  <MODEL>
4

>  <REMARK>
 VINA RESULT:      -7.0      2.360      9.837
  Name = 
  24 active torsions:
  status: ('A' for Active; 'I' for Inactive)
    1  A    between atoms: C_1  and  C_53
    2  A    between atoms: N_3  and  C_38
    3  A    between atoms: C_4  and  O_35
    4  A    between atoms: C_4  and  C_37
    5  A    between atoms: C_5  and  C_37
    6  A    between atoms: C_5  and  O_40
    7  A    between atoms: C_6  and  C_53
    8  A    between atoms: C_7  and  C_20
    9  A    between atoms: C_8  and  C_22
   10  A    between atoms: C_8  and  C_43
   11  A    between atoms: C_10  and  C_32
   12  A    between atoms: C_11  and  O_50
   13  A    between atoms: C_12  and  O_50
   14  A    between atoms: C_19  and  O_40
   15  A    between atoms: C_19  and  C_49
   16  A    between atoms: C_20  and  C_22
   17  A    between atoms: C_22  and  C_46
   18  A    between atoms: C_27  and  C_54
   19  A    between atoms: O_28  and  C_44
   20  A    between atoms: C_33  and  C_52
   21  A    between atoms: O_35  and  C_43
   22  A    between atoms: C_38  and  C_53
   23  A    between atoms: C_43  and  C_51
   24  A    between atoms: C_51  and  C_54
                            x       y       z     vdW  Elec       q    Type
                         _______ _______ _______ _____ _____    ______ ____

>  <TORSDO>
F 24

$$$$
=
 OpenBabel10272401183D

 55 59  0  0  1  0  0  0  0  0999 V2000
  186.5900  178.2720  141.4290 C   0  0  1  0  0  3  0  0  0  0  0  0
  185.5540  179.2880  141.9040 C   0  0  0  0  0  2  0  0  0  0  0  0
  184.6640  178.6880  142.9770 C   0  0  0  0  0  2  0  0  0  0  0  0
  180.6390  179.3570  141.5470 C   0  0  0  0  0  2  0  0  0  0  0  0
  183.2430  178.6950  142.5230 C   0  0  0  0  0  0  0  0  0  0  0  0
  182.9640  178.5870  141.0430 C   0  0  0  0  0  2  0  0  0  0  0  0
  180.8170  179.0180  143.0220 C   0  0  0  0  0  2  0  0  0  0  0  0
  181.4830  178.3960  140.7170 C   0  0  2  0  0  3  0  0  0  0  0  0
  182.2730  178.9790  143.4070 C   0  0  0  0  0  3  0  0  0  0  0  0
  182.4460  178.9910  138.8930 O   0  0  0  0  0  1  0  0  0  0  0  0
  181.2680  178.6330  139.3600 O   0  0  0  0  0  0  0  0  0  0  0  0
  187.0840  178.6330  140.1710 O   0  0  0  0  0  0  0  0  0  0  0  0
  188.4250  178.2370  140.1610 C   0  0  0  0  0  2  0  0  0  0  0  0
  189.0660  178.5460  138.8120 C   0  0  0  0  0  2  0  0  0  0  0  0
  189.7600  177.3250  138.2330 C   0  0  0  0  0  2  0  0  0  0  0  0
  190.0090  177.5300  136.8750 O   0  0  0  0  0  0  0  0  0  0  0  0
  189.1630  176.6410  136.2170 C   0  0  0  0  0  2  0  0  0  0  0  0
  186.5890  172.8380  136.7840 C   0  0  0  0  0  2  0  0  0  0  0  0
  186.3730  171.7500  135.7270 C   0  0  0  0  0  2  0  0  0  0  0  0
  187.6600  174.2090  135.0160 O   0  0  0  0  0  0  0  0  0  0  0  0
  188.8850  172.0830  135.2960 C   0  0  0  0  0  2  0  0  0  0  0  0
  187.5580  171.5360  134.7680 C   0  0  0  0  0  2  0  0  0  0  0  0
  186.8500  174.2280  136.1850 C   0  0  2  0  0  3  0  0  0  0  0  0
  189.6100  174.1600  136.5480 C   0  0  2  0  0  3  0  0  0  0  0  0
  188.9320  173.6190  135.2750 C   0  0  2  0  0  3  0  0  0  0  0  0
  187.4160  175.1750  137.2540 C   0  0  0  0  0  2  0  0  0  0  0  0
  188.9230  175.4190  137.0970 C   0  0  2  0  0  3  0  0  0  0  0  0
  191.8800  174.3670  137.5780 C   0  0  0  0  0  3  0  0  0  0  0  0
  193.8910  174.5550  136.2320 C   0  0  0  0  0  0  0  0  0  0  0  0
  191.7220  174.3430  135.1620 C   0  0  0  0  0  3  0  0  0  0  0  0
  193.1110  174.4780  135.0690 C   0  0  0  0  0  3  0  0  0  0  0  0
  193.2700  174.5010  137.4850 C   0  0  0  0  0  3  0  0  0  0  0  0
  191.1010  174.2830  136.4200 C   0  0  0  0  0  0  0  0  0  0  0  0
  195.3760  174.7150  136.1610 C   0  0  1  0  0  3  0  0  0  0  0  0
  195.7640  175.7660  135.1390 C   0  0  0  0  0  1  0  0  0  0  0  0
  195.9100  175.0730  137.4650 N   0  0  0  0  0  1  0  0  0  0  0  0
  187.7530  178.1190  142.4250 C   0  0  0  0  0  2  0  0  0  0  0  0
  187.7400  176.8690  143.3300 C   0  0  1  0  0  3  0  0  0  0  0  0
  190.0380  175.8900  143.0970 C   0  0  0  0  0  3  0  0  0  0  0  0
  188.7190  175.8190  142.8840 C   0  0  0  0  0  3  0  0  0  0  0  0
  190.6920  177.0110  143.8450 C   0  0  2  0  0  3  0  0  0  0  0  0
  191.3650  177.9510  142.8930 C   0  0  0  0  0  0  0  0  0  0  0  0
  191.6180  177.5380  141.5920 O   0  0  0  0  0  0  0  0  0  0  0  0
  191.6940  179.1140  143.2540 O   0  0  0  0  0  1  0  0  0  0  0  0
  191.6830  176.4410  144.8570 C   0  0  0  0  0  2  0  0  0  0  0  0
  191.6370  177.1970  146.0970 N   0  0  0  0  0  0  0  0  0  0  0  0
  190.7760  176.4790  147.0030 C   0  0  1  0  0  3  0  0  0  0  0  0
  192.1250  176.3560  147.0820 O   0  0  0  0  0  0  0  0  0  0  0  0
  190.3280  177.3470  148.0370 O   0  0  0  0  0  0  0  0  0  0  0  0
  188.9760  177.5610  148.3160 C   0  0  0  0  0  0  0  0  0  0  0  0
  188.1650  176.5200  148.4140 C   0  0  0  0  0  2  0  0  0  0  0  0
  188.4210  178.9310  148.5180 C   0  0  0  0  0  1  0  0  0  0  0  0
  187.9630  177.2340  144.7940 C   0  0  0  0  0  2  0  0  0  0  0  0
  186.9120  178.1810  145.2640 C   0  0  0  0  0  3  0  0  0  0  0  0
  185.9110  177.7390  146.0180 C   0  0  0  0  0  2  0  0  0  0  0  0
  1  2  1  1  0  0  0
  1 37  1  0  0  0  0
  2  3  1  0  0  0  0
  4  7  1  0  0  0  0
  5  3  1  0  0  0  0
  5  9  2  0  0  0  0
  6  5  1  0  0  0  0
  7  9  1  0  0  0  0
  8 11  1  6  0  0  0
  8  6  1  0  0  0  0
  8  4  1  0  0  0  0
 10 11  1  0  0  0  0
 12  1  1  0  0  0  0
 13 12  1  0  0  0  0
 14 13  1  0  0  0  0
 15 14  1  0  0  0  0
 16 15  1  0  0  0  0
 17 16  1  0  0  0  0
 19 18  1  0  0  0  0
 20 25  1  0  0  0  0
 20 23  1  0  0  0  0
 22 21  1  0  0  0  0
 22 19  1  0  0  0  0
 23 18  1  1  0  0  0
 23 26  1  0  0  0  0
 24 33  1  6  0  0  0
 24 27  1  0  0  0  0
 25 21  1  1  0  0  0
 25 24  1  0  0  0  0
 27 17  1  6  0  0  0
 27 26  1  0  0  0  0
 29 32  2  0  0  0  0
 30 33  1  0  0  0  0
 31 30  2  0  0  0  0
 31 29  1  0  0  0  0
 32 28  1  0  0  0  0
 33 28  2  0  0  0  0
 34 35  1  6  0  0  0
 34 29  1  0  0  0  0
 34 36  1  0  0  0  0
 38 37  1  6  0  0  0
 38 53  1  0  0  0  0
 40 39  2  0  0  0  0
 40 38  1  0  0  0  0
 41 39  1  6  0  0  0
 41 45  1  0  0  0  0
 42 44  1  0  0  0  0
 42 41  1  0  0  0  0
 43 42  2  0  0  0  0
 45 46  1  0  0  0  0
 46 47  1  0  0  0  0
 46 48  1  0  0  0  0
 47 48  1  0  0  0  0
 47 49  1  1  0  0  0
 49 50  1  0  0  0  0
 50 51  2  0  0  0  0
 50 52  1  0  0  0  0
 53 54  1  0  0  0  0
 54 55  2  0  0  0  0
M  END
>  <MODEL>
5

>  <REMARK>
 VINA RESULT:      -6.9      2.875     10.672
  Name = 
  24 active torsions:
  status: ('A' for Active; 'I' for Inactive)
    1  A    between atoms: C_1  and  C_53
    2  A    between atoms: N_3  and  C_38
    3  A    between atoms: C_4  and  O_35
    4  A    between atoms: C_4  and  C_37
    5  A    between atoms: C_5  and  C_37
    6  A    between atoms: C_5  and  O_40
    7  A    between atoms: C_6  and  C_53
    8  A    between atoms: C_7  and  C_20
    9  A    between atoms: C_8  and  C_22
   10  A    between atoms: C_8  and  C_43
   11  A    between atoms: C_10  and  C_32
   12  A    between atoms: C_11  and  O_50
   13  A    between atoms: C_12  and  O_50
   14  A    between atoms: C_19  and  O_40
   15  A    between atoms: C_19  and  C_49
   16  A    between atoms: C_20  and  C_22
   17  A    between atoms: C_22  and  C_46
   18  A    between atoms: C_27  and  C_54
   19  A    between atoms: O_28  and  C_44
   20  A    between atoms: C_33  and  C_52
   21  A    between atoms: O_35  and  C_43
   22  A    between atoms: C_38  and  C_53
   23  A    between atoms: C_43  and  C_51
   24  A    between atoms: C_51  and  C_54
                            x       y       z     vdW  Elec       q    Type
                         _______ _______ _______ _____ _____    ______ ____

>  <TORSDO>
F 24

$$$$
=
 OpenBabel10272401183D

 55 59  0  0  1  0  0  0  0  0999 V2000
  185.8070  178.4300  139.9510 C   0  0  1  0  0  3  0  0  0  0  0  0
  184.8530  178.7580  138.8050 C   0  0  0  0  0  2  0  0  0  0  0  0
  184.8270  177.6330  137.7880 C   0  0  0  0  0  2  0  0  0  0  0  0
  181.0060  176.0000  136.5950 C   0  0  0  0  0  2  0  0  0  0  0  0
  183.4220  177.1890  137.5520 C   0  0  0  0  0  0  0  0  0  0  0  0
  182.9940  175.8500  138.1040 C   0  0  0  0  0  2  0  0  0  0  0  0
  181.2200  177.4990  136.4150 C   0  0  0  0  0  2  0  0  0  0  0  0
  181.4900  175.5970  137.9820 C   0  0  2  0  0  3  0  0  0  0  0  0
  182.6440  177.8910  136.7130 C   0  0  0  0  0  3  0  0  0  0  0  0
  182.0320  173.6100  137.3760 O   0  0  0  0  0  1  0  0  0  0  0  0
  181.2250  174.2460  138.2000 O   0  0  0  0  0  0  0  0  0  0  0  0
  187.1270  178.7090  139.5790 O   0  0  0  0  0  0  0  0  0  0  0  0
  187.9310  178.1020  140.5480 C   0  0  0  0  0  2  0  0  0  0  0  0
  189.0380  177.2830  139.8910 C   0  0  0  0  0  2  0  0  0  0  0  0
  190.3660  177.4680  140.6030 C   0  0  0  0  0  2  0  0  0  0  0  0
  191.4120  177.1650  139.7290 O   0  0  0  0  0  0  0  0  0  0  0  0
  190.9130  176.1550  138.9100 C   0  0  0  0  0  2  0  0  0  0  0  0
  194.3870  175.1110  136.0390 C   0  0  0  0  0  2  0  0  0  0  0  0
  194.8910  173.6950  135.7370 C   0  0  0  0  0  2  0  0  0  0  0  0
  193.0120  174.1310  137.8560 O   0  0  0  0  0  0  0  0  0  0  0  0
  192.3830  173.1310  135.6870 C   0  0  0  0  0  2  0  0  0  0  0  0
  193.8130  172.5980  135.8000 C   0  0  0  0  0  2  0  0  0  0  0  0
  193.7770  175.2560  137.4410 C   0  0  2  0  0  3  0  0  0  0  0  0
  191.1280  175.1340  136.5920 C   0  0  2  0  0  3  0  0  0  0  0  0
  191.9360  173.8740  136.9560 C   0  0  2  0  0  3  0  0  0  0  0  0
  192.9720  176.5600  137.5430 C   0  0  0  0  0  2  0  0  0  0  0  0
  191.4560  176.3310  137.4960 C   0  0  2  0  0  3  0  0  0  0  0  0
  188.8330  175.8870  135.9430 C   0  0  0  0  0  3  0  0  0  0  0  0
  186.8950  174.4410  136.1580 C   0  0  0  0  0  0  0  0  0  0  0  0
  189.0960  173.6370  136.7960 C   0  0  0  0  0  3  0  0  0  0  0  0
  187.7200  173.4230  136.6590 C   0  0  0  0  0  3  0  0  0  0  0  0
  187.4570  175.6730  135.8030 C   0  0  0  0  0  3  0  0  0  0  0  0
  189.6580  174.8710  136.4340 C   0  0  0  0  0  0  0  0  0  0  0  0
  185.4200  174.2440  136.0150 C   0  0  1  0  0  3  0  0  0  0  0  0
  184.8720  175.0440  134.8490 C   0  0  0  0  0  1  0  0  0  0  0  0
  185.1130  172.8350  135.8340 N   0  0  0  0  0  1  0  0  0  0  0  0
  185.4530  179.1940  141.2390 C   0  0  0  0  0  2  0  0  0  0  0  0
  184.4800  178.5030  142.2170 C   0  0  1  0  0  3  0  0  0  0  0  0
  184.1990  179.3940  144.5460 C   0  0  0  0  0  3  0  0  0  0  0  0
  183.9140  179.4490  143.2390 C   0  0  0  0  0  3  0  0  0  0  0  0
  185.1510  178.4010  145.1390 C   0  0  2  0  0  3  0  0  0  0  0  0
  185.1560  178.5120  146.6330 C   0  0  0  0  0  0  0  0  0  0  0  0
  185.7590  179.6100  147.2330 O   0  0  0  0  0  0  0  0  0  0  0  0
  184.6120  177.6280  147.3500 O   0  0  0  0  0  1  0  0  0  0  0  0
  186.5460  178.6210  144.5600 C   0  0  0  0  0  2  0  0  0  0  0  0
  187.2940  177.3770  144.5450 N   0  0  0  0  0  0  0  0  0  0  0  0
  188.6890  177.7140  144.6870 C   0  0  1  0  0  3  0  0  0  0  0  0
  187.9590  177.3090  145.7570 O   0  0  0  0  0  0  0  0  0  0  0  0
  189.4970  176.6320  144.2420 O   0  0  0  0  0  0  0  0  0  0  0  0
  190.8590  176.5290  144.5400 C   0  0  0  0  0  0  0  0  0  0  0  0
  191.6500  175.8590  143.7190 C   0  0  0  0  0  2  0  0  0  0  0  0
  191.4480  177.1640  145.7550 C   0  0  0  0  0  1  0  0  0  0  0  0
  183.3640  177.7730  141.4760 C   0  0  0  0  0  2  0  0  0  0  0  0
  182.1660  178.6480  141.3380 C   0  0  0  0  0  3  0  0  0  0  0  0
  181.3050  178.4420  140.3470 C   0  0  0  0  0  2  0  0  0  0  0  0
  1  2  1  6  0  0  0
  1 37  1  0  0  0  0
  3  2  1  0  0  0  0
  4  8  1  0  0  0  0
  5  3  1  0  0  0  0
  5  6  1  0  0  0  0
  7  4  1  0  0  0  0
  7  9  1  0  0  0  0
  8  6  1  0  0  0  0
  8 11  1  6  0  0  0
  9  5  2  0  0  0  0
 10 11  1  0  0  0  0
 12  1  1  0  0  0  0
 12 13  1  0  0  0  0
 14 13  1  0  0  0  0
 14 15  1  0  0  0  0
 16 15  1  0  0  0  0
 17 16  1  0  0  0  0
 19 22  1  0  0  0  0
 19 18  1  0  0  0  0
 21 22  1  0  0  0  0
 23 18  1  6  0  0  0
 23 26  1  0  0  0  0
 23 20  1  0  0  0  0
 24 33  1  1  0  0  0
 24 25  1  0  0  0  0
 24 27  1  0  0  0  0
 25 21  1  6  0  0  0
 25 20  1  0  0  0  0
 27 26  1  0  0  0  0
 27 17  1  1  0  0  0
 28 33  1  0  0  0  0
 29 31  2  0  0  0  0
 31 30  1  0  0  0  0
 32 28  2  0  0  0  0
 32 29  1  0  0  0  0
 33 30  2  0  0  0  0
 34 35  1  6  0  0  0
 34 29  1  0  0  0  0
 36 34  1  0  0  0  0
 38 37  1  6  0  0  0
 38 40  1  0  0  0  0
 40 39  2  0  0  0  0
 41 39  1  6  0  0  0
 41 42  1  0  0  0  0
 42 43  2  0  0  0  0
 42 44  1  0  0  0  0
 45 41  1  0  0  0  0
 46 45  1  0  0  0  0
 46 47  1  0  0  0  0
 46 48  1  0  0  0  0
 47 49  1  6  0  0  0
 47 48  1  0  0  0  0
 49 50  1  0  0  0  0
 50 52  1  0  0  0  0
 51 50  2  0  0  0  0
 53 38  1  0  0  0  0
 54 53  1  0  0  0  0
 55 54  2  0  0  0  0
M  END
>  <MODEL>
6

>  <REMARK>
 VINA RESULT:      -6.6      2.391      8.980
  Name = 
  24 active torsions:
  status: ('A' for Active; 'I' for Inactive)
    1  A    between atoms: C_1  and  C_53
    2  A    between atoms: N_3  and  C_38
    3  A    between atoms: C_4  and  O_35
    4  A    between atoms: C_4  and  C_37
    5  A    between atoms: C_5  and  C_37
    6  A    between atoms: C_5  and  O_40
    7  A    between atoms: C_6  and  C_53
    8  A    between atoms: C_7  and  C_20
    9  A    between atoms: C_8  and  C_22
   10  A    between atoms: C_8  and  C_43
   11  A    between atoms: C_10  and  C_32
   12  A    between atoms: C_11  and  O_50
   13  A    between atoms: C_12  and  O_50
   14  A    between atoms: C_19  and  O_40
   15  A    between atoms: C_19  and  C_49
   16  A    between atoms: C_20  and  C_22
   17  A    between atoms: C_22  and  C_46
   18  A    between atoms: C_27  and  C_54
   19  A    between atoms: O_28  and  C_44
   20  A    between atoms: C_33  and  C_52
   21  A    between atoms: O_35  and  C_43
   22  A    between atoms: C_38  and  C_53
   23  A    between atoms: C_43  and  C_51
   24  A    between atoms: C_51  and  C_54
                            x       y       z     vdW  Elec       q    Type
                         _______ _______ _______ _____ _____    ______ ____

>  <TORSDO>
F 24

$$$$
=
 OpenBabel10272401183D

 55 59  0  0  1  0  0  0  0  0999 V2000
  186.5380  177.6850  137.8710 C   0  0  1  0  0  3  0  0  0  0  0  0
  187.8460  177.6020  137.0870 C   0  0  0  0  0  2  0  0  0  0  0  0
  187.6110  177.0070  135.7110 C   0  0  0  0  0  2  0  0  0  0  0  0
  189.7150  173.2450  136.0450 C   0  0  0  0  0  2  0  0  0  0  0  0
  188.2390  175.6560  135.6260 C   0  0  0  0  0  0  0  0  0  0  0  0
  187.5880  174.5170  136.3750 C   0  0  0  0  0  2  0  0  0  0  0  0
  190.1470  174.2000  134.9380 C   0  0  0  0  0  2  0  0  0  0  0  0
  188.1940  173.1520  136.0470 C   0  0  2  0  0  3  0  0  0  0  0  0
  189.4450  175.5280  135.0500 C   0  0  0  0  0  3  0  0  0  0  0  0
  186.5890  172.6310  137.3750 O   0  0  0  0  0  1  0  0  0  0  0  0
  187.7800  172.2180  136.9960 O   0  0  0  0  0  0  0  0  0  0  0  0
  186.5460  178.8040  138.7120 O   0  0  0  0  0  0  0  0  0  0  0  0
  186.9850  178.3390  139.9560 C   0  0  0  0  0  2  0  0  0  0  0  0
  188.2050  177.4380  139.7930 C   0  0  0  0  0  2  0  0  0  0  0  0
  189.4820  178.1490  140.2060 C   0  0  0  0  0  2  0  0  0  0  0  0
  190.2250  177.3220  141.0500 O   0  0  0  0  0  0  0  0  0  0  0  0
  189.8570  177.7000  142.3380 C   0  0  0  0  0  2  0  0  0  0  0  0
  191.8440  175.1690  145.6630 C   0  0  0  0  0  2  0  0  0  0  0  0
  192.3200  175.7050  147.0170 C   0  0  0  0  0  2  0  0  0  0  0  0
  191.5040  177.5230  144.9590 O   0  0  0  0  0  0  0  0  0  0  0  0
  190.1160  177.0250  146.9390 C   0  0  0  0  0  2  0  0  0  0  0  0
  191.5030  176.8870  147.5700 C   0  0  0  0  0  2  0  0  0  0  0  0
  191.8860  176.2190  144.5420 C   0  0  2  0  0  3  0  0  0  0  0  0
  189.1620  176.7880  144.6070 C   0  0  2  0  0  3  0  0  0  0  0  0
  190.1810  177.5320  145.4900 C   0  0  2  0  0  3  0  0  0  0  0  0
  191.0660  175.7450  143.3330 C   0  0  0  0  0  2  0  0  0  0  0  0
  189.7130  176.4590  143.2130 C   0  0  2  0  0  3  0  0  0  0  0  0
  187.3140  178.0140  145.7660 C   0  0  0  0  0  3  0  0  0  0  0  0
  185.2590  178.6210  144.6250 C   0  0  0  0  0  0  0  0  0  0  0  0
  187.0160  177.4440  143.4320 C   0  0  0  0  0  3  0  0  0  0  0  0
  185.7480  178.0340  143.4490 C   0  0  0  0  0  3  0  0  0  0  0  0
  186.0470  178.6070  145.7830 C   0  0  0  0  0  3  0  0  0  0  0  0
  187.8070  177.4350  144.5920 C   0  0  0  0  0  0  0  0  0  0  0  0
  183.9020  179.2460  144.6740 C   0  0  1  0  0  3  0  0  0  0  0  0
  183.0080  178.6960  143.5800 C   0  0  0  0  0  1  0  0  0  0  0  0
  183.2880  179.0220  145.9730 N   0  0  0  0  0  1  0  0  0  0  0  0
  185.3090  177.7330  136.9470 C   0  0  0  0  0  2  0  0  0  0  0  0
  184.0350  177.0130  137.4390 C   0  0  1  0  0  3  0  0  0  0  0  0
  181.8690  178.2780  137.3850 C   0  0  0  0  0  3  0  0  0  0  0  0
  182.7870  177.5200  136.7730 C   0  0  0  0  0  3  0  0  0  0  0  0
  181.9990  178.7440  138.8020 C   0  0  2  0  0  3  0  0  0  0  0  0
  181.6660  177.6330  139.7500 C   0  0  0  0  0  0  0  0  0  0  0  0
  180.4660  176.9500  139.6040 O   0  0  0  0  0  0  0  0  0  0  0  0
  182.4650  177.3050  140.6690 O   0  0  0  0  0  1  0  0  0  0  0  0
  181.0970  179.9560  139.0260 C   0  0  0  0  0  2  0  0  0  0  0  0
  181.1250  180.8330  137.8690 N   0  0  0  0  0  0  0  0  0  0  0  0
  180.5860  182.1040  138.2830 C   0  0  1  0  0  3  0  0  0  0  0  0
  181.9260  181.9060  138.2150 O   0  0  0  0  0  0  0  0  0  0  0  0
  180.1690  182.8480  137.1450 O   0  0  0  0  0  0  0  0  0  0  0  0
  180.3870  184.2230  137.0150 C   0  0  0  0  0  0  0  0  0  0  0  0
  180.0290  185.0290  138.0010 C   0  0  0  0  0  2  0  0  0  0  0  0
  181.0240  184.8070  135.7990 C   0  0  0  0  0  1  0  0  0  0  0  0
  184.1540  175.5000  137.2920 C   0  0  0  0  0  2  0  0  0  0  0  0
  182.8890  174.9250  136.7510 C   0  0  0  0  0  3  0  0  0  0  0  0
  182.8350  173.6400  136.4150 C   0  0  0  0  0  2  0  0  0  0  0  0
  1 37  1  6  0  0  0
  1 12  1  0  0  0  0
  2  1  1  0  0  0  0
  3  2  1  0  0  0  0
  4  8  1  0  0  0  0
  5  3  1  0  0  0  0
  5  6  1  0  0  0  0
  7  9  1  0  0  0  0
  7  4  1  0  0  0  0
  8  6  1  0  0  0  0
  8 11  1  1  0  0  0
  9  5  2  0  0  0  0
 11 10  1  0  0  0  0
 12 13  1  0  0  0  0
 14 13  1  0  0  0  0
 14 15  1  0  0  0  0
 15 16  1  0  0  0  0
 16 17  1  0  0  0  0
 18 19  1  0  0  0  0
 19 22  1  0  0  0  0
 20 25  1  0  0  0  0
 21 22  1  0  0  0  0
 23 26  1  6  0  0  0
 23 20  1  0  0  0  0
 23 18  1  0  0  0  0
 24 33  1  6  0  0  0
 24 25  1  0  0  0  0
 25 21  1  1  0  0  0
 27 17  1  6  0  0  0
 27 26  1  0  0  0  0
 27 24  1  0  0  0  0
 28 32  1  0  0  0  0
 29 34  1  0  0  0  0
 29 32  2  0  0  0  0
 30 31  2  0  0  0  0
 30 33  1  0  0  0  0
 31 29  1  0  0  0  0
 33 28  2  0  0  0  0
 34 35  1  6  0  0  0
 34 36  1  0  0  0  0
 37 38  1  0  0  0  0
 38 40  1  6  0  0  0
 40 39  2  0  0  0  0
 41 39  1  6  0  0  0
 41 45  1  0  0  0  0
 41 42  1  0  0  0  0
 42 44  1  0  0  0  0
 43 42  2  0  0  0  0
 46 48  1  0  0  0  0
 46 47  1  0  0  0  0
 46 45  1  0  0  0  0
 47 49  1  6  0  0  0
 48 47  1  0  0  0  0
 50 49  1  0  0  0  0
 50 51  2  0  0  0  0
 52 50  1  0  0  0  0
 53 38  1  0  0  0  0
 54 53  1  0  0  0  0
 55 54  2  0  0  0  0
M  END
>  <MODEL>
7

>  <REMARK>
 VINA RESULT:      -6.5      1.856      2.927
  Name = 
  24 active torsions:
  status: ('A' for Active; 'I' for Inactive)
    1  A    between atoms: C_1  and  C_53
    2  A    between atoms: N_3  and  C_38
    3  A    between atoms: C_4  and  O_35
    4  A    between atoms: C_4  and  C_37
    5  A    between atoms: C_5  and  C_37
    6  A    between atoms: C_5  and  O_40
    7  A    between atoms: C_6  and  C_53
    8  A    between atoms: C_7  and  C_20
    9  A    between atoms: C_8  and  C_22
   10  A    between atoms: C_8  and  C_43
   11  A    between atoms: C_10  and  C_32
   12  A    between atoms: C_11  and  O_50
   13  A    between atoms: C_12  and  O_50
   14  A    between atoms: C_19  and  O_40
   15  A    between atoms: C_19  and  C_49
   16  A    between atoms: C_20  and  C_22
   17  A    between atoms: C_22  and  C_46
   18  A    between atoms: C_27  and  C_54
   19  A    between atoms: O_28  and  C_44
   20  A    between atoms: C_33  and  C_52
   21  A    between atoms: O_35  and  C_43
   22  A    between atoms: C_38  and  C_53
   23  A    between atoms: C_43  and  C_51
   24  A    between atoms: C_51  and  C_54
                            x       y       z     vdW  Elec       q    Type
                         _______ _______ _______ _____ _____    ______ ____

>  <TORSDO>
F 24

$$$$
=
 OpenBabel10272401183D

 55 59  0  0  1  0  0  0  0  0999 V2000
  188.2660  178.2150  141.8700 C   0  0  1  0  0  3  0  0  0  0  0  0
  189.0690  178.7840  143.0380 C   0  0  0  0  0  2  0  0  0  0  0  0
  190.2220  177.8640  143.3970 C   0  0  0  0  0  2  0  0  0  0  0  0
  189.9900  177.2830  147.6740 C   0  0  0  0  0  2  0  0  0  0  0  0
  190.1130  177.4410  144.8230 C   0  0  0  0  0  0  0  0  0  0  0  0
  188.7750  177.5800  145.5090 C   0  0  0  0  0  2  0  0  0  0  0  0
  191.2000  176.7070  146.9480 C   0  0  0  0  0  2  0  0  0  0  0  0
  188.7320  176.9270  146.8920 C   0  0  2  0  0  3  0  0  0  0  0  0
  191.2290  177.1300  145.5020 C   0  0  0  0  0  3  0  0  0  0  0  0
  187.9160  178.5870  147.9820 O   0  0  0  0  0  1  0  0  0  0  0  0
  187.6060  177.3720  147.5830 O   0  0  0  0  0  0  0  0  0  0  0  0
  188.9980  177.2160  141.2190 O   0  0  0  0  0  0  0  0  0  0  0  0
  188.5820  177.2500  139.8840 C   0  0  0  0  0  2  0  0  0  0  0  0
  188.9760  178.5720  139.2330 C   0  0  0  0  0  2  0  0  0  0  0  0
  189.3010  178.3930  137.7600 C   0  0  0  0  0  2  0  0  0  0  0  0
  190.1760  177.3180  137.6020 O   0  0  0  0  0  0  0  0  0  0  0  0
  189.3940  176.2930  137.0760 C   0  0  0  0  0  2  0  0  0  0  0  0
  193.1960  174.7290  134.9530 C   0  0  0  0  0  2  0  0  0  0  0  0
  194.0150  173.5100  135.3900 C   0  0  0  0  0  2  0  0  0  0  0  0
  191.9500  174.5370  137.0890 O   0  0  0  0  0  0  0  0  0  0  0  0
  191.7000  172.4610  135.7750 C   0  0  0  0  0  2  0  0  0  0  0  0
  193.2010  172.3910  136.0650 C   0  0  0  0  0  2  0  0  0  0  0  0
  192.4770  175.4300  136.1160 C   0  0  2  0  0  3  0  0  0  0  0  0
  189.9810  174.3090  135.5980 C   0  0  2  0  0  3  0  0  0  0  0  0
  191.0190  173.6270  136.5090 C   0  0  2  0  0  3  0  0  0  0  0  0
  191.4020  176.3880  135.5810 C   0  0  0  0  0  2  0  0  0  0  0  0
  189.9790  175.8380  135.7430 C   0  0  2  0  0  3  0  0  0  0  0  0
  188.2340  173.0380  136.8580 C   0  0  0  0  0  3  0  0  0  0  0  0
  186.0930  172.4670  135.8670 C   0  0  0  0  0  0  0  0  0  0  0  0
  187.7360  173.7160  134.5880 C   0  0  0  0  0  3  0  0  0  0  0  0
  186.4790  173.1090  134.6810 C   0  0  0  0  0  3  0  0  0  0  0  0
  186.9760  172.4330  136.9530 C   0  0  0  0  0  3  0  0  0  0  0  0
  188.6180  173.6850  135.6800 C   0  0  0  0  0  0  0  0  0  0  0  0
  184.7610  171.7980  135.9890 C   0  0  1  0  0  3  0  0  0  0  0  0
  183.9260  172.4380  137.0820 C   0  0  0  0  0  1  0  0  0  0  0  0
  184.0470  171.8580  134.7240 N   0  0  0  0  0  1  0  0  0  0  0  0
  186.9030  177.6600  142.3190 C   0  0  0  0  0  2  0  0  0  0  0  0
  185.6850  178.5960  142.1740 C   0  0  1  0  0  3  0  0  0  0  0  0
  183.8860  178.1490  140.4820 C   0  0  0  0  0  3  0  0  0  0  0  0
  184.4640  177.8840  141.6590 C   0  0  0  0  0  3  0  0  0  0  0  0
  184.4150  179.1640  139.5150 C   0  0  2  0  0  3  0  0  0  0  0  0
  183.2860  179.8710  138.8310 C   0  0  0  0  0  0  0  0  0  0  0  0
  183.2450  181.2580  138.8390 O   0  0  0  0  0  1  0  0  0  0  0  0
  182.3790  179.2220  138.2390 O   0  0  0  0  0  0  0  0  0  0  0  0
  185.3350  178.4790  138.5070 C   0  0  0  0  0  2  0  0  0  0  0  0
  184.8180  177.1680  138.1540 N   0  0  0  0  0  0  0  0  0  0  0  0
  184.9840  177.0120  136.7310 C   0  0  1  0  0  3  0  0  0  0  0  0
  185.8760  176.4720  137.5980 O   0  0  0  0  0  0  0  0  0  0  0  0
  184.1230  175.9870  136.2520 O   0  0  0  0  0  0  0  0  0  0  0  0
  183.2060  176.1880  135.2160 C   0  0  0  0  0  0  0  0  0  0  0  0
  183.0170  177.4120  134.7500 C   0  0  0  0  0  2  0  0  0  0  0  0
  182.4420  175.0590  134.6110 C   0  0  0  0  0  1  0  0  0  0  0  0
  185.3790  179.3260  143.4770 C   0  0  0  0  0  2  0  0  0  0  0  0
  185.2550  178.3590  144.6040 C   0  0  0  0  0  3  0  0  0  0  0  0
  184.9740  178.7970  145.8260 C   0  0  0  0  0  2  0  0  0  0  0  0
  1 37  1  1  0  0  0
  1  2  1  0  0  0  0
  2  3  1  0  0  0  0
  3  5  1  0  0  0  0
  5  9  2  0  0  0  0
  5  6  1  0  0  0  0
  6  8  1  0  0  0  0
  7  4  1  0  0  0  0
  8 11  1  1  0  0  0
  8  4  1  0  0  0  0
  9  7  1  0  0  0  0
 11 10  1  0  0  0  0
 12  1  1  0  0  0  0
 13 12  1  0  0  0  0
 14 13  1  0  0  0  0
 15 14  1  0  0  0  0
 16 15  1  0  0  0  0
 17 16  1  0  0  0  0
 18 19  1  0  0  0  0
 19 22  1  0  0  0  0
 21 22  1  0  0  0  0
 23 18  1  6  0  0  0
 23 20  1  0  0  0  0
 24 33  1  1  0  0  0
 24 27  1  0  0  0  0
 24 25  1  0  0  0  0
 25 21  1  6  0  0  0
 25 20  1  0  0  0  0
 26 27  1  0  0  0  0
 26 23  1  0  0  0  0
 27 17  1  1  0  0  0
 28 32  1  0  0  0  0
 29 34  1  0  0  0  0
 29 32  2  0  0  0  0
 30 31  2  0  0  0  0
 30 33  1  0  0  0  0
 31 29  1  0  0  0  0
 33 28  2  0  0  0  0
 34 35  1  1  0  0  0
 36 34  1  0  0  0  0
 38 40  1  1  0  0  0
 38 37  1  0  0  0  0
 38 53  1  0  0  0  0
 39 40  2  0  0  0  0
 41 45  1  6  0  0  0
 41 39  1  0  0  0  0
 42 43  1  0  0  0  0
 42 41  1  0  0  0  0
 44 42  2  0  0  0  0
 46 45  1  0  0  0  0
 47 49  1  1  0  0  0
 47 48  1  0  0  0  0
 47 46  1  0  0  0  0
 48 46  1  0  0  0  0
 50 49  1  0  0  0  0
 51 50  2  0  0  0  0
 52 50  1  0  0  0  0
 53 54  1  0  0  0  0
 54 55  2  0  0  0  0
M  END
>  <MODEL>
8

>  <REMARK>
 VINA RESULT:      -6.4      2.240      8.431
  Name = 
  24 active torsions:
  status: ('A' for Active; 'I' for Inactive)
    1  A    between atoms: C_1  and  C_53
    2  A    between atoms: N_3  and  C_38
    3  A    between atoms: C_4  and  O_35
    4  A    between atoms: C_4  and  C_37
    5  A    between atoms: C_5  and  C_37
    6  A    between atoms: C_5  and  O_40
    7  A    between atoms: C_6  and  C_53
    8  A    between atoms: C_7  and  C_20
    9  A    between atoms: C_8  and  C_22
   10  A    between atoms: C_8  and  C_43
   11  A    between atoms: C_10  and  C_32
   12  A    between atoms: C_11  and  O_50
   13  A    between atoms: C_12  and  O_50
   14  A    between atoms: C_19  and  O_40
   15  A    between atoms: C_19  and  C_49
   16  A    between atoms: C_20  and  C_22
   17  A    between atoms: C_22  and  C_46
   18  A    between atoms: C_27  and  C_54
   19  A    between atoms: O_28  and  C_44
   20  A    between atoms: C_33  and  C_52
   21  A    between atoms: O_35  and  C_43
   22  A    between atoms: C_38  and  C_53
   23  A    between atoms: C_43  and  C_51
   24  A    between atoms: C_51  and  C_54
                            x       y       z     vdW  Elec       q    Type
                         _______ _______ _______ _____ _____    ______ ____

>  <TORSDO>
F 24

$$$$
=
 OpenBabel10272401183D

 55 59  0  0  1  0  0  0  0  0999 V2000
  190.4780  177.4360  140.3730 C   0  0  1  0  0  3  0  0  0  0  0  0
  191.4000  177.1610  139.1870 C   0  0  0  0  0  2  0  0  0  0  0  0
  191.1980  175.7510  138.6640 C   0  0  0  0  0  2  0  0  0  0  0  0
  193.5420  175.6330  135.0340 C   0  0  0  0  0  2  0  0  0  0  0  0
  192.0860  175.5090  137.4910 C   0  0  0  0  0  0  0  0  0  0  0  0
  193.4440  176.1710  137.4740 C   0  0  0  0  0  2  0  0  0  0  0  0
  192.4250  174.6070  135.1870 C   0  0  0  0  0  2  0  0  0  0  0  0
  194.3390  175.6880  136.3320 C   0  0  2  0  0  3  0  0  0  0  0  0
  191.5940  174.8760  136.4150 C   0  0  0  0  0  3  0  0  0  0  0  0
  196.4830  175.8050  136.3690 O   0  0  0  0  0  1  0  0  0  0  0  0
  195.4190  176.5580  136.1850 O   0  0  0  0  0  0  0  0  0  0  0  0
  189.1390  177.3220  139.9840 O   0  0  0  0  0  0  0  0  0  0  0  0
  188.7730  178.5860  139.5110 C   0  0  0  0  0  2  0  0  0  0  0  0
  188.0070  178.4670  138.1970 C   0  0  0  0  0  2  0  0  0  0  0  0
  188.8840  178.8140  137.0070 C   0  0  0  0  0  2  0  0  0  0  0  0
  188.5890  177.9600  135.9430 O   0  0  0  0  0  0  0  0  0  0  0  0
  187.2090  178.0550  135.7790 C   0  0  0  0  0  2  0  0  0  0  0  0
  187.7670  173.5040  135.1580 C   0  0  0  0  0  2  0  0  0  0  0  0
  187.7740  172.4540  136.2730 C   0  0  0  0  0  2  0  0  0  0  0  0
  187.8310  175.2420  136.9260 O   0  0  0  0  0  0  0  0  0  0  0  0
  185.8150  173.8410  137.1910 C   0  0  0  0  0  2  0  0  0  0  0  0
  186.8870  172.7900  137.4850 C   0  0  0  0  0  2  0  0  0  0  0  0
  188.2570  174.8860  135.6170 C   0  0  2  0  0  3  0  0  0  0  0  0
  185.7180  175.9980  135.8710 C   0  0  2  0  0  3  0  0  0  0  0  0
  186.4090  175.2490  137.0250 C   0  0  2  0  0  3  0  0  0  0  0  0
  187.8820  175.9590  134.5840 C   0  0  0  0  0  2  0  0  0  0  0  0
  186.6990  176.8280  135.0300 C   0  0  2  0  0  3  0  0  0  0  0  0
  184.4490  177.3070  137.5840 C   0  0  0  0  0  3  0  0  0  0  0  0
  182.2060  178.1360  137.1690 C   0  0  0  0  0  0  0  0  0  0  0  0
  183.3820  176.8850  135.4520 C   0  0  0  0  0  3  0  0  0  0  0  0
  182.2440  177.5730  135.8840 C   0  0  0  0  0  3  0  0  0  0  0  0
  183.3110  177.9980  138.0160 C   0  0  0  0  0  3  0  0  0  0  0  0
  184.4920  176.7520  136.3010 C   0  0  0  0  0  0  0  0  0  0  0  0
  180.9970  178.8650  137.6600 C   0  0  1  0  0  3  0  0  0  0  0  0
  181.3750  179.9320  138.6690 C   0  0  0  0  0  1  0  0  0  0  0  0
  180.2820  179.4690  136.5470 N   0  0  0  0  0  1  0  0  0  0  0  0
  190.7610  176.4970  141.5590 C   0  0  0  0  0  2  0  0  0  0  0  0
  189.9920  176.7730  142.8680 C   0  0  1  0  0  3  0  0  0  0  0  0
  187.6010  176.5220  143.5870 C   0  0  0  0  0  3  0  0  0  0  0  0
  188.6700  176.0600  142.9270 C   0  0  0  0  0  3  0  0  0  0  0  0
  187.5860  177.8310  144.3150 C   0  0  2  0  0  3  0  0  0  0  0  0
  186.9590  177.6690  145.6660 C   0  0  0  0  0  0  0  0  0  0  0  0
  187.6330  176.9570  146.6490 O   0  0  0  0  0  1  0  0  0  0  0  0
  185.8350  178.1810  145.9240 O   0  0  0  0  0  0  0  0  0  0  0  0
  186.8450  178.8730  143.4800 C   0  0  0  0  0  2  0  0  0  0  0  0
  185.9630  178.2260  142.5240 N   0  0  0  0  0  0  0  0  0  0  0  0
  184.8620  179.1240  142.2820 C   0  0  1  0  0  3  0  0  0  0  0  0
  185.9080  179.0590  141.4210 O   0  0  0  0  0  0  0  0  0  0  0  0
  183.7640  178.4080  141.7310 O   0  0  0  0  0  0  0  0  0  0  0  0
  182.4670  178.4940  142.2460 C   0  0  0  0  0  0  0  0  0  0  0  0
  181.4790  177.8880  141.6090 C   0  0  0  0  0  2  0  0  0  0  0  0
  182.1670  179.2400  143.5020 C   0  0  0  0  0  1  0  0  0  0  0  0
  190.8380  176.4490  144.0950 C   0  0  0  0  0  2  0  0  0  0  0  0
  191.2450  177.7000  144.7960 C   0  0  0  0  0  3  0  0  0  0  0  0
  191.1870  178.8660  144.1600 C   0  0  0  0  0  2  0  0  0  0  0  0
  1  2  1  6  0  0  0
  1 37  1  0  0  0  0
  3  2  1  0  0  0  0
  4  7  1  0  0  0  0
  4  8  1  0  0  0  0
  5  3  1  0  0  0  0
  6  5  1  0  0  0  0
  7  9  1  0  0  0  0
  8 11  1  6  0  0  0
  8  6  1  0  0  0  0
  9  5  2  0  0  0  0
 11 10  1  0  0  0  0
 12  1  1  0  0  0  0
 13 12  1  0  0  0  0
 14 13  1  0  0  0  0
 15 14  1  0  0  0  0
 16 15  1  0  0  0  0
 17 16  1  0  0  0  0
 18 23  1  0  0  0  0
 18 19  1  0  0  0  0
 19 22  1  0  0  0  0
 20 25  1  0  0  0  0
 21 22  1  0  0  0  0
 23 26  1  6  0  0  0
 23 20  1  0  0  0  0
 24 33  1  1  0  0  0
 24 25  1  0  0  0  0
 25 21  1  6  0  0  0
 26 27  1  0  0  0  0
 27 17  1  1  0  0  0
 27 24  1  0  0  0  0
 28 32  1  0  0  0  0
 29 34  1  0  0  0  0
 29 32  2  0  0  0  0
 30 31  2  0  0  0  0
 30 33  1  0  0  0  0
 31 29  1  0  0  0  0
 33 28  2  0  0  0  0
 34 35  1  1  0  0  0
 36 34  1  0  0  0  0
 38 37  1  6  0  0  0
 38 40  1  0  0  0  0
 38 53  1  0  0  0  0
 39 41  1  0  0  0  0
 40 39  2  0  0  0  0
 41 45  1  6  0  0  0
 41 42  1  0  0  0  0
 42 44  2  0  0  0  0
 42 43  1  0  0  0  0
 46 45  1  0  0  0  0
 47 49  1  6  0  0  0
 47 46  1  0  0  0  0
 48 47  1  0  0  0  0
 48 46  1  0  0  0  0
 49 50  1  0  0  0  0
 50 52  1  0  0  0  0
 51 50  2  0  0  0  0
 53 54  1  0  0  0  0
 55 54  2  0  0  0  0
M  END
>  <MODEL>
9

>  <REMARK>
 VINA RESULT:      -6.4      2.092      7.190
  Name = 
  24 active torsions:
  status: ('A' for Active; 'I' for Inactive)
    1  A    between atoms: C_1  and  C_53
    2  A    between atoms: N_3  and  C_38
    3  A    between atoms: C_4  and  O_35
    4  A    between atoms: C_4  and  C_37
    5  A    between atoms: C_5  and  C_37
    6  A    between atoms: C_5  and  O_40
    7  A    between atoms: C_6  and  C_53
    8  A    between atoms: C_7  and  C_20
    9  A    between atoms: C_8  and  C_22
   10  A    between atoms: C_8  and  C_43
   11  A    between atoms: C_10  and  C_32
   12  A    between atoms: C_11  and  O_50
   13  A    between atoms: C_12  and  O_50
   14  A    between atoms: C_19  and  O_40
   15  A    between atoms: C_19  and  C_49
   16  A    between atoms: C_20  and  C_22
   17  A    between atoms: C_22  and  C_46
   18  A    between atoms: C_27  and  C_54
   19  A    between atoms: O_28  and  C_44
   20  A    between atoms: C_33  and  C_52
   21  A    between atoms: O_35  and  C_43
   22  A    between atoms: C_38  and  C_53
   23  A    between atoms: C_43  and  C_51
   24  A    between atoms: C_51  and  C_54
                            x       y       z     vdW  Elec       q    Type
                         _______ _______ _______ _____ _____    ______ ____

>  <TORSDO>
F 24

$$$$
