=
 OpenBabel10272401463D

 28 34  0  0  1  0  0  0  0  0999 V2000
  187.4910  177.6410  144.3130 C   0  0  1  0  0  3  0  0  0  0  0  0
  184.4440  178.3620  142.5820 C   0  0  2  0  0  3  0  0  0  0  0  0
  184.7200  179.2190  144.9800 C   0  0  0  0  0  2  0  0  0  0  0  0
  186.6510  177.4070  143.1910 O   0  0  0  0  0  0  0  0  0  0  0  0
  185.9100  178.9580  145.9550 C   0  0  0  0  0  2  0  0  0  0  0  0
  185.5080  179.1640  141.8720 C   0  0  1  0  0  3  0  0  0  0  0  0
  184.6540  178.1330  144.0220 N   0  0  2  0  0  0  0  0  0  0  0  0
  186.7370  177.6610  145.6820 C   0  0  0  0  0  2  0  0  0  0  0  0
  185.8030  178.5070  143.2030 C   0  0  1  0  0  0  0  0  0  0  0  0
  189.6000  177.8920  139.0870 C   0  0  0  0  0  3  0  0  0  0  0  0
  187.3540  178.2130  138.0470 C   0  0  1  0  0  3  0  0  0  0  0  0
  187.6630  178.5570  140.5100 C   0  0  0  0  0  2  0  0  0  0  0  0
  189.2880  177.4140  136.7080 C   0  0  0  0  0  0  0  0  0  0  0  0
  188.1180  177.7600  139.2960 C   0  0  2  0  0  3  0  0  0  0  0  0
  185.4660  178.9220  139.4190 N   0  0  0  0  0  2  0  0  0  0  0  0
  187.7910  177.3780  136.8450 C   0  0  0  0  0  2  0  0  0  0  0  0
  185.8600  178.0670  138.3000 C   0  0  0  0  0  2  0  0  0  0  0  0
  189.8190  177.1770  135.5930 O   0  0  0  0  0  0  0  0  0  0  0  0
  190.1410  177.6960  137.8800 C   0  0  0  0  0  3  0  0  0  0  0  0
  186.1310  178.4620  140.6430 C   0  0  2  0  0  3  0  0  0  0  0  0
  188.4910  176.6660  144.3470 O   0  0  0  0  0  0  0  0  0  0  0  0
  189.2870  176.9180  143.2210 C   0  0  2  0  0  3  0  0  0  0  0  0
  191.5160  176.5610  144.8220 C   0  0  0  0  0  2  0  0  0  0  0  0
  190.1250  175.6830  142.8650 C   0  0  0  0  0  2  0  0  0  0  0  0
  190.2590  178.6920  144.8070 C   0  0  0  0  0  2  0  0  0  0  0  0
  190.1600  178.1850  143.3760 C   0  0  1  0  0  3  0  0  0  0  0  0
  191.4350  177.9560  144.2040 C   0  0  2  0  0  3  0  0  0  0  0  0
  191.3660  175.4880  143.7470 C   0  0  0  0  0  2  0  0  0  0  0  0
  1 21  1  1  0  0  0
  1  8  1  0  0  0  0
  2  9  1  0  0  0  0
  2  7  1  0  0  0  0
  3  5  1  0  0  0  0
  4  9  1  0  0  0  0
  4  1  1  0  0  0  0
  6  2  1  0  0  0  0
  6  9  1  0  0  0  0
  7  3  1  0  0  0  0
  8  5  1  0  0  0  0
  9  7  1  0  0  0  0
 10 14  1  0  0  0  0
 11 17  1  0  0  0  0
 11 14  1  0  0  0  0
 12 20  1  0  0  0  0
 13 16  1  0  0  0  0
 13 19  1  0  0  0  0
 14 12  1  0  0  0  0
 15 20  1  0  0  0  0
 16 11  1  0  0  0  0
 17 15  1  0  0  0  0
 18 13  2  0  0  0  0
 19 10  2  0  0  0  0
 20  6  1  0  0  0  0
 22 26  1  0  0  0  0
 22 21  1  0  0  0  0
 24 22  1  0  0  0  0
 24 28  1  0  0  0  0
 26 27  1  0  0  0  0
 26 25  1  0  0  0  0
 27 25  1  0  0  0  0
 27 23  1  0  0  0  0
 28 23  1  0  0  0  0
M  END
>  <MODEL>
1

>  <REMARK>
 VINA RESULT:      -9.4      0.000      0.000
  Name = 
  3 active torsions:
  status: ('A' for Active; 'I' for Inactive)
    1  A    between atoms: C_1  and  O_2
    2  A    between atoms: O_2  and  C_3
    3  A    between atoms: C_20  and  C_25
                            x       y       z     vdW  Elec       q    Type
                         _______ _______ _______ _____ _____    ______ ____

>  <TORSDO>
F 3

$$$$
=
 OpenBabel10272401463D

 28 34  0  0  1  0  0  0  0  0999 V2000
  187.6290  177.9070  144.9540 C   0  0  1  0  0  3  0  0  0  0  0  0
  185.2690  178.0170  142.2670 C   0  0  2  0  0  3  0  0  0  0  0  0
  184.6790  179.2000  144.4620 C   0  0  0  0  0  2  0  0  0  0  0  0
  187.2230  177.4300  143.6780 O   0  0  0  0  0  0  0  0  0  0  0  0
  185.5020  179.2150  145.7880 C   0  0  0  0  0  2  0  0  0  0  0  0
  186.4420  178.8500  141.8050 C   0  0  1  0  0  3  0  0  0  0  0  0
  185.0140  178.0010  143.7180 N   0  0  2  0  0  0  0  0  0  0  0  0
  186.4700  178.0060  145.9970 C   0  0  0  0  0  2  0  0  0  0  0  0
  186.3350  178.4080  143.2490 C   0  0  1  0  0  0  0  0  0  0  0  0
  191.2840  177.5000  140.8830 C   0  0  0  0  0  3  0  0  0  0  0  0
  189.6010  177.6830  139.0490 C   0  0  1  0  0  3  0  0  0  0  0  0
  188.9520  178.2090  141.4120 C   0  0  0  0  0  2  0  0  0  0  0  0
  191.8990  176.8460  138.6080 C   0  0  0  0  0  0  0  0  0  0  0  0
  189.8330  177.3410  140.5240 C   0  0  2  0  0  3  0  0  0  0  0  0
  187.3340  178.4340  139.5450 N   0  0  0  0  0  2  0  0  0  0  0  0
  190.4620  176.7780  138.1700 C   0  0  0  0  0  2  0  0  0  0  0  0
  188.1230  177.5130  138.7280 C   0  0  0  0  0  2  0  0  0  0  0  0
  192.8130  176.5470  137.7970 O   0  0  0  0  0  0  0  0  0  0  0  0
  192.2430  177.2350  139.9900 C   0  0  0  0  0  3  0  0  0  0  0  0
  187.4840  178.0810  140.9600 C   0  0  2  0  0  3  0  0  0  0  0  0
  188.6340  177.0770  145.4540 O   0  0  0  0  0  0  0  0  0  0  0  0
  189.6170  177.9470  145.9470 C   0  0  2  0  0  3  0  0  0  0  0  0
  191.5310  176.2250  144.9340 C   0  0  0  0  0  2  0  0  0  0  0  0
  190.4440  178.5340  144.7970 C   0  0  0  0  0  2  0  0  0  0  0  0
  190.3940  175.7770  147.0850 C   0  0  0  0  0  2  0  0  0  0  0  0
  190.5090  177.2920  147.0280 C   0  0  1  0  0  3  0  0  0  0  0  0
  191.6180  176.3980  146.4500 C   0  0  2  0  0  3  0  0  0  0  0  0
  191.5120  177.5830  144.2380 C   0  0  0  0  0  2  0  0  0  0  0  0
  1 21  1  1  0  0  0
  1  8  1  0  0  0  0
  2  9  1  0  0  0  0
  2  7  1  0  0  0  0
  3  5  1  0  0  0  0
  4  1  1  0  0  0  0
  5  8  1  0  0  0  0
  6  2  1  0  0  0  0
  6  9  1  0  0  0  0
  7  3  1  0  0  0  0
  9  4  1  0  0  0  0
  9  7  1  0  0  0  0
 11 14  1  0  0  0  0
 13 19  1  0  0  0  0
 14 10  1  0  0  0  0
 14 12  1  0  0  0  0
 15 20  1  0  0  0  0
 16 13  1  0  0  0  0
 16 11  1  0  0  0  0
 17 11  1  0  0  0  0
 17 15  1  0  0  0  0
 18 13  2  0  0  0  0
 19 10  2  0  0  0  0
 20 12  1  0  0  0  0
 20  6  1  0  0  0  0
 21 22  1  0  0  0  0
 22 26  1  0  0  0  0
 23 27  1  0  0  0  0
 24 22  1  0  0  0  0
 26 25  1  0  0  0  0
 27 26  1  0  0  0  0
 27 25  1  0  0  0  0
 28 24  1  0  0  0  0
 28 23  1  0  0  0  0
M  END
>  <MODEL>
2

>  <REMARK>
 VINA RESULT:      -9.3      1.560      2.244
  Name = 
  3 active torsions:
  status: ('A' for Active; 'I' for Inactive)
    1  A    between atoms: C_1  and  O_2
    2  A    between atoms: O_2  and  C_3
    3  A    between atoms: C_20  and  C_25
                            x       y       z     vdW  Elec       q    Type
                         _______ _______ _______ _____ _____    ______ ____

>  <TORSDO>
F 3

$$$$
=
 OpenBabel10272401463D

 28 34  0  0  1  0  0  0  0  0999 V2000
  188.7560  177.7840  145.3210 C   0  0  1  0  0  3  0  0  0  0  0  0
  185.7960  177.6750  147.3280 C   0  0  2  0  0  3  0  0  0  0  0  0
  188.0180  178.2710  148.4560 C   0  0  0  0  0  2  0  0  0  0  0  0
  187.3850  177.4300  145.4390 O   0  0  0  0  0  0  0  0  0  0  0  0
  189.4380  178.2960  147.8120 C   0  0  0  0  0  2  0  0  0  0  0  0
  185.6170  178.8640  146.4140 C   0  0  1  0  0  3  0  0  0  0  0  0
  187.1820  177.3510  147.7100 N   0  0  2  0  0  0  0  0  0  0  0  0
  189.6270  177.3860  146.5560 C   0  0  0  0  0  2  0  0  0  0  0  0
  186.9620  178.1800  146.5280 C   0  0  1  0  0  0  0  0  0  0  0  0
  185.2670  179.0070  141.3170 C   0  0  0  0  0  3  0  0  0  0  0  0
  183.2430  179.0930  142.7740 C   0  0  1  0  0  3  0  0  0  0  0  0
  185.5270  178.9780  143.7970 C   0  0  0  0  0  2  0  0  0  0  0  0
  183.0430  178.9760  140.3000 C   0  0  0  0  0  0  0  0  0  0  0  0
  184.6670  178.5510  142.6170 C   0  0  2  0  0  3  0  0  0  0  0  0
  183.4870  179.1270  145.2010 N   0  0  0  0  0  2  0  0  0  0  0  0
  182.3810  178.6240  141.6040 C   0  0  0  0  0  2  0  0  0  0  0  0
  182.6720  178.6120  144.1010 C   0  0  0  0  0  2  0  0  0  0  0  0
  182.3490  179.0810  139.2560 O   0  0  0  0  0  0  0  0  0  0  0  0
  184.5050  179.1720  140.2310 C   0  0  0  0  0  3  0  0  0  0  0  0
  184.8380  178.5630  145.1120 C   0  0  2  0  0  3  0  0  0  0  0  0
  189.2840  177.1950  144.1700 O   0  0  0  0  0  0  0  0  0  0  0  0
  189.7080  178.2660  143.3710 C   0  0  2  0  0  3  0  0  0  0  0  0
  190.3010  176.4380  141.3810 C   0  0  0  0  0  2  0  0  0  0  0  0
  188.8270  178.3900  142.1220 C   0  0  0  0  0  2  0  0  0  0  0  0
  191.8370  176.8290  143.2810 C   0  0  0  0  0  2  0  0  0  0  0  0
  191.2110  178.1900  143.0150 C   0  0  1  0  0  3  0  0  0  0  0  0
  191.5200  177.2280  141.8560 C   0  0  2  0  0  3  0  0  0  0  0  0
  189.1590  177.3820  141.0130 C   0  0  0  0  0  2  0  0  0  0  0  0
  1 21  1  6  0  0  0
  1  4  1  0  0  0  0
  1  8  1  0  0  0  0
  2  7  1  0  0  0  0
  4  9  1  0  0  0  0
  5  3  1  0  0  0  0
  6  9  1  0  0  0  0
  6  2  1  0  0  0  0
  7  3  1  0  0  0  0
  8  5  1  0  0  0  0
  9  2  1  0  0  0  0
  9  7  1  0  0  0  0
 10 14  1  0  0  0  0
 11 17  1  0  0  0  0
 12 20  1  0  0  0  0
 13 16  1  0  0  0  0
 14 11  1  0  0  0  0
 14 12  1  0  0  0  0
 16 11  1  0  0  0  0
 17 15  1  0  0  0  0
 18 13  2  0  0  0  0
 19 13  1  0  0  0  0
 19 10  2  0  0  0  0
 20 15  1  0  0  0  0
 20  6  1  0  0  0  0
 22 21  1  0  0  0  0
 23 27  1  0  0  0  0
 24 22  1  0  0  0  0
 26 25  1  0  0  0  0
 26 22  1  0  0  0  0
 27 26  1  0  0  0  0
 27 25  1  0  0  0  0
 28 23  1  0  0  0  0
 28 24  1  0  0  0  0
M  END
>  <MODEL>
3

>  <REMARK>
 VINA RESULT:      -9.2      2.815      4.709
  Name = 
  3 active torsions:
  status: ('A' for Active; 'I' for Inactive)
    1  A    between atoms: C_1  and  O_2
    2  A    between atoms: O_2  and  C_3
    3  A    between atoms: C_20  and  C_25
                            x       y       z     vdW  Elec       q    Type
                         _______ _______ _______ _____ _____    ______ ____

>  <TORSDO>
F 3

$$$$
=
 OpenBabel10272401463D

 28 34  0  0  1  0  0  0  0  0999 V2000
  187.6740  177.5420  144.4920 C   0  0  1  0  0  3  0  0  0  0  0  0
  184.4870  178.3940  143.1080 C   0  0  2  0  0  3  0  0  0  0  0  0
  184.9960  179.0850  145.5220 C   0  0  0  0  0  2  0  0  0  0  0  0
  186.7310  177.3900  143.4410 O   0  0  0  0  0  0  0  0  0  0  0  0
  186.2690  178.7530  146.3600 C   0  0  0  0  0  2  0  0  0  0  0  0
  185.4890  179.2370  142.3560 C   0  0  1  0  0  3  0  0  0  0  0  0
  184.8280  178.0670  144.5030 N   0  0  2  0  0  0  0  0  0  0  0  0
  187.0520  177.4730  145.9240 C   0  0  0  0  0  2  0  0  0  0  0  0
  185.9000  178.4900  143.6060 C   0  0  1  0  0  0  0  0  0  0  0  0
  189.2900  178.1200  139.1280 C   0  0  0  0  0  3  0  0  0  0  0  0
  186.9660  178.5390  138.3220 C   0  0  1  0  0  3  0  0  0  0  0  0
  187.5010  178.7040  140.7650 C   0  0  0  0  0  2  0  0  0  0  0  0
  188.7570  177.8150  136.7600 C   0  0  0  0  0  0  0  0  0  0  0  0
  187.8300  177.9900  139.4620 C   0  0  2  0  0  3  0  0  0  0  0  0
  185.2210  179.1710  139.9070 N   0  0  0  0  0  2  0  0  0  0  0  0
  187.2780  177.7870  137.0300 C   0  0  0  0  0  2  0  0  0  0  0  0
  185.4980  178.3930  138.7000 C   0  0  0  0  0  2  0  0  0  0  0  0
  189.1810  177.6520  135.5870 O   0  0  0  0  0  0  0  0  0  0  0  0
  189.7170  178.0040  137.8660 C   0  0  0  0  0  3  0  0  0  0  0  0
  185.9850  178.6180  141.0290 C   0  0  2  0  0  3  0  0  0  0  0  0
  188.6620  176.5620  144.3660 O   0  0  0  0  0  0  0  0  0  0  0  0
  189.7930  177.1000  144.9970 C   0  0  2  0  0  3  0  0  0  0  0  0
  190.8470  177.6050  142.4890 C   0  0  0  0  0  2  0  0  0  0  0  0
  189.9390  178.5900  144.6660 C   0  0  0  0  0  2  0  0  0  0  0  0
  190.9530  175.3530  143.5090 C   0  0  0  0  0  2  0  0  0  0  0  0
  191.0850  176.3070  144.6860 C   0  0  1  0  0  3  0  0  0  0  0  0
  191.7040  176.6530  143.3220 C   0  0  2  0  0  3  0  0  0  0  0  0
  190.5300  178.8730  143.2790 C   0  0  0  0  0  2  0  0  0  0  0  0
  1 21  1  1  0  0  0
  1  8  1  0  0  0  0
  2  9  1  0  0  0  0
  2  7  1  0  0  0  0
  3  5  1  0  0  0  0
  4  9  1  0  0  0  0
  4  1  1  0  0  0  0
  6  2  1  0  0  0  0
  6  9  1  0  0  0  0
  7  3  1  0  0  0  0
  8  5  1  0  0  0  0
  9  7  1  0  0  0  0
 10 14  1  0  0  0  0
 11 17  1  0  0  0  0
 11 14  1  0  0  0  0
 12 20  1  0  0  0  0
 13 16  1  0  0  0  0
 13 19  1  0  0  0  0
 14 12  1  0  0  0  0
 15 20  1  0  0  0  0
 16 11  1  0  0  0  0
 17 15  1  0  0  0  0
 18 13  2  0  0  0  0
 19 10  2  0  0  0  0
 20  6  1  0  0  0  0
 21 22  1  0  0  0  0
 23 28  1  0  0  0  0
 23 27  1  0  0  0  0
 24 22  1  0  0  0  0
 25 26  1  0  0  0  0
 26 22  1  0  0  0  0
 27 25  1  0  0  0  0
 27 26  1  0  0  0  0
 28 24  1  0  0  0  0
M  END
>  <MODEL>
4

>  <REMARK>
 VINA RESULT:      -9.0      0.707      1.489
  Name = 
  3 active torsions:
  status: ('A' for Active; 'I' for Inactive)
    1  A    between atoms: C_1  and  O_2
    2  A    between atoms: O_2  and  C_3
    3  A    between atoms: C_20  and  C_25
                            x       y       z     vdW  Elec       q    Type
                         _______ _______ _______ _____ _____    ______ ____

>  <TORSDO>
F 3

$$$$
=
 OpenBabel10272401463D

 28 34  0  0  1  0  0  0  0  0999 V2000
  188.5250  177.7350  144.9320 C   0  0  1  0  0  3  0  0  0  0  0  0
  191.8810  177.6450  143.6950 C   0  0  2  0  0  3  0  0  0  0  0  0
  191.3940  176.6110  145.9880 C   0  0  0  0  0  2  0  0  0  0  0  0
  189.4720  178.1740  143.9690 O   0  0  0  0  0  0  0  0  0  0  0  0
  190.0410  176.6080  146.7650 C   0  0  0  0  0  2  0  0  0  0  0  0
  191.0960  176.7180  142.7970 C   0  0  1  0  0  3  0  0  0  0  0  0
  191.4150  177.7480  145.0890 N   0  0  2  0  0  0  0  0  0  0  0  0
  189.0510  177.7610  146.4040 C   0  0  0  0  0  2  0  0  0  0  0  0
  190.4890  177.2350  144.0820 C   0  0  1  0  0  0  0  0  0  0  0  0
  187.1830  178.0050  139.7720 C   0  0  0  0  0  3  0  0  0  0  0  0
  189.4540  177.5360  138.8500 C   0  0  1  0  0  3  0  0  0  0  0  0
  189.0280  177.3390  141.3120 C   0  0  0  0  0  2  0  0  0  0  0  0
  187.6130  178.3400  137.3880 C   0  0  0  0  0  0  0  0  0  0  0  0
  188.6590  178.0870  140.0390 C   0  0  2  0  0  3  0  0  0  0  0  0
  191.2510  176.8250  140.3380 N   0  0  0  0  0  2  0  0  0  0  0  0
  189.1030  178.3210  137.5880 C   0  0  0  0  0  2  0  0  0  0  0  0
  190.9410  177.6330  139.1600 C   0  0  0  0  0  2  0  0  0  0  0  0
  187.1400  178.5370  136.2390 O   0  0  0  0  0  0  0  0  0  0  0  0
  186.7010  178.1570  138.5340 C   0  0  0  0  0  3  0  0  0  0  0  0
  190.5570  177.3770  141.5060 C   0  0  2  0  0  3  0  0  0  0  0  0
  187.3750  178.5240  144.8360 O   0  0  0  0  0  0  0  0  0  0  0  0
  186.3310  177.6200  144.5940 C   0  0  2  0  0  3  0  0  0  0  0  0
  184.6570  179.7890  144.2050 C   0  0  0  0  0  2  0  0  0  0  0  0
  185.8130  177.7640  143.1580 C   0  0  0  0  0  2  0  0  0  0  0  0
  185.2460  178.9970  146.4750 C   0  0  0  0  0  2  0  0  0  0  0  0
  185.1910  177.7300  145.6350 C   0  0  1  0  0  3  0  0  0  0  0  0
  184.2230  178.8930  145.3650 C   0  0  2  0  0  3  0  0  0  0  0  0
  184.8790  178.9620  142.9420 C   0  0  0  0  0  2  0  0  0  0  0  0
  1 21  1  1  0  0  0
  1  8  1  0  0  0  0
  2  9  1  0  0  0  0
  2  7  1  0  0  0  0
  3  5  1  0  0  0  0
  4  9  1  0  0  0  0
  4  1  1  0  0  0  0
  6  2  1  0  0  0  0
  6  9  1  0  0  0  0
  7  3  1  0  0  0  0
  8  5  1  0  0  0  0
  9  7  1  0  0  0  0
 10 14  1  0  0  0  0
 11 17  1  0  0  0  0
 11 14  1  0  0  0  0
 12 20  1  0  0  0  0
 13 16  1  0  0  0  0
 13 19  1  0  0  0  0
 14 12  1  0  0  0  0
 15 20  1  0  0  0  0
 16 11  1  0  0  0  0
 17 15  1  0  0  0  0
 18 13  2  0  0  0  0
 19 10  2  0  0  0  0
 20  6  1  0  0  0  0
 22 21  1  0  0  0  0
 22 26  1  0  0  0  0
 23 27  1  0  0  0  0
 24 22  1  0  0  0  0
 26 25  1  0  0  0  0
 27 26  1  0  0  0  0
 27 25  1  0  0  0  0
 28 24  1  0  0  0  0
 28 23  1  0  0  0  0
M  END
>  <MODEL>
5

>  <REMARK>
 VINA RESULT:      -8.9      2.257      4.838
  Name = 
  3 active torsions:
  status: ('A' for Active; 'I' for Inactive)
    1  A    between atoms: C_1  and  O_2
    2  A    between atoms: O_2  and  C_3
    3  A    between atoms: C_20  and  C_25
                            x       y       z     vdW  Elec       q    Type
                         _______ _______ _______ _____ _____    ______ ____

>  <TORSDO>
F 3

$$$$
=
 OpenBabel10272401463D

 28 34  0  0  1  0  0  0  0  0999 V2000
  187.6830  177.9520  139.7660 C   0  0  1  0  0  3  0  0  0  0  0  0
  184.5950  179.4590  140.7610 C   0  0  2  0  0  3  0  0  0  0  0  0
  184.7490  178.4130  138.4280 C   0  0  0  0  0  2  0  0  0  0  0  0
  186.9740  178.7580  140.6960 O   0  0  0  0  0  0  0  0  0  0  0  0
  186.0030  177.7830  137.7460 C   0  0  0  0  0  2  0  0  0  0  0  0
  184.7410  178.2320  141.6300 C   0  0  1  0  0  3  0  0  0  0  0  0
  185.1890  179.3780  139.4160 N   0  0  2  0  0  0  0  0  0  0  0  0
  187.3850  178.2910  138.2690 C   0  0  0  0  0  2  0  0  0  0  0  0
  185.6470  178.4390  140.4360 C   0  0  1  0  0  0  0  0  0  0  0  0
  188.3270  177.1540  145.1080 C   0  0  0  0  0  3  0  0  0  0  0  0
  186.0860  178.0340  145.7640 C   0  0  1  0  0  3  0  0  0  0  0  0
  186.6170  177.6120  143.3520 C   0  0  0  0  0  2  0  0  0  0  0  0
  187.8780  177.6930  147.4510 C   0  0  0  0  0  0  0  0  0  0  0  0
  187.1850  178.0400  144.6970 C   0  0  2  0  0  3  0  0  0  0  0  0
  184.3850  178.4290  144.0610 N   0  0  0  0  0  2  0  0  0  0  0  0
  186.6610  178.5040  147.0990 C   0  0  0  0  0  2  0  0  0  0  0  0
  184.9490  178.9390  145.3090 C   0  0  0  0  0  2  0  0  0  0  0  0
  188.2420  177.6040  148.6520 O   0  0  0  0  0  0  0  0  0  0  0  0
  188.6630  177.0240  146.3950 C   0  0  0  0  0  3  0  0  0  0  0  0
  185.4000  178.4920  143.0050 C   0  0  2  0  0  3  0  0  0  0  0  0
  189.0540  178.0760  140.0060 O   0  0  0  0  0  0  0  0  0  0  0  0
  189.4880  176.7810  140.3250 C   0  0  2  0  0  3  0  0  0  0  0  0
  192.0830  177.7420  140.3250 C   0  0  0  0  0  2  0  0  0  0  0  0
  190.1650  176.7630  141.7010 C   0  0  0  0  0  2  0  0  0  0  0  0
  190.9110  177.1750  138.2210 C   0  0  0  0  0  2  0  0  0  0  0  0
  190.3870  176.1630  139.2290 C   0  0  1  0  0  3  0  0  0  0  0  0
  191.8460  176.6460  139.2860 C   0  0  2  0  0  3  0  0  0  0  0  0
  191.6070  177.2880  141.7020 C   0  0  0  0  0  2  0  0  0  0  0  0
  1 21  1  1  0  0  0
  1  4  1  0  0  0  0
  2  6  1  0  0  0  0
  3  7  1  0  0  0  0
  5  8  1  0  0  0  0
  5  3  1  0  0  0  0
  6 20  1  0  0  0  0
  7  9  1  0  0  0  0
  7  2  1  0  0  0  0
  8  1  1  0  0  0  0
  9  4  1  0  0  0  0
  9  2  1  0  0  0  0
  9  6  1  0  0  0  0
 10 19  2  0  0  0  0
 11 16  1  0  0  0  0
 12 14  1  0  0  0  0
 13 18  2  0  0  0  0
 14 10  1  0  0  0  0
 14 11  1  0  0  0  0
 15 17  1  0  0  0  0
 16 13  1  0  0  0  0
 17 11  1  0  0  0  0
 19 13  1  0  0  0  0
 20 12  1  0  0  0  0
 20 15  1  0  0  0  0
 21 22  1  0  0  0  0
 22 24  1  0  0  0  0
 23 28  1  0  0  0  0
 24 28  1  0  0  0  0
 25 26  1  0  0  0  0
 25 27  1  0  0  0  0
 26 27  1  0  0  0  0
 26 22  1  0  0  0  0
 27 23  1  0  0  0  0
M  END
>  <MODEL>
6

>  <REMARK>
 VINA RESULT:      -8.9      1.969      6.216
  Name = 
  3 active torsions:
  status: ('A' for Active; 'I' for Inactive)
    1  A    between atoms: C_1  and  O_2
    2  A    between atoms: O_2  and  C_3
    3  A    between atoms: C_20  and  C_25
                            x       y       z     vdW  Elec       q    Type
                         _______ _______ _______ _____ _____    ______ ____

>  <TORSDO>
F 3

$$$$
=
 OpenBabel10272401463D

 28 34  0  0  1  0  0  0  0  0999 V2000
  186.7590  178.2600  141.8440 C   0  0  1  0  0  3  0  0  0  0  0  0
  185.0870  179.3580  144.8100 C   0  0  2  0  0  3  0  0  0  0  0  0
  183.6750  178.7790  142.7520 C   0  0  0  0  0  2  0  0  0  0  0  0
  186.8460  178.8310  143.1420 O   0  0  0  0  0  0  0  0  0  0  0  0
  184.1790  178.3670  141.3340 C   0  0  0  0  0  2  0  0  0  0  0  0
  185.6570  178.0010  145.1500 C   0  0  1  0  0  3  0  0  0  0  0  0
  184.7020  179.5680  143.4030 N   0  0  2  0  0  0  0  0  0  0  0  0
  185.6160  178.8530  140.9590 C   0  0  0  0  0  2  0  0  0  0  0  0
  185.6300  178.4840  143.7160 C   0  0  1  0  0  0  0  0  0  0  0  0
  190.5490  176.5320  145.3280 C   0  0  0  0  0  3  0  0  0  0  0  0
  189.2770  177.1110  147.3960 C   0  0  1  0  0  3  0  0  0  0  0  0
  188.1510  177.1970  145.1590 C   0  0  0  0  0  2  0  0  0  0  0  0
  191.7030  176.5810  147.4840 C   0  0  0  0  0  0  0  0  0  0  0  0
  189.4630  177.3980  145.9020 C   0  0  2  0  0  3  0  0  0  0  0  0
  186.9150  177.7040  147.2490 N   0  0  0  0  0  2  0  0  0  0  0  0
  190.5910  177.3560  148.1350 C   0  0  0  0  0  2  0  0  0  0  0  0
  188.1690  178.0050  147.9380 C   0  0  0  0  0  2  0  0  0  0  0  0
  192.7320  176.2900  148.1470 O   0  0  0  0  0  0  0  0  0  0  0  0
  191.6070  176.1820  146.0660 C   0  0  0  0  0  3  0  0  0  0  0  0
  187.0470  178.0390  145.8270 C   0  0  2  0  0  3  0  0  0  0  0  0
  187.9830  178.4210  141.1900 O   0  0  0  0  0  0  0  0  0  0  0  0
  188.3680  177.1270  140.8090 C   0  0  2  0  0  3  0  0  0  0  0  0
  190.9770  178.0380  140.6610 C   0  0  0  0  0  2  0  0  0  0  0  0
  189.3080  176.5140  141.8540 C   0  0  0  0  0  2  0  0  0  0  0  0
  189.3580  178.4410  138.8330 C   0  0  0  0  0  2  0  0  0  0  0  0
  188.9720  177.0770  139.3860 C   0  0  1  0  0  3  0  0  0  0  0  0
  190.4460  177.5130  139.3280 C   0  0  2  0  0  3  0  0  0  0  0  0
  190.7570  177.0120  141.7690 C   0  0  0  0  0  2  0  0  0  0  0  0
  1 21  1  6  0  0  0
  1  4  1  0  0  0  0
  2  6  1  0  0  0  0
  3  7  1  0  0  0  0
  4  9  1  0  0  0  0
  5  3  1  0  0  0  0
  6 20  1  0  0  0  0
  7  9  1  0  0  0  0
  7  2  1  0  0  0  0
  8  5  1  0  0  0  0
  8  1  1  0  0  0  0
  9  2  1  0  0  0  0
  9  6  1  0  0  0  0
 10 14  1  0  0  0  0
 10 19  2  0  0  0  0
 11 17  1  0  0  0  0
 11 16  1  0  0  0  0
 12 20  1  0  0  0  0
 12 14  1  0  0  0  0
 13 16  1  0  0  0  0
 13 18  2  0  0  0  0
 14 11  1  0  0  0  0
 15 17  1  0  0  0  0
 19 13  1  0  0  0  0
 20 15  1  0  0  0  0
 22 21  1  0  0  0  0
 22 24  1  0  0  0  0
 23 28  1  0  0  0  0
 25 27  1  0  0  0  0
 25 26  1  0  0  0  0
 26 22  1  0  0  0  0
 27 26  1  0  0  0  0
 27 23  1  0  0  0  0
 28 24  1  0  0  0  0
M  END
>  <MODEL>
7

>  <REMARK>
 VINA RESULT:      -8.7      2.122      6.284
  Name = 
  3 active torsions:
  status: ('A' for Active; 'I' for Inactive)
    1  A    between atoms: C_1  and  O_2
    2  A    between atoms: O_2  and  C_3
    3  A    between atoms: C_20  and  C_25
                            x       y       z     vdW  Elec       q    Type
                         _______ _______ _______ _____ _____    ______ ____

>  <TORSDO>
F 3

$$$$
=
 OpenBabel10272401463D

 28 34  0  0  1  0  0  0  0  0999 V2000
  185.6530  178.4130  139.9250 C   0  0  1  0  0  3  0  0  0  0  0  0
  184.0430  179.1070  143.0440 C   0  0  2  0  0  3  0  0  0  0  0  0
  182.5880  178.4930  141.0270 C   0  0  0  0  0  2  0  0  0  0  0  0
  185.7490  178.9060  141.2540 O   0  0  0  0  0  0  0  0  0  0  0  0
  183.0520  178.2370  139.5590 C   0  0  0  0  0  2  0  0  0  0  0  0
  184.7900  177.8110  143.2570 C   0  0  1  0  0  3  0  0  0  0  0  0
  183.5530  179.3580  141.6780 N   0  0  2  0  0  0  0  0  0  0  0  0
  184.3960  178.9180  139.1450 C   0  0  0  0  0  2  0  0  0  0  0  0
  184.6190  178.3780  141.8640 C   0  0  1  0  0  0  0  0  0  0  0  0
  189.7450  176.5640  143.3610 C   0  0  0  0  0  3  0  0  0  0  0  0
  188.5360  177.3070  145.4140 C   0  0  1  0  0  3  0  0  0  0  0  0
  187.3150  177.1120  143.2340 C   0  0  0  0  0  2  0  0  0  0  0  0
  190.9840  176.8850  145.4450 C   0  0  0  0  0  0  0  0  0  0  0  0
  188.6470  177.4420  143.8920 C   0  0  2  0  0  3  0  0  0  0  0  0
  186.1460  177.7870  145.3150 N   0  0  0  0  0  2  0  0  0  0  0  0
  189.8670  177.6810  146.0630 C   0  0  0  0  0  2  0  0  0  0  0  0
  187.4140  178.2080  145.9110 C   0  0  0  0  0  2  0  0  0  0  0  0
  192.0520  176.7070  146.0860 O   0  0  0  0  0  0  0  0  0  0  0  0
  190.8480  176.3360  144.0810 C   0  0  0  0  0  3  0  0  0  0  0  0
  186.2040  177.9750  143.8620 C   0  0  2  0  0  3  0  0  0  0  0  0
  186.8080  178.7640  139.2210 O   0  0  0  0  0  0  0  0  0  0  0  0
  187.3660  177.5480  138.8040 C   0  0  2  0  0  3  0  0  0  0  0  0
  189.2850  178.9960  137.4340 C   0  0  0  0  0  2  0  0  0  0  0  0
  188.7880  177.3880  139.3580 C   0  0  0  0  0  2  0  0  0  0  0  0
  187.0190  178.6420  136.5040 C   0  0  0  0  0  2  0  0  0  0  0  0
  187.3170  177.3620  137.2690 C   0  0  1  0  0  3  0  0  0  0  0  0
  188.4350  178.1090  136.5240 C   0  0  2  0  0  3  0  0  0  0  0  0
  189.8550  178.1850  138.5940 C   0  0  0  0  0  2  0  0  0  0  0  0
  1 21  1  6  0  0  0
  1  4  1  0  0  0  0
  2  6  1  0  0  0  0
  3  7  1  0  0  0  0
  4  9  1  0  0  0  0
  5  3  1  0  0  0  0
  6 20  1  0  0  0  0
  7  9  1  0  0  0  0
  7  2  1  0  0  0  0
  8  5  1  0  0  0  0
  8  1  1  0  0  0  0
  9  2  1  0  0  0  0
  9  6  1  0  0  0  0
 10 14  1  0  0  0  0
 10 19  2  0  0  0  0
 11 17  1  0  0  0  0
 11 16  1  0  0  0  0
 12 20  1  0  0  0  0
 12 14  1  0  0  0  0
 13 16  1  0  0  0  0
 13 18  2  0  0  0  0
 14 11  1  0  0  0  0
 15 17  1  0  0  0  0
 19 13  1  0  0  0  0
 20 15  1  0  0  0  0
 22 21  1  0  0  0  0
 22 24  1  0  0  0  0
 23 28  1  0  0  0  0
 25 27  1  0  0  0  0
 25 26  1  0  0  0  0
 26 22  1  0  0  0  0
 27 26  1  0  0  0  0
 27 23  1  0  0  0  0
 28 24  1  0  0  0  0
M  END
>  <MODEL>
8

>  <REMARK>
 VINA RESULT:      -8.5      1.854      6.199
  Name = 
  3 active torsions:
  status: ('A' for Active; 'I' for Inactive)
    1  A    between atoms: C_1  and  O_2
    2  A    between atoms: O_2  and  C_3
    3  A    between atoms: C_20  and  C_25
                            x       y       z     vdW  Elec       q    Type
                         _______ _______ _______ _____ _____    ______ ____

>  <TORSDO>
F 3

$$$$
=
 OpenBabel10272401463D

 28 34  0  0  1  0  0  0  0  0999 V2000
  188.7990  177.6310  143.7030 C   0  0  1  0  0  3  0  0  0  0  0  0
  191.4610  177.5120  141.3150 C   0  0  2  0  0  3  0  0  0  0  0  0
  191.8880  176.5980  143.6700 C   0  0  0  0  0  2  0  0  0  0  0  0
  189.3100  178.0280  142.4370 O   0  0  0  0  0  0  0  0  0  0  0  0
  190.9190  176.6210  144.8920 C   0  0  0  0  0  2  0  0  0  0  0  0
  190.4290  176.5290  140.8150 C   0  0  1  0  0  3  0  0  0  0  0  0
  191.5400  177.6840  142.7760 N   0  0  2  0  0  0  0  0  0  0  0  0
  189.8310  177.7420  144.8720 C   0  0  0  0  0  2  0  0  0  0  0  0
  190.3240  177.1080  142.2090 C   0  0  1  0  0  0  0  0  0  0  0  0
  187.3710  175.9260  136.7650 C   0  0  0  0  0  3  0  0  0  0  0  0
  188.4810  178.1070  137.2570 C   0  0  1  0  0  3  0  0  0  0  0  0
  188.8850  176.1250  138.7370 C   0  0  0  0  0  2  0  0  0  0  0  0
  186.8530  177.8840  135.3930 C   0  0  0  0  0  0  0  0  0  0  0  0
  187.8690  176.8350  137.8530 C   0  0  2  0  0  3  0  0  0  0  0  0
  190.0110  178.2960  139.1480 N   0  0  0  0  0  2  0  0  0  0  0  0
  187.4390  178.8290  136.4060 C   0  0  0  0  0  2  0  0  0  0  0  0
  188.9750  178.9960  138.3890 C   0  0  0  0  0  2  0  0  0  0  0  0
  186.3250  178.3400  134.3460 O   0  0  0  0  0  0  0  0  0  0  0  0
  186.8680  176.4270  135.6320 C   0  0  0  0  0  3  0  0  0  0  0  0
  189.4300  177.1110  139.7870 C   0  0  2  0  0  3  0  0  0  0  0  0
  187.6720  178.3990  144.0030 O   0  0  0  0  0  0  0  0  0  0  0  0
  186.6170  177.4810  144.0970 C   0  0  2  0  0  3  0  0  0  0  0  0
  185.0100  179.5470  144.9940 C   0  0  0  0  0  2  0  0  0  0  0  0
  185.4840  177.8590  143.1350 C   0  0  0  0  0  2  0  0  0  0  0  0
  186.5840  178.3800  146.5050 C   0  0  0  0  0  2  0  0  0  0  0  0
  186.1090  177.2990  145.5470 C   0  0  1  0  0  3  0  0  0  0  0  0
  185.1550  178.4130  146.0080 C   0  0  2  0  0  3  0  0  0  0  0  0
  184.5870  179.0000  143.6330 C   0  0  0  0  0  2  0  0  0  0  0  0
  1 21  1  1  0  0  0
  1  8  1  0  0  0  0
  2  9  1  0  0  0  0
  2  7  1  0  0  0  0
  3  5  1  0  0  0  0
  4  1  1  0  0  0  0
  6  2  1  0  0  0  0
  6  9  1  0  0  0  0
  7  3  1  0  0  0  0
  8  5  1  0  0  0  0
  9  4  1  0  0  0  0
  9  7  1  0  0  0  0
 10 14  1  0  0  0  0
 11 14  1  0  0  0  0
 11 17  1  0  0  0  0
 12 20  1  0  0  0  0
 13 19  1  0  0  0  0
 13 16  1  0  0  0  0
 14 12  1  0  0  0  0
 15 20  1  0  0  0  0
 16 11  1  0  0  0  0
 17 15  1  0  0  0  0
 18 13  2  0  0  0  0
 19 10  2  0  0  0  0
 20  6  1  0  0  0  0
 21 22  1  0  0  0  0
 22 26  1  0  0  0  0
 23 27  1  0  0  0  0
 24 28  1  0  0  0  0
 24 22  1  0  0  0  0
 26 27  1  0  0  0  0
 26 25  1  0  0  0  0
 27 25  1  0  0  0  0
 28 23  1  0  0  0  0
M  END
>  <MODEL>
9

>  <REMARK>
 VINA RESULT:      -8.3      2.240      4.687
  Name = 
  3 active torsions:
  status: ('A' for Active; 'I' for Inactive)
    1  A    between atoms: C_1  and  O_2
    2  A    between atoms: O_2  and  C_3
    3  A    between atoms: C_20  and  C_25
                            x       y       z     vdW  Elec       q    Type
                         _______ _______ _______ _____ _____    ______ ____

>  <TORSDO>
F 3

$$$$
