=
 OpenBabel10272400183D

 31 33  0  0  1  0  0  0  0  0999 V2000
  192.2290  175.3730  143.8180 F   0  0  0  0  0  0  0  0  0  0  0  0
  188.6670  178.0870  144.7370 C   0  0  1  0  0  3  0  0  0  0  0  0
  190.1870  178.2890  144.8920 C   0  0  0  0  0  2  0  0  0  0  0  0
  191.4100  176.4690  143.6150 C   0  0  0  0  0  0  0  0  0  0  0  0
  190.5380  175.6480  141.5890 O   0  0  0  0  0  0  0  0  0  0  0  0
  188.8280  176.1370  143.1160 C   0  0  0  0  0  2  0  0  0  0  0  0
  188.2890  177.5670  143.3150 C   0  0  1  0  0  0  0  0  0  0  0  0
  190.2760  176.0580  142.7090 C   0  0  0  0  0  0  0  0  0  0  0  0
  190.9470  176.9670  144.9810 C   0  0  0  0  0  2  0  0  0  0  0  0
  192.1540  177.4590  142.9960 F   0  0  0  0  0  0  0  0  0  0  0  0
  188.0500  177.2950  145.9240 C   0  0  1  0  0  3  0  0  0  0  0  0
  188.8990  178.0470  148.0830 C   0  0  0  0  0  2  0  0  0  0  0  0
  189.0800  176.9930  147.0120 C   0  0  0  0  0  2  0  0  0  0  0  0
  187.4260  178.3780  148.0700 C   0  0  0  0  0  2  0  0  0  0  0  0
  186.9730  178.1160  146.6400 C   0  0  2  0  0  3  0  0  0  0  0  0
  184.7340  178.5910  146.3850 C   0  0  0  0  0  1  0  0  0  0  0  0
  185.6760  177.5610  146.5540 O   0  0  0  0  0  0  0  0  0  0  0  0
  186.1010  178.5070  143.2200 O   0  0  0  0  0  0  0  0  0  0  0  0
  186.7930  177.5010  143.1590 C   0  0  0  0  0  3  0  0  0  0  0  0
  188.8320  178.5140  142.2180 C   0  0  0  0  0  2  0  0  0  0  0  0
  188.3450  178.1650  140.8150 C   0  0  0  0  0  2  0  0  0  0  0  0
  189.4400  178.4360  139.7880 C   0  0  0  0  0  2  0  0  0  0  0  0
  189.2380  177.6990  138.4460 C   0  0  1  0  0  0  0  0  0  0  0  0
  187.9020  176.9800  138.5480 C   0  0  0  0  0  1  0  0  0  0  0  0
  189.1480  178.5990  137.1830 C   0  0  0  0  0  3  0  0  0  0  0  0
  187.7780  178.6480  136.5260 C   0  0  0  0  0  2  0  0  0  0  0  0
  188.8810  177.8090  135.9110 C   0  0  0  0  0  2  0  0  0  0  0  0
  191.5230  177.0130  138.1200 O   0  0  0  0  0  0  0  0  0  0  0  0
  190.3200  176.6580  138.2640 C   0  0  0  0  0  0  0  0  0  0  0  0
  189.9870  175.3060  138.1780 O   0  0  0  0  0  0  0  0  0  0  0  0
  190.9280  174.3800  137.9530 O   0  0  0  0  0  1  0  0  0  0  0  0
  2  3  1  1  0  0  0
  2 11  1  0  0  0  0
  3  9  1  0  0  0  0
  4  1  1  0  0  0  0
  4  9  1  0  0  0  0
  5  8  2  0  0  0  0
  6  7  1  0  0  0  0
  7 20  1  6  0  0  0
  7  2  1  0  0  0  0
  8  6  1  0  0  0  0
  8  4  1  0  0  0  0
 10  4  1  0  0  0  0
 11 15  1  0  0  0  0
 11 13  1  1  0  0  0
 13 12  1  0  0  0  0
 14 12  1  0  0  0  0
 15 17  1  1  0  0  0
 15 14  1  0  0  0  0
 16 17  1  0  0  0  0
 19 18  2  0  0  0  0
 19  7  1  0  0  0  0
 21 20  1  0  0  0  0
 22 21  1  0  0  0  0
 23 24  1  1  0  0  0
 23 22  1  0  0  0  0
 25 23  1  0  0  0  0
 26 25  1  0  0  0  0
 27 26  1  0  0  0  0
 27 25  1  0  0  0  0
 28 29  2  0  0  0  0
 29 23  1  0  0  0  0
 30 29  1  0  0  0  0
 31 30  1  0  0  0  0
M  END
>  <MODEL>
1

>  <REMARK>
 VINA RESULT:      -8.2      0.000      0.000
  Name = 
  10 active torsions:
  status: ('A' for Active; 'I' for Inactive)
    1  A    between atoms: O_1  and  C_19
    2  A    between atoms: C_3  and  C_22
    3  A    between atoms: C_4  and  C_5
    4  A    between atoms: C_9  and  C_22
    5  A    between atoms: C_9  and  C_23
    6  A    between atoms: C_15  and  C_21
    7  A    between atoms: C_15  and  C_23
    8  A    between atoms: C_19  and  C_22
    9  A    between atoms: C_21  and  C_29
   10  A    between atoms: C_30  and  O_31
                            x       y       z     vdW  Elec       q    Type
                         _______ _______ _______ _____ _____    ______ ____

>  <TORSDO>
F 10

$$$$
=
 OpenBabel10272400183D

 31 33  0  0  1  0  0  0  0  0999 V2000
  192.2430  175.4790  143.7070 F   0  0  0  0  0  0  0  0  0  0  0  0
  188.6240  178.0810  144.7220 C   0  0  1  0  0  3  0  0  0  0  0  0
  190.1410  178.3450  144.8000 C   0  0  0  0  0  2  0  0  0  0  0  0
  191.3730  176.5370  143.5140 C   0  0  0  0  0  0  0  0  0  0  0  0
  190.4410  175.6270  141.5550 O   0  0  0  0  0  0  0  0  0  0  0  0
  188.7860  176.0930  143.1480 C   0  0  0  0  0  2  0  0  0  0  0  0
  188.2010  177.5070  143.3340 C   0  0  1  0  0  0  0  0  0  0  0  0
  190.2160  176.0580  142.6740 C   0  0  0  0  0  0  0  0  0  0  0  0
  190.9540  177.0560  144.8870 C   0  0  0  0  0  2  0  0  0  0  0  0
  192.0480  177.5370  142.8340 F   0  0  0  0  0  0  0  0  0  0  0  0
  188.0950  177.3000  145.9580 C   0  0  1  0  0  3  0  0  0  0  0  0
  189.0810  178.0850  148.0450 C   0  0  0  0  0  2  0  0  0  0  0  0
  189.1980  177.0190  146.9770 C   0  0  0  0  0  2  0  0  0  0  0  0
  187.6080  178.4060  148.1270 C   0  0  0  0  0  2  0  0  0  0  0  0
  187.0620  178.1230  146.7350 C   0  0  2  0  0  3  0  0  0  0  0  0
  184.8110  178.5720  146.5570 C   0  0  0  0  0  1  0  0  0  0  0  0
  185.7660  177.5580  146.7440 O   0  0  0  0  0  0  0  0  0  0  0  0
  185.9750  178.3570  143.3400 O   0  0  0  0  0  0  0  0  0  0  0  0
  186.7020  177.3790  143.2510 C   0  0  0  0  0  3  0  0  0  0  0  0
  188.6550  178.4420  142.1870 C   0  0  0  0  0  2  0  0  0  0  0  0
  188.0290  178.1010  140.8380 C   0  0  0  0  0  2  0  0  0  0  0  0
  188.8290  178.7350  139.7050 C   0  0  0  0  0  2  0  0  0  0  0  0
  188.6670  178.0190  138.3460 C   0  0  1  0  0  0  0  0  0  0  0  0
  189.2420  178.9560  137.2960 C   0  0  0  0  0  1  0  0  0  0  0  0
  189.4300  176.6750  138.1900 C   0  0  0  0  0  3  0  0  0  0  0  0
  190.9450  176.7930  138.1870 C   0  0  0  0  0  2  0  0  0  0  0  0
  190.2020  176.5810  136.8830 C   0  0  0  0  0  2  0  0  0  0  0  0
  186.7600  176.6670  137.7710 O   0  0  0  0  0  0  0  0  0  0  0  0
  187.1990  177.8190  138.0430 C   0  0  0  0  0  0  0  0  0  0  0  0
  186.3370  178.9140  137.9880 O   0  0  0  0  0  0  0  0  0  0  0  0
  185.3500  179.0580  138.8830 O   0  0  0  0  0  1  0  0  0  0  0  0
  2  3  1  6  0  0  0
  2 11  1  0  0  0  0
  3  9  1  0  0  0  0
  4  1  1  0  0  0  0
  4  9  1  0  0  0  0
  5  8  2  0  0  0  0
  6  7  1  0  0  0  0
  7 20  1  6  0  0  0
  7  2  1  0  0  0  0
  8  6  1  0  0  0  0
  8  4  1  0  0  0  0
 10  4  1  0  0  0  0
 11 15  1  0  0  0  0
 11 13  1  1  0  0  0
 12 14  1  0  0  0  0
 13 12  1  0  0  0  0
 15 17  1  1  0  0  0
 15 14  1  0  0  0  0
 16 17  1  0  0  0  0
 19  7  1  0  0  0  0
 19 18  2  0  0  0  0
 21 20  1  0  0  0  0
 22 21  1  0  0  0  0
 23 24  1  6  0  0  0
 23 22  1  0  0  0  0
 25 23  1  0  0  0  0
 26 25  1  0  0  0  0
 27 26  1  0  0  0  0
 27 25  1  0  0  0  0
 28 29  2  0  0  0  0
 29 23  1  0  0  0  0
 30 29  1  0  0  0  0
 30 31  1  0  0  0  0
M  END
>  <MODEL>
2

>  <REMARK>
 VINA RESULT:      -8.1      1.445      2.187
  Name = 
  10 active torsions:
  status: ('A' for Active; 'I' for Inactive)
    1  A    between atoms: O_1  and  C_19
    2  A    between atoms: C_3  and  C_22
    3  A    between atoms: C_4  and  C_5
    4  A    between atoms: C_9  and  C_22
    5  A    between atoms: C_9  and  C_23
    6  A    between atoms: C_15  and  C_21
    7  A    between atoms: C_15  and  C_23
    8  A    between atoms: C_19  and  C_22
    9  A    between atoms: C_21  and  C_29
   10  A    between atoms: C_30  and  O_31
                            x       y       z     vdW  Elec       q    Type
                         _______ _______ _______ _____ _____    ______ ____

>  <TORSDO>
F 10

$$$$
=
 OpenBabel10272400183D

 31 33  0  0  1  0  0  0  0  0999 V2000
  192.7370  178.5650  143.9060 F   0  0  0  0  0  0  0  0  0  0  0  0
  189.5260  176.7770  141.1870 C   0  0  1  0  0  3  0  0  0  0  0  0
  190.7420  176.1520  141.9000 C   0  0  0  0  0  2  0  0  0  0  0  0
  191.6300  177.7830  143.6290 C   0  0  0  0  0  0  0  0  0  0  0  0
  190.1510  179.1660  144.8290 O   0  0  0  0  0  0  0  0  0  0  0  0
  189.4390  178.8780  142.6140 C   0  0  0  0  0  2  0  0  0  0  0  0
  188.6540  177.6320  142.1600 C   0  0  1  0  0  0  0  0  0  0  0  0
  190.3950  178.6410  143.7540 C   0  0  0  0  0  0  0  0  0  0  0  0
  191.8150  177.1840  142.2380 C   0  0  0  0  0  2  0  0  0  0  0  0
  191.5730  176.7620  144.5630 F   0  0  0  0  0  0  0  0  0  0  0  0
  189.9150  177.4720  139.8520 C   0  0  1  0  0  3  0  0  0  0  0  0
  190.7090  175.8870  138.1770 C   0  0  0  0  0  2  0  0  0  0  0  0
  191.1740  176.8660  139.2330 C   0  0  0  0  0  2  0  0  0  0  0  0
  189.4260  176.4680  137.6340 C   0  0  0  0  0  2  0  0  0  0  0  0
  188.8340  177.2700  138.7850 C   0  0  2  0  0  3  0  0  0  0  0  0
  188.9400  179.0450  137.3220 C   0  0  0  0  0  1  0  0  0  0  0  0
  188.2050  178.4660  138.3710 O   0  0  0  0  0  0  0  0  0  0  0  0
  187.2210  179.3120  141.2660 O   0  0  0  0  0  0  0  0  0  0  0  0
  187.4130  178.1220  141.4610 C   0  0  0  0  0  3  0  0  0  0  0  0
  188.2040  176.7930  143.3800 C   0  0  0  0  0  2  0  0  0  0  0  0
  186.8250  177.1780  143.9080 C   0  0  0  0  0  2  0  0  0  0  0  0
  186.9210  178.4080  144.8030 C   0  0  0  0  0  2  0  0  0  0  0  0
  186.7660  178.1020  146.3090 C   0  0  1  0  0  0  0  0  0  0  0  0
  186.3720  176.6370  146.4110 C   0  0  0  0  0  1  0  0  0  0  0  0
  188.0470  178.2650  147.1720 C   0  0  0  0  0  3  0  0  0  0  0  0
  188.9210  177.0250  147.2650 C   0  0  0  0  0  2  0  0  0  0  0  0
  188.0270  177.4090  148.4290 C   0  0  0  0  0  2  0  0  0  0  0  0
  185.9020  179.9160  147.6360 O   0  0  0  0  0  0  0  0  0  0  0  0
  185.6420  178.9320  146.8880 C   0  0  0  0  0  0  0  0  0  0  0  0
  184.3140  178.5720  146.6620 O   0  0  0  0  0  0  0  0  0  0  0  0
  183.6200  179.1060  145.6490 O   0  0  0  0  0  1  0  0  0  0  0  0
  2  3  1  1  0  0  0
  2  7  1  0  0  0  0
  3  9  1  0  0  0  0
  4  8  1  0  0  0  0
  4  1  1  0  0  0  0
  4 10  1  0  0  0  0
  6  8  1  0  0  0  0
  7 19  1  6  0  0  0
  7  6  1  0  0  0  0
  7 20  1  0  0  0  0
  8  5  2  0  0  0  0
  9  4  1  0  0  0  0
 11 13  1  6  0  0  0
 11  2  1  0  0  0  0
 12 13  1  0  0  0  0
 14 12  1  0  0  0  0
 14 15  1  0  0  0  0
 15 17  1  6  0  0  0
 15 11  1  0  0  0  0
 16 17  1  0  0  0  0
 18 19  2  0  0  0  0
 20 21  1  0  0  0  0
 21 22  1  0  0  0  0
 22 23  1  0  0  0  0
 23 24  1  1  0  0  0
 23 29  1  0  0  0  0
 23 25  1  0  0  0  0
 25 26  1  0  0  0  0
 25 27  1  0  0  0  0
 26 27  1  0  0  0  0
 29 28  2  0  0  0  0
 30 29  1  0  0  0  0
 31 30  1  0  0  0  0
M  END
>  <MODEL>
3

>  <REMARK>
 VINA RESULT:      -6.7      1.948      7.431
  Name = 
  10 active torsions:
  status: ('A' for Active; 'I' for Inactive)
    1  A    between atoms: O_1  and  C_19
    2  A    between atoms: C_3  and  C_22
    3  A    between atoms: C_4  and  C_5
    4  A    between atoms: C_9  and  C_22
    5  A    between atoms: C_9  and  C_23
    6  A    between atoms: C_15  and  C_21
    7  A    between atoms: C_15  and  C_23
    8  A    between atoms: C_19  and  C_22
    9  A    between atoms: C_21  and  C_29
   10  A    between atoms: C_30  and  O_31
                            x       y       z     vdW  Elec       q    Type
                         _______ _______ _______ _____ _____    ______ ____

>  <TORSDO>
F 10

$$$$
=
 OpenBabel10272400183D

 31 33  0  0  1  0  0  0  0  0999 V2000
  192.4270  178.4850  144.4930 F   0  0  0  0  0  0  0  0  0  0  0  0
  189.6610  176.8050  141.2630 C   0  0  1  0  0  3  0  0  0  0  0  0
  190.8420  176.1860  142.0370 C   0  0  0  0  0  2  0  0  0  0  0  0
  191.4180  177.6680  144.0150 C   0  0  0  0  0  0  0  0  0  0  0  0
  189.7210  178.8070  145.1810 O   0  0  0  0  0  0  0  0  0  0  0  0
  189.2650  178.7230  142.8830 C   0  0  0  0  0  2  0  0  0  0  0  0
  188.6300  177.4860  142.2170 C   0  0  1  0  0  0  0  0  0  0  0  0
  190.1140  178.4230  144.0910 C   0  0  0  0  0  0  0  0  0  0  0  0
  191.7910  177.2420  142.5980 C   0  0  0  0  0  2  0  0  0  0  0  0
  191.3440  176.5470  144.8250 F   0  0  0  0  0  0  0  0  0  0  0  0
  190.1310  177.6700  140.0590 C   0  0  1  0  0  3  0  0  0  0  0  0
  191.3020  176.3550  138.3720 C   0  0  0  0  0  2  0  0  0  0  0  0
  191.5170  177.2630  139.5640 C   0  0  0  0  0  2  0  0  0  0  0  0
  190.0380  176.8550  137.7150 C   0  0  0  0  0  2  0  0  0  0  0  0
  189.2210  177.4690  138.8430 C   0  0  2  0  0  3  0  0  0  0  0  0
  189.0420  179.1210  137.2490 C   0  0  0  0  0  1  0  0  0  0  0  0
  188.5140  178.6310  138.4560 O   0  0  0  0  0  0  0  0  0  0  0  0
  187.2050  179.1610  141.2970 O   0  0  0  0  0  0  0  0  0  0  0  0
  187.4330  177.9690  141.4400 C   0  0  0  0  0  3  0  0  0  0  0  0
  188.1230  176.4880  143.2860 C   0  0  0  0  0  2  0  0  0  0  0  0
  186.6690  176.7140  143.6890 C   0  0  0  0  0  2  0  0  0  0  0  0
  186.5940  177.4260  145.0360 C   0  0  0  0  0  2  0  0  0  0  0  0
  185.4470  178.4540  145.1390 C   0  0  1  0  0  0  0  0  0  0  0  0
  185.9760  179.7480  144.5390 C   0  0  0  0  0  1  0  0  0  0  0  0
  184.1530  178.1110  144.3510 C   0  0  0  0  0  3  0  0  0  0  0  0
  184.0060  178.8210  143.0150 C   0  0  0  0  0  2  0  0  0  0  0  0
  183.2100  179.2970  144.2150 C   0  0  0  0  0  2  0  0  0  0  0  0
  184.1100  178.1610  147.1190 O   0  0  0  0  0  0  0  0  0  0  0  0
  185.1160  178.7110  146.5920 C   0  0  0  0  0  0  0  0  0  0  0  0
  185.8750  179.6150  147.3360 O   0  0  0  0  0  0  0  0  0  0  0  0
  186.9340  179.2020  148.0440 O   0  0  0  0  0  1  0  0  0  0  0  0
  2  3  1  1  0  0  0
  2  7  1  0  0  0  0
  3  9  1  0  0  0  0
  4  8  1  0  0  0  0
  4  1  1  0  0  0  0
  4 10  1  0  0  0  0
  6  8  1  0  0  0  0
  7 19  1  6  0  0  0
  7  6  1  0  0  0  0
  7 20  1  0  0  0  0
  8  5  2  0  0  0  0
  9  4  1  0  0  0  0
 11 13  1  6  0  0  0
 11  2  1  0  0  0  0
 12 13  1  0  0  0  0
 14 12  1  0  0  0  0
 14 15  1  0  0  0  0
 15 17  1  6  0  0  0
 15 11  1  0  0  0  0
 16 17  1  0  0  0  0
 18 19  2  0  0  0  0
 20 21  1  0  0  0  0
 21 22  1  0  0  0  0
 22 23  1  0  0  0  0
 23 24  1  6  0  0  0
 23 29  1  0  0  0  0
 25 23  1  0  0  0  0
 26 27  1  0  0  0  0
 26 25  1  0  0  0  0
 27 25  1  0  0  0  0
 29 28  2  0  0  0  0
 29 30  1  0  0  0  0
 30 31  1  0  0  0  0
M  END
>  <MODEL>
4

>  <REMARK>
 VINA RESULT:      -6.6      2.187      7.092
  Name = 
  10 active torsions:
  status: ('A' for Active; 'I' for Inactive)
    1  A    between atoms: O_1  and  C_19
    2  A    between atoms: C_3  and  C_22
    3  A    between atoms: C_4  and  C_5
    4  A    between atoms: C_9  and  C_22
    5  A    between atoms: C_9  and  C_23
    6  A    between atoms: C_15  and  C_21
    7  A    between atoms: C_15  and  C_23
    8  A    between atoms: C_19  and  C_22
    9  A    between atoms: C_21  and  C_29
   10  A    between atoms: C_30  and  O_31
                            x       y       z     vdW  Elec       q    Type
                         _______ _______ _______ _____ _____    ______ ____

>  <TORSDO>
F 10

$$$$
=
 OpenBabel10272400183D

 31 33  0  0  1  0  0  0  0  0999 V2000
  184.7030  177.7290  142.8700 F   0  0  0  0  0  0  0  0  0  0  0  0
  188.9670  178.0830  141.2620 C   0  0  1  0  0  3  0  0  0  0  0  0
  187.8240  179.1080  141.3930 C   0  0  0  0  0  2  0  0  0  0  0  0
  186.0160  178.1610  142.9010 C   0  0  0  0  0  0  0  0  0  0  0  0
  186.5900  176.8060  144.7370 O   0  0  0  0  0  0  0  0  0  0  0  0
  188.0030  176.4060  142.9090 C   0  0  0  0  0  2  0  0  0  0  0  0
  189.2120  177.3080  142.5940 C   0  0  1  0  0  0  0  0  0  0  0  0
  186.8510  177.1060  143.5830 C   0  0  0  0  0  0  0  0  0  0  0  0
  186.4500  178.4460  141.4660 C   0  0  0  0  0  2  0  0  0  0  0  0
  186.0720  179.3330  143.6360 F   0  0  0  0  0  0  0  0  0  0  0  0
  188.8280  177.1990  139.9900 C   0  0  1  0  0  3  0  0  0  0  0  0
  188.6540  178.5270  137.9520 C   0  0  0  0  0  2  0  0  0  0  0  0
  187.8360  177.7860  138.9870 C   0  0  0  0  0  2  0  0  0  0  0  0
  189.9500  177.7600  137.8470 C   0  0  0  0  0  2  0  0  0  0  0  0
  190.1490  177.1270  139.2170 C   0  0  2  0  0  3  0  0  0  0  0  0
  190.6900  175.3680  137.8330 C   0  0  0  0  0  1  0  0  0  0  0  0
  190.7110  175.8300  139.1610 O   0  0  0  0  0  0  0  0  0  0  0  0
  190.3490  175.2180  142.7360 O   0  0  0  0  0  0  0  0  0  0  0  0
  190.4130  176.4080  142.4660 C   0  0  0  0  0  3  0  0  0  0  0  0
  189.4840  178.2870  143.7620 C   0  0  0  0  0  2  0  0  0  0  0  0
  190.3020  177.6740  144.8940 C   0  0  0  0  0  2  0  0  0  0  0  0
  190.1040  178.4650  146.1830 C   0  0  0  0  0  2  0  0  0  0  0  0
  189.8690  177.5840  147.4290 C   0  0  1  0  0  0  0  0  0  0  0  0
  190.1150  178.4740  148.6370 C   0  0  0  0  0  1  0  0  0  0  0  0
  188.4330  177.0140  147.5990 C   0  0  0  0  0  3  0  0  0  0  0  0
  187.3190  178.0440  147.5090 C   0  0  0  0  0  2  0  0  0  0  0  0
  187.7460  177.5090  148.8620 C   0  0  0  0  0  2  0  0  0  0  0  0
  190.4900  175.2580  147.4620 O   0  0  0  0  0  0  0  0  0  0  0  0
  190.8790  176.4580  147.4610 C   0  0  0  0  0  0  0  0  0  0  0  0
  192.2410  176.7400  147.5650 O   0  0  0  0  0  0  0  0  0  0  0  0
  193.0080  176.1010  148.4590 O   0  0  0  0  0  1  0  0  0  0  0  0
  1  4  1  0  0  0  0
  2  3  1  1  0  0  0
  2  7  1  0  0  0  0
  3  9  1  0  0  0  0
  4  8  1  0  0  0  0
  4 10  1  0  0  0  0
  6  8  1  0  0  0  0
  7 19  1  6  0  0  0
  7  6  1  0  0  0  0
  7 20  1  0  0  0  0
  8  5  2  0  0  0  0
  9  4  1  0  0  0  0
 11 13  1  6  0  0  0
 11  2  1  0  0  0  0
 12 13  1  0  0  0  0
 14 12  1  0  0  0  0
 14 15  1  0  0  0  0
 15 17  1  6  0  0  0
 15 11  1  0  0  0  0
 16 17  1  0  0  0  0
 19 18  2  0  0  0  0
 20 21  1  0  0  0  0
 21 22  1  0  0  0  0
 22 23  1  0  0  0  0
 23 29  1  0  0  0  0
 23 25  1  0  0  0  0
 23 24  1  1  0  0  0
 25 27  1  0  0  0  0
 26 25  1  0  0  0  0
 26 27  1  0  0  0  0
 29 28  2  0  0  0  0
 29 30  1  0  0  0  0
 30 31  1  0  0  0  0
M  END
>  <MODEL>
5

>  <REMARK>
 VINA RESULT:      -6.5      2.884      7.868
  Name = 
  10 active torsions:
  status: ('A' for Active; 'I' for Inactive)
    1  A    between atoms: O_1  and  C_19
    2  A    between atoms: C_3  and  C_22
    3  A    between atoms: C_4  and  C_5
    4  A    between atoms: C_9  and  C_22
    5  A    between atoms: C_9  and  C_23
    6  A    between atoms: C_15  and  C_21
    7  A    between atoms: C_15  and  C_23
    8  A    between atoms: C_19  and  C_22
    9  A    between atoms: C_21  and  C_29
   10  A    between atoms: C_30  and  O_31
                            x       y       z     vdW  Elec       q    Type
                         _______ _______ _______ _____ _____    ______ ____

>  <TORSDO>
F 10

$$$$
=
 OpenBabel10272400183D

 31 33  0  0  1  0  0  0  0  0999 V2000
  185.2880  179.4730  142.8640 F   0  0  0  0  0  0  0  0  0  0  0  0
  188.8850  176.9240  144.0740 C   0  0  1  0  0  3  0  0  0  0  0  0
  187.3690  176.6420  144.0800 C   0  0  0  0  0  2  0  0  0  0  0  0
  186.1790  178.4250  142.7220 C   0  0  0  0  0  0  0  0  0  0  0  0
  187.1940  179.3330  140.8030 O   0  0  0  0  0  0  0  0  0  0  0  0
  188.7750  178.8990  142.4780 C   0  0  0  0  0  2  0  0  0  0  0  0
  189.3680  177.4940  142.7030 C   0  0  1  0  0  0  0  0  0  0  0  0
  187.3700  178.9120  141.9360 C   0  0  0  0  0  0  0  0  0  0  0  0
  186.5370  177.9210  144.1170 C   0  0  0  0  0  2  0  0  0  0  0  0
  185.5500  177.4110  142.0180 F   0  0  0  0  0  0  0  0  0  0  0  0
  189.3440  177.7210  145.3280 C   0  0  1  0  0  3  0  0  0  0  0  0
  187.9320  177.2900  147.2690 C   0  0  0  0  0  2  0  0  0  0  0  0
  188.1620  178.2610  146.1310 C   0  0  0  0  0  2  0  0  0  0  0  0
  189.3000  176.7520  147.6140 C   0  0  0  0  0  2  0  0  0  0  0  0
  190.0920  176.8190  146.3150 C   0  0  2  0  0  3  0  0  0  0  0  0
  192.0990  176.1640  147.2330 C   0  0  0  0  0  1  0  0  0  0  0  0
  191.4480  177.1730  146.5020 O   0  0  0  0  0  0  0  0  0  0  0  0
  191.5990  176.7020  142.9720 O   0  0  0  0  0  0  0  0  0  0  0  0
  190.8670  177.6390  142.6920 C   0  0  0  0  0  3  0  0  0  0  0  0
  188.9820  176.5440  141.5430 C   0  0  0  0  0  2  0  0  0  0  0  0
  189.6580  176.8920  140.2210 C   0  0  0  0  0  2  0  0  0  0  0  0
  188.6630  176.7860  139.0700 C   0  0  0  0  0  2  0  0  0  0  0  0
  189.3220  176.6040  137.6850 C   0  0  1  0  0  0  0  0  0  0  0  0
  188.4770  175.5840  136.9380 C   0  0  0  0  0  1  0  0  0  0  0  0
  189.3700  177.8690  136.7830 C   0  0  0  0  0  3  0  0  0  0  0  0
  188.9590  179.1620  137.4680 C   0  0  0  0  0  2  0  0  0  0  0  0
  187.9950  178.4650  136.5270 C   0  0  0  0  0  2  0  0  0  0  0  0
  191.7230  176.7730  137.6950 O   0  0  0  0  0  0  0  0  0  0  0  0
  190.7130  176.0330  137.8490 C   0  0  0  0  0  0  0  0  0  0  0  0
  190.8880  174.6710  138.0960 O   0  0  0  0  0  0  0  0  0  0  0  0
  191.9960  174.0370  137.6920 O   0  0  0  0  0  1  0  0  0  0  0  0
  2  3  1  6  0  0  0
  2 11  1  0  0  0  0
  3  9  1  0  0  0  0
  4  1  1  0  0  0  0
  4  9  1  0  0  0  0
  5  8  2  0  0  0  0
  6  7  1  0  0  0  0
  7 20  1  6  0  0  0
  7  2  1  0  0  0  0
  8  6  1  0  0  0  0
  8  4  1  0  0  0  0
 10  4  1  0  0  0  0
 11 13  1  1  0  0  0
 11 15  1  0  0  0  0
 12 14  1  0  0  0  0
 13 12  1  0  0  0  0
 15 17  1  1  0  0  0
 15 14  1  0  0  0  0
 17 16  1  0  0  0  0
 19  7  1  0  0  0  0
 19 18  2  0  0  0  0
 21 20  1  0  0  0  0
 22 21  1  0  0  0  0
 23 24  1  6  0  0  0
 23 29  1  0  0  0  0
 23 22  1  0  0  0  0
 25 26  1  0  0  0  0
 25 23  1  0  0  0  0
 27 25  1  0  0  0  0
 27 26  1  0  0  0  0
 28 29  2  0  0  0  0
 29 30  1  0  0  0  0
 31 30  1  0  0  0  0
M  END
>  <MODEL>
6

>  <REMARK>
 VINA RESULT:      -6.4      2.437      3.707
  Name = 
  10 active torsions:
  status: ('A' for Active; 'I' for Inactive)
    1  A    between atoms: O_1  and  C_19
    2  A    between atoms: C_3  and  C_22
    3  A    between atoms: C_4  and  C_5
    4  A    between atoms: C_9  and  C_22
    5  A    between atoms: C_9  and  C_23
    6  A    between atoms: C_15  and  C_21
    7  A    between atoms: C_15  and  C_23
    8  A    between atoms: C_19  and  C_22
    9  A    between atoms: C_21  and  C_29
   10  A    between atoms: C_30  and  O_31
                            x       y       z     vdW  Elec       q    Type
                         _______ _______ _______ _____ _____    ______ ____

>  <TORSDO>
F 10

$$$$
=
 OpenBabel10272400183D

 31 33  0  0  1  0  0  0  0  0999 V2000
  192.8190  175.2150  135.8640 F   0  0  0  0  0  0  0  0  0  0  0  0
  188.8520  175.9900  137.9990 C   0  0  1  0  0  3  0  0  0  0  0  0
  189.5700  174.6880  137.5930 C   0  0  0  0  0  2  0  0  0  0  0  0
  191.9680  175.2160  136.9540 C   0  0  0  0  0  0  0  0  0  0  0  0
  193.1550  176.9040  138.0870 O   0  0  0  0  0  0  0  0  0  0  0  0
  190.9000  177.4840  137.8170 C   0  0  0  0  0  2  0  0  0  0  0  0
  189.8000  176.9650  138.7650 C   0  0  1  0  0  0  0  0  0  0  0  0
  192.0720  176.5550  137.6420 C   0  0  0  0  0  0  0  0  0  0  0  0
  190.5620  174.8990  136.4520 C   0  0  0  0  0  2  0  0  0  0  0  0
  192.3770  174.2210  137.8270 F   0  0  0  0  0  0  0  0  0  0  0  0
  188.0550  176.6200  136.8220 C   0  0  1  0  0  3  0  0  0  0  0  0
  186.6940  174.9780  135.6390 C   0  0  0  0  0  2  0  0  0  0  0  0
  188.0190  175.7070  135.5970 C   0  0  0  0  0  2  0  0  0  0  0  0
  185.7270  175.9470  136.2760 C   0  0  0  0  0  2  0  0  0  0  0  0
  186.5810  176.8140  137.1910 C   0  0  2  0  0  3  0  0  0  0  0  0
  185.3320  178.3760  138.3340 C   0  0  0  0  0  1  0  0  0  0  0  0
  186.1700  178.1670  137.2240 O   0  0  0  0  0  0  0  0  0  0  0  0
  189.0360  179.2190  138.6300 O   0  0  0  0  0  0  0  0  0  0  0  0
  189.0360  178.1680  139.2540 C   0  0  0  0  0  3  0  0  0  0  0  0
  190.4240  176.2730  140.0010 C   0  0  0  0  0  2  0  0  0  0  0  0
  190.6680  177.2210  141.1710 C   0  0  0  0  0  2  0  0  0  0  0  0
  190.2360  176.5720  142.4820 C   0  0  0  0  0  2  0  0  0  0  0  0
  190.5750  177.4050  143.7360 C   0  0  1  0  0  0  0  0  0  0  0  0
  191.3680  178.6080  143.2520 C   0  0  0  0  0  1  0  0  0  0  0  0
  189.3630  177.9750  144.5230 C   0  0  0  0  0  3  0  0  0  0  0  0
  188.7980  177.0530  145.5910 C   0  0  0  0  0  2  0  0  0  0  0  0
  188.0760  177.2070  144.2660 C   0  0  0  0  0  2  0  0  0  0  0  0
  191.8100  175.4300  144.3470 O   0  0  0  0  0  0  0  0  0  0  0  0
  191.4610  176.6010  144.6630 C   0  0  0  0  0  0  0  0  0  0  0  0
  191.8350  177.1200  145.9020 O   0  0  0  0  0  0  0  0  0  0  0  0
  192.3220  176.3220  146.8620 O   0  0  0  0  0  1  0  0  0  0  0  0
  1  4  1  0  0  0  0
  2  3  1  6  0  0  0
  2  7  1  0  0  0  0
  4  8  1  0  0  0  0
  4 10  1  0  0  0  0
  6  7  1  0  0  0  0
  7 19  1  1  0  0  0
  7 20  1  0  0  0  0
  8  6  1  0  0  0  0
  8  5  2  0  0  0  0
  9  4  1  0  0  0  0
  9  3  1  0  0  0  0
 11 13  1  6  0  0  0
 11 15  1  0  0  0  0
 11  2  1  0  0  0  0
 12 14  1  0  0  0  0
 13 12  1  0  0  0  0
 14 15  1  0  0  0  0
 15 17  1  6  0  0  0
 17 16  1  0  0  0  0
 18 19  2  0  0  0  0
 20 21  1  0  0  0  0
 21 22  1  0  0  0  0
 22 23  1  0  0  0  0
 23 24  1  6  0  0  0
 23 25  1  0  0  0  0
 23 29  1  0  0  0  0
 25 26  1  0  0  0  0
 27 25  1  0  0  0  0
 27 26  1  0  0  0  0
 28 29  2  0  0  0  0
 29 30  1  0  0  0  0
 30 31  1  0  0  0  0
M  END
>  <MODEL>
7

>  <REMARK>
 VINA RESULT:      -6.3      3.008      7.661
  Name = 
  10 active torsions:
  status: ('A' for Active; 'I' for Inactive)
    1  A    between atoms: O_1  and  C_19
    2  A    between atoms: C_3  and  C_22
    3  A    between atoms: C_4  and  C_5
    4  A    between atoms: C_9  and  C_22
    5  A    between atoms: C_9  and  C_23
    6  A    between atoms: C_15  and  C_21
    7  A    between atoms: C_15  and  C_23
    8  A    between atoms: C_19  and  C_22
    9  A    between atoms: C_21  and  C_29
   10  A    between atoms: C_30  and  O_31
                            x       y       z     vdW  Elec       q    Type
                         _______ _______ _______ _____ _____    ______ ____

>  <TORSDO>
F 10

$$$$
=
 OpenBabel10272400183D

 31 33  0  0  1  0  0  0  0  0999 V2000
  185.2980  179.4040  142.8510 F   0  0  0  0  0  0  0  0  0  0  0  0
  188.9510  176.8780  143.9310 C   0  0  1  0  0  3  0  0  0  0  0  0
  187.4390  176.5800  143.9730 C   0  0  0  0  0  2  0  0  0  0  0  0
  186.1950  178.3670  142.6710 C   0  0  0  0  0  0  0  0  0  0  0  0
  187.1500  179.3100  140.7380 O   0  0  0  0  0  0  0  0  0  0  0  0
  188.7790  178.8710  142.3650 C   0  0  0  0  0  2  0  0  0  0  0  0
  189.3920  177.4700  142.5560 C   0  0  1  0  0  0  0  0  0  0  0  0
  187.3600  178.8770  141.8600 C   0  0  0  0  0  0  0  0  0  0  0  0
  186.5950  177.8490  144.0500 C   0  0  0  0  0  2  0  0  0  0  0  0
  185.5590  177.3560  141.9700 F   0  0  0  0  0  0  0  0  0  0  0  0
  189.4350  177.6630  145.1830 C   0  0  1  0  0  3  0  0  0  0  0  0
  188.0790  177.1940  147.1550 C   0  0  0  0  0  2  0  0  0  0  0  0
  188.2700  178.1810  146.0240 C   0  0  0  0  0  2  0  0  0  0  0  0
  189.4600  176.6640  147.4570 C   0  0  0  0  0  2  0  0  0  0  0  0
  190.2170  176.7560  146.1390 C   0  0  2  0  0  3  0  0  0  0  0  0
  192.2190  176.1870  147.1260 C   0  0  0  0  0  1  0  0  0  0  0  0
  191.5750  177.1210  146.2960 O   0  0  0  0  0  0  0  0  0  0  0  0
  191.6370  176.7300  142.8560 O   0  0  0  0  0  0  0  0  0  0  0  0
  190.8890  177.6310  142.5080 C   0  0  0  0  0  3  0  0  0  0  0  0
  188.9850  176.5310  141.3950 C   0  0  0  0  0  2  0  0  0  0  0  0
  189.6010  176.9180  140.0540 C   0  0  0  0  0  2  0  0  0  0  0  0
  188.5940  176.7170  138.9260 C   0  0  0  0  0  2  0  0  0  0  0  0
  188.7440  177.7220  137.7640 C   0  0  1  0  0  0  0  0  0  0  0  0
  189.4730  178.9300  138.3310 C   0  0  0  0  0  1  0  0  0  0  0  0
  189.5880  177.2390  136.5520 C   0  0  0  0  0  3  0  0  0  0  0  0
  188.7830  176.8490  135.3230 C   0  0  0  0  0  2  0  0  0  0  0  0
  189.3630  175.7720  136.2200 C   0  0  0  0  0  2  0  0  0  0  0  0
  187.2290  179.3270  136.8040 O   0  0  0  0  0  0  0  0  0  0  0  0
  187.3790  178.1750  137.2960 C   0  0  0  0  0  0  0  0  0  0  0  0
  186.2670  177.3520  137.4730 O   0  0  0  0  0  0  0  0  0  0  0  0
  185.1840  177.7920  138.1290 O   0  0  0  0  0  1  0  0  0  0  0  0
  2  3  1  6  0  0  0
  2 11  1  0  0  0  0
  3  9  1  0  0  0  0
  4  1  1  0  0  0  0
  4  9  1  0  0  0  0
  5  8  2  0  0  0  0
  6  7  1  0  0  0  0
  7 20  1  6  0  0  0
  7  2  1  0  0  0  0
  8  6  1  0  0  0  0
  8  4  1  0  0  0  0
 10  4  1  0  0  0  0
 11 13  1  1  0  0  0
 11 15  1  0  0  0  0
 12 14  1  0  0  0  0
 13 12  1  0  0  0  0
 15 17  1  1  0  0  0
 15 14  1  0  0  0  0
 17 16  1  0  0  0  0
 19  7  1  0  0  0  0
 19 18  2  0  0  0  0
 21 20  1  0  0  0  0
 22 21  1  0  0  0  0
 23 24  1  1  0  0  0
 23 22  1  0  0  0  0
 25 23  1  0  0  0  0
 26 27  1  0  0  0  0
 26 25  1  0  0  0  0
 27 25  1  0  0  0  0
 28 29  2  0  0  0  0
 29 30  1  0  0  0  0
 29 23  1  0  0  0  0
 30 31  1  0  0  0  0
M  END
>  <MODEL>
8

>  <REMARK>
 VINA RESULT:      -6.2      2.889      4.165
  Name = 
  10 active torsions:
  status: ('A' for Active; 'I' for Inactive)
    1  A    between atoms: O_1  and  C_19
    2  A    between atoms: C_3  and  C_22
    3  A    between atoms: C_4  and  C_5
    4  A    between atoms: C_9  and  C_22
    5  A    between atoms: C_9  and  C_23
    6  A    between atoms: C_15  and  C_21
    7  A    between atoms: C_15  and  C_23
    8  A    between atoms: C_19  and  C_22
    9  A    between atoms: C_21  and  C_29
   10  A    between atoms: C_30  and  O_31
                            x       y       z     vdW  Elec       q    Type
                         _______ _______ _______ _____ _____    ______ ____

>  <TORSDO>
F 10

$$$$
=
 OpenBabel10272400183D

 31 33  0  0  1  0  0  0  0  0999 V2000
  184.9620  178.0720  141.9040 F   0  0  0  0  0  0  0  0  0  0  0  0
  189.3260  177.9270  140.5510 C   0  0  1  0  0  3  0  0  0  0  0  0
  188.2250  178.9910  140.3760 C   0  0  0  0  0  2  0  0  0  0  0  0
  186.2900  178.4590  141.9280 C   0  0  0  0  0  0  0  0  0  0  0  0
  186.6920  177.5270  144.0520 O   0  0  0  0  0  0  0  0  0  0  0  0
  188.1910  176.6880  142.4570 C   0  0  0  0  0  2  0  0  0  0  0  0
  189.4570  177.4590  142.0340 C   0  0  1  0  0  0  0  0  0  0  0  0
  187.0340  177.5550  142.8800 C   0  0  0  0  0  0  0  0  0  0  0  0
  186.8210  178.4050  140.4990 C   0  0  0  0  0  2  0  0  0  0  0  0
  186.3560  179.7620  142.3910 F   0  0  0  0  0  0  0  0  0  0  0  0
  189.2230  176.7880  139.4970 C   0  0  1  0  0  3  0  0  0  0  0  0
  188.9400  177.6430  137.2310 C   0  0  0  0  0  2  0  0  0  0  0  0
  188.1830  177.0930  138.4210 C   0  0  0  0  0  2  0  0  0  0  0  0
  190.2780  176.9450  137.2550 C   0  0  0  0  0  2  0  0  0  0  0  0
  190.5340  176.6280  138.7220 C   0  0  2  0  0  3  0  0  0  0  0  0
  191.5510  174.8420  137.6820 C   0  0  0  0  0  1  0  0  0  0  0  0
  191.1730  175.3830  138.9240 O   0  0  0  0  0  0  0  0  0  0  0  0
  190.4620  175.3640  142.5640 O   0  0  0  0  0  0  0  0  0  0  0  0
  190.6210  176.5160  142.1890 C   0  0  0  0  0  3  0  0  0  0  0  0
  189.7030  178.6640  142.9740 C   0  0  0  0  0  2  0  0  0  0  0  0
  190.6400  178.3490  144.1360 C   0  0  0  0  0  2  0  0  0  0  0  0
  189.9730  178.6890  145.4650 C   0  0  0  0  0  2  0  0  0  0  0  0
  189.9340  177.5140  146.4670 C   0  0  1  0  0  0  0  0  0  0  0  0
  189.4430  176.3030  145.6900 C   0  0  0  0  0  1  0  0  0  0  0  0
  191.2990  177.1040  147.0860 C   0  0  0  0  0  3  0  0  0  0  0  0
  192.0670  176.0490  146.3070 C   0  0  0  0  0  2  0  0  0  0  0  0
  191.3200  175.6620  147.5690 C   0  0  0  0  0  2  0  0  0  0  0  0
  189.3210  178.3100  148.6540 O   0  0  0  0  0  0  0  0  0  0  0  0
  188.9350  177.8060  147.5630 C   0  0  0  0  0  0  0  0  0  0  0  0
  187.5950  177.4520  147.4050 O   0  0  0  0  0  0  0  0  0  0  0  0
  186.6290  178.3790  147.4520 O   0  0  0  0  0  1  0  0  0  0  0  0
  1  4  1  0  0  0  0
  2  3  1  1  0  0  0
  2  7  1  0  0  0  0
  3  9  1  0  0  0  0
  4 10  1  0  0  0  0
  4  8  1  0  0  0  0
  6  8  1  0  0  0  0
  7 19  1  1  0  0  0
  7  6  1  0  0  0  0
  7 20  1  0  0  0  0
  8  5  2  0  0  0  0
  9  4  1  0  0  0  0
 11 13  1  6  0  0  0
 11  2  1  0  0  0  0
 12 14  1  0  0  0  0
 12 13  1  0  0  0  0
 14 15  1  0  0  0  0
 15 17  1  6  0  0  0
 15 11  1  0  0  0  0
 16 17  1  0  0  0  0
 19 18  2  0  0  0  0
 20 21  1  0  0  0  0
 21 22  1  0  0  0  0
 22 23  1  0  0  0  0
 23 24  1  6  0  0  0
 23 25  1  0  0  0  0
 23 29  1  0  0  0  0
 25 27  1  0  0  0  0
 26 25  1  0  0  0  0
 26 27  1  0  0  0  0
 29 28  2  0  0  0  0
 30 31  1  0  0  0  0
 30 29  1  0  0  0  0
M  END
>  <MODEL>
9

>  <REMARK>
 VINA RESULT:      -6.0      2.305      7.918
  Name = 
  10 active torsions:
  status: ('A' for Active; 'I' for Inactive)
    1  A    between atoms: O_1  and  C_19
    2  A    between atoms: C_3  and  C_22
    3  A    between atoms: C_4  and  C_5
    4  A    between atoms: C_9  and  C_22
    5  A    between atoms: C_9  and  C_23
    6  A    between atoms: C_15  and  C_21
    7  A    between atoms: C_15  and  C_23
    8  A    between atoms: C_19  and  C_22
    9  A    between atoms: C_21  and  C_29
   10  A    between atoms: C_30  and  O_31
                            x       y       z     vdW  Elec       q    Type
                         _______ _______ _______ _____ _____    ______ ____

>  <TORSDO>
F 10

$$$$
