=
 OpenBabel10272400433D

 25 27  0  0  1  0  0  0  0  0999 V2000
  189.2290  177.6100  141.7700 C   0  0  0  0  0  0  0  0  0  0  0  0
  187.9040  178.0010  142.0620 C   0  0  0  0  0  0  0  0  0  0  0  0
  188.8920  178.3320  139.4820 C   0  0  0  0  0  3  0  0  0  0  0  0
  187.6190  178.7000  139.7800 N   0  0  0  0  0  0  0  0  0  0  0  0
  185.7810  178.9330  141.2970 C   0  0  0  0  0  0  0  0  0  0  0  0
  184.9880  179.4790  140.2960 O   0  0  0  0  0  1  0  0  0  0  0  0
  187.3510  177.8350  143.3400 C   0  0  0  0  0  3  0  0  0  0  0  0
  189.7130  177.7840  140.4670 C   0  0  0  0  0  3  0  0  0  0  0  0
  185.2510  178.7630  142.5790 C   0  0  0  0  0  3  0  0  0  0  0  0
  186.0300  178.2130  143.5990 C   0  0  0  0  0  0  0  0  0  0  0  0
  187.1040  178.5510  141.0300 C   0  0  0  0  0  0  0  0  0  0  0  0
  190.1350  177.0450  142.7990 C   0  0  0  0  0  0  0  0  0  0  0  0
  191.7840  175.8760  144.7160 C   0  0  0  0  0  3  0  0  0  0  0  0
  190.8010  177.8540  143.7460 C   0  0  0  0  0  0  0  0  0  0  0  0
  191.6280  177.2620  144.7020 C   0  0  0  0  0  3  0  0  0  0  0  0
  191.1360  175.1080  143.8010 N   0  0  0  0  0  0  0  0  0  0  0  0
  190.6850  179.3420  143.7360 C   0  0  0  0  0  1  0  0  0  0  0  0
  190.3250  175.6570  142.8580 C   0  0  0  0  0  3  0  0  0  0  0  0
  185.4590  178.0240  144.9680 C   0  0  0  0  0  2  0  0  0  0  0  0
  186.2020  178.8070  146.0570 C   0  0  1  0  0  3  0  0  0  0  0  0
  185.3070  179.3730  146.9680 O   0  0  0  0  0  1  0  0  0  0  0  0
  188.5300  178.2540  146.2400 F   0  0  0  0  0  0  0  0  0  0  0  0
  187.2910  178.3160  148.1270 F   0  0  0  0  0  0  0  0  0  0  0  0
  187.0050  176.6510  146.6430 F   0  0  0  0  0  0  0  0  0  0  0  0
  187.2810  177.9990  146.7800 C   0  0  0  0  0  0  0  0  0  0  0  0
  1  2  1  0  0  0  0
  1 12  1  0  0  0  0
  2  7  1  0  0  0  0
  3  4  2  0  0  0  0
  3  8  1  0  0  0  0
  4 11  1  0  0  0  0
  5  9  2  0  0  0  0
  6  5  1  0  0  0  0
  7 10  2  0  0  0  0
  8  1  2  0  0  0  0
  9 10  1  0  0  0  0
 10 19  1  0  0  0  0
 11  5  1  0  0  0  0
 11  2  2  0  0  0  0
 12 18  2  0  0  0  0
 12 14  1  0  0  0  0
 14 15  2  0  0  0  0
 15 13  1  0  0  0  0
 16 13  2  0  0  0  0
 17 14  1  0  0  0  0
 18 16  1  0  0  0  0
 19 20  1  0  0  0  0
 20 25  1  0  0  0  0
 20 21  1  1  0  0  0
 22 25  1  0  0  0  0
 24 25  1  0  0  0  0
 25 23  1  0  0  0  0
M  END
>  <MODEL>
1

>  <REMARK>
 VINA RESULT:      -8.8      0.000      0.000
  Name = 
  4 active torsions:
  status: ('A' for Active; 'I' for Inactive)
    1  A    between atoms: C_1  and  C_5
    2  A    between atoms: C_6  and  C_15
    3  A    between atoms: C_6  and  C_23
    4  A    between atoms: C_15  and  C_21
                            x       y       z     vdW  Elec       q    Type
                         _______ _______ _______ _____ _____    ______ ____

>  <TORSDO>
F 4

$$$$
=
 OpenBabel10272400433D

 25 27  0  0  1  0  0  0  0  0999 V2000
  188.8090  177.3870  145.0200 C   0  0  0  0  0  0  0  0  0  0  0  0
  187.4720  177.8390  144.9540 C   0  0  0  0  0  0  0  0  0  0  0  0
  188.5720  177.1710  147.4210 C   0  0  0  0  0  3  0  0  0  0  0  0
  187.2900  177.6110  147.3400 N   0  0  0  0  0  0  0  0  0  0  0  0
  185.3970  178.4070  146.1080 C   0  0  0  0  0  0  0  0  0  0  0  0
  184.6480  178.5120  147.2740 O   0  0  0  0  0  1  0  0  0  0  0  0
  186.8780  178.2090  143.7390 C   0  0  0  0  0  3  0  0  0  0  0  0
  189.3480  177.0530  146.2680 C   0  0  0  0  0  3  0  0  0  0  0  0
  184.8220  178.7660  144.8860 C   0  0  0  0  0  3  0  0  0  0  0  0
  185.5590  178.6710  143.7030 C   0  0  0  0  0  0  0  0  0  0  0  0
  186.7220  177.9470  146.1510 C   0  0  0  0  0  0  0  0  0  0  0  0
  189.6530  177.2280  143.8110 C   0  0  0  0  0  0  0  0  0  0  0  0
  191.2090  176.8110  141.5390 C   0  0  0  0  0  3  0  0  0  0  0  0
  190.6470  178.1650  143.4540 C   0  0  0  0  0  0  0  0  0  0  0  0
  191.4220  177.9510  142.3140 C   0  0  0  0  0  3  0  0  0  0  0  0
  190.2510  175.9160  141.8930 N   0  0  0  0  0  0  0  0  0  0  0  0
  190.8760  179.4130  144.2410 C   0  0  0  0  0  1  0  0  0  0  0  0
  189.4800  176.0980  142.9980 C   0  0  0  0  0  3  0  0  0  0  0  0
  184.9450  179.0650  142.3970 C   0  0  0  0  0  2  0  0  0  0  0  0
  183.7030  178.2430  142.0320 C   0  0  1  0  0  3  0  0  0  0  0  0
  182.5470  178.8140  142.5700 O   0  0  0  0  0  1  0  0  0  0  0  0
  183.1270  176.6930  140.2940 F   0  0  0  0  0  0  0  0  0  0  0  0
  182.6170  178.8720  139.9970 F   0  0  0  0  0  0  0  0  0  0  0  0
  184.7580  178.1910  139.9050 F   0  0  0  0  0  0  0  0  0  0  0  0
  183.5410  177.9920  140.5310 C   0  0  0  0  0  0  0  0  0  0  0  0
  1  8  1  0  0  0  0
  2  1  2  0  0  0  0
  2 11  1  0  0  0  0
  4  3  1  0  0  0  0
  5 11  1  0  0  0  0
  5  6  1  0  0  0  0
  7  2  1  0  0  0  0
  8  3  2  0  0  0  0
  9  5  2  0  0  0  0
 10  7  2  0  0  0  0
 10  9  1  0  0  0  0
 11  4  2  0  0  0  0
 12  1  1  0  0  0  0
 13 16  2  0  0  0  0
 13 15  1  0  0  0  0
 14 12  1  0  0  0  0
 14 17  1  0  0  0  0
 15 14  2  0  0  0  0
 16 18  1  0  0  0  0
 18 12  2  0  0  0  0
 19 10  1  0  0  0  0
 20 19  1  0  0  0  0
 20 21  1  6  0  0  0
 22 25  1  0  0  0  0
 23 25  1  0  0  0  0
 24 25  1  0  0  0  0
 25 20  1  0  0  0  0
M  END
>  <MODEL>
2

>  <REMARK>
 VINA RESULT:      -8.3      3.274      5.010
  Name = 
  4 active torsions:
  status: ('A' for Active; 'I' for Inactive)
    1  A    between atoms: C_1  and  C_5
    2  A    between atoms: C_6  and  C_15
    3  A    between atoms: C_6  and  C_23
    4  A    between atoms: C_15  and  C_21
                            x       y       z     vdW  Elec       q    Type
                         _______ _______ _______ _____ _____    ______ ____

>  <TORSDO>
F 4

$$$$
=
 OpenBabel10272400433D

 25 27  0  0  1  0  0  0  0  0999 V2000
  187.5460  177.8420  146.1190 C   0  0  0  0  0  0  0  0  0  0  0  0
  188.8670  177.4270  145.8400 C   0  0  0  0  0  0  0  0  0  0  0  0
  188.1380  178.0090  148.4620 C   0  0  0  0  0  3  0  0  0  0  0  0
  189.4040  177.6050  148.1770 N   0  0  0  0  0  0  0  0  0  0  0  0
  191.1050  176.8880  146.6530 C   0  0  0  0  0  0  0  0  0  0  0  0
  192.0240  176.7770  147.6880 O   0  0  0  0  0  1  0  0  0  0  0  0
  189.2790  177.1010  144.5400 C   0  0  0  0  0  3  0  0  0  0  0  0
  187.1940  178.1330  147.4430 C   0  0  0  0  0  3  0  0  0  0  0  0
  191.4970  176.5720  145.3490 C   0  0  0  0  0  3  0  0  0  0  0  0
  190.5870  176.6740  144.2940 C   0  0  0  0  0  0  0  0  0  0  0  0
  189.7920  177.3120  146.9070 C   0  0  0  0  0  0  0  0  0  0  0  0
  186.5250  178.0060  145.0560 C   0  0  0  0  0  0  0  0  0  0  0  0
  184.6980  178.3260  142.9780 C   0  0  0  0  0  3  0  0  0  0  0  0
  185.1900  178.3660  145.3390 C   0  0  0  0  0  0  0  0  0  0  0  0
  184.2790  178.5230  144.2930 C   0  0  0  0  0  3  0  0  0  0  0  0
  185.9860  177.9810  142.7180 N   0  0  0  0  0  0  0  0  0  0  0  0
  184.6990  178.5490  146.7370 C   0  0  0  0  0  1  0  0  0  0  0  0
  186.8950  177.8210  143.7160 C   0  0  0  0  0  3  0  0  0  0  0  0
  191.0040  176.3270  142.9000 C   0  0  0  0  0  2  0  0  0  0  0  0
  190.9570  177.5160  141.9320 C   0  0  1  0  0  3  0  0  0  0  0  0
  192.0900  177.5440  141.1150 O   0  0  0  0  0  1  0  0  0  0  0  0
  188.9560  178.7290  141.4000 F   0  0  0  0  0  0  0  0  0  0  0  0
  189.9890  177.5890  139.7470 F   0  0  0  0  0  0  0  0  0  0  0  0
  188.8950  176.4810  141.3690 F   0  0  0  0  0  0  0  0  0  0  0  0
  189.6770  177.5880  141.0950 C   0  0  0  0  0  0  0  0  0  0  0  0
  1  8  1  0  0  0  0
  2  1  2  0  0  0  0
  2 11  1  0  0  0  0
  4  3  1  0  0  0  0
  5 11  1  0  0  0  0
  5  6  1  0  0  0  0
  7  2  1  0  0  0  0
  8  3  2  0  0  0  0
  9  5  2  0  0  0  0
 10  7  2  0  0  0  0
 10  9  1  0  0  0  0
 11  4  2  0  0  0  0
 12 14  1  0  0  0  0
 12  1  1  0  0  0  0
 13 15  1  0  0  0  0
 14 17  1  0  0  0  0
 15 14  2  0  0  0  0
 16 13  2  0  0  0  0
 16 18  1  0  0  0  0
 18 12  2  0  0  0  0
 19 10  1  0  0  0  0
 20 21  1  6  0  0  0
 20 19  1  0  0  0  0
 23 25  1  0  0  0  0
 25 24  1  0  0  0  0
 25 22  1  0  0  0  0
 25 20  1  0  0  0  0
M  END
>  <MODEL>
3

>  <REMARK>
 VINA RESULT:      -8.2      3.396      6.773
  Name = 
  4 active torsions:
  status: ('A' for Active; 'I' for Inactive)
    1  A    between atoms: C_1  and  C_5
    2  A    between atoms: C_6  and  C_15
    3  A    between atoms: C_6  and  C_23
    4  A    between atoms: C_15  and  C_21
                            x       y       z     vdW  Elec       q    Type
                         _______ _______ _______ _____ _____    ______ ____

>  <TORSDO>
F 4

$$$$
=
 OpenBabel10272400433D

 25 27  0  0  1  0  0  0  0  0999 V2000
  188.1060  177.4900  144.7490 C   0  0  0  0  0  0  0  0  0  0  0  0
  186.9330  177.9700  144.1260 C   0  0  0  0  0  0  0  0  0  0  0  0
  187.0160  177.7340  146.8980 C   0  0  0  0  0  3  0  0  0  0  0  0
  185.8960  178.1970  146.2840 N   0  0  0  0  0  0  0  0  0  0  0  0
  184.6520  178.8170  144.3340 C   0  0  0  0  0  0  0  0  0  0  0  0
  183.5540  179.1630  145.1120 O   0  0  0  0  0  1  0  0  0  0  0  0
  186.8470  178.1280  142.7360 C   0  0  0  0  0  3  0  0  0  0  0  0
  188.1330  177.3750  146.1440 C   0  0  0  0  0  3  0  0  0  0  0  0
  184.5860  178.9630  142.9460 C   0  0  0  0  0  3  0  0  0  0  0  0
  185.6800  178.6230  142.1470 C   0  0  0  0  0  0  0  0  0  0  0  0
  185.8230  178.3250  144.9320 C   0  0  0  0  0  0  0  0  0  0  0  0
  189.3030  177.0790  143.9750 C   0  0  0  0  0  0  0  0  0  0  0  0
  191.5110  176.1910  142.5280 C   0  0  0  0  0  3  0  0  0  0  0  0
  190.4490  177.8960  143.8640 C   0  0  0  0  0  0  0  0  0  0  0  0
  191.5510  177.4460  143.1360 C   0  0  0  0  0  3  0  0  0  0  0  0
  190.4030  175.4130  142.6440 N   0  0  0  0  0  0  0  0  0  0  0  0
  190.5110  179.2580  144.4710 C   0  0  0  0  0  1  0  0  0  0  0  0
  189.3150  175.8250  143.3460 C   0  0  0  0  0  3  0  0  0  0  0  0
  185.6110  178.7880  140.6620 C   0  0  0  0  0  2  0  0  0  0  0  0
  184.2140  179.1630  140.1510 C   0  0  1  0  0  3  0  0  0  0  0  0
  184.2810  180.2110  139.2290 O   0  0  0  0  0  1  0  0  0  0  0  0
  184.1410  177.3410  138.5920 F   0  0  0  0  0  0  0  0  0  0  0  0
  183.1190  177.0840  140.5900 F   0  0  0  0  0  0  0  0  0  0  0  0
  182.2390  178.4550  139.0400 F   0  0  0  0  0  0  0  0  0  0  0  0
  183.4200  177.9850  139.5830 C   0  0  0  0  0  0  0  0  0  0  0  0
  1  8  1  0  0  0  0
  2  1  2  0  0  0  0
  2 11  1  0  0  0  0
  4  3  1  0  0  0  0
  5 11  1  0  0  0  0
  5  6  1  0  0  0  0
  7  2  1  0  0  0  0
  8  3  2  0  0  0  0
  9  5  2  0  0  0  0
 10  7  2  0  0  0  0
 10  9  1  0  0  0  0
 11  4  2  0  0  0  0
 12  1  1  0  0  0  0
 13 16  2  0  0  0  0
 13 15  1  0  0  0  0
 14 12  1  0  0  0  0
 14 17  1  0  0  0  0
 15 14  2  0  0  0  0
 16 18  1  0  0  0  0
 18 12  2  0  0  0  0
 19 10  1  0  0  0  0
 20 21  1  6  0  0  0
 20 19  1  0  0  0  0
 22 25  1  0  0  0  0
 24 25  1  0  0  0  0
 25 20  1  0  0  0  0
 25 23  1  0  0  0  0
M  END
>  <MODEL>
4

>  <REMARK>
 VINA RESULT:      -8.0      3.421      5.096
  Name = 
  4 active torsions:
  status: ('A' for Active; 'I' for Inactive)
    1  A    between atoms: C_1  and  C_5
    2  A    between atoms: C_6  and  C_15
    3  A    between atoms: C_6  and  C_23
    4  A    between atoms: C_15  and  C_21
                            x       y       z     vdW  Elec       q    Type
                         _______ _______ _______ _____ _____    ______ ____

>  <TORSDO>
F 4

$$$$
=
 OpenBabel10272400433D

 25 27  0  0  1  0  0  0  0  0999 V2000
  187.3530  177.6160  143.2490 C   0  0  0  0  0  0  0  0  0  0  0  0
  187.4330  177.7630  144.6520 C   0  0  0  0  0  0  0  0  0  0  0  0
  185.0430  178.3410  143.3480 C   0  0  0  0  0  3  0  0  0  0  0  0
  185.1370  178.4740  144.6970 N   0  0  0  0  0  0  0  0  0  0  0  0
  186.3440  178.3380  146.7600 C   0  0  0  0  0  0  0  0  0  0  0  0
  185.2320  178.7700  147.4710 O   0  0  0  0  0  1  0  0  0  0  0  0
  188.6060  177.4640  145.3580 C   0  0  0  0  0  3  0  0  0  0  0  0
  186.1440  177.9130  142.6070 C   0  0  0  0  0  3  0  0  0  0  0  0
  187.5250  178.0380  147.4450 C   0  0  0  0  0  3  0  0  0  0  0  0
  188.6540  177.5990  146.7490 C   0  0  0  0  0  0  0  0  0  0  0  0
  186.2890  178.1990  145.3650 C   0  0  0  0  0  0  0  0  0  0  0  0
  188.5110  177.1850  142.4290 C   0  0  0  0  0  0  0  0  0  0  0  0
  190.7360  176.3260  140.9900 C   0  0  0  0  0  3  0  0  0  0  0  0
  188.7990  177.7530  141.1690 C   0  0  0  0  0  0  0  0  0  0  0  0
  189.9140  177.3170  140.4520 C   0  0  0  0  0  3  0  0  0  0  0  0
  190.4490  175.7890  142.2040 N   0  0  0  0  0  0  0  0  0  0  0  0
  187.9210  178.7880  140.5490 C   0  0  0  0  0  1  0  0  0  0  0  0
  189.3700  176.1930  142.9250 C   0  0  0  0  0  3  0  0  0  0  0  0
  189.9140  177.2710  147.4840 C   0  0  0  0  0  2  0  0  0  0  0  0
  191.0000  176.6550  146.5940 C   0  0  1  0  0  3  0  0  0  0  0  0
  191.7630  177.6470  145.9720 O   0  0  0  0  0  1  0  0  0  0  0  0
  192.6760  176.2750  148.2690 F   0  0  0  0  0  0  0  0  0  0  0  0
  191.1260  174.6690  147.9200 F   0  0  0  0  0  0  0  0  0  0  0  0
  192.7310  175.0410  146.3890 F   0  0  0  0  0  0  0  0  0  0  0  0
  191.8980  175.6450  147.3130 C   0  0  0  0  0  0  0  0  0  0  0  0
  1  2  1  0  0  0  0
  2  7  2  0  0  0  0
  2 11  1  0  0  0  0
  3  4  2  0  0  0  0
  4 11  1  0  0  0  0
  5  9  1  0  0  0  0
  5  6  1  0  0  0  0
  7 10  1  0  0  0  0
  8  1  2  0  0  0  0
  8  3  1  0  0  0  0
 10  9  2  0  0  0  0
 10 19  1  0  0  0  0
 11  5  2  0  0  0  0
 12 18  1  0  0  0  0
 12  1  1  0  0  0  0
 13 16  1  0  0  0  0
 14 12  2  0  0  0  0
 15 13  2  0  0  0  0
 15 14  1  0  0  0  0
 16 18  2  0  0  0  0
 17 14  1  0  0  0  0
 20 21  1  1  0  0  0
 20 25  1  0  0  0  0
 20 19  1  0  0  0  0
 24 25  1  0  0  0  0
 25 23  1  0  0  0  0
 25 22  1  0  0  0  0
M  END
>  <MODEL>
5

>  <REMARK>
 VINA RESULT:      -7.9      2.788      4.619
  Name = 
  4 active torsions:
  status: ('A' for Active; 'I' for Inactive)
    1  A    between atoms: C_1  and  C_5
    2  A    between atoms: C_6  and  C_15
    3  A    between atoms: C_6  and  C_23
    4  A    between atoms: C_15  and  C_21
                            x       y       z     vdW  Elec       q    Type
                         _______ _______ _______ _____ _____    ______ ____

>  <TORSDO>
F 4

$$$$
=
 OpenBabel10272400433D

 25 27  0  0  1  0  0  0  0  0999 V2000
  184.8450  178.6030  143.2050 C   0  0  0  0  0  0  0  0  0  0  0  0
  185.9250  178.1840  144.0140 C   0  0  0  0  0  0  0  0  0  0  0  0
  183.6120  179.1630  145.2130 C   0  0  0  0  0  3  0  0  0  0  0  0
  184.6580  178.7530  145.9770 N   0  0  0  0  0  0  0  0  0  0  0  0
  186.8580  177.8460  146.2440 C   0  0  0  0  0  0  0  0  0  0  0  0
  186.7530  177.9290  147.6270 O   0  0  0  0  0  1  0  0  0  0  0  0
  187.1020  177.6630  143.4600 C   0  0  0  0  0  3  0  0  0  0  0  0
  183.6880  179.0950  143.8220 C   0  0  0  0  0  3  0  0  0  0  0  0
  188.0250  177.3340  145.6720 C   0  0  0  0  0  3  0  0  0  0  0  0
  188.1490  177.2380  144.2840 C   0  0  0  0  0  0  0  0  0  0  0  0
  185.8020  178.2690  145.4230 C   0  0  0  0  0  0  0  0  0  0  0  0
  184.9030  178.5640  141.7230 C   0  0  0  0  0  0  0  0  0  0  0  0
  185.1170  178.5530  138.9460 C   0  0  0  0  0  3  0  0  0  0  0  0
  183.7610  178.3270  140.9280 C   0  0  0  0  0  0  0  0  0  0  0  0
  183.8750  178.3200  139.5370 C   0  0  0  0  0  3  0  0  0  0  0  0
  186.2090  178.7820  139.7220 N   0  0  0  0  0  0  0  0  0  0  0  0
  182.4250  178.0380  141.5280 C   0  0  0  0  0  1  0  0  0  0  0  0
  186.1270  178.7940  141.0790 C   0  0  0  0  0  3  0  0  0  0  0  0
  189.3950  176.6820  143.6730 C   0  0  0  0  0  2  0  0  0  0  0  0
  190.6810  177.1680  144.3520 C   0  0  1  0  0  3  0  0  0  0  0  0
  191.6050  176.1280  144.4820 O   0  0  0  0  0  1  0  0  0  0  0  0
  191.8230  178.0510  142.4360 F   0  0  0  0  0  0  0  0  0  0  0  0
  190.3850  179.3970  143.5410 F   0  0  0  0  0  0  0  0  0  0  0  0
  192.3570  178.8470  144.4710 F   0  0  0  0  0  0  0  0  0  0  0  0
  191.3190  178.3860  143.6810 C   0  0  0  0  0  0  0  0  0  0  0  0
  1  8  2  0  0  0  0
  1  2  1  0  0  0  0
  2 11  1  0  0  0  0
  3  4  2  0  0  0  0
  5  6  1  0  0  0  0
  7  2  2  0  0  0  0
  7 10  1  0  0  0  0
  8  3  1  0  0  0  0
  9  5  1  0  0  0  0
 10  9  2  0  0  0  0
 11  4  1  0  0  0  0
 11  5  2  0  0  0  0
 12  1  1  0  0  0  0
 13 15  2  0  0  0  0
 13 16  1  0  0  0  0
 14 17  1  0  0  0  0
 14 12  2  0  0  0  0
 15 14  1  0  0  0  0
 16 18  2  0  0  0  0
 18 12  1  0  0  0  0
 19 10  1  0  0  0  0
 19 20  1  0  0  0  0
 20 21  1  6  0  0  0
 22 25  1  0  0  0  0
 23 25  1  0  0  0  0
 25 20  1  0  0  0  0
 25 24  1  0  0  0  0
M  END
>  <MODEL>
6

>  <REMARK>
 VINA RESULT:      -7.7      3.070      6.210
  Name = 
  4 active torsions:
  status: ('A' for Active; 'I' for Inactive)
    1  A    between atoms: C_1  and  C_5
    2  A    between atoms: C_6  and  C_15
    3  A    between atoms: C_6  and  C_23
    4  A    between atoms: C_15  and  C_21
                            x       y       z     vdW  Elec       q    Type
                         _______ _______ _______ _____ _____    ______ ____

>  <TORSDO>
F 4

$$$$
=
 OpenBabel10272400433D

 25 27  0  0  1  0  0  0  0  0999 V2000
  189.6060  177.9770  143.0370 C   0  0  0  0  0  0  0  0  0  0  0  0
  189.0170  177.7360  144.2980 C   0  0  0  0  0  0  0  0  0  0  0  0
  191.7810  177.9900  144.1030 C   0  0  0  0  0  3  0  0  0  0  0  0
  191.1980  177.7610  145.3080 N   0  0  0  0  0  0  0  0  0  0  0  0
  189.2840  177.4060  146.7020 C   0  0  0  0  0  0  0  0  0  0  0  0
  190.0910  177.2970  147.8280 O   0  0  0  0  0  1  0  0  0  0  0  0
  187.6280  177.6220  144.4540 C   0  0  0  0  0  3  0  0  0  0  0  0
  190.9980  178.1020  142.9540 C   0  0  0  0  0  3  0  0  0  0  0  0
  187.8980  177.2910  146.8350 C   0  0  0  0  0  3  0  0  0  0  0  0
  187.0690  177.4010  145.7160 C   0  0  0  0  0  0  0  0  0  0  0  0
  189.8510  177.6330  145.4390 C   0  0  0  0  0  0  0  0  0  0  0  0
  188.8040  178.0790  141.7940 C   0  0  0  0  0  0  0  0  0  0  0  0
  187.1990  178.2890  139.5270 C   0  0  0  0  0  3  0  0  0  0  0  0
  189.2500  177.5540  140.5610 C   0  0  0  0  0  0  0  0  0  0  0  0
  188.4420  177.6640  139.4290 C   0  0  0  0  0  3  0  0  0  0  0  0
  186.7790  178.7880  140.7190 N   0  0  0  0  0  0  0  0  0  0  0  0
  190.5890  176.9110  140.4140 C   0  0  0  0  0  1  0  0  0  0  0  0
  187.5450  178.6960  141.8380 C   0  0  0  0  0  3  0  0  0  0  0  0
  185.5850  177.2870  145.8610 C   0  0  0  0  0  2  0  0  0  0  0  0
  184.8630  178.6400  145.8650 C   0  0  1  0  0  3  0  0  0  0  0  0
  185.6870  179.6470  146.3740 O   0  0  0  0  0  1  0  0  0  0  0  0
  184.8580  180.2160  144.0560 F   0  0  0  0  0  0  0  0  0  0  0  0
  184.5020  178.0380  143.5800 F   0  0  0  0  0  0  0  0  0  0  0  0
  182.9200  179.2350  144.6380 F   0  0  0  0  0  0  0  0  0  0  0  0
  184.2830  179.0410  144.5070 C   0  0  0  0  0  0  0  0  0  0  0  0
  1  2  1  0  0  0  0
  2  7  2  0  0  0  0
  2 11  1  0  0  0  0
  3  4  2  0  0  0  0
  4 11  1  0  0  0  0
  5  9  1  0  0  0  0
  5  6  1  0  0  0  0
  7 10  1  0  0  0  0
  8  1  2  0  0  0  0
  8  3  1  0  0  0  0
 10 19  1  0  0  0  0
 10  9  2  0  0  0  0
 11  5  2  0  0  0  0
 12 18  1  0  0  0  0
 12  1  1  0  0  0  0
 13 16  1  0  0  0  0
 14 12  2  0  0  0  0
 15 13  2  0  0  0  0
 15 14  1  0  0  0  0
 16 18  2  0  0  0  0
 17 14  1  0  0  0  0
 19 20  1  0  0  0  0
 20 21  1  6  0  0  0
 22 25  1  0  0  0  0
 23 25  1  0  0  0  0
 25 24  1  0  0  0  0
 25 20  1  0  0  0  0
M  END
>  <MODEL>
7

>  <REMARK>
 VINA RESULT:      -7.6      2.455      4.761
  Name = 
  4 active torsions:
  status: ('A' for Active; 'I' for Inactive)
    1  A    between atoms: C_1  and  C_5
    2  A    between atoms: C_6  and  C_15
    3  A    between atoms: C_6  and  C_23
    4  A    between atoms: C_15  and  C_21
                            x       y       z     vdW  Elec       q    Type
                         _______ _______ _______ _____ _____    ______ ____

>  <TORSDO>
F 4

$$$$
=
 OpenBabel10272400433D

 25 27  0  0  1  0  0  0  0  0999 V2000
  185.7410  178.5590  144.3400 C   0  0  0  0  0  0  0  0  0  0  0  0
  186.9980  177.9540  144.5650 C   0  0  0  0  0  0  0  0  0  0  0  0
  185.5260  178.9000  146.7290 C   0  0  0  0  0  3  0  0  0  0  0  0
  186.7350  178.3120  146.9270 N   0  0  0  0  0  0  0  0  0  0  0  0
  188.7190  177.2290  146.1370 C   0  0  0  0  0  0  0  0  0  0  0  0
  189.2060  177.1150  147.4330 O   0  0  0  0  0  1  0  0  0  0  0  0
  187.7680  177.4410  143.5120 C   0  0  0  0  0  3  0  0  0  0  0  0
  185.0130  179.0310  145.4390 C   0  0  0  0  0  3  0  0  0  0  0  0
  189.4730  176.7290  145.0720 C   0  0  0  0  0  3  0  0  0  0  0  0
  189.0000  176.8300  143.7620 C   0  0  0  0  0  0  0  0  0  0  0  0
  187.4790  177.8390  145.8920 C   0  0  0  0  0  0  0  0  0  0  0  0
  185.1770  178.7350  142.9800 C   0  0  0  0  0  0  0  0  0  0  0  0
  184.2230  179.1150  140.3910 C   0  0  0  0  0  3  0  0  0  0  0  0
  183.7880  178.7060  142.7280 C   0  0  0  0  0  0  0  0  0  0  0  0
  183.3170  178.8960  141.4280 C   0  0  0  0  0  3  0  0  0  0  0  0
  185.5570  179.1430  140.6460 N   0  0  0  0  0  0  0  0  0  0  0  0
  182.7930  178.4370  143.8080 C   0  0  0  0  0  1  0  0  0  0  0  0
  186.0450  178.9610  141.9020 C   0  0  0  0  0  3  0  0  0  0  0  0
  189.8040  176.2870  142.6240 C   0  0  0  0  0  2  0  0  0  0  0  0
  190.3190  177.3670  141.6660 C   0  0  1  0  0  3  0  0  0  0  0  0
  191.7140  177.4450  141.6990 O   0  0  0  0  0  1  0  0  0  0  0  0
  190.1380  178.3360  139.4780 F   0  0  0  0  0  0  0  0  0  0  0  0
  190.3690  176.0960  139.6420 F   0  0  0  0  0  0  0  0  0  0  0  0
  188.4390  177.0780  140.2460 F   0  0  0  0  0  0  0  0  0  0  0  0
  189.8140  177.2200  140.2290 C   0  0  0  0  0  0  0  0  0  0  0  0
  1  2  2  0  0  0  0
  1  8  1  0  0  0  0
  2 11  1  0  0  0  0
  3  4  1  0  0  0  0
  5  6  1  0  0  0  0
  7 10  2  0  0  0  0
  7  2  1  0  0  0  0
  8  3  2  0  0  0  0
  9  5  2  0  0  0  0
 10  9  1  0  0  0  0
 11  5  1  0  0  0  0
 11  4  2  0  0  0  0
 12  1  1  0  0  0  0
 13 16  2  0  0  0  0
 13 15  1  0  0  0  0
 14 12  1  0  0  0  0
 14 17  1  0  0  0  0
 15 14  2  0  0  0  0
 16 18  1  0  0  0  0
 18 12  2  0  0  0  0
 19 10  1  0  0  0  0
 20 21  1  6  0  0  0
 20 19  1  0  0  0  0
 22 25  1  0  0  0  0
 23 25  1  0  0  0  0
 25 24  1  0  0  0  0
 25 20  1  0  0  0  0
M  END
>  <MODEL>
8

>  <REMARK>
 VINA RESULT:      -7.6      3.466      6.717
  Name = 
  4 active torsions:
  status: ('A' for Active; 'I' for Inactive)
    1  A    between atoms: C_1  and  C_5
    2  A    between atoms: C_6  and  C_15
    3  A    between atoms: C_6  and  C_23
    4  A    between atoms: C_15  and  C_21
                            x       y       z     vdW  Elec       q    Type
                         _______ _______ _______ _____ _____    ______ ____

>  <TORSDO>
F 4

$$$$
=
 OpenBabel10272400433D

 25 27  0  0  1  0  0  0  0  0999 V2000
  190.2890  177.1340  138.3380 C   0  0  0  0  0  0  0  0  0  0  0  0
  189.7130  177.2660  139.6210 C   0  0  0  0  0  0  0  0  0  0  0  0
  188.6270  178.6740  137.4810 C   0  0  0  0  0  3  0  0  0  0  0  0
  188.0840  178.7870  138.7210 N   0  0  0  0  0  0  0  0  0  0  0  0
  187.9950  178.2470  141.0520 C   0  0  0  0  0  0  0  0  0  0  0  0
  186.8970  179.0780  141.2300 O   0  0  0  0  0  1  0  0  0  0  0  0
  190.2080  176.5620  140.7280 C   0  0  0  0  0  3  0  0  0  0  0  0
  189.7320  177.8490  137.2710 C   0  0  0  0  0  3  0  0  0  0  0  0
  188.5070  177.5400  142.1430 C   0  0  0  0  0  3  0  0  0  0  0  0
  189.6090  176.6960  141.9830 C   0  0  0  0  0  0  0  0  0  0  0  0
  188.5900  178.1130  139.7880 C   0  0  0  0  0  0  0  0  0  0  0  0
  191.4770  176.2830  138.0860 C   0  0  0  0  0  0  0  0  0  0  0  0
  193.7780  174.7870  137.6110 C   0  0  0  0  0  3  0  0  0  0  0  0
  191.3730  174.9690  137.5800 C   0  0  0  0  0  0  0  0  0  0  0  0
  192.5300  174.2240  137.3460 C   0  0  0  0  0  3  0  0  0  0  0  0
  193.8650  176.0530  138.0960 N   0  0  0  0  0  0  0  0  0  0  0  0
  190.0520  174.3240  137.3190 C   0  0  0  0  0  1  0  0  0  0  0  0
  192.7560  176.8020  138.3330 C   0  0  0  0  0  3  0  0  0  0  0  0
  190.1510  175.9320  143.1500 C   0  0  0  0  0  2  0  0  0  0  0  0
  191.0470  176.7710  144.0690 C   0  0  1  0  0  3  0  0  0  0  0  0
  191.7700  177.7180  143.3380 O   0  0  0  0  0  1  0  0  0  0  0  0
  191.0190  177.2900  146.4110 F   0  0  0  0  0  0  0  0  0  0  0  0
  190.1060  178.7740  144.9730 F   0  0  0  0  0  0  0  0  0  0  0  0
  189.0720  176.8200  145.3860 F   0  0  0  0  0  0  0  0  0  0  0  0
  190.3050  177.4290  145.2330 C   0  0  0  0  0  0  0  0  0  0  0  0
  1  2  1  0  0  0  0
  2 11  2  0  0  0  0
  2  7  1  0  0  0  0
  3  4  2  0  0  0  0
  4 11  1  0  0  0  0
  5  6  1  0  0  0  0
  5  9  2  0  0  0  0
  7 10  2  0  0  0  0
  8  3  1  0  0  0  0
  8  1  2  0  0  0  0
 10  9  1  0  0  0  0
 10 19  1  0  0  0  0
 11  5  1  0  0  0  0
 12 18  1  0  0  0  0
 12  1  1  0  0  0  0
 13 16  1  0  0  0  0
 14 12  2  0  0  0  0
 15 14  1  0  0  0  0
 15 13  2  0  0  0  0
 16 18  2  0  0  0  0
 17 14  1  0  0  0  0
 19 20  1  0  0  0  0
 20 21  1  6  0  0  0
 20 25  1  0  0  0  0
 23 25  1  0  0  0  0
 25 24  1  0  0  0  0
 25 22  1  0  0  0  0
M  END
>  <MODEL>
9

>  <REMARK>
 VINA RESULT:      -7.6      3.308      4.848
  Name = 
  4 active torsions:
  status: ('A' for Active; 'I' for Inactive)
    1  A    between atoms: C_1  and  C_5
    2  A    between atoms: C_6  and  C_15
    3  A    between atoms: C_6  and  C_23
    4  A    between atoms: C_15  and  C_21
                            x       y       z     vdW  Elec       q    Type
                         _______ _______ _______ _____ _____    ______ ____

>  <TORSDO>
F 4

$$$$
