=
 OpenBabel10272413163D

 32 34  0  0  1  0  0  0  0  0999 V2000
  189.2270  177.3450  138.6990 C   0  0  1  0  0  3  0  0  0  0  0  0
  188.7830  176.3080  141.4090 O   0  0  0  0  0  1  0  0  0  0  0  0
  188.6420  178.0980  139.8230 C   0  0  1  0  0  3  0  0  0  0  0  0
  188.8300  178.0730  137.4180 C   0  0  2  0  0  3  0  0  0  0  0  0
  190.6750  177.3320  139.1180 C   0  0  1  0  0  3  0  0  0  0  0  0
  187.2770  178.1840  137.3450 C   0  0  0  0  0  0  0  0  0  0  0  0
  187.1170  178.0390  139.6850 C   0  0  2  0  0  3  0  0  0  0  0  0
  186.7480  178.7770  138.5280 O   0  0  0  0  0  0  0  0  0  0  0  0
  190.7020  177.2260  140.5320 O   0  0  0  0  0  0  0  0  0  0  0  0
  186.9430  178.9950  136.2610 O   0  0  0  0  0  1  0  0  0  0  0  0
  189.3900  177.4990  140.9950 C   0  0  2  0  0  0  0  0  0  0  0  0
  186.6900  176.9270  137.1560 O   0  0  0  0  0  1  0  0  0  0  0  0
  190.9450  175.0570  138.5880 O   0  0  0  0  0  0  0  0  0  0  0  0
  191.4120  176.1810  138.5050 C   0  0  0  0  0  0  0  0  0  0  0  0
  192.7240  176.3930  137.8150 C   0  0  0  0  0  2  0  0  0  0  0  0
  193.7760  176.6180  138.7930 N   0  0  0  0  0  2  0  0  0  0  0  0
  194.6640  175.6040  138.6600 O   0  0  0  0  0  1  0  0  0  0  0  0
  189.0440  176.2880  135.9700 C   0  0  0  0  0  1  0  0  0  0  0  0
  189.4520  177.6050  136.2350 O   0  0  0  0  0  0  0  0  0  0  0  0
  186.4270  178.6620  140.8880 C   0  0  0  0  0  2  0  0  0  0  0  0
  185.3690  179.4670  140.4690 O   0  0  0  0  0  1  0  0  0  0  0  0
  189.4380  178.5090  142.1430 C   0  0  0  0  0  2  0  0  0  0  0  0
  189.3020  176.4700  147.4590 F   0  0  0  0  0  0  0  0  0  0  0  0
  188.2330  177.1350  145.5040 C   0  0  0  0  0  3  0  0  0  0  0  0
  189.4440  177.8690  143.5040 C   0  0  0  0  0  0  0  0  0  0  0  0
  190.6560  177.5270  145.6780 C   0  0  0  0  0  2  0  0  0  0  0  0
  188.2780  177.6970  144.1450 C   0  0  0  0  0  3  0  0  0  0  0  0
  190.7540  177.4170  144.1360 C   0  0  1  0  0  0  0  0  0  0  0  0
  190.9730  175.9520  143.7400 C   0  0  0  0  0  1  0  0  0  0  0  0
  189.3540  176.9970  146.2130 C   0  0  0  0  0  0  0  0  0  0  0  0
  191.8130  179.4760  144.3130 C   0  0  0  0  0  1  0  0  0  0  0  0
  191.7980  178.2410  143.6380 O   0  0  0  0  0  0  0  0  0  0  0  0
  1  5  1  0  0  0  0
  1  3  1  0  0  0  0
  3 11  1  0  0  0  0
  4  1  1  0  0  0  0
  5  9  1  0  0  0  0
  6  4  1  0  0  0  0
  6  8  1  0  0  0  0
  7  3  1  0  0  0  0
  7 20  1  0  0  0  0
  8  7  1  0  0  0  0
  9 11  1  0  0  0  0
 10  6  1  0  0  0  0
 11  2  1  0  0  0  0
 11 22  1  0  0  0  0
 12  6  1  0  0  0  0
 14 13  2  0  0  0  0
 14  5  1  0  0  0  0
 15 14  1  0  0  0  0
 15 16  1  0  0  0  0
 17 16  1  0  0  0  0
 18 19  1  0  0  0  0
 19  4  1  0  0  0  0
 21 20  1  0  0  0  0
 22 25  1  0  0  0  0
 24 30  2  0  0  0  0
 25 28  1  0  0  0  0
 25 27  2  0  0  0  0
 26 30  1  0  0  0  0
 27 24  1  0  0  0  0
 28 26  1  0  0  0  0
 29 28  1  0  0  0  0
 30 23  1  0  0  0  0
 32 28  1  0  0  0  0
 32 31  1  0  0  0  0
M  END
>  <MODEL>
1

>  <REMARK>
 VINA RESULT:      -7.6      0.000      0.000
  Name = 
  8 active torsions:
  status: ('A' for Active; 'I' for Inactive)
    1  A    between atoms: C_1  and  C_16
    2  A    between atoms: C_1  and  C_27
    3  A    between atoms: C_6  and  O_17
    4  A    between atoms: O_8  and  C_22
    5  A    between atoms: N_9  and  C_32
    6  A    between atoms: C_10  and  C_28
    7  A    between atoms: C_14  and  C_21
    8  A    between atoms: C_28  and  C_32
                            x       y       z     vdW  Elec       q    Type
                         _______ _______ _______ _____ _____    ______ ____

>  <TORSDO>
F 8

$$$$
=
 OpenBabel10272413163D

 32 34  0  0  1  0  0  0  0  0999 V2000
  187.6060  178.3740  140.0380 C   0  0  1  0  0  3  0  0  0  0  0  0
  189.2970  178.9610  142.3640 O   0  0  0  0  0  1  0  0  0  0  0  0
  188.7470  177.5640  140.4980 C   0  0  1  0  0  3  0  0  0  0  0  0
  187.3430  177.9920  138.5840 C   0  0  2  0  0  3  0  0  0  0  0  0
  186.5870  178.0120  141.0880 C   0  0  1  0  0  3  0  0  0  0  0  0
  188.6380  178.2190  137.7470 C   0  0  0  0  0  0  0  0  0  0  0  0
  189.9710  177.9590  139.6650 C   0  0  2  0  0  3  0  0  0  0  0  0
  189.7490  177.5390  138.3250 O   0  0  0  0  0  0  0  0  0  0  0  0
  187.2850  177.8470  142.3110 O   0  0  0  0  0  0  0  0  0  0  0  0
  188.4300  177.7080  136.4660 O   0  0  0  0  0  1  0  0  0  0  0  0
  188.6660  177.7680  141.9950 C   0  0  2  0  0  0  0  0  0  0  0  0
  188.9360  179.5820  137.6380 O   0  0  0  0  0  1  0  0  0  0  0  0
  185.1070  179.6290  140.2380 O   0  0  0  0  0  0  0  0  0  0  0  0
  185.5470  179.0790  141.2340 C   0  0  0  0  0  0  0  0  0  0  0  0
  185.0600  179.4930  142.5890 C   0  0  0  0  0  2  0  0  0  0  0  0
  184.1090  178.5190  143.1000 N   0  0  0  0  0  2  0  0  0  0  0  0
  184.3830  178.3520  144.4170 O   0  0  0  0  0  1  0  0  0  0  0  0
  185.3150  177.4950  137.5990 C   0  0  0  0  0  1  0  0  0  0  0  0
  186.1630  178.5330  138.0180 O   0  0  0  0  0  0  0  0  0  0  0  0
  191.2320  177.2800  140.1750 C   0  0  0  0  0  2  0  0  0  0  0  0
  191.9920  176.8150  139.1020 O   0  0  0  0  0  1  0  0  0  0  0  0
  189.3020  176.5760  142.7130 C   0  0  0  0  0  2  0  0  0  0  0  0
  189.8940  177.8310  148.2360 F   0  0  0  0  0  0  0  0  0  0  0  0
  188.6130  177.0980  146.4390 C   0  0  0  0  0  3  0  0  0  0  0  0
  189.5220  176.8090  144.1820 C   0  0  0  0  0  0  0  0  0  0  0  0
  190.8720  177.9520  145.9660 C   0  0  0  0  0  2  0  0  0  0  0  0
  188.4620  176.8120  145.0030 C   0  0  0  0  0  3  0  0  0  0  0  0
  190.9280  177.0270  144.7240 C   0  0  1  0  0  0  0  0  0  0  0  0
  191.4820  175.6570  145.1300 C   0  0  0  0  0  1  0  0  0  0  0  0
  189.7630  177.5810  146.9110 C   0  0  0  0  0  0  0  0  0  0  0  0
  191.9830  178.9620  143.9920 C   0  0  0  0  0  1  0  0  0  0  0  0
  191.7170  177.6110  143.6980 O   0  0  0  0  0  0  0  0  0  0  0  0
  1  3  1  0  0  0  0
  1  5  1  0  0  0  0
  3 11  1  0  0  0  0
  4  1  1  0  0  0  0
  5 14  1  0  0  0  0
  5  9  1  0  0  0  0
  6  8  1  0  0  0  0
  6  4  1  0  0  0  0
  7 20  1  0  0  0  0
  7  3  1  0  0  0  0
  8  7  1  0  0  0  0
 10  6  1  0  0  0  0
 11  9  1  0  0  0  0
 11  2  1  0  0  0  0
 11 22  1  0  0  0  0
 12  6  1  0  0  0  0
 13 14  2  0  0  0  0
 14 15  1  0  0  0  0
 15 16  1  0  0  0  0
 16 17  1  0  0  0  0
 18 19  1  0  0  0  0
 19  4  1  0  0  0  0
 21 20  1  0  0  0  0
 22 25  1  0  0  0  0
 24 30  2  0  0  0  0
 25 28  1  0  0  0  0
 25 27  2  0  0  0  0
 26 30  1  0  0  0  0
 27 24  1  0  0  0  0
 28 29  1  0  0  0  0
 28 26  1  0  0  0  0
 30 23  1  0  0  0  0
 32 31  1  0  0  0  0
 32 28  1  0  0  0  0
M  END
>  <MODEL>
2

>  <REMARK>
 VINA RESULT:      -7.4      2.461      4.614
  Name = 
  8 active torsions:
  status: ('A' for Active; 'I' for Inactive)
    1  A    between atoms: C_1  and  C_16
    2  A    between atoms: C_1  and  C_27
    3  A    between atoms: C_6  and  O_17
    4  A    between atoms: O_8  and  C_22
    5  A    between atoms: N_9  and  C_32
    6  A    between atoms: C_10  and  C_28
    7  A    between atoms: C_14  and  C_21
    8  A    between atoms: C_28  and  C_32
                            x       y       z     vdW  Elec       q    Type
                         _______ _______ _______ _____ _____    ______ ____

>  <TORSDO>
F 8

$$$$
=
 OpenBabel10272413163D

 32 34  0  0  1  0  0  0  0  0999 V2000
  184.9660  178.7020  141.5430 C   0  0  1  0  0  3  0  0  0  0  0  0
  187.6470  179.3050  142.5750 O   0  0  0  0  0  1  0  0  0  0  0  0
  186.2120  178.0230  141.1480 C   0  0  1  0  0  3  0  0  0  0  0  0
  183.9390  178.4240  140.4490 C   0  0  2  0  0  3  0  0  0  0  0  0
  184.7630  178.1010  142.9110 C   0  0  1  0  0  3  0  0  0  0  0  0
  184.4980  178.9100  139.0780 C   0  0  0  0  0  0  0  0  0  0  0  0
  186.7050  178.6650  139.8470 C   0  0  2  0  0  3  0  0  0  0  0  0
  185.7800  178.3440  138.8170 O   0  0  0  0  0  0  0  0  0  0  0  0
  186.0470  177.9240  143.4860 O   0  0  0  0  0  0  0  0  0  0  0  0
  183.6230  178.4970  138.0730 O   0  0  0  0  0  1  0  0  0  0  0  0
  186.9950  178.0730  142.4420 C   0  0  2  0  0  0  0  0  0  0  0  0
  184.5920  180.3060  139.0370 O   0  0  0  0  0  1  0  0  0  0  0  0
  182.7570  179.1750  143.5050 O   0  0  0  0  0  0  0  0  0  0  0  0
  183.9310  178.9910  143.7820 C   0  0  0  0  0  0  0  0  0  0  0  0
  184.5320  179.6740  144.9720 C   0  0  0  0  0  2  0  0  0  0  0  0
  184.2450  178.9190  146.1820 N   0  0  0  0  0  2  0  0  0  0  0  0
  185.3080  179.0760  147.0080 O   0  0  0  0  0  1  0  0  0  0  0  0
  181.7260  177.7710  140.5510 C   0  0  0  0  0  1  0  0  0  0  0  0
  182.6170  178.8410  140.7370 O   0  0  0  0  0  0  0  0  0  0  0  0
  188.0700  178.1280  139.4450 C   0  0  0  0  0  2  0  0  0  0  0  0
  188.8420  179.1480  138.8900 O   0  0  0  0  0  1  0  0  0  0  0  0
  188.0030  176.9220  142.4790 C   0  0  0  0  0  2  0  0  0  0  0  0
  191.3020  177.4950  147.0850 F   0  0  0  0  0  0  0  0  0  0  0  0
  189.2760  176.9450  146.0860 C   0  0  0  0  0  3  0  0  0  0  0  0
  188.9310  176.9760  143.6600 C   0  0  0  0  0  0  0  0  0  0  0  0
  191.0240  177.9370  144.6660 C   0  0  0  0  0  2  0  0  0  0  0  0
  188.4220  176.8360  144.8920 C   0  0  0  0  0  3  0  0  0  0  0  0
  190.4270  177.1790  143.4540 C   0  0  1  0  0  0  0  0  0  0  0  0
  191.0680  175.7900  143.3520 C   0  0  0  0  0  1  0  0  0  0  0  0
  190.5220  177.4080  145.9820 C   0  0  0  0  0  0  0  0  0  0  0  0
  191.6180  177.3220  141.4660 C   0  0  0  0  0  1  0  0  0  0  0  0
  190.6170  177.9170  142.2560 O   0  0  0  0  0  0  0  0  0  0  0  0
  1  5  1  0  0  0  0
  3  1  1  0  0  0  0
  3 11  1  0  0  0  0
  4 19  1  0  0  0  0
  4  1  1  0  0  0  0
  5  9  1  0  0  0  0
  5 14  1  0  0  0  0
  6  4  1  0  0  0  0
  7  3  1  0  0  0  0
  8  6  1  0  0  0  0
  8  7  1  0  0  0  0
 10  6  1  0  0  0  0
 11 22  1  0  0  0  0
 11  2  1  0  0  0  0
 11  9  1  0  0  0  0
 12  6  1  0  0  0  0
 13 14  2  0  0  0  0
 14 15  1  0  0  0  0
 15 16  1  0  0  0  0
 16 17  1  0  0  0  0
 18 19  1  0  0  0  0
 20  7  1  0  0  0  0
 21 20  1  0  0  0  0
 22 25  1  0  0  0  0
 25 27  2  0  0  0  0
 26 30  1  0  0  0  0
 27 24  1  0  0  0  0
 28 25  1  0  0  0  0
 28 26  1  0  0  0  0
 29 28  1  0  0  0  0
 30 24  2  0  0  0  0
 30 23  1  0  0  0  0
 31 32  1  0  0  0  0
 32 28  1  0  0  0  0
M  END
>  <MODEL>
3

>  <REMARK>
 VINA RESULT:      -7.4      3.368      5.767
  Name = 
  8 active torsions:
  status: ('A' for Active; 'I' for Inactive)
    1  A    between atoms: C_1  and  C_16
    2  A    between atoms: C_1  and  C_27
    3  A    between atoms: C_6  and  O_17
    4  A    between atoms: O_8  and  C_22
    5  A    between atoms: N_9  and  C_32
    6  A    between atoms: C_10  and  C_28
    7  A    between atoms: C_14  and  C_21
    8  A    between atoms: C_28  and  C_32
                            x       y       z     vdW  Elec       q    Type
                         _______ _______ _______ _____ _____    ______ ____

>  <TORSDO>
F 8

$$$$
=
 OpenBabel10272413163D

 32 34  0  0  1  0  0  0  0  0999 V2000
  187.5930  178.3080  140.3840 C   0  0  1  0  0  3  0  0  0  0  0  0
  189.2860  178.6900  142.7500 O   0  0  0  0  0  1  0  0  0  0  0  0
  188.6520  177.3920  140.8400 C   0  0  1  0  0  3  0  0  0  0  0  0
  187.3250  177.9860  138.9160 C   0  0  2  0  0  3  0  0  0  0  0  0
  186.5280  178.0080  141.4080 C   0  0  1  0  0  3  0  0  0  0  0  0
  188.6500  178.1220  138.1060 C   0  0  0  0  0  0  0  0  0  0  0  0
  189.9200  177.7010  140.0380 C   0  0  2  0  0  3  0  0  0  0  0  0
  189.6880  177.3350  138.6840 O   0  0  0  0  0  0  0  0  0  0  0  0
  187.1880  177.7540  142.6370 O   0  0  0  0  0  0  0  0  0  0  0  0
  188.4220  177.6630  136.8080 O   0  0  0  0  0  1  0  0  0  0  0  0
  188.5620  177.5650  142.3410 C   0  0  2  0  0  0  0  0  0  0  0  0
  189.0650  179.4570  138.0370 O   0  0  0  0  0  1  0  0  0  0  0  0
  185.2450  179.7980  140.5820 O   0  0  0  0  0  0  0  0  0  0  0  0
  185.5800  179.1570  141.5650 C   0  0  0  0  0  0  0  0  0  0  0  0
  185.0590  179.5390  142.9160 C   0  0  0  0  0  2  0  0  0  0  0  0
  184.0500  178.5890  143.3530 N   0  0  0  0  0  2  0  0  0  0  0  0
  182.9670  178.7690  142.5590 O   0  0  0  0  0  1  0  0  0  0  0  0
  185.2920  177.6890  137.8620 C   0  0  0  0  0  1  0  0  0  0  0  0
  186.2050  178.6400  138.3460 O   0  0  0  0  0  0  0  0  0  0  0  0
  191.1090  176.9040  140.5490 C   0  0  0  0  0  2  0  0  0  0  0  0
  191.9990  177.7460  141.2160 O   0  0  0  0  0  1  0  0  0  0  0  0
  189.0810  176.3050  143.0370 C   0  0  0  0  0  2  0  0  0  0  0  0
  191.8470  176.9300  147.9750 F   0  0  0  0  0  0  0  0  0  0  0  0
  191.8350  176.5880  145.6750 C   0  0  0  0  0  3  0  0  0  0  0  0
  189.7830  176.5850  144.3360 C   0  0  0  0  0  0  0  0  0  0  0  0
  189.6710  176.5900  146.8470 C   0  0  0  0  0  2  0  0  0  0  0  0
  191.1080  176.3910  144.4110 C   0  0  0  0  0  3  0  0  0  0  0  0
  189.0010  177.0880  145.5410 C   0  0  1  0  0  0  0  0  0  0  0  0
  189.0330  178.6200  145.5030 C   0  0  0  0  0  1  0  0  0  0  0  0
  191.1680  176.7400  146.8190 C   0  0  0  0  0  0  0  0  0  0  0  0
  186.7700  177.5150  146.0300 C   0  0  0  0  0  1  0  0  0  0  0  0
  187.6700  176.6040  145.4440 O   0  0  0  0  0  0  0  0  0  0  0  0
  1  3  1  0  0  0  0
  1  5  1  0  0  0  0
  3 11  1  0  0  0  0
  4  1  1  0  0  0  0
  5 14  1  0  0  0  0
  5  9  1  0  0  0  0
  6  8  1  0  0  0  0
  6  4  1  0  0  0  0
  7 20  1  0  0  0  0
  7  3  1  0  0  0  0
  8  7  1  0  0  0  0
 10  6  1  0  0  0  0
 11  9  1  0  0  0  0
 11  2  1  0  0  0  0
 11 22  1  0  0  0  0
 12  6  1  0  0  0  0
 13 14  2  0  0  0  0
 14 15  1  0  0  0  0
 15 16  1  0  0  0  0
 17 16  1  0  0  0  0
 18 19  1  0  0  0  0
 19  4  1  0  0  0  0
 20 21  1  0  0  0  0
 22 25  1  0  0  0  0
 24 30  2  0  0  0  0
 25 27  2  0  0  0  0
 25 28  1  0  0  0  0
 27 24  1  0  0  0  0
 28 26  1  0  0  0  0
 29 28  1  0  0  0  0
 30 26  1  0  0  0  0
 30 23  1  0  0  0  0
 32 28  1  0  0  0  0
 32 31  1  0  0  0  0
M  END
>  <MODEL>
4

>  <REMARK>
 VINA RESULT:      -7.2      2.681      5.050
  Name = 
  8 active torsions:
  status: ('A' for Active; 'I' for Inactive)
    1  A    between atoms: C_1  and  C_16
    2  A    between atoms: C_1  and  C_27
    3  A    between atoms: C_6  and  O_17
    4  A    between atoms: O_8  and  C_22
    5  A    between atoms: N_9  and  C_32
    6  A    between atoms: C_10  and  C_28
    7  A    between atoms: C_14  and  C_21
    8  A    between atoms: C_28  and  C_32
                            x       y       z     vdW  Elec       q    Type
                         _______ _______ _______ _____ _____    ______ ____

>  <TORSDO>
F 8

$$$$
=
 OpenBabel10272413163D

 32 34  0  0  1  0  0  0  0  0999 V2000
  186.7120  178.1680  140.4830 C   0  0  1  0  0  3  0  0  0  0  0  0
  187.9780  176.6230  142.6320 O   0  0  0  0  0  1  0  0  0  0  0  0
  186.7970  178.5720  141.8970 C   0  0  1  0  0  3  0  0  0  0  0  0
  185.5930  178.9910  139.8490 C   0  0  2  0  0  3  0  0  0  0  0  0
  188.1370  178.4130  140.0540 C   0  0  1  0  0  3  0  0  0  0  0  0
  184.2690  178.7590  140.6380 C   0  0  0  0  0  0  0  0  0  0  0  0
  185.4750  178.1950  142.5740 C   0  0  2  0  0  3  0  0  0  0  0  0
  184.4490  179.0130  142.0290 O   0  0  0  0  0  0  0  0  0  0  0  0
  188.9680  178.0820  141.1540 O   0  0  0  0  0  0  0  0  0  0  0  0
  183.3060  179.6430  140.1510 O   0  0  0  0  0  1  0  0  0  0  0  0
  188.1290  177.9720  142.2920 C   0  0  2  0  0  0  0  0  0  0  0  0
  183.8000  177.4520  140.4630 O   0  0  0  0  0  1  0  0  0  0  0  0
  188.1440  176.4100  138.8210 O   0  0  0  0  0  0  0  0  0  0  0  0
  188.5030  177.5760  138.8680 C   0  0  0  0  0  0  0  0  0  0  0  0
  189.3220  178.1470  137.7520 C   0  0  0  0  0  2  0  0  0  0  0  0
  188.9680  179.5390  137.5300 N   0  0  0  0  0  2  0  0  0  0  0  0
  187.8770  179.5470  136.7260 O   0  0  0  0  0  1  0  0  0  0  0  0
  185.0350  177.5910  138.1000 C   0  0  0  0  0  1  0  0  0  0  0  0
  185.4790  178.8780  138.4420 O   0  0  0  0  0  0  0  0  0  0  0  0
  185.5310  178.4380  144.0740 C   0  0  0  0  0  2  0  0  0  0  0  0
  184.2990  178.9070  144.5290 O   0  0  0  0  0  1  0  0  0  0  0  0
  188.7220  178.7610  143.4610 C   0  0  0  0  0  2  0  0  0  0  0  0
  191.3950  175.8470  147.5600 F   0  0  0  0  0  0  0  0  0  0  0  0
  189.4970  176.8790  146.6990 C   0  0  0  0  0  3  0  0  0  0  0  0
  189.4230  177.8970  144.4720 C   0  0  0  0  0  0  0  0  0  0  0  0
  191.6070  177.1410  145.4610 C   0  0  0  0  0  2  0  0  0  0  0  0
  188.8270  177.6640  145.6500 C   0  0  0  0  0  3  0  0  0  0  0  0
  190.7850  177.2930  144.1560 C   0  0  1  0  0  0  0  0  0  0  0  0
  190.5430  175.9110  143.5390 C   0  0  0  0  0  1  0  0  0  0  0  0
  190.7910  176.5780  146.5930 C   0  0  0  0  0  0  0  0  0  0  0  0
  191.9820  177.4060  142.1680 C   0  0  0  0  0  1  0  0  0  0  0  0
  191.4520  178.1500  143.2400 O   0  0  0  0  0  0  0  0  0  0  0  0
  1  3  1  0  0  0  0
  3 11  1  0  0  0  0
  3  7  1  0  0  0  0
  4  1  1  0  0  0  0
  4  6  1  0  0  0  0
  5  1  1  0  0  0  0
  5  9  1  0  0  0  0
  6  8  1  0  0  0  0
  7 20  1  0  0  0  0
  8  7  1  0  0  0  0
  9 11  1  0  0  0  0
 10  6  1  0  0  0  0
 11  2  1  0  0  0  0
 11 22  1  0  0  0  0
 12  6  1  0  0  0  0
 13 14  2  0  0  0  0
 14  5  1  0  0  0  0
 15 14  1  0  0  0  0
 16 15  1  0  0  0  0
 17 16  1  0  0  0  0
 18 19  1  0  0  0  0
 19  4  1  0  0  0  0
 20 21  1  0  0  0  0
 22 25  1  0  0  0  0
 25 27  2  0  0  0  0
 26 30  1  0  0  0  0
 27 24  1  0  0  0  0
 28 25  1  0  0  0  0
 28 26  1  0  0  0  0
 29 28  1  0  0  0  0
 30 24  2  0  0  0  0
 30 23  1  0  0  0  0
 31 32  1  0  0  0  0
 32 28  1  0  0  0  0
M  END
>  <MODEL>
5

>  <REMARK>
 VINA RESULT:      -6.9      2.288      3.467
  Name = 
  8 active torsions:
  status: ('A' for Active; 'I' for Inactive)
    1  A    between atoms: C_1  and  C_16
    2  A    between atoms: C_1  and  C_27
    3  A    between atoms: C_6  and  O_17
    4  A    between atoms: O_8  and  C_22
    5  A    between atoms: N_9  and  C_32
    6  A    between atoms: C_10  and  C_28
    7  A    between atoms: C_14  and  C_21
    8  A    between atoms: C_28  and  C_32
                            x       y       z     vdW  Elec       q    Type
                         _______ _______ _______ _____ _____    ______ ____

>  <TORSDO>
F 8

$$$$
=
 OpenBabel10272413163D

 32 34  0  0  1  0  0  0  0  0999 V2000
  184.3030  178.7330  141.7250 C   0  0  1  0  0  3  0  0  0  0  0  0
  186.5980  179.5060  143.3830 O   0  0  0  0  0  1  0  0  0  0  0  0
  185.6450  178.1280  141.6710 C   0  0  1  0  0  3  0  0  0  0  0  0
  183.6030  178.3840  140.4150 C   0  0  2  0  0  3  0  0  0  0  0  0
  183.7960  178.1320  143.0120 C   0  0  1  0  0  3  0  0  0  0  0  0
  184.4610  178.8920  139.2170 C   0  0  0  0  0  0  0  0  0  0  0  0
  186.4130  178.7880  140.5210 C   0  0  2  0  0  3  0  0  0  0  0  0
  185.7970  178.4030  139.2990 O   0  0  0  0  0  0  0  0  0  0  0  0
  184.9020  178.0380  143.8950 O   0  0  0  0  0  0  0  0  0  0  0  0
  183.8920  178.4180  138.0350 O   0  0  0  0  0  1  0  0  0  0  0  0
  186.0720  178.2360  143.1190 C   0  0  2  0  0  0  0  0  0  0  0  0
  184.4820  180.2910  139.1690 O   0  0  0  0  0  1  0  0  0  0  0  0
  183.0120  180.0630  144.1000 O   0  0  0  0  0  0  0  0  0  0  0  0
  182.7230  178.9770  143.6250 C   0  0  0  0  0  0  0  0  0  0  0  0
  181.3070  178.4920  143.6820 C   0  0  0  0  0  2  0  0  0  0  0  0
  180.3910  179.6200  143.7240 N   0  0  0  0  0  2  0  0  0  0  0  0
  180.1680  179.9970  142.4410 O   0  0  0  0  0  1  0  0  0  0  0  0
  181.4600  177.5650  140.1480 C   0  0  0  0  0  1  0  0  0  0  0  0
  182.2280  178.7220  140.3520 O   0  0  0  0  0  0  0  0  0  0  0  0
  187.8630  178.3320  140.4880 C   0  0  0  0  0  2  0  0  0  0  0  0
  188.1130  177.6160  139.3180 O   0  0  0  0  0  1  0  0  0  0  0  0
  187.1020  177.1490  143.4340 C   0  0  0  0  0  2  0  0  0  0  0  0
  189.4730  178.2530  148.4930 F   0  0  0  0  0  0  0  0  0  0  0  0
  187.7030  177.4830  147.1970 C   0  0  0  0  0  3  0  0  0  0  0  0
  187.7970  177.3470  144.7520 C   0  0  0  0  0  0  0  0  0  0  0  0
  189.6030  178.5310  146.0380 C   0  0  0  0  0  2  0  0  0  0  0  0
  187.0860  177.2370  145.8840 C   0  0  0  0  0  3  0  0  0  0  0  0
  189.2870  177.6580  144.7970 C   0  0  1  0  0  0  0  0  0  0  0  0
  190.0330  176.3230  144.9080 C   0  0  0  0  0  1  0  0  0  0  0  0
  188.9110  178.0400  147.2790 C   0  0  0  0  0  0  0  0  0  0  0  0
  190.9020  178.9440  143.7320 C   0  0  0  0  0  1  0  0  0  0  0  0
  189.6370  178.3390  143.6010 O   0  0  0  0  0  0  0  0  0  0  0  0
  1  5  1  0  0  0  0
  3  1  1  0  0  0  0
  3 11  1  0  0  0  0
  4  1  1  0  0  0  0
  5 14  1  0  0  0  0
  5  9  1  0  0  0  0
  6  8  1  0  0  0  0
  6  4  1  0  0  0  0
  7  3  1  0  0  0  0
  8  7  1  0  0  0  0
 10  6  1  0  0  0  0
 11  2  1  0  0  0  0
 11 22  1  0  0  0  0
 11  9  1  0  0  0  0
 12  6  1  0  0  0  0
 14 15  1  0  0  0  0
 14 13  2  0  0  0  0
 15 16  1  0  0  0  0
 17 16  1  0  0  0  0
 18 19  1  0  0  0  0
 19  4  1  0  0  0  0
 20  7  1  0  0  0  0
 21 20  1  0  0  0  0
 22 25  1  0  0  0  0
 24 30  2  0  0  0  0
 25 28  1  0  0  0  0
 25 27  2  0  0  0  0
 26 30  1  0  0  0  0
 27 24  1  0  0  0  0
 28 29  1  0  0  0  0
 28 26  1  0  0  0  0
 30 23  1  0  0  0  0
 32 31  1  0  0  0  0
 32 28  1  0  0  0  0
M  END
>  <MODEL>
6

>  <REMARK>
 VINA RESULT:      -6.7      3.858      6.453
  Name = 
  8 active torsions:
  status: ('A' for Active; 'I' for Inactive)
    1  A    between atoms: C_1  and  C_16
    2  A    between atoms: C_1  and  C_27
    3  A    between atoms: C_6  and  O_17
    4  A    between atoms: O_8  and  C_22
    5  A    between atoms: N_9  and  C_32
    6  A    between atoms: C_10  and  C_28
    7  A    between atoms: C_14  and  C_21
    8  A    between atoms: C_28  and  C_32
                            x       y       z     vdW  Elec       q    Type
                         _______ _______ _______ _____ _____    ______ ____

>  <TORSDO>
F 8

$$$$
=
 OpenBabel10272413163D

 32 34  0  0  1  0  0  0  0  0999 V2000
  189.2320  177.5530  139.5320 C   0  0  1  0  0  3  0  0  0  0  0  0
  188.9320  176.3230  142.1790 O   0  0  0  0  0  1  0  0  0  0  0  0
  188.6130  178.1870  140.7090 C   0  0  1  0  0  3  0  0  0  0  0  0
  188.7490  178.3220  138.3050 C   0  0  2  0  0  3  0  0  0  0  0  0
  190.6850  177.6330  139.9240 C   0  0  1  0  0  3  0  0  0  0  0  0
  187.1910  178.3100  138.2650 C   0  0  0  0  0  0  0  0  0  0  0  0
  187.0950  178.0120  140.5940 C   0  0  2  0  0  3  0  0  0  0  0  0
  186.6430  178.7860  139.4910 O   0  0  0  0  0  0  0  0  0  0  0  0
  190.7510  177.4450  141.3280 O   0  0  0  0  0  0  0  0  0  0  0  0
  186.7700  179.1550  137.2380 O   0  0  0  0  0  1  0  0  0  0  0  0
  189.4320  177.5820  141.8290 C   0  0  2  0  0  0  0  0  0  0  0  0
  186.7030  177.0230  138.0090 O   0  0  0  0  0  1  0  0  0  0  0  0
  191.0520  175.4550  139.1180 O   0  0  0  0  0  0  0  0  0  0  0  0
  191.4990  176.5850  139.2300 C   0  0  0  0  0  0  0  0  0  0  0  0
  192.8600  176.9040  138.6930 C   0  0  0  0  0  2  0  0  0  0  0  0
  193.2740  175.8900  137.7370 N   0  0  0  0  0  2  0  0  0  0  0  0
  194.2630  176.4340  136.9870 O   0  0  0  0  0  1  0  0  0  0  0  0
  189.0510  176.6600  136.7300 C   0  0  0  0  0  1  0  0  0  0  0  0
  189.3820  177.9780  137.0850 O   0  0  0  0  0  0  0  0  0  0  0  0
  186.3840  178.5030  141.8450 C   0  0  0  0  0  2  0  0  0  0  0  0
  185.5550  179.5800  141.5320 O   0  0  0  0  0  1  0  0  0  0  0  0
  189.4240  178.5210  143.0370 C   0  0  0  0  0  2  0  0  0  0  0  0
  191.6650  175.8090  147.5150 F   0  0  0  0  0  0  0  0  0  0  0  0
  191.8930  177.0090  145.5360 C   0  0  0  0  0  3  0  0  0  0  0  0
  189.9820  177.8970  144.2850 C   0  0  0  0  0  0  0  0  0  0  0  0
  189.6300  176.3060  146.1980 C   0  0  0  0  0  2  0  0  0  0  0  0
  191.3020  177.6750  144.3640 C   0  0  0  0  0  3  0  0  0  0  0  0
  189.0610  177.5330  145.4420 C   0  0  1  0  0  0  0  0  0  0  0  0
  189.0120  178.7380  146.3870 C   0  0  0  0  0  1  0  0  0  0  0  0
  191.1120  176.4110  146.4350 C   0  0  0  0  0  0  0  0  0  0  0  0
  186.7720  177.6570  145.8140 C   0  0  0  0  0  1  0  0  0  0  0  0
  187.7740  177.2460  144.9150 O   0  0  0  0  0  0  0  0  0  0  0  0
  1  5  1  0  0  0  0
  1  3  1  0  0  0  0
  3 11  1  0  0  0  0
  4  1  1  0  0  0  0
  5  9  1  0  0  0  0
  6  4  1  0  0  0  0
  6  8  1  0  0  0  0
  7  3  1  0  0  0  0
  7 20  1  0  0  0  0
  8  7  1  0  0  0  0
  9 11  1  0  0  0  0
 10  6  1  0  0  0  0
 11  2  1  0  0  0  0
 11 22  1  0  0  0  0
 12  6  1  0  0  0  0
 13 14  2  0  0  0  0
 14  5  1  0  0  0  0
 15 14  1  0  0  0  0
 16 15  1  0  0  0  0
 17 16  1  0  0  0  0
 18 19  1  0  0  0  0
 19  4  1  0  0  0  0
 21 20  1  0  0  0  0
 22 25  1  0  0  0  0
 24 30  2  0  0  0  0
 25 27  2  0  0  0  0
 25 28  1  0  0  0  0
 26 30  1  0  0  0  0
 27 24  1  0  0  0  0
 28 26  1  0  0  0  0
 28 29  1  0  0  0  0
 30 23  1  0  0  0  0
 32 28  1  0  0  0  0
 32 31  1  0  0  0  0
M  END
>  <MODEL>
7

>  <REMARK>
 VINA RESULT:      -6.5      1.299      2.020
  Name = 
  8 active torsions:
  status: ('A' for Active; 'I' for Inactive)
    1  A    between atoms: C_1  and  C_16
    2  A    between atoms: C_1  and  C_27
    3  A    between atoms: C_6  and  O_17
    4  A    between atoms: O_8  and  C_22
    5  A    between atoms: N_9  and  C_32
    6  A    between atoms: C_10  and  C_28
    7  A    between atoms: C_14  and  C_21
    8  A    between atoms: C_28  and  C_32
                            x       y       z     vdW  Elec       q    Type
                         _______ _______ _______ _____ _____    ______ ____

>  <TORSDO>
F 8

$$$$
=
 OpenBabel10272413163D

 32 34  0  0  1  0  0  0  0  0999 V2000
  190.3980  177.5420  139.9290 C   0  0  1  0  0  3  0  0  0  0  0  0
  188.9840  178.9980  142.0480 O   0  0  0  0  0  1  0  0  0  0  0  0
  190.3330  177.1470  141.3470 C   0  0  1  0  0  3  0  0  0  0  0  0
  191.5890  176.8100  139.3160 C   0  0  2  0  0  3  0  0  0  0  0  0
  189.0040  177.1730  139.4900 C   0  0  1  0  0  3  0  0  0  0  0  0
  192.8810  177.1610  140.1140 C   0  0  0  0  0  0  0  0  0  0  0  0
  191.6110  177.6430  142.0320 C   0  0  2  0  0  3  0  0  0  0  0  0
  192.7080  176.9080  141.5060 O   0  0  0  0  0  0  0  0  0  0  0  0
  188.1360  177.4440  140.5780 O   0  0  0  0  0  0  0  0  0  0  0  0
  193.9200  176.3570  139.6470 O   0  0  0  0  0  1  0  0  0  0  0  0
  188.9510  177.6380  141.7220 C   0  0  2  0  0  0  0  0  0  0  0  0
  193.2390  178.5010  139.9280 O   0  0  0  0  0  1  0  0  0  0  0  0
  188.7530  179.1710  138.2750 O   0  0  0  0  0  0  0  0  0  0  0  0
  188.5810  177.9630  138.2900 C   0  0  0  0  0  0  0  0  0  0  0  0
  187.9290  177.2890  137.1220 C   0  0  0  0  0  2  0  0  0  0  0  0
  187.7510  175.8720  137.3930 N   0  0  0  0  0  2  0  0  0  0  0  0
  188.3480  175.1970  136.3810 O   0  0  0  0  0  1  0  0  0  0  0  0
  191.7060  175.6360  137.3300 C   0  0  0  0  0  1  0  0  0  0  0  0
  191.7080  176.9160  137.9080 O   0  0  0  0  0  0  0  0  0  0  0  0
  191.5600  177.4130  143.5340 C   0  0  0  0  0  2  0  0  0  0  0  0
  191.5930  178.6340  144.2070 O   0  0  0  0  0  1  0  0  0  0  0  0
  188.4140  176.8140  142.8950 C   0  0  0  0  0  2  0  0  0  0  0  0
  183.9840  179.5470  145.2050 F   0  0  0  0  0  0  0  0  0  0  0  0
  184.9650  178.3680  143.4570 C   0  0  0  0  0  3  0  0  0  0  0  0
  187.2310  177.4420  143.5760 C   0  0  0  0  0  0  0  0  0  0  0  0
  186.3950  179.0100  145.3540 C   0  0  0  0  0  2  0  0  0  0  0  0
  186.1280  177.6970  142.8560 C   0  0  0  0  0  3  0  0  0  0  0  0
  187.2840  177.7750  145.0610 C   0  0  1  0  0  0  0  0  0  0  0  0
  186.7400  176.5610  145.8230 C   0  0  0  0  0  1  0  0  0  0  0  0
  185.0640  178.9400  144.6570 C   0  0  0  0  0  0  0  0  0  0  0  0
  188.8990  177.5800  146.7190 C   0  0  0  0  0  1  0  0  0  0  0  0
  188.6350  178.0330  145.4130 O   0  0  0  0  0  0  0  0  0  0  0  0
  1  3  1  0  0  0  0
  3 11  1  0  0  0  0
  3  7  1  0  0  0  0
  4  1  1  0  0  0  0
  4  6  1  0  0  0  0
  5  1  1  0  0  0  0
  5  9  1  0  0  0  0
  6  8  1  0  0  0  0
  7 20  1  0  0  0  0
  8  7  1  0  0  0  0
  9 11  1  0  0  0  0
 10  6  1  0  0  0  0
 11  2  1  0  0  0  0
 11 22  1  0  0  0  0
 12  6  1  0  0  0  0
 13 14  2  0  0  0  0
 14  5  1  0  0  0  0
 15 16  1  0  0  0  0
 15 14  1  0  0  0  0
 17 16  1  0  0  0  0
 18 19  1  0  0  0  0
 19  4  1  0  0  0  0
 20 21  1  0  0  0  0
 22 25  1  0  0  0  0
 24 30  2  0  0  0  0
 25 28  1  0  0  0  0
 27 24  1  0  0  0  0
 27 25  2  0  0  0  0
 28 26  1  0  0  0  0
 28 32  1  0  0  0  0
 28 29  1  0  0  0  0
 30 23  1  0  0  0  0
 30 26  1  0  0  0  0
 32 31  1  0  0  0  0
M  END
>  <MODEL>
8

>  <REMARK>
 VINA RESULT:      -6.5      2.486      4.704
  Name = 
  8 active torsions:
  status: ('A' for Active; 'I' for Inactive)
    1  A    between atoms: C_1  and  C_16
    2  A    between atoms: C_1  and  C_27
    3  A    between atoms: C_6  and  O_17
    4  A    between atoms: O_8  and  C_22
    5  A    between atoms: N_9  and  C_32
    6  A    between atoms: C_10  and  C_28
    7  A    between atoms: C_14  and  C_21
    8  A    between atoms: C_28  and  C_32
                            x       y       z     vdW  Elec       q    Type
                         _______ _______ _______ _____ _____    ______ ____

>  <TORSDO>
F 8

$$$$
=
 OpenBabel10272413163D

 32 34  0  0  1  0  0  0  0  0999 V2000
  187.7660  177.9380  143.2850 C   0  0  1  0  0  3  0  0  0  0  0  0
  185.7520  179.9250  142.5060 O   0  0  0  0  0  1  0  0  0  0  0  0
  186.3350  177.8950  143.6350 C   0  0  1  0  0  3  0  0  0  0  0  0
  188.4930  177.0220  144.2650 C   0  0  2  0  0  3  0  0  0  0  0  0
  187.6920  177.5470  141.8310 C   0  0  1  0  0  3  0  0  0  0  0  0
  188.2000  177.4870  145.7240 C   0  0  0  0  0  0  0  0  0  0  0  0
  186.1780  178.4730  145.0450 C   0  0  2  0  0  3  0  0  0  0  0  0
  186.7980  177.5800  145.9610 O   0  0  0  0  0  0  0  0  0  0  0  0
  186.5030  178.1130  141.3050 O   0  0  0  0  0  0  0  0  0  0  0  0
  188.7320  176.5420  146.6030 O   0  0  0  0  0  1  0  0  0  0  0  0
  185.7160  178.5300  142.4080 C   0  0  2  0  0  0  0  0  0  0  0  0
  188.7980  178.7250  145.9890 O   0  0  0  0  0  1  0  0  0  0  0  0
  189.6720  178.7970  141.6160 O   0  0  0  0  0  0  0  0  0  0  0  0
  188.8780  178.0500  141.0670 C   0  0  0  0  0  0  0  0  0  0  0  0
  189.0850  177.6650  139.6350 C   0  0  0  0  0  2  0  0  0  0  0  0
  188.8970  178.8200  138.7720 N   0  0  0  0  0  2  0  0  0  0  0  0
  187.6390  178.7420  138.2740 O   0  0  0  0  0  1  0  0  0  0  0  0
  190.0030  175.5500  143.3240 C   0  0  0  0  0  1  0  0  0  0  0  0
  189.8590  176.7850  143.9760 O   0  0  0  0  0  0  0  0  0  0  0  0
  184.7140  178.6090  145.4300 C   0  0  0  0  0  2  0  0  0  0  0  0
  184.5910  178.7270  146.8140 O   0  0  0  0  0  1  0  0  0  0  0  0
  184.2770  178.0360  142.2450 C   0  0  0  0  0  2  0  0  0  0  0  0
  181.8480  180.4100  137.6730 F   0  0  0  0  0  0  0  0  0  0  0  0
  183.7290  179.7460  138.8670 C   0  0  0  0  0  3  0  0  0  0  0  0
  183.6030  178.5540  141.0040 C   0  0  0  0  0  0  0  0  0  0  0  0
  181.5410  179.5550  139.9750 C   0  0  0  0  0  2  0  0  0  0  0  0
  184.3470  179.1650  140.0700 C   0  0  0  0  0  3  0  0  0  0  0  0
  182.1030  178.3790  140.8140 C   0  0  1  0  0  0  0  0  0  0  0  0
  181.8870  177.0630  140.0580 C   0  0  0  0  0  1  0  0  0  0  0  0
  182.4060  179.8820  138.7890 C   0  0  0  0  0  0  0  0  0  0  0  0
  180.7890  179.5330  142.3420 C   0  0  0  0  0  1  0  0  0  0  0  0
  181.4910  178.3380  142.0940 O   0  0  0  0  0  0  0  0  0  0  0  0
  1  3  1  0  0  0  0
  1  4  1  0  0  0  0
  3  7  1  0  0  0  0
  4  6  1  0  0  0  0
  5  1  1  0  0  0  0
  6  8  1  0  0  0  0
  6 12  1  0  0  0  0
  6 10  1  0  0  0  0
  7 20  1  0  0  0  0
  7  8  1  0  0  0  0
  9  5  1  0  0  0  0
  9 11  1  0  0  0  0
 11  2  1  0  0  0  0
 11  3  1  0  0  0  0
 14 13  2  0  0  0  0
 14  5  1  0  0  0  0
 15 14  1  0  0  0  0
 16 15  1  0  0  0  0
 17 16  1  0  0  0  0
 18 19  1  0  0  0  0
 19  4  1  0  0  0  0
 20 21  1  0  0  0  0
 22 11  1  0  0  0  0
 23 30  1  0  0  0  0
 24 27  1  0  0  0  0
 25 22  1  0  0  0  0
 26 28  1  0  0  0  0
 27 25  2  0  0  0  0
 28 25  1  0  0  0  0
 28 32  1  0  0  0  0
 29 28  1  0  0  0  0
 30 24  2  0  0  0  0
 30 26  1  0  0  0  0
 32 31  1  0  0  0  0
M  END
>  <MODEL>
9

>  <REMARK>
 VINA RESULT:      -6.5      4.071      7.593
  Name = 
  8 active torsions:
  status: ('A' for Active; 'I' for Inactive)
    1  A    between atoms: C_1  and  C_16
    2  A    between atoms: C_1  and  C_27
    3  A    between atoms: C_6  and  O_17
    4  A    between atoms: O_8  and  C_22
    5  A    between atoms: N_9  and  C_32
    6  A    between atoms: C_10  and  C_28
    7  A    between atoms: C_14  and  C_21
    8  A    between atoms: C_28  and  C_32
                            x       y       z     vdW  Elec       q    Type
                         _______ _______ _______ _____ _____    ______ ____

>  <TORSDO>
F 8

$$$$
