=
 OpenBabel10272400483D

 25 28  0  0  0  0  0  0  0  0999 V2000
  187.2360  177.9900  145.9350 C   0  0  0  0  0  0  0  0  0  0  0  0
  188.5550  177.5870  145.7160 C   0  0  0  0  0  0  0  0  0  0  0  0
  187.5720  178.1840  148.3250 C   0  0  0  0  0  3  0  0  0  0  0  0
  186.1540  178.2010  145.1120 C   0  0  0  0  0  0  0  0  0  0  0  0
  183.7020  178.7670  143.9870 C   0  0  0  0  0  3  0  0  0  0  0  0
  188.9070  177.7800  148.1410 C   0  0  0  0  0  3  0  0  0  0  0  0
  185.1140  178.5910  145.8780 N   0  0  0  0  0  0  0  0  0  0  0  0
  183.8910  178.8810  145.3720 C   0  0  0  0  0  3  0  0  0  0  0  0
  190.7400  177.0770  146.6730 C   0  0  0  0  0  0  0  0  0  0  0  0
  191.5990  176.9610  147.7600 O   0  0  0  0  0  1  0  0  0  0  0  0
  189.0440  177.2920  144.4410 C   0  0  0  0  0  3  0  0  0  0  0  0
  184.7740  178.3600  143.1700 C   0  0  0  0  0  3  0  0  0  0  0  0
  186.7620  178.2800  147.1980 C   0  0  0  0  0  0  0  0  0  0  0  0
  185.4620  178.6470  147.1580 N   0  0  0  0  0  0  0  0  0  0  0  0
  191.2150  176.7850  145.3900 C   0  0  0  0  0  3  0  0  0  0  0  0
  186.0280  178.0690  143.7300 C   0  0  0  0  0  3  0  0  0  0  0  0
  190.3740  176.8950  144.2780 C   0  0  0  0  0  0  0  0  0  0  0  0
  189.4070  177.4800  146.8510 C   0  0  0  0  0  0  0  0  0  0  0  0
  190.9960  176.5120  142.6480 S   0  0  0  0  0  0  0  0  0  0  0  0
  189.3500  176.6790  141.8920 C   0  0  0  0  0  2  0  0  0  0  0  0
  189.4050  177.6340  140.7110 C   0  0  0  0  0  2  0  0  0  0  0  0
  188.0870  178.3770  140.5430 C   0  0  0  0  0  2  0  0  0  0  0  0
  187.6970  178.4090  139.1420 N   0  0  0  0  0  2  0  0  0  0  0  0
  188.9190  178.4490  138.3590 C   0  0  0  0  0  2  0  0  0  0  0  0
  188.9900  179.6590  137.6710 O   0  0  0  0  0  1  0  0  0  0  0  0
  1 13  1  0  0  0  0
  2  1  1  0  0  0  0
  2 18  1  0  0  0  0
  4  7  1  0  0  0  0
  4  1  2  0  0  0  0
  5  8  2  0  0  0  0
  6  3  2  0  0  0  0
  7 14  1  0  0  0  0
  8  7  1  0  0  0  0
  9 18  2  0  0  0  0
  9 10  1  0  0  0  0
 11  2  2  0  0  0  0
 12 16  2  0  0  0  0
 12  5  1  0  0  0  0
 13  3  1  0  0  0  0
 14 13  2  0  0  0  0
 15  9  1  0  0  0  0
 16  4  1  0  0  0  0
 17 11  1  0  0  0  0
 17 15  2  0  0  0  0
 18  6  1  0  0  0  0
 19 17  1  0  0  0  0
 20 19  1  0  0  0  0
 21 20  1  0  0  0  0
 22 21  1  0  0  0  0
 23 22  1  0  0  0  0
 24 23  1  0  0  0  0
 25 24  1  0  0  0  0
M  END
>  <MODEL>
1

>  <REMARK>
 VINA RESULT:      -9.8      0.000      0.000
  Name = 
  6 active torsions:
  status: ('A' for Active; 'I' for Inactive)
    1  A    between atoms: C_2  and  N_12
    2  A    between atoms: S_6  and  C_15
    3  A    between atoms: S_6  and  C_23
    4  A    between atoms: N_12  and  C_25
    5  A    between atoms: C_15  and  C_21
    6  A    between atoms: C_21  and  C_25
                            x       y       z     vdW  Elec       q    Type
                         _______ _______ _______ _____ _____    ______ ____

>  <TORSDO>
F 6

$$$$
=
 OpenBabel10272400483D

 25 28  0  0  0  0  0  0  0  0999 V2000
  187.0970  178.0130  145.7310 C   0  0  0  0  0  0  0  0  0  0  0  0
  188.3960  177.6010  145.4300 C   0  0  0  0  0  0  0  0  0  0  0  0
  187.5770  178.1800  148.0980 C   0  0  0  0  0  3  0  0  0  0  0  0
  185.9680  178.2400  144.9760 C   0  0  0  0  0  0  0  0  0  0  0  0
  183.4580  178.8370  144.0060 C   0  0  0  0  0  3  0  0  0  0  0  0
  188.8950  177.7670  147.8300 C   0  0  0  0  0  3  0  0  0  0  0  0
  184.9810  178.6310  145.8080 N   0  0  0  0  0  0  0  0  0  0  0  0
  183.7310  178.9360  145.3790 C   0  0  0  0  0  3  0  0  0  0  0  0
  190.6310  177.0640  146.2480 C   0  0  0  0  0  0  0  0  0  0  0  0
  191.5520  176.9310  147.2810 O   0  0  0  0  0  1  0  0  0  0  0  0
  188.8050  177.3150  144.1240 C   0  0  0  0  0  3  0  0  0  0  0  0
  184.4770  178.4300  143.1230 C   0  0  0  0  0  3  0  0  0  0  0  0
  186.7010  178.2930  147.0230 C   0  0  0  0  0  0  0  0  0  0  0  0
  185.4050  178.6710  147.0640 N   0  0  0  0  0  0  0  0  0  0  0  0
  191.0260  176.7820  144.9370 C   0  0  0  0  0  3  0  0  0  0  0  0
  185.7590  178.1230  143.6030 C   0  0  0  0  0  3  0  0  0  0  0  0
  190.1200  176.9090  143.8780 C   0  0  0  0  0  0  0  0  0  0  0  0
  189.3150  177.4760  146.5100 C   0  0  0  0  0  0  0  0  0  0  0  0
  190.6400  176.5380  142.2100 S   0  0  0  0  0  0  0  0  0  0  0  0
  189.1510  177.2960  141.4910 C   0  0  0  0  0  2  0  0  0  0  0  0
  189.3980  177.6720  140.0390 C   0  0  0  0  0  2  0  0  0  0  0  0
  190.6250  176.9600  139.4880 C   0  0  0  0  0  2  0  0  0  0  0  0
  190.5590  176.8870  138.0370 N   0  0  0  0  0  2  0  0  0  0  0  0
  190.1700  175.5310  137.6930 C   0  0  0  0  0  2  0  0  0  0  0  0
  191.1300  174.6390  138.1670 O   0  0  0  0  0  1  0  0  0  0  0  0
  1 13  1  0  0  0  0
  2  1  1  0  0  0  0
  2 18  1  0  0  0  0
  4  1  2  0  0  0  0
  4  7  1  0  0  0  0
  5  8  2  0  0  0  0
  6  3  2  0  0  0  0
  7 14  1  0  0  0  0
  8  7  1  0  0  0  0
  9 18  2  0  0  0  0
  9 10  1  0  0  0  0
 11  2  2  0  0  0  0
 12 16  2  0  0  0  0
 12  5  1  0  0  0  0
 13 14  2  0  0  0  0
 13  3  1  0  0  0  0
 15  9  1  0  0  0  0
 16  4  1  0  0  0  0
 17 11  1  0  0  0  0
 17 15  2  0  0  0  0
 18  6  1  0  0  0  0
 19 17  1  0  0  0  0
 20 19  1  0  0  0  0
 21 20  1  0  0  0  0
 22 21  1  0  0  0  0
 23 22  1  0  0  0  0
 24 23  1  0  0  0  0
 24 25  1  0  0  0  0
M  END
>  <MODEL>
2

>  <REMARK>
 VINA RESULT:      -9.3      1.536      1.614
  Name = 
  6 active torsions:
  status: ('A' for Active; 'I' for Inactive)
    1  A    between atoms: C_2  and  N_12
    2  A    between atoms: S_6  and  C_15
    3  A    between atoms: S_6  and  C_23
    4  A    between atoms: N_12  and  C_25
    5  A    between atoms: C_15  and  C_21
    6  A    between atoms: C_21  and  C_25
                            x       y       z     vdW  Elec       q    Type
                         _______ _______ _______ _____ _____    ______ ____

>  <TORSDO>
F 6

$$$$
=
 OpenBabel10272400483D

 25 28  0  0  0  0  0  0  0  0999 V2000
  189.4340  177.4560  144.1950 C   0  0  0  0  0  0  0  0  0  0  0  0
  188.4810  177.7010  145.1860 C   0  0  0  0  0  0  0  0  0  0  0  0
  191.1420  176.8960  145.8170 C   0  0  0  0  0  3  0  0  0  0  0  0
  189.4160  177.5100  142.8200 C   0  0  0  0  0  0  0  0  0  0  0  0
  189.9660  177.4430  140.1200 C   0  0  0  0  0  3  0  0  0  0  0  0
  190.2070  177.1340  146.8410 C   0  0  0  0  0  3  0  0  0  0  0  0
  190.6410  177.1650  142.3720 N   0  0  0  0  0  0  0  0  0  0  0  0
  190.9590  177.1170  141.0550 C   0  0  0  0  0  3  0  0  0  0  0  0
  187.9540  177.7710  147.5670 C   0  0  0  0  0  0  0  0  0  0  0  0
  188.3140  177.6200  148.9010 O   0  0  0  0  0  1  0  0  0  0  0  0
  187.1740  178.0960  144.8850 C   0  0  0  0  0  3  0  0  0  0  0  0
  188.6810  177.8050  140.5680 C   0  0  0  0  0  3  0  0  0  0  0  0
  190.7210  177.0660  144.5010 C   0  0  0  0  0  0  0  0  0  0  0  0
  191.4560  176.8890  143.3820 N   0  0  0  0  0  0  0  0  0  0  0  0
  186.6500  178.1660  147.2500 C   0  0  0  0  0  3  0  0  0  0  0  0
  188.3880  177.8430  141.9400 C   0  0  0  0  0  3  0  0  0  0  0  0
  186.2600  178.3240  145.9160 C   0  0  0  0  0  0  0  0  0  0  0  0
  188.8820  177.5340  146.5410 C   0  0  0  0  0  0  0  0  0  0  0  0
  184.5920  178.8350  145.5300 S   0  0  0  0  0  0  0  0  0  0  0  0
  184.9830  179.0620  143.7680 C   0  0  0  0  0  2  0  0  0  0  0  0
  183.8230  178.5950  142.9040 C   0  0  0  0  0  2  0  0  0  0  0  0
  184.3070  178.1410  141.5340 C   0  0  0  0  0  2  0  0  0  0  0  0
  184.8200  179.2730  140.7780 N   0  0  0  0  0  2  0  0  0  0  0  0
  184.0660  179.3370  139.5380 C   0  0  0  0  0  2  0  0  0  0  0  0
  184.2550  180.5840  138.9440 O   0  0  0  0  0  1  0  0  0  0  0  0
  1 13  1  0  0  0  0
  1  2  1  0  0  0  0
  2 18  1  0  0  0  0
  3  6  2  0  0  0  0
  4  1  2  0  0  0  0
  5 12  1  0  0  0  0
  5  8  2  0  0  0  0
  7  4  1  0  0  0  0
  7 14  1  0  0  0  0
  8  7  1  0  0  0  0
  9 10  1  0  0  0  0
 11  2  2  0  0  0  0
 11 17  1  0  0  0  0
 12 16  2  0  0  0  0
 13  3  1  0  0  0  0
 14 13  2  0  0  0  0
 15  9  1  0  0  0  0
 16  4  1  0  0  0  0
 17 15  2  0  0  0  0
 18  6  1  0  0  0  0
 18  9  2  0  0  0  0
 19 17  1  0  0  0  0
 20 19  1  0  0  0  0
 21 20  1  0  0  0  0
 22 21  1  0  0  0  0
 23 22  1  0  0  0  0
 24 23  1  0  0  0  0
 25 24  1  0  0  0  0
M  END
>  <MODEL>
3

>  <REMARK>
 VINA RESULT:      -8.9      2.782      4.909
  Name = 
  6 active torsions:
  status: ('A' for Active; 'I' for Inactive)
    1  A    between atoms: C_2  and  N_12
    2  A    between atoms: S_6  and  C_15
    3  A    between atoms: S_6  and  C_23
    4  A    between atoms: N_12  and  C_25
    5  A    between atoms: C_15  and  C_21
    6  A    between atoms: C_21  and  C_25
                            x       y       z     vdW  Elec       q    Type
                         _______ _______ _______ _____ _____    ______ ____

>  <TORSDO>
F 6

$$$$
=
 OpenBabel10272400483D

 25 28  0  0  0  0  0  0  0  0999 V2000
  187.9960  177.6960  145.8020 C   0  0  0  0  0  0  0  0  0  0  0  0
  186.9790  178.0630  144.9180 C   0  0  0  0  0  0  0  0  0  0  0  0
  186.6240  178.1480  147.7460 C   0  0  0  0  0  3  0  0  0  0  0  0
  189.2860  177.2470  145.6390 C   0  0  0  0  0  0  0  0  0  0  0  0
  191.8730  176.3390  145.9250 C   0  0  0  0  0  3  0  0  0  0  0  0
  185.5780  178.5250  146.8840 C   0  0  0  0  0  3  0  0  0  0  0  0
  189.8170  177.0450  146.8630 N   0  0  0  0  0  0  0  0  0  0  0  0
  191.0830  176.5990  147.0540 C   0  0  0  0  0  3  0  0  0  0  0  0
  184.6940  178.8660  144.6230 C   0  0  0  0  0  0  0  0  0  0  0  0
  183.4730  179.2870  145.1370 O   0  0  0  0  0  1  0  0  0  0  0  0
  187.1460  178.0250  143.5310 C   0  0  0  0  0  3  0  0  0  0  0  0
  191.3370  176.5450  144.6390 C   0  0  0  0  0  3  0  0  0  0  0  0
  187.8230  177.7370  147.1700 C   0  0  0  0  0  0  0  0  0  0  0  0
  188.9410  177.3370  147.8150 N   0  0  0  0  0  0  0  0  0  0  0  0
  184.8760  178.8220  143.2370 C   0  0  0  0  0  3  0  0  0  0  0  0
  190.0220  177.0070  144.4800 C   0  0  0  0  0  3  0  0  0  0  0  0
  186.0940  178.4000  142.6920 C   0  0  0  0  0  0  0  0  0  0  0  0
  185.7410  178.4870  145.4780 C   0  0  0  0  0  0  0  0  0  0  0  0
  186.3100  178.3570  140.9190 S   0  0  0  0  0  0  0  0  0  0  0  0
  188.1090  178.5840  141.0510 C   0  0  0  0  0  2  0  0  0  0  0  0
  188.8390  177.4010  140.4370 C   0  0  0  0  0  2  0  0  0  0  0  0
  189.4920  177.7830  139.1160 C   0  0  0  0  0  2  0  0  0  0  0  0
  189.0750  179.1160  138.7120 N   0  0  0  0  0  2  0  0  0  0  0  0
  188.8660  179.0820  137.2750 C   0  0  0  0  0  2  0  0  0  0  0  0
  187.4990  179.0830  137.0040 O   0  0  0  0  0  1  0  0  0  0  0  0
  1 13  1  0  0  0  0
  2 18  1  0  0  0  0
  2  1  1  0  0  0  0
  4  1  2  0  0  0  0
  4  7  1  0  0  0  0
  5  8  2  0  0  0  0
  6  3  2  0  0  0  0
  7  8  1  0  0  0  0
  7 14  1  0  0  0  0
  9 10  1  0  0  0  0
  9 18  2  0  0  0  0
 11  2  2  0  0  0  0
 12  5  1  0  0  0  0
 13  3  1  0  0  0  0
 13 14  2  0  0  0  0
 15  9  1  0  0  0  0
 16 12  2  0  0  0  0
 16  4  1  0  0  0  0
 17 15  2  0  0  0  0
 17 11  1  0  0  0  0
 18  6  1  0  0  0  0
 19 20  1  0  0  0  0
 19 17  1  0  0  0  0
 21 20  1  0  0  0  0
 22 21  1  0  0  0  0
 23 22  1  0  0  0  0
 24 23  1  0  0  0  0
 25 24  1  0  0  0  0
M  END
>  <MODEL>
4

>  <REMARK>
 VINA RESULT:      -8.8      2.565      4.625
  Name = 
  6 active torsions:
  status: ('A' for Active; 'I' for Inactive)
    1  A    between atoms: C_2  and  N_12
    2  A    between atoms: S_6  and  C_15
    3  A    between atoms: S_6  and  C_23
    4  A    between atoms: N_12  and  C_25
    5  A    between atoms: C_15  and  C_21
    6  A    between atoms: C_21  and  C_25
                            x       y       z     vdW  Elec       q    Type
                         _______ _______ _______ _____ _____    ______ ____

>  <TORSDO>
F 6

$$$$
=
 OpenBabel10272400483D

 25 28  0  0  0  0  0  0  0  0999 V2000
  185.7930  178.4120  144.8030 C   0  0  0  0  0  0  0  0  0  0  0  0
  185.6610  178.4860  143.4150 C   0  0  0  0  0  0  0  0  0  0  0  0
  183.4440  178.8760  145.1650 C   0  0  0  0  0  3  0  0  0  0  0  0
  186.8510  178.1700  145.6490 C   0  0  0  0  0  0  0  0  0  0  0  0
  188.5450  177.7530  147.7830 C   0  0  0  0  0  3  0  0  0  0  0  0
  183.2750  178.9570  143.7700 C   0  0  0  0  0  3  0  0  0  0  0  0
  186.3920  178.2190  146.9170 N   0  0  0  0  0  0  0  0  0  0  0  0
  187.1850  178.0210  147.9980 C   0  0  0  0  0  3  0  0  0  0  0  0
  184.1930  178.8480  141.5000 C   0  0  0  0  0  0  0  0  0  0  0  0
  182.9440  179.1220  140.9540 O   0  0  0  0  0  1  0  0  0  0  0  0
  186.7430  178.2970  142.5500 C   0  0  0  0  0  3  0  0  0  0  0  0
  189.0430  177.6980  146.4660 C   0  0  0  0  0  3  0  0  0  0  0  0
  184.7190  178.6010  145.6480 C   0  0  0  0  0  0  0  0  0  0  0  0
  185.0910  178.4810  146.9420 N   0  0  0  0  0  0  0  0  0  0  0  0
  185.2850  178.6560  140.6470 C   0  0  0  0  0  3  0  0  0  0  0  0
  188.1910  177.9070  145.3720 C   0  0  0  0  0  3  0  0  0  0  0  0
  186.5540  178.3780  141.1680 C   0  0  0  0  0  0  0  0  0  0  0  0
  184.3680  178.7660  142.8900 C   0  0  0  0  0  0  0  0  0  0  0  0
  187.9390  178.1420  140.0650 S   0  0  0  0  0  0  0  0  0  0  0  0
  189.1330  178.1230  141.4370 C   0  0  0  0  0  2  0  0  0  0  0  0
  190.1690  177.0330  141.2210 C   0  0  0  0  0  2  0  0  0  0  0  0
  191.4440  177.3250  142.0000 C   0  0  0  0  0  2  0  0  0  0  0  0
  191.1830  177.2910  143.4300 N   0  0  0  0  0  2  0  0  0  0  0  0
  191.8480  178.4420  144.0140 C   0  0  0  0  0  2  0  0  0  0  0  0
  190.9850  179.5370  143.9930 O   0  0  0  0  0  1  0  0  0  0  0  0
  1 13  1  0  0  0  0
  1  4  2  0  0  0  0
  2  1  1  0  0  0  0
  3 13  1  0  0  0  0
  4  7  1  0  0  0  0
  5  8  2  0  0  0  0
  6  3  2  0  0  0  0
  7 14  1  0  0  0  0
  7  8  1  0  0  0  0
  9 18  2  0  0  0  0
 10  9  1  0  0  0  0
 11  2  2  0  0  0  0
 12  5  1  0  0  0  0
 13 14  2  0  0  0  0
 15 17  2  0  0  0  0
 15  9  1  0  0  0  0
 16  4  1  0  0  0  0
 16 12  2  0  0  0  0
 17 11  1  0  0  0  0
 18  2  1  0  0  0  0
 18  6  1  0  0  0  0
 19 17  1  0  0  0  0
 19 20  1  0  0  0  0
 21 20  1  0  0  0  0
 21 22  1  0  0  0  0
 22 23  1  0  0  0  0
 23 24  1  0  0  0  0
 25 24  1  0  0  0  0
M  END
>  <MODEL>
5

>  <REMARK>
 VINA RESULT:      -8.5      2.456      5.271
  Name = 
  6 active torsions:
  status: ('A' for Active; 'I' for Inactive)
    1  A    between atoms: C_2  and  N_12
    2  A    between atoms: S_6  and  C_15
    3  A    between atoms: S_6  and  C_23
    4  A    between atoms: N_12  and  C_25
    5  A    between atoms: C_15  and  C_21
    6  A    between atoms: C_21  and  C_25
                            x       y       z     vdW  Elec       q    Type
                         _______ _______ _______ _____ _____    ______ ____

>  <TORSDO>
F 6

$$$$
=
 OpenBabel10272400483D

 25 28  0  0  0  0  0  0  0  0999 V2000
  187.8360  177.6930  145.6010 C   0  0  0  0  0  0  0  0  0  0  0  0
  186.9020  178.0370  144.6220 C   0  0  0  0  0  0  0  0  0  0  0  0
  186.2640  178.0880  147.4000 C   0  0  0  0  0  3  0  0  0  0  0  0
  189.1500  177.2850  145.5660 C   0  0  0  0  0  0  0  0  0  0  0  0
  191.7220  176.4530  146.1050 C   0  0  0  0  0  3  0  0  0  0  0  0
  185.2980  178.4400  146.4400 C   0  0  0  0  0  3  0  0  0  0  0  0
  189.5620  177.0890  146.8360 N   0  0  0  0  0  0  0  0  0  0  0  0
  190.8150  176.6800  147.1510 C   0  0  0  0  0  3  0  0  0  0  0  0
  184.6350  178.7720  144.1030 C   0  0  0  0  0  0  0  0  0  0  0  0
  183.3560  179.1520  144.4940 O   0  0  0  0  0  1  0  0  0  0  0  0
  187.2080  178.0140  143.2580 C   0  0  0  0  0  3  0  0  0  0  0  0
  191.3110  176.6530  144.7730 C   0  0  0  0  0  3  0  0  0  0  0  0
  187.5260  177.7180  146.9460 C   0  0  0  0  0  0  0  0  0  0  0  0
  188.5860  177.3470  147.6970 N   0  0  0  0  0  0  0  0  0  0  0  0
  184.9550  178.7440  142.7420 C   0  0  0  0  0  3  0  0  0  0  0  0
  190.0040  177.0760  144.4850 C   0  0  0  0  0  3  0  0  0  0  0  0
  186.2330  178.3640  142.3200 C   0  0  0  0  0  0  0  0  0  0  0  0
  185.6020  178.4190  145.0570 C   0  0  0  0  0  0  0  0  0  0  0  0
  186.6270  178.3420  140.5770 S   0  0  0  0  0  0  0  0  0  0  0  0
  188.4090  178.5160  140.8940 C   0  0  0  0  0  2  0  0  0  0  0  0
  189.2110  177.8730  139.7750 C   0  0  0  0  0  2  0  0  0  0  0  0
  190.2270  176.8820  140.3260 C   0  0  0  0  0  2  0  0  0  0  0  0
  190.6430  175.9520  139.2880 N   0  0  0  0  0  2  0  0  0  0  0  0
  191.5750  176.6600  138.4280 C   0  0  0  0  0  2  0  0  0  0  0  0
  192.7720  176.8680  139.1120 O   0  0  0  0  0  1  0  0  0  0  0  0
  1 13  1  0  0  0  0
  2 18  1  0  0  0  0
  2  1  1  0  0  0  0
  4  1  2  0  0  0  0
  4  7  1  0  0  0  0
  5  8  2  0  0  0  0
  6  3  2  0  0  0  0
  7  8  1  0  0  0  0
  7 14  1  0  0  0  0
  9 10  1  0  0  0  0
  9 18  2  0  0  0  0
 11  2  2  0  0  0  0
 12  5  1  0  0  0  0
 13  3  1  0  0  0  0
 13 14  2  0  0  0  0
 15  9  1  0  0  0  0
 16 12  2  0  0  0  0
 16  4  1  0  0  0  0
 17 15  2  0  0  0  0
 17 11  1  0  0  0  0
 18  6  1  0  0  0  0
 19 20  1  0  0  0  0
 19 17  1  0  0  0  0
 21 22  1  0  0  0  0
 21 20  1  0  0  0  0
 23 22  1  0  0  0  0
 24 25  1  0  0  0  0
 24 23  1  0  0  0  0
M  END
>  <MODEL>
6

>  <REMARK>
 VINA RESULT:      -8.4      2.836      4.822
  Name = 
  6 active torsions:
  status: ('A' for Active; 'I' for Inactive)
    1  A    between atoms: C_2  and  N_12
    2  A    between atoms: S_6  and  C_15
    3  A    between atoms: S_6  and  C_23
    4  A    between atoms: N_12  and  C_25
    5  A    between atoms: C_15  and  C_21
    6  A    between atoms: C_21  and  C_25
                            x       y       z     vdW  Elec       q    Type
                         _______ _______ _______ _____ _____    ______ ____

>  <TORSDO>
F 6

$$$$
=
 OpenBabel10272400483D

 25 28  0  0  0  0  0  0  0  0999 V2000
  188.2950  177.6740  144.1180 C   0  0  0  0  0  0  0  0  0  0  0  0
  186.9420  177.9630  144.3060 C   0  0  0  0  0  0  0  0  0  0  0  0
  188.7250  177.5940  146.4990 C   0  0  0  0  0  3  0  0  0  0  0  0
  189.0880  177.5000  143.0070 C   0  0  0  0  0  0  0  0  0  0  0  0
  191.1190  177.0580  141.1970 C   0  0  0  0  0  3  0  0  0  0  0  0
  187.3660  177.8840  146.7250 C   0  0  0  0  0  3  0  0  0  0  0  0
  190.3430  177.2350  143.4260 N   0  0  0  0  0  0  0  0  0  0  0  0
  191.3740  177.0100  142.5760 C   0  0  0  0  0  3  0  0  0  0  0  0
  185.1170  178.3590  145.8750 C   0  0  0  0  0  0  0  0  0  0  0  0
  184.6240  178.4720  147.1710 O   0  0  0  0  0  1  0  0  0  0  0  0
  186.0610  178.1460  143.2350 C   0  0  0  0  0  3  0  0  0  0  0  0
  189.8160  177.3330  140.7400 C   0  0  0  0  0  3  0  0  0  0  0  0
  189.1570  177.4960  145.1800 C   0  0  0  0  0  0  0  0  0  0  0  0
  190.4090  177.2270  144.7510 N   0  0  0  0  0  0  0  0  0  0  0  0
  184.2480  178.5390  144.7940 C   0  0  0  0  0  3  0  0  0  0  0  0
  188.7730  177.5600  141.6510 C   0  0  0  0  0  3  0  0  0  0  0  0
  184.7150  178.4300  143.4800 C   0  0  0  0  0  0  0  0  0  0  0  0
  186.4710  178.0700  145.6440 C   0  0  0  0  0  0  0  0  0  0  0  0
  183.5930  178.6690  142.1110 S   0  0  0  0  0  0  0  0  0  0  0  0
  184.9550  178.8800  140.9250 C   0  0  0  0  0  2  0  0  0  0  0  0
  184.4080  179.1520  139.5340 C   0  0  0  0  0  2  0  0  0  0  0  0
  185.2410  178.4540  138.4690 C   0  0  0  0  0  2  0  0  0  0  0  0
  186.6540  178.5150  138.8100 N   0  0  0  0  0  2  0  0  0  0  0  0
  187.3460  177.5840  137.9360 C   0  0  0  0  0  2  0  0  0  0  0  0
  186.4200  176.7270  137.3440 O   0  0  0  0  0  1  0  0  0  0  0  0
  1  2  1  0  0  0  0
  1 13  1  0  0  0  0
  2 18  1  0  0  0  0
  3  6  2  0  0  0  0
  4  7  1  0  0  0  0
  4  1  2  0  0  0  0
  5  8  2  0  0  0  0
  7 14  1  0  0  0  0
  8  7  1  0  0  0  0
  9 10  1  0  0  0  0
 11 17  1  0  0  0  0
 11  2  2  0  0  0  0
 12  5  1  0  0  0  0
 12 16  2  0  0  0  0
 13  3  1  0  0  0  0
 14 13  2  0  0  0  0
 15  9  1  0  0  0  0
 16  4  1  0  0  0  0
 17 15  2  0  0  0  0
 18  9  2  0  0  0  0
 18  6  1  0  0  0  0
 19 17  1  0  0  0  0
 20 19  1  0  0  0  0
 21 20  1  0  0  0  0
 22 23  1  0  0  0  0
 22 21  1  0  0  0  0
 24 23  1  0  0  0  0
 25 24  1  0  0  0  0
M  END
>  <MODEL>
7

>  <REMARK>
 VINA RESULT:      -8.3      3.087      5.009
  Name = 
  6 active torsions:
  status: ('A' for Active; 'I' for Inactive)
    1  A    between atoms: C_2  and  N_12
    2  A    between atoms: S_6  and  C_15
    3  A    between atoms: S_6  and  C_23
    4  A    between atoms: N_12  and  C_25
    5  A    between atoms: C_15  and  C_21
    6  A    between atoms: C_21  and  C_25
                            x       y       z     vdW  Elec       q    Type
                         _______ _______ _______ _____ _____    ______ ____

>  <TORSDO>
F 6

$$$$
=
 OpenBabel10272400483D

 25 28  0  0  0  0  0  0  0  0999 V2000
  189.5190  177.3810  143.9260 C   0  0  0  0  0  0  0  0  0  0  0  0
  188.5840  177.6290  144.9330 C   0  0  0  0  0  0  0  0  0  0  0  0
  191.2460  176.7920  145.5170 C   0  0  0  0  0  3  0  0  0  0  0  0
  189.4810  177.4460  142.5520 C   0  0  0  0  0  0  0  0  0  0  0  0
  189.9900  177.3930  139.8430 C   0  0  0  0  0  3  0  0  0  0  0  0
  190.3280  177.0320  146.5580 C   0  0  0  0  0  3  0  0  0  0  0  0
  190.6960  177.0920  142.0830 N   0  0  0  0  0  0  0  0  0  0  0  0
  190.9940  177.0510  140.7610 C   0  0  0  0  0  3  0  0  0  0  0  0
  188.0930  177.6870  147.3220 C   0  0  0  0  0  0  0  0  0  0  0  0
  188.4720  177.5220  148.6490 O   0  0  0  0  0  1  0  0  0  0  0  0
  187.2770  178.0390  144.6540 C   0  0  0  0  0  3  0  0  0  0  0  0
  188.7160  177.7650  140.3130 C   0  0  0  0  0  3  0  0  0  0  0  0
  190.8070  176.9760  144.2100 C   0  0  0  0  0  0  0  0  0  0  0  0
  191.5230  176.8000  143.0780 N   0  0  0  0  0  0  0  0  0  0  0  0
  186.7890  178.0970  147.0270 C   0  0  0  0  0  3  0  0  0  0  0  0
  188.4440  177.7960  141.6900 C   0  0  0  0  0  3  0  0  0  0  0  0
  186.3800  178.2690  145.7000 C   0  0  0  0  0  0  0  0  0  0  0  0
  189.0040  177.4480  146.2800 C   0  0  0  0  0  0  0  0  0  0  0  0
  184.7120  178.8000  145.3430 S   0  0  0  0  0  0  0  0  0  0  0  0
  185.0140  178.8120  143.5490 C   0  0  0  0  0  2  0  0  0  0  0  0
  183.6990  178.7310  142.7910 C   0  0  0  0  0  2  0  0  0  0  0  0
  182.5190  179.0280  143.7050 C   0  0  0  0  0  2  0  0  0  0  0  0
  181.3050  179.2080  142.9230 N   0  0  0  0  0  2  0  0  0  0  0  0
  181.6100  178.8040  141.5620 C   0  0  0  0  0  2  0  0  0  0  0  0
  180.6520  179.3310  140.6960 O   0  0  0  0  0  1  0  0  0  0  0  0
  1 13  1  0  0  0  0
  1  2  1  0  0  0  0
  2 18  1  0  0  0  0
  3  6  2  0  0  0  0
  4  1  2  0  0  0  0
  5 12  1  0  0  0  0
  5  8  2  0  0  0  0
  7  4  1  0  0  0  0
  7 14  1  0  0  0  0
  8  7  1  0  0  0  0
  9 10  1  0  0  0  0
 11  2  2  0  0  0  0
 11 17  1  0  0  0  0
 12 16  2  0  0  0  0
 13  3  1  0  0  0  0
 14 13  2  0  0  0  0
 15  9  1  0  0  0  0
 16  4  1  0  0  0  0
 17 15  2  0  0  0  0
 18  6  1  0  0  0  0
 18  9  2  0  0  0  0
 19 17  1  0  0  0  0
 20 19  1  0  0  0  0
 21 20  1  0  0  0  0
 21 22  1  0  0  0  0
 23 22  1  0  0  0  0
 24 23  1  0  0  0  0
 25 24  1  0  0  0  0
M  END
>  <MODEL>
8

>  <REMARK>
 VINA RESULT:      -8.2      3.123      5.582
  Name = 
  6 active torsions:
  status: ('A' for Active; 'I' for Inactive)
    1  A    between atoms: C_2  and  N_12
    2  A    between atoms: S_6  and  C_15
    3  A    between atoms: S_6  and  C_23
    4  A    between atoms: N_12  and  C_25
    5  A    between atoms: C_15  and  C_21
    6  A    between atoms: C_21  and  C_25
                            x       y       z     vdW  Elec       q    Type
                         _______ _______ _______ _____ _____    ______ ____

>  <TORSDO>
F 6

$$$$
=
 OpenBabel10272400483D

 25 28  0  0  0  0  0  0  0  0999 V2000
  186.2000  178.2750  144.9400 C   0  0  0  0  0  0  0  0  0  0  0  0
  186.0310  178.3770  143.5570 C   0  0  0  0  0  0  0  0  0  0  0  0
  183.8740  178.7890  145.3750 C   0  0  0  0  0  3  0  0  0  0  0  0
  187.2740  177.9900  145.7520 C   0  0  0  0  0  0  0  0  0  0  0  0
  189.0150  177.4930  147.8300 C   0  0  0  0  0  3  0  0  0  0  0  0
  183.6690  178.9000  143.9870 C   0  0  0  0  0  3  0  0  0  0  0  0
  186.8510  178.0280  147.0330 N   0  0  0  0  0  0  0  0  0  0  0  0
  187.6690  177.7910  148.0870 C   0  0  0  0  0  3  0  0  0  0  0  0
  184.5220  178.8100  141.6900 C   0  0  0  0  0  0  0  0  0  0  0  0
  183.2650  179.1240  141.1850 O   0  0  0  0  0  1  0  0  0  0  0  0
  187.0840  178.1770  142.6600 C   0  0  0  0  0  3  0  0  0  0  0  0
  189.4750  177.4500  146.4990 C   0  0  0  0  0  3  0  0  0  0  0  0
  185.1550  178.4740  145.8180 C   0  0  0  0  0  0  0  0  0  0  0  0
  185.5590  178.3220  147.0980 N   0  0  0  0  0  0  0  0  0  0  0  0
  185.5850  178.6070  140.8050 C   0  0  0  0  0  3  0  0  0  0  0  0
  188.5990  177.7010  145.4320 C   0  0  0  0  0  3  0  0  0  0  0  0
  186.8600  178.2880  141.2850 C   0  0  0  0  0  0  0  0  0  0  0  0
  184.7320  178.6980  143.0740 C   0  0  0  0  0  0  0  0  0  0  0  0
  188.2080  178.0380  140.1400 S   0  0  0  0  0  0  0  0  0  0  0  0
  189.4000  177.7430  141.4810 C   0  0  0  0  0  2  0  0  0  0  0  0
  190.5140  176.8250  141.0060 C   0  0  0  0  0  2  0  0  0  0  0  0
  190.8160  177.0450  139.5310 C   0  0  0  0  0  2  0  0  0  0  0  0
  190.8960  175.7700  138.8340 N   0  0  0  0  0  2  0  0  0  0  0  0
  190.8010  176.0520  137.4130 C   0  0  0  0  0  2  0  0  0  0  0  0
  189.4730  176.3140  137.0790 O   0  0  0  0  0  1  0  0  0  0  0  0
  1  4  2  0  0  0  0
  1 13  1  0  0  0  0
  2  1  1  0  0  0  0
  3 13  1  0  0  0  0
  4  7  1  0  0  0  0
  5  8  2  0  0  0  0
  6  3  2  0  0  0  0
  7 14  1  0  0  0  0
  7  8  1  0  0  0  0
  9 18  2  0  0  0  0
 10  9  1  0  0  0  0
 11  2  2  0  0  0  0
 12  5  1  0  0  0  0
 13 14  2  0  0  0  0
 15 17  2  0  0  0  0
 15  9  1  0  0  0  0
 16  4  1  0  0  0  0
 16 12  2  0  0  0  0
 17 11  1  0  0  0  0
 18  2  1  0  0  0  0
 18  6  1  0  0  0  0
 19 17  1  0  0  0  0
 19 20  1  0  0  0  0
 21 20  1  0  0  0  0
 22 21  1  0  0  0  0
 23 22  1  0  0  0  0
 24 23  1  0  0  0  0
 25 24  1  0  0  0  0
M  END
>  <MODEL>
9

>  <REMARK>
 VINA RESULT:      -8.0      2.767      4.826
  Name = 
  6 active torsions:
  status: ('A' for Active; 'I' for Inactive)
    1  A    between atoms: C_2  and  N_12
    2  A    between atoms: S_6  and  C_15
    3  A    between atoms: S_6  and  C_23
    4  A    between atoms: N_12  and  C_25
    5  A    between atoms: C_15  and  C_21
    6  A    between atoms: C_21  and  C_25
                            x       y       z     vdW  Elec       q    Type
                         _______ _______ _______ _____ _____    ______ ____

>  <TORSDO>
F 6

$$$$
