=
 OpenBabel10272414123D

 43 48  0  0  1  0  0  0  0  0999 V2000
  188.8970  178.1210  140.2840 C   0  0  0  0  0  2  0  0  0  0  0  0
  189.4780  177.6670  141.6240 C   0  0  1  0  0  3  0  0  0  0  0  0
  187.7750  179.1310  140.5110 C   0  0  0  0  0  2  0  0  0  0  0  0
  188.3950  177.0680  142.5180 C   0  0  0  0  0  2  0  0  0  0  0  0
  187.2550  178.0600  142.7180 C   0  0  1  0  0  3  0  0  0  0  0  0
  186.6770  178.5200  141.3760 C   0  0  0  0  0  2  0  0  0  0  0  0
  187.7380  178.0020  147.7090 C   0  0  0  0  0  0  0  0  0  0  0  0
  184.7650  178.0640  143.5550 C   0  0  1  0  0  3  0  0  0  0  0  0
  186.1310  178.6330  146.0040 C   0  0  0  0  0  0  0  0  0  0  0  0
  188.2980  177.0620  146.8410 C   0  0  0  0  0  3  0  0  0  0  0  0
  188.2640  178.1600  149.0210 N   0  0  0  0  0  1  0  0  0  0  0  0
  186.6950  177.6770  145.1260 C   0  0  0  0  0  0  0  0  0  0  0  0
  186.6520  178.7770  147.2940 C   0  0  0  0  0  3  0  0  0  0  0  0
  187.7800  176.9020  145.5540 C   0  0  0  0  0  3  0  0  0  0  0  0
  186.2040  177.5230  143.7100 C   0  0  2  0  0  3  0  0  0  0  0  0
  184.6390  179.4640  144.1390 C   0  0  0  0  0  2  0  0  0  0  0  0
  184.8980  179.4170  145.6430 C   0  0  0  0  0  2  0  0  0  0  0  0
  184.2160  177.9990  142.1370 C   0  0  0  0  0  2  0  0  0  0  0  0
  182.7860  178.5210  142.1010 C   0  0  0  0  0  2  0  0  0  0  0  0
  183.2160  180.1940  138.8010 C   0  0  0  0  0  2  0  0  0  0  0  0
  181.7700  180.4230  138.3130 C   0  0  1  0  0  3  0  0  0  0  0  0
  181.1030  179.2330  140.4490 C   0  0  0  0  0  3  0  0  0  0  0  0
  183.3720  178.8960  139.5980 C   0  0  0  0  0  2  0  0  0  0  0  0
  182.3690  178.8860  140.7130 C   0  0  0  0  0  0  0  0  0  0  0  0
  180.7020  179.5810  139.0420 C   0  0  0  0  0  2  0  0  0  0  0  0
  180.8010  182.0810  137.2120 C   0  0  0  0  0  1  0  0  0  0  0  0
  181.4520  181.7790  138.4100 O   0  0  0  0  0  0  0  0  0  0  0  0
  190.6270  176.6840  141.4340 C   0  0  0  0  0  2  0  0  0  0  0  0
  191.7660  177.1910  140.1020 S   0  0  0  0  0  0  0  0  0  0  0  0
  191.0510  175.9760  138.9550 C   0  0  0  0  0  2  0  0  0  0  0  0
  191.5540  176.1850  137.5980 N   0  0  0  0  0  0  0  0  0  0  0  0
  190.6370  176.3840  136.4970 C   0  0  0  0  0  0  0  0  0  0  0  0
  191.0000  176.0810  135.3280 O   0  0  0  0  0  0  0  0  0  0  0  0
  189.2760  176.9390  136.6910 C   0  0  0  0  0  0  0  0  0  0  0  0
  187.7950  178.8680  136.7850 C   0  0  0  0  0  3  0  0  0  0  0  0
  186.9210  176.6580  137.2360 C   0  0  0  0  0  3  0  0  0  0  0  0
  186.7220  178.0350  137.1110 C   0  0  0  0  0  3  0  0  0  0  0  0
  188.1920  176.1150  137.0310 C   0  0  0  0  0  3  0  0  0  0  0  0
  189.0660  178.3230  136.5790 C   0  0  0  0  0  3  0  0  0  0  0  0
  193.5790  176.0800  136.1470 C   0  0  0  0  0  2  0  0  0  0  0  0
  193.2350  173.9660  137.3240 C   0  0  0  0  0  1  0  0  0  0  0  0
  192.9730  176.5430  137.4620 C   0  0  2  0  0  3  0  0  0  0  0  0
  193.9120  175.3240  137.4110 C   0  0  2  0  0  3  0  0  0  0  0  0
  1  3  1  0  0  0  0
  1  2  1  0  0  0  0
  2 28  1  6  0  0  0
  2  4  1  0  0  0  0
  3  6  1  0  0  0  0
  4  5  1  0  0  0  0
  5  6  1  6  0  0  0
  5 15  1  0  0  0  0
  7 11  1  0  0  0  0
  8 18  1  6  0  0  0
  8 15  1  0  0  0  0
  8 16  1  0  0  0  0
  9 13  2  0  0  0  0
 10  7  2  0  0  0  0
 12 14  2  0  0  0  0
 12  9  1  0  0  0  0
 13  7  1  0  0  0  0
 14 10  1  0  0  0  0
 15 12  1  1  0  0  0
 16 17  1  0  0  0  0
 17  9  1  0  0  0  0
 19 18  1  0  0  0  0
 20 23  1  0  0  0  0
 21 27  1  1  0  0  0
 21 20  1  0  0  0  0
 21 25  1  0  0  0  0
 22 24  2  0  0  0  0
 23 24  1  0  0  0  0
 24 19  1  0  0  0  0
 25 22  1  0  0  0  0
 26 27  1  0  0  0  0
 29 28  1  0  0  0  0
 30 29  1  0  0  0  0
 31 30  1  0  0  0  0
 32 34  1  0  0  0  0
 32 31  1  0  0  0  0
 33 32  2  0  0  0  0
 34 38  1  0  0  0  0
 35 37  2  0  0  0  0
 37 36  1  0  0  0  0
 38 36  2  0  0  0  0
 39 34  2  0  0  0  0
 39 35  1  0  0  0  0
 40 43  1  0  0  0  0
 40 42  1  0  0  0  0
 42 31  1  6  0  0  0
 43 41  1  6  0  0  0
 43 42  1  0  0  0  0
M  END
>  <MODEL>
1

>  <REMARK>
 VINA RESULT:      -8.5      0.000      0.000
  Name = 
  11 active torsions:
  status: ('A' for Active; 'I' for Inactive)
    1  A    between atoms: C_1  and  C_34
    2  A    between atoms: C_1  and  C_35
    3  A    between atoms: C_3  and  N_4
    4  A    between atoms: C_3  and  S_12
    5  A    between atoms: N_4  and  C_22
    6  A    between atoms: C_6  and  C_17
    7  A    between atoms: C_8  and  C_34
    8  A    between atoms: C_11  and  C_14
    9  A    between atoms: S_12  and  C_17
   10  A    between atoms: C_19  and  O_37
   11  A    between atoms: C_27  and  C_30
                            x       y       z     vdW  Elec       q    Type
                         _______ _______ _______ _____ _____    ______ ____

>  <TORSDO>
F 11

$$$$
=
 OpenBabel10272414123D

 43 48  0  0  1  0  0  0  0  0999 V2000
  188.9950  178.8630  138.2710 C   0  0  0  0  0  2  0  0  0  0  0  0
  188.5210  177.5270  138.8470 C   0  0  1  0  0  3  0  0  0  0  0  0
  188.2990  179.1400  136.9420 C   0  0  0  0  0  2  0  0  0  0  0  0
  188.7740  176.3850  137.8660 C   0  0  0  0  0  2  0  0  0  0  0  0
  188.1120  176.6750  136.5230 C   0  0  1  0  0  3  0  0  0  0  0  0
  188.5810  178.0150  135.9500 C   0  0  0  0  0  2  0  0  0  0  0  0
  192.2630  173.9360  135.8830 C   0  0  0  0  0  0  0  0  0  0  0  0
  187.1790  174.3800  135.6490 C   0  0  1  0  0  3  0  0  0  0  0  0
  189.8810  173.6450  136.2400 C   0  0  0  0  0  0  0  0  0  0  0  0
  192.0290  175.1810  135.2950 C   0  0  0  0  0  3  0  0  0  0  0  0
  193.5930  173.4430  135.9990 N   0  0  0  0  0  1  0  0  0  0  0  0
  189.6430  174.9040  135.6400 C   0  0  0  0  0  0  0  0  0  0  0  0
  191.1910  173.1680  136.3440 C   0  0  0  0  0  3  0  0  0  0  0  0
  190.7230  175.6640  135.1760 C   0  0  0  0  0  3  0  0  0  0  0  0
  188.2550  175.4850  135.5530 C   0  0  2  0  0  3  0  0  0  0  0  0
  187.4310  173.4710  136.8430 C   0  0  0  0  0  2  0  0  0  0  0  0
  188.7570  172.7360  136.6570 C   0  0  0  0  0  2  0  0  0  0  0  0
  185.7460  174.8910  135.6290 C   0  0  0  0  0  2  0  0  0  0  0  0
  185.0640  174.6020  136.9600 C   0  0  0  0  0  2  0  0  0  0  0  0
  184.8310  178.0620  138.3170 C   0  0  0  0  0  2  0  0  0  0  0  0
  183.5230  178.0500  139.1360 C   0  0  1  0  0  3  0  0  0  0  0  0
  183.3060  175.6590  138.3240 C   0  0  0  0  0  3  0  0  0  0  0  0
  184.7560  177.1790  137.0690 C   0  0  0  0  0  2  0  0  0  0  0  0
  184.3320  175.7990  137.4750 C   0  0  0  0  0  0  0  0  0  0  0  0
  182.5730  176.8760  138.8160 C   0  0  0  0  0  2  0  0  0  0  0  0
  184.8970  178.9430  140.6230 C   0  0  0  0  0  1  0  0  0  0  0  0
  183.8240  178.0590  140.4990 O   0  0  0  0  0  0  0  0  0  0  0  0
  189.1690  177.2350  140.1950 C   0  0  0  0  0  2  0  0  0  0  0  0
  188.5750  178.3500  141.5100 S   0  0  0  0  0  0  0  0  0  0  0  0
  188.2390  176.9500  142.6200 C   0  0  0  0  0  2  0  0  0  0  0  0
  189.0750  177.0230  143.8170 N   0  0  0  0  0  0  0  0  0  0  0  0
  188.6380  177.7740  144.9730 C   0  0  0  0  0  0  0  0  0  0  0  0
  189.4990  178.2410  145.7680 O   0  0  0  0  0  0  0  0  0  0  0  0
  187.2050  178.0160  145.2650 C   0  0  0  0  0  0  0  0  0  0  0  0
  184.9480  178.4470  144.4630 C   0  0  0  0  0  3  0  0  0  0  0  0
  185.3860  178.3750  146.8400 C   0  0  0  0  0  3  0  0  0  0  0  0
  184.4920  178.5370  145.7800 C   0  0  0  0  0  3  0  0  0  0  0  0
  186.7360  178.1200  146.5840 C   0  0  0  0  0  3  0  0  0  0  0  0
  186.2990  178.1910  144.2070 C   0  0  0  0  0  3  0  0  0  0  0  0
  191.2570  176.4710  144.8920 C   0  0  0  0  0  2  0  0  0  0  0  0
  191.5670  178.0200  143.0270 C   0  0  0  0  0  1  0  0  0  0  0  0
  190.1600  176.0370  143.9330 C   0  0  2  0  0  3  0  0  0  0  0  0
  191.5140  176.5490  143.4060 C   0  0  2  0  0  3  0  0  0  0  0  0
  1  2  1  0  0  0  0
  2 28  1  1  0  0  0
  3  1  1  0  0  0  0
  4  2  1  0  0  0  0
  5  6  1  6  0  0  0
  5  4  1  0  0  0  0
  6  3  1  0  0  0  0
  7 11  1  0  0  0  0
  7 13  1  0  0  0  0
  8 18  1  1  0  0  0
  8 16  1  0  0  0  0
  9 13  2  0  0  0  0
  9 17  1  0  0  0  0
 10  7  2  0  0  0  0
 12  9  1  0  0  0  0
 14 10  1  0  0  0  0
 14 12  2  0  0  0  0
 15 12  1  1  0  0  0
 15  8  1  0  0  0  0
 15  5  1  0  0  0  0
 17 16  1  0  0  0  0
 18 19  1  0  0  0  0
 19 24  1  0  0  0  0
 20 21  1  0  0  0  0
 21 27  1  1  0  0  0
 22 25  1  0  0  0  0
 23 24  1  0  0  0  0
 23 20  1  0  0  0  0
 24 22  2  0  0  0  0
 25 21  1  0  0  0  0
 27 26  1  0  0  0  0
 28 29  1  0  0  0  0
 29 30  1  0  0  0  0
 30 31  1  0  0  0  0
 31 32  1  0  0  0  0
 32 34  1  0  0  0  0
 32 33  2  0  0  0  0
 34 38  1  0  0  0  0
 35 37  2  0  0  0  0
 37 36  1  0  0  0  0
 38 36  2  0  0  0  0
 39 35  1  0  0  0  0
 39 34  2  0  0  0  0
 42 31  1  6  0  0  0
 42 40  1  0  0  0  0
 43 41  1  6  0  0  0
 43 42  1  0  0  0  0
 43 40  1  0  0  0  0
M  END
>  <MODEL>
2

>  <REMARK>
 VINA RESULT:      -8.3      2.852      8.122
  Name = 
  11 active torsions:
  status: ('A' for Active; 'I' for Inactive)
    1  A    between atoms: C_1  and  C_34
    2  A    between atoms: C_1  and  C_35
    3  A    between atoms: C_3  and  N_4
    4  A    between atoms: C_3  and  S_12
    5  A    between atoms: N_4  and  C_22
    6  A    between atoms: C_6  and  C_17
    7  A    between atoms: C_8  and  C_34
    8  A    between atoms: C_11  and  C_14
    9  A    between atoms: S_12  and  C_17
   10  A    between atoms: C_19  and  O_37
   11  A    between atoms: C_27  and  C_30
                            x       y       z     vdW  Elec       q    Type
                         _______ _______ _______ _____ _____    ______ ____

>  <TORSDO>
F 11

$$$$
=
 OpenBabel10272414123D

 43 48  0  0  1  0  0  0  0  0999 V2000
  186.9970  178.2850  137.1510 C   0  0  0  0  0  2  0  0  0  0  0  0
  187.0610  176.7820  136.8710 C   0  0  1  0  0  3  0  0  0  0  0  0
  188.4000  178.8860  137.1230 C   0  0  0  0  0  2  0  0  0  0  0  0
  187.9660  176.0740  137.8770 C   0  0  0  0  0  2  0  0  0  0  0  0
  189.3570  176.6960  137.8790 C   0  0  1  0  0  3  0  0  0  0  0  0
  189.2920  178.2010  138.1530 C   0  0  0  0  0  2  0  0  0  0  0  0
  193.6330  174.5080  136.4360 C   0  0  0  0  0  0  0  0  0  0  0  0
  190.7750  176.6490  140.0900 C   0  0  1  0  0  3  0  0  0  0  0  0
  192.7910  175.9790  138.1730 C   0  0  0  0  0  0  0  0  0  0  0  0
  192.3600  173.9550  136.2800 C   0  0  0  0  0  3  0  0  0  0  0  0
  194.7140  174.0420  135.6380 N   0  0  0  0  0  1  0  0  0  0  0  0
  191.5020  175.4160  138.0180 C   0  0  0  0  0  0  0  0  0  0  0  0
  193.8480  175.5090  137.3860 C   0  0  0  0  0  3  0  0  0  0  0  0
  191.2980  174.4090  137.0660 C   0  0  0  0  0  3  0  0  0  0  0  0
  190.3210  175.9240  138.8030 C   0  0  2  0  0  3  0  0  0  0  0  0
  191.8500  177.6830  139.7880 C   0  0  0  0  0  2  0  0  0  0  0  0
  193.0970  176.9830  139.2510 C   0  0  0  0  0  2  0  0  0  0  0  0
  189.6410  177.2460  140.9110 C   0  0  0  0  0  2  0  0  0  0  0  0
  189.2850  176.3210  142.0680 C   0  0  0  0  0  2  0  0  0  0  0  0
  191.2840  177.4980  144.9810 C   0  0  0  0  0  2  0  0  0  0  0  0
  190.2630  177.5360  146.1380 C   0  0  1  0  0  3  0  0  0  0  0  0
  188.5880  176.8110  144.3790 C   0  0  0  0  0  3  0  0  0  0  0  0
  190.6640  177.8700  143.6320 C   0  0  0  0  0  2  0  0  0  0  0  0
  189.4690  176.9960  143.3890 C   0  0  0  0  0  0  0  0  0  0  0  0
  188.7850  177.5140  145.6940 C   0  0  0  0  0  2  0  0  0  0  0  0
  191.8680  176.1950  146.8600 C   0  0  0  0  0  1  0  0  0  0  0  0
  190.5100  176.4800  147.0160 O   0  0  0  0  0  0  0  0  0  0  0  0
  185.6730  176.1540  136.8550 C   0  0  0  0  0  2  0  0  0  0  0  0
  184.3540  177.3840  136.5870 S   0  0  0  0  0  0  0  0  0  0  0  0
  183.6070  177.0140  138.2030 C   0  0  0  0  0  2  0  0  0  0  0  0
  182.6870  178.0760  138.6050 N   0  0  0  0  0  0  0  0  0  0  0  0
  182.7160  178.6020  139.9520 C   0  0  0  0  0  0  0  0  0  0  0  0
  181.6730  179.1210  140.4350 O   0  0  0  0  0  0  0  0  0  0  0  0
  183.9360  178.5580  140.7930 C   0  0  0  0  0  0  0  0  0  0  0  0
  184.9650  178.2280  142.9730 C   0  0  0  0  0  3  0  0  0  0  0  0
  186.3350  178.8450  141.0780 C   0  0  0  0  0  3  0  0  0  0  0  0
  186.2190  178.5250  142.4320 C   0  0  0  0  0  3  0  0  0  0  0  0
  185.1990  178.8660  140.2640 C   0  0  0  0  0  3  0  0  0  0  0  0
  183.8300  178.2470  142.1580 C   0  0  0  0  0  3  0  0  0  0  0  0
  180.6900  179.4240  137.9620 C   0  0  0  0  0  2  0  0  0  0  0  0
  180.1750  177.0350  137.9450 C   0  0  0  0  0  1  0  0  0  0  0  0
  182.0140  178.8170  137.5280 C   0  0  2  0  0  3  0  0  0  0  0  0
  180.6770  178.1890  137.0930 C   0  0  2  0  0  3  0  0  0  0  0  0
  2 28  1  1  0  0  0
  2  1  1  0  0  0  0
  2  4  1  0  0  0  0
  3  1  1  0  0  0  0
  3  6  1  0  0  0  0
  5  4  1  1  0  0  0
  5  6  1  0  0  0  0
  5 15  1  0  0  0  0
  7 13  1  0  0  0  0
  8 18  1  6  0  0  0
  9 17  1  0  0  0  0
 10  7  2  0  0  0  0
 10 14  1  0  0  0  0
 11  7  1  0  0  0  0
 12  9  1  0  0  0  0
 13  9  2  0  0  0  0
 14 12  2  0  0  0  0
 15 12  1  6  0  0  0
 15  8  1  0  0  0  0
 16  8  1  0  0  0  0
 17 16  1  0  0  0  0
 18 19  1  0  0  0  0
 19 24  1  0  0  0  0
 20 21  1  0  0  0  0
 21 27  1  1  0  0  0
 22 25  1  0  0  0  0
 23 20  1  0  0  0  0
 24 23  1  0  0  0  0
 24 22  2  0  0  0  0
 25 21  1  0  0  0  0
 26 27  1  0  0  0  0
 29 28  1  0  0  0  0
 29 30  1  0  0  0  0
 30 31  1  0  0  0  0
 31 32  1  0  0  0  0
 32 33  2  0  0  0  0
 32 34  1  0  0  0  0
 34 39  1  0  0  0  0
 36 37  2  0  0  0  0
 37 35  1  0  0  0  0
 38 34  2  0  0  0  0
 38 36  1  0  0  0  0
 39 35  2  0  0  0  0
 42 40  1  0  0  0  0
 42 31  1  1  0  0  0
 43 42  1  0  0  0  0
 43 41  1  1  0  0  0
 43 40  1  0  0  0  0
M  END
>  <MODEL>
3

>  <REMARK>
 VINA RESULT:      -8.2      3.225      9.450
  Name = 
  11 active torsions:
  status: ('A' for Active; 'I' for Inactive)
    1  A    between atoms: C_1  and  C_34
    2  A    between atoms: C_1  and  C_35
    3  A    between atoms: C_3  and  N_4
    4  A    between atoms: C_3  and  S_12
    5  A    between atoms: N_4  and  C_22
    6  A    between atoms: C_6  and  C_17
    7  A    between atoms: C_8  and  C_34
    8  A    between atoms: C_11  and  C_14
    9  A    between atoms: S_12  and  C_17
   10  A    between atoms: C_19  and  O_37
   11  A    between atoms: C_27  and  C_30
                            x       y       z     vdW  Elec       q    Type
                         _______ _______ _______ _____ _____    ______ ____

>  <TORSDO>
F 11

$$$$
=
 OpenBabel10272414123D

 43 48  0  0  1  0  0  0  0  0999 V2000
  187.1880  179.0130  137.0780 C   0  0  0  0  0  2  0  0  0  0  0  0
  186.6890  177.5900  137.3310 C   0  0  1  0  0  3  0  0  0  0  0  0
  188.6410  178.9870  136.6090 C   0  0  0  0  0  2  0  0  0  0  0  0
  187.5660  176.8740  138.3550 C   0  0  0  0  0  2  0  0  0  0  0  0
  189.0240  176.8780  137.9090 C   0  0  1  0  0  3  0  0  0  0  0  0
  189.5220  178.3020  137.6490 C   0  0  0  0  0  2  0  0  0  0  0  0
  193.2580  174.5070  136.6420 C   0  0  0  0  0  0  0  0  0  0  0  0
  190.3410  176.7610  140.1790 C   0  0  1  0  0  3  0  0  0  0  0  0
  192.4070  176.0090  138.3480 C   0  0  0  0  0  0  0  0  0  0  0  0
  191.9700  174.0120  136.4280 C   0  0  0  0  0  3  0  0  0  0  0  0
  194.3510  173.9960  135.8890 N   0  0  0  0  0  1  0  0  0  0  0  0
  191.1020  175.5030  138.1340 C   0  0  0  0  0  0  0  0  0  0  0  0
  193.4750  175.4950  137.6060 C   0  0  0  0  0  3  0  0  0  0  0  0
  190.8960  174.5090  137.1700 C   0  0  0  0  0  3  0  0  0  0  0  0
  189.9120  176.0610  138.8700 C   0  0  2  0  0  3  0  0  0  0  0  0
  191.4730  177.7470  139.9290 C   0  0  0  0  0  2  0  0  0  0  0  0
  192.7100  176.9950  139.4430 C   0  0  0  0  0  2  0  0  0  0  0  0
  189.2000  177.4050  140.9530 C   0  0  0  0  0  2  0  0  0  0  0  0
  188.7930  176.5210  142.1250 C   0  0  0  0  0  2  0  0  0  0  0  0
  191.0940  177.6950  144.8090 C   0  0  0  0  0  2  0  0  0  0  0  0
  190.2250  177.6540  146.0840 C   0  0  1  0  0  3  0  0  0  0  0  0
  188.3730  176.9100  144.5210 C   0  0  0  0  0  3  0  0  0  0  0  0
  190.2950  178.0810  143.5610 C   0  0  0  0  0  2  0  0  0  0  0  0
  189.1150  177.1630  143.4360 C   0  0  0  0  0  0  0  0  0  0  0  0
  188.7050  177.5800  145.8260 C   0  0  0  0  0  2  0  0  0  0  0  0
  191.8860  176.2270  146.4090 C   0  0  0  0  0  1  0  0  0  0  0  0
  190.6230  176.5830  146.8860 O   0  0  0  0  0  0  0  0  0  0  0  0
  185.2290  177.5760  137.7650 C   0  0  0  0  0  2  0  0  0  0  0  0
  184.8160  178.9670  138.8700 S   0  0  0  0  0  0  0  0  0  0  0  0
  183.7820  177.8990  139.9170 C   0  0  0  0  0  2  0  0  0  0  0  0
  182.5490  178.5840  140.2990 N   0  0  0  0  0  0  0  0  0  0  0  0
  182.1770  178.7060  141.6910 C   0  0  0  0  0  0  0  0  0  0  0  0
  180.9610  178.8330  141.9980 O   0  0  0  0  0  0  0  0  0  0  0  0
  183.1810  178.6910  142.7830 C   0  0  0  0  0  0  0  0  0  0  0  0
  183.7030  178.9120  145.1490 C   0  0  0  0  0  3  0  0  0  0  0  0
  185.4830  178.5380  143.5550 C   0  0  0  0  0  3  0  0  0  0  0  0
  185.0610  178.7310  144.8710 C   0  0  0  0  0  3  0  0  0  0  0  0
  184.5480  178.5230  142.5160 C   0  0  0  0  0  3  0  0  0  0  0  0
  182.7690  178.8950  144.1090 C   0  0  0  0  0  3  0  0  0  0  0  0
  180.4120  179.5560  139.4580 C   0  0  0  0  0  2  0  0  0  0  0  0
  180.6550  177.2310  138.7460 C   0  0  0  0  0  1  0  0  0  0  0  0
  181.9170  179.4340  139.2790 C   0  0  2  0  0  3  0  0  0  0  0  0
  180.9480  178.6710  138.3580 C   0  0  2  0  0  3  0  0  0  0  0  0
  1  2  1  0  0  0  0
  2 28  1  1  0  0  0
  2  4  1  0  0  0  0
  3  1  1  0  0  0  0
  3  6  1  0  0  0  0
  5  6  1  1  0  0  0
  5  4  1  0  0  0  0
  5 15  1  0  0  0  0
  7 13  1  0  0  0  0
  8 18  1  6  0  0  0
  9 17  1  0  0  0  0
 10  7  2  0  0  0  0
 10 14  1  0  0  0  0
 11  7  1  0  0  0  0
 12  9  1  0  0  0  0
 13  9  2  0  0  0  0
 14 12  2  0  0  0  0
 15 12  1  6  0  0  0
 15  8  1  0  0  0  0
 16  8  1  0  0  0  0
 17 16  1  0  0  0  0
 18 19  1  0  0  0  0
 19 24  1  0  0  0  0
 20 21  1  0  0  0  0
 21 27  1  1  0  0  0
 22 25  1  0  0  0  0
 23 20  1  0  0  0  0
 24 23  1  0  0  0  0
 24 22  2  0  0  0  0
 25 21  1  0  0  0  0
 26 27  1  0  0  0  0
 28 29  1  0  0  0  0
 29 30  1  0  0  0  0
 30 31  1  0  0  0  0
 31 32  1  0  0  0  0
 32 33  2  0  0  0  0
 32 34  1  0  0  0  0
 34 39  1  0  0  0  0
 36 37  2  0  0  0  0
 37 35  1  0  0  0  0
 38 34  2  0  0  0  0
 38 36  1  0  0  0  0
 39 35  2  0  0  0  0
 42 40  1  0  0  0  0
 42 31  1  1  0  0  0
 43 41  1  1  0  0  0
 43 42  1  0  0  0  0
 43 40  1  0  0  0  0
M  END
>  <MODEL>
4

>  <REMARK>
 VINA RESULT:      -8.2      3.106      9.606
  Name = 
  11 active torsions:
  status: ('A' for Active; 'I' for Inactive)
    1  A    between atoms: C_1  and  C_34
    2  A    between atoms: C_1  and  C_35
    3  A    between atoms: C_3  and  N_4
    4  A    between atoms: C_3  and  S_12
    5  A    between atoms: N_4  and  C_22
    6  A    between atoms: C_6  and  C_17
    7  A    between atoms: C_8  and  C_34
    8  A    between atoms: C_11  and  C_14
    9  A    between atoms: S_12  and  C_17
   10  A    between atoms: C_19  and  O_37
   11  A    between atoms: C_27  and  C_30
                            x       y       z     vdW  Elec       q    Type
                         _______ _______ _______ _____ _____    ______ ____

>  <TORSDO>
F 11

$$$$
=
 OpenBabel10272414123D

 43 48  0  0  1  0  0  0  0  0999 V2000
  188.9800  178.4090  139.6240 C   0  0  0  0  0  2  0  0  0  0  0  0
  189.6120  177.0360  139.8620 C   0  0  1  0  0  3  0  0  0  0  0  0
  188.3030  178.4470  138.2560 C   0  0  0  0  0  2  0  0  0  0  0  0
  190.6140  176.6940  138.7620 C   0  0  0  0  0  2  0  0  0  0  0  0
  189.9510  176.7680  137.3910 C   0  0  1  0  0  3  0  0  0  0  0  0
  189.3130  178.1400  137.1550 C   0  0  0  0  0  2  0  0  0  0  0  0
  194.2960  174.3630  138.0950 C   0  0  0  0  0  0  0  0  0  0  0  0
  190.2950  175.4870  135.1230 C   0  0  1  0  0  3  0  0  0  0  0  0
  192.2910  174.2200  136.7360 C   0  0  0  0  0  0  0  0  0  0  0  0
  194.1150  175.7420  138.2260 C   0  0  0  0  0  3  0  0  0  0  0  0
  195.4080  173.7290  138.7150 N   0  0  0  0  0  1  0  0  0  0  0  0
  192.1100  175.6180  136.8650 C   0  0  0  0  0  0  0  0  0  0  0  0
  193.3910  173.6080  137.3440 C   0  0  0  0  0  3  0  0  0  0  0  0
  193.0250  176.3660  137.6150 C   0  0  0  0  0  3  0  0  0  0  0  0
  190.9120  176.3150  136.2730 C   0  0  2  0  0  3  0  0  0  0  0  0
  190.0650  174.0440  135.5470 C   0  0  0  0  0  2  0  0  0  0  0  0
  191.4060  173.3800  135.8540 C   0  0  0  0  0  2  0  0  0  0  0  0
  189.0420  176.0950  134.5110 C   0  0  0  0  0  2  0  0  0  0  0  0
  187.8590  175.1510  134.6830 C   0  0  0  0  0  2  0  0  0  0  0  0
  185.1530  174.7790  137.2140 C   0  0  0  0  0  2  0  0  0  0  0  0
  184.4450  176.1510  137.2010 C   0  0  1  0  0  3  0  0  0  0  0  0
  186.2090  176.7890  135.4970 C   0  0  0  0  0  3  0  0  0  0  0  0
  186.6600  174.8900  136.9720 C   0  0  0  0  0  2  0  0  0  0  0  0
  186.8950  175.6590  135.7060 C   0  0  0  0  0  0  0  0  0  0  0  0
  185.2570  177.2900  136.5480 C   0  0  0  0  0  2  0  0  0  0  0  0
  182.5670  174.9810  137.2350 C   0  0  0  0  0  1  0  0  0  0  0  0
  183.2040  176.0320  136.5720 O   0  0  0  0  0  0  0  0  0  0  0  0
  190.2660  176.9500  141.2360 C   0  0  0  0  0  2  0  0  0  0  0  0
  189.1840  176.1630  142.4750 S   0  0  0  0  0  0  0  0  0  0  0  0
  189.0140  177.7220  143.3950 C   0  0  0  0  0  2  0  0  0  0  0  0
  189.1650  177.4960  144.8320 N   0  0  0  0  0  0  0  0  0  0  0  0
  188.1640  177.9720  145.7600 C   0  0  0  0  0  0  0  0  0  0  0  0
  188.4940  178.2210  146.9510 O   0  0  0  0  0  0  0  0  0  0  0  0
  186.7500  178.1780  145.3630 C   0  0  0  0  0  0  0  0  0  0  0  0
  185.0530  178.2400  143.6200 C   0  0  0  0  0  3  0  0  0  0  0  0
  184.4570  178.7880  145.8990 C   0  0  0  0  0  3  0  0  0  0  0  0
  184.0930  178.6200  144.5620 C   0  0  0  0  0  3  0  0  0  0  0  0
  185.7800  178.5730  146.2960 C   0  0  0  0  0  3  0  0  0  0  0  0
  186.3750  178.0220  144.0190 C   0  0  0  0  0  3  0  0  0  0  0  0
  191.0490  176.9540  146.3740 C   0  0  0  0  0  2  0  0  0  0  0  0
  191.8190  178.3170  144.4970 C   0  0  0  0  0  1  0  0  0  0  0  0
  190.1460  176.4810  145.2460 C   0  0  2  0  0  3  0  0  0  0  0  0
  191.6050  176.8890  144.9710 C   0  0  2  0  0  3  0  0  0  0  0  0
  1  2  1  0  0  0  0
  2 28  1  1  0  0  0
  3  1  1  0  0  0  0
  4  2  1  0  0  0  0
  5  6  1  6  0  0  0
  5  4  1  0  0  0  0
  6  3  1  0  0  0  0
  7 10  1  0  0  0  0
  7 11  1  0  0  0  0
  8 18  1  1  0  0  0
  8 16  1  0  0  0  0
  8 15  1  0  0  0  0
  9 12  2  0  0  0  0
  9 13  1  0  0  0  0
 12 14  1  0  0  0  0
 13  7  2  0  0  0  0
 14 10  2  0  0  0  0
 15 12  1  1  0  0  0
 15  5  1  0  0  0  0
 16 17  1  0  0  0  0
 17  9  1  0  0  0  0
 18 19  1  0  0  0  0
 19 24  1  0  0  0  0
 21 27  1  6  0  0  0
 21 20  1  0  0  0  0
 22 24  2  0  0  0  0
 22 25  1  0  0  0  0
 23 20  1  0  0  0  0
 24 23  1  0  0  0  0
 25 21  1  0  0  0  0
 27 26  1  0  0  0  0
 28 29  1  0  0  0  0
 29 30  1  0  0  0  0
 30 31  1  0  0  0  0
 31 32  1  0  0  0  0
 32 33  2  0  0  0  0
 34 32  1  0  0  0  0
 34 38  1  0  0  0  0
 35 39  1  0  0  0  0
 35 37  2  0  0  0  0
 36 38  2  0  0  0  0
 37 36  1  0  0  0  0
 39 34  2  0  0  0  0
 42 31  1  6  0  0  0
 42 40  1  0  0  0  0
 43 41  1  6  0  0  0
 43 42  1  0  0  0  0
 43 40  1  0  0  0  0
M  END
>  <MODEL>
5

>  <REMARK>
 VINA RESULT:      -7.9      2.988      8.551
  Name = 
  11 active torsions:
  status: ('A' for Active; 'I' for Inactive)
    1  A    between atoms: C_1  and  C_34
    2  A    between atoms: C_1  and  C_35
    3  A    between atoms: C_3  and  N_4
    4  A    between atoms: C_3  and  S_12
    5  A    between atoms: N_4  and  C_22
    6  A    between atoms: C_6  and  C_17
    7  A    between atoms: C_8  and  C_34
    8  A    between atoms: C_11  and  C_14
    9  A    between atoms: S_12  and  C_17
   10  A    between atoms: C_19  and  O_37
   11  A    between atoms: C_27  and  C_30
                            x       y       z     vdW  Elec       q    Type
                         _______ _______ _______ _____ _____    ______ ____

>  <TORSDO>
F 11

$$$$
=
 OpenBabel10272414123D

 43 48  0  0  1  0  0  0  0  0999 V2000
  189.7250  176.6440  137.6620 C   0  0  0  0  0  2  0  0  0  0  0  0
  188.2010  176.6000  137.7840 C   0  0  1  0  0  3  0  0  0  0  0  0
  190.3680  176.4990  139.0390 C   0  0  0  0  0  2  0  0  0  0  0  0
  187.6930  177.6890  138.7270 C   0  0  0  0  0  2  0  0  0  0  0  0
  188.3610  177.5710  140.0920 C   0  0  1  0  0  3  0  0  0  0  0  0
  189.8870  177.6090  139.9690 C   0  0  0  0  0  2  0  0  0  0  0  0
  183.4930  178.6320  140.6620 C   0  0  0  0  0  0  0  0  0  0  0  0
  188.2290  178.4420  142.5670 C   0  0  1  0  0  3  0  0  0  0  0  0
  185.4470  178.0940  141.9960 C   0  0  0  0  0  0  0  0  0  0  0  0
  184.3140  179.1590  139.6620 C   0  0  0  0  0  3  0  0  0  0  0  0
  182.0800  178.6390  140.4980 N   0  0  0  0  0  1  0  0  0  0  0  0
  186.2780  178.6320  140.9850 C   0  0  0  0  0  0  0  0  0  0  0  0
  184.0590  178.1110  141.8280 C   0  0  0  0  0  3  0  0  0  0  0  0
  185.7010  179.1560  139.8220 C   0  0  0  0  0  3  0  0  0  0  0  0
  187.7810  178.5880  141.0950 C   0  0  2  0  0  3  0  0  0  0  0  0
  187.4920  177.3020  143.2550 C   0  0  0  0  0  2  0  0  0  0  0  0
  185.9990  177.6180  143.3120 C   0  0  0  0  0  2  0  0  0  0  0  0
  189.7340  178.3300  142.7590 C   0  0  0  0  0  2  0  0  0  0  0  0
  190.1340  178.8810  144.1220 C   0  0  0  0  0  2  0  0  0  0  0  0
  190.0750  177.2850  147.4860 C   0  0  0  0  0  2  0  0  0  0  0  0
  191.3020  176.3470  147.4710 C   0  0  1  0  0  3  0  0  0  0  0  0
  191.6040  177.1560  145.0880 C   0  0  0  0  0  3  0  0  0  0  0  0
  189.3970  177.3920  146.1180 C   0  0  0  0  0  2  0  0  0  0  0  0
  190.4220  177.7840  145.0960 C   0  0  0  0  0  0  0  0  0  0  0  0
  191.8650  176.0440  146.0670 C   0  0  0  0  0  2  0  0  0  0  0  0
  193.1080  175.7880  148.6230 C   0  0  0  0  0  1  0  0  0  0  0  0
  192.3080  176.8800  148.2800 O   0  0  0  0  0  0  0  0  0  0  0  0
  187.5250  176.7040  136.4230 C   0  0  0  0  0  2  0  0  0  0  0  0
  185.8330  177.3760  136.5330 S   0  0  0  0  0  0  0  0  0  0  0  0
  185.1260  175.8610  135.8200 C   0  0  0  0  0  2  0  0  0  0  0  0
  184.2610  175.1870  136.7860 N   0  0  0  0  0  0  0  0  0  0  0  0
  184.2950  173.7480  136.9240 C   0  0  0  0  0  0  0  0  0  0  0  0
  183.2740  173.1440  137.3530 O   0  0  0  0  0  0  0  0  0  0  0  0
  185.4950  172.9470  136.5800 C   0  0  0  0  0  0  0  0  0  0  0  0
  187.8360  172.4110  136.9700 C   0  0  0  0  0  3  0  0  0  0  0  0
  186.6290  171.3040  135.1910 C   0  0  0  0  0  3  0  0  0  0  0  0
  187.8060  171.4930  135.9180 C   0  0  0  0  0  3  0  0  0  0  0  0
  185.4810  172.0310  135.5180 C   0  0  0  0  0  3  0  0  0  0  0  0
  186.6860  173.1360  137.2980 C   0  0  0  0  0  3  0  0  0  0  0  0
  182.3700  175.4310  138.3930 C   0  0  0  0  0  2  0  0  0  0  0  0
  181.6890  176.0740  136.1350 C   0  0  0  0  0  1  0  0  0  0  0  0
  183.6520  176.0240  137.8310 C   0  0  2  0  0  3  0  0  0  0  0  0
  182.2780  176.5960  137.4350 C   0  0  2  0  0  3  0  0  0  0  0  0
  1  2  1  0  0  0  0
  1  3  1  0  0  0  0
  2 28  1  6  0  0  0
  2  4  1  0  0  0  0
  3  6  1  0  0  0  0
  5  4  1  6  0  0  0
  5 15  1  0  0  0  0
  6  5  1  0  0  0  0
  7 13  1  0  0  0  0
  8 18  1  6  0  0  0
  8 16  1  0  0  0  0
  9 17  1  0  0  0  0
 10 14  1  0  0  0  0
 10  7  2  0  0  0  0
 11  7  1  0  0  0  0
 12  9  1  0  0  0  0
 13  9  2  0  0  0  0
 14 12  2  0  0  0  0
 15 12  1  1  0  0  0
 15  8  1  0  0  0  0
 16 17  1  0  0  0  0
 18 19  1  0  0  0  0
 19 24  1  0  0  0  0
 21 20  1  0  0  0  0
 21 27  1  1  0  0  0
 22 24  2  0  0  0  0
 22 25  1  0  0  0  0
 23 20  1  0  0  0  0
 24 23  1  0  0  0  0
 25 21  1  0  0  0  0
 27 26  1  0  0  0  0
 28 29  1  0  0  0  0
 30 29  1  0  0  0  0
 30 31  1  0  0  0  0
 31 32  1  0  0  0  0
 32 33  2  0  0  0  0
 34 32  1  0  0  0  0
 34 39  1  0  0  0  0
 35 39  2  0  0  0  0
 36 38  1  0  0  0  0
 36 37  2  0  0  0  0
 37 35  1  0  0  0  0
 38 34  2  0  0  0  0
 42 31  1  6  0  0  0
 42 40  1  0  0  0  0
 43 41  1  6  0  0  0
 43 42  1  0  0  0  0
 43 40  1  0  0  0  0
M  END
>  <MODEL>
6

>  <REMARK>
 VINA RESULT:      -7.9      4.201      8.296
  Name = 
  11 active torsions:
  status: ('A' for Active; 'I' for Inactive)
    1  A    between atoms: C_1  and  C_34
    2  A    between atoms: C_1  and  C_35
    3  A    between atoms: C_3  and  N_4
    4  A    between atoms: C_3  and  S_12
    5  A    between atoms: N_4  and  C_22
    6  A    between atoms: C_6  and  C_17
    7  A    between atoms: C_8  and  C_34
    8  A    between atoms: C_11  and  C_14
    9  A    between atoms: S_12  and  C_17
   10  A    between atoms: C_19  and  O_37
   11  A    between atoms: C_27  and  C_30
                            x       y       z     vdW  Elec       q    Type
                         _______ _______ _______ _____ _____    ______ ____

>  <TORSDO>
F 11

$$$$
=
 OpenBabel10272414123D

 43 48  0  0  1  0  0  0  0  0999 V2000
  189.0170  176.7760  142.5440 C   0  0  0  0  0  2  0  0  0  0  0  0
  188.4870  177.3780  141.2410 C   0  0  1  0  0  3  0  0  0  0  0  0
  187.8560  176.3190  143.4240 C   0  0  0  0  0  2  0  0  0  0  0  0
  187.5390  178.5430  141.5200 C   0  0  0  0  0  2  0  0  0  0  0  0
  186.3990  178.1000  142.4300 C   0  0  1  0  0  3  0  0  0  0  0  0
  186.9300  177.4910  143.7310 C   0  0  0  0  0  2  0  0  0  0  0  0
  182.1350  178.6330  139.8440 C   0  0  0  0  0  0  0  0  0  0  0  0
  184.8710  179.4620  144.0780 C   0  0  1  0  0  3  0  0  0  0  0  0
  182.9340  178.6490  142.1350 C   0  0  0  0  0  0  0  0  0  0  0  0
  183.3960  179.0310  139.3960 C   0  0  0  0  0  3  0  0  0  0  0  0
  181.0810  178.4260  138.9110 N   0  0  0  0  0  1  0  0  0  0  0  0
  184.2110  179.0560  141.6810 C   0  0  0  0  0  0  0  0  0  0  0  0
  181.9040  178.4530  141.2100 C   0  0  0  0  0  3  0  0  0  0  0  0
  184.4310  179.2390  140.3110 C   0  0  0  0  0  3  0  0  0  0  0  0
  185.3670  179.2280  142.6320 C   0  0  2  0  0  3  0  0  0  0  0  0
  183.8450  178.4140  144.4830 C   0  0  0  0  0  2  0  0  0  0  0  0
  182.6060  178.5430  143.6000 C   0  0  0  0  0  2  0  0  0  0  0  0
  185.9810  179.5860  145.1120 C   0  0  0  0  0  2  0  0  0  0  0  0
  185.5300  178.9970  146.4420 C   0  0  0  0  0  2  0  0  0  0  0  0
  188.8480  178.7820  148.1210 C   0  0  0  0  0  2  0  0  0  0  0  0
  189.3010  177.3300  147.8570 C   0  0  1  0  0  3  0  0  0  0  0  0
  187.0610  177.0840  146.6960 C   0  0  0  0  0  3  0  0  0  0  0  0
  187.3330  178.9040  148.3090 C   0  0  0  0  0  2  0  0  0  0  0  0
  186.6450  178.2790  147.1330 C   0  0  0  0  0  0  0  0  0  0  0  0
  188.1740  176.3730  147.4160 C   0  0  0  0  0  2  0  0  0  0  0  0
  191.3770  176.6400  147.5220 C   0  0  0  0  0  1  0  0  0  0  0  0
  190.3260  177.3250  146.9090 O   0  0  0  0  0  0  0  0  0  0  0  0
  189.6210  177.8110  140.3210 C   0  0  0  0  0  2  0  0  0  0  0  0
  189.0190  178.6630  138.8250 S   0  0  0  0  0  0  0  0  0  0  0  0
  188.2340  177.1430  138.2100 C   0  0  0  0  0  2  0  0  0  0  0  0
  188.1250  177.1680  136.7520 N   0  0  0  0  0  0  0  0  0  0  0  0
  189.2610  176.8270  135.9250 C   0  0  0  0  0  0  0  0  0  0  0  0
  189.3380  177.2970  134.7570 O   0  0  0  0  0  0  0  0  0  0  0  0
  190.3460  175.9350  136.3980 C   0  0  0  0  0  0  0  0  0  0  0  0
  191.2180  173.6860  136.7180 C   0  0  0  0  0  3  0  0  0  0  0  0
  192.4890  175.5900  137.4970 C   0  0  0  0  0  3  0  0  0  0  0  0
  192.3560  174.2100  137.3380 C   0  0  0  0  0  3  0  0  0  0  0  0
  191.4880  176.4480  137.0330 C   0  0  0  0  0  3  0  0  0  0  0  0
  190.2180  174.5450  136.2530 C   0  0  0  0  0  3  0  0  0  0  0  0
  185.6890  176.9210  137.2240 C   0  0  0  0  0  2  0  0  0  0  0  0
  186.7700  174.7370  137.0360 C   0  0  0  0  0  1  0  0  0  0  0  0
  186.7670  177.1890  136.1870 C   0  0  2  0  0  3  0  0  0  0  0  0
  186.0550  175.8250  136.2520 C   0  0  2  0  0  3  0  0  0  0  0  0
  1  3  1  0  0  0  0
  2 28  1  6  0  0  0
  2  4  1  0  0  0  0
  2  1  1  0  0  0  0
  3  6  1  0  0  0  0
  5  4  1  1  0  0  0
  5 15  1  0  0  0  0
  5  6  1  0  0  0  0
  7 13  1  0  0  0  0
  8 16  1  0  0  0  0
  8 18  1  1  0  0  0
  9 17  1  0  0  0  0
 10  7  2  0  0  0  0
 10 14  1  0  0  0  0
 11  7  1  0  0  0  0
 12  9  1  0  0  0  0
 13  9  2  0  0  0  0
 14 12  2  0  0  0  0
 15 12  1  6  0  0  0
 15  8  1  0  0  0  0
 17 16  1  0  0  0  0
 18 19  1  0  0  0  0
 19 24  1  0  0  0  0
 20 23  1  0  0  0  0
 21 27  1  6  0  0  0
 21 20  1  0  0  0  0
 22 24  2  0  0  0  0
 22 25  1  0  0  0  0
 24 23  1  0  0  0  0
 25 21  1  0  0  0  0
 27 26  1  0  0  0  0
 29 28  1  0  0  0  0
 30 29  1  0  0  0  0
 31 30  1  0  0  0  0
 32 34  1  0  0  0  0
 32 31  1  0  0  0  0
 33 32  2  0  0  0  0
 34 38  1  0  0  0  0
 35 37  2  0  0  0  0
 37 36  1  0  0  0  0
 38 36  2  0  0  0  0
 39 34  2  0  0  0  0
 39 35  1  0  0  0  0
 42 43  1  0  0  0  0
 42 31  1  1  0  0  0
 42 40  1  0  0  0  0
 43 41  1  1  0  0  0
 43 40  1  0  0  0  0
M  END
>  <MODEL>
7

>  <REMARK>
 VINA RESULT:      -7.8      2.878      6.889
  Name = 
  11 active torsions:
  status: ('A' for Active; 'I' for Inactive)
    1  A    between atoms: C_1  and  C_34
    2  A    between atoms: C_1  and  C_35
    3  A    between atoms: C_3  and  N_4
    4  A    between atoms: C_3  and  S_12
    5  A    between atoms: N_4  and  C_22
    6  A    between atoms: C_6  and  C_17
    7  A    between atoms: C_8  and  C_34
    8  A    between atoms: C_11  and  C_14
    9  A    between atoms: S_12  and  C_17
   10  A    between atoms: C_19  and  O_37
   11  A    between atoms: C_27  and  C_30
                            x       y       z     vdW  Elec       q    Type
                         _______ _______ _______ _____ _____    ______ ____

>  <TORSDO>
F 11

$$$$
=
 OpenBabel10272414123D

 43 48  0  0  1  0  0  0  0  0999 V2000
  189.1280  176.6340  142.6450 C   0  0  0  0  0  2  0  0  0  0  0  0
  188.7800  177.3090  141.3170 C   0  0  1  0  0  3  0  0  0  0  0  0
  187.8560  176.1630  143.3460 C   0  0  0  0  0  2  0  0  0  0  0  0
  187.8250  178.4810  141.5310 C   0  0  0  0  0  2  0  0  0  0  0  0
  186.5700  178.0230  142.2640 C   0  0  1  0  0  3  0  0  0  0  0  0
  186.9180  177.3410  143.5900 C   0  0  0  0  0  2  0  0  0  0  0  0
  182.4930  178.5820  139.3970 C   0  0  0  0  0  0  0  0  0  0  0  0
  184.9520  179.4150  143.7970 C   0  0  1  0  0  3  0  0  0  0  0  0
  183.1380  178.6080  141.7360 C   0  0  0  0  0  0  0  0  0  0  0  0
  183.7860  178.9620  139.0310 C   0  0  0  0  0  3  0  0  0  0  0  0
  181.5010  178.3780  138.3980 N   0  0  0  0  0  1  0  0  0  0  0  0
  184.4480  178.9970  141.3650 C   0  0  0  0  0  0  0  0  0  0  0  0
  182.1700  178.4160  140.7460 C   0  0  0  0  0  3  0  0  0  0  0  0
  184.7600  179.1660  140.0110 C   0  0  0  0  0  3  0  0  0  0  0  0
  185.5400  179.1640  142.3900 C   0  0  2  0  0  3  0  0  0  0  0  0
  183.8900  178.3820  144.1410 C   0  0  0  0  0  2  0  0  0  0  0  0
  182.7130  178.5180  143.1770 C   0  0  0  0  0  2  0  0  0  0  0  0
  185.9920  179.5360  144.9010 C   0  0  0  0  0  2  0  0  0  0  0  0
  185.4660  178.9180  146.1910 C   0  0  0  0  0  2  0  0  0  0  0  0
  188.5890  178.9870  148.2180 C   0  0  0  0  0  2  0  0  0  0  0  0
  189.2070  177.5900  147.9910 C   0  0  1  0  0  3  0  0  0  0  0  0
  187.1390  177.1550  146.5910 C   0  0  0  0  0  3  0  0  0  0  0  0
  187.0590  178.9600  148.2420 C   0  0  0  0  0  2  0  0  0  0  0  0
  186.5650  178.2960  146.9910 C   0  0  0  0  0  0  0  0  0  0  0  0
  188.2320  176.5390  147.4210 C   0  0  0  0  0  2  0  0  0  0  0  0
  190.8570  176.4120  147.1040 C   0  0  0  0  0  1  0  0  0  0  0  0
  190.3230  177.7010  147.1600 O   0  0  0  0  0  0  0  0  0  0  0  0
  190.0300  177.7590  140.5710 C   0  0  0  0  0  2  0  0  0  0  0  0
  190.5750  176.5440  139.3260 S   0  0  0  0  0  0  0  0  0  0  0  0
  188.9750  176.6240  138.4680 C   0  0  0  0  0  2  0  0  0  0  0  0
  189.1640  176.7050  137.0210 N   0  0  0  0  0  0  0  0  0  0  0  0
  188.9020  175.5580  136.1800 C   0  0  0  0  0  0  0  0  0  0  0  0
  189.5000  175.4530  135.0750 O   0  0  0  0  0  0  0  0  0  0  0  0
  187.9480  174.4920  136.5700 C   0  0  0  0  0  0  0  0  0  0  0  0
  187.5380  172.1810  137.2110 C   0  0  0  0  0  3  0  0  0  0  0  0
  185.6780  173.7030  136.9470 C   0  0  0  0  0  3  0  0  0  0  0  0
  186.1640  172.4300  137.2520 C   0  0  0  0  0  3  0  0  0  0  0  0
  186.5650  174.7270  136.6030 C   0  0  0  0  0  3  0  0  0  0  0  0
  188.4250  173.2060  136.8690 C   0  0  0  0  0  3  0  0  0  0  0  0
  188.9190  179.1540  137.4250 C   0  0  0  0  0  2  0  0  0  0  0  0
  186.7440  178.1070  137.0380 C   0  0  0  0  0  1  0  0  0  0  0  0
  189.2670  178.0510  136.4380 C   0  0  2  0  0  3  0  0  0  0  0  0
  187.9180  178.7880  136.3540 C   0  0  2  0  0  3  0  0  0  0  0  0
  1  3  1  0  0  0  0
  2 28  1  1  0  0  0
  2  4  1  0  0  0  0
  2  1  1  0  0  0  0
  3  6  1  0  0  0  0
  5  4  1  1  0  0  0
  5 15  1  0  0  0  0
  5  6  1  0  0  0  0
  7 13  1  0  0  0  0
  8 16  1  0  0  0  0
  8 18  1  1  0  0  0
  9 17  1  0  0  0  0
 10  7  2  0  0  0  0
 10 14  1  0  0  0  0
 11  7  1  0  0  0  0
 12  9  1  0  0  0  0
 13  9  2  0  0  0  0
 14 12  2  0  0  0  0
 15 12  1  6  0  0  0
 15  8  1  0  0  0  0
 17 16  1  0  0  0  0
 18 19  1  0  0  0  0
 19 24  1  0  0  0  0
 20 23  1  0  0  0  0
 21 27  1  6  0  0  0
 21 20  1  0  0  0  0
 22 24  2  0  0  0  0
 22 25  1  0  0  0  0
 24 23  1  0  0  0  0
 25 21  1  0  0  0  0
 26 27  1  0  0  0  0
 29 28  1  0  0  0  0
 30 29  1  0  0  0  0
 31 30  1  0  0  0  0
 32 34  1  0  0  0  0
 32 31  1  0  0  0  0
 33 32  2  0  0  0  0
 34 38  2  0  0  0  0
 34 39  1  0  0  0  0
 35 37  1  0  0  0  0
 36 37  2  0  0  0  0
 38 36  1  0  0  0  0
 39 35  2  0  0  0  0
 42 31  1  1  0  0  0
 42 40  1  0  0  0  0
 43 42  1  0  0  0  0
 43 41  1  1  0  0  0
 43 40  1  0  0  0  0
M  END
>  <MODEL>
8

>  <REMARK>
 VINA RESULT:      -7.8      3.166      6.710
  Name = 
  11 active torsions:
  status: ('A' for Active; 'I' for Inactive)
    1  A    between atoms: C_1  and  C_34
    2  A    between atoms: C_1  and  C_35
    3  A    between atoms: C_3  and  N_4
    4  A    between atoms: C_3  and  S_12
    5  A    between atoms: N_4  and  C_22
    6  A    between atoms: C_6  and  C_17
    7  A    between atoms: C_8  and  C_34
    8  A    between atoms: C_11  and  C_14
    9  A    between atoms: S_12  and  C_17
   10  A    between atoms: C_19  and  O_37
   11  A    between atoms: C_27  and  C_30
                            x       y       z     vdW  Elec       q    Type
                         _______ _______ _______ _____ _____    ______ ____

>  <TORSDO>
F 11

$$$$
=
 OpenBabel10272414123D

 43 48  0  0  1  0  0  0  0  0999 V2000
  191.8920  177.2760  140.6080 C   0  0  0  0  0  2  0  0  0  0  0  0
  190.8380  177.6610  139.5690 C   0  0  1  0  0  3  0  0  0  0  0  0
  193.2840  177.3050  139.9830 C   0  0  0  0  0  2  0  0  0  0  0  0
  190.8960  176.7330  138.3580 C   0  0  0  0  0  2  0  0  0  0  0  0
  192.2950  176.7290  137.7520 C   0  0  1  0  0  3  0  0  0  0  0  0
  193.3510  176.3500  138.7940 C   0  0  0  0  0  2  0  0  0  0  0  0
  196.4540  175.6440  135.1680 C   0  0  0  0  0  0  0  0  0  0  0  0
  191.6550  174.5080  136.5020 C   0  0  1  0  0  3  0  0  0  0  0  0
  194.4820  174.5490  136.0620 C   0  0  0  0  0  0  0  0  0  0  0  0
  195.7540  176.8500  135.0850 C   0  0  0  0  0  3  0  0  0  0  0  0
  197.8130  175.5820  134.7520 N   0  0  0  0  0  1  0  0  0  0  0  0
  193.7710  175.7690  135.9740 C   0  0  0  0  0  0  0  0  0  0  0  0
  195.8160  174.4970  135.6460 C   0  0  0  0  0  3  0  0  0  0  0  0
  194.4180  176.9120  135.4890 C   0  0  0  0  0  3  0  0  0  0  0  0
  192.3500  175.8890  136.4600 C   0  0  2  0  0  3  0  0  0  0  0  0
  192.5100  173.4860  137.2350 C   0  0  0  0  0  2  0  0  0  0  0  0
  193.8130  173.2640  136.4700 C   0  0  0  0  0  2  0  0  0  0  0  0
  190.2320  174.5350  137.0390 C   0  0  0  0  0  2  0  0  0  0  0  0
  189.2330  174.4660  135.8910 C   0  0  0  0  0  2  0  0  0  0  0  0
  188.0780  177.9910  136.2310 C   0  0  0  0  0  2  0  0  0  0  0  0
  186.6980  177.8620  136.9100 C   0  0  1  0  0  3  0  0  0  0  0  0
  187.1130  175.3660  136.7650 C   0  0  0  0  0  3  0  0  0  0  0  0
  188.3730  176.8370  135.2690 C   0  0  0  0  0  2  0  0  0  0  0  0
  188.1970  175.5390  135.9980 C   0  0  0  0  0  0  0  0  0  0  0  0
  186.0750  176.4520  136.8440 C   0  0  0  0  0  2  0  0  0  0  0  0
  185.4670  178.4470  138.6550 C   0  0  0  0  0  1  0  0  0  0  0  0
  186.7900  178.2780  138.2400 O   0  0  0  0  0  0  0  0  0  0  0  0
  189.4380  177.6790  140.1700 C   0  0  0  0  0  2  0  0  0  0  0  0
  189.2830  176.5760  141.6130 S   0  0  0  0  0  0  0  0  0  0  0  0
  188.8740  177.9720  142.7040 C   0  0  0  0  0  2  0  0  0  0  0  0
  189.1350  177.6330  144.1020 N   0  0  0  0  0  0  0  0  0  0  0  0
  188.1920  178.0000  145.1350 C   0  0  0  0  0  0  0  0  0  0  0  0
  188.6010  178.1590  146.3170 O   0  0  0  0  0  0  0  0  0  0  0  0
  186.7480  178.1940  144.8570 C   0  0  0  0  0  0  0  0  0  0  0  0
  184.9090  178.2290  143.2640 C   0  0  0  0  0  3  0  0  0  0  0  0
  184.5040  178.7950  145.5810 C   0  0  0  0  0  3  0  0  0  0  0  0
  184.0300  178.6120  144.2800 C   0  0  0  0  0  3  0  0  0  0  0  0
  185.8570  178.5900  145.8660 C   0  0  0  0  0  3  0  0  0  0  0  0
  186.2620  178.0230  143.5510 C   0  0  0  0  0  3  0  0  0  0  0  0
  190.9510  176.8800  145.6350 C   0  0  0  0  0  2  0  0  0  0  0  0
  191.7250  178.6870  144.1830 C   0  0  0  0  0  1  0  0  0  0  0  0
  190.1680  176.6190  144.3580 C   0  0  2  0  0  3  0  0  0  0  0  0
  191.6020  177.1770  144.3060 C   0  0  2  0  0  3  0  0  0  0  0  0
  2 28  1  1  0  0  0
  2  1  1  0  0  0  0
  3  1  1  0  0  0  0
  4  2  1  0  0  0  0
  5  4  1  1  0  0  0
  5  6  1  0  0  0  0
  6  3  1  0  0  0  0
  7 13  1  0  0  0  0
  8 18  1  1  0  0  0
  8 16  1  0  0  0  0
  9 17  1  0  0  0  0
 10  7  2  0  0  0  0
 10 14  1  0  0  0  0
 11  7  1  0  0  0  0
 12  9  1  0  0  0  0
 13  9  2  0  0  0  0
 14 12  2  0  0  0  0
 15 12  1  1  0  0  0
 15  8  1  0  0  0  0
 15  5  1  0  0  0  0
 17 16  1  0  0  0  0
 19 24  1  0  0  0  0
 19 18  1  0  0  0  0
 20 21  1  0  0  0  0
 21 27  1  1  0  0  0
 22 25  1  0  0  0  0
 23 24  1  0  0  0  0
 23 20  1  0  0  0  0
 24 22  2  0  0  0  0
 25 21  1  0  0  0  0
 27 26  1  0  0  0  0
 28 29  1  0  0  0  0
 29 30  1  0  0  0  0
 30 31  1  0  0  0  0
 31 32  1  0  0  0  0
 32 33  2  0  0  0  0
 34 32  1  0  0  0  0
 34 38  1  0  0  0  0
 35 39  1  0  0  0  0
 35 37  2  0  0  0  0
 36 38  2  0  0  0  0
 37 36  1  0  0  0  0
 39 34  2  0  0  0  0
 42 31  1  1  0  0  0
 42 40  1  0  0  0  0
 43 41  1  1  0  0  0
 43 42  1  0  0  0  0
 43 40  1  0  0  0  0
M  END
>  <MODEL>
9

>  <REMARK>
 VINA RESULT:      -7.7      2.876      9.279
  Name = 
  11 active torsions:
  status: ('A' for Active; 'I' for Inactive)
    1  A    between atoms: C_1  and  C_34
    2  A    between atoms: C_1  and  C_35
    3  A    between atoms: C_3  and  N_4
    4  A    between atoms: C_3  and  S_12
    5  A    between atoms: N_4  and  C_22
    6  A    between atoms: C_6  and  C_17
    7  A    between atoms: C_8  and  C_34
    8  A    between atoms: C_11  and  C_14
    9  A    between atoms: S_12  and  C_17
   10  A    between atoms: C_19  and  O_37
   11  A    between atoms: C_27  and  C_30
                            x       y       z     vdW  Elec       q    Type
                         _______ _______ _______ _____ _____    ______ ____

>  <TORSDO>
F 11

$$$$
