=
 OpenBabel10272413443D

 30 35  0  0  1  0  0  0  0  0999 V2000
  188.0510  176.0330  136.6570 C   0  0  1  0  0  0  0  0  0  0  0  0
  187.3950  174.8140  137.3460 C   0  0  2  0  0  3  0  0  0  0  0  0
  185.2890  175.4730  136.2930 C   0  0  1  0  0  0  0  0  0  0  0  0
  187.7980  177.3890  137.3670 C   0  0  2  0  0  3  0  0  0  0  0  0
  189.2100  175.7630  135.6810 C   0  0  0  0  0  2  0  0  0  0  0  0
  192.7700  175.9180  137.7210 S   0  0  0  0  0  0  0  0  0  0  0  0
  190.9730  175.6670  137.5450 C   0  0  2  0  0  3  0  0  0  0  0  0
  191.6220  175.9770  135.2600 N   0  0  0  0  0  2  0  0  0  0  0  0
  184.6580  176.8070  136.1580 N   0  0  0  0  0  0  0  0  0  0  0  0
  190.5560  176.2630  136.1960 C   0  0  1  0  0  3  0  0  0  0  0  0
  190.1880  176.2060  138.7490 C   0  0  0  0  0  2  0  0  0  0  0  0
  186.3740  172.5780  136.8730 C   0  0  0  0  0  2  0  0  0  0  0  0
  193.9010  175.4650  135.3380 O   0  0  0  0  0  0  0  0  0  0  0  0
  187.6940  173.3760  136.9490 C   0  0  0  0  0  2  0  0  0  0  0  0
  183.4770  173.8680  136.1780 O   0  0  0  0  0  1  0  0  0  0  0  0
  185.2260  173.1960  137.7020 C   0  0  0  0  0  2  0  0  0  0  0  0
  192.8480  175.7880  135.9450 C   0  0  0  0  0  0  0  0  0  0  0  0
  186.7660  175.4900  136.1470 C   0  0  1  0  0  0  0  0  0  0  0  0
  186.7240  178.2500  136.6740 C   0  0  0  0  0  2  0  0  0  0  0  0
  184.5800  177.2880  134.7800 C   0  0  0  0  0  1  0  0  0  0  0  0
  185.2610  177.8490  137.0200 C   0  0  2  0  0  3  0  0  0  0  0  0
  189.0600  178.2210  137.5940 C   0  0  0  0  0  2  0  0  0  0  0  0
  184.4710  174.3680  137.0210 C   0  0  1  0  0  3  0  0  0  0  0  0
  186.0190  174.8640  135.0190 C   0  0  0  0  0  2  0  0  0  0  0  0
  189.9340  177.7190  138.7530 C   0  0  0  0  0  2  0  0  0  0  0  0
  185.0260  177.5610  138.5060 C   0  0  0  0  0  2  0  0  0  0  0  0
  185.0480  178.7860  139.3790 C   0  0  0  0  0  0  0  0  0  0  0  0
  184.4820  179.8530  138.9560 N   0  0  0  0  0  2  0  0  0  0  0  0
  185.6900  178.7890  140.7340 C   0  0  0  0  0  2  0  0  0  0  0  0
  187.0800  178.7880  140.6010 O   0  0  0  0  0  1  0  0  0  0  0  0
  1  5  1  6  0  0  0
  1  2  1  0  0  0  0
  1  4  1  0  0  0  0
  2 14  1  6  0  0  0
  3 24  1  6  0  0  0
  3 23  1  0  0  0  0
  4 19  1  6  0  0  0
  4 22  1  0  0  0  0
  7  6  1  0  0  0  0
  7 11  1  1  0  0  0
  8 17  1  0  0  0  0
  8 10  1  0  0  0  0
  9  3  1  0  0  0  0
  9 21  1  0  0  0  0
 10  5  1  6  0  0  0
 10  7  1  0  0  0  0
 11 25  1  0  0  0  0
 12 14  1  0  0  0  0
 12 16  1  0  0  0  0
 13 17  2  0  0  0  0
 17  6  1  0  0  0  0
 18 24  1  6  0  0  0
 18  3  1  0  0  0  0
 18  1  1  0  0  0  0
 18  2  1  0  0  0  0
 19 21  1  0  0  0  0
 20  9  1  0  0  0  0
 21 26  1  1  0  0  0
 22 25  1  0  0  0  0
 23 15  1  6  0  0  0
 23 16  1  0  0  0  0
 26 27  1  0  0  0  0
 27 29  1  0  0  0  0
 28 27  2  0  0  0  0
 30 29  1  0  0  0  0
M  END
>  <MODEL>
1

>  <REMARK>
 VINA RESULT:      -5.8      0.000      0.000
  Name = 
  3 active torsions:
  status: ('A' for Active; 'I' for Inactive)
    1  A    between atoms: CA_7  and  C_10
    2  A    between atoms: CA_7  and  C_15
    3  A    between atoms: C_10  and  C_25
                            x       y       z     vdW  Elec       q    Type
                         _______ _______ _______ _____ _____    ______ ____

>  <TORSDO>
F 3

$$$$
=
 OpenBabel10272413443D

 30 35  0  0  1  0  0  0  0  0999 V2000
  188.2150  175.9560  136.5970 C   0  0  1  0  0  0  0  0  0  0  0  0
  187.5850  174.7160  137.2740 C   0  0  2  0  0  3  0  0  0  0  0  0
  185.5170  175.2300  136.0750 C   0  0  1  0  0  0  0  0  0  0  0  0
  187.8420  177.3100  137.2560 C   0  0  2  0  0  3  0  0  0  0  0  0
  189.4470  175.7330  135.7020 C   0  0  0  0  0  2  0  0  0  0  0  0
  192.8560  176.1340  137.9560 S   0  0  0  0  0  0  0  0  0  0  0  0
  191.0900  175.7770  137.6750 C   0  0  2  0  0  3  0  0  0  0  0  0
  191.8660  176.0750  135.4270 N   0  0  0  0  0  2  0  0  0  0  0  0
  184.8230  176.5240  135.8690 N   0  0  0  0  0  0  0  0  0  0  0  0
  190.7270  176.3190  136.2880 C   0  0  1  0  0  3  0  0  0  0  0  0
  190.2020  176.2950  138.8130 C   0  0  0  0  0  2  0  0  0  0  0  0
  186.7230  172.4150  136.7940 C   0  0  0  0  0  2  0  0  0  0  0  0
  194.1600  175.6970  135.6600 O   0  0  0  0  0  0  0  0  0  0  0  0
  187.9890  173.2900  136.9320 C   0  0  0  0  0  2  0  0  0  0  0  0
  183.8090  173.5220  135.8880 O   0  0  0  0  0  1  0  0  0  0  0  0
  185.4920  172.9840  137.5340 C   0  0  0  0  0  2  0  0  0  0  0  0
  193.0540  175.9720  136.1920 C   0  0  0  0  0  0  0  0  0  0  0  0
  186.9970  175.3300  136.0220 C   0  0  1  0  0  0  0  0  0  0  0  0
  186.7670  178.0930  136.4770 C   0  0  0  0  0  2  0  0  0  0  0  0
  184.8060  176.9700  134.4770 C   0  0  0  0  0  1  0  0  0  0  0  0
  185.3100  177.6160  136.7400 C   0  0  2  0  0  3  0  0  0  0  0  0
  189.0390  178.2180  137.5410 C   0  0  0  0  0  2  0  0  0  0  0  0
  184.7180  174.0960  136.7780 C   0  0  1  0  0  3  0  0  0  0  0  0
  186.3600  174.6380  134.8650 C   0  0  0  0  0  2  0  0  0  0  0  0
  189.8630  177.7910  138.7640 C   0  0  0  0  0  2  0  0  0  0  0  0
  184.9980  177.3470  138.2160 C   0  0  0  0  0  2  0  0  0  0  0  0
  184.8370  178.5910  139.0460 C   0  0  0  0  0  0  0  0  0  0  0  0
  185.7740  178.9140  139.8580 N   0  0  0  0  0  2  0  0  0  0  0  0
  183.6300  179.4720  138.9370 C   0  0  0  0  0  2  0  0  0  0  0  0
  184.0240  180.8100  138.8670 O   0  0  0  0  0  1  0  0  0  0  0  0
  1  5  1  6  0  0  0
  1  4  1  0  0  0  0
  1  2  1  0  0  0  0
  2 14  1  6  0  0  0
  3 24  1  6  0  0  0
  3 23  1  0  0  0  0
  4 19  1  6  0  0  0
  4 22  1  0  0  0  0
  7  6  1  0  0  0  0
  7 11  1  1  0  0  0
  8 17  1  0  0  0  0
  8 10  1  0  0  0  0
  9  3  1  0  0  0  0
  9 21  1  0  0  0  0
 10  5  1  6  0  0  0
 10  7  1  0  0  0  0
 12 14  1  0  0  0  0
 12 16  1  0  0  0  0
 13 17  2  0  0  0  0
 17  6  1  0  0  0  0
 18 24  1  6  0  0  0
 18  3  1  0  0  0  0
 18  1  1  0  0  0  0
 18  2  1  0  0  0  0
 19 21  1  0  0  0  0
 20  9  1  0  0  0  0
 21 26  1  1  0  0  0
 22 25  1  0  0  0  0
 23 15  1  6  0  0  0
 23 16  1  0  0  0  0
 25 11  1  0  0  0  0
 26 27  1  0  0  0  0
 27 28  2  0  0  0  0
 29 27  1  0  0  0  0
 30 29  1  0  0  0  0
M  END
>  <MODEL>
2

>  <REMARK>
 VINA RESULT:      -5.8      0.941      1.015
  Name = 
  3 active torsions:
  status: ('A' for Active; 'I' for Inactive)
    1  A    between atoms: CA_7  and  C_10
    2  A    between atoms: CA_7  and  C_15
    3  A    between atoms: C_10  and  C_25
                            x       y       z     vdW  Elec       q    Type
                         _______ _______ _______ _____ _____    ______ ____

>  <TORSDO>
F 3

$$$$
=
 OpenBabel10272413443D

 30 35  0  0  1  0  0  0  0  0999 V2000
  186.6500  175.2440  136.0680 C   0  0  1  0  0  0  0  0  0  0  0  0
  186.5740  176.1200  137.3410 C   0  0  2  0  0  3  0  0  0  0  0  0
  188.4080  177.4500  136.4200 C   0  0  1  0  0  0  0  0  0  0  0  0
  187.7880  174.1910  136.0770 C   0  0  2  0  0  3  0  0  0  0  0  0
  185.3940  175.1650  135.1820 C   0  0  0  0  0  2  0  0  0  0  0  0
  183.0950  171.9740  136.3630 S   0  0  0  0  0  0  0  0  0  0  0  0
  184.3190  173.3060  136.5900 C   0  0  2  0  0  3  0  0  0  0  0  0
  183.5520  173.7570  134.3650 N   0  0  0  0  0  2  0  0  0  0  0  0
  189.6660  177.0250  135.7600 N   0  0  0  0  0  0  0  0  0  0  0  0
  184.7370  173.7890  135.1970 C   0  0  1  0  0  3  0  0  0  0  0  0
  185.4850  172.8800  137.4920 C   0  0  0  0  0  2  0  0  0  0  0  0
  185.9580  178.4100  138.1420 C   0  0  0  0  0  2  0  0  0  0  0  0
  181.4820  172.6740  134.3460 O   0  0  0  0  0  0  0  0  0  0  0  0
  185.4120  177.0560  137.6370 C   0  0  0  0  0  2  0  0  0  0  0  0
  188.8530  179.6440  137.3460 O   0  0  0  0  0  1  0  0  0  0  0  0
  187.3820  178.3240  138.7340 C   0  0  0  0  0  2  0  0  0  0  0  0
  182.6140  172.8240  134.8720 C   0  0  0  0  0  0  0  0  0  0  0  0
  187.2350  176.6100  136.0710 C   0  0  1  0  0  0  0  0  0  0  0  0
  189.0040  174.5980  135.2230 C   0  0  0  0  0  2  0  0  0  0  0  0
  189.7450  177.3890  134.3470 C   0  0  0  0  0  1  0  0  0  0  0  0
  189.9780  175.5870  135.9250 C   0  0  2  0  0  3  0  0  0  0  0  0
  187.3370  172.7800  135.6960 C   0  0  0  0  0  2  0  0  0  0  0  0
  188.5350  178.3310  137.6960 C   0  0  1  0  0  3  0  0  0  0  0  0
  187.2300  177.9870  135.4980 C   0  0  0  0  0  2  0  0  0  0  0  0
  186.5800  172.0480  136.8130 C   0  0  0  0  0  2  0  0  0  0  0  0
  190.2780  175.2360  137.3860 C   0  0  0  0  0  2  0  0  0  0  0  0
  191.4860  175.9340  137.9490 C   0  0  0  0  0  0  0  0  0  0  0  0
  191.3680  176.5730  139.0530 N   0  0  0  0  0  2  0  0  0  0  0  0
  192.8230  175.8870  137.2730 C   0  0  0  0  0  2  0  0  0  0  0  0
  193.7360  176.6780  137.9710 O   0  0  0  0  0  1  0  0  0  0  0  0
  1  5  1  6  0  0  0
  1 18  1  0  0  0  0
  1  4  1  0  0  0  0
  1  2  1  0  0  0  0
  2 14  1  6  0  0  0
  3 24  1  6  0  0  0
  3 23  1  0  0  0  0
  4 19  1  6  0  0  0
  6  7  1  0  0  0  0
  7 11  1  6  0  0  0
  8 17  1  0  0  0  0
  8 10  1  0  0  0  0
  9 21  1  0  0  0  0
  9  3  1  0  0  0  0
 10  5  1  1  0  0  0
 10  7  1  0  0  0  0
 12 16  1  0  0  0  0
 13 17  2  0  0  0  0
 14 12  1  0  0  0  0
 17  6  1  0  0  0  0
 18 24  1  6  0  0  0
 18  3  1  0  0  0  0
 18  2  1  0  0  0  0
 19 21  1  0  0  0  0
 20  9  1  0  0  0  0
 21 26  1  1  0  0  0
 22  4  1  0  0  0  0
 22 25  1  0  0  0  0
 23 15  1  6  0  0  0
 23 16  1  0  0  0  0
 25 11  1  0  0  0  0
 26 27  1  0  0  0  0
 27 28  2  0  0  0  0
 29 27  1  0  0  0  0
 29 30  1  0  0  0  0
M  END
>  <MODEL>
3

>  <REMARK>
 VINA RESULT:      -5.3      2.859      6.542
  Name = 
  3 active torsions:
  status: ('A' for Active; 'I' for Inactive)
    1  A    between atoms: CA_7  and  C_10
    2  A    between atoms: CA_7  and  C_15
    3  A    between atoms: C_10  and  C_25
                            x       y       z     vdW  Elec       q    Type
                         _______ _______ _______ _____ _____    ______ ____

>  <TORSDO>
F 3

$$$$
=
 OpenBabel10272413443D

 30 35  0  0  1  0  0  0  0  0999 V2000
  186.1380  175.5440  136.0060 C   0  0  1  0  0  0  0  0  0  0  0  0
  186.2390  176.2530  137.3770 C   0  0  2  0  0  3  0  0  0  0  0  0
  188.1690  177.4710  136.4980 C   0  0  1  0  0  0  0  0  0  0  0  0
  187.1380  174.3750  135.8090 C   0  0  2  0  0  3  0  0  0  0  0  0
  184.8370  175.7220  135.2050 C   0  0  0  0  0  2  0  0  0  0  0  0
  182.2330  172.6910  136.1480 S   0  0  0  0  0  0  0  0  0  0  0  0
  183.6200  173.8350  136.4490 C   0  0  2  0  0  3  0  0  0  0  0  0
  182.7950  174.6500  134.3530 N   0  0  0  0  0  2  0  0  0  0  0  0
  189.3280  176.9930  135.7070 N   0  0  0  0  0  0  0  0  0  0  0  0
  184.0180  174.4400  135.0990 C   0  0  1  0  0  3  0  0  0  0  0  0
  184.7720  173.1660  137.2110 C   0  0  0  0  0  2  0  0  0  0  0  0
  185.9500  178.4780  138.4870 C   0  0  0  0  0  2  0  0  0  0  0  0
  180.6100  173.8220  134.3460 O   0  0  0  0  0  0  0  0  0  0  0  0
  185.2170  177.2710  137.8620 C   0  0  0  0  0  2  0  0  0  0  0  0
  188.9270  179.4640  137.6480 O   0  0  0  0  0  1  0  0  0  0  0  0
  187.3840  178.1550  138.9660 C   0  0  0  0  0  2  0  0  0  0  0  0
  181.7790  173.7730  134.8070 C   0  0  0  0  0  0  0  0  0  0  0  0
  186.8850  176.8230  136.1320 C   0  0  1  0  0  0  0  0  0  0  0  0
  188.3470  174.7470  134.9290 C   0  0  0  0  0  2  0  0  0  0  0  0
  189.3740  177.5230  134.3460 C   0  0  0  0  0  1  0  0  0  0  0  0
  189.4700  175.5200  135.6760 C   0  0  2  0  0  3  0  0  0  0  0  0
  186.4980  173.0860  135.2930 C   0  0  0  0  0  2  0  0  0  0  0  0
  188.4700  178.1620  137.8590 C   0  0  1  0  0  3  0  0  0  0  0  0
  187.0170  178.2520  135.7300 C   0  0  0  0  0  2  0  0  0  0  0  0
  185.7200  172.3080  136.3640 C   0  0  0  0  0  2  0  0  0  0  0  0
  189.8040  174.9540  137.0600 C   0  0  0  0  0  2  0  0  0  0  0  0
  191.1550  174.2970  137.1450 C   0  0  0  0  0  0  0  0  0  0  0  0
  191.9400  174.6270  138.1030 N   0  0  0  0  0  2  0  0  0  0  0  0
  191.6010  173.2580  136.1620 C   0  0  0  0  0  2  0  0  0  0  0  0
  192.6560  173.7540  135.3930 O   0  0  0  0  0  1  0  0  0  0  0  0
  1  5  1  6  0  0  0
  1 18  1  0  0  0  0
  1  2  1  0  0  0  0
  2 14  1  6  0  0  0
  3 24  1  6  0  0  0
  3 23  1  0  0  0  0
  4 19  1  6  0  0  0
  4  1  1  0  0  0  0
  6  7  1  0  0  0  0
  7 11  1  6  0  0  0
  8 17  1  0  0  0  0
  8 10  1  0  0  0  0
  9  3  1  0  0  0  0
 10  5  1  1  0  0  0
 10  7  1  0  0  0  0
 12 16  1  0  0  0  0
 13 17  2  0  0  0  0
 14 12  1  0  0  0  0
 17  6  1  0  0  0  0
 18 24  1  6  0  0  0
 18  3  1  0  0  0  0
 18  2  1  0  0  0  0
 19 21  1  0  0  0  0
 20  9  1  0  0  0  0
 21  9  1  0  0  0  0
 21 26  1  1  0  0  0
 22  4  1  0  0  0  0
 22 25  1  0  0  0  0
 23 15  1  6  0  0  0
 23 16  1  0  0  0  0
 25 11  1  0  0  0  0
 26 27  1  0  0  0  0
 27 28  2  0  0  0  0
 29 27  1  0  0  0  0
 30 29  1  0  0  0  0
M  END
>  <MODEL>
4

>  <REMARK>
 VINA RESULT:      -4.7      2.928      6.922
  Name = 
  3 active torsions:
  status: ('A' for Active; 'I' for Inactive)
    1  A    between atoms: CA_7  and  C_10
    2  A    between atoms: CA_7  and  C_15
    3  A    between atoms: C_10  and  C_25
                            x       y       z     vdW  Elec       q    Type
                         _______ _______ _______ _____ _____    ______ ____

>  <TORSDO>
F 3

$$$$
=
 OpenBabel10272413443D

 30 35  0  0  1  0  0  0  0  0999 V2000
  189.3860  177.7580  140.8850 C   0  0  1  0  0  0  0  0  0  0  0  0
  188.3410  177.1010  141.8170 C   0  0  2  0  0  3  0  0  0  0  0  0
  189.5860  178.0260  143.7080 C   0  0  1  0  0  0  0  0  0  0  0  0
  190.7170  176.9720  140.7530 C   0  0  2  0  0  3  0  0  0  0  0  0
  188.8820  178.7970  139.8680 C   0  0  0  0  0  2  0  0  0  0  0  0
  187.9850  176.9130  136.3320 S   0  0  0  0  0  0  0  0  0  0  0  0
  188.2210  177.0200  138.1360 C   0  0  2  0  0  3  0  0  0  0  0  0
  188.4860  179.3140  137.4980 N   0  0  0  0  0  2  0  0  0  0  0  0
  191.0440  178.0670  143.9710 N   0  0  0  0  0  0  0  0  0  0  0  0
  188.9830  178.3180  138.4230 C   0  0  1  0  0  3  0  0  0  0  0  0
  188.8740  175.7580  138.7160 C   0  0  0  0  0  2  0  0  0  0  0  0
  186.4790  177.6370  143.4030 C   0  0  0  0  0  2  0  0  0  0  0  0
  187.3950  179.3630  135.4320 O   0  0  0  0  0  0  0  0  0  0  0  0
  186.9010  177.5800  141.9170 C   0  0  0  0  0  2  0  0  0  0  0  0
  188.5170  178.1380  145.8800 O   0  0  0  0  0  1  0  0  0  0  0  0
  187.3250  176.7280  144.3230 C   0  0  0  0  0  2  0  0  0  0  0  0
  187.9450  178.6940  136.3450 C   0  0  0  0  0  0  0  0  0  0  0  0
  189.2270  178.2360  142.2830 C   0  0  1  0  0  0  0  0  0  0  0  0
  191.8670  177.5730  141.5850 C   0  0  0  0  0  2  0  0  0  0  0  0
  191.6090  179.4140  143.9610 C   0  0  0  0  0  1  0  0  0  0  0  0
  191.8400  177.1830  143.0900 C   0  0  2  0  0  3  0  0  0  0  0  0
  191.1770  176.7610  139.3100 C   0  0  0  0  0  2  0  0  0  0  0  0
  188.6910  177.3160  144.7640 C   0  0  1  0  0  3  0  0  0  0  0  0
  188.8840  179.3590  143.2020 C   0  0  0  0  0  2  0  0  0  0  0  0
  190.3980  175.6690  138.5640 C   0  0  0  0  0  2  0  0  0  0  0  0
  191.5360  175.7030  143.3470 C   0  0  0  0  0  2  0  0  0  0  0  0
  192.0100  175.2020  144.6840 C   0  0  0  0  0  0  0  0  0  0  0  0
  192.5240  174.0310  144.7550 N   0  0  0  0  0  2  0  0  0  0  0  0
  191.9200  176.0360  145.9260 C   0  0  0  0  0  2  0  0  0  0  0  0
  192.4310  175.3250  147.0130 O   0  0  0  0  0  1  0  0  0  0  0  0
  1  5  1  6  0  0  0
  1  2  1  0  0  0  0
  1 18  1  0  0  0  0
  2 14  1  6  0  0  0
  2 18  1  0  0  0  0
  3 24  1  1  0  0  0
  3  9  1  0  0  0  0
  3 23  1  0  0  0  0
  4 22  1  6  0  0  0
  4  1  1  0  0  0  0
  4 19  1  0  0  0  0
  6 17  1  0  0  0  0
  6  7  1  0  0  0  0
  7 10  1  0  0  0  0
  7 11  1  6  0  0  0
  8 10  1  0  0  0  0
 10  5  1  1  0  0  0
 12 16  1  0  0  0  0
 13 17  2  0  0  0  0
 14 12  1  0  0  0  0
 16 23  1  0  0  0  0
 17  8  1  0  0  0  0
 18 24  1  6  0  0  0
 18  3  1  0  0  0  0
 19 21  1  0  0  0  0
 20  9  1  0  0  0  0
 21 26  1  6  0  0  0
 21  9  1  0  0  0  0
 23 15  1  1  0  0  0
 25 11  1  0  0  0  0
 25 22  1  0  0  0  0
 26 27  1  0  0  0  0
 27 28  2  0  0  0  0
 27 29  1  0  0  0  0
 29 30  1  0  0  0  0
M  END
>  <MODEL>
5

>  <REMARK>
 VINA RESULT:      -4.7      4.764      7.565
  Name = 
  3 active torsions:
  status: ('A' for Active; 'I' for Inactive)
    1  A    between atoms: CA_7  and  C_10
    2  A    between atoms: CA_7  and  C_15
    3  A    between atoms: C_10  and  C_25
                            x       y       z     vdW  Elec       q    Type
                         _______ _______ _______ _____ _____    ______ ____

>  <TORSDO>
F 3

$$$$
=
 OpenBabel10272413443D

 30 35  0  0  1  0  0  0  0  0999 V2000
  184.9460  177.6770  137.8250 C   0  0  1  0  0  0  0  0  0  0  0  0
  186.1320  177.3950  138.7760 C   0  0  2  0  0  3  0  0  0  0  0  0
  187.5820  177.3730  136.8070 C   0  0  1  0  0  0  0  0  0  0  0  0
  184.3970  176.4270  137.0900 C   0  0  2  0  0  3  0  0  0  0  0  0
  184.1560  178.9810  138.0360 C   0  0  0  0  0  2  0  0  0  0  0  0
  181.0090  178.2680  140.5750 S   0  0  0  0  0  0  0  0  0  0  0  0
  182.6590  177.9700  139.8610 C   0  0  2  0  0  3  0  0  0  0  0  0
  182.0310  179.9940  138.7440 N   0  0  0  0  0  2  0  0  0  0  0  0
  187.3930  176.7360  135.4820 N   0  0  0  0  0  0  0  0  0  0  0  0
  182.7360  178.7460  138.5420 C   0  0  1  0  0  3  0  0  0  0  0  0
  182.9810  176.4740  139.7390 C   0  0  0  0  0  2  0  0  0  0  0  0
  188.2200  178.4190  139.7040 C   0  0  0  0  0  2  0  0  0  0  0  0
  180.3930  180.8420  140.1790 O   0  0  0  0  0  0  0  0  0  0  0  0
  186.6760  178.4270  139.7530 C   0  0  0  0  0  2  0  0  0  0  0  0
  189.9770  177.5830  137.1060 O   0  0  0  0  0  1  0  0  0  0  0  0
  188.8170  177.0990  139.1680 C   0  0  0  0  0  2  0  0  0  0  0  0
  181.0790  179.8640  139.7850 C   0  0  0  0  0  0  0  0  0  0  0  0
  186.3380  177.9440  137.3810 C   0  0  1  0  0  0  0  0  0  0  0  0
  184.8570  176.3290  135.6230 C   0  0  0  0  0  2  0  0  0  0  0  0
  187.2480  177.6900  134.3840 C   0  0  0  0  0  1  0  0  0  0  0  0
  186.2900  175.7500  135.4390 C   0  0  2  0  0  3  0  0  0  0  0  0
  182.8770  176.2730  137.1670 C   0  0  0  0  0  2  0  0  0  0  0  0
  188.8410  176.9600  137.6230 C   0  0  1  0  0  3  0  0  0  0  0  0
  187.3470  178.9410  136.9190 C   0  0  0  0  0  2  0  0  0  0  0  0
  182.3740  175.7610  138.5240 C   0  0  0  0  0  2  0  0  0  0  0  0
  186.5870  174.5280  136.3130 C   0  0  0  0  0  2  0  0  0  0  0  0
  185.9240  173.2620  135.8430 C   0  0  0  0  0  0  0  0  0  0  0  0
  186.2640  172.7730  134.7090 N   0  0  0  0  0  2  0  0  0  0  0  0
  184.8970  172.5460  136.6680 C   0  0  0  0  0  2  0  0  0  0  0  0
  184.9390  173.0080  137.9840 O   0  0  0  0  0  1  0  0  0  0  0  0
  1  5  1  1  0  0  0
  1  2  1  0  0  0  0
  2 14  1  1  0  0  0
  3 24  1  6  0  0  0
  3 18  1  0  0  0  0
  3 23  1  0  0  0  0
  4 19  1  6  0  0  0
  4 22  1  0  0  0  0
  4  1  1  0  0  0  0
  7 11  1  6  0  0  0
  7  6  1  0  0  0  0
  8 17  1  0  0  0  0
  9  3  1  0  0  0  0
 10  5  1  1  0  0  0
 10  8  1  0  0  0  0
 10  7  1  0  0  0  0
 12 14  1  0  0  0  0
 16 12  1  0  0  0  0
 17 13  2  0  0  0  0
 17  6  1  0  0  0  0
 18 24  1  1  0  0  0
 18  1  1  0  0  0  0
 18  2  1  0  0  0  0
 20  9  1  0  0  0  0
 21  9  1  0  0  0  0
 21 19  1  0  0  0  0
 21 26  1  1  0  0  0
 22 25  1  0  0  0  0
 23 15  1  6  0  0  0
 23 16  1  0  0  0  0
 25 11  1  0  0  0  0
 27 26  1  0  0  0  0
 27 29  1  0  0  0  0
 28 27  2  0  0  0  0
 29 30  1  0  0  0  0
M  END
>  <MODEL>
6

>  <REMARK>
 VINA RESULT:      -4.3      3.398      7.212
  Name = 
  3 active torsions:
  status: ('A' for Active; 'I' for Inactive)
    1  A    between atoms: CA_7  and  C_10
    2  A    between atoms: CA_7  and  C_15
    3  A    between atoms: C_10  and  C_25
                            x       y       z     vdW  Elec       q    Type
                         _______ _______ _______ _____ _____    ______ ____

>  <TORSDO>
F 3

$$$$
=
 OpenBabel10272413443D

 30 35  0  0  1  0  0  0  0  0999 V2000
  191.2870  175.3440  136.3390 C   0  0  1  0  0  0  0  0  0  0  0  0
  190.4140  174.1060  136.6510 C   0  0  2  0  0  3  0  0  0  0  0  0
  188.4590  175.4600  136.0790 C   0  0  1  0  0  0  0  0  0  0  0  0
  191.3390  176.4000  137.4750 C   0  0  2  0  0  3  0  0  0  0  0  0
  192.3370  175.2130  135.2220 C   0  0  0  0  0  2  0  0  0  0  0  0
  195.9100  174.0060  136.8470 S   0  0  0  0  0  0  0  0  0  0  0  0
  194.0950  174.1660  136.7730 C   0  0  2  0  0  3  0  0  0  0  0  0
  194.7290  175.1090  134.6640 N   0  0  0  0  0  2  0  0  0  0  0  0
  188.1130  176.8520  136.4510 N   0  0  0  0  0  0  0  0  0  0  0  0
  193.7720  175.2510  135.7400 C   0  0  1  0  0  3  0  0  0  0  0  0
  193.4730  174.3980  138.1570 C   0  0  0  0  0  2  0  0  0  0  0  0
  188.9410  172.3930  135.5730 C   0  0  0  0  0  2  0  0  0  0  0  0
  196.8550  174.1910  134.3510 O   0  0  0  0  0  0  0  0  0  0  0  0
  190.3990  172.8600  135.7790 C   0  0  0  0  0  2  0  0  0  0  0  0
  186.3540  174.3520  135.6210 O   0  0  0  0  0  1  0  0  0  0  0  0
  187.9690  172.8920  136.6650 C   0  0  0  0  0  2  0  0  0  0  0  0
  195.9080  174.4760  135.1290 C   0  0  0  0  0  0  0  0  0  0  0  0
  189.9030  175.2530  135.8060 C   0  0  1  0  0  0  0  0  0  0  0  0
  190.4460  177.6260  137.2090 C   0  0  0  0  0  2  0  0  0  0  0  0
  188.0970  177.7790  135.3200 C   0  0  0  0  0  1  0  0  0  0  0  0
  188.9420  177.4090  137.5440 C   0  0  2  0  0  3  0  0  0  0  0  0
  192.7520  176.8570  137.8400 C   0  0  0  0  0  2  0  0  0  0  0  0
  187.4530  174.3430  136.4810 C   0  0  1  0  0  3  0  0  0  0  0  0
  189.0120  175.1970  134.6130 C   0  0  0  0  0  2  0  0  0  0  0  0
  193.5360  175.8390  138.6800 C   0  0  0  0  0  2  0  0  0  0  0  0
  188.6960  176.6810  138.8690 C   0  0  0  0  0  2  0  0  0  0  0  0
  188.7860  177.5670  140.0810 C   0  0  0  0  0  0  0  0  0  0  0  0
  188.2100  178.7110  140.0510 N   0  0  0  0  0  2  0  0  0  0  0  0
  189.5060  177.1460  141.3270 C   0  0  0  0  0  2  0  0  0  0  0  0
  190.4940  176.2120  141.0110 O   0  0  0  0  0  1  0  0  0  0  0  0
  1  5  1  6  0  0  0
  1  2  1  0  0  0  0
  1  4  1  0  0  0  0
  2 14  1  6  0  0  0
  3 24  1  6  0  0  0
  3  9  1  0  0  0  0
  3 23  1  0  0  0  0
  4 19  1  6  0  0  0
  4 22  1  0  0  0  0
  7  6  1  0  0  0  0
  7 11  1  1  0  0  0
  8 17  1  0  0  0  0
  8 10  1  0  0  0  0
  9 21  1  0  0  0  0
 10  5  1  6  0  0  0
 10  7  1  0  0  0  0
 11 25  1  0  0  0  0
 12 14  1  0  0  0  0
 12 16  1  0  0  0  0
 13 17  2  0  0  0  0
 17  6  1  0  0  0  0
 18 24  1  6  0  0  0
 18  3  1  0  0  0  0
 18  1  1  0  0  0  0
 18  2  1  0  0  0  0
 19 21  1  0  0  0  0
 20  9  1  0  0  0  0
 21 26  1  1  0  0  0
 22 25  1  0  0  0  0
 23 15  1  6  0  0  0
 23 16  1  0  0  0  0
 26 27  1  0  0  0  0
 27 29  1  0  0  0  0
 28 27  2  0  0  0  0
 30 29  1  0  0  0  0
M  END
>  <MODEL>
7

>  <REMARK>
 VINA RESULT:      -4.3      2.626      3.528
  Name = 
  3 active torsions:
  status: ('A' for Active; 'I' for Inactive)
    1  A    between atoms: CA_7  and  C_10
    2  A    between atoms: CA_7  and  C_15
    3  A    between atoms: C_10  and  C_25
                            x       y       z     vdW  Elec       q    Type
                         _______ _______ _______ _____ _____    ______ ____

>  <TORSDO>
F 3

$$$$
=
 OpenBabel10272413443D

 30 35  0  0  1  0  0  0  0  0999 V2000
  188.6720  176.7050  137.6810 C   0  0  1  0  0  0  0  0  0  0  0  0
  188.0580  175.2850  137.6830 C   0  0  2  0  0  3  0  0  0  0  0  0
  186.7680  175.9440  135.7130 C   0  0  1  0  0  0  0  0  0  0  0  0
  187.7640  177.8000  138.2980 C   0  0  2  0  0  3  0  0  0  0  0  0
  190.1990  176.8220  137.5280 C   0  0  0  0  0  2  0  0  0  0  0  0
  191.9400  176.8610  141.2460 S   0  0  0  0  0  0  0  0  0  0  0  0
  190.6420  176.4610  140.0310 C   0  0  2  0  0  3  0  0  0  0  0  0
  192.3250  177.4070  138.6130 N   0  0  0  0  0  2  0  0  0  0  0  0
  186.0150  177.1890  135.4300 N   0  0  0  0  0  0  0  0  0  0  0  0
  190.8910  177.3250  138.7900 C   0  0  1  0  0  3  0  0  0  0  0  0
  189.2310  176.5870  140.6220 C   0  0  0  0  0  2  0  0  0  0  0  0
  188.0170  173.1380  136.3950 C   0  0  0  0  0  2  0  0  0  0  0  0
  194.2460  177.1540  139.9200 O   0  0  0  0  0  0  0  0  0  0  0  0
  188.8540  174.0360  137.3320 C   0  0  0  0  0  2  0  0  0  0  0  0
  185.7450  174.2250  134.3460 O   0  0  0  0  0  1  0  0  0  0  0  0
  186.4960  173.3940  136.4860 C   0  0  0  0  0  2  0  0  0  0  0  0
  192.9910  177.1920  139.8450 C   0  0  0  0  0  0  0  0  0  0  0  0
  188.0360  176.1650  136.4520 C   0  0  1  0  0  0  0  0  0  0  0  0
  187.0650  178.6800  137.2440 C   0  0  0  0  0  2  0  0  0  0  0  0
  186.5810  177.9890  134.3460 C   0  0  0  0  0  1  0  0  0  0  0  0
  185.7910  178.0420  136.6190 C   0  0  2  0  0  3  0  0  0  0  0  0
  188.4650  178.6860  139.3290 C   0  0  0  0  0  2  0  0  0  0  0  0
  185.9750  174.6060  135.6690 C   0  0  1  0  0  3  0  0  0  0  0  0
  188.1890  175.7620  135.0240 C   0  0  0  0  0  2  0  0  0  0  0  0
  188.6660  178.0100  140.6930 C   0  0  0  0  0  2  0  0  0  0  0  0
  184.8690  177.3640  137.6380 C   0  0  0  0  0  2  0  0  0  0  0  0
  183.6360  178.1590  137.9720 C   0  0  0  0  0  0  0  0  0  0  0  0
  182.6100  178.0510  137.2130 N   0  0  0  0  0  2  0  0  0  0  0  0
  183.5630  179.0520  139.1740 C   0  0  0  0  0  2  0  0  0  0  0  0
  184.4070  180.1500  139.0010 O   0  0  0  0  0  1  0  0  0  0  0  0
  1  5  1  1  0  0  0
  1  2  1  0  0  0  0
  1  4  1  0  0  0  0
  2 14  1  6  0  0  0
  3 24  1  6  0  0  0
  3 18  1  0  0  0  0
  4 19  1  6  0  0  0
  4 22  1  0  0  0  0
  7 11  1  1  0  0  0
  7  6  1  0  0  0  0
  8 10  1  0  0  0  0
  8 17  1  0  0  0  0
  9  3  1  0  0  0  0
  9 21  1  0  0  0  0
 10  5  1  6  0  0  0
 10  7  1  0  0  0  0
 11 25  1  0  0  0  0
 12 16  1  0  0  0  0
 12 14  1  0  0  0  0
 17 13  2  0  0  0  0
 17  6  1  0  0  0  0
 18 24  1  6  0  0  0
 18  1  1  0  0  0  0
 18  2  1  0  0  0  0
 20  9  1  0  0  0  0
 21 19  1  0  0  0  0
 21 26  1  1  0  0  0
 22 25  1  0  0  0  0
 23 15  1  6  0  0  0
 23  3  1  0  0  0  0
 23 16  1  0  0  0  0
 26 27  1  0  0  0  0
 27 29  1  0  0  0  0
 28 27  2  0  0  0  0
 30 29  1  0  0  0  0
M  END
>  <MODEL>
8

>  <REMARK>
 VINA RESULT:      -4.2      2.117      2.449
  Name = 
  3 active torsions:
  status: ('A' for Active; 'I' for Inactive)
    1  A    between atoms: CA_7  and  C_10
    2  A    between atoms: CA_7  and  C_15
    3  A    between atoms: C_10  and  C_25
                            x       y       z     vdW  Elec       q    Type
                         _______ _______ _______ _____ _____    ______ ____

>  <TORSDO>
F 3

$$$$
=
 OpenBabel10272413443D

 30 35  0  0  1  0  0  0  0  0999 V2000
  184.3690  174.8770  136.2530 C   0  0  1  0  0  0  0  0  0  0  0  0
  184.1820  175.4510  137.6770 C   0  0  2  0  0  3  0  0  0  0  0  0
  185.4110  177.4310  136.9370 C   0  0  1  0  0  0  0  0  0  0  0  0
  185.7640  174.2540  135.9860 C   0  0  2  0  0  3  0  0  0  0  0  0
  183.1020  174.5570  135.4400 C   0  0  0  0  0  2  0  0  0  0  0  0
  182.0220  170.6490  136.0890 S   0  0  0  0  0  0  0  0  0  0  0  0
  182.8060  172.2400  136.5070 C   0  0  2  0  0  3  0  0  0  0  0  0
  181.6860  172.8000  134.4640 N   0  0  0  0  0  2  0  0  0  0  0  0
  186.6530  177.5470  136.1360 N   0  0  0  0  0  0  0  0  0  0  0  0
  182.8950  173.0620  135.2170 C   0  0  1  0  0  3  0  0  0  0  0  0
  184.1420  172.0580  137.2390 C   0  0  0  0  0  2  0  0  0  0  0  0
  183.0020  177.2540  138.9510 C   0  0  0  0  0  2  0  0  0  0  0  0
  180.0500  171.1360  134.3460 O   0  0  0  0  0  0  0  0  0  0  0  0
  182.8340  175.9040  138.2180 C   0  0  0  0  0  2  0  0  0  0  0  0
  185.2800  179.4600  138.2550 O   0  0  0  0  0  1  0  0  0  0  0  0
  184.4450  177.5240  139.4330 C   0  0  0  0  0  2  0  0  0  0  0  0
  181.1380  171.5450  134.8270 C   0  0  0  0  0  0  0  0  0  0  0  0
  184.5130  176.3360  136.4940 C   0  0  1  0  0  0  0  0  0  0  0  0
  186.6940  175.1670  135.1640 C   0  0  0  0  0  2  0  0  0  0  0  0
  186.4540  178.1550  134.8220 C   0  0  0  0  0  1  0  0  0  0  0  0
  187.4000  176.2770  135.9930 C   0  0  2  0  0  3  0  0  0  0  0  0
  185.7170  172.8610  135.3580 C   0  0  0  0  0  2  0  0  0  0  0  0
  185.4140  178.0740  138.3540 C   0  0  1  0  0  3  0  0  0  0  0  0
  184.0280  177.7160  136.2090 C   0  0  0  0  0  2  0  0  0  0  0  0
  185.3510  171.7460  136.3480 C   0  0  0  0  0  2  0  0  0  0  0  0
  187.9590  175.7940  137.3350 C   0  0  0  0  0  2  0  0  0  0  0  0
  189.0620  176.6560  137.8860 C   0  0  0  0  0  0  0  0  0  0  0  0
  190.1760  176.7080  137.2560 N   0  0  0  0  0  2  0  0  0  0  0  0
  188.8910  177.4720  139.1320 C   0  0  0  0  0  2  0  0  0  0  0  0
  188.7810  178.8240  138.8040 O   0  0  0  0  0  1  0  0  0  0  0  0
  1  5  1  6  0  0  0
  1 18  1  0  0  0  0
  1  2  1  0  0  0  0
  2 14  1  6  0  0  0
  3 24  1  6  0  0  0
  3 23  1  0  0  0  0
  4 19  1  6  0  0  0
  4  1  1  0  0  0  0
  6  7  1  0  0  0  0
  7 11  1  6  0  0  0
  8 17  1  0  0  0  0
  8 10  1  0  0  0  0
  9  3  1  0  0  0  0
 10  5  1  1  0  0  0
 10  7  1  0  0  0  0
 12 16  1  0  0  0  0
 13 17  2  0  0  0  0
 14 12  1  0  0  0  0
 17  6  1  0  0  0  0
 18 24  1  6  0  0  0
 18  3  1  0  0  0  0
 18  2  1  0  0  0  0
 19 21  1  0  0  0  0
 20  9  1  0  0  0  0
 21  9  1  0  0  0  0
 21 26  1  1  0  0  0
 22  4  1  0  0  0  0
 22 25  1  0  0  0  0
 23 15  1  6  0  0  0
 23 16  1  0  0  0  0
 25 11  1  0  0  0  0
 26 27  1  0  0  0  0
 27 29  1  0  0  0  0
 28 27  2  0  0  0  0
 30 29  1  0  0  0  0
M  END
>  <MODEL>
9

>  <REMARK>
 VINA RESULT:      -4.0      3.276      6.628
  Name = 
  3 active torsions:
  status: ('A' for Active; 'I' for Inactive)
    1  A    between atoms: CA_7  and  C_10
    2  A    between atoms: CA_7  and  C_15
    3  A    between atoms: C_10  and  C_25
                            x       y       z     vdW  Elec       q    Type
                         _______ _______ _______ _____ _____    ______ ____

>  <TORSDO>
F 3

$$$$
