=
 OpenBabel10272400113D

 34 37  0  0  1  0  0  0  0  0999 V2000
  192.0920  174.5050  137.8260 C   0  0  1  0  0  3  0  0  0  0  0  0
  192.9200  176.8290  138.0170 C   0  0  1  0  0  3  0  0  0  0  0  0
  190.3780  176.3330  138.2930 C   0  0  1  0  0  3  0  0  0  0  0  0
  193.5680  174.5980  137.8840 C   0  0  0  0  0  0  0  0  0  0  0  0
  194.0530  175.9260  137.9370 N   0  0  0  0  0  2  0  0  0  0  0  0
  191.7620  177.2630  140.1870 C   0  0  0  0  0  3  0  0  0  0  0  0
  191.7000  175.9670  137.6140 C   0  0  2  0  0  3  0  0  0  0  0  0
  194.3350  173.6000  137.9150 O   0  0  0  0  0  0  0  0  0  0  0  0
  192.8460  177.3650  139.4220 C   0  0  0  0  0  3  0  0  0  0  0  0
  190.5620  176.6460  139.7080 N   0  0  0  0  0  0  0  0  0  0  0  0
  188.4840  177.0970  136.8490 C   0  0  1  0  0  0  0  0  0  0  0  0
  189.7120  177.5090  137.5830 C   0  0  2  0  0  3  0  0  0  0  0  0
  189.7110  177.2990  136.1880 O   0  0  0  0  0  0  0  0  0  0  0  0
  188.1280  175.7460  136.8260 O   0  0  0  0  0  1  0  0  0  0  0  0
  187.8200  179.4210  136.6650 F   0  0  0  0  0  0  0  0  0  0  0  0
  187.4200  178.1140  136.4360 C   0  0  2  0  0  3  0  0  0  0  0  0
  186.0240  177.7830  136.9860 C   0  0  0  0  0  2  0  0  0  0  0  0
  186.4350  178.4520  139.2640 O   0  0  0  0  0  1  0  0  0  0  0  0
  184.1410  178.3030  138.6010 C   0  0  0  0  0  1  0  0  0  0  0  0
  185.5660  178.6190  138.1860 C   0  0  2  0  0  3  0  0  0  0  0  0
  191.6600  173.6650  136.6330 C   0  0  0  0  0  2  0  0  0  0  0  0
  191.8190  174.4520  135.3470 C   0  0  0  0  0  1  0  0  0  0  0  0
  189.4580  176.3990  140.6240 C   0  0  0  0  0  2  0  0  0  0  0  0
  189.9130  176.5670  142.0670 C   0  0  2  0  0  3  0  0  0  0  0  0
  190.4410  175.3640  142.5340 O   0  0  0  0  0  1  0  0  0  0  0  0
  188.7400  176.9740  142.9380 C   0  0  0  0  0  2  0  0  0  0  0  0
  189.0000  176.6230  144.2650 O   0  0  0  0  0  0  0  0  0  0  0  0
  189.1140  177.8380  144.9480 C   0  0  2  0  0  3  0  0  0  0  0  0
  190.0940  177.7190  146.1070 C   0  0  1  0  0  3  0  0  0  0  0  0
  189.2520  176.8830  147.4810 S   0  0  0  0  0  0  0  0  0  0  0  0
  187.6110  177.2990  146.8070 C   0  0  0  0  0  2  0  0  0  0  0  0
  187.7840  178.1830  145.5840 C   0  0  0  0  0  2  0  0  0  0  0  0
  192.0710  176.6310  146.8960 O   0  0  0  0  0  1  0  0  0  0  0  0
  191.3810  176.9940  145.7380 C   0  0  0  0  0  2  0  0  0  0  0  0
  1 21  1  6  0  0  0
  1  4  1  0  0  0  0
  2  9  1  1  0  0  0
  3 10  1  1  0  0  0
  4  8  2  0  0  0  0
  4  5  1  0  0  0  0
  5  2  1  0  0  0  0
  7  1  1  0  0  0  0
  7  2  1  0  0  0  0
  7  3  1  0  0  0  0
  9  6  2  0  0  0  0
 10  6  1  0  0  0  0
 10 23  1  0  0  0  0
 11 12  1  0  0  0  0
 12  3  1  0  0  0  0
 13 11  1  0  0  0  0
 13 12  1  0  0  0  0
 14 11  1  0  0  0  0
 16 15  1  0  0  0  0
 16 11  1  0  0  0  0
 16 17  1  0  0  0  0
 17 20  1  0  0  0  0
 20 19  1  0  0  0  0
 20 18  1  0  0  0  0
 22 21  1  0  0  0  0
 23 24  1  0  0  0  0
 24 25  1  0  0  0  0
 24 26  1  0  0  0  0
 26 27  1  0  0  0  0
 27 28  1  0  0  0  0
 28 32  1  0  0  0  0
 28 29  1  0  0  0  0
 29 30  1  0  0  0  0
 31 30  1  0  0  0  0
 32 31  1  0  0  0  0
 34 29  1  0  0  0  0
 34 33  1  0  0  0  0
M  END
>  <MODEL>
1

>  <REMARK>
 VINA RESULT:      -6.4      0.000      0.000
  Name = 
  11 active torsions:
  status: ('A' for Active; 'I' for Inactive)
    1  A    between atoms: C_1  and  C_24
    2  A    between atoms: O_3  and  C_13
    3  A    between atoms: O_3  and  C_17
    4  A    between atoms: C_4  and  C_21
    5  A    between atoms: C_5  and  C_18
    6  A    between atoms: C_5  and  N_31
    7  A    between atoms: C_7  and  C_23
    8  A    between atoms: C_12  and  C_23
    9  A    between atoms: C_12  and  C_27
   10  A    between atoms: C_14  and  C_34
   11  A    between atoms: C_17  and  C_18
                            x       y       z     vdW  Elec       q    Type
                         _______ _______ _______ _____ _____    ______ ____

>  <TORSDO>
F 11

$$$$
=
 OpenBabel10272400113D

 34 37  0  0  1  0  0  0  0  0999 V2000
  191.2940  175.7100  136.1690 C   0  0  1  0  0  3  0  0  0  0  0  0
  189.9740  173.9080  137.2340 C   0  0  1  0  0  3  0  0  0  0  0  0
  189.4480  176.3980  137.7870 C   0  0  1  0  0  3  0  0  0  0  0  0
  191.5460  174.3750  135.5830 C   0  0  0  0  0  0  0  0  0  0  0  0
  190.8370  173.3300  136.2210 N   0  0  0  0  0  2  0  0  0  0  0  0
  187.7670  174.9130  136.6320 C   0  0  0  0  0  3  0  0  0  0  0  0
  190.5030  175.3490  137.4260 C   0  0  2  0  0  3  0  0  0  0  0  0
  192.2920  174.1730  134.5890 O   0  0  0  0  0  0  0  0  0  0  0  0
  188.5560  173.8450  136.7320 C   0  0  0  0  0  3  0  0  0  0  0  0
  188.2150  176.2140  137.0250 N   0  0  0  0  0  0  0  0  0  0  0  0
  189.0470  177.7360  139.8620 C   0  0  1  0  0  0  0  0  0  0  0  0
  189.1440  176.3680  139.2820 C   0  0  2  0  0  3  0  0  0  0  0  0
  190.2060  176.9500  140.0080 O   0  0  0  0  0  0  0  0  0  0  0  0
  189.3000  178.8400  139.0430 O   0  0  0  0  0  1  0  0  0  0  0  0
  187.4360  179.0420  141.1170 F   0  0  0  0  0  0  0  0  0  0  0  0
  188.3400  177.9940  141.1920 C   0  0  2  0  0  3  0  0  0  0  0  0
  189.3070  178.0880  142.3820 C   0  0  0  0  0  2  0  0  0  0  0  0
  189.1570  175.7730  143.0360 O   0  0  0  0  0  1  0  0  0  0  0  0
  187.7450  177.3000  144.2170 C   0  0  0  0  0  1  0  0  0  0  0  0
  189.0710  177.0810  143.5120 C   0  0  2  0  0  3  0  0  0  0  0  0
  192.6070  176.3790  136.5470 C   0  0  0  0  0  2  0  0  0  0  0  0
  193.1550  175.7810  137.8280 C   0  0  0  0  0  1  0  0  0  0  0  0
  187.3910  177.3800  136.7440 C   0  0  0  0  0  2  0  0  0  0  0  0
  186.0010  177.2100  137.3440 C   0  0  2  0  0  3  0  0  0  0  0  0
  185.0480  177.2290  136.3270 O   0  0  0  0  0  1  0  0  0  0  0  0
  185.7170  178.3320  138.3220 C   0  0  0  0  0  2  0  0  0  0  0  0
  184.5410  178.0530  139.0230 O   0  0  0  0  0  0  0  0  0  0  0  0
  184.2000  179.2540  139.6550 C   0  0  2  0  0  3  0  0  0  0  0  0
  183.6300  178.9930  141.0430 C   0  0  1  0  0  3  0  0  0  0  0  0
  181.9060  178.4560  140.8590 S   0  0  0  0  0  0  0  0  0  0  0  0
  181.7940  179.1830  139.1920 C   0  0  0  0  0  2  0  0  0  0  0  0
  183.0830  179.9260  138.8860 C   0  0  0  0  0  2  0  0  0  0  0  0
  184.3710  178.2890  143.2040 O   0  0  0  0  0  1  0  0  0  0  0  0
  184.4320  177.9780  141.8450 C   0  0  0  0  0  2  0  0  0  0  0  0
  1 21  1  1  0  0  0
  1  7  1  0  0  0  0
  2  9  1  6  0  0  0
  2  7  1  0  0  0  0
  3 10  1  6  0  0  0
  3 12  1  0  0  0  0
  4  1  1  0  0  0  0
  4  5  1  0  0  0  0
  5  2  1  0  0  0  0
  6  9  2  0  0  0  0
  6 10  1  0  0  0  0
  7  3  1  0  0  0  0
  8  4  2  0  0  0  0
 11 13  1  0  0  0  0
 11 16  1  0  0  0  0
 12 11  1  0  0  0  0
 12 13  1  0  0  0  0
 14 11  1  0  0  0  0
 15 16  1  0  0  0  0
 16 17  1  0  0  0  0
 17 20  1  0  0  0  0
 18 20  1  0  0  0  0
 20 19  1  0  0  0  0
 21 22  1  0  0  0  0
 23 10  1  0  0  0  0
 23 24  1  0  0  0  0
 24 26  1  0  0  0  0
 25 24  1  0  0  0  0
 26 27  1  0  0  0  0
 27 28  1  0  0  0  0
 28 29  1  0  0  0  0
 29 34  1  0  0  0  0
 30 29  1  0  0  0  0
 31 30  1  0  0  0  0
 32 31  1  0  0  0  0
 32 28  1  0  0  0  0
 34 33  1  0  0  0  0
M  END
>  <MODEL>
2

>  <REMARK>
 VINA RESULT:      -5.9      2.948      5.840
  Name = 
  11 active torsions:
  status: ('A' for Active; 'I' for Inactive)
    1  A    between atoms: C_1  and  C_24
    2  A    between atoms: O_3  and  C_13
    3  A    between atoms: O_3  and  C_17
    4  A    between atoms: C_4  and  C_21
    5  A    between atoms: C_5  and  C_18
    6  A    between atoms: C_5  and  N_31
    7  A    between atoms: C_7  and  C_23
    8  A    between atoms: C_12  and  C_23
    9  A    between atoms: C_12  and  C_27
   10  A    between atoms: C_14  and  C_34
   11  A    between atoms: C_17  and  C_18
                            x       y       z     vdW  Elec       q    Type
                         _______ _______ _______ _____ _____    ______ ____

>  <TORSDO>
F 11

$$$$
=
 OpenBabel10272400113D

 34 37  0  0  1  0  0  0  0  0999 V2000
  192.0270  174.5240  137.8770 C   0  0  1  0  0  3  0  0  0  0  0  0
  192.9680  176.8120  137.9180 C   0  0  1  0  0  3  0  0  0  0  0  0
  190.4700  176.4290  138.5460 C   0  0  1  0  0  3  0  0  0  0  0  0
  193.4990  174.5540  137.7320 C   0  0  0  0  0  0  0  0  0  0  0  0
  194.0420  175.8600  137.6980 N   0  0  0  0  0  2  0  0  0  0  0  0
  192.1370  177.3150  140.2200 C   0  0  0  0  0  3  0  0  0  0  0  0
  191.6700  175.9990  137.6980 C   0  0  2  0  0  3  0  0  0  0  0  0
  194.2210  173.5240  137.6740 O   0  0  0  0  0  0  0  0  0  0  0  0
  193.1090  177.3630  139.3120 C   0  0  0  0  0  3  0  0  0  0  0  0
  190.8580  176.7460  139.9180 N   0  0  0  0  0  0  0  0  0  0  0  0
  188.5440  177.2220  137.1610 C   0  0  1  0  0  0  0  0  0  0  0  0
  189.7630  177.6250  137.9160 C   0  0  2  0  0  3  0  0  0  0  0  0
  189.7590  177.5050  136.5100 O   0  0  0  0  0  0  0  0  0  0  0  0
  188.2310  175.8640  137.0530 O   0  0  0  0  0  1  0  0  0  0  0  0
  187.9130  179.5320  136.7870 F   0  0  0  0  0  0  0  0  0  0  0  0
  187.4450  178.2280  136.8190 C   0  0  2  0  0  3  0  0  0  0  0  0
  186.1730  178.0420  137.6600 C   0  0  0  0  0  2  0  0  0  0  0  0
  184.8800  176.0110  137.5580 O   0  0  0  0  0  1  0  0  0  0  0  0
  185.2300  177.1490  135.4830 C   0  0  0  0  0  1  0  0  0  0  0  0
  185.0340  177.2720  136.9830 C   0  0  2  0  0  3  0  0  0  0  0  0
  191.4010  173.6920  136.7670 C   0  0  0  0  0  2  0  0  0  0  0  0
  191.5220  174.4100  135.4370 C   0  0  0  0  0  1  0  0  0  0  0  0
  189.8810  176.5560  140.9790 C   0  0  0  0  0  2  0  0  0  0  0  0
  189.3920  177.8990  141.5030 C   0  0  2  0  0  3  0  0  0  0  0  0
  189.8780  178.1030  142.7940 O   0  0  0  0  0  1  0  0  0  0  0  0
  187.8760  177.9280  141.5250 C   0  0  0  0  0  2  0  0  0  0  0  0
  187.4380  178.4880  142.7270 O   0  0  0  0  0  0  0  0  0  0  0  0
  186.5590  177.5450  143.2700 C   0  0  2  0  0  3  0  0  0  0  0  0
  185.2630  178.2070  143.7200 C   0  0  1  0  0  3  0  0  0  0  0  0
  185.5660  179.0250  145.3130 S   0  0  0  0  0  0  0  0  0  0  0  0
  187.0330  177.9930  145.6320 C   0  0  0  0  0  2  0  0  0  0  0  0
  187.1650  176.9590  144.5270 C   0  0  0  0  0  2  0  0  0  0  0  0
  183.4780  178.7270  142.2190 O   0  0  0  0  0  1  0  0  0  0  0  0
  184.7020  179.1910  142.7030 C   0  0  0  0  0  2  0  0  0  0  0  0
  1 21  1  6  0  0  0
  2  9  1  1  0  0  0
  3 10  1  1  0  0  0
  4  1  1  0  0  0  0
  5  4  1  0  0  0  0
  5  2  1  0  0  0  0
  7  1  1  0  0  0  0
  7  2  1  0  0  0  0
  7  3  1  0  0  0  0
  8  4  2  0  0  0  0
  9  6  2  0  0  0  0
 10  6  1  0  0  0  0
 10 23  1  0  0  0  0
 11 12  1  0  0  0  0
 12  3  1  0  0  0  0
 13 11  1  0  0  0  0
 13 12  1  0  0  0  0
 14 11  1  0  0  0  0
 15 16  1  0  0  0  0
 16 11  1  0  0  0  0
 16 17  1  0  0  0  0
 19 20  1  0  0  0  0
 20 18  1  0  0  0  0
 20 17  1  0  0  0  0
 22 21  1  0  0  0  0
 23 24  1  0  0  0  0
 24 26  1  0  0  0  0
 24 25  1  0  0  0  0
 26 27  1  0  0  0  0
 27 28  1  0  0  0  0
 28 29  1  0  0  0  0
 28 32  1  0  0  0  0
 29 30  1  0  0  0  0
 30 31  1  0  0  0  0
 32 31  1  0  0  0  0
 33 34  1  0  0  0  0
 34 29  1  0  0  0  0
M  END
>  <MODEL>
3

>  <REMARK>
 VINA RESULT:      -5.9      1.877      2.855
  Name = 
  11 active torsions:
  status: ('A' for Active; 'I' for Inactive)
    1  A    between atoms: C_1  and  C_24
    2  A    between atoms: O_3  and  C_13
    3  A    between atoms: O_3  and  C_17
    4  A    between atoms: C_4  and  C_21
    5  A    between atoms: C_5  and  C_18
    6  A    between atoms: C_5  and  N_31
    7  A    between atoms: C_7  and  C_23
    8  A    between atoms: C_12  and  C_23
    9  A    between atoms: C_12  and  C_27
   10  A    between atoms: C_14  and  C_34
   11  A    between atoms: C_17  and  C_18
                            x       y       z     vdW  Elec       q    Type
                         _______ _______ _______ _____ _____    ______ ____

>  <TORSDO>
F 11

$$$$
=
 OpenBabel10272400113D

 34 37  0  0  1  0  0  0  0  0999 V2000
  185.6480  179.4980  144.4200 C   0  0  1  0  0  3  0  0  0  0  0  0
  186.0160  177.0570  144.2470 C   0  0  1  0  0  3  0  0  0  0  0  0
  186.0580  178.5280  142.0980 C   0  0  1  0  0  3  0  0  0  0  0  0
  185.8310  178.8390  145.7320 C   0  0  0  0  0  0  0  0  0  0  0  0
  185.9870  177.4350  145.6480 N   0  0  0  0  0  2  0  0  0  0  0  0
  188.1020  177.2780  142.8900 C   0  0  0  0  0  3  0  0  0  0  0  0
  185.4730  178.2950  143.4940 C   0  0  2  0  0  3  0  0  0  0  0  0
  185.8780  179.4560  146.8280 O   0  0  0  0  0  0  0  0  0  0  0  0
  187.4340  176.7020  143.8870 C   0  0  0  0  0  3  0  0  0  0  0  0
  187.4960  178.2770  142.0620 N   0  0  0  0  0  0  0  0  0  0  0  0
  184.7420  178.4660  139.9720 C   0  0  1  0  0  0  0  0  0  0  0  0
  185.3520  177.6570  141.0630 C   0  0  2  0  0  3  0  0  0  0  0  0
  183.9730  177.9530  141.0340 O   0  0  0  0  0  0  0  0  0  0  0  0
  184.8110  179.8590  140.0400 O   0  0  0  0  0  1  0  0  0  0  0  0
  185.2910  178.1480  137.6320 F   0  0  0  0  0  0  0  0  0  0  0  0
  184.3730  177.8440  138.6250 C   0  0  2  0  0  3  0  0  0  0  0  0
  182.9120  178.0980  138.2220 C   0  0  0  0  0  2  0  0  0  0  0  0
  181.0720  177.1820  139.4800 O   0  0  0  0  0  1  0  0  0  0  0  0
  182.6800  175.6120  138.6590 C   0  0  0  0  0  1  0  0  0  0  0  0
  181.9510  176.9230  138.4290 C   0  0  2  0  0  3  0  0  0  0  0  0
  184.3850  180.3460  144.4240 C   0  0  0  0  0  2  0  0  0  0  0  0
  183.1600  179.4730  144.2290 C   0  0  0  0  0  1  0  0  0  0  0  0
  188.3050  179.0050  141.0960 C   0  0  0  0  0  2  0  0  0  0  0  0
  188.8540  178.0590  140.0370 C   0  0  2  0  0  3  0  0  0  0  0  0
  190.2020  177.8070  140.2890 O   0  0  0  0  0  1  0  0  0  0  0  0
  188.7060  178.6770  138.6600 C   0  0  0  0  0  2  0  0  0  0  0  0
  189.5080  177.9850  137.7500 O   0  0  0  0  0  0  0  0  0  0  0  0
  188.6510  177.0640  137.1360 C   0  0  2  0  0  3  0  0  0  0  0  0
  189.4180  175.8290  136.6840 C   0  0  1  0  0  3  0  0  0  0  0  0
  190.2900  176.2320  135.1430 S   0  0  0  0  0  0  0  0  0  0  0  0
  189.1800  177.6390  134.8130 C   0  0  0  0  0  2  0  0  0  0  0  0
  188.0880  177.6690  135.8690 C   0  0  0  0  0  2  0  0  0  0  0  0
  190.4460  173.9080  137.6680 O   0  0  0  0  0  1  0  0  0  0  0  0
  190.3870  175.3010  137.7330 C   0  0  0  0  0  2  0  0  0  0  0  0
  1 21  1  1  0  0  0
  1  4  1  0  0  0  0
  2  9  1  6  0  0  0
  2  5  1  0  0  0  0
  3 10  1  1  0  0  0
  3  7  1  0  0  0  0
  4  8  2  0  0  0  0
  5  4  1  0  0  0  0
  6  9  2  0  0  0  0
  7  2  1  0  0  0  0
  7  1  1  0  0  0  0
 10  6  1  0  0  0  0
 11 14  1  0  0  0  0
 11 13  1  0  0  0  0
 11 12  1  0  0  0  0
 12  3  1  0  0  0  0
 13 12  1  0  0  0  0
 15 16  1  0  0  0  0
 16 11  1  0  0  0  0
 17 20  1  0  0  0  0
 17 16  1  0  0  0  0
 20 19  1  0  0  0  0
 20 18  1  0  0  0  0
 22 21  1  0  0  0  0
 23 10  1  0  0  0  0
 24 25  1  0  0  0  0
 24 23  1  0  0  0  0
 26 24  1  0  0  0  0
 27 26  1  0  0  0  0
 28 27  1  0  0  0  0
 29 28  1  0  0  0  0
 29 34  1  0  0  0  0
 30 29  1  0  0  0  0
 31 30  1  0  0  0  0
 31 32  1  0  0  0  0
 32 28  1  0  0  0  0
 33 34  1  0  0  0  0
M  END
>  <MODEL>
4

>  <REMARK>
 VINA RESULT:      -5.5      3.769      8.112
  Name = 
  11 active torsions:
  status: ('A' for Active; 'I' for Inactive)
    1  A    between atoms: C_1  and  C_24
    2  A    between atoms: O_3  and  C_13
    3  A    between atoms: O_3  and  C_17
    4  A    between atoms: C_4  and  C_21
    5  A    between atoms: C_5  and  C_18
    6  A    between atoms: C_5  and  N_31
    7  A    between atoms: C_7  and  C_23
    8  A    between atoms: C_12  and  C_23
    9  A    between atoms: C_12  and  C_27
   10  A    between atoms: C_14  and  C_34
   11  A    between atoms: C_17  and  C_18
                            x       y       z     vdW  Elec       q    Type
                         _______ _______ _______ _____ _____    ______ ____

>  <TORSDO>
F 11

$$$$
=
 OpenBabel10272400113D

 34 37  0  0  1  0  0  0  0  0999 V2000
  190.1950  175.0320  136.7110 C   0  0  1  0  0  3  0  0  0  0  0  0
  189.3050  176.5440  134.9650 C   0  0  1  0  0  3  0  0  0  0  0  0
  187.8480  175.9690  137.0470 C   0  0  1  0  0  3  0  0  0  0  0  0
  191.2140  175.4500  135.7220 C   0  0  0  0  0  0  0  0  0  0  0  0
  190.7030  176.2700  134.6890 N   0  0  0  0  0  2  0  0  0  0  0  0
  188.6310  178.3230  136.5850 C   0  0  0  0  0  3  0  0  0  0  0  0
  188.9060  175.5060  136.0410 C   0  0  2  0  0  3  0  0  0  0  0  0
  192.4330  175.1410  135.7950 O   0  0  0  0  0  0  0  0  0  0  0  0
  189.1900  177.9720  135.4290 C   0  0  0  0  0  3  0  0  0  0  0  0
  188.0690  177.3490  137.4710 N   0  0  0  0  0  0  0  0  0  0  0  0
  185.7780  174.5710  136.9160 C   0  0  1  0  0  0  0  0  0  0  0  0
  186.4460  175.8230  136.4630 C   0  0  2  0  0  3  0  0  0  0  0  0
  186.3740  174.6750  135.6450 O   0  0  0  0  0  0  0  0  0  0  0  0
  186.4880  173.6780  137.7220 O   0  0  0  0  0  1  0  0  0  0  0  0
  183.6820  174.2630  138.0930 F   0  0  0  0  0  0  0  0  0  0  0  0
  184.2610  174.4010  136.8420 C   0  0  2  0  0  3  0  0  0  0  0  0
  183.8210  173.3330  135.8300 C   0  0  0  0  0  2  0  0  0  0  0  0
  184.4810  171.1290  135.1110 O   0  0  0  0  0  1  0  0  0  0  0  0
  182.9410  171.2300  136.9390 C   0  0  0  0  0  1  0  0  0  0  0  0
  184.1120  171.8820  136.2260 C   0  0  2  0  0  3  0  0  0  0  0  0
  190.1880  173.5180  136.8560 C   0  0  0  0  0  2  0  0  0  0  0  0
  189.4650  172.8780  135.6870 C   0  0  0  0  0  1  0  0  0  0  0  0
  187.6220  177.7490  138.7970 C   0  0  0  0  0  2  0  0  0  0  0  0
  188.8110  178.1200  139.6730 C   0  0  2  0  0  3  0  0  0  0  0  0
  189.7540  177.0940  139.6420 O   0  0  0  0  0  1  0  0  0  0  0  0
  188.3540  178.3420  141.1020 C   0  0  0  0  0  2  0  0  0  0  0  0
  189.4600  178.3170  141.9540 O   0  0  0  0  0  0  0  0  0  0  0  0
  188.9860  177.7690  143.1510 C   0  0  2  0  0  3  0  0  0  0  0  0
  190.0390  177.8670  144.2470 C   0  0  1  0  0  3  0  0  0  0  0  0
  191.2610  176.5500  143.9830 S   0  0  0  0  0  0  0  0  0  0  0  0
  190.0950  175.5920  142.9620 C   0  0  0  0  0  2  0  0  0  0  0  0
  188.7450  176.2870  142.9630 C   0  0  0  0  0  2  0  0  0  0  0  0
  192.0950  179.0840  144.1570 O   0  0  0  0  0  1  0  0  0  0  0  0
  190.7150  179.2290  144.3150 C   0  0  0  0  0  2  0  0  0  0  0  0
  1 21  1  6  0  0  0
  2  9  1  1  0  0  0
  2  7  1  0  0  0  0
  3 10  1  6  0  0  0
  4  8  2  0  0  0  0
  4  1  1  0  0  0  0
  5  2  1  0  0  0  0
  5  4  1  0  0  0  0
  6 10  1  0  0  0  0
  7  1  1  0  0  0  0
  7  3  1  0  0  0  0
  9  6  2  0  0  0  0
 10 23  1  0  0  0  0
 11 14  1  0  0  0  0
 12 11  1  0  0  0  0
 12  3  1  0  0  0  0
 13 12  1  0  0  0  0
 13 11  1  0  0  0  0
 16 11  1  0  0  0  0
 16 15  1  0  0  0  0
 17 20  1  0  0  0  0
 17 16  1  0  0  0  0
 18 20  1  0  0  0  0
 20 19  1  0  0  0  0
 22 21  1  0  0  0  0
 23 24  1  0  0  0  0
 24 26  1  0  0  0  0
 25 24  1  0  0  0  0
 26 27  1  0  0  0  0
 27 28  1  0  0  0  0
 28 29  1  0  0  0  0
 29 34  1  0  0  0  0
 30 29  1  0  0  0  0
 31 32  1  0  0  0  0
 31 30  1  0  0  0  0
 32 28  1  0  0  0  0
 33 34  1  0  0  0  0
M  END
>  <MODEL>
5

>  <REMARK>
 VINA RESULT:      -5.5      3.386      4.265
  Name = 
  11 active torsions:
  status: ('A' for Active; 'I' for Inactive)
    1  A    between atoms: C_1  and  C_24
    2  A    between atoms: O_3  and  C_13
    3  A    between atoms: O_3  and  C_17
    4  A    between atoms: C_4  and  C_21
    5  A    between atoms: C_5  and  C_18
    6  A    between atoms: C_5  and  N_31
    7  A    between atoms: C_7  and  C_23
    8  A    between atoms: C_12  and  C_23
    9  A    between atoms: C_12  and  C_27
   10  A    between atoms: C_14  and  C_34
   11  A    between atoms: C_17  and  C_18
                            x       y       z     vdW  Elec       q    Type
                         _______ _______ _______ _____ _____    ______ ____

>  <TORSDO>
F 11

$$$$
=
 OpenBabel10272400113D

 34 37  0  0  1  0  0  0  0  0999 V2000
  186.8740  176.2980  136.6280 C   0  0  1  0  0  3  0  0  0  0  0  0
  187.3550  178.7110  136.3630 C   0  0  1  0  0  3  0  0  0  0  0  0
  186.7930  177.7540  138.7190 C   0  0  1  0  0  3  0  0  0  0  0  0
  187.4040  176.6470  135.2910 C   0  0  0  0  0  0  0  0  0  0  0  0
  187.6300  178.0310  135.1110 N   0  0  0  0  0  2  0  0  0  0  0  0
  189.0450  178.7680  138.2020 C   0  0  0  0  0  3  0  0  0  0  0  0
  186.5690  177.6790  137.2060 C   0  0  2  0  0  3  0  0  0  0  0  0
  187.6660  175.8000  134.3960 O   0  0  0  0  0  0  0  0  0  0  0  0
  188.6690  179.1180  136.9740 C   0  0  0  0  0  3  0  0  0  0  0  0
  188.1960  177.9870  139.0500 N   0  0  0  0  0  0  0  0  0  0  0  0
  184.5340  178.3730  139.5990 C   0  0  1  0  0  0  0  0  0  0  0  0
  185.9240  178.8430  139.3420 C   0  0  2  0  0  3  0  0  0  0  0  0
  184.8540  179.1660  138.4810 O   0  0  0  0  0  0  0  0  0  0  0  0
  184.1700  177.0840  139.2010 O   0  0  0  0  0  1  0  0  0  0  0  0
  183.7650  178.6250  141.8830 F   0  0  0  0  0  0  0  0  0  0  0  0
  183.6160  179.0920  140.5860 C   0  0  2  0  0  3  0  0  0  0  0  0
  182.1570  179.1640  140.1130 C   0  0  0  0  0  2  0  0  0  0  0  0
  180.5990  177.3910  140.6000 O   0  0  0  0  0  1  0  0  0  0  0  0
  179.9910  179.5750  141.3630 C   0  0  0  0  0  1  0  0  0  0  0  0
  181.1140  178.5950  141.0800 C   0  0  2  0  0  3  0  0  0  0  0  0
  185.5940  175.4870  136.4960 C   0  0  0  0  0  2  0  0  0  0  0  0
  184.5190  176.3040  135.8060 C   0  0  0  0  0  1  0  0  0  0  0  0
  188.7050  177.4810  140.3160 C   0  0  0  0  0  2  0  0  0  0  0  0
  190.2110  177.2710  140.2420 C   0  0  2  0  0  3  0  0  0  0  0  0
  190.4840  176.0440  139.6390 O   0  0  0  0  0  1  0  0  0  0  0  0
  190.8080  177.2920  141.6350 C   0  0  0  0  0  2  0  0  0  0  0  0
  189.8330  177.6830  142.5550 O   0  0  0  0  0  0  0  0  0  0  0  0
  189.7300  176.6160  143.4550 C   0  0  2  0  0  3  0  0  0  0  0  0
  188.6850  176.9070  144.5240 C   0  0  1  0  0  3  0  0  0  0  0  0
  189.4200  178.0300  145.7470 S   0  0  0  0  0  0  0  0  0  0  0  0
  191.1090  177.5730  145.2400 C   0  0  0  0  0  2  0  0  0  0  0  0
  191.0350  176.4640  144.2040 C   0  0  0  0  0  2  0  0  0  0  0  0
  186.3660  177.3470  144.8990 O   0  0  0  0  0  1  0  0  0  0  0  0
  187.3930  177.4860  143.9640 C   0  0  0  0  0  2  0  0  0  0  0  0
  1 21  1  6  0  0  0
  1  7  1  0  0  0  0
  2  9  1  1  0  0  0
  2  7  1  0  0  0  0
  3 10  1  6  0  0  0
  3 12  1  0  0  0  0
  4  1  1  0  0  0  0
  5  4  1  0  0  0  0
  5  2  1  0  0  0  0
  6 10  1  0  0  0  0
  7  3  1  0  0  0  0
  8  4  2  0  0  0  0
  9  6  2  0  0  0  0
 10 23  1  0  0  0  0
 11 16  1  0  0  0  0
 12 11  1  0  0  0  0
 13 12  1  0  0  0  0
 13 11  1  0  0  0  0
 14 11  1  0  0  0  0
 16 15  1  0  0  0  0
 17 16  1  0  0  0  0
 17 20  1  0  0  0  0
 18 20  1  0  0  0  0
 20 19  1  0  0  0  0
 22 21  1  0  0  0  0
 24 23  1  0  0  0  0
 24 26  1  0  0  0  0
 25 24  1  0  0  0  0
 26 27  1  0  0  0  0
 27 28  1  0  0  0  0
 28 32  1  0  0  0  0
 28 29  1  0  0  0  0
 29 30  1  0  0  0  0
 31 30  1  0  0  0  0
 32 31  1  0  0  0  0
 34 29  1  0  0  0  0
 34 33  1  0  0  0  0
M  END
>  <MODEL>
6

>  <REMARK>
 VINA RESULT:      -5.5      3.131      4.980
  Name = 
  11 active torsions:
  status: ('A' for Active; 'I' for Inactive)
    1  A    between atoms: C_1  and  C_24
    2  A    between atoms: O_3  and  C_13
    3  A    between atoms: O_3  and  C_17
    4  A    between atoms: C_4  and  C_21
    5  A    between atoms: C_5  and  C_18
    6  A    between atoms: C_5  and  N_31
    7  A    between atoms: C_7  and  C_23
    8  A    between atoms: C_12  and  C_23
    9  A    between atoms: C_12  and  C_27
   10  A    between atoms: C_14  and  C_34
   11  A    between atoms: C_17  and  C_18
                            x       y       z     vdW  Elec       q    Type
                         _______ _______ _______ _____ _____    ______ ____

>  <TORSDO>
F 11

$$$$
=
 OpenBabel10272400113D

 34 37  0  0  1  0  0  0  0  0999 V2000
  188.5550  175.1180  136.8950 C   0  0  1  0  0  3  0  0  0  0  0  0
  188.6410  177.1920  135.5490 C   0  0  1  0  0  3  0  0  0  0  0  0
  186.9000  176.9690  137.4730 C   0  0  1  0  0  3  0  0  0  0  0  0
  189.7370  175.1910  136.0070 C   0  0  0  0  0  0  0  0  0  0  0  0
  189.7670  176.3480  135.1930 N   0  0  0  0  0  2  0  0  0  0  0  0
  188.7340  178.7010  137.5370 C   0  0  0  0  0  3  0  0  0  0  0  0
  187.7050  176.2750  136.3710 C   0  0  2  0  0  3  0  0  0  0  0  0
  190.6560  174.3310  135.9880 O   0  0  0  0  0  0  0  0  0  0  0  0
  189.1670  178.3720  136.3220 C   0  0  0  0  0  3  0  0  0  0  0  0
  187.7020  177.9560  138.1920 N   0  0  0  0  0  0  0  0  0  0  0  0
  184.4440  176.7760  137.0400 C   0  0  1  0  0  0  0  0  0  0  0  0
  185.6540  177.6330  136.8960 C   0  0  2  0  0  3  0  0  0  0  0  0
  185.1460  176.8700  135.8240 O   0  0  0  0  0  0  0  0  0  0  0  0
  184.5800  175.4990  137.5910 O   0  0  0  0  0  1  0  0  0  0  0  0
  182.7820  177.9520  135.7260 F   0  0  0  0  0  0  0  0  0  0  0  0
  183.0350  177.3600  136.9530 C   0  0  2  0  0  3  0  0  0  0  0  0
  182.6700  178.2410  138.1580 C   0  0  0  0  0  2  0  0  0  0  0  0
  183.1620  177.1570  140.2530 O   0  0  0  0  0  1  0  0  0  0  0  0
  181.3230  176.2700  139.0080 C   0  0  0  0  0  1  0  0  0  0  0  0
  182.1270  177.5000  139.3840 C   0  0  2  0  0  3  0  0  0  0  0  0
  187.8250  173.7970  136.6970 C   0  0  0  0  0  2  0  0  0  0  0  0
  187.0000  173.8340  135.4250 C   0  0  0  0  0  1  0  0  0  0  0  0
  187.3750  178.2390  139.5820 C   0  0  0  0  0  2  0  0  0  0  0  0
  188.5910  178.0240  140.4720 C   0  0  2  0  0  3  0  0  0  0  0  0
  189.3190  176.9270  140.0140 O   0  0  0  0  0  1  0  0  0  0  0  0
  188.1510  177.7750  141.9020 C   0  0  0  0  0  2  0  0  0  0  0  0
  189.2640  177.8010  142.7440 O   0  0  0  0  0  0  0  0  0  0  0  0
  189.2000  176.6060  143.4710 C   0  0  2  0  0  3  0  0  0  0  0  0
  189.4550  176.8580  144.9510 C   0  0  1  0  0  3  0  0  0  0  0  0
  191.2430  177.0550  145.1950 S   0  0  0  0  0  0  0  0  0  0  0  0
  191.6120  176.2020  143.6280 C   0  0  0  0  0  2  0  0  0  0  0  0
  190.3160  175.6870  143.0250 C   0  0  0  0  0  2  0  0  0  0  0  0
  187.3240  177.8100  145.4650 O   0  0  0  0  0  1  0  0  0  0  0  0
  188.6970  178.0590  145.4990 C   0  0  0  0  0  2  0  0  0  0  0  0
  1 21  1  6  0  0  0
  2  9  1  1  0  0  0
  2  7  1  0  0  0  0
  3 10  1  6  0  0  0
  4  1  1  0  0  0  0
  5  2  1  0  0  0  0
  5  4  1  0  0  0  0
  6 10  1  0  0  0  0
  7  1  1  0  0  0  0
  7  3  1  0  0  0  0
  8  4  2  0  0  0  0
  9  6  2  0  0  0  0
 10 23  1  0  0  0  0
 11 14  1  0  0  0  0
 12 11  1  0  0  0  0
 12  3  1  0  0  0  0
 13 12  1  0  0  0  0
 13 11  1  0  0  0  0
 15 16  1  0  0  0  0
 16 11  1  0  0  0  0
 16 17  1  0  0  0  0
 17 20  1  0  0  0  0
 19 20  1  0  0  0  0
 20 18  1  0  0  0  0
 22 21  1  0  0  0  0
 23 24  1  0  0  0  0
 24 26  1  0  0  0  0
 25 24  1  0  0  0  0
 26 27  1  0  0  0  0
 27 28  1  0  0  0  0
 28 29  1  0  0  0  0
 29 30  1  0  0  0  0
 29 34  1  0  0  0  0
 31 30  1  0  0  0  0
 32 28  1  0  0  0  0
 32 31  1  0  0  0  0
 33 34  1  0  0  0  0
M  END
>  <MODEL>
7

>  <REMARK>
 VINA RESULT:      -5.5      2.924      3.915
  Name = 
  11 active torsions:
  status: ('A' for Active; 'I' for Inactive)
    1  A    between atoms: C_1  and  C_24
    2  A    between atoms: O_3  and  C_13
    3  A    between atoms: O_3  and  C_17
    4  A    between atoms: C_4  and  C_21
    5  A    between atoms: C_5  and  C_18
    6  A    between atoms: C_5  and  N_31
    7  A    between atoms: C_7  and  C_23
    8  A    between atoms: C_12  and  C_23
    9  A    between atoms: C_12  and  C_27
   10  A    between atoms: C_14  and  C_34
   11  A    between atoms: C_17  and  C_18
                            x       y       z     vdW  Elec       q    Type
                         _______ _______ _______ _____ _____    ______ ____

>  <TORSDO>
F 11

$$$$
=
 OpenBabel10272400113D

 34 37  0  0  1  0  0  0  0  0999 V2000
  189.9230  178.0410  144.7430 C   0  0  1  0  0  3  0  0  0  0  0  0
  189.5890  175.8610  143.6200 C   0  0  1  0  0  3  0  0  0  0  0  0
  188.1330  177.9080  142.9320 C   0  0  1  0  0  3  0  0  0  0  0  0
  190.9710  177.0480  145.0670 C   0  0  0  0  0  0  0  0  0  0  0  0
  190.7600  175.7820  144.4740 N   0  0  0  0  0  2  0  0  0  0  0  0
  189.7320  176.8150  141.3150 C   0  0  0  0  0  3  0  0  0  0  0  0
  188.8790  177.1690  144.0460 C   0  0  2  0  0  3  0  0  0  0  0  0
  191.9810  177.2990  145.7770 O   0  0  0  0  0  0  0  0  0  0  0  0
  190.0540  175.8620  142.1880 C   0  0  0  0  0  3  0  0  0  0  0  0
  188.8870  177.9110  141.6810 N   0  0  0  0  0  0  0  0  0  0  0  0
  185.6870  178.3330  142.6280 C   0  0  1  0  0  0  0  0  0  0  0  0
  186.7530  177.2970  142.7070 C   0  0  2  0  0  3  0  0  0  0  0  0
  185.9070  177.5840  143.7990 O   0  0  0  0  0  0  0  0  0  0  0  0
  186.0280  179.6730  142.8280 O   0  0  0  0  0  1  0  0  0  0  0  0
  184.4360  177.7320  140.6400 F   0  0  0  0  0  0  0  0  0  0  0  0
  184.3310  178.0390  141.9880 C   0  0  2  0  0  3  0  0  0  0  0  0
  183.2690  179.1040  142.3040 C   0  0  0  0  0  2  0  0  0  0  0  0
  181.1210  179.4410  143.3430 O   0  0  0  0  0  1  0  0  0  0  0  0
  182.9810  179.1550  144.8210 C   0  0  0  0  0  1  0  0  0  0  0  0
  182.3490  178.7960  143.4890 C   0  0  2  0  0  3  0  0  0  0  0  0
  189.3440  178.6360  146.0180 C   0  0  0  0  0  2  0  0  0  0  0  0
  188.3880  177.6580  146.6720 C   0  0  0  0  0  1  0  0  0  0  0  0
  188.6960  179.0190  140.7560 C   0  0  0  0  0  2  0  0  0  0  0  0
  188.6280  178.5120  139.3220 C   0  0  2  0  0  3  0  0  0  0  0  0
  188.9840  179.5370  138.4470 O   0  0  0  0  0  1  0  0  0  0  0  0
  187.2220  178.0430  139.0030 C   0  0  0  0  0  2  0  0  0  0  0  0
  187.0000  178.1370  137.6270 O   0  0  0  0  0  0  0  0  0  0  0  0
  187.0490  176.8190  137.1580 C   0  0  2  0  0  3  0  0  0  0  0  0
  187.6500  176.7640  135.7600 C   0  0  1  0  0  3  0  0  0  0  0  0
  186.3750  177.2700  134.5710 S   0  0  0  0  0  0  0  0  0  0  0  0
  185.0400  176.9060  135.7580 C   0  0  0  0  0  2  0  0  0  0  0  0
  185.6410  176.2870  137.0080 C   0  0  0  0  0  2  0  0  0  0  0  0
  189.9490  177.0580  136.3450 O   0  0  0  0  0  1  0  0  0  0  0  0
  188.9030  177.6150  135.6070 C   0  0  0  0  0  2  0  0  0  0  0  0
  1  4  1  0  0  0  0
  1 21  1  1  0  0  0
  2  9  1  6  0  0  0
  2  7  1  0  0  0  0
  2  5  1  0  0  0  0
  3 10  1  6  0  0  0
  3  7  1  0  0  0  0
  4  8  2  0  0  0  0
  5  4  1  0  0  0  0
  6 10  1  0  0  0  0
  6  9  2  0  0  0  0
  7  1  1  0  0  0  0
 11 12  1  0  0  0  0
 11 14  1  0  0  0  0
 11 13  1  0  0  0  0
 12  3  1  0  0  0  0
 12 13  1  0  0  0  0
 15 16  1  0  0  0  0
 16 17  1  0  0  0  0
 16 11  1  0  0  0  0
 17 20  1  0  0  0  0
 18 20  1  0  0  0  0
 20 19  1  0  0  0  0
 21 22  1  0  0  0  0
 23 10  1  0  0  0  0
 24 23  1  0  0  0  0
 25 24  1  0  0  0  0
 26 24  1  0  0  0  0
 27 26  1  0  0  0  0
 28 27  1  0  0  0  0
 29 28  1  0  0  0  0
 30 31  1  0  0  0  0
 30 29  1  0  0  0  0
 31 32  1  0  0  0  0
 32 28  1  0  0  0  0
 34 29  1  0  0  0  0
 34 33  1  0  0  0  0
M  END
>  <MODEL>
8

>  <REMARK>
 VINA RESULT:      -5.3      3.917      7.752
  Name = 
  11 active torsions:
  status: ('A' for Active; 'I' for Inactive)
    1  A    between atoms: C_1  and  C_24
    2  A    between atoms: O_3  and  C_13
    3  A    between atoms: O_3  and  C_17
    4  A    between atoms: C_4  and  C_21
    5  A    between atoms: C_5  and  C_18
    6  A    between atoms: C_5  and  N_31
    7  A    between atoms: C_7  and  C_23
    8  A    between atoms: C_12  and  C_23
    9  A    between atoms: C_12  and  C_27
   10  A    between atoms: C_14  and  C_34
   11  A    between atoms: C_17  and  C_18
                            x       y       z     vdW  Elec       q    Type
                         _______ _______ _______ _____ _____    ______ ____

>  <TORSDO>
F 11

$$$$
=
 OpenBabel10272400113D

 34 37  0  0  1  0  0  0  0  0999 V2000
  181.6810  180.1430  138.5020 C   0  0  1  0  0  3  0  0  0  0  0  0
  181.0080  178.4620  140.1900 C   0  0  1  0  0  3  0  0  0  0  0  0
  183.2380  178.1590  138.8780 C   0  0  1  0  0  3  0  0  0  0  0  0
  180.5260  180.5680  139.3250 C   0  0  0  0  0  0  0  0  0  0  0  0
  180.0990  179.5910  140.2550 N   0  0  0  0  0  2  0  0  0  0  0  0
  183.2060  178.5010  141.3780 C   0  0  0  0  0  3  0  0  0  0  0  0
  181.7920  178.6640  138.8710 C   0  0  2  0  0  3  0  0  0  0  0  0
  179.9820  181.7000  139.2400 O   0  0  0  0  0  0  0  0  0  0  0  0
  181.8750  178.4870  141.4200 C   0  0  0  0  0  3  0  0  0  0  0  0
  183.9150  178.4670  140.1350 N   0  0  0  0  0  0  0  0  0  0  0  0
  184.0930  176.3270  137.4060 C   0  0  1  0  0  0  0  0  0  0  0  0
  183.2880  176.6570  138.6150 C   0  0  2  0  0  3  0  0  0  0  0  0
  182.6860  176.3580  137.3740 O   0  0  0  0  0  0  0  0  0  0  0  0
  184.6280  177.3670  136.6420 O   0  0  0  0  0  1  0  0  0  0  0  0
  186.0380  174.8880  137.2610 F   0  0  0  0  0  0  0  0  0  0  0  0
  184.6550  174.9240  137.1780 C   0  0  2  0  0  3  0  0  0  0  0  0
  184.0870  174.2420  135.9240 C   0  0  0  0  0  2  0  0  0  0  0  0
  183.3950  172.4020  137.3170 O   0  0  0  0  0  1  0  0  0  0  0  0
  185.0730  171.9190  135.6820 C   0  0  0  0  0  1  0  0  0  0  0  0
  183.8430  172.7340  136.0390 C   0  0  2  0  0  3  0  0  0  0  0  0
  181.3620  180.2930  137.0220 C   0  0  0  0  0  2  0  0  0  0  0  0
  180.5060  179.1360  136.5450 C   0  0  0  0  0  1  0  0  0  0  0  0
  185.3590  178.6550  140.1190 C   0  0  0  0  0  2  0  0  0  0  0  0
  185.9200  178.6080  141.5330 C   0  0  2  0  0  3  0  0  0  0  0  0
  185.8020  179.8640  142.1260 O   0  0  0  0  0  1  0  0  0  0  0  0
  187.3800  178.2010  141.5000 C   0  0  0  0  0  2  0  0  0  0  0  0
  187.9210  178.2960  142.7840 O   0  0  0  0  0  0  0  0  0  0  0  0
  187.7570  177.0230  143.3430 C   0  0  2  0  0  3  0  0  0  0  0  0
  187.7450  177.0970  144.8640 C   0  0  1  0  0  3  0  0  0  0  0  0
  189.4580  177.2660  145.4400 S   0  0  0  0  0  0  0  0  0  0  0  0
  190.1130  176.6060  143.8730 C   0  0  0  0  0  2  0  0  0  0  0  0
  188.9550  176.1660  142.9960 C   0  0  0  0  0  2  0  0  0  0  0  0
  185.9210  177.7050  146.2840 O   0  0  0  0  0  1  0  0  0  0  0  0
  186.8760  178.2230  145.4080 C   0  0  0  0  0  2  0  0  0  0  0  0
  1 21  1  6  0  0  0
  1  7  1  0  0  0  0
  1  4  1  0  0  0  0
  2  5  1  0  0  0  0
  2  9  1  1  0  0  0
  3 10  1  1  0  0  0
  4  5  1  0  0  0  0
  6  9  2  0  0  0  0
  7  3  1  0  0  0  0
  7  2  1  0  0  0  0
  8  4  2  0  0  0  0
 10  6  1  0  0  0  0
 11 12  1  0  0  0  0
 12  3  1  0  0  0  0
 13 11  1  0  0  0  0
 13 12  1  0  0  0  0
 14 11  1  0  0  0  0
 16 15  1  0  0  0  0
 16 11  1  0  0  0  0
 17 20  1  0  0  0  0
 17 16  1  0  0  0  0
 19 20  1  0  0  0  0
 20 18  1  0  0  0  0
 22 21  1  0  0  0  0
 23 10  1  0  0  0  0
 23 24  1  0  0  0  0
 24 25  1  0  0  0  0
 26 24  1  0  0  0  0
 26 27  1  0  0  0  0
 27 28  1  0  0  0  0
 28 29  1  0  0  0  0
 29 34  1  0  0  0  0
 29 30  1  0  0  0  0
 31 30  1  0  0  0  0
 32 28  1  0  0  0  0
 32 31  1  0  0  0  0
 34 33  1  0  0  0  0
M  END
>  <MODEL>
9

>  <REMARK>
 VINA RESULT:      -5.3      4.891      8.100
  Name = 
  11 active torsions:
  status: ('A' for Active; 'I' for Inactive)
    1  A    between atoms: C_1  and  C_24
    2  A    between atoms: O_3  and  C_13
    3  A    between atoms: O_3  and  C_17
    4  A    between atoms: C_4  and  C_21
    5  A    between atoms: C_5  and  C_18
    6  A    between atoms: C_5  and  N_31
    7  A    between atoms: C_7  and  C_23
    8  A    between atoms: C_12  and  C_23
    9  A    between atoms: C_12  and  C_27
   10  A    between atoms: C_14  and  C_34
   11  A    between atoms: C_17  and  C_18
                            x       y       z     vdW  Elec       q    Type
                         _______ _______ _______ _____ _____    ______ ____

>  <TORSDO>
F 11

$$$$
