=
 OpenBabel10262423563D

 34 38  0  0  1  0  0  0  0  0999 V2000
  186.5000  178.1430  145.8370 C   0  0  0  0  0  0  0  0  0  0  0  0
  185.2680  178.4470  143.7710 C   0  0  0  0  0  3  0  0  0  0  0  0
  187.6820  177.8970  143.7110 C   0  0  0  0  0  0  0  0  0  0  0  0
  189.0280  177.6410  141.5980 N   0  0  0  0  0  0  0  0  0  0  0  0
  184.1370  178.6650  145.8970 C   0  0  0  0  0  3  0  0  0  0  0  0
  182.8290  178.9760  143.7930 C   0  0  0  0  0  1  0  0  0  0  0  0
  186.8130  178.3640  141.5150 O   0  0  0  0  0  0  0  0  0  0  0  0
  186.4840  178.1720  144.4240 C   0  0  0  0  0  0  0  0  0  0  0  0
  185.3330  178.3910  146.5650 C   0  0  0  0  0  3  0  0  0  0  0  0
  188.8520  177.5680  144.4430 C   0  0  0  0  0  0  0  0  0  0  0  0
  187.6560  177.8800  146.5010 N   0  0  0  0  0  0  0  0  0  0  0  0
  184.1030  178.6940  144.5030 C   0  0  0  0  0  0  0  0  0  0  0  0
  189.9700  176.7950  142.3120 C   0  0  0  0  0  2  0  0  0  0  0  0
  190.1840  177.3270  143.7310 C   0  0  2  0  0  3  0  0  0  0  0  0
  187.7780  177.9730  142.2190 C   0  0  0  0  0  0  0  0  0  0  0  0
  188.8080  177.6060  145.8450 C   0  0  0  0  0  3  0  0  0  0  0  0
  192.1390  175.8060  146.5880 C   0  0  0  0  0  0  0  0  0  0  0  0
  192.5930  174.6610  146.0050 N   0  0  0  0  0  0  0  0  0  0  0  0
  191.1050  176.4140  144.5090 C   0  0  0  0  0  0  0  0  0  0  0  0
  192.3490  174.4000  144.6990 C   0  0  0  0  0  3  0  0  0  0  0  0
  191.3730  176.7030  145.8480 C   0  0  0  0  0  3  0  0  0  0  0  0
  191.5840  175.2580  143.9640 N   0  0  0  0  0  0  0  0  0  0  0  0
  192.3740  176.0450  148.0340 C   0  0  0  0  0  1  0  0  0  0  0  0
  189.3210  178.0100  140.2190 C   0  0  0  0  0  2  0  0  0  0  0  0
  190.6180  177.3500  139.7680 C   0  0  0  0  0  2  0  0  0  0  0  0
  190.5210  176.8280  138.3380 C   0  0  0  0  0  2  0  0  0  0  0  0
  189.5030  177.6090  137.5030 C   0  0  0  0  0  2  0  0  0  0  0  0
  186.6690  178.1410  137.5740 C   0  0  0  0  0  1  0  0  0  0  0  0
  188.5650  176.7010  136.8450 N   0  0  0  0  0  0  0  0  0  0  0  0
  187.2510  176.7320  137.5170 C   0  0  2  0  0  3  0  0  0  0  0  0
  186.8170  174.3960  136.7780 C   0  0  0  0  0  2  0  0  0  0  0  0
  188.2300  174.3650  136.1970 C   0  0  0  0  0  2  0  0  0  0  0  0
  189.1160  175.3490  136.9610 C   0  0  0  0  0  2  0  0  0  0  0  0
  186.2700  175.8230  136.7690 C   0  0  0  0  0  2  0  0  0  0  0  0
  1 11  1  0  0  0  0
  1  9  2  0  0  0  0
  2  8  2  0  0  0  0
  2 12  1  0  0  0  0
  3  8  1  0  0  0  0
  3 10  2  0  0  0  0
  4 15  1  0  0  0  0
  4 13  1  0  0  0  0
  5  9  1  0  0  0  0
  6 12  1  0  0  0  0
  7 15  2  0  0  0  0
  8  1  1  0  0  0  0
 10 16  1  0  0  0  0
 12  5  2  0  0  0  0
 13 14  1  0  0  0  0
 14 10  1  0  0  0  0
 14 19  1  1  0  0  0
 15  3  1  0  0  0  0
 16 11  2  0  0  0  0
 17 23  1  0  0  0  0
 18 17  1  0  0  0  0
 19 21  1  0  0  0  0
 20 18  2  0  0  0  0
 21 17  2  0  0  0  0
 22 19  2  0  0  0  0
 22 20  1  0  0  0  0
 24  4  1  0  0  0  0
 25 24  1  0  0  0  0
 26 25  1  0  0  0  0
 27 26  1  0  0  0  0
 29 33  1  0  0  0  0
 29 27  1  0  0  0  0
 29 30  1  0  0  0  0
 30 28  1  6  0  0  0
 32 31  1  0  0  0  0
 32 33  1  0  0  0  0
 34 31  1  0  0  0  0
 34 30  1  0  0  0  0
M  END
>  <MODEL>
1

>  <REMARK>
 VINA RESULT:      -9.7      0.000      0.000
  Name = 
  6 active torsions:
  status: ('A' for Active; 'I' for Inactive)
    1  A    between atoms: C_3  and  N_13
    2  A    between atoms: C_3  and  C_17
    3  A    between atoms: N_5  and  C_18
    4  A    between atoms: C_12  and  C_28
    5  A    between atoms: C_17  and  C_29
    6  A    between atoms: C_18  and  C_29
                            x       y       z     vdW  Elec       q    Type
                         _______ _______ _______ _____ _____    ______ ____

>  <TORSDO>
F 6

$$$$
=
 OpenBabel10262423563D

 34 38  0  0  1  0  0  0  0  0999 V2000
  186.1540  178.2090  145.6380 C   0  0  0  0  0  0  0  0  0  0  0  0
  184.9240  178.5530  143.5760 C   0  0  0  0  0  3  0  0  0  0  0  0
  187.3540  178.0800  143.5120 C   0  0  0  0  0  0  0  0  0  0  0  0
  188.7190  177.9450  141.4000 N   0  0  0  0  0  0  0  0  0  0  0  0
  183.7760  178.6560  145.7020 C   0  0  0  0  0  3  0  0  0  0  0  0
  182.4700  179.0050  143.6030 C   0  0  0  0  0  1  0  0  0  0  0  0
  186.4830  178.6020  141.3290 O   0  0  0  0  0  0  0  0  0  0  0  0
  186.1440  178.2910  144.2270 C   0  0  0  0  0  0  0  0  0  0  0  0
  184.9750  178.3940  146.3670 C   0  0  0  0  0  3  0  0  0  0  0  0
  188.5300  177.7600  144.2390 C   0  0  0  0  0  0  0  0  0  0  0  0
  187.3140  177.9580  146.2990 N   0  0  0  0  0  0  0  0  0  0  0  0
  183.7490  178.7360  144.3100 C   0  0  0  0  0  0  0  0  0  0  0  0
  189.6820  177.1020  142.0880 C   0  0  0  0  0  2  0  0  0  0  0  0
  189.8730  177.5870  143.5270 C   0  0  2  0  0  3  0  0  0  0  0  0
  187.4550  178.2150  142.0240 C   0  0  0  0  0  0  0  0  0  0  0  0
  188.4770  177.7440  145.6410 C   0  0  0  0  0  3  0  0  0  0  0  0
  191.8760  176.0350  146.3330 C   0  0  0  0  0  0  0  0  0  0  0  0
  192.3510  174.9150  145.7190 N   0  0  0  0  0  0  0  0  0  0  0  0
  190.8170  176.6740  144.2770 C   0  0  0  0  0  0  0  0  0  0  0  0
  192.1050  174.6830  144.4080 C   0  0  0  0  0  3  0  0  0  0  0  0
  191.0870  176.9340  145.6210 C   0  0  0  0  0  3  0  0  0  0  0  0
  191.3180  175.5430  143.6990 N   0  0  0  0  0  0  0  0  0  0  0  0
  192.1140  176.2420  147.7840 C   0  0  0  0  0  1  0  0  0  0  0  0
  189.0070  178.3740  140.0380 C   0  0  0  0  0  2  0  0  0  0  0  0
  188.6440  177.2660  139.0560 C   0  0  0  0  0  2  0  0  0  0  0  0
  189.7930  176.9600  138.0980 C   0  0  0  0  0  2  0  0  0  0  0  0
  190.8890  176.1190  138.7580 C   0  0  0  0  0  2  0  0  0  0  0  0
  193.5340  175.3870  137.8720 C   0  0  0  0  0  1  0  0  0  0  0  0
  191.1030  174.8750  138.0200 N   0  0  0  0  0  0  0  0  0  0  0  0
  192.2670  174.9960  137.1200 C   0  0  2  0  0  3  0  0  0  0  0  0
  191.2640  173.3030  135.5950 C   0  0  0  0  0  2  0  0  0  0  0  0
  190.0260  173.2950  136.4920 C   0  0  0  0  0  2  0  0  0  0  0  0
  189.9080  174.6410  137.2070 C   0  0  0  0  0  2  0  0  0  0  0  0
  192.5080  173.6590  136.4110 C   0  0  0  0  0  2  0  0  0  0  0  0
  1 11  1  0  0  0  0
  1  9  2  0  0  0  0
  2  8  2  0  0  0  0
  2 12  1  0  0  0  0
  3  8  1  0  0  0  0
  3 10  2  0  0  0  0
  4 15  1  0  0  0  0
  4 13  1  0  0  0  0
  5  9  1  0  0  0  0
  6 12  1  0  0  0  0
  7 15  2  0  0  0  0
  8  1  1  0  0  0  0
 10 16  1  0  0  0  0
 12  5  2  0  0  0  0
 13 14  1  0  0  0  0
 14 10  1  0  0  0  0
 14 19  1  1  0  0  0
 15  3  1  0  0  0  0
 16 11  2  0  0  0  0
 17 23  1  0  0  0  0
 18 17  1  0  0  0  0
 19 21  1  0  0  0  0
 20 18  2  0  0  0  0
 21 17  2  0  0  0  0
 22 19  2  0  0  0  0
 22 20  1  0  0  0  0
 24  4  1  0  0  0  0
 25 24  1  0  0  0  0
 26 27  1  0  0  0  0
 26 25  1  0  0  0  0
 29 27  1  0  0  0  0
 30 28  1  1  0  0  0
 30 29  1  0  0  0  0
 31 34  1  0  0  0  0
 31 32  1  0  0  0  0
 32 33  1  0  0  0  0
 33 29  1  0  0  0  0
 34 30  1  0  0  0  0
M  END
>  <MODEL>
2

>  <REMARK>
 VINA RESULT:      -9.6      1.432      2.309
  Name = 
  6 active torsions:
  status: ('A' for Active; 'I' for Inactive)
    1  A    between atoms: C_3  and  N_13
    2  A    between atoms: C_3  and  C_17
    3  A    between atoms: N_5  and  C_18
    4  A    between atoms: C_12  and  C_28
    5  A    between atoms: C_17  and  C_29
    6  A    between atoms: C_18  and  C_29
                            x       y       z     vdW  Elec       q    Type
                         _______ _______ _______ _____ _____    ______ ____

>  <TORSDO>
F 6

$$$$
=
 OpenBabel10262423563D

 34 38  0  0  1  0  0  0  0  0999 V2000
  186.2700  178.2070  145.6670 C   0  0  0  0  0  0  0  0  0  0  0  0
  185.0360  178.5170  143.6030 C   0  0  0  0  0  3  0  0  0  0  0  0
  187.4590  178.0090  143.5410 C   0  0  0  0  0  0  0  0  0  0  0  0
  188.8130  177.8050  141.4280 N   0  0  0  0  0  0  0  0  0  0  0  0
  183.8980  178.6870  145.7290 C   0  0  0  0  0  3  0  0  0  0  0  0
  182.5880  179.0030  143.6280 C   0  0  0  0  0  1  0  0  0  0  0  0
  186.5860  178.4900  141.3490 O   0  0  0  0  0  0  0  0  0  0  0  0
  186.2550  178.2540  144.2550 C   0  0  0  0  0  0  0  0  0  0  0  0
  185.0970  178.4250  146.3970 C   0  0  0  0  0  3  0  0  0  0  0  0
  188.6340  177.6910  144.2710 C   0  0  0  0  0  0  0  0  0  0  0  0
  187.4290  177.9560  146.3310 N   0  0  0  0  0  0  0  0  0  0  0  0
  183.8660  178.7340  144.3360 C   0  0  0  0  0  0  0  0  0  0  0  0
  189.7680  176.9660  142.1320 C   0  0  0  0  0  2  0  0  0  0  0  0
  189.9710  177.4830  143.5580 C   0  0  2  0  0  3  0  0  0  0  0  0
  187.5560  178.1070  142.0500 C   0  0  0  0  0  0  0  0  0  0  0  0
  188.5860  177.7100  145.6730 C   0  0  0  0  0  3  0  0  0  0  0  0
  191.9570  175.9660  146.3960 C   0  0  0  0  0  0  0  0  0  0  0  0
  192.4220  174.8310  145.8040 N   0  0  0  0  0  0  0  0  0  0  0  0
  190.9060  176.5750  144.3270 C   0  0  0  0  0  0  0  0  0  0  0  0
  192.1750  174.5760  144.4970 C   0  0  0  0  0  3  0  0  0  0  0  0
  191.1770  176.8580  145.6660 C   0  0  0  0  0  3  0  0  0  0  0  0
  191.3970  175.4290  143.7710 N   0  0  0  0  0  0  0  0  0  0  0  0
  192.1950  176.1980  147.8430 C   0  0  0  0  0  1  0  0  0  0  0  0
  189.1020  178.1960  140.0540 C   0  0  0  0  0  2  0  0  0  0  0  0
  189.5390  176.9790  139.2470 C   0  0  0  0  0  2  0  0  0  0  0  0
  190.1650  177.3800  137.9140 C   0  0  0  0  0  2  0  0  0  0  0  0
  189.2290  177.1170  136.7320 C   0  0  0  0  0  2  0  0  0  0  0  0
  188.3060  174.3890  136.5840 C   0  0  0  0  0  1  0  0  0  0  0  0
  187.8890  176.7650  137.1990 N   0  0  0  0  0  0  0  0  0  0  0  0
  187.3740  175.5900  136.4680 C   0  0  2  0  0  3  0  0  0  0  0  0
  185.0430  176.3820  136.8370 C   0  0  0  0  0  2  0  0  0  0  0  0
  185.6210  177.6400  137.4840 C   0  0  0  0  0  2  0  0  0  0  0  0
  187.0170  177.9070  136.9190 C   0  0  0  0  0  2  0  0  0  0  0  0
  185.9990  175.2030  137.0220 C   0  0  0  0  0  2  0  0  0  0  0  0
  1 11  1  0  0  0  0
  1  9  2  0  0  0  0
  2  8  2  0  0  0  0
  2 12  1  0  0  0  0
  3  8  1  0  0  0  0
  3 10  2  0  0  0  0
  4 15  1  0  0  0  0
  4 13  1  0  0  0  0
  5  9  1  0  0  0  0
  6 12  1  0  0  0  0
  7 15  2  0  0  0  0
  8  1  1  0  0  0  0
 10 16  1  0  0  0  0
 12  5  2  0  0  0  0
 13 14  1  0  0  0  0
 14 10  1  0  0  0  0
 14 19  1  1  0  0  0
 15  3  1  0  0  0  0
 16 11  2  0  0  0  0
 17 23  1  0  0  0  0
 18 17  1  0  0  0  0
 19 21  1  0  0  0  0
 20 18  2  0  0  0  0
 21 17  2  0  0  0  0
 22 19  2  0  0  0  0
 22 20  1  0  0  0  0
 24  4  1  0  0  0  0
 25 24  1  0  0  0  0
 26 25  1  0  0  0  0
 27 29  1  0  0  0  0
 27 26  1  0  0  0  0
 30 28  1  1  0  0  0
 30 34  1  0  0  0  0
 30 29  1  0  0  0  0
 31 34  1  0  0  0  0
 31 32  1  0  0  0  0
 33 29  1  0  0  0  0
 33 32  1  0  0  0  0
M  END
>  <MODEL>
3

>  <REMARK>
 VINA RESULT:      -9.5      0.591      1.370
  Name = 
  6 active torsions:
  status: ('A' for Active; 'I' for Inactive)
    1  A    between atoms: C_3  and  N_13
    2  A    between atoms: C_3  and  C_17
    3  A    between atoms: N_5  and  C_18
    4  A    between atoms: C_12  and  C_28
    5  A    between atoms: C_17  and  C_29
    6  A    between atoms: C_18  and  C_29
                            x       y       z     vdW  Elec       q    Type
                         _______ _______ _______ _____ _____    ______ ____

>  <TORSDO>
F 6

$$$$
=
 OpenBabel10262423563D

 34 38  0  0  1  0  0  0  0  0999 V2000
  189.6690  177.0710  137.3720 C   0  0  0  0  0  0  0  0  0  0  0  0
  191.5620  176.2870  138.6700 C   0  0  0  0  0  3  0  0  0  0  0  0
  189.6970  177.4780  139.7820 C   0  0  0  0  0  0  0  0  0  0  0  0
  189.6080  177.9890  142.2470 N   0  0  0  0  0  0  0  0  0  0  0  0
  191.4830  175.8930  136.2860 C   0  0  0  0  0  3  0  0  0  0  0  0
  193.4450  175.0590  137.5860 C   0  0  0  0  0  1  0  0  0  0  0  0
  191.5160  177.0440  141.2980 O   0  0  0  0  0  0  0  0  0  0  0  0
  190.3220  176.9520  138.6200 C   0  0  0  0  0  0  0  0  0  0  0  0
  190.2510  176.5460  136.2140 C   0  0  0  0  0  3  0  0  0  0  0  0
  188.4180  178.0800  139.6570 C   0  0  0  0  0  0  0  0  0  0  0  0
  188.4710  177.7070  137.2860 N   0  0  0  0  0  0  0  0  0  0  0  0
  192.1390  175.7630  137.5100 C   0  0  0  0  0  0  0  0  0  0  0  0
  188.1580  178.0540  142.1710 C   0  0  0  0  0  2  0  0  0  0  0  0
  187.7290  178.7220  140.8620 C   0  0  2  0  0  3  0  0  0  0  0  0
  190.3430  177.4610  141.1330 C   0  0  0  0  0  0  0  0  0  0  0  0
  187.8520  178.2080  138.3800 C   0  0  0  0  0  3  0  0  0  0  0  0
  184.0610  178.6960  141.7810 C   0  0  0  0  0  0  0  0  0  0  0  0
  183.4930  178.9540  140.5700 N   0  0  0  0  0  0  0  0  0  0  0  0
  186.2210  178.7290  140.7370 C   0  0  0  0  0  0  0  0  0  0  0  0
  184.2520  179.0650  139.4540 C   0  0  0  0  0  3  0  0  0  0  0  0
  185.4450  178.5890  141.8870 C   0  0  0  0  0  3  0  0  0  0  0  0
  185.6100  178.9820  139.5420 N   0  0  0  0  0  0  0  0  0  0  0  0
  183.2140  178.6320  142.9980 C   0  0  0  0  0  1  0  0  0  0  0  0
  190.2610  178.3300  143.5040 C   0  0  0  0  0  2  0  0  0  0  0  0
  190.4990  177.0680  144.3250 C   0  0  0  0  0  2  0  0  0  0  0  0
  190.4670  177.3540  145.8240 C   0  0  0  0  0  2  0  0  0  0  0  0
  189.2120  176.7940  146.4950 C   0  0  0  0  0  2  0  0  0  0  0  0
  188.4400  178.4670  148.7150 C   0  0  0  0  0  1  0  0  0  0  0  0
  188.0930  177.7260  146.3630 N   0  0  0  0  0  0  0  0  0  0  0  0
  187.4500  177.9580  147.6720 C   0  0  2  0  0  3  0  0  0  0  0  0
  185.2940  178.4450  146.5270 C   0  0  0  0  0  2  0  0  0  0  0  0
  185.9670  178.0820  145.2030 C   0  0  0  0  0  2  0  0  0  0  0  0
  187.1150  177.1070  145.4670 C   0  0  0  0  0  2  0  0  0  0  0  0
  186.3260  178.9880  147.5160 C   0  0  0  0  0  2  0  0  0  0  0  0
  1  8  1  0  0  0  0
  3 15  1  0  0  0  0
  4 24  1  0  0  0  0
  5 12  1  0  0  0  0
  8  2  1  0  0  0  0
  8  3  2  0  0  0  0
  9  5  2  0  0  0  0
  9  1  1  0  0  0  0
 10  3  1  0  0  0  0
 10 14  1  0  0  0  0
 11  1  2  0  0  0  0
 11 16  1  0  0  0  0
 12  6  1  0  0  0  0
 12  2  2  0  0  0  0
 13  4  1  0  0  0  0
 14 19  1  6  0  0  0
 14 13  1  0  0  0  0
 15  7  2  0  0  0  0
 15  4  1  0  0  0  0
 16 10  2  0  0  0  0
 17 21  1  0  0  0  0
 17 23  1  0  0  0  0
 18 17  2  0  0  0  0
 19 21  2  0  0  0  0
 20 22  2  0  0  0  0
 20 18  1  0  0  0  0
 22 19  1  0  0  0  0
 24 25  1  0  0  0  0
 25 26  1  0  0  0  0
 26 27  1  0  0  0  0
 29 27  1  0  0  0  0
 29 30  1  0  0  0  0
 30 28  1  1  0  0  0
 31 34  1  0  0  0  0
 32 33  1  0  0  0  0
 32 31  1  0  0  0  0
 33 29  1  0  0  0  0
 34 30  1  0  0  0  0
M  END
>  <MODEL>
4

>  <REMARK>
 VINA RESULT:      -9.5      2.199      8.675
  Name = 
  6 active torsions:
  status: ('A' for Active; 'I' for Inactive)
    1  A    between atoms: C_3  and  N_13
    2  A    between atoms: C_3  and  C_17
    3  A    between atoms: N_5  and  C_18
    4  A    between atoms: C_12  and  C_28
    5  A    between atoms: C_17  and  C_29
    6  A    between atoms: C_18  and  C_29
                            x       y       z     vdW  Elec       q    Type
                         _______ _______ _______ _____ _____    ______ ____

>  <TORSDO>
F 6

$$$$
=
 OpenBabel10262423563D

 34 38  0  0  1  0  0  0  0  0999 V2000
  188.6440  177.2800  136.2690 C   0  0  0  0  0  0  0  0  0  0  0  0
  190.7930  176.2230  136.6530 C   0  0  0  0  0  3  0  0  0  0  0  0
  189.5740  177.2860  138.5290 C   0  0  0  0  0  0  0  0  0  0  0  0
  190.4240  177.3900  140.8980 N   0  0  0  0  0  0  0  0  0  0  0  0
  189.8260  176.2280  134.4370 C   0  0  0  0  0  3  0  0  0  0  0  0
  192.0360  175.1190  134.7920 C   0  0  0  0  0  1  0  0  0  0  0  0
  191.7660  176.5420  139.1900 O   0  0  0  0  0  0  0  0  0  0  0  0
  189.6870  176.9330  137.1570 C   0  0  0  0  0  0  0  0  0  0  0  0
  188.7190  176.9300  134.9170 C   0  0  0  0  0  3  0  0  0  0  0  0
  188.3980  177.9480  138.9700 C   0  0  0  0  0  0  0  0  0  0  0  0
  187.5610  177.9650  136.7200 N   0  0  0  0  0  0  0  0  0  0  0  0
  190.8620  175.8750  135.3020 C   0  0  0  0  0  0  0  0  0  0  0  0
  189.0570  177.5200  141.3720 C   0  0  0  0  0  2  0  0  0  0  0  0
  188.2520  178.4090  140.4210 C   0  0  2  0  0  3  0  0  0  0  0  0
  190.6570  177.0230  139.5300 C   0  0  0  0  0  0  0  0  0  0  0  0
  187.4270  178.3040  138.0230 C   0  0  0  0  0  3  0  0  0  0  0  0
  185.1870  178.5020  142.6320 C   0  0  0  0  0  0  0  0  0  0  0  0
  184.2300  178.8540  141.7280 N   0  0  0  0  0  0  0  0  0  0  0  0
  186.8080  178.4930  140.8630 C   0  0  0  0  0  0  0  0  0  0  0  0
  184.5310  178.9920  140.4150 C   0  0  0  0  0  3  0  0  0  0  0  0
  186.5030  178.3250  142.2140 C   0  0  0  0  0  3  0  0  0  0  0  0
  185.8180  178.8410  139.9900 N   0  0  0  0  0  0  0  0  0  0  0  0
  184.8450  178.4100  144.0740 C   0  0  0  0  0  1  0  0  0  0  0  0
  191.5140  177.4950  141.8580 C   0  0  0  0  0  2  0  0  0  0  0  0
  191.1160  178.4250  142.9980 C   0  0  0  0  0  2  0  0  0  0  0  0
  191.4830  177.8420  144.3590 C   0  0  0  0  0  2  0  0  0  0  0  0
  190.4020  176.9010  144.8970 C   0  0  0  0  0  2  0  0  0  0  0  0
  191.2320  176.9170  147.6600 C   0  0  0  0  0  1  0  0  0  0  0  0
  189.5880  177.5720  145.9090 N   0  0  0  0  0  0  0  0  0  0  0  0
  189.7690  176.9380  147.2290 C   0  0  2  0  0  3  0  0  0  0  0  0
  187.4790  177.6560  147.8910 C   0  0  0  0  0  2  0  0  0  0  0  0
  187.2890  178.1970  146.4740 C   0  0  0  0  0  2  0  0  0  0  0  0
  188.1870  177.4220  145.5090 C   0  0  0  0  0  2  0  0  0  0  0  0
  188.9570  177.7000  148.2820 C   0  0  0  0  0  2  0  0  0  0  0  0
  1 11  2  0  0  0  0
  1  8  1  0  0  0  0
  2  8  1  0  0  0  0
  3 10  1  0  0  0  0
  3 15  1  0  0  0  0
  4 13  1  0  0  0  0
  4 24  1  0  0  0  0
  5  9  2  0  0  0  0
  5 12  1  0  0  0  0
  6 12  1  0  0  0  0
  7 15  2  0  0  0  0
  8  3  2  0  0  0  0
  9  1  1  0  0  0  0
 10 14  1  0  0  0  0
 11 16  1  0  0  0  0
 12  2  2  0  0  0  0
 14 19  1  1  0  0  0
 14 13  1  0  0  0  0
 15  4  1  0  0  0  0
 16 10  2  0  0  0  0
 17 23  1  0  0  0  0
 18 17  2  0  0  0  0
 19 21  2  0  0  0  0
 20 18  1  0  0  0  0
 21 17  1  0  0  0  0
 22 20  2  0  0  0  0
 22 19  1  0  0  0  0
 24 25  1  0  0  0  0
 25 26  1  0  0  0  0
 26 27  1  0  0  0  0
 27 29  1  0  0  0  0
 29 30  1  0  0  0  0
 30 28  1  1  0  0  0
 30 34  1  0  0  0  0
 31 34  1  0  0  0  0
 32 31  1  0  0  0  0
 33 29  1  0  0  0  0
 33 32  1  0  0  0  0
M  END
>  <MODEL>
5

>  <REMARK>
 VINA RESULT:      -9.2      2.267      8.692
  Name = 
  6 active torsions:
  status: ('A' for Active; 'I' for Inactive)
    1  A    between atoms: C_3  and  N_13
    2  A    between atoms: C_3  and  C_17
    3  A    between atoms: N_5  and  C_18
    4  A    between atoms: C_12  and  C_28
    5  A    between atoms: C_17  and  C_29
    6  A    between atoms: C_18  and  C_29
                            x       y       z     vdW  Elec       q    Type
                         _______ _______ _______ _____ _____    ______ ____

>  <TORSDO>
F 6

$$$$
=
 OpenBabel10262423563D

 34 38  0  0  1  0  0  0  0  0999 V2000
  187.7940  177.8050  138.0990 C   0  0  0  0  0  0  0  0  0  0  0  0
  188.9270  177.8630  140.2420 C   0  0  0  0  0  3  0  0  0  0  0  0
  186.5170  178.4120  140.0920 C   0  0  0  0  0  0  0  0  0  0  0  0
  185.0880  179.0800  142.0560 N   0  0  0  0  0  0  0  0  0  0  0  0
  190.1460  177.2520  138.2460 C   0  0  0  0  0  3  0  0  0  0  0  0
  191.3490  177.2890  140.4330 C   0  0  0  0  0  1  0  0  0  0  0  0
  187.3880  178.7910  142.3040 O   0  0  0  0  0  0  0  0  0  0  0  0
  187.7490  178.0380  139.4920 C   0  0  0  0  0  0  0  0  0  0  0  0
  188.9890  177.4170  137.4820 C   0  0  0  0  0  3  0  0  0  0  0  0
  185.3600  178.5080  139.2750 C   0  0  0  0  0  0  0  0  0  0  0  0
  186.6760  177.9640  137.3430 N   0  0  0  0  0  0  0  0  0  0  0  0
  190.1180  177.4750  139.6220 C   0  0  0  0  0  0  0  0  0  0  0  0
  183.9090  178.6200  141.3420 C   0  0  0  0  0  2  0  0  0  0  0  0
  184.0230  178.9710  139.8560 C   0  0  2  0  0  3  0  0  0  0  0  0
  186.3880  178.7480  141.5460 C   0  0  0  0  0  0  0  0  0  0  0  0
  185.4890  178.3110  137.8930 C   0  0  0  0  0  3  0  0  0  0  0  0
  181.2880  176.6480  138.6640 C   0  0  0  0  0  0  0  0  0  0  0  0
  180.5620  177.4910  137.8780 N   0  0  0  0  0  0  0  0  0  0  0  0
  182.8360  178.4310  139.0890 C   0  0  0  0  0  0  0  0  0  0  0  0
  180.9670  178.7650  137.6630 C   0  0  0  0  0  3  0  0  0  0  0  0
  182.4400  177.1100  139.2950 C   0  0  0  0  0  3  0  0  0  0  0  0
  182.0820  179.2400  138.2890 N   0  0  0  0  0  0  0  0  0  0  0  0
  180.7960  175.2720  138.9270 C   0  0  0  0  0  1  0  0  0  0  0  0
  184.9160  179.7420  143.3420 C   0  0  0  0  0  2  0  0  0  0  0  0
  184.4080  178.7460  144.3770 C   0  0  0  0  0  2  0  0  0  0  0  0
  185.3800  178.5960  145.5440 C   0  0  0  0  0  2  0  0  0  0  0  0
  186.4580  177.5450  145.2690 C   0  0  0  0  0  2  0  0  0  0  0  0
  189.0200  176.8870  144.1210 C   0  0  0  0  0  1  0  0  0  0  0  0
  187.6920  177.8690  145.9830 N   0  0  0  0  0  0  0  0  0  0  0  0
  188.7660  176.9220  145.6240 C   0  0  2  0  0  3  0  0  0  0  0  0
  189.8300  177.2860  147.8450 C   0  0  0  0  0  2  0  0  0  0  0  0
  188.6390  178.1680  148.2200 C   0  0  0  0  0  2  0  0  0  0  0  0
  187.4130  177.7370  147.4150 C   0  0  0  0  0  2  0  0  0  0  0  0
  190.0630  177.3240  146.3340 C   0  0  0  0  0  2  0  0  0  0  0  0
  1  8  1  0  0  0  0
  3 15  1  0  0  0  0
  4 24  1  0  0  0  0
  5 12  2  0  0  0  0
  8  3  1  0  0  0  0
  8  2  2  0  0  0  0
  9  1  2  0  0  0  0
  9  5  1  0  0  0  0
 10 14  1  0  0  0  0
 10  3  2  0  0  0  0
 11 16  2  0  0  0  0
 11  1  1  0  0  0  0
 12  2  1  0  0  0  0
 12  6  1  0  0  0  0
 13  4  1  0  0  0  0
 14 19  1  6  0  0  0
 14 13  1  0  0  0  0
 15  4  1  0  0  0  0
 15  7  2  0  0  0  0
 16 10  1  0  0  0  0
 17 23  1  0  0  0  0
 17 21  1  0  0  0  0
 18 17  2  0  0  0  0
 19 21  2  0  0  0  0
 20 18  1  0  0  0  0
 20 22  2  0  0  0  0
 22 19  1  0  0  0  0
 24 25  1  0  0  0  0
 25 26  1  0  0  0  0
 27 26  1  0  0  0  0
 27 29  1  0  0  0  0
 29 33  1  0  0  0  0
 30 28  1  6  0  0  0
 30 29  1  0  0  0  0
 30 34  1  0  0  0  0
 31 32  1  0  0  0  0
 33 32  1  0  0  0  0
 34 31  1  0  0  0  0
M  END
>  <MODEL>
6

>  <REMARK>
 VINA RESULT:      -9.1      3.166      9.300
  Name = 
  6 active torsions:
  status: ('A' for Active; 'I' for Inactive)
    1  A    between atoms: C_3  and  N_13
    2  A    between atoms: C_3  and  C_17
    3  A    between atoms: N_5  and  C_18
    4  A    between atoms: C_12  and  C_28
    5  A    between atoms: C_17  and  C_29
    6  A    between atoms: C_18  and  C_29
                            x       y       z     vdW  Elec       q    Type
                         _______ _______ _______ _____ _____    ______ ____

>  <TORSDO>
F 6

$$$$
=
 OpenBabel10262423563D

 34 38  0  0  1  0  0  0  0  0999 V2000
  183.1980  178.7900  144.3840 C   0  0  0  0  0  0  0  0  0  0  0  0
  183.0230  178.5800  141.9740 C   0  0  0  0  0  3  0  0  0  0  0  0
  185.2400  178.4920  143.0750 C   0  0  0  0  0  0  0  0  0  0  0  0
  187.4240  178.2180  141.8490 N   0  0  0  0  0  0  0  0  0  0  0  0
  181.0290  178.8600  143.3120 C   0  0  0  0  0  3  0  0  0  0  0  0
  180.8030  178.6380  140.8350 C   0  0  0  0  0  1  0  0  0  0  0  0
  185.4290  178.4930  140.6740 O   0  0  0  0  0  0  0  0  0  0  0  0
  183.8270  178.6290  143.1290 C   0  0  0  0  0  0  0  0  0  0  0  0
  181.8070  178.9080  144.4700 C   0  0  0  0  0  3  0  0  0  0  0  0
  185.9740  178.4900  144.2900 C   0  0  0  0  0  0  0  0  0  0  0  0
  183.9420  178.8410  145.5200 N   0  0  0  0  0  0  0  0  0  0  0  0
  181.6340  178.6980  142.0660 C   0  0  0  0  0  0  0  0  0  0  0  0
  188.0190  177.6680  143.0550 C   0  0  0  0  0  2  0  0  0  0  0  0
  187.5010  178.4130  144.2870 C   0  0  2  0  0  3  0  0  0  0  0  0
  186.0000  178.3870  141.7880 C   0  0  0  0  0  0  0  0  0  0  0  0
  185.2880  178.7050  145.4950 C   0  0  0  0  0  3  0  0  0  0  0  0
  189.9230  176.9120  146.7720 C   0  0  0  0  0  0  0  0  0  0  0  0
  189.1530  176.8890  147.8970 N   0  0  0  0  0  0  0  0  0  0  0  0
  188.0570  177.8010  145.5530 C   0  0  0  0  0  0  0  0  0  0  0  0
  187.8560  177.2750  147.8600 C   0  0  0  0  0  3  0  0  0  0  0  0
  189.3870  177.3820  145.5760 C   0  0  0  0  0  3  0  0  0  0  0  0
  187.3200  177.7560  146.7010 N   0  0  0  0  0  0  0  0  0  0  0  0
  191.3570  176.5350  146.8490 C   0  0  0  0  0  1  0  0  0  0  0  0
  188.2730  178.4500  140.6890 C   0  0  0  0  0  2  0  0  0  0  0  0
  189.5590  177.6420  140.8150 C   0  0  0  0  0  2  0  0  0  0  0  0
  190.1030  177.2260  139.4510 C   0  0  0  0  0  2  0  0  0  0  0  0
  189.4000  177.9500  138.3010 C   0  0  0  0  0  2  0  0  0  0  0  0
  186.6760  178.0380  137.3570 C   0  0  0  0  0  1  0  0  0  0  0  0
  188.9360  176.9970  137.2940 N   0  0  0  0  0  0  0  0  0  0  0  0
  187.4880  176.7500  137.4370 C   0  0  2  0  0  3  0  0  0  0  0  0
  187.7770  174.4800  136.4570 C   0  0  0  0  0  2  0  0  0  0  0  0
  189.2850  174.7310  136.4350 C   0  0  0  0  0  2  0  0  0  0  0  0
  189.6480  175.7390  137.5260 C   0  0  0  0  0  2  0  0  0  0  0  0
  187.0170  175.8010  136.3300 C   0  0  0  0  0  2  0  0  0  0  0  0
  1  9  1  0  0  0  0
  1 11  1  0  0  0  0
  2 12  2  0  0  0  0
  2  8  1  0  0  0  0
  3  8  1  0  0  0  0
  3 10  2  0  0  0  0
  4 13  1  0  0  0  0
  5  9  2  0  0  0  0
  6 12  1  0  0  0  0
  7 15  2  0  0  0  0
  8  1  2  0  0  0  0
 10 16  1  0  0  0  0
 12  5  1  0  0  0  0
 13 14  1  0  0  0  0
 14 10  1  0  0  0  0
 14 19  1  1  0  0  0
 15  4  1  0  0  0  0
 15  3  1  0  0  0  0
 16 11  2  0  0  0  0
 17 23  1  0  0  0  0
 17 18  1  0  0  0  0
 19 21  1  0  0  0  0
 19 22  2  0  0  0  0
 20 18  2  0  0  0  0
 21 17  2  0  0  0  0
 22 20  1  0  0  0  0
 24 25  1  0  0  0  0
 24  4  1  0  0  0  0
 26 25  1  0  0  0  0
 27 26  1  0  0  0  0
 29 30  1  0  0  0  0
 29 33  1  0  0  0  0
 29 27  1  0  0  0  0
 30 28  1  6  0  0  0
 32 31  1  0  0  0  0
 32 33  1  0  0  0  0
 34 31  1  0  0  0  0
 34 30  1  0  0  0  0
M  END
>  <MODEL>
7

>  <REMARK>
 VINA RESULT:      -9.1      1.666      2.892
  Name = 
  6 active torsions:
  status: ('A' for Active; 'I' for Inactive)
    1  A    between atoms: C_3  and  N_13
    2  A    between atoms: C_3  and  C_17
    3  A    between atoms: N_5  and  C_18
    4  A    between atoms: C_12  and  C_28
    5  A    between atoms: C_17  and  C_29
    6  A    between atoms: C_18  and  C_29
                            x       y       z     vdW  Elec       q    Type
                         _______ _______ _______ _____ _____    ______ ____

>  <TORSDO>
F 6

$$$$
=
 OpenBabel10262423563D

 34 38  0  0  1  0  0  0  0  0999 V2000
  189.5910  177.0570  141.2740 C   0  0  0  0  0  0  0  0  0  0  0  0
  188.2260  178.4210  139.8060 C   0  0  0  0  0  3  0  0  0  0  0  0
  187.5350  178.0430  142.1540 C   0  0  0  0  0  0  0  0  0  0  0  0
  185.4330  178.9720  143.1830 N   0  0  0  0  0  0  0  0  0  0  0  0
  190.2760  177.4390  138.9840 C   0  0  0  0  0  3  0  0  0  0  0  0
  188.9050  178.8450  137.4420 C   0  0  0  0  0  1  0  0  0  0  0  0
  185.8570  179.2340  140.9060 O   0  0  0  0  0  0  0  0  0  0  0  0
  188.4330  177.8410  141.0710 C   0  0  0  0  0  0  0  0  0  0  0  0
  190.5030  176.8560  140.2320 C   0  0  0  0  0  3  0  0  0  0  0  0
  187.8480  177.4740  143.4160 C   0  0  0  0  0  0  0  0  0  0  0  0
  189.8240  176.4820  142.4830 N   0  0  0  0  0  0  0  0  0  0  0  0
  189.1400  178.2180  138.7690 C   0  0  0  0  0  0  0  0  0  0  0  0
  186.0470  178.8800  144.4970 C   0  0  0  0  0  2  0  0  0  0  0  0
  186.8850  177.6030  144.5980 C   0  0  2  0  0  3  0  0  0  0  0  0
  186.2500  178.7990  142.0160 C   0  0  0  0  0  0  0  0  0  0  0  0
  188.9890  176.6660  143.5310 C   0  0  0  0  0  3  0  0  0  0  0  0
  189.5870  177.1130  147.1980 C   0  0  0  0  0  0  0  0  0  0  0  0
  188.9630  177.5970  148.3080 N   0  0  0  0  0  0  0  0  0  0  0  0
  187.5900  177.5320  145.9340 C   0  0  0  0  0  0  0  0  0  0  0  0
  187.6740  178.0090  148.2590 C   0  0  0  0  0  3  0  0  0  0  0  0
  188.9090  177.0820  145.9820 C   0  0  0  0  0  3  0  0  0  0  0  0
  187.0010  178.0040  147.0720 N   0  0  0  0  0  0  0  0  0  0  0  0
  191.0160  176.7170  147.2640 C   0  0  0  0  0  1  0  0  0  0  0  0
  184.0370  179.3780  143.0880 C   0  0  0  0  0  2  0  0  0  0  0  0
  183.2440  178.3350  142.3090 C   0  0  0  0  0  2  0  0  0  0  0  0
  181.8050  178.7830  142.0660 C   0  0  0  0  0  2  0  0  0  0  0  0
  181.3590  178.5430  140.6220 C   0  0  0  0  0  2  0  0  0  0  0  0
  183.1350  179.9910  138.8710 C   0  0  0  0  0  1  0  0  0  0  0  0
  182.3940  177.8350  139.8700 N   0  0  0  0  0  0  0  0  0  0  0  0
  182.7090  178.5500  138.6170 C   0  0  2  0  0  3  0  0  0  0  0  0
  183.3850  176.4000  137.5600 C   0  0  0  0  0  2  0  0  0  0  0  0
  182.9370  175.6840  138.8350 C   0  0  0  0  0  2  0  0  0  0  0  0
  181.8580  176.5150  139.5310 C   0  0  0  0  0  2  0  0  0  0  0  0
  183.8410  177.8230  137.8830 C   0  0  0  0  0  2  0  0  0  0  0  0
  1 11  1  0  0  0  0
  2  8  1  0  0  0  0
  3 10  2  0  0  0  0
  4 13  1  0  0  0  0
  5  9  2  0  0  0  0
  6 12  1  0  0  0  0
  7 15  2  0  0  0  0
  8  1  2  0  0  0  0
  8  3  1  0  0  0  0
  9  1  1  0  0  0  0
 10 16  1  0  0  0  0
 10 14  1  0  0  0  0
 11 16  2  0  0  0  0
 12  5  1  0  0  0  0
 12  2  2  0  0  0  0
 13 14  1  0  0  0  0
 14 19  1  1  0  0  0
 15  3  1  0  0  0  0
 15  4  1  0  0  0  0
 17 23  1  0  0  0  0
 17 18  1  0  0  0  0
 19 21  1  0  0  0  0
 19 22  2  0  0  0  0
 20 18  2  0  0  0  0
 21 17  2  0  0  0  0
 22 20  1  0  0  0  0
 24  4  1  0  0  0  0
 25 24  1  0  0  0  0
 26 25  1  0  0  0  0
 27 26  1  0  0  0  0
 29 27  1  0  0  0  0
 30 28  1  1  0  0  0
 30 29  1  0  0  0  0
 31 34  1  0  0  0  0
 31 32  1  0  0  0  0
 32 33  1  0  0  0  0
 33 29  1  0  0  0  0
 34 30  1  0  0  0  0
M  END
>  <MODEL>
8

>  <REMARK>
 VINA RESULT:      -9.1      2.535      5.657
  Name = 
  6 active torsions:
  status: ('A' for Active; 'I' for Inactive)
    1  A    between atoms: C_3  and  N_13
    2  A    between atoms: C_3  and  C_17
    3  A    between atoms: N_5  and  C_18
    4  A    between atoms: C_12  and  C_28
    5  A    between atoms: C_17  and  C_29
    6  A    between atoms: C_18  and  C_29
                            x       y       z     vdW  Elec       q    Type
                         _______ _______ _______ _____ _____    ______ ____

>  <TORSDO>
F 6

$$$$
=
 OpenBabel10262423563D

 34 38  0  0  1  0  0  0  0  0999 V2000
  190.7520  177.0770  144.9500 C   0  0  0  0  0  0  0  0  0  0  0  0
  188.5880  177.4820  145.9660 C   0  0  0  0  0  3  0  0  0  0  0  0
  188.8810  177.7280  143.5190 C   0  0  0  0  0  0  0  0  0  0  0  0
  187.0500  178.4180  141.9320 N   0  0  0  0  0  0  0  0  0  0  0  0
  190.4650  176.8210  147.3400 C   0  0  0  0  0  3  0  0  0  0  0  0
  188.2510  177.2170  148.4250 C   0  0  0  0  0  1  0  0  0  0  0  0
  186.6910  178.4260  144.2360 O   0  0  0  0  0  0  0  0  0  0  0  0
  189.3940  177.4420  144.8130 C   0  0  0  0  0  0  0  0  0  0  0  0
  191.2820  176.7720  146.2080 C   0  0  0  0  0  3  0  0  0  0  0  0
  189.7440  177.6060  142.3990 C   0  0  0  0  0  0  0  0  0  0  0  0
  191.5600  177.0280  143.8580 N   0  0  0  0  0  0  0  0  0  0  0  0
  189.1210  177.1750  147.2210 C   0  0  0  0  0  0  0  0  0  0  0  0
  187.7540  177.7540  140.8480 C   0  0  0  0  0  2  0  0  0  0  0  0
  189.2630  177.9650  140.9920 C   0  0  2  0  0  3  0  0  0  0  0  0
  187.4760  178.1900  143.2840 C   0  0  0  0  0  0  0  0  0  0  0  0
  191.0930  177.2870  142.6150 C   0  0  0  0  0  3  0  0  0  0  0  0
  189.9740  175.8930  137.9100 C   0  0  0  0  0  0  0  0  0  0  0  0
  191.3260  176.0300  137.8170 N   0  0  0  0  0  0  0  0  0  0  0  0
  190.0110  177.2160  139.9110 C   0  0  0  0  0  0  0  0  0  0  0  0
  192.0240  176.7090  138.7570 C   0  0  0  0  0  3  0  0  0  0  0  0
  189.2870  176.4970  138.9600 C   0  0  0  0  0  3  0  0  0  0  0  0
  191.3660  177.3230  139.7830 N   0  0  0  0  0  0  0  0  0  0  0  0
  189.2250  175.1890  136.8390 C   0  0  0  0  0  1  0  0  0  0  0  0
  185.8480  179.1810  141.6260 C   0  0  0  0  0  2  0  0  0  0  0  0
  184.6530  178.2430  141.5030 C   0  0  0  0  0  2  0  0  0  0  0  0
  183.6760  178.7090  140.4270 C   0  0  0  0  0  2  0  0  0  0  0  0
  184.3190  178.7490  139.0390 C   0  0  0  0  0  2  0  0  0  0  0  0
  186.5570  178.2210  137.2990 C   0  0  0  0  0  1  0  0  0  0  0  0
  184.5640  177.3960  138.5410 N   0  0  0  0  0  0  0  0  0  0  0  0
  185.2500  177.4380  137.2350 C   0  0  2  0  0  3  0  0  0  0  0  0
  184.2360  175.2470  136.6310 C   0  0  0  0  0  2  0  0  0  0  0  0
  183.4530  175.2990  137.9430 C   0  0  0  0  0  2  0  0  0  0  0  0
  183.2590  176.7570  138.3610 C   0  0  0  0  0  2  0  0  0  0  0  0
  185.5540  176.0100  136.7680 C   0  0  0  0  0  2  0  0  0  0  0  0
  1  9  2  0  0  0  0
  2 12  1  0  0  0  0
  3  8  1  0  0  0  0
  4 15  1  0  0  0  0
  8  1  1  0  0  0  0
  8  2  2  0  0  0  0
  9  5  1  0  0  0  0
 10 16  1  0  0  0  0
 10  3  2  0  0  0  0
 11  1  1  0  0  0  0
 12  5  2  0  0  0  0
 12  6  1  0  0  0  0
 13 14  1  0  0  0  0
 13  4  1  0  0  0  0
 14 19  1  6  0  0  0
 14 10  1  0  0  0  0
 15  3  1  0  0  0  0
 15  7  2  0  0  0  0
 16 11  2  0  0  0  0
 17 21  1  0  0  0  0
 18 17  2  0  0  0  0
 18 20  1  0  0  0  0
 20 22  2  0  0  0  0
 21 19  2  0  0  0  0
 22 19  1  0  0  0  0
 23 17  1  0  0  0  0
 24  4  1  0  0  0  0
 25 24  1  0  0  0  0
 26 25  1  0  0  0  0
 27 26  1  0  0  0  0
 29 27  1  0  0  0  0
 30 28  1  1  0  0  0
 30 29  1  0  0  0  0
 31 34  1  0  0  0  0
 31 32  1  0  0  0  0
 32 33  1  0  0  0  0
 33 29  1  0  0  0  0
 34 30  1  0  0  0  0
M  END
>  <MODEL>
9

>  <REMARK>
 VINA RESULT:      -8.8      2.131      5.299
  Name = 
  6 active torsions:
  status: ('A' for Active; 'I' for Inactive)
    1  A    between atoms: C_3  and  N_13
    2  A    between atoms: C_3  and  C_17
    3  A    between atoms: N_5  and  C_18
    4  A    between atoms: C_12  and  C_28
    5  A    between atoms: C_17  and  C_29
    6  A    between atoms: C_18  and  C_29
                            x       y       z     vdW  Elec       q    Type
                         _______ _______ _______ _____ _____    ______ ____

>  <TORSDO>
F 6

$$$$
