=
 OpenBabel10272415113D

 34 37  0  0  1  0  0  0  0  0999 V2000
  185.7440  178.1950  146.8250 N   0  0  0  0  0  1  0  0  0  0  0  0
  184.4280  178.6190  143.6900 C   0  0  0  0  0  0  0  0  0  0  0  0
  183.4380  178.8620  144.4730 N   0  0  0  0  0  0  0  0  0  0  0  0
  185.3220  179.1420  145.8020 C   0  0  1  0  0  3  0  0  0  0  0  0
  185.7540  178.7320  144.3750 C   0  0  1  0  0  3  0  0  0  0  0  0
  183.9060  179.1600  145.7260 O   0  0  0  0  0  0  0  0  0  0  0  0
  186.5010  177.4000  144.3170 C   0  0  0  0  0  2  0  0  0  0  0  0
  187.1610  177.2640  143.0800 O   0  0  0  0  0  0  0  0  0  0  0  0
  190.7580  176.2250  142.7770 C   0  0  0  0  0  2  0  0  0  0  0  0
  191.4530  176.8630  146.4340 C   0  0  0  0  0  3  0  0  0  0  0  0
  191.4920  176.0210  144.1000 C   0  0  0  0  0  2  0  0  0  0  0  0
  191.1630  177.0510  145.1440 C   0  0  0  0  0  0  0  0  0  0  0  0
  190.3850  178.2790  144.7870 C   0  0  0  0  0  2  0  0  0  0  0  0
  189.2610  176.0240  142.9560 C   0  0  0  0  0  2  0  0  0  0  0  0
  188.9060  177.9420  144.6660 C   0  0  0  0  0  2  0  0  0  0  0  0
  188.5550  177.3440  143.2940 C   0  0  2  0  0  3  0  0  0  0  0  0
  192.8900  175.8040  148.0390 O   0  0  0  0  0  0  0  0  0  0  0  0
  192.1540  175.7070  147.0190 C   0  0  0  0  0  3  0  0  0  0  0  0
  184.2400  178.3340  142.2360 C   0  0  0  0  0  2  0  0  0  0  0  0
  185.0020  179.2300  141.4840 O   0  0  0  0  0  0  0  0  0  0  0  0
  184.4780  179.1670  140.1830 C   0  0  0  0  0  2  0  0  0  0  0  0
  186.1510  177.7100  137.1690 C   0  0  0  0  0  2  0  0  0  0  0  0
  186.7000  178.4040  139.8600 C   0  0  0  0  0  2  0  0  0  0  0  0
  189.9090  177.4100  137.4040 C   0  0  1  0  0  3  0  0  0  0  0  0
  188.5220  177.0510  136.8630 C   0  0  0  0  0  2  0  0  0  0  0  0
  187.4110  177.2520  137.8990 C   0  0  1  0  0  3  0  0  0  0  0  0
  188.9220  177.7180  139.7170 C   0  0  0  0  0  2  0  0  0  0  0  0
  187.8060  178.2410  138.9180 N   0  0  2  0  0  0  0  0  0  0  0  0
  190.0280  177.0610  138.8840 C   0  0  0  0  0  2  0  0  0  0  0  0
  185.5280  178.9560  139.1830 N   0  0  0  0  0  0  0  0  0  0  0  0
  185.0530  177.9920  138.1850 C   0  0  0  0  0  2  0  0  0  0  0  0
  190.9410  176.7270  136.6410 N   0  0  0  0  0  0  0  0  0  0  0  0
  190.6490  176.1880  135.4110 O   0  0  0  0  0  0  0  0  0  0  0  0
  192.0440  176.4930  137.1720 O   0  0  0  0  0  0  0  0  0  0  0  0
  2  5  1  0  0  0  0
  2  3  2  0  0  0  0
  3  6  1  0  0  0  0
  4  1  1  1  0  0  0
  5  7  1  1  0  0  0
  5  4  1  0  0  0  0
  6  4  1  0  0  0  0
  8  7  1  0  0  0  0
  9 14  1  0  0  0  0
  9 11  1  0  0  0  0
 10 18  1  0  0  0  0
 11 12  1  0  0  0  0
 12 10  2  0  0  0  0
 13 12  1  0  0  0  0
 14 16  1  0  0  0  0
 15 13  1  0  0  0  0
 16  8  1  1  0  0  0
 16 15  1  0  0  0  0
 18 17  2  0  0  0  0
 19  2  1  0  0  0  0
 20 19  1  0  0  0  0
 21 20  1  0  0  0  0
 22 26  1  0  0  0  0
 22 31  1  0  0  0  0
 24 32  1  6  0  0  0
 24 29  1  0  0  0  0
 25 24  1  0  0  0  0
 26 25  1  6  0  0  0
 26 28  1  0  0  0  0
 28 27  1  1  0  0  0
 28 23  1  0  0  0  0
 29 27  1  0  0  0  0
 30 23  1  0  0  0  0
 30 21  1  0  0  0  0
 31 30  1  0  0  0  0
 32 34  2  0  0  0  0
 33 32  2  0  0  0  0
M  END
>  <MODEL>
1

>  <REMARK>
 VINA RESULT:      -9.1      0.000      0.000
  Name = 
  9 active torsions:
  status: ('A' for Active; 'I' for Inactive)
    1  A    between atoms: C_1  and  O_9
    2  A    between atoms: C_1  and  C_20
    3  A    between atoms: C_3  and  C_24
    4  A    between atoms: C_7  and  N_11
    5  A    between atoms: C_8  and  C_10
    6  A    between atoms: C_8  and  O_17
    7  A    between atoms: O_9  and  C_34
    8  A    between atoms: O_17  and  C_18
    9  A    between atoms: C_18  and  N_30
                            x       y       z     vdW  Elec       q    Type
                         _______ _______ _______ _____ _____    ______ ____

>  <TORSDO>
F 9

$$$$
=
 OpenBabel10272415113D

 34 37  0  0  1  0  0  0  0  0999 V2000
  180.2680  179.0430  144.1040 N   0  0  0  0  0  1  0  0  0  0  0  0
  182.2180  178.3940  141.3620 C   0  0  0  0  0  0  0  0  0  0  0  0
  181.0450  178.0110  141.0010 N   0  0  0  0  0  0  0  0  0  0  0  0
  180.6700  179.4680  142.7700 C   0  0  1  0  0  3  0  0  0  0  0  0
  182.1900  179.3410  142.5210 C   0  0  1  0  0  3  0  0  0  0  0  0
  180.1030  178.5990  141.8030 O   0  0  0  0  0  0  0  0  0  0  0  0
  182.9610  178.7600  143.7050 C   0  0  0  0  0  2  0  0  0  0  0  0
  184.1990  179.4170  143.8520 O   0  0  0  0  0  0  0  0  0  0  0  0
  186.3600  177.7830  146.4540 C   0  0  0  0  0  2  0  0  0  0  0  0
  189.3520  177.6310  144.1540 C   0  0  0  0  0  3  0  0  0  0  0  0
  187.8500  177.7330  146.1280 C   0  0  0  0  0  2  0  0  0  0  0  0
  188.1470  177.4110  144.6890 C   0  0  0  0  0  0  0  0  0  0  0  0
  187.0630  176.9420  143.7710 C   0  0  0  0  0  2  0  0  0  0  0  0
  185.6880  178.9370  145.7280 C   0  0  0  0  0  2  0  0  0  0  0  0
  186.2140  178.1220  143.3220 C   0  0  0  0  0  2  0  0  0  0  0  0
  185.1460  178.4990  144.3600 C   0  0  2  0  0  3  0  0  0  0  0  0
  191.5470  177.4230  145.1020 O   0  0  0  0  0  0  0  0  0  0  0  0
  190.5440  178.1450  144.8490 C   0  0  0  0  0  3  0  0  0  0  0  0
  183.4510  177.9780  140.6290 C   0  0  0  0  0  2  0  0  0  0  0  0
  184.2820  179.0860  140.4530 O   0  0  0  0  0  0  0  0  0  0  0  0
  184.3740  179.2690  139.0640 C   0  0  0  0  0  2  0  0  0  0  0  0
  186.9100  177.2730  137.1690 C   0  0  0  0  0  2  0  0  0  0  0  0
  186.5350  178.5190  139.6860 C   0  0  0  0  0  2  0  0  0  0  0  0
  190.3430  177.1320  138.7380 C   0  0  1  0  0  3  0  0  0  0  0  0
  189.2100  176.6310  137.8370 C   0  0  0  0  0  2  0  0  0  0  0  0
  187.8220  177.0100  138.3650 C   0  0  1  0  0  3  0  0  0  0  0  0
  188.6400  177.8800  140.4580 C   0  0  0  0  0  2  0  0  0  0  0  0
  187.8890  178.1970  139.2350 N   0  0  2  0  0  0  0  0  0  0  0  0
  189.9330  177.0980  140.2070 C   0  0  0  0  0  2  0  0  0  0  0  0
  185.6930  178.8870  138.5500 N   0  0  0  0  0  0  0  0  0  0  0  0
  185.5450  177.7260  137.6670 C   0  0  0  0  0  2  0  0  0  0  0  0
  191.5420  176.3370  138.5310 N   0  0  0  0  0  0  0  0  0  0  0  0
  191.4410  175.0100  138.1860 O   0  0  0  0  0  0  0  0  0  0  0  0
  192.6550  176.8160  138.8220 O   0  0  0  0  0  0  0  0  0  0  0  0
  2  5  1  0  0  0  0
  3  2  2  0  0  0  0
  3  6  1  0  0  0  0
  4  1  1  1  0  0  0
  5  4  1  0  0  0  0
  5  7  1  1  0  0  0
  6  4  1  0  0  0  0
  7  8  1  0  0  0  0
 10 12  2  0  0  0  0
 10 18  1  0  0  0  0
 11  9  1  0  0  0  0
 12 11  1  0  0  0  0
 13 12  1  0  0  0  0
 14  9  1  0  0  0  0
 15 13  1  0  0  0  0
 15 16  1  0  0  0  0
 16  8  1  6  0  0  0
 16 14  1  0  0  0  0
 18 17  2  0  0  0  0
 19  2  1  0  0  0  0
 20 19  1  0  0  0  0
 21 20  1  0  0  0  0
 22 31  1  0  0  0  0
 24 32  1  1  0  0  0
 24 29  1  0  0  0  0
 25 26  1  0  0  0  0
 25 24  1  0  0  0  0
 26 22  1  6  0  0  0
 26 28  1  0  0  0  0
 28 23  1  1  0  0  0
 28 27  1  0  0  0  0
 29 27  1  0  0  0  0
 30 21  1  0  0  0  0
 30 23  1  0  0  0  0
 31 30  1  0  0  0  0
 32 34  2  0  0  0  0
 33 32  2  0  0  0  0
M  END
>  <MODEL>
2

>  <REMARK>
 VINA RESULT:      -8.5      2.089      3.310
  Name = 
  9 active torsions:
  status: ('A' for Active; 'I' for Inactive)
    1  A    between atoms: C_1  and  O_9
    2  A    between atoms: C_1  and  C_20
    3  A    between atoms: C_3  and  C_24
    4  A    between atoms: C_7  and  N_11
    5  A    between atoms: C_8  and  C_10
    6  A    between atoms: C_8  and  O_17
    7  A    between atoms: O_9  and  C_34
    8  A    between atoms: O_17  and  C_18
    9  A    between atoms: C_18  and  N_30
                            x       y       z     vdW  Elec       q    Type
                         _______ _______ _______ _____ _____    ______ ____

>  <TORSDO>
F 9

$$$$
=
 OpenBabel10272415113D

 34 37  0  0  1  0  0  0  0  0999 V2000
  189.3460  178.1230  147.9390 N   0  0  0  0  0  1  0  0  0  0  0  0
  191.0490  176.6180  145.3760 C   0  0  0  0  0  0  0  0  0  0  0  0
  191.9620  176.8640  146.2480 N   0  0  0  0  0  0  0  0  0  0  0  0
  189.9750  176.9050  147.4480 C   0  0  1  0  0  3  0  0  0  0  0  0
  189.6720  176.6190  145.9590 C   0  0  1  0  0  3  0  0  0  0  0  0
  191.3850  177.0540  147.4750 O   0  0  0  0  0  0  0  0  0  0  0  0
  188.8080  177.6880  145.2910 C   0  0  0  0  0  2  0  0  0  0  0  0
  187.7920  177.0850  144.5240 O   0  0  0  0  0  0  0  0  0  0  0  0
  184.8610  179.3700  145.0740 C   0  0  0  0  0  2  0  0  0  0  0  0
  183.3650  178.5820  141.6960 C   0  0  0  0  0  3  0  0  0  0  0  0
  183.7220  179.2250  144.0670 C   0  0  0  0  0  2  0  0  0  0  0  0
  184.1850  179.0340  142.6490 C   0  0  0  0  0  0  0  0  0  0  0  0
  185.6220  179.2300  142.2810 C   0  0  0  0  0  2  0  0  0  0  0  0
  185.6570  178.0780  145.1750 C   0  0  0  0  0  2  0  0  0  0  0  0
  186.4380  178.0160  142.7010 C   0  0  0  0  0  2  0  0  0  0  0  0
  186.8310  178.0660  144.1860 C   0  0  2  0  0  3  0  0  0  0  0  0
  181.0800  178.5410  140.9590 O   0  0  0  0  0  0  0  0  0  0  0  0
  181.9340  178.2630  141.8450 C   0  0  0  0  0  3  0  0  0  0  0  0
  191.3750  176.2950  143.9540 C   0  0  0  0  0  2  0  0  0  0  0  0
  191.9570  177.4090  143.3460 O   0  0  0  0  0  0  0  0  0  0  0  0
  190.9200  178.0290  142.6310 C   0  0  0  0  0  2  0  0  0  0  0  0
  191.3930  176.7330  139.1520 C   0  0  0  0  0  2  0  0  0  0  0  0
  189.4200  177.9250  140.7990 C   0  0  0  0  0  2  0  0  0  0  0  0
  188.2250  176.3680  137.1290 C   0  0  1  0  0  3  0  0  0  0  0  0
  189.7350  176.5360  137.3190 C   0  0  0  0  0  2  0  0  0  0  0  0
  190.0900  177.3020  138.5980 C   0  0  1  0  0  3  0  0  0  0  0  0
  187.8090  177.8860  139.1140 C   0  0  0  0  0  2  0  0  0  0  0  0
  189.0120  177.1950  139.5980 N   0  0  2  0  0  0  0  0  0  0  0  0
  187.4660  177.5830  137.6520 C   0  0  0  0  0  2  0  0  0  0  0  0
  190.6010  177.3060  141.3970 N   0  0  0  0  0  0  0  0  0  0  0  0
  191.7280  177.4250  140.4660 C   0  0  0  0  0  2  0  0  0  0  0  0
  187.9140  176.1450  135.7260 N   0  0  0  0  0  0  0  0  0  0  0  0
  186.6790  175.6650  135.3590 O   0  0  0  0  0  0  0  0  0  0  0  0
  188.8180  176.2390  134.8740 O   0  0  0  0  0  0  0  0  0  0  0  0
  2  5  1  0  0  0  0
  2  3  2  0  0  0  0
  3  6  1  0  0  0  0
  4  6  1  0  0  0  0
  4  1  1  6  0  0  0
  5  7  1  6  0  0  0
  5  4  1  0  0  0  0
  8  7  1  0  0  0  0
  9 14  1  0  0  0  0
 10 18  1  0  0  0  0
 10 12  2  0  0  0  0
 11  9  1  0  0  0  0
 12 11  1  0  0  0  0
 13 12  1  0  0  0  0
 13 15  1  0  0  0  0
 15 16  1  0  0  0  0
 16  8  1  1  0  0  0
 16 14  1  0  0  0  0
 17 18  2  0  0  0  0
 19  2  1  0  0  0  0
 20 19  1  0  0  0  0
 21 20  1  0  0  0  0
 22 31  1  0  0  0  0
 23 30  1  0  0  0  0
 24 32  1  6  0  0  0
 24 25  1  0  0  0  0
 24 29  1  0  0  0  0
 26 25  1  6  0  0  0
 26 22  1  0  0  0  0
 26 28  1  0  0  0  0
 28 27  1  6  0  0  0
 28 23  1  0  0  0  0
 29 27  1  0  0  0  0
 30 21  1  0  0  0  0
 31 30  1  0  0  0  0
 33 32  2  0  0  0  0
 34 32  2  0  0  0  0
M  END
>  <MODEL>
3

>  <REMARK>
 VINA RESULT:      -8.2      2.404      6.172
  Name = 
  9 active torsions:
  status: ('A' for Active; 'I' for Inactive)
    1  A    between atoms: C_1  and  O_9
    2  A    between atoms: C_1  and  C_20
    3  A    between atoms: C_3  and  C_24
    4  A    between atoms: C_7  and  N_11
    5  A    between atoms: C_8  and  C_10
    6  A    between atoms: C_8  and  O_17
    7  A    between atoms: O_9  and  C_34
    8  A    between atoms: O_17  and  C_18
    9  A    between atoms: C_18  and  N_30
                            x       y       z     vdW  Elec       q    Type
                         _______ _______ _______ _____ _____    ______ ____

>  <TORSDO>
F 9

$$$$
=
 OpenBabel10272415113D

 34 37  0  0  1  0  0  0  0  0999 V2000
  183.4180  177.0180  135.5600 N   0  0  0  0  0  1  0  0  0  0  0  0
  183.6250  178.4950  138.6450 C   0  0  0  0  0  0  0  0  0  0  0  0
  182.4380  178.7860  138.2450 N   0  0  0  0  0  0  0  0  0  0  0  0
  183.0540  176.9470  136.9690 C   0  0  1  0  0  3  0  0  0  0  0  0
  184.2140  177.3270  137.9180 C   0  0  1  0  0  3  0  0  0  0  0  0
  182.0620  177.9190  137.2540 O   0  0  0  0  0  0  0  0  0  0  0  0
  185.4940  177.7380  137.1920 C   0  0  0  0  0  2  0  0  0  0  0  0
  186.3460  176.6270  137.0360 O   0  0  0  0  0  0  0  0  0  0  0  0
  190.0480  176.2070  137.5120 C   0  0  0  0  0  2  0  0  0  0  0  0
  189.9440  177.5560  141.0390 C   0  0  0  0  0  3  0  0  0  0  0  0
  190.5430  176.3590  138.9480 C   0  0  0  0  0  2  0  0  0  0  0  0
  189.8770  177.4740  139.7070 C   0  0  0  0  0  0  0  0  0  0  0  0
  189.0090  178.4670  139.0000 C   0  0  0  0  0  2  0  0  0  0  0  0
  188.5900  175.7760  137.4880 C   0  0  0  0  0  2  0  0  0  0  0  0
  187.6440  177.8570  138.7160 C   0  0  0  0  0  2  0  0  0  0  0  0
  187.6480  176.9870  137.4480 C   0  0  2  0  0  3  0  0  0  0  0  0
  190.1530  175.6480  142.4800 O   0  0  0  0  0  0  0  0  0  0  0  0
  190.6840  176.6570  141.9400 C   0  0  0  0  0  3  0  0  0  0  0  0
  184.2840  179.2200  139.7720 C   0  0  0  0  0  2  0  0  0  0  0  0
  184.5850  178.3160  140.7930 O   0  0  0  0  0  0  0  0  0  0  0  0
  183.6710  178.5950  141.8220 C   0  0  0  0  0  2  0  0  0  0  0  0
  184.4210  178.9200  145.4730 C   0  0  0  0  0  2  0  0  0  0  0  0
  185.6560  178.1580  143.0410 C   0  0  0  0  0  2  0  0  0  0  0  0
  187.6690  177.3490  146.5920 C   0  0  1  0  0  3  0  0  0  0  0  0
  186.4890  178.3190  146.7030 C   0  0  0  0  0  2  0  0  0  0  0  0
  185.9290  178.7310  145.3370 C   0  0  1  0  0  3  0  0  0  0  0  0
  187.6830  177.6600  144.0780 C   0  0  0  0  0  2  0  0  0  0  0  0
  186.2340  177.7180  144.3110 N   0  0  2  0  0  0  0  0  0  0  0  0
  188.5180  177.6560  145.3630 C   0  0  0  0  0  2  0  0  0  0  0  0
  184.1990  178.2230  143.1360 N   0  0  0  0  0  0  0  0  0  0  0  0
  183.8290  179.2540  144.1120 C   0  0  0  0  0  2  0  0  0  0  0  0
  188.4850  177.4070  147.7940 N   0  0  0  0  0  0  0  0  0  0  0  0
  189.8310  177.1360  147.7300 O   0  0  0  0  0  0  0  0  0  0  0  0
  187.9350  177.5440  148.9040 O   0  0  0  0  0  0  0  0  0  0  0  0
  2 19  1  0  0  0  0
  3  2  2  0  0  0  0
  4  1  1  6  0  0  0
  4  6  1  0  0  0  0
  4  5  1  0  0  0  0
  5  7  1  6  0  0  0
  5  2  1  0  0  0  0
  6  3  1  0  0  0  0
  8  7  1  0  0  0  0
  9 11  1  0  0  0  0
 10 18  1  0  0  0  0
 11 12  1  0  0  0  0
 12 10  2  0  0  0  0
 13 12  1  0  0  0  0
 14  9  1  0  0  0  0
 15 13  1  0  0  0  0
 16  8  1  1  0  0  0
 16 14  1  0  0  0  0
 16 15  1  0  0  0  0
 18 17  2  0  0  0  0
 19 20  1  0  0  0  0
 20 21  1  0  0  0  0
 21 30  1  0  0  0  0
 23 30  1  0  0  0  0
 24 25  1  0  0  0  0
 24 32  1  1  0  0  0
 26 22  1  1  0  0  0
 26 25  1  0  0  0  0
 27 28  1  0  0  0  0
 27 29  1  0  0  0  0
 28 23  1  6  0  0  0
 28 26  1  0  0  0  0
 29 24  1  0  0  0  0
 30 31  1  0  0  0  0
 31 22  1  0  0  0  0
 32 34  2  0  0  0  0
 33 32  2  0  0  0  0
M  END
>  <MODEL>
4

>  <REMARK>
 VINA RESULT:      -8.1      2.865      7.206
  Name = 
  9 active torsions:
  status: ('A' for Active; 'I' for Inactive)
    1  A    between atoms: C_1  and  O_9
    2  A    between atoms: C_1  and  C_20
    3  A    between atoms: C_3  and  C_24
    4  A    between atoms: C_7  and  N_11
    5  A    between atoms: C_8  and  C_10
    6  A    between atoms: C_8  and  O_17
    7  A    between atoms: O_9  and  C_34
    8  A    between atoms: O_17  and  C_18
    9  A    between atoms: C_18  and  N_30
                            x       y       z     vdW  Elec       q    Type
                         _______ _______ _______ _____ _____    ______ ____

>  <TORSDO>
F 9

$$$$
=
 OpenBabel10272415113D

 34 37  0  0  1  0  0  0  0  0999 V2000
  192.8420  176.6340  138.3260 N   0  0  0  0  0  1  0  0  0  0  0  0
  189.5650  176.3350  137.3730 C   0  0  0  0  0  0  0  0  0  0  0  0
  190.1900  176.5230  136.2650 N   0  0  0  0  0  0  0  0  0  0  0  0
  191.8190  175.7770  137.7410 C   0  0  1  0  0  3  0  0  0  0  0  0
  190.4610  175.8610  138.4740 C   0  0  1  0  0  3  0  0  0  0  0  0
  191.5170  176.2250  136.4310 O   0  0  0  0  0  0  0  0  0  0  0  0
  190.4490  176.8510  139.6370 C   0  0  0  0  0  2  0  0  0  0  0  0
  190.4810  176.1630  140.8650 O   0  0  0  0  0  0  0  0  0  0  0  0
  191.1430  178.7200  143.5360 C   0  0  0  0  0  2  0  0  0  0  0  0
  188.7820  177.0660  145.9770 C   0  0  0  0  0  3  0  0  0  0  0  0
  190.6170  178.3650  144.9250 C   0  0  0  0  0  2  0  0  0  0  0  0
  189.2580  177.7210  144.9140 C   0  0  0  0  0  0  0  0  0  0  0  0
  188.4370  177.6880  143.6640 C   0  0  0  0  0  2  0  0  0  0  0  0
  191.3970  177.4630  142.7190 C   0  0  0  0  0  2  0  0  0  0  0  0
  188.9500  176.6000  142.7320 C   0  0  0  0  0  2  0  0  0  0  0  0
  190.1580  177.0650  141.9040 C   0  0  2  0  0  3  0  0  0  0  0  0
  188.9810  177.4320  148.3410 O   0  0  0  0  0  0  0  0  0  0  0  0
  189.4400  176.9150  147.2860 C   0  0  0  0  0  3  0  0  0  0  0  0
  188.0860  176.5060  137.4890 C   0  0  0  0  0  2  0  0  0  0  0  0
  187.7880  177.8580  137.6670 O   0  0  0  0  0  0  0  0  0  0  0  0
  186.4290  177.9890  137.3350 C   0  0  0  0  0  2  0  0  0  0  0  0
  183.2910  178.0280  139.3740 C   0  0  0  0  0  2  0  0  0  0  0  0
  186.0620  178.5740  139.6030 C   0  0  0  0  0  2  0  0  0  0  0  0
  183.7960  178.4640  143.0920 C   0  0  1  0  0  3  0  0  0  0  0  0
  183.0000  178.5300  141.7840 C   0  0  0  0  0  2  0  0  0  0  0  0
  183.8900  178.7770  140.5610 C   0  0  1  0  0  3  0  0  0  0  0  0
  185.8880  179.1690  141.8490 C   0  0  0  0  0  2  0  0  0  0  0  0
  185.2720  178.3330  140.8100 N   0  0  2  0  0  0  0  0  0  0  0  0
  184.9840  179.4200  143.0610 C   0  0  0  0  0  2  0  0  0  0  0  0
  185.5610  177.7640  138.4940 N   0  0  0  0  0  0  0  0  0  0  0  0
  184.1990  178.1950  138.1630 C   0  0  0  0  0  2  0  0  0  0  0  0
  182.9350  178.7670  144.2230 N   0  0  0  0  0  0  0  0  0  0  0  0
  181.5690  178.7870  144.0670 O   0  0  0  0  0  0  0  0  0  0  0  0
  183.4400  179.1630  145.2910 O   0  0  0  0  0  0  0  0  0  0  0  0
  2 19  1  0  0  0  0
  2  5  1  0  0  0  0
  3  6  1  0  0  0  0
  3  2  2  0  0  0  0
  4  1  1  1  0  0  0
  4  5  1  0  0  0  0
  5  7  1  1  0  0  0
  6  4  1  0  0  0  0
  7  8  1  0  0  0  0
  9 11  1  0  0  0  0
 10 18  1  0  0  0  0
 12 11  1  0  0  0  0
 12 10  2  0  0  0  0
 13 12  1  0  0  0  0
 14  9  1  0  0  0  0
 15 13  1  0  0  0  0
 16  8  1  6  0  0  0
 16 14  1  0  0  0  0
 16 15  1  0  0  0  0
 18 17  2  0  0  0  0
 19 20  1  0  0  0  0
 21 20  1  0  0  0  0
 21 30  1  0  0  0  0
 24 32  1  1  0  0  0
 25 24  1  0  0  0  0
 26 22  1  6  0  0  0
 26 28  1  0  0  0  0
 26 25  1  0  0  0  0
 27 29  1  0  0  0  0
 28 23  1  6  0  0  0
 28 27  1  0  0  0  0
 29 24  1  0  0  0  0
 30 23  1  0  0  0  0
 31 30  1  0  0  0  0
 31 22  1  0  0  0  0
 32 34  2  0  0  0  0
 33 32  2  0  0  0  0
M  END
>  <MODEL>
5

>  <REMARK>
 VINA RESULT:      -8.1      1.933      6.722
  Name = 
  9 active torsions:
  status: ('A' for Active; 'I' for Inactive)
    1  A    between atoms: C_1  and  O_9
    2  A    between atoms: C_1  and  C_20
    3  A    between atoms: C_3  and  C_24
    4  A    between atoms: C_7  and  N_11
    5  A    between atoms: C_8  and  C_10
    6  A    between atoms: C_8  and  O_17
    7  A    between atoms: O_9  and  C_34
    8  A    between atoms: O_17  and  C_18
    9  A    between atoms: C_18  and  N_30
                            x       y       z     vdW  Elec       q    Type
                         _______ _______ _______ _____ _____    ______ ____

>  <TORSDO>
F 9

$$$$
=
 OpenBabel10272415113D

 34 37  0  0  1  0  0  0  0  0999 V2000
  191.6070  176.3320  144.6680 N   0  0  0  0  0  1  0  0  0  0  0  0
  188.6320  177.4300  145.9650 C   0  0  0  0  0  0  0  0  0  0  0  0
  189.3240  177.1210  147.0040 N   0  0  0  0  0  0  0  0  0  0  0  0
  190.8940  177.4220  145.3200 C   0  0  1  0  0  3  0  0  0  0  0  0
  189.4760  177.6510  144.7490 C   0  0  1  0  0  3  0  0  0  0  0  0
  190.6540  177.0880  146.6770 O   0  0  0  0  0  0  0  0  0  0  0  0
  189.0900  176.6670  143.6450 C   0  0  0  0  0  2  0  0  0  0  0  0
  188.2750  177.3010  142.6880 O   0  0  0  0  0  0  0  0  0  0  0  0
  188.9820  178.6000  139.2340 C   0  0  0  0  0  2  0  0  0  0  0  0
  191.4250  175.8190  138.4780 C   0  0  0  0  0  3  0  0  0  0  0  0
  189.7510  177.6460  138.3230 C   0  0  0  0  0  2  0  0  0  0  0  0
  190.8600  176.9050  139.0160 C   0  0  0  0  0  0  0  0  0  0  0  0
  191.2900  177.2890  140.3970 C   0  0  0  0  0  2  0  0  0  0  0  0
  188.2240  177.8280  140.3030 C   0  0  0  0  0  2  0  0  0  0  0  0
  190.3020  176.7480  141.4200 C   0  0  0  0  0  2  0  0  0  0  0  0
  189.0690  177.6530  141.5720 C   0  0  2  0  0  3  0  0  0  0  0  0
  190.7140  174.0380  137.0340 O   0  0  0  0  0  0  0  0  0  0  0  0
  191.1170  175.2270  137.1650 C   0  0  0  0  0  3  0  0  0  0  0  0
  187.1520  177.6170  146.0230 C   0  0  0  0  0  2  0  0  0  0  0  0
  186.7800  178.6540  145.1660 O   0  0  0  0  0  0  0  0  0  0  0  0
  185.5460  179.1160  145.6500 C   0  0  0  0  0  2  0  0  0  0  0  0
  182.3440  179.0300  143.7150 C   0  0  0  0  0  2  0  0  0  0  0  0
  185.1440  178.8330  143.3310 C   0  0  0  0  0  2  0  0  0  0  0  0
  182.7300  179.2040  139.9620 C   0  0  1  0  0  3  0  0  0  0  0  0
  182.0030  178.8590  141.2650 C   0  0  0  0  0  2  0  0  0  0  0  0
  182.9660  178.5340  142.4120 C   0  0  1  0  0  3  0  0  0  0  0  0
  184.9370  178.5590  141.0260 C   0  0  0  0  0  2  0  0  0  0  0  0
  184.2820  179.1600  142.1960 N   0  0  2  0  0  0  0  0  0  0  0  0
  184.0120  178.3910  139.8150 C   0  0  0  0  0  2  0  0  0  0  0  0
  184.6100  179.4120  144.5620 N   0  0  0  0  0  0  0  0  0  0  0  0
  183.3150  178.7890  144.8620 C   0  0  0  0  0  2  0  0  0  0  0  0
  181.8570  178.9770  138.8210 N   0  0  0  0  0  0  0  0  0  0  0  0
  182.3670  178.4670  137.6510 O   0  0  0  0  0  0  0  0  0  0  0  0
  180.6830  179.3930  138.8540 O   0  0  0  0  0  0  0  0  0  0  0  0
  2 19  1  0  0  0  0
  2  3  2  0  0  0  0
  4  1  1  6  0  0  0
  4  6  1  0  0  0  0
  5  7  1  6  0  0  0
  5  4  1  0  0  0  0
  5  2  1  0  0  0  0
  6  3  1  0  0  0  0
  8  7  1  0  0  0  0
  9 14  1  0  0  0  0
 10 12  2  0  0  0  0
 11 12  1  0  0  0  0
 11  9  1  0  0  0  0
 12 13  1  0  0  0  0
 13 15  1  0  0  0  0
 14 16  1  0  0  0  0
 15 16  1  0  0  0  0
 16  8  1  1  0  0  0
 17 18  2  0  0  0  0
 18 10  1  0  0  0  0
 20 21  1  0  0  0  0
 20 19  1  0  0  0  0
 22 31  1  0  0  0  0
 23 30  1  0  0  0  0
 24 32  1  6  0  0  0
 24 25  1  0  0  0  0
 26 25  1  6  0  0  0
 26 22  1  0  0  0  0
 28 27  1  6  0  0  0
 28 26  1  0  0  0  0
 28 23  1  0  0  0  0
 29 24  1  0  0  0  0
 29 27  1  0  0  0  0
 30 31  1  0  0  0  0
 30 21  1  0  0  0  0
 32 34  2  0  0  0  0
 33 32  2  0  0  0  0
M  END
>  <MODEL>
6

>  <REMARK>
 VINA RESULT:      -7.7      2.529      6.516
  Name = 
  9 active torsions:
  status: ('A' for Active; 'I' for Inactive)
    1  A    between atoms: C_1  and  O_9
    2  A    between atoms: C_1  and  C_20
    3  A    between atoms: C_3  and  C_24
    4  A    between atoms: C_7  and  N_11
    5  A    between atoms: C_8  and  C_10
    6  A    between atoms: C_8  and  O_17
    7  A    between atoms: O_9  and  C_34
    8  A    between atoms: O_17  and  C_18
    9  A    between atoms: C_18  and  N_30
                            x       y       z     vdW  Elec       q    Type
                         _______ _______ _______ _____ _____    ______ ____

>  <TORSDO>
F 9

$$$$
=
 OpenBabel10272415113D

 34 37  0  0  1  0  0  0  0  0999 V2000
  187.2270  176.6320  135.0650 N   0  0  0  0  0  1  0  0  0  0  0  0
  188.8460  177.9820  137.7660 C   0  0  0  0  0  0  0  0  0  0  0  0
  189.7410  177.2450  137.2100 N   0  0  0  0  0  0  0  0  0  0  0  0
  188.1750  177.6320  135.5400 C   0  0  1  0  0  3  0  0  0  0  0  0
  187.7220  178.3310  136.8420 C   0  0  1  0  0  3  0  0  0  0  0  0
  189.3880  176.9980  135.9090 O   0  0  0  0  0  0  0  0  0  0  0  0
  186.3960  177.8100  137.3920 C   0  0  0  0  0  2  0  0  0  0  0  0
  185.7580  178.8070  138.1560 O   0  0  0  0  0  0  0  0  0  0  0  0
  182.7810  176.7780  139.2210 C   0  0  0  0  0  2  0  0  0  0  0  0
  181.8630  179.2080  141.9640 C   0  0  0  0  0  3  0  0  0  0  0  0
  181.8250  177.4780  140.1840 C   0  0  0  0  0  2  0  0  0  0  0  0
  182.5160  178.2900  141.2440 C   0  0  0  0  0  0  0  0  0  0  0  0
  183.9940  178.1830  141.4480 C   0  0  0  0  0  2  0  0  0  0  0  0
  183.5470  177.7950  138.3900 C   0  0  0  0  0  2  0  0  0  0  0  0
  184.7270  178.9760  140.3760 C   0  0  0  0  0  2  0  0  0  0  0  0
  184.8690  178.1890  139.0640 C   0  0  2  0  0  3  0  0  0  0  0  0
  179.9820  180.6970  142.0470 O   0  0  0  0  0  0  0  0  0  0  0  0
  180.4270  179.5270  141.8890 C   0  0  0  0  0  3  0  0  0  0  0  0
  188.9870  178.4810  139.1670 C   0  0  0  0  0  2  0  0  0  0  0  0
  188.9760  177.3990  140.0490 O   0  0  0  0  0  0  0  0  0  0  0  0
  190.2890  177.3000  140.5360 C   0  0  0  0  0  2  0  0  0  0  0  0
  191.3740  176.9980  144.1050 C   0  0  0  0  0  2  0  0  0  0  0  0
  189.0440  177.4210  142.5500 C   0  0  0  0  0  2  0  0  0  0  0  0
  188.7810  178.0000  146.6630 C   0  0  1  0  0  3  0  0  0  0  0  0
  190.0330  177.2650  146.1740 C   0  0  0  0  0  2  0  0  0  0  0  0
  189.9650  176.9050  144.6860 C   0  0  1  0  0  3  0  0  0  0  0  0
  187.6680  177.5860  144.4240 C   0  0  0  0  0  2  0  0  0  0  0  0
  189.0460  177.8010  143.9620 N   0  0  2  0  0  0  0  0  0  0  0  0
  187.5320  177.4930  145.9480 C   0  0  0  0  0  2  0  0  0  0  0  0
  190.3670  177.6260  141.9630 N   0  0  0  0  0  0  0  0  0  0  0  0
  191.3220  176.7200  142.6090 C   0  0  0  0  0  2  0  0  0  0  0  0
  188.6340  177.8460  148.1010 N   0  0  0  0  0  0  0  0  0  0  0  0
  189.5430  178.4260  148.9540 O   0  0  0  0  0  0  0  0  0  0  0  0
  187.7790  177.0590  148.5510 O   0  0  0  0  0  0  0  0  0  0  0  0
  2 19  1  0  0  0  0
  3  2  2  0  0  0  0
  4  1  1  1  0  0  0
  4  6  1  0  0  0  0
  4  5  1  0  0  0  0
  5  7  1  1  0  0  0
  5  2  1  0  0  0  0
  6  3  1  0  0  0  0
  7  8  1  0  0  0  0
  9 11  1  0  0  0  0
 11 12  1  0  0  0  0
 12 13  1  0  0  0  0
 12 10  2  0  0  0  0
 14 16  1  0  0  0  0
 14  9  1  0  0  0  0
 15 13  1  0  0  0  0
 16  8  1  6  0  0  0
 16 15  1  0  0  0  0
 18 10  1  0  0  0  0
 18 17  2  0  0  0  0
 19 20  1  0  0  0  0
 20 21  1  0  0  0  0
 21 30  1  0  0  0  0
 24 32  1  1  0  0  0
 25 24  1  0  0  0  0
 26 22  1  6  0  0  0
 26 25  1  0  0  0  0
 27 29  1  0  0  0  0
 28 23  1  6  0  0  0
 28 27  1  0  0  0  0
 28 26  1  0  0  0  0
 29 24  1  0  0  0  0
 30 23  1  0  0  0  0
 30 31  1  0  0  0  0
 31 22  1  0  0  0  0
 32 34  2  0  0  0  0
 32 33  2  0  0  0  0
M  END
>  <MODEL>
7

>  <REMARK>
 VINA RESULT:      -7.6      2.646      8.980
  Name = 
  9 active torsions:
  status: ('A' for Active; 'I' for Inactive)
    1  A    between atoms: C_1  and  O_9
    2  A    between atoms: C_1  and  C_20
    3  A    between atoms: C_3  and  C_24
    4  A    between atoms: C_7  and  N_11
    5  A    between atoms: C_8  and  C_10
    6  A    between atoms: C_8  and  O_17
    7  A    between atoms: O_9  and  C_34
    8  A    between atoms: O_17  and  C_18
    9  A    between atoms: C_18  and  N_30
                            x       y       z     vdW  Elec       q    Type
                         _______ _______ _______ _____ _____    ______ ____

>  <TORSDO>
F 9

$$$$
=
 OpenBabel10272415113D

 34 37  0  0  1  0  0  0  0  0999 V2000
  190.7200  176.8080  147.0040 N   0  0  0  0  0  1  0  0  0  0  0  0
  190.4280  177.8880  143.7660 C   0  0  0  0  0  0  0  0  0  0  0  0
  191.5570  178.3710  144.1490 N   0  0  0  0  0  0  0  0  0  0  0  0
  191.1330  176.6240  145.6190 C   0  0  1  0  0  3  0  0  0  0  0  0
  189.9660  176.7450  144.6130 C   0  0  1  0  0  3  0  0  0  0  0  0
  192.0060  177.6750  145.2410 O   0  0  0  0  0  0  0  0  0  0  0  0
  188.6220  177.0710  145.2650 C   0  0  0  0  0  2  0  0  0  0  0  0
  187.5640  176.7060  144.4100 O   0  0  0  0  0  0  0  0  0  0  0  0
  184.9820  179.1320  145.6590 C   0  0  0  0  0  2  0  0  0  0  0  0
  182.8670  178.7810  142.5490 C   0  0  0  0  0  3  0  0  0  0  0  0
  183.6790  179.1670  144.8620 C   0  0  0  0  0  2  0  0  0  0  0  0
  183.8750  179.0800  143.3740 C   0  0  0  0  0  0  0  0  0  0  0  0
  185.2390  179.2070  142.7730 C   0  0  0  0  0  2  0  0  0  0  0  0
  185.6670  177.7830  145.5100 C   0  0  0  0  0  2  0  0  0  0  0  0
  186.0050  177.9030  142.9400 C   0  0  0  0  0  2  0  0  0  0  0  0
  186.6500  177.7810  144.3300 C   0  0  2  0  0  3  0  0  0  0  0  0
  180.6620  179.4980  143.1720 O   0  0  0  0  0  0  0  0  0  0  0  0
  181.4600  178.5530  142.9230 C   0  0  0  0  0  3  0  0  0  0  0  0
  189.7200  178.3920  142.5510 C   0  0  0  0  0  2  0  0  0  0  0  0
  189.4430  177.3220  141.6980 O   0  0  0  0  0  0  0  0  0  0  0  0
  188.7140  177.8730  140.6310 C   0  0  0  0  0  2  0  0  0  0  0  0
  189.3450  176.6530  137.1500 C   0  0  0  0  0  2  0  0  0  0  0  0
  190.6890  177.0490  139.6120 C   0  0  0  0  0  2  0  0  0  0  0  0
  192.9810  176.1640  136.2520 C   0  0  1  0  0  3  0  0  0  0  0  0
  191.4750  175.9230  136.1120 C   0  0  0  0  0  2  0  0  0  0  0  0
  190.7250  176.0690  137.4400 C   0  0  1  0  0  3  0  0  0  0  0  0
  192.7230  176.2820  138.7700 C   0  0  0  0  0  2  0  0  0  0  0  0
  191.4650  176.9320  138.3770 N   0  0  2  0  0  0  0  0  0  0  0  0
  193.4940  175.6640  137.5990 C   0  0  0  0  0  2  0  0  0  0  0  0
  189.4160  177.7180  139.3540 N   0  0  0  0  0  0  0  0  0  0  0  0
  188.6070  176.8800  138.4620 C   0  0  0  0  0  2  0  0  0  0  0  0
  193.7000  175.5160  135.1670 N   0  0  0  0  0  0  0  0  0  0  0  0
  193.1190  174.4800  134.4750 O   0  0  0  0  0  0  0  0  0  0  0  0
  194.8990  175.7950  134.9720 O   0  0  0  0  0  0  0  0  0  0  0  0
  2  3  2  0  0  0  0
  2  5  1  0  0  0  0
  3  6  1  0  0  0  0
  4  1  1  1  0  0  0
  5  7  1  1  0  0  0
  5  4  1  0  0  0  0
  6  4  1  0  0  0  0
  8  7  1  0  0  0  0
 10 18  1  0  0  0  0
 10 12  2  0  0  0  0
 11  9  1  0  0  0  0
 12 11  1  0  0  0  0
 13 15  1  0  0  0  0
 13 12  1  0  0  0  0
 14  9  1  0  0  0  0
 15 16  1  0  0  0  0
 16  8  1  6  0  0  0
 16 14  1  0  0  0  0
 18 17  2  0  0  0  0
 19  2  1  0  0  0  0
 20 19  1  0  0  0  0
 21 20  1  0  0  0  0
 22 26  1  0  0  0  0
 22 31  1  0  0  0  0
 24 32  1  6  0  0  0
 24 29  1  0  0  0  0
 25 24  1  0  0  0  0
 26 25  1  6  0  0  0
 26 28  1  0  0  0  0
 28 27  1  1  0  0  0
 28 23  1  0  0  0  0
 29 27  1  0  0  0  0
 30 23  1  0  0  0  0
 30 21  1  0  0  0  0
 31 30  1  0  0  0  0
 33 32  2  0  0  0  0
 34 32  2  0  0  0  0
M  END
>  <MODEL>
8

>  <REMARK>
 VINA RESULT:      -7.5      2.734      5.915
  Name = 
  9 active torsions:
  status: ('A' for Active; 'I' for Inactive)
    1  A    between atoms: C_1  and  O_9
    2  A    between atoms: C_1  and  C_20
    3  A    between atoms: C_3  and  C_24
    4  A    between atoms: C_7  and  N_11
    5  A    between atoms: C_8  and  C_10
    6  A    between atoms: C_8  and  O_17
    7  A    between atoms: O_9  and  C_34
    8  A    between atoms: O_17  and  C_18
    9  A    between atoms: C_18  and  N_30
                            x       y       z     vdW  Elec       q    Type
                         _______ _______ _______ _____ _____    ______ ____

>  <TORSDO>
F 9

$$$$
=
 OpenBabel10272415113D

 34 37  0  0  1  0  0  0  0  0999 V2000
  180.9150  176.9050  138.4640 N   0  0  0  0  0  1  0  0  0  0  0  0
  183.0520  178.1930  140.8120 C   0  0  0  0  0  0  0  0  0  0  0  0
  181.8870  178.5280  141.2420 N   0  0  0  0  0  0  0  0  0  0  0  0
  181.4940  176.7570  139.7920 C   0  0  1  0  0  3  0  0  0  0  0  0
  183.0090  177.0600  139.8350 C   0  0  1  0  0  3  0  0  0  0  0  0
  180.9370  177.7270  140.6640 O   0  0  0  0  0  0  0  0  0  0  0  0
  183.5880  177.4930  138.4890 C   0  0  0  0  0  2  0  0  0  0  0  0
  184.1470  176.3860  137.8200 O   0  0  0  0  0  0  0  0  0  0  0  0
  187.2310  176.0010  135.7110 C   0  0  0  0  0  2  0  0  0  0  0  0
  189.4220  177.7330  138.2540 C   0  0  0  0  0  3  0  0  0  0  0  0
  188.5490  176.3080  136.4190 C   0  0  0  0  0  2  0  0  0  0  0  0
  188.4860  177.5040  137.3290 C   0  0  0  0  0  0  0  0  0  0  0  0
  187.3010  178.4180  137.3100 C   0  0  0  0  0  2  0  0  0  0  0  0
  186.1690  175.5780  136.7120 C   0  0  0  0  0  2  0  0  0  0  0  0
  186.1450  177.7880  138.0720 C   0  0  0  0  0  2  0  0  0  0  0  0
  185.3600  176.7830  137.2140 C   0  0  2  0  0  3  0  0  0  0  0  0
  190.6030  175.7850  139.0120 O   0  0  0  0  0  0  0  0  0  0  0  0
  190.6370  176.9350  138.4940 C   0  0  0  0  0  3  0  0  0  0  0  0
  184.3000  178.8390  141.3170 C   0  0  0  0  0  2  0  0  0  0  0  0
  184.9920  177.9400  142.1300 O   0  0  0  0  0  0  0  0  0  0  0  0
  184.8230  178.4130  143.4410 C   0  0  0  0  0  2  0  0  0  0  0  0
  186.8150  178.0080  146.5830 C   0  0  0  0  0  2  0  0  0  0  0  0
  187.1240  177.9490  143.7670 C   0  0  0  0  0  2  0  0  0  0  0  0
  190.2940  176.6140  146.1110 C   0  0  1  0  0  3  0  0  0  0  0  0
  189.2020  177.3930  146.8510 C   0  0  0  0  0  2  0  0  0  0  0  0
  188.1810  178.0290  145.9010 C   0  0  1  0  0  3  0  0  0  0  0  0
  189.4020  177.4720  143.9000 C   0  0  0  0  0  2  0  0  0  0  0  0
  188.1290  177.3100  144.6160 N   0  0  2  0  0  0  0  0  0  0  0  0
  190.6400  177.2800  144.7830 C   0  0  0  0  0  2  0  0  0  0  0  0
  185.7960  177.8230  144.3640 N   0  0  0  0  0  0  0  0  0  0  0  0
  185.7670  178.5650  145.6290 C   0  0  0  0  0  2  0  0  0  0  0  0
  191.4820  176.4980  146.9400 N   0  0  0  0  0  0  0  0  0  0  0  0
  192.3510  175.4480  146.7600 O   0  0  0  0  0  0  0  0  0  0  0  0
  191.6270  177.2590  147.9160 O   0  0  0  0  0  0  0  0  0  0  0  0
  2  3  2  0  0  0  0
  2 19  1  0  0  0  0
  4  1  1  6  0  0  0
  4  5  1  0  0  0  0
  4  6  1  0  0  0  0
  5  7  1  6  0  0  0
  5  2  1  0  0  0  0
  6  3  1  0  0  0  0
  8  7  1  0  0  0  0
  9 11  1  0  0  0  0
  9 14  1  0  0  0  0
 10 18  1  0  0  0  0
 11 12  1  0  0  0  0
 12 10  2  0  0  0  0
 13 12  1  0  0  0  0
 13 15  1  0  0  0  0
 14 16  1  0  0  0  0
 16  8  1  1  0  0  0
 16 15  1  0  0  0  0
 18 17  2  0  0  0  0
 19 20  1  0  0  0  0
 20 21  1  0  0  0  0
 21 30  1  0  0  0  0
 23 30  1  0  0  0  0
 24 25  1  0  0  0  0
 24 32  1  1  0  0  0
 26 22  1  1  0  0  0
 26 25  1  0  0  0  0
 27 28  1  0  0  0  0
 27 29  1  0  0  0  0
 28 23  1  6  0  0  0
 28 26  1  0  0  0  0
 29 24  1  0  0  0  0
 30 31  1  0  0  0  0
 31 22  1  0  0  0  0
 32 34  2  0  0  0  0
 33 32  2  0  0  0  0
M  END
>  <MODEL>
9

>  <REMARK>
 VINA RESULT:      -7.5      2.540      7.388
  Name = 
  9 active torsions:
  status: ('A' for Active; 'I' for Inactive)
    1  A    between atoms: C_1  and  O_9
    2  A    between atoms: C_1  and  C_20
    3  A    between atoms: C_3  and  C_24
    4  A    between atoms: C_7  and  N_11
    5  A    between atoms: C_8  and  C_10
    6  A    between atoms: C_8  and  O_17
    7  A    between atoms: O_9  and  C_34
    8  A    between atoms: O_17  and  C_18
    9  A    between atoms: C_18  and  N_30
                            x       y       z     vdW  Elec       q    Type
                         _______ _______ _______ _____ _____    ______ ____

>  <TORSDO>
F 9

$$$$
