=
 OpenBabel10262423553D

 34 39  0  0  1  0  0  0  0  0999 V2000
  184.2440  178.6040  144.9370 C   0  0  0  0  0  0  0  0  0  0  0  0
  186.6290  178.0830  144.6680 C   0  0  0  0  0  0  0  0  0  0  0  0
  185.2010  178.4470  142.7350 N   0  0  0  0  0  0  0  0  0  0  0  0
  186.2970  178.3440  140.6080 C   0  0  0  0  0  0  0  0  0  0  0  0
  185.6480  178.2420  146.8840 C   0  0  0  0  0  3  0  0  0  0  0  0
  186.7690  178.0190  146.0590 C   0  0  0  0  0  3  0  0  0  0  0  0
  187.4690  177.9540  142.4660 C   0  0  0  0  0  0  0  0  0  0  0  0
  185.3530  178.3700  144.1400 C   0  0  2  0  0  3  0  0  0  0  0  0
  187.7140  178.1380  140.1450 C   0  0  0  0  0  3  0  0  0  0  0  0
  184.3870  178.5360  146.3270 C   0  0  0  0  0  3  0  0  0  0  0  0
  182.9440  178.9900  142.9940 N   0  0  0  0  0  0  0  0  0  0  0  0
  183.0570  178.9040  144.3310 N   0  0  0  0  0  0  0  0  0  0  0  0
  187.6910  177.8880  143.8140 N   0  0  0  0  0  0  0  0  0  0  0  0
  185.1740  178.6860  139.9680 C   0  0  0  0  0  3  0  0  0  0  0  0
  183.9330  178.8900  140.8090 C   0  0  0  0  0  0  0  0  0  0  0  0
  188.4290  177.8470  141.4160 N   0  0  0  0  0  0  0  0  0  0  0  0
  186.2610  178.2110  141.9910 N   0  0  0  0  0  0  0  0  0  0  0  0
  184.0120  178.7750  142.1690 C   0  0  0  0  0  0  0  0  0  0  0  0
  182.1880  177.3510  137.6440 C   0  0  0  0  0  3  0  0  0  0  0  0
  181.9650  178.6250  137.0960 O   0  0  0  0  0  0  0  0  0  0  0  0
  182.6290  179.2270  140.1470 C   0  0  2  0  0  3  0  0  0  0  0  0
  181.7150  179.8070  137.8530 C   0  0  0  0  0  2  0  0  0  0  0  0
  181.7060  178.0060  140.0210 C   0  0  0  0  0  2  0  0  0  0  0  0
  182.8360  180.0330  138.8590 C   0  0  0  0  0  2  0  0  0  0  0  0
  182.1040  177.0440  138.9420 C   0  0  0  0  0  3  0  0  0  0  0  0
  189.8620  178.0000  141.6120 C   0  0  0  0  0  2  0  0  0  0  0  0
  190.5050  176.6490  141.8770 C   0  0  0  0  0  2  0  0  0  0  0  0
  191.6140  176.7880  142.9000 C   0  0  0  0  0  2  0  0  0  0  0  0
  191.3600  175.9060  144.0270 N   0  0  0  0  0  2  0  0  0  0  0  0
  189.9130  176.9830  145.9940 O   0  0  0  0  0  1  0  0  0  0  0  0
  191.8710  178.4600  145.0960 O   0  0  0  0  0  0  0  0  0  0  0  0
  191.3300  176.9000  145.4720 P   0  0  2  0  0  0  0  0  0  0  0  0
  192.0020  176.8500  147.7750 O   0  0  0  0  0  1  0  0  0  0  0  0
  192.3340  176.2310  146.6620 O   0  0  0  0  0  0  0  0  0  0  0  0
  1 10  1  0  0  0  0
  2  6  2  0  0  0  0
  3  8  1  0  0  0  0
  4 17  1  0  0  0  0
  6  5  1  0  0  0  0
  7 13  2  0  0  0  0
  8  2  1  1  0  0  0
  8  1  1  0  0  0  0
  9  4  2  0  0  0  0
  9 16  1  0  0  0  0
 10  5  2  0  0  0  0
 11 12  1  0  0  0  0
 12  1  2  0  0  0  0
 13  2  1  0  0  0  0
 14  4  1  0  0  0  0
 14 15  2  0  0  0  0
 15 18  1  0  0  0  0
 16 26  1  0  0  0  0
 16  7  1  0  0  0  0
 17  7  1  0  0  0  0
 17  3  1  0  0  0  0
 18  3  1  0  0  0  0
 18 11  2  0  0  0  0
 19 25  2  0  0  0  0
 20 19  1  0  0  0  0
 20 22  1  0  0  0  0
 21 15  1  6  0  0  0
 22 24  1  0  0  0  0
 23 21  1  0  0  0  0
 24 21  1  0  0  0  0
 25 23  1  0  0  0  0
 26 27  1  0  0  0  0
 27 28  1  0  0  0  0
 28 29  1  0  0  0  0
 29 32  1  0  0  0  0
 32 31  2  6  0  0  0
 32 30  1  0  0  0  0
 32 34  1  0  0  0  0
 34 33  1  0  0  0  0
M  END
>  <MODEL>
1

>  <REMARK>
 VINA RESULT:      -8.3      0.000      0.000
  Name = 
  7 active torsions:
  status: ('A' for Active; 'I' for Inactive)
    1  A    between atoms: C_3  and  C_13
    2  A    between atoms: C_3  and  C_17
    3  A    between atoms: C_12  and  C_28
    4  A    between atoms: C_13  and  N_33
    5  A    between atoms: O_14  and  P_34
    6  A    between atoms: C_17  and  N_29
    7  A    between atoms: N_33  and  P_34
                            x       y       z     vdW  Elec       q    Type
                         _______ _______ _______ _____ _____    ______ ____

>  <TORSDO>
F 7

$$$$
=
 OpenBabel10262423553D

 34 39  0  0  1  0  0  0  0  0999 V2000
  188.2040  178.0940  140.4500 C   0  0  0  0  0  0  0  0  0  0  0  0
  188.8950  177.7420  142.7800 C   0  0  0  0  0  0  0  0  0  0  0  0
  186.6090  178.3590  142.2320 N   0  0  0  0  0  0  0  0  0  0  0  0
  185.1060  178.5050  144.0910 C   0  0  0  0  0  0  0  0  0  0  0  0
  190.4950  177.4830  140.9700 C   0  0  0  0  0  3  0  0  0  0  0  0
  190.1930  177.4480  142.3470 C   0  0  0  0  0  3  0  0  0  0  0  0
  187.2540  178.0240  144.4530 C   0  0  0  0  0  0  0  0  0  0  0  0
  187.9270  178.0690  141.8070 C   0  0  0  0  0  0  0  0  0  0  0  0
  185.2140  178.2680  145.5730 C   0  0  0  0  0  3  0  0  0  0  0  0
  189.5020  177.8030  140.0210 C   0  0  0  0  0  2  0  0  0  0  0  0
  185.9400  178.6460  140.0120 N   0  0  0  0  0  0  0  0  0  0  0  0
  187.1900  178.3940  139.5840 N   0  0  0  0  0  0  0  0  0  0  0  0
  188.5410  177.7100  144.1100 N   0  0  0  0  0  0  0  0  0  0  0  0
  184.0680  178.7500  143.2840 C   0  0  0  0  0  3  0  0  0  0  0  0
  184.3520  178.8430  141.8020 C   0  0  0  0  0  0  0  0  0  0  0  0
  186.6640  177.9920  145.7510 N   0  0  0  0  0  0  0  0  0  0  0  0
  186.3650  178.3400  143.5250 N   0  0  0  0  0  0  0  0  0  0  0  0
  185.6200  178.6230  141.3410 C   0  0  0  0  0  0  0  0  0  0  0  0
  183.0020  176.8800  138.6780 C   0  0  0  0  0  3  0  0  0  0  0  0
  183.0450  178.0360  137.8810 O   0  0  0  0  0  0  0  0  0  0  0  0
  183.2390  179.1630  140.8470 C   0  0  2  0  0  3  0  0  0  0  0  0
  182.8220  179.3620  138.3540 C   0  0  0  0  0  2  0  0  0  0  0  0
  182.2010  178.0350  140.7610 C   0  0  0  0  0  2  0  0  0  0  0  0
  183.7700  179.6750  139.5040 C   0  0  0  0  0  2  0  0  0  0  0  0
  182.6540  176.8450  139.9680 C   0  0  0  0  0  3  0  0  0  0  0  0
  187.2380  177.2820  146.8840 C   0  0  0  0  0  2  0  0  0  0  0  0
  187.8960  178.2610  147.8410 C   0  0  0  0  0  2  0  0  0  0  0  0
  189.3880  178.0060  147.9070 C   0  0  0  0  0  2  0  0  0  0  0  0
  189.6810  176.6610  147.4400 N   0  0  0  0  0  2  0  0  0  0  0  0
  191.8110  175.0550  147.4900 O   0  0  0  0  0  0  0  0  0  0  0  0
  192.1390  177.3970  148.5970 O   0  0  0  0  0  1  0  0  0  0  0  0
  191.4260  176.5100  147.3450 P   0  0  2  0  0  0  0  0  0  0  0  0
  191.6510  176.1710  144.9790 O   0  0  0  0  0  1  0  0  0  0  0  0
  191.9820  177.0960  145.8550 O   0  0  0  0  0  0  0  0  0  0  0  0
  1  8  1  0  0  0  0
  2 13  1  0  0  0  0
  3 17  1  0  0  0  0
  4  9  2  0  0  0  0
  5  6  2  0  0  0  0
  6  2  1  0  0  0  0
  7 16  1  0  0  0  0
  8  3  1  0  0  0  0
  8  2  2  0  0  0  0
  9 16  1  0  0  0  0
 10  1  1  0  0  0  0
 10  5  1  0  0  0  0
 11 18  2  0  0  0  0
 12 11  1  0  0  0  0
 12  1  2  0  0  0  0
 13  7  2  0  0  0  0
 14  4  1  0  0  0  0
 15 14  2  0  0  0  0
 16 26  1  0  0  0  0
 17  4  1  0  0  0  0
 17  7  1  0  0  0  0
 18 15  1  0  0  0  0
 18  3  1  0  0  0  0
 19 25  2  0  0  0  0
 20 22  1  0  0  0  0
 20 19  1  0  0  0  0
 21 15  1  1  0  0  0
 22 24  1  0  0  0  0
 23 21  1  0  0  0  0
 24 21  1  0  0  0  0
 25 23  1  0  0  0  0
 26 27  1  0  0  0  0
 27 28  1  0  0  0  0
 29 28  1  0  0  0  0
 32 29  1  0  0  0  0
 32 30  2  1  0  0  0
 32 31  1  0  0  0  0
 33 34  1  0  0  0  0
 34 32  1  0  0  0  0
M  END
>  <MODEL>
2

>  <REMARK>
 VINA RESULT:      -8.1      1.544      3.975
  Name = 
  7 active torsions:
  status: ('A' for Active; 'I' for Inactive)
    1  A    between atoms: C_3  and  C_13
    2  A    between atoms: C_3  and  C_17
    3  A    between atoms: C_12  and  C_28
    4  A    between atoms: C_13  and  N_33
    5  A    between atoms: O_14  and  P_34
    6  A    between atoms: C_17  and  N_29
    7  A    between atoms: N_33  and  P_34
                            x       y       z     vdW  Elec       q    Type
                         _______ _______ _______ _____ _____    ______ ____

>  <TORSDO>
F 7

$$$$
=
 OpenBabel10262423553D

 34 39  0  0  1  0  0  0  0  0999 V2000
  186.8460  178.1640  138.6290 C   0  0  0  0  0  0  0  0  0  0  0  0
  188.5630  177.4260  137.0350 C   0  0  0  0  0  0  0  0  0  0  0  0
  189.0930  177.7520  139.3850 N   0  0  0  0  0  0  0  0  0  0  0  0
  191.3410  177.2260  140.0190 C   0  0  0  0  0  0  0  0  0  0  0  0
  186.2910  177.8500  136.2870 C   0  0  0  0  0  3  0  0  0  0  0  0
  187.6170  177.4600  136.0050 C   0  0  0  0  0  3  0  0  0  0  0  0
  190.7340  177.0470  137.8790 C   0  0  0  0  0  0  0  0  0  0  0  0
  188.1470  177.7910  138.3330 C   0  0  0  0  0  0  0  0  0  0  0  0
  192.5540  176.6870  139.3080 C   0  0  0  0  0  3  0  0  0  0  0  0
  185.9040  178.2000  137.5960 C   0  0  0  0  0  2  0  0  0  0  0  0
  187.4470  178.4070  140.9090 N   0  0  0  0  0  0  0  0  0  0  0  0
  186.5350  178.4720  139.9230 N   0  0  0  0  0  0  0  0  0  0  0  0
  189.8670  177.0400  136.8220 N   0  0  0  0  0  0  0  0  0  0  0  0
  191.0770  177.4640  141.3080 C   0  0  0  0  0  3  0  0  0  0  0  0
  189.6790  177.9300  141.6510 C   0  0  0  0  0  0  0  0  0  0  0  0
  192.0980  176.6280  137.8940 N   0  0  0  0  0  0  0  0  0  0  0  0
  190.3270  177.4060  139.0860 N   0  0  0  0  0  0  0  0  0  0  0  0
  188.7400  178.0370  140.6650 C   0  0  0  0  0  0  0  0  0  0  0  0
  191.5610  177.1330  145.0070 C   0  0  0  0  0  3  0  0  0  0  0  0
  190.3860  176.6380  145.5960 O   0  0  0  0  0  0  0  0  0  0  0  0
  189.3320  178.2610  143.0740 C   0  0  2  0  0  3  0  0  0  0  0  0
  189.0700  177.1150  145.3210 C   0  0  0  0  0  2  0  0  0  0  0  0
  190.4550  179.0300  143.7850 C   0  0  0  0  0  2  0  0  0  0  0  0
  188.7880  177.0420  143.8260 C   0  0  0  0  0  2  0  0  0  0  0  0
  191.6260  178.1800  144.1780 C   0  0  0  0  0  3  0  0  0  0  0  0
  192.6980  175.7920  136.8650 C   0  0  0  0  0  2  0  0  0  0  0  0
  192.4920  174.3240  137.1940 C   0  0  0  0  0  2  0  0  0  0  0  0
  193.8150  173.5860  137.1500 C   0  0  0  0  0  2  0  0  0  0  0  0
  194.9120  174.5400  137.1390 N   0  0  0  0  0  2  0  0  0  0  0  0
  195.6180  172.7700  139.0060 O   0  0  0  0  0  0  0  0  0  0  0  0
  195.7020  175.2750  139.7380 O   0  0  0  0  0  1  0  0  0  0  0  0
  195.9530  174.1530  138.4960 P   0  0  2  0  0  0  0  0  0  0  0  0
  198.0330  175.3510  138.4710 O   0  0  0  0  0  1  0  0  0  0  0  0
  197.5790  174.2020  138.0170 O   0  0  0  0  0  0  0  0  0  0  0  0
  1 12  2  0  0  0  0
  2  8  2  0  0  0  0
  3 18  1  0  0  0  0
  4 14  1  0  0  0  0
  5 10  1  0  0  0  0
  6  5  2  0  0  0  0
  6  2  1  0  0  0  0
  7 16  1  0  0  0  0
  7 17  1  0  0  0  0
  8  1  1  0  0  0  0
  8  3  1  0  0  0  0
  9  4  2  0  0  0  0
 10  1  1  0  0  0  0
 12 11  1  0  0  0  0
 13  2  1  0  0  0  0
 13  7  2  0  0  0  0
 14 15  2  0  0  0  0
 16  9  1  0  0  0  0
 17  3  1  0  0  0  0
 17  4  1  0  0  0  0
 18 11  2  0  0  0  0
 18 15  1  0  0  0  0
 19 20  1  0  0  0  0
 21 15  1  6  0  0  0
 21 23  1  0  0  0  0
 21 24  1  0  0  0  0
 22 20  1  0  0  0  0
 23 25  1  0  0  0  0
 24 22  1  0  0  0  0
 25 19  2  0  0  0  0
 26 27  1  0  0  0  0
 26 16  1  0  0  0  0
 28 27  1  0  0  0  0
 29 28  1  0  0  0  0
 29 32  1  0  0  0  0
 32 30  2  1  0  0  0
 32 31  1  0  0  0  0
 34 33  1  0  0  0  0
 34 32  1  0  0  0  0
M  END
>  <MODEL>
3

>  <REMARK>
 VINA RESULT:      -8.0      4.731      8.042
  Name = 
  7 active torsions:
  status: ('A' for Active; 'I' for Inactive)
    1  A    between atoms: C_3  and  C_13
    2  A    between atoms: C_3  and  C_17
    3  A    between atoms: C_12  and  C_28
    4  A    between atoms: C_13  and  N_33
    5  A    between atoms: O_14  and  P_34
    6  A    between atoms: C_17  and  N_29
    7  A    between atoms: N_33  and  P_34
                            x       y       z     vdW  Elec       q    Type
                         _______ _______ _______ _____ _____    ______ ____

>  <TORSDO>
F 7

$$$$
=
 OpenBabel10262423553D

 34 39  0  0  1  0  0  0  0  0999 V2000
  190.8560  177.0950  144.4370 C   0  0  0  0  0  0  0  0  0  0  0  0
  188.7010  177.5030  145.5400 C   0  0  0  0  0  0  0  0  0  0  0  0
  188.9440  177.7590  143.1360 N   0  0  0  0  0  0  0  0  0  0  0  0
  186.9450  178.3410  141.9520 C   0  0  0  0  0  0  0  0  0  0  0  0
  190.6410  176.8350  146.8400 C   0  0  0  0  0  3  0  0  0  0  0  0
  189.2780  177.1890  146.7760 C   0  0  0  0  0  3  0  0  0  0  0  0
  186.8880  178.1480  144.1740 C   0  0  0  0  0  0  0  0  0  0  0  0
  189.5190  177.4530  144.3920 C   0  0  2  0  0  3  0  0  0  0  0  0
  185.5060  178.5630  142.3310 C   0  0  0  0  0  3  0  0  0  0  0  0
  191.4300  176.7850  145.6730 C   0  0  0  0  0  3  0  0  0  0  0  0
  190.9830  177.3240  142.0810 N   0  0  0  0  0  0  0  0  0  0  0  0
  191.5570  177.0480  143.2650 N   0  0  0  0  0  0  0  0  0  0  0  0
  187.3720  177.8410  145.4160 N   0  0  0  0  0  0  0  0  0  0  0  0
  187.5710  178.2580  140.7740 C   0  0  0  0  0  3  0  0  0  0  0  0
  189.0470  177.9270  140.7960 C   0  0  0  0  0  0  0  0  0  0  0  0
  185.5430  178.4600  143.8140 N   0  0  0  0  0  0  0  0  0  0  0  0
  187.6760  178.1080  143.1110 N   0  0  0  0  0  0  0  0  0  0  0  0
  189.6640  177.6740  141.9880 C   0  0  0  0  0  0  0  0  0  0  0  0
  187.9620  176.7640  137.2030 C   0  0  0  0  0  3  0  0  0  0  0  0
  189.0970  175.9470  137.0810 O   0  0  0  0  0  0  0  0  0  0  0  0
  189.8180  177.8660  139.5100 C   0  0  2  0  0  3  0  0  0  0  0  0
  190.3710  176.2250  137.6570 C   0  0  0  0  0  2  0  0  0  0  0  0
  189.1320  178.6500  138.3810 C   0  0  0  0  0  2  0  0  0  0  0  0
  190.2320  176.4330  139.1600 C   0  0  0  0  0  2  0  0  0  0  0  0
  187.9350  177.9620  137.7960 C   0  0  0  0  0  3  0  0  0  0  0  0
  184.3910  178.1620  144.6510 C   0  0  0  0  0  2  0  0  0  0  0  0
  183.3680  179.2810  144.5570 C   0  0  0  0  0  2  0  0  0  0  0  0
  182.0920  178.7710  143.9170 C   0  0  0  0  0  2  0  0  0  0  0  0
  181.6410  179.7090  142.9010 N   0  0  0  0  0  2  0  0  0  0  0  0
  179.9960  177.7180  142.2280 O   0  0  0  0  0  1  0  0  0  0  0  0
  182.0980  178.0080  140.7060 O   0  0  0  0  0  0  0  0  0  0  0  0
  180.8960  178.7710  141.6200 P   0  0  2  0  0  0  0  0  0  0  0  0
  179.9830  180.9530  141.2140 O   0  0  0  0  0  1  0  0  0  0  0  0
  179.9820  179.7820  140.6120 O   0  0  0  0  0  0  0  0  0  0  0  0
  1 10  1  0  0  0  0
  2  6  2  0  0  0  0
  3  8  1  0  0  0  0
  4  9  2  0  0  0  0
  4 17  1  0  0  0  0
  6  5  1  0  0  0  0
  7 13  2  0  0  0  0
  8  1  1  6  0  0  0
  8  2  1  0  0  0  0
  9 16  1  0  0  0  0
 10  5  2  0  0  0  0
 11 12  1  0  0  0  0
 12  1  2  0  0  0  0
 13  2  1  0  0  0  0
 14 15  2  0  0  0  0
 14  4  1  0  0  0  0
 15 18  1  0  0  0  0
 16  7  1  0  0  0  0
 16 26  1  0  0  0  0
 17  3  1  0  0  0  0
 17  7  1  0  0  0  0
 18 11  2  0  0  0  0
 18  3  1  0  0  0  0
 19 25  2  0  0  0  0
 20 19  1  0  0  0  0
 20 22  1  0  0  0  0
 21 15  1  1  0  0  0
 22 24  1  0  0  0  0
 23 21  1  0  0  0  0
 24 21  1  0  0  0  0
 25 23  1  0  0  0  0
 27 26  1  0  0  0  0
 28 27  1  0  0  0  0
 29 28  1  0  0  0  0
 32 31  2  6  0  0  0
 32 30  1  0  0  0  0
 32 29  1  0  0  0  0
 34 33  1  0  0  0  0
 34 32  1  0  0  0  0
M  END
>  <MODEL>
4

>  <REMARK>
 VINA RESULT:      -7.9      4.616      7.450
  Name = 
  7 active torsions:
  status: ('A' for Active; 'I' for Inactive)
    1  A    between atoms: C_3  and  C_13
    2  A    between atoms: C_3  and  C_17
    3  A    between atoms: C_12  and  C_28
    4  A    between atoms: C_13  and  N_33
    5  A    between atoms: O_14  and  P_34
    6  A    between atoms: C_17  and  N_29
    7  A    between atoms: N_33  and  P_34
                            x       y       z     vdW  Elec       q    Type
                         _______ _______ _______ _____ _____    ______ ____

>  <TORSDO>
F 7

$$$$
=
 OpenBabel10262423553D

 34 39  0  0  1  0  0  0  0  0999 V2000
  188.2100  178.1720  138.8470 C   0  0  0  0  0  0  0  0  0  0  0  0
  188.6840  177.7900  141.2260 C   0  0  0  0  0  0  0  0  0  0  0  0
  186.4570  178.4130  140.4770 N   0  0  0  0  0  0  0  0  0  0  0  0
  184.7880  178.5360  142.1900 C   0  0  0  0  0  0  0  0  0  0  0  0
  190.4440  177.5540  139.5690 C   0  0  0  0  0  3  0  0  0  0  0  0
  190.0160  177.5020  140.9120 C   0  0  0  0  0  3  0  0  0  0  0  0
  186.8940  178.0500  142.7430 C   0  0  0  0  0  0  0  0  0  0  0  0
  187.8100  178.1290  140.1730 C   0  0  0  0  0  0  0  0  0  0  0  0
  184.7580  178.2790  143.6730 C   0  0  0  0  0  3  0  0  0  0  0  0
  189.5440  177.8860  138.5370 C   0  0  0  0  0  2  0  0  0  0  0  0
  185.9960  178.7290  138.2090 N   0  0  0  0  0  0  0  0  0  0  0  0
  187.2810  178.4820  137.8950 N   0  0  0  0  0  0  0  0  0  0  0  0
  188.2070  177.7410  142.5170 N   0  0  0  0  0  0  0  0  0  0  0  0
  183.8290  178.7910  141.2940 C   0  0  0  0  0  3  0  0  0  0  0  0
  184.2490  178.9020  139.8450 C   0  0  0  0  0  0  0  0  0  0  0  0
  186.1860  178.0010  143.9810 N   0  0  0  0  0  0  0  0  0  0  0  0
  186.0940  178.3780  141.7420 N   0  0  0  0  0  0  0  0  0  0  0  0
  185.5550  178.6890  139.5020 C   0  0  0  0  0  0  0  0  0  0  0  0
  180.3390  178.5210  139.8530 C   0  0  0  0  0  3  0  0  0  0  0  0
  180.3580  177.8840  138.6010 O   0  0  0  0  0  0  0  0  0  0  0  0
  183.2290  179.2350  138.7960 C   0  0  2  0  0  3  0  0  0  0  0  0
  181.2960  178.1520  137.5620 C   0  0  0  0  0  2  0  0  0  0  0  0
  182.1430  180.1870  139.3190 C   0  0  0  0  0  2  0  0  0  0  0  0
  182.7170  177.9800  138.0810 C   0  0  0  0  0  2  0  0  0  0  0  0
  181.1340  179.5330  140.2150 C   0  0  0  0  0  3  0  0  0  0  0  0
  186.6540  177.2770  145.1530 C   0  0  0  0  0  2  0  0  0  0  0  0
  187.0880  178.2500  146.2350 C   0  0  0  0  0  2  0  0  0  0  0  0
  188.5770  178.1230  146.4860 C   0  0  0  0  0  2  0  0  0  0  0  0
  189.0840  176.9150  145.8550 N   0  0  0  0  0  2  0  0  0  0  0  0
  190.6720  178.6960  144.6600 O   0  0  0  0  0  1  0  0  0  0  0  0
  191.0480  176.2060  143.9670 O   0  0  0  0  0  0  0  0  0  0  0  0
  190.6730  177.2880  145.2140 P   0  0  2  0  0  0  0  0  0  0  0  0
  191.9800  175.8690  146.6410 O   0  0  0  0  0  1  0  0  0  0  0  0
  191.8400  177.1620  146.4360 O   0  0  0  0  0  0  0  0  0  0  0  0
  1  8  1  0  0  0  0
  2 13  1  0  0  0  0
  3 17  1  0  0  0  0
  4  9  2  0  0  0  0
  5  6  2  0  0  0  0
  6  2  1  0  0  0  0
  7 16  1  0  0  0  0
  8  3  1  0  0  0  0
  8  2  2  0  0  0  0
  9 16  1  0  0  0  0
 10  1  1  0  0  0  0
 10  5  1  0  0  0  0
 11 18  2  0  0  0  0
 12 11  1  0  0  0  0
 12  1  2  0  0  0  0
 13  7  2  0  0  0  0
 14  4  1  0  0  0  0
 15 14  2  0  0  0  0
 16 26  1  0  0  0  0
 17  4  1  0  0  0  0
 17  7  1  0  0  0  0
 18 15  1  0  0  0  0
 18  3  1  0  0  0  0
 19 25  2  0  0  0  0
 20 19  1  0  0  0  0
 21 23  1  0  0  0  0
 21 15  1  1  0  0  0
 22 24  1  0  0  0  0
 22 20  1  0  0  0  0
 23 25  1  0  0  0  0
 24 21  1  0  0  0  0
 26 27  1  0  0  0  0
 27 28  1  0  0  0  0
 29 28  1  0  0  0  0
 30 32  1  0  0  0  0
 32 31  2  6  0  0  0
 32 29  1  0  0  0  0
 32 34  1  0  0  0  0
 34 33  1  0  0  0  0
M  END
>  <MODEL>
5

>  <REMARK>
 VINA RESULT:      -7.9      1.609      4.170
  Name = 
  7 active torsions:
  status: ('A' for Active; 'I' for Inactive)
    1  A    between atoms: C_3  and  C_13
    2  A    between atoms: C_3  and  C_17
    3  A    between atoms: C_12  and  C_28
    4  A    between atoms: C_13  and  N_33
    5  A    between atoms: O_14  and  P_34
    6  A    between atoms: C_17  and  N_29
    7  A    between atoms: N_33  and  P_34
                            x       y       z     vdW  Elec       q    Type
                         _______ _______ _______ _____ _____    ______ ____

>  <TORSDO>
F 7

$$$$
=
 OpenBabel10262423553D

 34 39  0  0  1  0  0  0  0  0999 V2000
  186.0370  178.2430  145.1980 C   0  0  0  0  0  0  0  0  0  0  0  0
  188.3190  177.5440  144.6220 C   0  0  0  0  0  0  0  0  0  0  0  0
  186.7000  178.0830  142.8910 N   0  0  0  0  0  0  0  0  0  0  0  0
  187.5160  177.9650  140.6420 C   0  0  0  0  0  0  0  0  0  0  0  0
  187.6330  177.7060  146.9460 C   0  0  0  0  0  3  0  0  0  0  0  0
  188.6230  177.4230  145.9830 C   0  0  0  0  0  3  0  0  0  0  0  0
  188.8700  177.4220  142.3300 C   0  0  0  0  0  0  0  0  0  0  0  0
  187.0160  177.9480  144.2640 C   0  0  2  0  0  3  0  0  0  0  0  0
  188.8440  177.6630  140.0020 C   0  0  0  0  0  3  0  0  0  0  0  0
  186.3420  178.1180  146.5570 C   0  0  0  0  0  3  0  0  0  0  0  0
  184.5440  178.7940  143.4410 N   0  0  0  0  0  0  0  0  0  0  0  0
  184.8130  178.6540  144.7510 N   0  0  0  0  0  0  0  0  0  0  0  0
  189.2490  177.2940  143.6380 N   0  0  0  0  0  0  0  0  0  0  0  0
  186.3550  178.4150  140.1550 C   0  0  0  0  0  3  0  0  0  0  0  0
  185.2480  178.6880  141.1490 C   0  0  0  0  0  0  0  0  0  0  0  0
  189.6830  177.2750  141.1670 N   0  0  0  0  0  0  0  0  0  0  0  0
  187.6380  177.7900  142.0160 N   0  0  0  0  0  0  0  0  0  0  0  0
  185.4820  178.5230  142.4850 C   0  0  0  0  0  0  0  0  0  0  0  0
  182.7290  177.0420  138.6220 C   0  0  0  0  0  3  0  0  0  0  0  0
  182.5940  178.2450  137.9100 O   0  0  0  0  0  0  0  0  0  0  0  0
  183.9050  179.1480  140.6620 C   0  0  2  0  0  3  0  0  0  0  0  0
  182.6660  179.5480  138.4850 C   0  0  0  0  0  2  0  0  0  0  0  0
  182.8070  178.1010  140.9000 C   0  0  0  0  0  2  0  0  0  0  0  0
  183.9780  179.7160  139.2400 C   0  0  0  0  0  2  0  0  0  0  0  0
  182.8500  176.9420  139.9500 C   0  0  0  0  0  3  0  0  0  0  0  0
  191.1370  177.3080  141.1860 C   0  0  0  0  0  2  0  0  0  0  0  0
  191.6780  177.5150  139.7820 C   0  0  0  0  0  2  0  0  0  0  0  0
  193.0580  176.9020  139.6570 C   0  0  0  0  0  2  0  0  0  0  0  0
  193.4880  176.9330  138.2690 N   0  0  0  0  0  2  0  0  0  0  0  0
  193.4090  175.3410  136.1280 O   0  0  0  0  0  0  0  0  0  0  0  0
  191.8320  174.6630  138.0960 O   0  0  0  0  0  1  0  0  0  0  0  0
  193.3300  175.3040  137.6380 P   0  0  2  0  0  0  0  0  0  0  0  0
  195.6730  175.0180  138.0760 O   0  0  0  0  0  1  0  0  0  0  0  0
  194.5700  174.3200  138.2450 O   0  0  0  0  0  0  0  0  0  0  0  0
  1 10  1  0  0  0  0
  2  6  2  0  0  0  0
  3  8  1  0  0  0  0
  4 17  1  0  0  0  0
  6  5  1  0  0  0  0
  7 13  2  0  0  0  0
  8  2  1  1  0  0  0
  8  1  1  0  0  0  0
  9  4  2  0  0  0  0
  9 16  1  0  0  0  0
 10  5  2  0  0  0  0
 11 12  1  0  0  0  0
 12  1  2  0  0  0  0
 13  2  1  0  0  0  0
 14  4  1  0  0  0  0
 14 15  2  0  0  0  0
 15 18  1  0  0  0  0
 16 26  1  0  0  0  0
 16  7  1  0  0  0  0
 17  7  1  0  0  0  0
 17  3  1  0  0  0  0
 18  3  1  0  0  0  0
 18 11  2  0  0  0  0
 19 25  2  0  0  0  0
 20 22  1  0  0  0  0
 20 19  1  0  0  0  0
 21 23  1  0  0  0  0
 21 15  1  6  0  0  0
 22 24  1  0  0  0  0
 24 21  1  0  0  0  0
 25 23  1  0  0  0  0
 27 26  1  0  0  0  0
 28 27  1  0  0  0  0
 29 28  1  0  0  0  0
 32 30  2  6  0  0  0
 32 31  1  0  0  0  0
 32 34  1  0  0  0  0
 32 29  1  0  0  0  0
 33 34  1  0  0  0  0
M  END
>  <MODEL>
6

>  <REMARK>
 VINA RESULT:      -7.8      3.688      4.034
  Name = 
  7 active torsions:
  status: ('A' for Active; 'I' for Inactive)
    1  A    between atoms: C_3  and  C_13
    2  A    between atoms: C_3  and  C_17
    3  A    between atoms: C_12  and  C_28
    4  A    between atoms: C_13  and  N_33
    5  A    between atoms: O_14  and  P_34
    6  A    between atoms: C_17  and  N_29
    7  A    between atoms: N_33  and  P_34
                            x       y       z     vdW  Elec       q    Type
                         _______ _______ _______ _____ _____    ______ ____

>  <TORSDO>
F 7

$$$$
=
 OpenBabel10262423553D

 34 39  0  0  1  0  0  0  0  0999 V2000
  184.7160  178.4860  145.3520 C   0  0  0  0  0  0  0  0  0  0  0  0
  187.1370  178.1220  145.1620 C   0  0  0  0  0  0  0  0  0  0  0  0
  185.7520  178.3900  143.1820 N   0  0  0  0  0  0  0  0  0  0  0  0
  186.9210  178.3580  141.0920 C   0  0  0  0  0  0  0  0  0  0  0  0
  186.0760  178.2170  147.3440 C   0  0  0  0  0  3  0  0  0  0  0  0
  187.2360  178.0680  146.5560 C   0  0  0  0  0  3  0  0  0  0  0  0
  188.0550  178.0470  142.9880 C   0  0  0  0  0  0  0  0  0  0  0  0
  185.8630  178.3240  144.5920 C   0  0  2  0  0  3  0  0  0  0  0  0
  188.3630  178.2450  140.6760 C   0  0  0  0  0  3  0  0  0  0  0  0
  184.8180  178.4280  146.7450 C   0  0  0  0  0  3  0  0  0  0  0  0
  183.4570  178.7840  143.3660 N   0  0  0  0  0  0  0  0  0  0  0  0
  183.5320  178.7060  144.7060 N   0  0  0  0  0  0  0  0  0  0  0  0
  188.2370  177.9970  144.3430 N   0  0  0  0  0  0  0  0  0  0  0  0
  185.8000  178.6250  140.4150 C   0  0  0  0  0  3  0  0  0  0  0  0
  184.5220  178.7480  141.2150 C   0  0  0  0  0  0  0  0  0  0  0  0
  189.0540  178.0030  141.9710 N   0  0  0  0  0  0  0  0  0  0  0  0
  186.8490  178.2240  142.4740 N   0  0  0  0  0  0  0  0  0  0  0  0
  184.5640  178.6390  142.5770 C   0  0  0  0  0  0  0  0  0  0  0  0
  183.0240  177.1590  137.9490 C   0  0  0  0  0  3  0  0  0  0  0  0
  182.7210  178.4260  137.4230 O   0  0  0  0  0  0  0  0  0  0  0  0
  183.2210  178.9980  140.5090 C   0  0  2  0  0  3  0  0  0  0  0  0
  182.3490  179.5640  138.1960 C   0  0  0  0  0  2  0  0  0  0  0  0
  182.4030  177.7120  140.3200 C   0  0  0  0  0  2  0  0  0  0  0  0
  183.4100  179.8510  139.2500 C   0  0  0  0  0  2  0  0  0  0  0  0
  182.9170  176.8130  139.2350 C   0  0  0  0  0  3  0  0  0  0  0  0
  190.4670  178.2500  142.2130 C   0  0  0  0  0  2  0  0  0  0  0  0
  191.2860  177.0250  141.8440 C   0  0  0  0  0  2  0  0  0  0  0  0
  191.7600  177.1240  140.4080 C   0  0  0  0  0  2  0  0  0  0  0  0
  191.1570  176.0650  139.6150 N   0  0  0  0  0  2  0  0  0  0  0  0
  191.0600  177.0210  137.1250 O   0  0  0  0  0  0  0  0  0  0  0  0
  191.9300  174.5700  137.3590 O   0  0  0  0  0  1  0  0  0  0  0  0
  191.8880  176.1270  138.0210 P   0  0  2  0  0  0  0  0  0  0  0  0
  194.0120  176.4690  136.9570 O   0  0  0  0  0  1  0  0  0  0  0  0
  193.4670  176.7350  138.1250 O   0  0  0  0  0  0  0  0  0  0  0  0
  1 10  1  0  0  0  0
  2  6  2  0  0  0  0
  3  8  1  0  0  0  0
  4 17  1  0  0  0  0
  6  5  1  0  0  0  0
  7 13  2  0  0  0  0
  8  2  1  1  0  0  0
  8  1  1  0  0  0  0
  9  4  2  0  0  0  0
  9 16  1  0  0  0  0
 10  5  2  0  0  0  0
 11 12  1  0  0  0  0
 12  1  2  0  0  0  0
 13  2  1  0  0  0  0
 14  4  1  0  0  0  0
 14 15  2  0  0  0  0
 15 18  1  0  0  0  0
 16 26  1  0  0  0  0
 16  7  1  0  0  0  0
 17  7  1  0  0  0  0
 17  3  1  0  0  0  0
 18  3  1  0  0  0  0
 18 11  2  0  0  0  0
 19 25  2  0  0  0  0
 20 19  1  0  0  0  0
 20 22  1  0  0  0  0
 21 15  1  6  0  0  0
 22 24  1  0  0  0  0
 23 21  1  0  0  0  0
 24 21  1  0  0  0  0
 25 23  1  0  0  0  0
 27 26  1  0  0  0  0
 28 27  1  0  0  0  0
 29 28  1  0  0  0  0
 31 32  1  0  0  0  0
 32 30  2  6  0  0  0
 32 34  1  0  0  0  0
 32 29  1  0  0  0  0
 33 34  1  0  0  0  0
M  END
>  <MODEL>
7

>  <REMARK>
 VINA RESULT:      -7.5      3.367      3.632
  Name = 
  7 active torsions:
  status: ('A' for Active; 'I' for Inactive)
    1  A    between atoms: C_3  and  C_13
    2  A    between atoms: C_3  and  C_17
    3  A    between atoms: C_12  and  C_28
    4  A    between atoms: C_13  and  N_33
    5  A    between atoms: O_14  and  P_34
    6  A    between atoms: C_17  and  N_29
    7  A    between atoms: N_33  and  P_34
                            x       y       z     vdW  Elec       q    Type
                         _______ _______ _______ _____ _____    ______ ____

>  <TORSDO>
F 7

$$$$
=
 OpenBabel10262423553D

 34 39  0  0  1  0  0  0  0  0999 V2000
  184.5180  178.5060  144.9770 C   0  0  0  0  0  0  0  0  0  0  0  0
  186.8940  178.0180  144.5940 C   0  0  0  0  0  0  0  0  0  0  0  0
  185.3800  178.4060  142.7330 N   0  0  0  0  0  0  0  0  0  0  0  0
  186.3830  178.3620  140.5590 C   0  0  0  0  0  0  0  0  0  0  0  0
  186.0090  178.1180  146.8530 C   0  0  0  0  0  3  0  0  0  0  0  0
  187.0950  177.9260  145.9750 C   0  0  0  0  0  3  0  0  0  0  0  0
  187.6390  177.9460  142.3550 C   0  0  0  0  0  0  0  0  0  0  0  0
  185.5940  178.3010  144.1280 C   0  0  2  0  0  3  0  0  0  0  0  0
  187.7820  178.1830  140.0310 C   0  0  0  0  0  3  0  0  0  0  0  0
  184.7220  178.4100  146.3570 C   0  0  0  0  0  3  0  0  0  0  0  0
  183.1300  178.9180  143.1000 N   0  0  0  0  0  0  0  0  0  0  0  0
  183.3030  178.8040  144.4290 N   0  0  0  0  0  0  0  0  0  0  0  0
  187.9200  177.8540  143.6910 N   0  0  0  0  0  0  0  0  0  0  0  0
  185.2300  178.7050  139.9750 C   0  0  0  0  0  3  0  0  0  0  0  0
  184.0250  178.8760  140.8730 C   0  0  0  0  0  0  0  0  0  0  0  0
  188.5540  177.8730  141.2630 N   0  0  0  0  0  0  0  0  0  0  0  0
  186.4090  178.2000  141.9390 N   0  0  0  0  0  0  0  0  0  0  0  0
  184.1640  178.7330  142.2250 C   0  0  0  0  0  0  0  0  0  0  0  0
  182.1660  177.3940  137.7460 C   0  0  0  0  0  3  0  0  0  0  0  0
  181.9050  178.6780  137.2410 O   0  0  0  0  0  0  0  0  0  0  0  0
  182.6900  179.2120  140.2750 C   0  0  2  0  0  3  0  0  0  0  0  0
  181.6720  179.8380  138.0380 C   0  0  0  0  0  2  0  0  0  0  0  0
  181.7770  177.9830  140.1580 C   0  0  0  0  0  2  0  0  0  0  0  0
  182.8320  180.0530  139.0010 C   0  0  0  0  0  2  0  0  0  0  0  0
  182.1410  177.0540  139.0380 C   0  0  0  0  0  3  0  0  0  0  0  0
  189.9930  178.0380  141.4000 C   0  0  0  0  0  2  0  0  0  0  0  0
  190.7140  176.7890  140.9240 C   0  0  0  0  0  2  0  0  0  0  0  0
  191.0230  176.8960  139.4440 C   0  0  0  0  0  2  0  0  0  0  0  0
  191.0350  175.5710  138.8450 N   0  0  0  0  0  2  0  0  0  0  0  0
  192.3300  176.1710  136.5900 O   0  0  0  0  0  0  0  0  0  0  0  0
  189.8630  177.0160  136.7330 O   0  0  0  0  0  1  0  0  0  0  0  0
  190.9620  175.7840  137.1060 P   0  0  2  0  0  0  0  0  0  0  0  0
  190.0780  173.5660  137.3510 O   0  0  0  0  0  1  0  0  0  0  0  0
  190.4630  174.3440  136.3620 O   0  0  0  0  0  0  0  0  0  0  0  0
  1 10  1  0  0  0  0
  2  6  2  0  0  0  0
  3  8  1  0  0  0  0
  4 17  1  0  0  0  0
  6  5  1  0  0  0  0
  7 13  2  0  0  0  0
  8  2  1  1  0  0  0
  8  1  1  0  0  0  0
  9  4  2  0  0  0  0
  9 16  1  0  0  0  0
 10  5  2  0  0  0  0
 11 12  1  0  0  0  0
 12  1  2  0  0  0  0
 13  2  1  0  0  0  0
 14  4  1  0  0  0  0
 14 15  2  0  0  0  0
 15 18  1  0  0  0  0
 16 26  1  0  0  0  0
 16  7  1  0  0  0  0
 17  7  1  0  0  0  0
 17  3  1  0  0  0  0
 18  3  1  0  0  0  0
 18 11  2  0  0  0  0
 19 25  2  0  0  0  0
 20 19  1  0  0  0  0
 20 22  1  0  0  0  0
 21 15  1  6  0  0  0
 22 24  1  0  0  0  0
 23 21  1  0  0  0  0
 24 21  1  0  0  0  0
 25 23  1  0  0  0  0
 27 26  1  0  0  0  0
 28 27  1  0  0  0  0
 29 28  1  0  0  0  0
 31 32  1  0  0  0  0
 32 30  2  6  0  0  0
 32 29  1  0  0  0  0
 34 32  1  0  0  0  0
 34 33  1  0  0  0  0
M  END
>  <MODEL>
8

>  <REMARK>
 VINA RESULT:      -7.4      3.749      3.912
  Name = 
  7 active torsions:
  status: ('A' for Active; 'I' for Inactive)
    1  A    between atoms: C_3  and  C_13
    2  A    between atoms: C_3  and  C_17
    3  A    between atoms: C_12  and  C_28
    4  A    between atoms: C_13  and  N_33
    5  A    between atoms: O_14  and  P_34
    6  A    between atoms: C_17  and  N_29
    7  A    between atoms: N_33  and  P_34
                            x       y       z     vdW  Elec       q    Type
                         _______ _______ _______ _____ _____    ______ ____

>  <TORSDO>
F 7

$$$$
=
 OpenBabel10262423553D

 34 39  0  0  1  0  0  0  0  0999 V2000
  184.3040  178.4610  144.6090 C   0  0  0  0  0  0  0  0  0  0  0  0
  183.6760  178.8840  142.2730 C   0  0  0  0  0  0  0  0  0  0  0  0
  185.9530  178.2730  142.8670 N   0  0  0  0  0  0  0  0  0  0  0  0
  187.4710  178.0380  141.0290 C   0  0  0  0  0  0  0  0  0  0  0  0
  182.0240  179.0730  144.0430 C   0  0  0  0  0  3  0  0  0  0  0  0
  182.3630  179.1480  142.6760 C   0  0  0  0  0  3  0  0  0  0  0  0
  185.3670  178.6700  140.6400 C   0  0  0  0  0  0  0  0  0  0  0  0
  184.6230  178.5510  143.2640 C   0  0  2  0  0  3  0  0  0  0  0  0
  187.3610  178.1430  139.5320 C   0  0  0  0  0  3  0  0  0  0  0  0
  182.9920  178.7280  145.0090 C   0  0  0  0  0  3  0  0  0  0  0  0
  186.5380  177.8240  145.0830 N   0  0  0  0  0  0  0  0  0  0  0  0
  185.2860  178.1030  145.4890 N   0  0  0  0  0  0  0  0  0  0  0  0
  184.0610  178.9270  140.9520 N   0  0  0  0  0  0  0  0  0  0  0  0
  188.4530  177.6320  141.8410 C   0  0  0  0  0  3  0  0  0  0  0  0
  188.1500  177.5820  143.3220 C   0  0  0  0  0  0  0  0  0  0  0  0
  185.9590  178.6000  139.3430 N   0  0  0  0  0  0  0  0  0  0  0  0
  186.2430  178.3730  141.5870 N   0  0  0  0  0  0  0  0  0  0  0  0
  186.8950  177.8920  143.7660 C   0  0  0  0  0  0  0  0  0  0  0  0
  191.9280  178.6360  143.5480 C   0  0  0  0  0  3  0  0  0  0  0  0
  192.3370  177.2970  143.6570 O   0  0  0  0  0  0  0  0  0  0  0  0
  189.2240  177.1800  144.2900 C   0  0  2  0  0  3  0  0  0  0  0  0
  191.5880  176.2620  144.2900 C   0  0  0  0  0  2  0  0  0  0  0  0
  189.8740  178.3910  144.9750 C   0  0  0  0  0  2  0  0  0  0  0  0
  190.1980  176.1700  143.6750 C   0  0  0  0  0  2  0  0  0  0  0  0
  190.8260  179.1520  144.1020 C   0  0  0  0  0  3  0  0  0  0  0  0
  185.1960  178.4460  138.1140 C   0  0  0  0  0  2  0  0  0  0  0  0
  185.3680  177.0410  137.5610 C   0  0  0  0  0  2  0  0  0  0  0  0
  185.7600  177.0980  136.0990 C   0  0  0  0  0  2  0  0  0  0  0  0
  186.7560  178.1370  135.8950 N   0  0  0  0  0  2  0  0  0  0  0  0
  188.8850  177.6860  134.3510 O   0  0  0  0  0  0  0  0  0  0  0  0
  188.1000  175.6650  135.8060 O   0  0  0  0  0  1  0  0  0  0  0  0
  188.3080  177.3420  135.7050 P   0  0  2  0  0  0  0  0  0  0  0  0
  189.3640  179.1630  136.8580 O   0  0  0  0  0  1  0  0  0  0  0  0
  189.3760  177.8480  136.9210 O   0  0  0  0  0  0  0  0  0  0  0  0
  1 10  1  0  0  0  0
  1 12  2  0  0  0  0
  2  6  2  0  0  0  0
  3  8  1  0  0  0  0
  3 18  1  0  0  0  0
  4 17  1  0  0  0  0
  4 14  1  0  0  0  0
  5 10  2  0  0  0  0
  6  5  1  0  0  0  0
  7 13  2  0  0  0  0
  7 17  1  0  0  0  0
  8  2  1  6  0  0  0
  8  1  1  0  0  0  0
  9  4  2  0  0  0  0
 11 12  1  0  0  0  0
 13  2  1  0  0  0  0
 14 15  2  0  0  0  0
 15 18  1  0  0  0  0
 16  9  1  0  0  0  0
 16  7  1  0  0  0  0
 17  3  1  0  0  0  0
 18 11  2  0  0  0  0
 19 20  1  0  0  0  0
 19 25  2  0  0  0  0
 20 22  1  0  0  0  0
 21 15  1  6  0  0  0
 21 23  1  0  0  0  0
 24 22  1  0  0  0  0
 24 21  1  0  0  0  0
 25 23  1  0  0  0  0
 26 16  1  0  0  0  0
 27 26  1  0  0  0  0
 28 27  1  0  0  0  0
 29 28  1  0  0  0  0
 32 30  2  6  0  0  0
 32 31  1  0  0  0  0
 32 29  1  0  0  0  0
 32 34  1  0  0  0  0
 33 34  1  0  0  0  0
M  END
>  <MODEL>
9

>  <REMARK>
 VINA RESULT:      -7.3      3.671      7.333
  Name = 
  7 active torsions:
  status: ('A' for Active; 'I' for Inactive)
    1  A    between atoms: C_3  and  C_13
    2  A    between atoms: C_3  and  C_17
    3  A    between atoms: C_12  and  C_28
    4  A    between atoms: C_13  and  N_33
    5  A    between atoms: O_14  and  P_34
    6  A    between atoms: C_17  and  N_29
    7  A    between atoms: N_33  and  P_34
                            x       y       z     vdW  Elec       q    Type
                         _______ _______ _______ _____ _____    ______ ____

>  <TORSDO>
F 7

$$$$
