=
 OpenBabel10272400253D

 31 34  0  0  1  0  0  0  0  0999 V2000
  188.2430  177.7250  135.8370 C   0  0  0  0  0  0  0  0  0  0  0  0
  190.7610  176.4080  138.3510 C   0  0  0  0  0  0  0  0  0  0  0  0
  189.6190  177.1240  137.7290 C   0  0  0  0  0  0  0  0  0  0  0  0
  187.4910  178.5230  136.6420 N   0  0  0  0  0  0  0  0  0  0  0  0
  189.8240  176.8910  140.5450 C   0  0  1  0  0  3  0  0  0  0  0  0
  187.9300  177.6160  134.4540 N   0  0  0  0  0  1  0  0  0  0  0  0
  189.1870  178.1630  139.9750 C   0  0  0  0  0  2  0  0  0  0  0  0
  190.8590  176.3690  139.6500 N   0  0  0  0  0  0  0  0  0  0  0  0
  189.3240  177.0160  136.3650 C   0  0  0  0  0  3  0  0  0  0  0  0
  188.8260  177.9530  138.5380 C   0  0  0  0  0  0  0  0  0  0  0  0
  187.7630  178.6570  137.9680 C   0  0  0  0  0  3  0  0  0  0  0  0
  191.8220  175.7810  137.5320 C   0  0  0  0  0  0  0  0  0  0  0  0
  193.9680  176.0590  136.2210 C   0  0  0  0  0  2  0  0  0  0  0  0
  193.1220  176.5380  137.3940 C   0  0  0  0  0  2  0  0  0  0  0  0
  194.1020  174.5500  136.2970 C   0  0  0  0  0  2  0  0  0  0  0  0
  192.7260  173.9190  136.1220 C   0  0  0  0  0  2  0  0  0  0  0  0
  191.6760  174.5360  137.0120 C   0  0  0  0  0  0  0  0  0  0  0  0
  190.4220  173.7400  137.2190 C   0  0  0  0  0  2  0  0  0  0  0  0
  188.4040  173.6020  135.9390 O   0  0  0  0  0  1  0  0  0  0  0  0
  189.7790  173.3650  135.8910 C   0  0  0  0  0  2  0  0  0  0  0  0
  190.4190  177.1510  141.9190 C   0  0  0  0  0  2  0  0  0  0  0  0
  190.1060  175.0550  142.9710 O   0  0  0  0  0  0  0  0  0  0  0  0
  189.7820  176.2720  142.9500 C   0  0  0  0  0  0  0  0  0  0  0  0
  186.8700  177.8690  145.6900 C   0  0  0  0  0  0  0  0  0  0  0  0
  187.4800  177.0200  143.5130 C   0  0  0  0  0  3  0  0  0  0  0  0
  190.5360  177.0170  145.8070 C   0  0  0  0  0  1  0  0  0  0  0  0
  185.8480  178.4180  146.6180 C   0  0  0  0  0  1  0  0  0  0  0  0
  186.5180  177.5350  144.3840 C   0  0  0  0  0  3  0  0  0  0  0  0
  189.1550  177.1710  145.2620 C   0  0  0  0  0  0  0  0  0  0  0  0
  188.8090  176.8270  143.9300 C   0  0  0  0  0  0  0  0  0  0  0  0
  188.1830  177.6880  146.1260 C   0  0  0  0  0  3  0  0  0  0  0  0
  1  9  2  0  0  0  0
  1  4  1  0  0  0  0
  2  8  2  0  0  0  0
  3  2  1  0  0  0  0
  3 10  2  0  0  0  0
  4 11  2  0  0  0  0
  5 21  1  1  0  0  0
  6  1  1  0  0  0  0
  7  5  1  0  0  0  0
  8  5  1  0  0  0  0
  9  3  1  0  0  0  0
 10  7  1  0  0  0  0
 11 10  1  0  0  0  0
 12  2  1  0  0  0  0
 13 15  1  0  0  0  0
 13 14  1  0  0  0  0
 14 12  1  0  0  0  0
 16 15  1  0  0  0  0
 16 17  1  0  0  0  0
 17 18  1  0  0  0  0
 17 12  2  0  0  0  0
 20 19  1  0  0  0  0
 20 18  1  0  0  0  0
 21 23  1  0  0  0  0
 23 22  2  0  0  0  0
 23 30  1  0  0  0  0
 24 31  1  0  0  0  0
 24 27  1  0  0  0  0
 25 30  2  0  0  0  0
 25 28  1  0  0  0  0
 28 24  2  0  0  0  0
 29 26  1  0  0  0  0
 29 31  2  0  0  0  0
 30 29  1  0  0  0  0
M  END
>  <MODEL>
1

>  <REMARK>
 VINA RESULT:      -8.4      0.000      0.000
  Name = 
  6 active torsions:
  status: ('A' for Active; 'I' for Inactive)
    1  A    between atoms: C_4  and  C_5
    2  A    between atoms: C_9  and  C_22
    3  A    between atoms: C_9  and  C_23
    4  A    between atoms: C_15  and  C_23
    5  A    between atoms: C_29  and  C_31
    6  A    between atoms: C_30  and  C_31
                            x       y       z     vdW  Elec       q    Type
                         _______ _______ _______ _____ _____    ______ ____

>  <TORSDO>
F 6

$$$$
=
 OpenBabel10272400253D

 31 34  0  0  1  0  0  0  0  0999 V2000
  193.0720  176.6910  138.0570 C   0  0  0  0  0  0  0  0  0  0  0  0
  189.3530  176.8170  138.8050 C   0  0  0  0  0  0  0  0  0  0  0  0
  190.8310  176.8910  138.9370 C   0  0  0  0  0  0  0  0  0  0  0  0
  193.5760  177.0180  139.2770 N   0  0  0  0  0  0  0  0  0  0  0  0
  189.1410  178.0160  140.9130 C   0  0  1  0  0  3  0  0  0  0  0  0
  193.9530  176.4210  136.9740 N   0  0  0  0  0  1  0  0  0  0  0  0
  190.4790  177.4230  141.3670 C   0  0  0  0  0  2  0  0  0  0  0  0
  188.6030  177.2900  139.7600 N   0  0  0  0  0  0  0  0  0  0  0  0
  191.6900  176.6160  137.8660 C   0  0  0  0  0  3  0  0  0  0  0  0
  191.3770  177.2280  140.1850 C   0  0  0  0  0  0  0  0  0  0  0  0
  192.7650  177.2770  140.3380 C   0  0  0  0  0  3  0  0  0  0  0  0
  188.7110  176.1700  137.6400 C   0  0  0  0  0  0  0  0  0  0  0  0
  188.7420  174.3020  135.9340 C   0  0  0  0  0  2  0  0  0  0  0  0
  189.0930  174.7370  137.3510 C   0  0  0  0  0  2  0  0  0  0  0  0
  187.2920  174.6530  135.6590 C   0  0  0  0  0  2  0  0  0  0  0  0
  187.1320  176.1670  135.6960 C   0  0  0  0  0  2  0  0  0  0  0  0
  187.7440  176.7960  136.9240 C   0  0  0  0  0  0  0  0  0  0  0  0
  187.2930  178.1880  137.2580 C   0  0  0  0  0  2  0  0  0  0  0  0
  185.7220  178.7880  138.9590 O   0  0  0  0  0  1  0  0  0  0  0  0
  185.8360  178.2080  137.6960 C   0  0  0  0  0  2  0  0  0  0  0  0
  188.1280  177.9980  142.0460 C   0  0  0  0  0  2  0  0  0  0  0  0
  188.7530  175.7830  142.5960 O   0  0  0  0  0  0  0  0  0  0  0  0
  188.4580  176.9250  143.0370 C   0  0  0  0  0  0  0  0  0  0  0  0
  188.3080  177.7520  147.2600 C   0  0  0  0  0  0  0  0  0  0  0  0
  187.2150  177.4080  145.1350 C   0  0  0  0  0  3  0  0  0  0  0  0
  191.0000  177.1030  144.7080 C   0  0  0  0  0  1  0  0  0  0  0  0
  188.2320  178.0380  148.7160 C   0  0  0  0  0  1  0  0  0  0  0  0
  187.1410  177.6770  146.5020 C   0  0  0  0  0  3  0  0  0  0  0  0
  189.6340  177.2880  145.2800 C   0  0  0  0  0  0  0  0  0  0  0  0
  188.4530  177.2090  144.4980 C   0  0  0  0  0  0  0  0  0  0  0  0
  189.5480  177.5590  146.6510 C   0  0  0  0  0  3  0  0  0  0  0  0
  1  4  1  0  0  0  0
  2  3  1  0  0  0  0
  2  8  2  0  0  0  0
  3 10  2  0  0  0  0
  4 11  2  0  0  0  0
  5  7  1  0  0  0  0
  5 21  1  1  0  0  0
  6  1  1  0  0  0  0
  8  5  1  0  0  0  0
  9  1  2  0  0  0  0
  9  3  1  0  0  0  0
 10 11  1  0  0  0  0
 10  7  1  0  0  0  0
 12  2  1  0  0  0  0
 13 14  1  0  0  0  0
 14 12  1  0  0  0  0
 15 16  1  0  0  0  0
 15 13  1  0  0  0  0
 16 17  1  0  0  0  0
 17 18  1  0  0  0  0
 17 12  2  0  0  0  0
 18 20  1  0  0  0  0
 20 19  1  0  0  0  0
 21 23  1  0  0  0  0
 22 23  2  0  0  0  0
 23 30  1  0  0  0  0
 24 27  1  0  0  0  0
 25 28  1  0  0  0  0
 26 29  1  0  0  0  0
 28 24  2  0  0  0  0
 29 31  2  0  0  0  0
 30 25  2  0  0  0  0
 30 29  1  0  0  0  0
 31 24  1  0  0  0  0
M  END
>  <MODEL>
2

>  <REMARK>
 VINA RESULT:      -8.2      2.210      4.030
  Name = 
  6 active torsions:
  status: ('A' for Active; 'I' for Inactive)
    1  A    between atoms: C_4  and  C_5
    2  A    between atoms: C_9  and  C_22
    3  A    between atoms: C_9  and  C_23
    4  A    between atoms: C_15  and  C_23
    5  A    between atoms: C_29  and  C_31
    6  A    between atoms: C_30  and  C_31
                            x       y       z     vdW  Elec       q    Type
                         _______ _______ _______ _____ _____    ______ ____

>  <TORSDO>
F 6

$$$$
=
 OpenBabel10272400253D

 31 34  0  0  1  0  0  0  0  0999 V2000
  185.8340  178.7530  146.4330 C   0  0  0  0  0  0  0  0  0  0  0  0
  186.3980  177.9460  142.7680 C   0  0  0  0  0  0  0  0  0  0  0  0
  185.7610  178.3090  144.0590 C   0  0  0  0  0  0  0  0  0  0  0  0
  184.4900  178.9560  146.4320 N   0  0  0  0  0  0  0  0  0  0  0  0
  184.3840  178.6750  141.6110 C   0  0  1  0  0  3  0  0  0  0  0  0
  186.5710  178.8750  147.6430 N   0  0  0  0  0  1  0  0  0  0  0  0
  183.5590  178.3100  142.8500 C   0  0  0  0  0  2  0  0  0  0  0  0
  185.7160  178.0700  141.6640 N   0  0  0  0  0  0  0  0  0  0  0  0
  186.4930  178.4190  145.2470 C   0  0  0  0  0  3  0  0  0  0  0  0
  184.3740  178.5260  144.0870 C   0  0  0  0  0  0  0  0  0  0  0  0
  183.7510  178.8410  145.2960 C   0  0  0  0  0  3  0  0  0  0  0  0
  187.7700  177.3960  142.7080 C   0  0  0  0  0  0  0  0  0  0  0  0
  189.7070  176.3230  143.9300 C   0  0  0  0  0  2  0  0  0  0  0  0
  188.1960  176.4850  143.8350 C   0  0  0  0  0  2  0  0  0  0  0  0
  190.2470  175.9540  142.5600 C   0  0  0  0  0  2  0  0  0  0  0  0
  189.9980  177.1100  141.6010 C   0  0  0  0  0  2  0  0  0  0  0  0
  188.5760  177.6140  141.6380 C   0  0  0  0  0  0  0  0  0  0  0  0
  188.1290  178.4440  140.4720 C   0  0  0  0  0  2  0  0  0  0  0  0
  188.9590  179.4230  138.4520 O   0  0  0  0  0  1  0  0  0  0  0  0
  189.0980  178.3260  139.3040 C   0  0  0  0  0  2  0  0  0  0  0  0
  183.6740  178.2390  140.3390 C   0  0  0  0  0  2  0  0  0  0  0  0
  184.5550  180.1150  139.1990 O   0  0  0  0  0  0  0  0  0  0  0  0
  184.2900  178.8850  139.1380 C   0  0  0  0  0  0  0  0  0  0  0  0
  185.3020  176.5980  135.6320 C   0  0  0  0  0  0  0  0  0  0  0  0
  185.9400  177.8110  137.6210 C   0  0  0  0  0  3  0  0  0  0  0  0
  182.1370  177.8520  137.2450 C   0  0  0  0  0  1  0  0  0  0  0  0
  185.6740  175.8120  134.4290 C   0  0  0  0  0  1  0  0  0  0  0  0
  186.2920  177.0710  136.4910 C   0  0  0  0  0  3  0  0  0  0  0  0
  183.5940  177.6050  137.0340 C   0  0  0  0  0  0  0  0  0  0  0  0
  184.5940  178.0910  137.9160 C   0  0  0  0  0  0  0  0  0  0  0  0
  183.9590  176.8650  135.9040 C   0  0  0  0  0  3  0  0  0  0  0  0
  1  6  1  0  0  0  0
  2  3  1  0  0  0  0
  3 10  2  0  0  0  0
  3  9  1  0  0  0  0
  4  1  1  0  0  0  0
  5 21  1  6  0  0  0
  5  8  1  0  0  0  0
  5  7  1  0  0  0  0
  7 10  1  0  0  0  0
  8  2  2  0  0  0  0
  9  1  2  0  0  0  0
 10 11  1  0  0  0  0
 11  4  2  0  0  0  0
 12  2  1  0  0  0  0
 12 14  1  0  0  0  0
 14 13  1  0  0  0  0
 15 13  1  0  0  0  0
 16 17  1  0  0  0  0
 16 15  1  0  0  0  0
 17 12  2  0  0  0  0
 18 17  1  0  0  0  0
 19 20  1  0  0  0  0
 20 18  1  0  0  0  0
 23 22  2  0  0  0  0
 23 21  1  0  0  0  0
 24 31  2  0  0  0  0
 24 28  1  0  0  0  0
 25 30  1  0  0  0  0
 27 24  1  0  0  0  0
 28 25  2  0  0  0  0
 29 26  1  0  0  0  0
 29 30  2  0  0  0  0
 30 23  1  0  0  0  0
 31 29  1  0  0  0  0
M  END
>  <MODEL>
3

>  <REMARK>
 VINA RESULT:      -8.1      4.086      8.460
  Name = 
  6 active torsions:
  status: ('A' for Active; 'I' for Inactive)
    1  A    between atoms: C_4  and  C_5
    2  A    between atoms: C_9  and  C_22
    3  A    between atoms: C_9  and  C_23
    4  A    between atoms: C_15  and  C_23
    5  A    between atoms: C_29  and  C_31
    6  A    between atoms: C_30  and  C_31
                            x       y       z     vdW  Elec       q    Type
                         _______ _______ _______ _____ _____    ______ ____

>  <TORSDO>
F 6

$$$$
=
 OpenBabel10272400253D

 31 34  0  0  1  0  0  0  0  0999 V2000
  187.3130  177.2020  135.9060 C   0  0  0  0  0  0  0  0  0  0  0  0
  190.0720  175.8990  138.1620 C   0  0  0  0  0  0  0  0  0  0  0  0
  188.9160  176.6650  137.6320 C   0  0  0  0  0  0  0  0  0  0  0  0
  186.7780  178.1620  136.7080 N   0  0  0  0  0  0  0  0  0  0  0  0
  189.5490  176.7210  140.3930 C   0  0  1  0  0  3  0  0  0  0  0  0
  186.7730  176.9770  134.6100 N   0  0  0  0  0  1  0  0  0  0  0  0
  188.9490  177.9850  139.7690 C   0  0  0  0  0  2  0  0  0  0  0  0
  190.3740  175.9930  139.4260 N   0  0  0  0  0  0  0  0  0  0  0  0
  188.3960  176.4410  136.3520 C   0  0  0  0  0  3  0  0  0  0  0  0
  188.3430  177.6600  138.4400 C   0  0  0  0  0  0  0  0  0  0  0  0
  187.2710  178.4100  137.9510 C   0  0  0  0  0  3  0  0  0  0  0  0
  190.9250  175.0720  137.2790 C   0  0  0  0  0  0  0  0  0  0  0  0
  191.2870  172.8650  136.0980 C   0  0  0  0  0  2  0  0  0  0  0  0
  190.2760  173.8800  136.6160 C   0  0  0  0  0  2  0  0  0  0  0  0
  192.3210  173.5900  135.2570 C   0  0  0  0  0  2  0  0  0  0  0  0
  193.0970  174.5540  136.1460 C   0  0  0  0  0  2  0  0  0  0  0  0
  192.2030  175.4260  136.9920 C   0  0  0  0  0  0  0  0  0  0  0  0
  192.8280  176.6590  137.5750 C   0  0  0  0  0  2  0  0  0  0  0  0
  193.7270  177.3280  139.6900 O   0  0  0  0  0  1  0  0  0  0  0  0
  193.7570  176.3150  138.7300 C   0  0  0  0  0  2  0  0  0  0  0  0
  190.3800  177.0630  141.6190 C   0  0  0  0  0  2  0  0  0  0  0  0
  190.4230  175.0480  142.8580 O   0  0  0  0  0  0  0  0  0  0  0  0
  189.9730  176.2220  142.7880 C   0  0  0  0  0  0  0  0  0  0  0  0
  187.2720  177.7720  145.7630 C   0  0  0  0  0  0  0  0  0  0  0  0
  187.6920  176.7930  143.5960 C   0  0  0  0  0  3  0  0  0  0  0  0
  190.9940  177.2900  145.4530 C   0  0  0  0  0  1  0  0  0  0  0  0
  186.3220  178.3010  146.7750 C   0  0  0  0  0  1  0  0  0  0  0  0
  186.7980  177.2890  144.5460 C   0  0  0  0  0  3  0  0  0  0  0  0
  189.5480  177.2610  145.0880 C   0  0  0  0  0  0  0  0  0  0  0  0
  189.0760  176.7660  143.8450 C   0  0  0  0  0  0  0  0  0  0  0  0
  188.6410  177.7570  146.0320 C   0  0  0  0  0  3  0  0  0  0  0  0
  1  9  2  0  0  0  0
  1  4  1  0  0  0  0
  2  8  2  0  0  0  0
  3  2  1  0  0  0  0
  3 10  2  0  0  0  0
  4 11  2  0  0  0  0
  5 21  1  1  0  0  0
  6  1  1  0  0  0  0
  7  5  1  0  0  0  0
  8  5  1  0  0  0  0
  9  3  1  0  0  0  0
 10  7  1  0  0  0  0
 11 10  1  0  0  0  0
 12  2  1  0  0  0  0
 13 14  1  0  0  0  0
 14 12  1  0  0  0  0
 15 13  1  0  0  0  0
 15 16  1  0  0  0  0
 16 17  1  0  0  0  0
 17 12  2  0  0  0  0
 17 18  1  0  0  0  0
 18 20  1  0  0  0  0
 20 19  1  0  0  0  0
 21 23  1  0  0  0  0
 23 22  2  0  0  0  0
 23 30  1  0  0  0  0
 24 31  1  0  0  0  0
 24 27  1  0  0  0  0
 25 30  2  0  0  0  0
 25 28  1  0  0  0  0
 28 24  2  0  0  0  0
 29 26  1  0  0  0  0
 29 31  2  0  0  0  0
 30 29  1  0  0  0  0
M  END
>  <MODEL>
4

>  <REMARK>
 VINA RESULT:      -7.9      1.515      2.229
  Name = 
  6 active torsions:
  status: ('A' for Active; 'I' for Inactive)
    1  A    between atoms: C_4  and  C_5
    2  A    between atoms: C_9  and  C_22
    3  A    between atoms: C_9  and  C_23
    4  A    between atoms: C_15  and  C_23
    5  A    between atoms: C_29  and  C_31
    6  A    between atoms: C_30  and  C_31
                            x       y       z     vdW  Elec       q    Type
                         _______ _______ _______ _____ _____    ______ ____

>  <TORSDO>
F 6

$$$$
=
 OpenBabel10272400253D

 31 34  0  0  1  0  0  0  0  0999 V2000
  188.7300  177.0690  146.8960 C   0  0  0  0  0  0  0  0  0  0  0  0
  187.2310  178.0060  143.5380 C   0  0  0  0  0  0  0  0  0  0  0  0
  188.1910  177.6630  144.6170 C   0  0  0  0  0  0  0  0  0  0  0  0
  190.0530  177.0680  146.5790 N   0  0  0  0  0  0  0  0  0  0  0  0
  188.9980  177.6560  141.9010 C   0  0  1  0  0  3  0  0  0  0  0  0
  188.3180  176.7650  148.2220 N   0  0  0  0  0  1  0  0  0  0  0  0
  190.0330  178.0620  142.9550 C   0  0  0  0  0  2  0  0  0  0  0  0
  187.6470  178.0520  142.3040 N   0  0  0  0  0  0  0  0  0  0  0  0
  187.7760  177.3730  145.9220 C   0  0  0  0  0  3  0  0  0  0  0  0
  189.5630  177.6530  144.3160 C   0  0  0  0  0  0  0  0  0  0  0  0
  190.4860  177.3590  145.3230 C   0  0  0  0  0  3  0  0  0  0  0  0
  185.8220  178.3490  143.8350 C   0  0  0  0  0  0  0  0  0  0  0  0
  184.0090  178.6590  145.5720 C   0  0  0  0  0  2  0  0  0  0  0  0
  185.4960  178.7490  145.2550 C   0  0  0  0  0  2  0  0  0  0  0  0
  183.2340  179.3990  144.4970 C   0  0  0  0  0  2  0  0  0  0  0  0
  183.4340  178.6900  143.1640 C   0  0  0  0  0  2  0  0  0  0  0  0
  184.8840  178.4050  142.8570 C   0  0  0  0  0  0  0  0  0  0  0  0
  185.2170  178.0960  141.4270 C   0  0  0  0  0  2  0  0  0  0  0  0
  184.7610  179.7960  139.8060 O   0  0  0  0  0  1  0  0  0  0  0  0
  184.1990  178.7080  140.4770 C   0  0  0  0  0  2  0  0  0  0  0  0
  189.3300  178.2690  140.5510 C   0  0  0  0  0  2  0  0  0  0  0  0
  190.0820  176.1740  139.7490 O   0  0  0  0  0  0  0  0  0  0  0  0
  189.4170  177.2130  139.4940 C   0  0  0  0  0  0  0  0  0  0  0  0
  187.2970  177.7390  135.7830 C   0  0  0  0  0  0  0  0  0  0  0  0
  187.3880  177.8220  138.1950 C   0  0  0  0  0  3  0  0  0  0  0  0
  190.7470  176.6350  136.8140 C   0  0  0  0  0  1  0  0  0  0  0  0
  186.5460  177.9270  134.5150 C   0  0  0  0  0  1  0  0  0  0  0  0
  186.6800  178.0010  137.0040 C   0  0  0  0  0  3  0  0  0  0  0  0
  189.3400  177.1160  136.9380 C   0  0  0  0  0  0  0  0  0  0  0  0
  188.7230  177.3810  138.1880 C   0  0  0  0  0  0  0  0  0  0  0  0
  188.6200  177.2980  135.7510 C   0  0  0  0  0  3  0  0  0  0  0  0
  1  6  1  0  0  0  0
  2 12  1  0  0  0  0
  2  3  1  0  0  0  0
  3  9  1  0  0  0  0
  4  1  1  0  0  0  0
  5 21  1  6  0  0  0
  5  8  1  0  0  0  0
  5  7  1  0  0  0  0
  7 10  1  0  0  0  0
  8  2  2  0  0  0  0
  9  1  2  0  0  0  0
 10  3  2  0  0  0  0
 10 11  1  0  0  0  0
 11  4  2  0  0  0  0
 12 14  1  0  0  0  0
 14 13  1  0  0  0  0
 15 13  1  0  0  0  0
 16 15  1  0  0  0  0
 17 16  1  0  0  0  0
 17 12  2  0  0  0  0
 18 17  1  0  0  0  0
 19 20  1  0  0  0  0
 20 18  1  0  0  0  0
 23 22  2  0  0  0  0
 23 21  1  0  0  0  0
 24 28  1  0  0  0  0
 26 29  1  0  0  0  0
 27 24  1  0  0  0  0
 28 25  2  0  0  0  0
 29 30  2  0  0  0  0
 30 25  1  0  0  0  0
 30 23  1  0  0  0  0
 31 24  2  0  0  0  0
 31 29  1  0  0  0  0
M  END
>  <MODEL>
5

>  <REMARK>
 VINA RESULT:      -7.8      3.184      8.909
  Name = 
  6 active torsions:
  status: ('A' for Active; 'I' for Inactive)
    1  A    between atoms: C_4  and  C_5
    2  A    between atoms: C_9  and  C_22
    3  A    between atoms: C_9  and  C_23
    4  A    between atoms: C_15  and  C_23
    5  A    between atoms: C_29  and  C_31
    6  A    between atoms: C_30  and  C_31
                            x       y       z     vdW  Elec       q    Type
                         _______ _______ _______ _____ _____    ______ ____

>  <TORSDO>
F 6

$$$$
=
 OpenBabel10272400253D

 31 34  0  0  1  0  0  0  0  0999 V2000
  188.8920  177.0770  146.2280 C   0  0  0  0  0  0  0  0  0  0  0  0
  186.9770  178.0990  143.1150 C   0  0  0  0  0  0  0  0  0  0  0  0
  188.0680  177.7370  144.0550 C   0  0  0  0  0  0  0  0  0  0  0  0
  190.1650  177.1080  145.7500 N   0  0  0  0  0  0  0  0  0  0  0  0
  188.5320  177.8330  141.2620 C   0  0  1  0  0  3  0  0  0  0  0  0
  188.6510  176.7220  147.5830 N   0  0  0  0  0  1  0  0  0  0  0  0
  189.6850  178.2210  142.1940 C   0  0  0  0  0  2  0  0  0  0  0  0
  187.2360  178.1940  141.8420 N   0  0  0  0  0  0  0  0  0  0  0  0
  187.8210  177.3970  145.3900 C   0  0  0  0  0  3  0  0  0  0  0  0
  189.3920  177.7600  143.5870 C   0  0  0  0  0  0  0  0  0  0  0  0
  190.4360  177.4480  144.4610 C   0  0  0  0  0  3  0  0  0  0  0  0
  185.6120  178.4090  143.5960 C   0  0  0  0  0  0  0  0  0  0  0  0
  184.0510  178.7420  145.5590 C   0  0  0  0  0  2  0  0  0  0  0  0
  185.4740  178.8660  145.0290 C   0  0  0  0  0  2  0  0  0  0  0  0
  183.1040  179.4030  144.5750 C   0  0  0  0  0  2  0  0  0  0  0  0
  183.1410  178.6370  143.2580 C   0  0  0  0  0  2  0  0  0  0  0  0
  184.5430  178.3870  142.7600 C   0  0  0  0  0  0  0  0  0  0  0  0
  184.6830  178.0210  141.3120 C   0  0  0  0  0  2  0  0  0  0  0  0
  184.9520  179.6070  139.5410 O   0  0  0  0  0  1  0  0  0  0  0  0
  184.0160  179.0520  140.4130 C   0  0  0  0  0  2  0  0  0  0  0  0
  188.6870  178.4970  139.9030 C   0  0  0  0  0  2  0  0  0  0  0  0
  187.2700  177.2220  138.5000 O   0  0  0  0  0  0  0  0  0  0  0  0
  188.4590  177.5100  138.8010 C   0  0  0  0  0  0  0  0  0  0  0  0
  191.8240  175.7050  136.8090 C   0  0  0  0  0  0  0  0  0  0  0  0
  190.5660  176.1920  138.8130 C   0  0  0  0  0  3  0  0  0  0  0  0
  188.8280  177.7440  135.7850 C   0  0  0  0  0  1  0  0  0  0  0  0
  192.9930  175.0740  136.1440 C   0  0  0  0  0  1  0  0  0  0  0  0
  191.6650  175.5980  138.1890 C   0  0  0  0  0  3  0  0  0  0  0  0
  189.7790  177.0060  136.6670 C   0  0  0  0  0  0  0  0  0  0  0  0
  189.6060  176.9030  138.0710 C   0  0  0  0  0  0  0  0  0  0  0  0
  190.8850  176.4070  136.0530 C   0  0  0  0  0  3  0  0  0  0  0  0
  1  6  1  0  0  0  0
  2 12  1  0  0  0  0
  2  3  1  0  0  0  0
  3  9  1  0  0  0  0
  4  1  1  0  0  0  0
  5 21  1  6  0  0  0
  5  8  1  0  0  0  0
  5  7  1  0  0  0  0
  7 10  1  0  0  0  0
  8  2  2  0  0  0  0
  9  1  2  0  0  0  0
 10  3  2  0  0  0  0
 10 11  1  0  0  0  0
 11  4  2  0  0  0  0
 12 14  1  0  0  0  0
 14 13  1  0  0  0  0
 15 13  1  0  0  0  0
 16 15  1  0  0  0  0
 17 16  1  0  0  0  0
 17 12  2  0  0  0  0
 18 17  1  0  0  0  0
 19 20  1  0  0  0  0
 20 18  1  0  0  0  0
 22 23  2  0  0  0  0
 23 21  1  0  0  0  0
 24 28  1  0  0  0  0
 26 29  1  0  0  0  0
 27 24  1  0  0  0  0
 28 25  2  0  0  0  0
 29 30  2  0  0  0  0
 30 23  1  0  0  0  0
 30 25  1  0  0  0  0
 31 29  1  0  0  0  0
 31 24  2  0  0  0  0
M  END
>  <MODEL>
6

>  <REMARK>
 VINA RESULT:      -7.6      3.126      8.985
  Name = 
  6 active torsions:
  status: ('A' for Active; 'I' for Inactive)
    1  A    between atoms: C_4  and  C_5
    2  A    between atoms: C_9  and  C_22
    3  A    between atoms: C_9  and  C_23
    4  A    between atoms: C_15  and  C_23
    5  A    between atoms: C_29  and  C_31
    6  A    between atoms: C_30  and  C_31
                            x       y       z     vdW  Elec       q    Type
                         _______ _______ _______ _____ _____    ______ ____

>  <TORSDO>
F 6

$$$$
=
 OpenBabel10272400253D

 31 34  0  0  1  0  0  0  0  0999 V2000
  186.5170  178.6450  146.8940 C   0  0  0  0  0  0  0  0  0  0  0  0
  186.5410  177.9820  143.1570 C   0  0  0  0  0  0  0  0  0  0  0  0
  186.1000  178.2960  144.5400 C   0  0  0  0  0  0  0  0  0  0  0  0
  185.1880  178.8540  147.0940 N   0  0  0  0  0  0  0  0  0  0  0  0
  184.3890  178.7640  142.3300 C   0  0  1  0  0  3  0  0  0  0  0  0
  187.4200  178.7170  147.9890 N   0  0  0  0  0  1  0  0  0  0  0  0
  183.7470  178.3540  143.6600 C   0  0  0  0  0  2  0  0  0  0  0  0
  185.7100  178.1520  142.1680 N   0  0  0  0  0  0  0  0  0  0  0  0
  186.9960  178.3560  145.6140 C   0  0  0  0  0  3  0  0  0  0  0  0
  184.7330  178.5170  144.7740 C   0  0  0  0  0  0  0  0  0  0  0  0
  184.2920  178.7870  146.0720 C   0  0  0  0  0  3  0  0  0  0  0  0
  187.8850  177.4290  142.8800 C   0  0  0  0  0  0  0  0  0  0  0  0
  189.9020  176.1620  143.7310 C   0  0  0  0  0  2  0  0  0  0  0  0
  188.3940  176.3560  143.8130 C   0  0  0  0  0  2  0  0  0  0  0  0
  190.2960  175.9920  142.2750 C   0  0  0  0  0  2  0  0  0  0  0  0
  189.9860  177.2810  141.5240 C   0  0  0  0  0  2  0  0  0  0  0  0
  188.5890  177.7920  141.7780 C   0  0  0  0  0  0  0  0  0  0  0  0
  188.0530  178.7920  140.7960 C   0  0  0  0  0  2  0  0  0  0  0  0
  188.9840  178.9970  138.6010 O   0  0  0  0  0  1  0  0  0  0  0  0
  188.0950  178.2490  139.3750 C   0  0  0  0  0  2  0  0  0  0  0  0
  183.5000  178.3810  141.1580 C   0  0  0  0  0  2  0  0  0  0  0  0
  184.8570  179.9090  139.9660 O   0  0  0  0  0  0  0  0  0  0  0  0
  183.7890  179.2420  139.9690 C   0  0  0  0  0  0  0  0  0  0  0  0
  181.0100  179.5000  136.6890 C   0  0  0  0  0  0  0  0  0  0  0  0
  181.9040  180.3340  138.7720 C   0  0  0  0  0  3  0  0  0  0  0  0
  183.8040  177.1920  137.7140 C   0  0  0  0  0  1  0  0  0  0  0  0
  180.0420  179.6090  135.5680 C   0  0  0  0  0  1  0  0  0  0  0  0
  180.9930  180.4380  137.7190 C   0  0  0  0  0  3  0  0  0  0  0  0
  182.8540  178.3420  137.7630 C   0  0  0  0  0  0  0  0  0  0  0  0
  182.8480  179.2930  138.8170 C   0  0  0  0  0  0  0  0  0  0  0  0
  181.9360  178.4570  136.7130 C   0  0  0  0  0  3  0  0  0  0  0  0
  1  4  1  0  0  0  0
  1  6  1  0  0  0  0
  2  3  1  0  0  0  0
  3 10  2  0  0  0  0
  3  9  1  0  0  0  0
  5 21  1  6  0  0  0
  5  7  1  0  0  0  0
  7 10  1  0  0  0  0
  8  5  1  0  0  0  0
  8  2  2  0  0  0  0
  9  1  2  0  0  0  0
 10 11  1  0  0  0  0
 11  4  2  0  0  0  0
 12  2  1  0  0  0  0
 12 14  1  0  0  0  0
 13 14  1  0  0  0  0
 15 13  1  0  0  0  0
 16 17  1  0  0  0  0
 16 15  1  0  0  0  0
 17 12  2  0  0  0  0
 18 17  1  0  0  0  0
 19 20  1  0  0  0  0
 20 18  1  0  0  0  0
 22 23  2  0  0  0  0
 23 21  1  0  0  0  0
 24 31  2  0  0  0  0
 24 28  1  0  0  0  0
 25 30  1  0  0  0  0
 26 29  1  0  0  0  0
 27 24  1  0  0  0  0
 28 25  2  0  0  0  0
 29 30  2  0  0  0  0
 30 23  1  0  0  0  0
 31 29  1  0  0  0  0
M  END
>  <MODEL>
7

>  <REMARK>
 VINA RESULT:      -7.6      4.735      8.628
  Name = 
  6 active torsions:
  status: ('A' for Active; 'I' for Inactive)
    1  A    between atoms: C_4  and  C_5
    2  A    between atoms: C_9  and  C_22
    3  A    between atoms: C_9  and  C_23
    4  A    between atoms: C_15  and  C_23
    5  A    between atoms: C_29  and  C_31
    6  A    between atoms: C_30  and  C_31
                            x       y       z     vdW  Elec       q    Type
                         _______ _______ _______ _____ _____    ______ ____

>  <TORSDO>
F 6

$$$$
=
 OpenBabel10272400253D

 31 34  0  0  1  0  0  0  0  0999 V2000
  184.5410  178.8980  144.3200 C   0  0  0  0  0  0  0  0  0  0  0  0
  188.1720  178.0050  143.6730 C   0  0  0  0  0  0  0  0  0  0  0  0
  186.7390  178.3440  143.4840 C   0  0  0  0  0  0  0  0  0  0  0  0
  184.0700  178.9350  143.0450 N   0  0  0  0  0  0  0  0  0  0  0  0
  188.5480  178.4300  141.3060 C   0  0  1  0  0  3  0  0  0  0  0  0
  183.6660  179.1630  145.4090 N   0  0  0  0  0  1  0  0  0  0  0  0
  187.0990  178.0230  141.0190 C   0  0  0  0  0  2  0  0  0  0  0  0
  188.9670  177.9950  142.6400 N   0  0  0  0  0  0  0  0  0  0  0  0
  185.8830  178.5950  144.5630 C   0  0  0  0  0  3  0  0  0  0  0  0
  186.2260  178.3910  142.1780 C   0  0  0  0  0  0  0  0  0  0  0  0
  184.8750  178.6810  141.9790 C   0  0  0  0  0  3  0  0  0  0  0  0
  188.7100  177.6240  144.9980 C   0  0  0  0  0  0  0  0  0  0  0  0
  188.4130  177.6040  147.5100 C   0  0  0  0  0  2  0  0  0  0  0  0
  187.7320  177.5700  146.1480 C   0  0  0  0  0  2  0  0  0  0  0  0
  189.5050  176.5500  147.5380 C   0  0  0  0  0  2  0  0  0  0  0  0
  190.5720  176.9130  146.5140 C   0  0  0  0  0  2  0  0  0  0  0  0
  190.0020  177.2390  145.1560 C   0  0  0  0  0  0  0  0  0  0  0  0
  190.9590  177.2040  144.0010 C   0  0  0  0  0  2  0  0  0  0  0  0
  190.4820  175.0970  142.9710 O   0  0  0  0  0  1  0  0  0  0  0  0
  191.4370  175.7860  143.7210 C   0  0  0  0  0  2  0  0  0  0  0  0
  189.4910  177.8550  140.2610 C   0  0  0  0  0  2  0  0  0  0  0  0
  188.9820  179.3400  138.4910 O   0  0  0  0  0  0  0  0  0  0  0  0
  188.9920  178.1420  138.8800 C   0  0  0  0  0  0  0  0  0  0  0  0
  187.8010  174.8960  136.3130 C   0  0  0  0  0  0  0  0  0  0  0  0
  189.4380  175.9970  137.7050 C   0  0  0  0  0  3  0  0  0  0  0  0
  186.2140  178.0470  137.6300 C   0  0  0  0  0  1  0  0  0  0  0  0
  187.4130  173.7660  135.4300 C   0  0  0  0  0  1  0  0  0  0  0  0
  189.0750  174.9340  136.8770 C   0  0  0  0  0  3  0  0  0  0  0  0
  187.2440  176.9900  137.4070 C   0  0  0  0  0  0  0  0  0  0  0  0
  188.5380  177.0400  137.9880 C   0  0  0  0  0  0  0  0  0  0  0  0
  186.8920  175.9200  136.5770 C   0  0  0  0  0  3  0  0  0  0  0  0
  1  9  1  0  0  0  0
  1  6  1  0  0  0  0
  2 12  1  0  0  0  0
  3  2  1  0  0  0  0
  3  9  2  0  0  0  0
  4  1  2  0  0  0  0
  5 21  1  6  0  0  0
  5  8  1  0  0  0  0
  7  5  1  0  0  0  0
  7 10  1  0  0  0  0
  8  2  2  0  0  0  0
 10  3  1  0  0  0  0
 11 10  2  0  0  0  0
 11  4  1  0  0  0  0
 12 17  2  0  0  0  0
 12 14  1  0  0  0  0
 13 15  1  0  0  0  0
 14 13  1  0  0  0  0
 16 15  1  0  0  0  0
 17 16  1  0  0  0  0
 18 17  1  0  0  0  0
 19 20  1  0  0  0  0
 20 18  1  0  0  0  0
 22 23  2  0  0  0  0
 23 21  1  0  0  0  0
 24 31  2  0  0  0  0
 24 28  1  0  0  0  0
 25 30  1  0  0  0  0
 27 24  1  0  0  0  0
 28 25  2  0  0  0  0
 29 26  1  0  0  0  0
 29 30  2  0  0  0  0
 30 23  1  0  0  0  0
 31 29  1  0  0  0  0
M  END
>  <MODEL>
8

>  <REMARK>
 VINA RESULT:      -7.4      3.072      8.202
  Name = 
  6 active torsions:
  status: ('A' for Active; 'I' for Inactive)
    1  A    between atoms: C_4  and  C_5
    2  A    between atoms: C_9  and  C_22
    3  A    between atoms: C_9  and  C_23
    4  A    between atoms: C_15  and  C_23
    5  A    between atoms: C_29  and  C_31
    6  A    between atoms: C_30  and  C_31
                            x       y       z     vdW  Elec       q    Type
                         _______ _______ _______ _____ _____    ______ ____

>  <TORSDO>
F 6

$$$$
=
 OpenBabel10272400253D

 31 34  0  0  1  0  0  0  0  0999 V2000
  190.7220  177.3360  141.4190 C   0  0  0  0  0  0  0  0  0  0  0  0
  187.6810  177.7730  143.6460 C   0  0  0  0  0  0  0  0  0  0  0  0
  188.5880  177.7520  142.4700 C   0  0  0  0  0  0  0  0  0  0  0  0
  190.2210  177.7780  140.2340 N   0  0  0  0  0  0  0  0  0  0  0  0
  185.7900  178.0540  142.1390 C   0  0  1  0  0  3  0  0  0  0  0  0
  192.0710  176.8920  141.4970 N   0  0  0  0  0  1  0  0  0  0  0  0
  186.7110  178.7650  141.1410 C   0  0  0  0  0  2  0  0  0  0  0  0
  186.4060  177.9740  143.4650 N   0  0  0  0  0  0  0  0  0  0  0  0
  189.9160  177.3200  142.5590 C   0  0  0  0  0  3  0  0  0  0  0  0
  188.0950  178.2020  141.2340 C   0  0  0  0  0  0  0  0  0  0  0  0
  188.9380  178.2170  140.1210 C   0  0  0  0  0  3  0  0  0  0  0  0
  188.1970  177.6240  145.0250 C   0  0  0  0  0  0  0  0  0  0  0  0
  190.1500  177.0820  146.5390 C   0  0  0  0  0  2  0  0  0  0  0  0
  189.6970  177.6630  145.2060 C   0  0  0  0  0  2  0  0  0  0  0  0
  189.3460  177.7270  147.6530 C   0  0  0  0  0  2  0  0  0  0  0  0
  187.8800  177.3450  147.4930 C   0  0  0  0  0  2  0  0  0  0  0  0
  187.3630  177.5620  146.0920 C   0  0  0  0  0  0  0  0  0  0  0  0
  185.8720  177.6130  145.9300 C   0  0  0  0  0  2  0  0  0  0  0  0
  184.0090  179.1140  145.9380 O   0  0  0  0  0  1  0  0  0  0  0  0
  185.3070  178.9390  146.4190 C   0  0  0  0  0  2  0  0  0  0  0  0
  184.4500  178.7640  142.2400 C   0  0  0  0  0  2  0  0  0  0  0  0
  184.1530  179.8120  140.1400 O   0  0  0  0  0  0  0  0  0  0  0  0
  183.8010  178.8680  140.8950 C   0  0  0  0  0  0  0  0  0  0  0  0
  180.9530  175.9200  139.5730 C   0  0  0  0  0  0  0  0  0  0  0  0
  183.2070  176.7810  139.6820 C   0  0  0  0  0  3  0  0  0  0  0  0
  180.8450  179.0920  141.6000 C   0  0  0  0  0  1  0  0  0  0  0  0
  179.9890  174.8910  139.1050 C   0  0  0  0  0  1  0  0  0  0  0  0
  182.3030  175.8130  139.2430 C   0  0  0  0  0  3  0  0  0  0  0  0
  181.4060  177.9720  140.7890 C   0  0  0  0  0  0  0  0  0  0  0  0
  182.7830  177.8730  140.4600 C   0  0  0  0  0  0  0  0  0  0  0  0
  180.5080  176.9950  140.3420 C   0  0  0  0  0  3  0  0  0  0  0  0
  1  6  1  0  0  0  0
  1  9  1  0  0  0  0
  2 12  1  0  0  0  0
  3  9  2  0  0  0  0
  3  2  1  0  0  0  0
  4  1  2  0  0  0  0
  5 21  1  1  0  0  0
  5  8  1  0  0  0  0
  7 10  1  0  0  0  0
  7  5  1  0  0  0  0
  8  2  2  0  0  0  0
 10  3  1  0  0  0  0
 11  4  1  0  0  0  0
 11 10  2  0  0  0  0
 12 14  1  0  0  0  0
 12 17  2  0  0  0  0
 13 15  1  0  0  0  0
 14 13  1  0  0  0  0
 16 15  1  0  0  0  0
 17 16  1  0  0  0  0
 18 17  1  0  0  0  0
 18 20  1  0  0  0  0
 19 20  1  0  0  0  0
 22 23  2  0  0  0  0
 23 21  1  0  0  0  0
 24 31  1  0  0  0  0
 25 30  2  0  0  0  0
 27 24  1  0  0  0  0
 28 24  2  0  0  0  0
 28 25  1  0  0  0  0
 29 26  1  0  0  0  0
 30 29  1  0  0  0  0
 30 23  1  0  0  0  0
 31 29  2  0  0  0  0
M  END
>  <MODEL>
9

>  <REMARK>
 VINA RESULT:      -7.4      4.398      8.395
  Name = 
  6 active torsions:
  status: ('A' for Active; 'I' for Inactive)
    1  A    between atoms: C_4  and  C_5
    2  A    between atoms: C_9  and  C_22
    3  A    between atoms: C_9  and  C_23
    4  A    between atoms: C_15  and  C_23
    5  A    between atoms: C_29  and  C_31
    6  A    between atoms: C_30  and  C_31
                            x       y       z     vdW  Elec       q    Type
                         _______ _______ _______ _____ _____    ______ ____

>  <TORSDO>
F 6

$$$$
