=
 OpenBabel10272413433D

 30 33  0  0  1  0  0  0  0  0999 V2000
  190.4600  176.0690  135.7160 C   0  0  0  0  0  0  0  0  0  0  0  0
  188.9230  174.0740  135.2890 C   0  0  1  0  0  3  0  0  0  0  0  0
  187.4770  176.0940  136.9630 C   0  0  1  0  0  3  0  0  0  0  0  0
  190.5330  176.5240  137.1890 C   0  0  2  0  0  3  0  0  0  0  0  0
  191.5440  175.9170  134.9220 C   0  0  0  0  0  3  0  0  0  0  0  0
  194.7830  174.8720  136.2140 O   0  0  0  0  0  0  0  0  0  0  0  0
  193.3900  174.8100  136.1130 C   0  0  2  0  0  3  0  0  0  0  0  0
  193.9840  176.1590  134.3460 C   0  0  0  0  0  2  0  0  0  0  0  0
  187.3240  177.2660  137.8400 N   0  0  0  0  0  0  0  0  0  0  0  0
  192.9470  176.0630  135.4110 C   0  0  1  0  0  3  0  0  0  0  0  0
  192.6770  174.4730  137.4330 C   0  0  0  0  0  2  0  0  0  0  0  0
  187.5530  173.6670  134.7570 C   0  0  0  0  0  2  0  0  0  0  0  0
  196.2600  176.5160  135.2930 C   0  0  0  0  0  1  0  0  0  0  0  0
  189.9790  173.2640  134.5570 C   0  0  0  0  0  1  0  0  0  0  0  0
  186.2200  175.2400  136.9610 C   0  0  0  0  0  2  0  0  0  0  0  0
  186.6900  173.0050  135.8310 C   0  0  0  0  0  2  0  0  0  0  0  0
  195.1870  175.4840  135.0040 C   0  0  1  0  0  3  0  0  0  0  0  0
  189.1490  175.5930  135.1150 C   0  0  1  0  0  3  0  0  0  0  0  0
  189.7540  177.8270  137.3890 C   0  0  0  0  0  2  0  0  0  0  0  0
  186.6760  178.3890  137.1680 C   0  0  0  0  0  1  0  0  0  0  0  0
  188.6060  177.7130  138.4070 C   0  0  2  0  0  3  0  0  0  0  0  0
  191.8470  176.7740  137.6250 O   0  0  0  0  0  0  0  0  0  0  0  0
  186.6100  173.7810  137.1480 C   0  0  0  0  0  2  0  0  0  0  0  0
  187.9380  176.4350  135.5380 C   0  0  0  0  0  2  0  0  0  0  0  0
  192.3030  175.6550  138.3410 C   0  0  0  0  0  2  0  0  0  0  0  0
  188.9780  176.9160  139.6570 C   0  0  0  0  0  2  0  0  0  0  0  0
  189.0660  177.8090  140.8860 C   0  0  1  0  0  3  0  0  0  0  0  0
  187.6910  178.3720  141.1770 C   0  0  0  0  0  1  0  0  0  0  0  0
  189.5380  177.0180  142.0960 C   0  0  0  0  0  2  0  0  0  0  0  0
  188.3620  176.6310  142.9740 C   0  0  0  0  0  1  0  0  0  0  0  0
  1  4  1  0  0  0  0
  2 14  1  6  0  0  0
  3 24  1  6  0  0  0
  3  9  1  0  0  0  0
  4 19  1  6  0  0  0
  4 22  1  0  0  0  0
  5 10  1  0  0  0  0
  5  1  2  0  0  0  0
  7  6  1  0  0  0  0
  7 11  1  1  0  0  0
  8 17  1  0  0  0  0
  9 21  1  0  0  0  0
 10  8  1  6  0  0  0
 10  7  1  0  0  0  0
 11 25  1  0  0  0  0
 12  2  1  0  0  0  0
 12 16  1  0  0  0  0
 15  3  1  0  0  0  0
 15 23  1  0  0  0  0
 16 23  1  0  0  0  0
 17 13  1  1  0  0  0
 17  6  1  0  0  0  0
 18  2  1  0  0  0  0
 18 24  1  1  0  0  0
 18  1  1  0  0  0  0
 19 21  1  0  0  0  0
 20  9  1  0  0  0  0
 21 26  1  1  0  0  0
 22 25  1  0  0  0  0
 26 27  1  0  0  0  0
 27 28  1  1  0  0  0
 27 29  1  0  0  0  0
 29 30  1  0  0  0  0
M  END
>  <MODEL>
1

>  <REMARK>
 VINA RESULT:      -5.8      0.000      0.000
  Name = 
  3 active torsions:
  status: ('A' for Active; 'I' for Inactive)
    1  A    between atoms: C_7  and  C_10
    2  A    between atoms: C_7  and  C_15
    3  A    between atoms: C_10  and  C_25
                            x       y       z     vdW  Elec       q    Type
                         _______ _______ _______ _____ _____    ______ ____

>  <TORSDO>
F 3

$$$$
=
 OpenBabel10272413433D

 30 33  0  0  1  0  0  0  0  0999 V2000
  185.4170  178.7740  139.8830 C   0  0  0  0  0  0  0  0  0  0  0  0
  185.8140  178.0720  142.3060 C   0  0  1  0  0  3  0  0  0  0  0  0
  188.2690  177.4830  140.6930 C   0  0  1  0  0  3  0  0  0  0  0  0
  185.8080  177.7140  138.8310 C   0  0  2  0  0  3  0  0  0  0  0  0
  184.2590  179.4710  139.8520 C   0  0  0  0  0  3  0  0  0  0  0  0
  181.1690  178.0730  138.5310 O   0  0  0  0  0  0  0  0  0  0  0  0
  182.3490  178.0310  139.2770 C   0  0  2  0  0  3  0  0  0  0  0  0
  182.1190  180.2680  138.7870 C   0  0  0  0  0  2  0  0  0  0  0  0
  189.0720  177.2730  139.4790 N   0  0  0  0  0  0  0  0  0  0  0  0
  183.1730  179.2160  138.8600 C   0  0  1  0  0  3  0  0  0  0  0  0
  183.0550  176.6650  139.2630 C   0  0  0  0  0  2  0  0  0  0  0  0
  186.7480  178.2400  143.5000 C   0  0  0  0  0  2  0  0  0  0  0  0
  180.4370  179.7780  137.0170 C   0  0  0  0  0  1  0  0  0  0  0  0
  184.4000  178.3950  142.7570 C   0  0  0  0  0  1  0  0  0  0  0  0
  188.9970  176.9810  141.9300 C   0  0  0  0  0  2  0  0  0  0  0  0
  187.4000  176.9200  143.9140 C   0  0  0  0  0  2  0  0  0  0  0  0
  180.8750  179.4540  138.4330 C   0  0  1  0  0  3  0  0  0  0  0  0
  186.2560  178.9730  141.1320 C   0  0  1  0  0  3  0  0  0  0  0  0
  187.1040  178.1140  138.1210 C   0  0  0  0  0  2  0  0  0  0  0  0
  190.0240  178.3560  139.2420 C   0  0  0  0  0  1  0  0  0  0  0  0
  188.2400  177.0870  138.2800 C   0  0  2  0  0  3  0  0  0  0  0  0
  184.8380  177.5490  137.8260 O   0  0  0  0  0  0  0  0  0  0  0  0
  188.0400  176.1410  142.7630 C   0  0  0  0  0  2  0  0  0  0  0  0
  187.7680  178.9240  140.8710 C   0  0  0  0  0  2  0  0  0  0  0  0
  184.0640  176.4170  138.1300 C   0  0  0  0  0  2  0  0  0  0  0  0
  187.7750  175.6380  138.1360 C   0  0  0  0  0  2  0  0  0  0  0  0
  187.5720  175.2570  136.6770 C   0  0  1  0  0  3  0  0  0  0  0  0
  188.8280  175.6020  135.9050 C   0  0  0  0  0  1  0  0  0  0  0  0
  187.3070  173.7660  136.5400 C   0  0  0  0  0  2  0  0  0  0  0  0
  186.0950  173.3600  137.3580 C   0  0  0  0  0  1  0  0  0  0  0  0
  1 18  1  0  0  0  0
  2 14  1  1  0  0  0
  2 12  1  0  0  0  0
  3 24  1  1  0  0  0
  3 15  1  0  0  0  0
  4 19  1  6  0  0  0
  4  1  1  0  0  0  0
  5  1  2  0  0  0  0
  6  7  1  0  0  0  0
  7 11  1  6  0  0  0
  9  3  1  0  0  0  0
 10  8  1  1  0  0  0
 10  7  1  0  0  0  0
 10  5  1  0  0  0  0
 12 16  1  0  0  0  0
 15 23  1  0  0  0  0
 17 13  1  6  0  0  0
 17  6  1  0  0  0  0
 17  8  1  0  0  0  0
 18 24  1  6  0  0  0
 18  2  1  0  0  0  0
 19 21  1  0  0  0  0
 20  9  1  0  0  0  0
 21 26  1  1  0  0  0
 21  9  1  0  0  0  0
 22 25  1  0  0  0  0
 22  4  1  0  0  0  0
 23 16  1  0  0  0  0
 25 11  1  0  0  0  0
 27 28  1  6  0  0  0
 27 26  1  0  0  0  0
 29 27  1  0  0  0  0
 29 30  1  0  0  0  0
M  END
>  <MODEL>
2

>  <REMARK>
 VINA RESULT:      -5.1      3.694      8.703
  Name = 
  3 active torsions:
  status: ('A' for Active; 'I' for Inactive)
    1  A    between atoms: C_7  and  C_10
    2  A    between atoms: C_7  and  C_15
    3  A    between atoms: C_10  and  C_25
                            x       y       z     vdW  Elec       q    Type
                         _______ _______ _______ _____ _____    ______ ____

>  <TORSDO>
F 3

$$$$
=
 OpenBabel10272413433D

 30 33  0  0  1  0  0  0  0  0999 V2000
  191.3840  174.7640  135.1110 C   0  0  0  0  0  0  0  0  0  0  0  0
  190.2470  172.4770  135.0980 C   0  0  1  0  0  3  0  0  0  0  0  0
  188.2330  174.5780  135.8090 C   0  0  1  0  0  3  0  0  0  0  0  0
  191.0930  175.6230  136.3600 C   0  0  2  0  0  3  0  0  0  0  0  0
  192.6190  174.6000  134.5840 C   0  0  0  0  0  3  0  0  0  0  0  0
  195.6330  174.5950  136.6230 O   0  0  0  0  0  0  0  0  0  0  0  0
  194.3120  174.2460  136.3330 C   0  0  2  0  0  3  0  0  0  0  0  0
  195.0710  175.1250  134.3460 C   0  0  0  0  0  2  0  0  0  0  0  0
  187.7490  175.8990  136.2400 N   0  0  0  0  0  0  0  0  0  0  0  0
  193.8590  175.1410  135.2140 C   0  0  1  0  0  3  0  0  0  0  0  0
  193.3950  174.1680  137.5640 C   0  0  0  0  0  2  0  0  0  0  0  0
  189.0810  171.6850  134.5150 C   0  0  0  0  0  2  0  0  0  0  0  0
  197.0360  176.1580  135.4740 C   0  0  0  0  0  1  0  0  0  0  0  0
  191.5280  171.7080  134.8310 C   0  0  0  0  0  1  0  0  0  0  0  0
  187.1280  173.5370  135.8800 C   0  0  0  0  0  2  0  0  0  0  0  0
  188.1120  171.2040  135.5960 C   0  0  0  0  0  2  0  0  0  0  0  0
  196.1920  174.9030  135.3610 C   0  0  1  0  0  3  0  0  0  0  0  0
  190.3000  173.8980  134.4950 C   0  0  1  0  0  3  0  0  0  0  0  0
  190.1240  176.7580  136.0170 C   0  0  0  0  0  2  0  0  0  0  0  0
  187.1100  176.6420  135.1570 C   0  0  0  0  0  1  0  0  0  0  0  0
  188.8160  176.7230  136.8290 C   0  0  2  0  0  3  0  0  0  0  0  0
  192.2440  176.2300  136.8940 O   0  0  0  0  0  0  0  0  0  0  0  0
  187.6620  172.2920  136.5740 C   0  0  0  0  0  2  0  0  0  0  0  0
  188.9270  174.5810  134.4390 C   0  0  0  0  0  2  0  0  0  0  0  0
  192.6890  175.4660  137.9860 C   0  0  0  0  0  2  0  0  0  0  0  0
  189.0270  176.3980  138.3080 C   0  0  0  0  0  2  0  0  0  0  0  0
  189.6390  177.5720  139.0580 C   0  0  1  0  0  3  0  0  0  0  0  0
  188.9670  178.8470  138.5950 C   0  0  0  0  0  1  0  0  0  0  0  0
  189.4300  177.4240  140.5570 C   0  0  0  0  0  2  0  0  0  0  0  0
  190.7600  177.2670  141.2700 C   0  0  0  0  0  1  0  0  0  0  0  0
  1  4  1  0  0  0  0
  2 14  1  6  0  0  0
  3 24  1  6  0  0  0
  3 15  1  0  0  0  0
  3  9  1  0  0  0  0
  4 19  1  6  0  0  0
  4 22  1  0  0  0  0
  5  1  2  0  0  0  0
  5 10  1  0  0  0  0
  7  6  1  0  0  0  0
  7 11  1  1  0  0  0
  8 17  1  0  0  0  0
  9 21  1  0  0  0  0
 10  8  1  6  0  0  0
 10  7  1  0  0  0  0
 11 25  1  0  0  0  0
 12  2  1  0  0  0  0
 12 16  1  0  0  0  0
 15 23  1  0  0  0  0
 16 23  1  0  0  0  0
 17 13  1  1  0  0  0
 17  6  1  0  0  0  0
 18 24  1  1  0  0  0
 18  2  1  0  0  0  0
 18  1  1  0  0  0  0
 19 21  1  0  0  0  0
 20  9  1  0  0  0  0
 21 26  1  1  0  0  0
 22 25  1  0  0  0  0
 26 27  1  0  0  0  0
 27 28  1  6  0  0  0
 27 29  1  0  0  0  0
 29 30  1  0  0  0  0
M  END
>  <MODEL>
3

>  <REMARK>
 VINA RESULT:      -5.1      1.402      1.883
  Name = 
  3 active torsions:
  status: ('A' for Active; 'I' for Inactive)
    1  A    between atoms: C_7  and  C_10
    2  A    between atoms: C_7  and  C_15
    3  A    between atoms: C_10  and  C_25
                            x       y       z     vdW  Elec       q    Type
                         _______ _______ _______ _____ _____    ______ ____

>  <TORSDO>
F 3

$$$$
=
 OpenBabel10272413433D

 30 33  0  0  1  0  0  0  0  0999 V2000
  182.0060  178.1740  138.7450 C   0  0  0  0  0  0  0  0  0  0  0  0
  181.1710  180.1290  137.3300 C   0  0  1  0  0  3  0  0  0  0  0  0
  180.9210  177.5930  135.7550 C   0  0  1  0  0  3  0  0  0  0  0  0
  182.9930  177.2300  138.0240 C   0  0  2  0  0  3  0  0  0  0  0  0
  182.1930  178.6390  140.0010 C   0  0  0  0  0  3  0  0  0  0  0  0
  185.5000  179.2850  141.3760 O   0  0  0  0  0  0  0  0  0  0  0  0
  184.5260  179.3240  140.3760 C   0  0  2  0  0  3  0  0  0  0  0  0
  183.3320  178.7110  142.2460 C   0  0  0  0  0  2  0  0  0  0  0  0
  181.1610  176.1820  135.4140 N   0  0  0  0  0  0  0  0  0  0  0  0
  183.4300  178.3850  140.7950 C   0  0  1  0  0  3  0  0  0  0  0  0
  185.0760  179.1450  138.9520 C   0  0  0  0  0  2  0  0  0  0  0  0
  179.9880  180.6440  136.5170 C   0  0  0  0  0  2  0  0  0  0  0  0
  185.4210  178.1320  143.4730 C   0  0  0  0  0  1  0  0  0  0  0  0
  181.5430  181.1860  138.3550 C   0  0  0  0  0  1  0  0  0  0  0  0
  180.2970  178.3430  134.5890 C   0  0  0  0  0  2  0  0  0  0  0  0
  180.3440  180.8500  135.0440 C   0  0  0  0  0  2  0  0  0  0  0  0
  184.7570  179.1570  142.5730 C   0  0  1  0  0  3  0  0  0  0  0  0
  180.8300  178.7810  138.0010 C   0  0  1  0  0  3  0  0  0  0  0  0
  182.3060  175.9110  137.6590 C   0  0  0  0  0  2  0  0  0  0  0  0
  179.9830  175.3450  135.6280 C   0  0  0  0  0  1  0  0  0  0  0  0
  182.3020  175.6130  136.1480 C   0  0  2  0  0  3  0  0  0  0  0  0
  184.1090  176.8940  138.8120 O   0  0  0  0  0  0  0  0  0  0  0  0
  181.0410  179.6560  134.3880 C   0  0  0  0  0  2  0  0  0  0  0  0
  180.1280  177.7970  137.0550 C   0  0  0  0  0  2  0  0  0  0  0  0
  185.1900  177.7040  138.4280 C   0  0  0  0  0  2  0  0  0  0  0  0
  183.6290  175.9310  135.4620 C   0  0  0  0  0  2  0  0  0  0  0  0
  184.4870  174.6840  135.2950 C   0  0  1  0  0  3  0  0  0  0  0  0
  185.5860  174.7080  136.3360 C   0  0  0  0  0  1  0  0  0  0  0  0
  183.6540  173.4260  135.4910 C   0  0  0  0  0  2  0  0  0  0  0  0
  184.3230  172.4920  136.4820 C   0  0  0  0  0  1  0  0  0  0  0  0
  1  5  2  0  0  0  0
  2 18  1  0  0  0  0
  2 14  1  1  0  0  0
  3 15  1  6  0  0  0
  3 24  1  0  0  0  0
  4 19  1  1  0  0  0
  4  1  1  0  0  0  0
  4 22  1  0  0  0  0
  6 17  1  0  0  0  0
  7 11  1  6  0  0  0
  7 10  1  0  0  0  0
  7  6  1  0  0  0  0
  8 17  1  0  0  0  0
  9 20  1  0  0  0  0
  9  3  1  0  0  0  0
  9 21  1  0  0  0  0
 10  5  1  6  0  0  0
 10  8  1  0  0  0  0
 12  2  1  0  0  0  0
 16 12  1  0  0  0  0
 17 13  1  1  0  0  0
 18 24  1  6  0  0  0
 18  1  1  0  0  0  0
 21 26  1  6  0  0  0
 21 19  1  0  0  0  0
 23 15  1  0  0  0  0
 23 16  1  0  0  0  0
 25 22  1  0  0  0  0
 25 11  1  0  0  0  0
 27 26  1  0  0  0  0
 27 29  1  0  0  0  0
 27 28  1  1  0  0  0
 29 30  1  0  0  0  0
M  END
>  <MODEL>
4

>  <REMARK>
 VINA RESULT:      -5.0      5.864      9.480
  Name = 
  3 active torsions:
  status: ('A' for Active; 'I' for Inactive)
    1  A    between atoms: C_7  and  C_10
    2  A    between atoms: C_7  and  C_15
    3  A    between atoms: C_10  and  C_25
                            x       y       z     vdW  Elec       q    Type
                         _______ _______ _______ _____ _____    ______ ____

>  <TORSDO>
F 3

$$$$
=
 OpenBabel10272413433D

 30 33  0  0  1  0  0  0  0  0999 V2000
  184.3560  177.5860  136.9280 C   0  0  0  0  0  0  0  0  0  0  0  0
  182.6990  175.6470  137.0480 C   0  0  1  0  0  3  0  0  0  0  0  0
  182.0540  177.6320  139.1970 C   0  0  1  0  0  3  0  0  0  0  0  0
  184.9880  177.9800  138.2800 C   0  0  2  0  0  3  0  0  0  0  0  0
  185.0620  177.4400  135.7830 C   0  0  0  0  0  3  0  0  0  0  0  0
  188.5070  176.2670  135.7440 O   0  0  0  0  0  0  0  0  0  0  0  0
  187.1760  176.2420  136.1680 C   0  0  2  0  0  3  0  0  0  0  0  0
  187.1200  177.6470  134.3460 C   0  0  0  0  0  2  0  0  0  0  0  0
  182.2810  178.7710  140.1010 N   0  0  0  0  0  0  0  0  0  0  0  0
  186.5500  177.5320  135.7180 C   0  0  1  0  0  3  0  0  0  0  0  0
  186.9930  175.8700  137.6480 C   0  0  0  0  0  2  0  0  0  0  0  0
  181.2150  175.2940  137.0540 C   0  0  0  0  0  2  0  0  0  0  0  0
  189.5960  177.9110  134.3860 C   0  0  0  0  0  1  0  0  0  0  0  0
  183.3760  174.8420  135.9530 C   0  0  0  0  0  1  0  0  0  0  0  0
  180.8550  176.8080  139.6390 C   0  0  0  0  0  2  0  0  0  0  0  0
  180.7890  174.6100  138.3540 C   0  0  0  0  0  2  0  0  0  0  0  0
  188.4550  176.9170  134.4890 C   0  0  1  0  0  3  0  0  0  0  0  0
  182.9000  177.1650  136.8460 C   0  0  1  0  0  3  0  0  0  0  0  0
  184.3890  179.2920  138.7920 C   0  0  0  0  0  2  0  0  0  0  0  0
  181.4720  179.9350  139.7500 C   0  0  0  0  0  1  0  0  0  0  0  0
  183.6970  179.1650  140.1620 C   0  0  2  0  0  3  0  0  0  0  0  0
  186.3780  178.1810  138.2020 O   0  0  0  0  0  0  0  0  0  0  0  0
  181.2330  175.3340  139.6270 C   0  0  0  0  0  2  0  0  0  0  0  0
  181.9650  178.0180  137.7130 C   0  0  0  0  0  2  0  0  0  0  0  0
  187.0260  177.0230  138.6640 C   0  0  0  0  0  2  0  0  0  0  0  0
  184.4780  178.3090  141.1590 C   0  0  0  0  0  2  0  0  0  0  0  0
  185.4540  179.1480  141.9730 C   0  0  1  0  0  3  0  0  0  0  0  0
  184.8550  179.3980  143.3410 C   0  0  0  0  0  1  0  0  0  0  0  0
  186.7780  178.4200  142.1440 C   0  0  0  0  0  2  0  0  0  0  0  0
  186.8000  177.6480  143.4490 C   0  0  0  0  0  1  0  0  0  0  0  0
  1  4  1  0  0  0  0
  2 14  1  6  0  0  0
  2 12  1  0  0  0  0
  3 24  1  6  0  0  0
  3 15  1  0  0  0  0
  3  9  1  0  0  0  0
  4 19  1  6  0  0  0
  5  1  2  0  0  0  0
  6  7  1  0  0  0  0
  7 11  1  1  0  0  0
  8 17  1  0  0  0  0
  9 21  1  0  0  0  0
 10  8  1  6  0  0  0
 10  5  1  0  0  0  0
 10  7  1  0  0  0  0
 11 25  1  0  0  0  0
 12 16  1  0  0  0  0
 16 23  1  0  0  0  0
 17 13  1  1  0  0  0
 17  6  1  0  0  0  0
 18  1  1  0  0  0  0
 18  2  1  0  0  0  0
 18 24  1  1  0  0  0
 19 21  1  0  0  0  0
 20  9  1  0  0  0  0
 21 26  1  1  0  0  0
 22  4  1  0  0  0  0
 22 25  1  0  0  0  0
 23 15  1  0  0  0  0
 26 27  1  0  0  0  0
 27 29  1  0  0  0  0
 27 28  1  1  0  0  0
 29 30  1  0  0  0  0
M  END
>  <MODEL>
5

>  <REMARK>
 VINA RESULT:      -5.0      3.764      5.969
  Name = 
  3 active torsions:
  status: ('A' for Active; 'I' for Inactive)
    1  A    between atoms: C_7  and  C_10
    2  A    between atoms: C_7  and  C_15
    3  A    between atoms: C_10  and  C_25
                            x       y       z     vdW  Elec       q    Type
                         _______ _______ _______ _____ _____    ______ ____

>  <TORSDO>
F 3

$$$$
=
 OpenBabel10272413433D

 30 33  0  0  1  0  0  0  0  0999 V2000
  186.8190  176.7590  135.9530 C   0  0  0  0  0  0  0  0  0  0  0  0
  187.7910  177.6690  138.1320 C   0  0  1  0  0  3  0  0  0  0  0  0
  189.9380  176.2250  136.6210 C   0  0  1  0  0  3  0  0  0  0  0  0
  187.1500  175.2790  135.6660 C   0  0  2  0  0  3  0  0  0  0  0  0
  185.5850  177.2940  135.8100 C   0  0  0  0  0  3  0  0  0  0  0  0
  182.5440  175.3790  136.3860 O   0  0  0  0  0  0  0  0  0  0  0  0
  183.8420  175.7980  136.6900 C   0  0  2  0  0  3  0  0  0  0  0  0
  183.1810  177.2810  135.0580 C   0  0  0  0  0  2  0  0  0  0  0  0
  190.5060  175.3230  135.6070 N   0  0  0  0  0  0  0  0  0  0  0  0
  184.3760  176.4900  135.4670 C   0  0  1  0  0  3  0  0  0  0  0  0
  184.7300  174.7040  137.3030 C   0  0  0  0  0  2  0  0  0  0  0  0
  188.9070  178.5270  138.7190 C   0  0  0  0  0  2  0  0  0  0  0  0
  181.2750  175.8180  134.4030 C   0  0  0  0  0  1  0  0  0  0  0  0
  186.4630  178.1970  138.6440 C   0  0  0  0  0  1  0  0  0  0  0  0
  190.9640  176.5760  137.6850 C   0  0  0  0  0  2  0  0  0  0  0  0
  189.8210  177.7280  139.6500 C   0  0  0  0  0  2  0  0  0  0  0  0
  182.0300  176.4170  135.5740 C   0  0  1  0  0  3  0  0  0  0  0  0
  187.8490  177.6760  136.5890 C   0  0  1  0  0  3  0  0  0  0  0  0
  188.2030  175.1680  134.5600 C   0  0  0  0  0  2  0  0  0  0  0  0
  191.2150  176.0420  134.5520 C   0  0  0  0  0  1  0  0  0  0  0  0
  189.4910  174.4480  135.0010 C   0  0  2  0  0  3  0  0  0  0  0  0
  186.0360  174.5390  135.2310 O   0  0  0  0  0  0  0  0  0  0  0  0
  190.3310  176.4110  139.0590 C   0  0  0  0  0  2  0  0  0  0  0  0
  189.2680  177.4800  136.0380 C   0  0  0  0  0  2  0  0  0  0  0  0
  185.5200  173.8210  136.3240 C   0  0  0  0  0  2  0  0  0  0  0  0
  189.2330  173.2080  135.8560 C   0  0  0  0  0  2  0  0  0  0  0  0
  188.8470  172.0090  135.0010 C   0  0  1  0  0  3  0  0  0  0  0  0
  190.1050  171.2510  134.6330 C   0  0  0  0  0  1  0  0  0  0  0  0
  187.9200  171.0770  135.7660 C   0  0  0  0  0  2  0  0  0  0  0  0
  186.7390  170.6730  134.9040 C   0  0  0  0  0  1  0  0  0  0  0  0
  1 18  1  0  0  0  0
  2 14  1  6  0  0  0
  2 12  1  0  0  0  0
  3 24  1  6  0  0  0
  3 15  1  0  0  0  0
  4 19  1  6  0  0  0
  4  1  1  0  0  0  0
  5  1  2  0  0  0  0
  6  7  1  0  0  0  0
  7 11  1  6  0  0  0
  8 17  1  0  0  0  0
  9  3  1  0  0  0  0
 10  8  1  1  0  0  0
 10  5  1  0  0  0  0
 10  7  1  0  0  0  0
 12 16  1  0  0  0  0
 15 23  1  0  0  0  0
 17 13  1  6  0  0  0
 17  6  1  0  0  0  0
 18 24  1  1  0  0  0
 18  2  1  0  0  0  0
 19 21  1  0  0  0  0
 20  9  1  0  0  0  0
 21  9  1  0  0  0  0
 21 26  1  1  0  0  0
 22  4  1  0  0  0  0
 22 25  1  0  0  0  0
 23 16  1  0  0  0  0
 25 11  1  0  0  0  0
 27 28  1  1  0  0  0
 27 29  1  0  0  0  0
 27 26  1  0  0  0  0
 30 29  1  0  0  0  0
M  END
>  <MODEL>
6

>  <REMARK>
 VINA RESULT:      -4.9      3.073      7.666
  Name = 
  3 active torsions:
  status: ('A' for Active; 'I' for Inactive)
    1  A    between atoms: C_7  and  C_10
    2  A    between atoms: C_7  and  C_15
    3  A    between atoms: C_10  and  C_25
                            x       y       z     vdW  Elec       q    Type
                         _______ _______ _______ _____ _____    ______ ____

>  <TORSDO>
F 3

$$$$
=
 OpenBabel10272413433D

 30 33  0  0  1  0  0  0  0  0999 V2000
  188.2070  175.1800  135.5330 C   0  0  0  0  0  0  0  0  0  0  0  0
  186.9580  173.0610  136.2190 C   0  0  1  0  0  3  0  0  0  0  0  0
  184.9970  175.3030  135.8990 C   0  0  1  0  0  3  0  0  0  0  0  0
  187.8400  176.4390  136.3480 C   0  0  2  0  0  3  0  0  0  0  0  0
  189.4770  174.8200  135.2390 C   0  0  0  0  0  3  0  0  0  0  0  0
  192.2730  175.5160  137.4620 O   0  0  0  0  0  0  0  0  0  0  0  0
  190.9700  175.1030  137.1730 C   0  0  2  0  0  3  0  0  0  0  0  0
  191.9650  175.1890  135.1000 C   0  0  0  0  0  2  0  0  0  0  0  0
  184.5440  176.6970  135.7690 N   0  0  0  0  0  0  0  0  0  0  0  0
  190.6770  175.5350  135.7640 C   0  0  1  0  0  3  0  0  0  0  0  0
  189.9350  175.4900  138.2410 C   0  0  0  0  0  2  0  0  0  0  0  0
  185.8150  172.1270  135.8360 C   0  0  0  0  0  2  0  0  0  0  0  0
  193.8620  176.5350  135.9890 C   0  0  0  0  0  1  0  0  0  0  0  0
  188.2170  172.2300  136.3900 C   0  0  0  0  0  1  0  0  0  0  0  0
  183.8370  174.3740  136.2180 C   0  0  0  0  0  2  0  0  0  0  0  0
  184.7210  172.0840  136.9030 C   0  0  0  0  0  2  0  0  0  0  0  0
  192.9680  175.3370  136.2430 C   0  0  1  0  0  3  0  0  0  0  0  0
  187.1450  174.1640  135.1540 C   0  0  1  0  0  3  0  0  0  0  0  0
  186.9700  177.3840  135.5150 C   0  0  0  0  0  2  0  0  0  0  0  0
  184.0530  177.0040  134.4280 C   0  0  0  0  0  1  0  0  0  0  0  0
  185.5900  177.6640  136.1360 C   0  0  2  0  0  3  0  0  0  0  0  0
  188.9640  177.1820  136.7510 O   0  0  0  0  0  0  0  0  0  0  0  0
  184.2350  173.4590  137.3680 C   0  0  0  0  0  2  0  0  0  0  0  0
  185.8210  174.7980  134.7050 C   0  0  0  0  0  2  0  0  0  0  0  0
  189.2590  176.8630  138.0870 C   0  0  0  0  0  2  0  0  0  0  0  0
  185.6380  177.8960  137.6460 C   0  0  0  0  0  2  0  0  0  0  0  0
  184.2720  178.2820  138.1980 C   0  0  1  0  0  3  0  0  0  0  0  0
  183.7020  177.1000  138.9520 C   0  0  0  0  0  1  0  0  0  0  0  0
  184.3880  179.4610  139.1500 C   0  0  0  0  0  2  0  0  0  0  0  0
  184.7820  178.9910  140.5380 C   0  0  0  0  0  1  0  0  0  0  0  0
  1  4  1  0  0  0  0
  2 14  1  6  0  0  0
  3 24  1  6  0  0  0
  3 15  1  0  0  0  0
  4 19  1  6  0  0  0
  4 22  1  0  0  0  0
  5  1  2  0  0  0  0
  5 10  1  0  0  0  0
  7  6  1  0  0  0  0
  7 11  1  1  0  0  0
  8 17  1  0  0  0  0
  9  3  1  0  0  0  0
  9 21  1  0  0  0  0
 10  8  1  6  0  0  0
 10  7  1  0  0  0  0
 12  2  1  0  0  0  0
 12 16  1  0  0  0  0
 15 23  1  0  0  0  0
 16 23  1  0  0  0  0
 17 13  1  6  0  0  0
 17  6  1  0  0  0  0
 18 24  1  1  0  0  0
 18  1  1  0  0  0  0
 18  2  1  0  0  0  0
 19 21  1  0  0  0  0
 20  9  1  0  0  0  0
 21 26  1  1  0  0  0
 22 25  1  0  0  0  0
 25 11  1  0  0  0  0
 26 27  1  0  0  0  0
 27 28  1  1  0  0  0
 27 29  1  0  0  0  0
 29 30  1  0  0  0  0
M  END
>  <MODEL>
7

>  <REMARK>
 VINA RESULT:      -4.8      2.054      3.352
  Name = 
  3 active torsions:
  status: ('A' for Active; 'I' for Inactive)
    1  A    between atoms: C_7  and  C_10
    2  A    between atoms: C_7  and  C_15
    3  A    between atoms: C_10  and  C_25
                            x       y       z     vdW  Elec       q    Type
                         _______ _______ _______ _____ _____    ______ ____

>  <TORSDO>
F 3

$$$$
=
 OpenBabel10272413433D

 30 33  0  0  1  0  0  0  0  0999 V2000
  184.5650  177.4920  137.6220 C   0  0  0  0  0  0  0  0  0  0  0  0
  184.9150  178.1240  140.0720 C   0  0  1  0  0  3  0  0  0  0  0  0
  187.5750  177.9720  138.7010 C   0  0  1  0  0  3  0  0  0  0  0  0
  185.4710  176.3500  137.1140 C   0  0  2  0  0  3  0  0  0  0  0  0
  183.2370  177.5630  137.3760 C   0  0  0  0  0  3  0  0  0  0  0  0
  181.1490  174.6010  137.0340 O   0  0  0  0  0  0  0  0  0  0  0  0
  182.1490  175.3710  137.6330 C   0  0  2  0  0  3  0  0  0  0  0  0
  181.1020  176.8690  136.2330 C   0  0  0  0  0  2  0  0  0  0  0  0
  188.5340  177.6160  137.6440 N   0  0  0  0  0  0  0  0  0  0  0  0
  182.4720  176.4870  136.6800 C   0  0  1  0  0  3  0  0  0  0  0  0
  183.3390  174.5560  138.1650 C   0  0  0  0  0  2  0  0  0  0  0  0
  185.5530  179.1530  140.9990 C   0  0  0  0  0  2  0  0  0  0  0  0
  179.9830  175.0260  134.9860 C   0  0  0  0  0  1  0  0  0  0  0  0
  183.4480  177.9940  140.4400 C   0  0  0  0  0  1  0  0  0  0  0  0
  188.2880  178.3960  139.9740 C   0  0  0  0  0  2  0  0  0  0  0  0
  186.6240  178.5360  141.8990 C   0  0  0  0  0  2  0  0  0  0  0  0
  180.3410  175.5490  136.3640 C   0  0  1  0  0  3  0  0  0  0  0  0
  185.0960  178.5310  138.5930 C   0  0  1  0  0  3  0  0  0  0  0  0
  186.5730  176.9030  136.2060 C   0  0  0  0  0  2  0  0  0  0  0  0
  188.9930  178.7780  136.8880 C   0  0  0  0  0  1  0  0  0  0  0  0
  187.9970  176.6120  136.7130 C   0  0  2  0  0  3  0  0  0  0  0  0
  184.7760  175.3890  136.3580 O   0  0  0  0  0  0  0  0  0  0  0  0
  187.6560  177.6810  141.1600 C   0  0  0  0  0  2  0  0  0  0  0  0
  186.5200  179.0020  138.2680 C   0  0  0  0  0  2  0  0  0  0  0  0
  184.4910  174.2890  137.1830 C   0  0  0  0  0  2  0  0  0  0  0  0
  188.1730  175.1920  137.2520 C   0  0  0  0  0  2  0  0  0  0  0  0
  188.8530  174.2870  136.2350 C   0  0  1  0  0  3  0  0  0  0  0  0
  190.1050  173.7100  136.8590 C   0  0  0  0  0  1  0  0  0  0  0  0
  187.9350  173.1430  135.8320 C   0  0  0  0  0  2  0  0  0  0  0  0
  187.7160  172.1970  136.9970 C   0  0  0  0  0  1  0  0  0  0  0  0
  1 18  1  0  0  0  0
  2 14  1  1  0  0  0
  2 12  1  0  0  0  0
  3 24  1  6  0  0  0
  3 15  1  0  0  0  0
  4 19  1  6  0  0  0
  4  1  1  0  0  0  0
  5  1  2  0  0  0  0
  6  7  1  0  0  0  0
  7 11  1  6  0  0  0
  8 17  1  0  0  0  0
  9  3  1  0  0  0  0
 10  8  1  1  0  0  0
 10  5  1  0  0  0  0
 10  7  1  0  0  0  0
 12 16  1  0  0  0  0
 15 23  1  0  0  0  0
 17 13  1  6  0  0  0
 17  6  1  0  0  0  0
 18 24  1  6  0  0  0
 18  2  1  0  0  0  0
 19 21  1  0  0  0  0
 20  9  1  0  0  0  0
 21 26  1  1  0  0  0
 21  9  1  0  0  0  0
 22  4  1  0  0  0  0
 22 25  1  0  0  0  0
 23 16  1  0  0  0  0
 25 11  1  0  0  0  0
 27 28  1  1  0  0  0
 27 26  1  0  0  0  0
 29 27  1  0  0  0  0
 29 30  1  0  0  0  0
M  END
>  <MODEL>
8

>  <REMARK>
 VINA RESULT:      -4.6      3.689      8.313
  Name = 
  3 active torsions:
  status: ('A' for Active; 'I' for Inactive)
    1  A    between atoms: C_7  and  C_10
    2  A    between atoms: C_7  and  C_15
    3  A    between atoms: C_10  and  C_25
                            x       y       z     vdW  Elec       q    Type
                         _______ _______ _______ _____ _____    ______ ____

>  <TORSDO>
F 3

$$$$
=
 OpenBabel10272413433D

 30 33  0  0  1  0  0  0  0  0999 V2000
  185.1150  175.2930  135.8910 C   0  0  0  0  0  0  0  0  0  0  0  0
  184.9950  176.9700  137.8130 C   0  0  1  0  0  3  0  0  0  0  0  0
  187.6420  177.2360  136.4340 C   0  0  1  0  0  3  0  0  0  0  0  0
  186.4130  174.4590  135.8410 C   0  0  2  0  0  3  0  0  0  0  0  0
  183.8780  174.7670  135.7400 C   0  0  0  0  0  3  0  0  0  0  0  0
  183.0370  171.4000  136.8340 O   0  0  0  0  0  0  0  0  0  0  0  0
  183.6350  172.6540  136.9760 C   0  0  2  0  0  3  0  0  0  0  0  0
  182.2470  172.9370  135.1610 C   0  0  0  0  0  2  0  0  0  0  0  0
  188.7550  176.8470  135.5550 N   0  0  0  0  0  0  0  0  0  0  0  0
  183.6170  173.3030  135.6200 C   0  0  1  0  0  3  0  0  0  0  0  0
  184.9860  172.6300  137.7080 C   0  0  0  0  0  2  0  0  0  0  0  0
  185.1340  178.4460  138.1700 C   0  0  0  0  0  2  0  0  0  0  0  0
  181.9820  170.4750  134.8930 C   0  0  0  0  0  1  0  0  0  0  0  0
  183.6470  176.4830  138.3130 C   0  0  0  0  0  1  0  0  0  0  0  0
  188.0380  178.3800  137.3530 C   0  0  0  0  0  2  0  0  0  0  0  0
  186.2720  178.6970  139.1610 C   0  0  0  0  0  2  0  0  0  0  0  0
  182.0040  171.6160  135.8920 C   0  0  1  0  0  3  0  0  0  0  0  0
  185.1480  176.7570  136.2910 C   0  0  1  0  0  3  0  0  0  0  0  0
  187.3180  174.9400  134.7040 C   0  0  0  0  0  2  0  0  0  0  0  0
  188.8290  177.6650  134.3470 C   0  0  0  0  0  1  0  0  0  0  0  0
  188.7010  175.4260  135.1760 C   0  0  2  0  0  3  0  0  0  0  0  0
  186.1810  173.0900  135.6140 O   0  0  0  0  0  0  0  0  0  0  0  0
  187.6040  178.0500  138.7730 C   0  0  0  0  0  2  0  0  0  0  0  0
  186.3300  177.5310  135.6900 C   0  0  0  0  0  2  0  0  0  0  0  0
  186.2390  172.4150  136.8450 C   0  0  0  0  0  2  0  0  0  0  0  0
  189.3270  174.5330  136.2460 C   0  0  0  0  0  2  0  0  0  0  0  0
  190.7170  175.0160  136.6360 C   0  0  1  0  0  3  0  0  0  0  0  0
  190.6920  175.4440  138.0870 C   0  0  0  0  0  1  0  0  0  0  0  0
  191.7410  173.9030  136.4710 C   0  0  0  0  0  2  0  0  0  0  0  0
  192.9200  174.1200  137.4010 C   0  0  0  0  0  1  0  0  0  0  0  0
  1 18  1  0  0  0  0
  2 12  1  0  0  0  0
  2 14  1  6  0  0  0
  3 24  1  6  0  0  0
  3 15  1  0  0  0  0
  4 19  1  6  0  0  0
  4  1  1  0  0  0  0
  5  1  2  0  0  0  0
  6  7  1  0  0  0  0
  7 11  1  6  0  0  0
  8 17  1  0  0  0  0
  9  3  1  0  0  0  0
 10  8  1  1  0  0  0
 10  5  1  0  0  0  0
 10  7  1  0  0  0  0
 12 16  1  0  0  0  0
 15 23  1  0  0  0  0
 17 13  1  6  0  0  0
 17  6  1  0  0  0  0
 18 24  1  1  0  0  0
 18  2  1  0  0  0  0
 19 21  1  0  0  0  0
 20  9  1  0  0  0  0
 21  9  1  0  0  0  0
 21 26  1  1  0  0  0
 22  4  1  0  0  0  0
 22 25  1  0  0  0  0
 23 16  1  0  0  0  0
 25 11  1  0  0  0  0
 26 27  1  0  0  0  0
 27 28  1  1  0  0  0
 29 27  1  0  0  0  0
 29 30  1  0  0  0  0
M  END
>  <MODEL>
9

>  <REMARK>
 VINA RESULT:      -4.6      3.279      7.467
  Name = 
  3 active torsions:
  status: ('A' for Active; 'I' for Inactive)
    1  A    between atoms: C_7  and  C_10
    2  A    between atoms: C_7  and  C_15
    3  A    between atoms: C_10  and  C_25
                            x       y       z     vdW  Elec       q    Type
                         _______ _______ _______ _____ _____    ______ ____

>  <TORSDO>
F 3

$$$$
