=
 OpenBabel10262423513D

 34 40  0  0  1  0  0  0  0  0999 V2000
  184.0760  178.6480  142.0980 C   0  0  0  0  0  0  0  0  0  0  0  0
  185.2530  178.7470  139.9590 C   0  0  0  0  0  0  0  0  0  0  0  0
  186.4480  178.1660  141.9820 C   0  0  0  0  0  0  0  0  0  0  0  0
  188.8100  177.6850  141.8790 C   0  0  0  0  0  0  0  0  0  0  0  0
  182.8790  179.2300  140.0720 C   0  0  0  0  0  3  0  0  0  0  0  0
  184.0590  179.1020  139.3250 C   0  0  0  0  0  3  0  0  0  0  0  0
  187.5850  178.2670  139.8510 C   0  0  0  0  0  0  0  0  0  0  0  0
  185.2560  178.5220  141.3480 C   0  0  0  0  0  0  0  0  0  0  0  0
  188.8230  178.1000  139.0700 C   0  0  0  0  0  0  0  0  0  0  0  0
  190.0990  177.5720  141.1090 C   0  0  0  0  0  2  0  0  0  0  0  0
  182.8860  179.0040  141.4570 C   0  0  0  0  0  3  0  0  0  0  0  0
  186.4580  177.9370  143.3670 C   0  0  0  0  0  0  0  0  0  0  0  0
  184.1220  178.4130  143.4770 C   0  0  0  0  0  3  0  0  0  0  0  0
  186.4090  178.6140  139.2480 N   0  0  0  0  0  0  0  0  0  0  0  0
  188.8050  177.4690  143.2250 N   0  0  0  0  0  0  0  0  0  0  0  0
  187.6760  177.5800  143.9830 C   0  0  0  0  0  0  0  0  0  0  0  0
  189.9350  177.7680  139.6600 N   0  0  0  0  0  0  0  0  0  0  0  0
  187.6220  178.0400  141.2320 C   0  0  0  0  0  0  0  0  0  0  0  0
  185.2980  178.0660  144.0750 N   0  0  0  0  0  0  0  0  0  0  0  0
  189.3420  176.8620  147.3940 C   0  0  1  0  0  3  0  0  0  0  0  0
  188.1630  177.3490  148.2500 C   0  0  0  0  0  2  0  0  0  0  0  0
  187.7830  177.3170  145.4560 C   0  0  1  0  0  3  0  0  0  0  0  0
  187.5140  178.5980  147.6600 C   0  0  0  0  0  2  0  0  0  0  0  0
  189.2410  177.2610  145.9170 C   0  0  0  0  0  2  0  0  0  0  0  0
  186.9380  178.3110  146.2690 C   0  0  0  0  0  2  0  0  0  0  0  0
  190.5380  177.3450  147.9230 O   0  0  0  0  0  1  0  0  0  0  0  0
  188.8040  178.2580  137.5830 C   0  0  0  0  0  2  0  0  0  0  0  0
  189.5400  177.8900  134.7400 N   0  0  0  0  0  1  0  0  0  0  0  0
  188.8390  176.8990  136.8820 C   0  0  2  0  0  3  0  0  0  0  0  0
  188.5500  177.0410  135.3800 C   0  0  1  0  0  3  0  0  0  0  0  0
  186.1680  177.0390  136.0290 C   0  0  0  0  0  2  0  0  0  0  0  0
  186.5690  175.7290  136.7060 C   0  0  0  0  0  2  0  0  0  0  0  0
  187.8410  175.9280  137.5330 C   0  0  0  0  0  2  0  0  0  0  0  0
  187.1970  177.5520  135.1070 N   0  0  0  0  0  2  0  0  0  0  0  0
  1 13  1  0  0  0  0
  2  8  1  0  0  0  0
  3 12  1  0  0  0  0
  4 15  2  0  0  0  0
  5 11  1  0  0  0  0
  6  2  1  0  0  0  0
  6  5  2  0  0  0  0
  7 18  2  0  0  0  0
  8  3  2  0  0  0  0
  8  1  1  0  0  0  0
  9 17  2  0  0  0  0
  9  7  1  0  0  0  0
 10  4  1  0  0  0  0
 11  1  2  0  0  0  0
 12 16  2  0  0  0  0
 12 19  1  0  0  0  0
 13 19  2  0  0  0  0
 14  7  1  0  0  0  0
 14  2  2  0  0  0  0
 15 16  1  0  0  0  0
 17 10  1  0  0  0  0
 18  4  1  0  0  0  0
 18  3  1  0  0  0  0
 20 26  1  1  0  0  0
 20 21  1  0  0  0  0
 22 16  1  6  0  0  0
 22 24  1  0  0  0  0
 22 25  1  0  0  0  0
 23 21  1  0  0  0  0
 24 20  1  0  0  0  0
 25 23  1  0  0  0  0
 27  9  1  0  0  0  0
 29 33  1  0  0  0  0
 29 27  1  1  0  0  0
 30 28  1  1  0  0  0
 30 29  1  0  0  0  0
 31 32  1  0  0  0  0
 32 33  1  0  0  0  0
 34 30  1  0  0  0  0
 34 31  1  0  0  0  0
M  END
>  <MODEL>
1

>  <REMARK>
 VINA RESULT:     -10.2      0.000      0.000
  Name = 
  3 active torsions:
  status: ('A' for Active; 'I' for Inactive)
    1  A    between atoms: C_3  and  C_13
    2  A    between atoms: C_3  and  C_17
    3  A    between atoms: C_12  and  C_28
                            x       y       z     vdW  Elec       q    Type
                         _______ _______ _______ _____ _____    ______ ____

>  <TORSDO>
F 3

$$$$
=
 OpenBabel10262423513D

 34 40  0  0  1  0  0  0  0  0999 V2000
  186.7750  178.1840  138.6460 C   0  0  0  0  0  0  0  0  0  0  0  0
  186.8090  178.4660  141.0730 C   0  0  0  0  0  0  0  0  0  0  0  0
  188.7640  177.6310  139.9160 C   0  0  0  0  0  0  0  0  0  0  0  0
  190.7490  177.0770  141.1690 C   0  0  0  0  0  0  0  0  0  0  0  0
  184.8170  179.0200  139.8040 C   0  0  0  0  0  3  0  0  0  0  0  0
  185.4900  178.9290  141.0320 C   0  0  0  0  0  3  0  0  0  0  0  0
  188.7700  177.9260  142.3150 C   0  0  0  0  0  0  0  0  0  0  0  0
  187.4470  178.0930  139.8750 C   0  0  0  0  0  0  0  0  0  0  0  0
  189.4950  177.8570  143.5950 C   0  0  0  0  0  0  0  0  0  0  0  0
  191.4880  176.9390  142.4740 C   0  0  0  0  0  3  0  0  0  0  0  0
  185.4570  178.6470  138.6130 C   0  0  0  0  0  3  0  0  0  0  0  0
  189.4070  177.2600  138.7250 C   0  0  0  0  0  0  0  0  0  0  0  0
  187.4470  177.8050  137.4770 C   0  0  0  0  0  3  0  0  0  0  0  0
  187.4800  178.3760  142.2550 N   0  0  0  0  0  0  0  0  0  0  0  0
  191.3600  176.7170  140.0060 N   0  0  0  0  0  2  0  0  0  0  0  0
  190.7380  176.7960  138.7940 C   0  0  0  0  0  0  0  0  0  0  0  0
  190.7240  177.4270  143.6340 N   0  0  0  0  0  0  0  0  0  0  0  0
  189.4310  177.5430  141.1420 C   0  0  0  0  0  0  0  0  0  0  0  0
  188.7340  177.3570  137.5410 N   0  0  0  0  0  0  0  0  0  0  0  0
  193.7780  176.2450  136.4730 C   0  0  1  0  0  3  0  0  0  0  0  0
  193.1180  175.1660  135.6030 C   0  0  0  0  0  2  0  0  0  0  0  0
  191.5060  176.3770  137.5750 C   0  0  1  0  0  3  0  0  0  0  0  0
  192.2670  174.2100  136.4360 C   0  0  0  0  0  2  0  0  0  0  0  0
  193.0140  176.5510  137.7670 C   0  0  0  0  0  2  0  0  0  0  0  0
  191.1220  174.9570  137.1270 C   0  0  0  0  0  2  0  0  0  0  0  0
  195.0830  175.8650  136.7860 O   0  0  0  0  0  1  0  0  0  0  0  0
  188.8480  178.3300  144.8570 C   0  0  0  0  0  2  0  0  0  0  0  0
  185.9750  177.6200  144.9050 N   0  0  0  0  0  1  0  0  0  0  0  0
  188.2740  177.1600  145.6570 C   0  0  2  0  0  3  0  0  0  0  0  0
  186.8200  177.4300  146.0720 C   0  0  1  0  0  3  0  0  0  0  0  0
  187.7900  178.6990  147.9550 C   0  0  0  0  0  2  0  0  0  0  0  0
  188.5200  177.3790  148.1950 C   0  0  0  0  0  2  0  0  0  0  0  0
  189.1420  176.8710  146.8920 C   0  0  0  0  0  2  0  0  0  0  0  0
  186.6910  178.5830  146.9780 N   0  0  0  0  0  2  0  0  0  0  0  0
  1  8  2  0  0  0  0
  2 14  1  0  0  0  0
  3 18  2  0  0  0  0
  4 10  2  0  0  0  0
  5  6  1  0  0  0  0
  6  2  2  0  0  0  0
  7  9  1  0  0  0  0
  8  3  1  0  0  0  0
  8  2  1  0  0  0  0
  9 17  2  0  0  0  0
  9 27  1  0  0  0  0
 10 17  1  0  0  0  0
 11  1  1  0  0  0  0
 11  5  2  0  0  0  0
 12 16  2  0  0  0  0
 12  3  1  0  0  0  0
 13 19  2  0  0  0  0
 13  1  1  0  0  0  0
 14  7  2  0  0  0  0
 15  4  1  0  0  0  0
 16 15  1  0  0  0  0
 18  4  1  0  0  0  0
 18  7  1  0  0  0  0
 19 12  1  0  0  0  0
 20 26  1  1  0  0  0
 20 24  1  0  0  0  0
 21 23  1  0  0  0  0
 21 20  1  0  0  0  0
 22 24  1  0  0  0  0
 22 16  1  1  0  0  0
 23 25  1  0  0  0  0
 25 22  1  0  0  0  0
 29 27  1  1  0  0  0
 29 30  1  0  0  0  0
 29 33  1  0  0  0  0
 30 28  1  6  0  0  0
 30 34  1  0  0  0  0
 31 32  1  0  0  0  0
 33 32  1  0  0  0  0
 34 31  1  0  0  0  0
M  END
>  <MODEL>
2

>  <REMARK>
 VINA RESULT:     -10.1      3.001      7.887
  Name = 
  3 active torsions:
  status: ('A' for Active; 'I' for Inactive)
    1  A    between atoms: C_3  and  C_13
    2  A    between atoms: C_3  and  C_17
    3  A    between atoms: C_12  and  C_28
                            x       y       z     vdW  Elec       q    Type
                         _______ _______ _______ _____ _____    ______ ____

>  <TORSDO>
F 3

$$$$
=
 OpenBabel10262423513D

 34 40  0  0  1  0  0  0  0  0999 V2000
  182.4030  178.8530  143.0070 C   0  0  0  0  0  0  0  0  0  0  0  0
  184.8230  178.6460  143.2820 C   0  0  0  0  0  0  0  0  0  0  0  0
  183.8500  178.7090  141.0680 C   0  0  0  0  0  0  0  0  0  0  0  0
  185.2780  178.5660  139.1290 C   0  0  0  0  0  0  0  0  0  0  0  0
  183.3780  178.7890  145.2250 C   0  0  0  0  0  3  0  0  0  0  0  0
  184.6610  178.6730  144.6710 C   0  0  0  0  0  3  0  0  0  0  0  0
  186.2390  178.5100  141.3710 C   0  0  0  0  0  0  0  0  0  0  0  0
  183.6880  178.7350  142.4540 C   0  0  0  0  0  0  0  0  0  0  0  0
  187.5850  178.4200  140.7790 C   0  0  0  0  0  0  0  0  0  0  0  0
  186.6400  178.4100  138.5040 C   0  0  0  0  0  3  0  0  0  0  0  0
  182.2500  178.8780  144.3960 C   0  0  0  0  0  3  0  0  0  0  0  0
  182.7230  178.8000  140.2350 C   0  0  0  0  0  0  0  0  0  0  0  0
  181.3020  178.9410  142.1470 C   0  0  0  0  0  3  0  0  0  0  0  0
  186.0620  178.5380  142.7260 N   0  0  0  0  0  0  0  0  0  0  0  0
  184.1750  178.6520  138.3330 N   0  0  0  0  0  2  0  0  0  0  0  0
  182.9130  178.7710  138.8370 C   0  0  0  0  0  0  0  0  0  0  0  0
  187.7360  178.3960  139.4860 N   0  0  0  0  0  0  0  0  0  0  0  0
  185.1310  178.5930  140.5190 C   0  0  0  0  0  0  0  0  0  0  0  0
  181.4830  178.9130  140.7960 N   0  0  0  0  0  0  0  0  0  0  0  0
  180.1610  180.3970  136.6670 C   0  0  1  0  0  3  0  0  0  0  0  0
  180.0080  179.2170  135.6970 C   0  0  0  0  0  2  0  0  0  0  0  0
  181.7700  178.8610  137.8700 C   0  0  1  0  0  3  0  0  0  0  0  0
  181.3550  178.5870  135.3550 C   0  0  0  0  0  2  0  0  0  0  0  0
  181.4110  180.3140  137.5510 C   0  0  0  0  0  2  0  0  0  0  0  0
  182.0300  178.0210  136.6090 C   0  0  0  0  0  2  0  0  0  0  0  0
  180.1790  181.5950  135.9520 O   0  0  0  0  0  1  0  0  0  0  0  0
  188.7960  178.4090  141.6550 C   0  0  0  0  0  2  0  0  0  0  0  0
  188.2310  176.0640  143.3700 N   0  0  0  0  0  1  0  0  0  0  0  0
  189.5430  177.0780  141.5500 C   0  0  2  0  0  3  0  0  0  0  0  0
  189.5760  176.3510  142.9030 C   0  0  1  0  0  3  0  0  0  0  0  0
  191.5100  177.7970  143.4200 C   0  0  0  0  0  2  0  0  0  0  0  0
  192.0360  177.2040  142.1140 C   0  0  0  0  0  2  0  0  0  0  0  0
  190.9690  177.2970  141.0210 C   0  0  0  0  0  2  0  0  0  0  0  0
  190.3170  177.0990  143.9320 N   0  0  0  0  0  2  0  0  0  0  0  0
  1 11  1  0  0  0  0
  2  6  2  0  0  0  0
  3  8  1  0  0  0  0
  4 18  1  0  0  0  0
  6  5  1  0  0  0  0
  7 14  2  0  0  0  0
  8  1  2  0  0  0  0
  8  2  1  0  0  0  0
  9  7  1  0  0  0  0
  9 27  1  0  0  0  0
 10  4  2  0  0  0  0
 10 17  1  0  0  0  0
 11  5  2  0  0  0  0
 12 19  1  0  0  0  0
 12  3  1  0  0  0  0
 13  1  1  0  0  0  0
 14  2  1  0  0  0  0
 15 16  1  0  0  0  0
 15  4  1  0  0  0  0
 16 12  2  0  0  0  0
 17  9  2  0  0  0  0
 18  3  2  0  0  0  0
 18  7  1  0  0  0  0
 19 13  2  0  0  0  0
 20 26  1  6  0  0  0
 20 24  1  0  0  0  0
 21 20  1  0  0  0  0
 22 16  1  1  0  0  0
 23 21  1  0  0  0  0
 23 25  1  0  0  0  0
 24 22  1  0  0  0  0
 25 22  1  0  0  0  0
 29 27  1  1  0  0  0
 29 30  1  0  0  0  0
 30 28  1  1  0  0  0
 30 34  1  0  0  0  0
 31 34  1  0  0  0  0
 32 31  1  0  0  0  0
 33 29  1  0  0  0  0
 33 32  1  0  0  0  0
M  END
>  <MODEL>
3

>  <REMARK>
 VINA RESULT:      -9.9      3.834      7.685
  Name = 
  3 active torsions:
  status: ('A' for Active; 'I' for Inactive)
    1  A    between atoms: C_3  and  C_13
    2  A    between atoms: C_3  and  C_17
    3  A    between atoms: C_12  and  C_28
                            x       y       z     vdW  Elec       q    Type
                         _______ _______ _______ _____ _____    ______ ____

>  <TORSDO>
F 3

$$$$
=
 OpenBabel10262423513D

 34 40  0  0  1  0  0  0  0  0999 V2000
  189.0560  177.3380  144.6670 C   0  0  0  0  0  0  0  0  0  0  0  0
  190.5530  176.9560  142.7730 C   0  0  0  0  0  0  0  0  0  0  0  0
  188.3070  177.7770  142.4040 C   0  0  0  0  0  0  0  0  0  0  0  0
  187.5500  178.2190  140.1570 C   0  0  0  0  0  0  0  0  0  0  0  0
  191.3060  176.5140  145.0370 C   0  0  0  0  0  3  0  0  0  0  0  0
  191.5530  176.5340  143.6560 C   0  0  0  0  0  3  0  0  0  0  0  0
  189.8120  177.3960  140.5520 C   0  0  0  0  0  0  0  0  0  0  0  0
  189.3050  177.3560  143.2850 C   0  0  0  0  0  0  0  0  0  0  0  0
  190.0730  177.4500  139.1030 C   0  0  0  0  0  0  0  0  0  0  0  0
  187.7740  178.2210  138.6670 C   0  0  0  0  0  2  0  0  0  0  0  0
  190.0600  176.9140  145.5430 C   0  0  0  0  0  3  0  0  0  0  0  0
  187.0600  178.1800  142.9080 C   0  0  0  0  0  0  0  0  0  0  0  0
  187.8010  177.7450  145.1340 C   0  0  0  0  0  3  0  0  0  0  0  0
  190.7770  176.9860  141.4290 N   0  0  0  0  0  0  0  0  0  0  0  0
  186.3430  178.6040  140.6590 N   0  0  0  0  0  0  0  0  0  0  0  0
  186.0690  178.6020  141.9960 C   0  0  0  0  0  0  0  0  0  0  0  0
  189.1420  177.8440  138.2810 N   0  0  0  0  0  0  0  0  0  0  0  0
  188.5580  177.7960  141.0280 C   0  0  0  0  0  0  0  0  0  0  0  0
  186.8410  178.1540  144.2550 N   0  0  0  0  0  0  0  0  0  0  0  0
  182.2210  178.9530  141.9920 C   0  0  1  0  0  3  0  0  0  0  0  0
  182.1000  179.3680  143.4660 C   0  0  0  0  0  2  0  0  0  0  0  0
  184.7080  179.0490  142.4410 C   0  0  1  0  0  3  0  0  0  0  0  0
  183.0650  178.5870  144.3540 C   0  0  0  0  0  2  0  0  0  0  0  0
  183.5980  178.3910  141.6180 C   0  0  0  0  0  2  0  0  0  0  0  0
  184.5190  178.8590  143.9550 C   0  0  0  0  0  2  0  0  0  0  0  0
  181.2390  178.0120  141.6850 O   0  0  0  0  0  1  0  0  0  0  0  0
  191.4240  177.1050  138.5650 C   0  0  0  0  0  2  0  0  0  0  0  0
  193.9980  175.6920  138.1940 N   0  0  0  0  0  1  0  0  0  0  0  0
  191.5390  175.6070  138.2760 C   0  0  2  0  0  3  0  0  0  0  0  0
  192.8060  175.2920  137.4670 C   0  0  1  0  0  3  0  0  0  0  0  0
  191.4720  175.9280  135.4880 C   0  0  0  0  0  2  0  0  0  0  0  0
  190.5240  174.8670  136.0460 C   0  0  0  0  0  2  0  0  0  0  0  0
  190.2890  175.0990  137.5410 C   0  0  0  0  0  2  0  0  0  0  0  0
  192.7970  175.9160  136.1330 N   0  0  0  0  0  2  0  0  0  0  0  0
  1 13  1  0  0  0  0
  1 11  2  0  0  0  0
  2  8  1  0  0  0  0
  2  6  1  0  0  0  0
  3 12  1  0  0  0  0
  3  8  2  0  0  0  0
  4 15  2  0  0  0  0
  4 18  1  0  0  0  0
  5 11  1  0  0  0  0
  6  5  2  0  0  0  0
  7 18  2  0  0  0  0
  7 14  1  0  0  0  0
  8  1  1  0  0  0  0
  9  7  1  0  0  0  0
 10  4  1  0  0  0  0
 12 19  1  0  0  0  0
 14  2  2  0  0  0  0
 15 16  1  0  0  0  0
 16 12  2  0  0  0  0
 17 10  1  0  0  0  0
 17  9  2  0  0  0  0
 18  3  1  0  0  0  0
 19 13  2  0  0  0  0
 20 26  1  1  0  0  0
 20 21  1  0  0  0  0
 21 23  1  0  0  0  0
 22 16  1  6  0  0  0
 22 25  1  0  0  0  0
 24 20  1  0  0  0  0
 24 22  1  0  0  0  0
 25 23  1  0  0  0  0
 27  9  1  0  0  0  0
 29 27  1  6  0  0  0
 30 28  1  1  0  0  0
 30 29  1  0  0  0  0
 31 32  1  0  0  0  0
 31 34  1  0  0  0  0
 32 33  1  0  0  0  0
 33 29  1  0  0  0  0
 34 30  1  0  0  0  0
M  END
>  <MODEL>
4

>  <REMARK>
 VINA RESULT:      -9.5      2.852      5.452
  Name = 
  3 active torsions:
  status: ('A' for Active; 'I' for Inactive)
    1  A    between atoms: C_3  and  C_13
    2  A    between atoms: C_3  and  C_17
    3  A    between atoms: C_12  and  C_28
                            x       y       z     vdW  Elec       q    Type
                         _______ _______ _______ _____ _____    ______ ____

>  <TORSDO>
F 3

$$$$
=
 OpenBabel10262423513D

 34 40  0  0  1  0  0  0  0  0999 V2000
  188.7400  177.7550  137.8030 C   0  0  0  0  0  0  0  0  0  0  0  0
  189.5530  177.3080  140.0640 C   0  0  0  0  0  0  0  0  0  0  0  0
  187.2750  178.0450  139.7130 C   0  0  0  0  0  0  0  0  0  0  0  0
  185.8080  178.3370  141.6050 C   0  0  0  0  0  0  0  0  0  0  0  0
  191.0220  177.0180  138.1550 C   0  0  0  0  0  3  0  0  0  0  0  0
  190.8040  176.9650  139.5390 C   0  0  0  0  0  3  0  0  0  0  0  0
  188.1060  177.5900  141.9360 C   0  0  0  0  0  0  0  0  0  0  0  0
  188.5240  177.7030  139.1890 C   0  0  0  0  0  0  0  0  0  0  0  0
  187.8590  177.5080  143.3860 C   0  0  0  0  0  0  0  0  0  0  0  0
  185.5530  178.3220  143.0890 C   0  0  0  0  0  3  0  0  0  0  0  0
  189.9930  177.4120  137.2870 C   0  0  0  0  0  3  0  0  0  0  0  0
  186.2430  178.4380  138.8470 C   0  0  0  0  0  0  0  0  0  0  0  0
  187.6880  178.1520  136.9690 C   0  0  0  0  0  3  0  0  0  0  0  0
  189.3220  177.2590  141.4060 N   0  0  0  0  0  0  0  0  0  0  0  0
  184.8160  178.7200  140.7530 N   0  0  0  0  0  2  0  0  0  0  0  0
  184.9900  178.7780  139.4000 C   0  0  0  0  0  0  0  0  0  0  0  0
  186.6940  177.8260  143.8740 N   0  0  0  0  0  0  0  0  0  0  0  0
  187.0630  177.9910  141.0940 C   0  0  0  0  0  0  0  0  0  0  0  0
  186.4760  178.4810  137.5020 N   0  0  0  0  0  0  0  0  0  0  0  0
  181.8860  178.4560  137.1240 C   0  0  1  0  0  3  0  0  0  0  0  0
  181.3400  179.8640  137.4020 C   0  0  0  0  0  2  0  0  0  0  0  0
  183.8300  179.2100  138.5550 C   0  0  1  0  0  3  0  0  0  0  0  0
  181.5110  180.2580  138.8660 C   0  0  0  0  0  2  0  0  0  0  0  0
  182.9900  178.0170  138.0930 C   0  0  0  0  0  2  0  0  0  0  0  0
  182.9920  180.2920  139.2560 C   0  0  0  0  0  2  0  0  0  0  0  0
  180.8420  177.5310  137.1620 O   0  0  0  0  0  1  0  0  0  0  0  0
  188.9250  177.0090  144.3070 C   0  0  0  0  0  2  0  0  0  0  0  0
  191.0420  179.0310  143.8710 N   0  0  0  0  0  1  0  0  0  0  0  0
  189.3100  178.0730  145.3360 C   0  0  2  0  0  3  0  0  0  0  0  0
  190.7850  178.4800  145.1900 C   0  0  1  0  0  3  0  0  0  0  0  0
  191.2760  176.4810  146.5540 C   0  0  0  0  0  2  0  0  0  0  0  0
  190.2910  177.1500  147.5120 C   0  0  0  0  0  2  0  0  0  0  0  0
  189.0270  177.5760  146.7620 C   0  0  0  0  0  2  0  0  0  0  0  0
  191.7110  177.3670  145.4600 N   0  0  0  0  0  2  0  0  0  0  0  0
  1  8  2  0  0  0  0
  2 14  1  0  0  0  0
  3 18  2  0  0  0  0
  4 10  2  0  0  0  0
  5  6  1  0  0  0  0
  6  2  2  0  0  0  0
  7  9  1  0  0  0  0
  8  3  1  0  0  0  0
  8  2  1  0  0  0  0
  9 17  2  0  0  0  0
  9 27  1  0  0  0  0
 10 17  1  0  0  0  0
 11  1  1  0  0  0  0
 11  5  2  0  0  0  0
 12 16  2  0  0  0  0
 12  3  1  0  0  0  0
 13 19  2  0  0  0  0
 13  1  1  0  0  0  0
 14  7  2  0  0  0  0
 15  4  1  0  0  0  0
 16 15  1  0  0  0  0
 18  4  1  0  0  0  0
 18  7  1  0  0  0  0
 19 12  1  0  0  0  0
 20 26  1  1  0  0  0
 20 21  1  0  0  0  0
 20 24  1  0  0  0  0
 21 23  1  0  0  0  0
 22 25  1  0  0  0  0
 22 16  1  1  0  0  0
 23 25  1  0  0  0  0
 24 22  1  0  0  0  0
 29 27  1  6  0  0  0
 29 33  1  0  0  0  0
 30 28  1  6  0  0  0
 30 29  1  0  0  0  0
 30 34  1  0  0  0  0
 31 32  1  0  0  0  0
 33 32  1  0  0  0  0
 34 31  1  0  0  0  0
M  END
>  <MODEL>
5

>  <REMARK>
 VINA RESULT:      -9.5      3.019      8.134
  Name = 
  3 active torsions:
  status: ('A' for Active; 'I' for Inactive)
    1  A    between atoms: C_3  and  C_13
    2  A    between atoms: C_3  and  C_17
    3  A    between atoms: C_12  and  C_28
                            x       y       z     vdW  Elec       q    Type
                         _______ _______ _______ _____ _____    ______ ____

>  <TORSDO>
F 3

$$$$
=
 OpenBabel10262423513D

 34 40  0  0  1  0  0  0  0  0999 V2000
  189.2640  177.6690  140.8230 C   0  0  0  0  0  0  0  0  0  0  0  0
  187.3570  178.3870  139.4740 C   0  0  0  0  0  0  0  0  0  0  0  0
  187.1020  178.0390  141.8550 C   0  0  0  0  0  0  0  0  0  0  0  0
  184.9560  178.4040  142.8940 C   0  0  0  0  0  0  0  0  0  0  0  0
  189.5180  178.0170  138.4380 C   0  0  0  0  0  3  0  0  0  0  0  0
  188.1670  178.3790  138.3340 C   0  0  0  0  0  3  0  0  0  0  0  0
  185.2360  178.7550  140.4970 C   0  0  0  0  0  0  0  0  0  0  0  0
  187.9110  178.0300  140.7170 C   0  0  0  0  0  0  0  0  0  0  0  0
  183.8230  179.1630  140.4030 C   0  0  0  0  0  0  0  0  0  0  0  0
  183.4940  178.7560  142.8110 C   0  0  0  0  0  3  0  0  0  0  0  0
  190.0670  177.6620  139.6790 C   0  0  0  0  0  3  0  0  0  0  0  0
  187.6490  177.6870  143.0990 C   0  0  0  0  0  0  0  0  0  0  0  0
  189.7750  177.3220  142.0790 C   0  0  0  0  0  3  0  0  0  0  0  0
  186.0430  178.7400  139.3930 N   0  0  0  0  0  0  0  0  0  0  0  0
  185.4990  178.0560  144.0950 N   0  0  0  0  0  0  0  0  0  0  0  0
  186.8100  177.7030  144.2340 C   0  0  0  0  0  0  0  0  0  0  0  0
  183.0690  179.1720  141.4640 N   0  0  0  0  0  0  0  0  0  0  0  0
  185.7550  178.4010  141.7470 C   0  0  1  0  0  3  0  0  0  0  0  0
  188.9670  177.3390  143.1780 N   0  0  0  0  0  0  0  0  0  0  0  0
  189.3330  176.9130  147.0510 C   0  0  1  0  0  3  0  0  0  0  0  0
  188.3680  177.2020  148.2110 C   0  0  0  0  0  2  0  0  0  0  0  0
  187.3050  177.3420  145.6030 C   0  0  1  0  0  3  0  0  0  0  0  0
  187.4860  178.4130  147.9250 C   0  0  0  0  0  2  0  0  0  0  0  0
  188.8310  177.4110  145.6910 C   0  0  0  0  0  2  0  0  0  0  0  0
  186.6070  178.1730  146.6930 C   0  0  0  0  0  2  0  0  0  0  0  0
  190.5770  177.4830  147.3220 O   0  0  0  0  0  1  0  0  0  0  0  0
  183.2550  179.6220  139.0990 C   0  0  0  0  0  2  0  0  0  0  0  0
  181.1710  177.5250  139.2370 N   0  0  0  0  0  1  0  0  0  0  0  0
  181.7590  179.9160  139.2210 C   0  0  2  0  0  3  0  0  0  0  0  0
  180.9190  178.7980  138.5840 C   0  0  1  0  0  3  0  0  0  0  0  0
  181.3310  179.9630  136.4460 C   0  0  0  0  0  2  0  0  0  0  0  0
  180.7440  181.1440  137.2180 C   0  0  0  0  0  2  0  0  0  0  0  0
  181.4190  181.2730  138.5850 C   0  0  0  0  0  2  0  0  0  0  0  0
  181.1440  178.6730  137.1350 N   0  0  0  0  0  2  0  0  0  0  0  0
  1 13  1  0  0  0  0
  2  8  1  0  0  0  0
  3 12  1  0  0  0  0
  4 15  2  0  0  0  0
  5 11  1  0  0  0  0
  6  5  2  0  0  0  0
  6  2  1  0  0  0  0
  8  1  1  0  0  0  0
  8  3  2  0  0  0  0
  9  7  2  0  0  0  0
  9 17  1  0  0  0  0
 10  4  1  0  0  0  0
 11  1  2  0  0  0  0
 12 19  1  0  0  0  0
 12 16  2  0  0  0  0
 13 19  2  0  0  0  0
 14  2  2  0  0  0  0
 14  7  1  0  0  0  0
 15 16  1  0  0  0  0
 17 10  2  0  0  0  0
 18  7  1  1  0  0  0
 18  3  1  0  0  0  0
 18  4  1  0  0  0  0
 20 26  1  1  0  0  0
 20 21  1  0  0  0  0
 22 16  1  6  0  0  0
 22 24  1  0  0  0  0
 22 25  1  0  0  0  0
 23 21  1  0  0  0  0
 24 20  1  0  0  0  0
 25 23  1  0  0  0  0
 27  9  1  0  0  0  0
 29 27  1  6  0  0  0
 30 29  1  0  0  0  0
 30 28  1  1  0  0  0
 31 34  1  0  0  0  0
 31 32  1  0  0  0  0
 32 33  1  0  0  0  0
 33 29  1  0  0  0  0
 34 30  1  0  0  0  0
M  END
>  <MODEL>
6

>  <REMARK>
 VINA RESULT:      -9.5      2.016      5.019
  Name = 
  3 active torsions:
  status: ('A' for Active; 'I' for Inactive)
    1  A    between atoms: C_3  and  C_13
    2  A    between atoms: C_3  and  C_17
    3  A    between atoms: C_12  and  C_28
                            x       y       z     vdW  Elec       q    Type
                         _______ _______ _______ _____ _____    ______ ____

>  <TORSDO>
F 3

$$$$
=
 OpenBabel10262423513D

 34 40  0  0  1  0  0  0  0  0999 V2000
  189.5230  177.5210  139.7800 C   0  0  0  0  0  0  0  0  0  0  0  0
  187.4090  178.3100  138.8410 C   0  0  0  0  0  0  0  0  0  0  0  0
  187.6000  177.8700  141.2130 C   0  0  0  0  0  0  0  0  0  0  0  0
  185.6930  178.2130  142.6500 C   0  0  0  0  0  0  0  0  0  0  0  0
  189.3320  177.9610  137.4040 C   0  0  0  0  0  3  0  0  0  0  0  0
  187.9910  178.3390  137.5700 C   0  0  0  0  0  3  0  0  0  0  0  0
  185.5240  178.6560  140.2570 C   0  0  0  0  0  0  0  0  0  0  0  0
  188.1810  177.8980  139.9430 C   0  0  0  0  0  0  0  0  0  0  0  0
  184.1260  179.0810  140.4460 C   0  0  0  0  0  0  0  0  0  0  0  0
  184.2470  178.5820  142.8560 C   0  0  0  0  0  3  0  0  0  0  0  0
  190.0980  177.5520  138.5060 C   0  0  0  0  0  3  0  0  0  0  0  0
  188.3640  177.4630  142.3180 C   0  0  0  0  0  0  0  0  0  0  0  0
  190.2550  177.1200  140.9030 C   0  0  0  0  0  3  0  0  0  0  0  0
  186.1090  178.6780  139.0220 N   0  0  0  0  0  0  0  0  0  0  0  0
  186.4460  177.8120  143.7130 N   0  0  0  0  0  0  0  0  0  0  0  0
  187.7530  177.4420  143.5900 C   0  0  0  0  0  0  0  0  0  0  0  0
  183.5840  179.0550  141.6300 N   0  0  0  0  0  0  0  0  0  0  0  0
  186.2630  178.2480  141.3740 C   0  0  1  0  0  3  0  0  0  0  0  0
  189.6680  177.1000  142.1340 N   0  0  0  0  0  0  0  0  0  0  0  0
  190.7430  176.8300  145.9600 C   0  0  1  0  0  3  0  0  0  0  0  0
  189.9120  176.7780  147.2500 C   0  0  0  0  0  2  0  0  0  0  0  0
  188.4900  177.0220  144.8270 C   0  0  1  0  0  3  0  0  0  0  0  0
  188.7940  177.8170  147.2450 C   0  0  0  0  0  2  0  0  0  0  0  0
  189.9760  177.3800  144.7510 C   0  0  0  0  0  2  0  0  0  0  0  0
  187.8110  177.5590  146.0980 C   0  0  0  0  0  2  0  0  0  0  0  0
  191.8880  177.5970  146.1680 O   0  0  0  0  0  1  0  0  0  0  0  0
  183.3310  179.5970  139.2900 C   0  0  0  0  0  2  0  0  0  0  0  0
  181.3620  179.9850  137.1150 N   0  0  0  0  0  1  0  0  0  0  0  0
  182.7110  178.4510  138.4900 C   0  0  2  0  0  3  0  0  0  0  0  0
  181.3080  178.8220  137.9830 C   0  0  1  0  0  3  0  0  0  0  0  0
  180.5250  178.1460  140.2260 C   0  0  0  0  0  2  0  0  0  0  0  0
  181.2560  176.8540  139.8610 C   0  0  0  0  0  2  0  0  0  0  0  0
  182.6570  177.1680  139.3330 C   0  0  0  0  0  2  0  0  0  0  0  0
  180.3510  179.0550  139.0780 N   0  0  0  0  0  2  0  0  0  0  0  0
  1  8  1  0  0  0  0
  1 13  1  0  0  0  0
  2 14  2  0  0  0  0
  2  8  1  0  0  0  0
  3 18  1  0  0  0  0
  3 12  1  0  0  0  0
  4 10  1  0  0  0  0
  4 15  2  0  0  0  0
  5  6  2  0  0  0  0
  5 11  1  0  0  0  0
  6  2  1  0  0  0  0
  7  9  2  0  0  0  0
  8  3  2  0  0  0  0
  9 17  1  0  0  0  0
 11  1  2  0  0  0  0
 12 16  2  0  0  0  0
 13 19  2  0  0  0  0
 14  7  1  0  0  0  0
 16 15  1  0  0  0  0
 17 10  2  0  0  0  0
 18  7  1  1  0  0  0
 18  4  1  0  0  0  0
 19 12  1  0  0  0  0
 20 26  1  1  0  0  0
 20 21  1  0  0  0  0
 22 16  1  6  0  0  0
 22 25  1  0  0  0  0
 23 21  1  0  0  0  0
 24 22  1  0  0  0  0
 24 20  1  0  0  0  0
 25 23  1  0  0  0  0
 27  9  1  0  0  0  0
 29 27  1  1  0  0  0
 29 33  1  0  0  0  0
 30 28  1  1  0  0  0
 30 29  1  0  0  0  0
 30 34  1  0  0  0  0
 32 31  1  0  0  0  0
 33 32  1  0  0  0  0
 34 31  1  0  0  0  0
M  END
>  <MODEL>
7

>  <REMARK>
 VINA RESULT:      -9.4      1.999      4.905
  Name = 
  3 active torsions:
  status: ('A' for Active; 'I' for Inactive)
    1  A    between atoms: C_3  and  C_13
    2  A    between atoms: C_3  and  C_17
    3  A    between atoms: C_12  and  C_28
                            x       y       z     vdW  Elec       q    Type
                         _______ _______ _______ _____ _____    ______ ____

>  <TORSDO>
F 3

$$$$
=
 OpenBabel10262423513D

 34 40  0  0  1  0  0  0  0  0999 V2000
  184.9690  178.6860  142.0950 C   0  0  0  0  0  0  0  0  0  0  0  0
  186.6320  178.3850  143.8590 C   0  0  0  0  0  0  0  0  0  0  0  0
  187.2830  178.2360  141.5330 C   0  0  0  0  0  0  0  0  0  0  0  0
  189.5830  177.7890  140.9610 C   0  0  0  0  0  0  0  0  0  0  0  0
  184.3170  178.8330  144.4240 C   0  0  0  0  0  3  0  0  0  0  0  0
  185.6380  178.5840  144.8220 C   0  0  0  0  0  3  0  0  0  0  0  0
  188.9070  177.9480  143.2990 C   0  0  0  0  0  0  0  0  0  0  0  0
  186.2910  178.4350  142.4950 C   0  0  0  0  0  0  0  0  0  0  0  0
  190.3040  177.7170  143.7070 C   0  0  0  0  0  0  0  0  0  0  0  0
  191.0050  177.4880  141.3560 C   0  0  0  0  0  3  0  0  0  0  0  0
  183.9810  178.8840  143.0630 C   0  0  0  0  0  3  0  0  0  0  0  0
  186.9500  178.2880  140.1700 C   0  0  0  0  0  0  0  0  0  0  0  0
  184.6720  178.7300  140.7270 C   0  0  0  0  0  3  0  0  0  0  0  0
  187.9230  178.1450  144.2270 N   0  0  0  0  0  0  0  0  0  0  0  0
  189.2450  177.8390  139.6420 N   0  0  0  0  0  2  0  0  0  0  0  0
  187.9710  178.0830  139.2180 C   0  0  0  0  0  0  0  0  0  0  0  0
  191.2300  177.5320  142.8100 N   0  0  0  0  0  0  0  0  0  0  0  0
  188.6000  177.9880  141.9340 C   0  0  0  0  0  0  0  0  0  0  0  0
  185.6570  178.5330  139.8050 N   0  0  0  0  0  0  0  0  0  0  0  0
  188.7350  178.0330  135.4310 C   0  0  1  0  0  3  0  0  0  0  0  0
  187.3170  177.6400  134.9900 C   0  0  0  0  0  2  0  0  0  0  0  0
  187.7110  178.1200  137.7420 C   0  0  1  0  0  3  0  0  0  0  0  0
  186.6970  176.6120  135.9320 C   0  0  0  0  0  2  0  0  0  0  0  0
  188.9850  177.8640  136.9340 C   0  0  0  0  0  2  0  0  0  0  0  0
  186.5580  177.1800  137.3490 C   0  0  0  0  0  2  0  0  0  0  0  0
  189.6730  177.2870  134.7190 O   0  0  0  0  0  1  0  0  0  0  0  0
  190.6830  177.7450  145.1530 C   0  0  0  0  0  2  0  0  0  0  0  0
  188.4640  177.0940  146.9990 N   0  0  0  0  0  1  0  0  0  0  0  0
  190.4910  176.3740  145.8020 C   0  0  2  0  0  3  0  0  0  0  0  0
  189.7780  176.4950  147.1570 C   0  0  1  0  0  3  0  0  0  0  0  0
  192.0130  177.0070  148.0750 C   0  0  0  0  0  2  0  0  0  0  0  0
  192.3610  175.6780  147.4050 C   0  0  0  0  0  2  0  0  0  0  0  0
  191.8410  175.6570  145.9660 C   0  0  0  0  0  2  0  0  0  0  0  0
  190.5610  177.2550  148.1460 N   0  0  0  0  0  2  0  0  0  0  0  0
  1  8  2  0  0  0  0
  1 11  1  0  0  0  0
  2 14  1  0  0  0  0
  2  6  2  0  0  0  0
  3 18  2  0  0  0  0
  3  8  1  0  0  0  0
  4 10  2  0  0  0  0
  4 18  1  0  0  0  0
  5  6  1  0  0  0  0
  7  9  1  0  0  0  0
  7 14  2  0  0  0  0
  8  2  1  0  0  0  0
  9 27  1  0  0  0  0
 10 17  1  0  0  0  0
 11  5  2  0  0  0  0
 12  3  1  0  0  0  0
 13  1  1  0  0  0  0
 15  4  1  0  0  0  0
 16 15  1  0  0  0  0
 16 12  2  0  0  0  0
 17  9  2  0  0  0  0
 18  7  1  0  0  0  0
 19 12  1  0  0  0  0
 19 13  2  0  0  0  0
 20 26  1  6  0  0  0
 20 24  1  0  0  0  0
 21 20  1  0  0  0  0
 21 23  1  0  0  0  0
 22 16  1  1  0  0  0
 23 25  1  0  0  0  0
 24 22  1  0  0  0  0
 25 22  1  0  0  0  0
 29 27  1  1  0  0  0
 29 33  1  0  0  0  0
 29 30  1  0  0  0  0
 30 28  1  6  0  0  0
 30 34  1  0  0  0  0
 31 34  1  0  0  0  0
 32 31  1  0  0  0  0
 33 32  1  0  0  0  0
M  END
>  <MODEL>
8

>  <REMARK>
 VINA RESULT:      -9.3      2.899      7.908
  Name = 
  3 active torsions:
  status: ('A' for Active; 'I' for Inactive)
    1  A    between atoms: C_3  and  C_13
    2  A    between atoms: C_3  and  C_17
    3  A    between atoms: C_12  and  C_28
                            x       y       z     vdW  Elec       q    Type
                         _______ _______ _______ _____ _____    ______ ____

>  <TORSDO>
F 3

$$$$
=
 OpenBabel10262423513D

 34 40  0  0  1  0  0  0  0  0999 V2000
  188.7340  177.2250  145.3480 C   0  0  0  0  0  0  0  0  0  0  0  0
  186.5070  178.1860  145.0500 C   0  0  0  0  0  0  0  0  0  0  0  0
  187.8980  177.7140  143.1270 C   0  0  0  0  0  0  0  0  0  0  0  0
  187.0780  178.1950  140.9100 C   0  0  0  0  0  0  0  0  0  0  0  0
  187.3410  177.6990  147.2750 C   0  0  0  0  0  3  0  0  0  0  0  0
  186.3250  178.1790  146.4360 C   0  0  0  0  0  3  0  0  0  0  0  0
  185.6900  178.6590  142.8620 C   0  0  0  0  0  0  0  0  0  0  0  0
  187.7160  177.7080  144.5110 C   0  0  0  0  0  0  0  0  0  0  0  0
  184.6160  179.1330  141.9720 C   0  0  0  0  0  0  0  0  0  0  0  0
  186.0180  178.7350  139.9850 C   0  0  0  0  0  2  0  0  0  0  0  0
  188.5450  177.2220  146.7330 C   0  0  0  0  0  3  0  0  0  0  0  0
  189.1000  177.2360  142.5820 C   0  0  0  0  0  0  0  0  0  0  0  0
  189.9210  176.7570  144.7710 C   0  0  0  0  0  3  0  0  0  0  0  0
  185.5290  178.6450  144.2190 N   0  0  0  0  0  0  0  0  0  0  0  0
  188.2510  177.7320  140.3950 N   0  0  0  0  0  0  0  0  0  0  0  0
  189.2600  177.2530  141.1800 C   0  0  0  0  0  0  0  0  0  0  0  0
  184.7850  179.1370  140.6800 N   0  0  0  0  0  0  0  0  0  0  0  0
  186.8820  178.1940  142.2940 C   0  0  0  0  0  0  0  0  0  0  0  0
  190.0770  176.7710  143.4160 N   0  0  0  0  0  0  0  0  0  0  0  0
  191.5710  176.0460  138.3280 C   0  0  1  0  0  3  0  0  0  0  0  0
  192.8890  176.3640  139.0490 C   0  0  0  0  0  2  0  0  0  0  0  0
  190.5080  176.7640  140.5080 C   0  0  1  0  0  3  0  0  0  0  0  0
  192.8060  177.6750  139.8270 C   0  0  0  0  0  2  0  0  0  0  0  0
  190.3370  176.6710  138.9900 C   0  0  0  0  0  2  0  0  0  0  0  0
  191.7330  177.5970  140.9190 C   0  0  0  0  0  2  0  0  0  0  0  0
  191.6470  176.4680  137.0010 O   0  0  0  0  0  1  0  0  0  0  0  0
  183.3000  179.5630  142.5370 C   0  0  0  0  0  2  0  0  0  0  0  0
  181.8100  178.6030  140.1660 N   0  0  0  0  0  1  0  0  0  0  0  0
  182.3060  178.4020  142.5700 C   0  0  2  0  0  3  0  0  0  0  0  0
  181.2220  178.5670  141.4940 C   0  0  1  0  0  3  0  0  0  0  0  0
  180.0940  180.0400  143.1250 C   0  0  0  0  0  2  0  0  0  0  0  0
  180.2360  178.8080  144.0180 C   0  0  0  0  0  2  0  0  0  0  0  0
  181.6680  178.2730  143.9620 C   0  0  0  0  0  2  0  0  0  0  0  0
  180.3870  179.7610  141.7070 N   0  0  0  0  0  2  0  0  0  0  0  0
  1 11  2  0  0  0  0
  2  6  1  0  0  0  0
  3  8  2  0  0  0  0
  4 18  1  0  0  0  0
  6  5  2  0  0  0  0
  7 14  1  0  0  0  0
  8  2  1  0  0  0  0
  8  1  1  0  0  0  0
  9 27  1  0  0  0  0
  9  7  1  0  0  0  0
 10 17  1  0  0  0  0
 10  4  1  0  0  0  0
 11  5  1  0  0  0  0
 12  3  1  0  0  0  0
 12 19  1  0  0  0  0
 13  1  1  0  0  0  0
 14  2  2  0  0  0  0
 15  4  2  0  0  0  0
 15 16  1  0  0  0  0
 16 12  2  0  0  0  0
 17  9  2  0  0  0  0
 18  7  2  0  0  0  0
 18  3  1  0  0  0  0
 19 13  2  0  0  0  0
 20 26  1  6  0  0  0
 20 24  1  0  0  0  0
 20 21  1  0  0  0  0
 21 23  1  0  0  0  0
 22 25  1  0  0  0  0
 22 16  1  1  0  0  0
 23 25  1  0  0  0  0
 24 22  1  0  0  0  0
 29 27  1  1  0  0  0
 29 33  1  0  0  0  0
 30 28  1  6  0  0  0
 30 34  1  0  0  0  0
 30 29  1  0  0  0  0
 31 32  1  0  0  0  0
 33 32  1  0  0  0  0
 34 31  1  0  0  0  0
M  END
>  <MODEL>
9

>  <REMARK>
 VINA RESULT:      -9.3      2.992      7.119
  Name = 
  3 active torsions:
  status: ('A' for Active; 'I' for Inactive)
    1  A    between atoms: C_3  and  C_13
    2  A    between atoms: C_3  and  C_17
    3  A    between atoms: C_12  and  C_28
                            x       y       z     vdW  Elec       q    Type
                         _______ _______ _______ _____ _____    ______ ____

>  <TORSDO>
F 3

$$$$
