=
 OpenBabel10272414063D

 43 48  0  0  1  0  0  0  0  0999 V2000
  191.6450  176.1500  147.0180 C   0  0  0  0  0  0  0  0  0  0  0  0
  187.3070  177.7460  144.7120 C   0  0  0  0  0  0  0  0  0  0  0  0
  187.7920  178.3000  141.8810 C   0  0  0  0  0  0  0  0  0  0  0  0
  189.3840  176.9070  146.4960 C   0  0  0  0  0  0  0  0  0  0  0  0
  191.9440  176.0870  145.5840 C   0  0  0  0  0  3  0  0  0  0  0  0
  192.5670  175.8310  147.9120 C   0  0  0  0  0  1  0  0  0  0  0  0
  189.6580  176.8850  145.1710 C   0  0  0  0  0  0  0  0  0  0  0  0
  190.3700  176.5500  147.4290 O   0  0  0  0  0  0  0  0  0  0  0  0
  190.9940  176.4330  144.7140 C   0  0  0  0  0  3  0  0  0  0  0  0
  189.2520  178.4430  142.9300 S   0  0  0  0  0  0  0  0  0  0  0  0
  188.6120  177.2280  144.1320 C   0  0  2  0  0  3  0  0  0  0  0  0
  187.0890  177.6910  146.1710 C   0  0  0  0  0  3  0  0  0  0  0  0
  186.3440  178.2070  143.8870 C   0  0  1  0  0  3  0  0  0  0  0  0
  186.5720  178.2860  142.4280 C   0  0  0  0  0  3  0  0  0  0  0  0
  188.0570  177.2990  146.9950 C   0  0  0  0  0  3  0  0  0  0  0  0
  187.9370  178.2100  140.4190 C   0  0  0  0  0  0  0  0  0  0  0  0
  189.1890  177.8170  139.8500 N   0  0  0  0  0  2  0  0  0  0  0  0
  186.9580  178.4810  139.6710 O   0  0  0  0  0  0  0  0  0  0  0  0
  189.4130  177.6970  138.4170 C   0  0  1  0  0  3  0  0  0  0  0  0
  189.4130  178.9520  137.8400 F   0  0  0  0  0  0  0  0  0  0  0  0
  190.7610  177.0430  138.1720 C   0  0  0  0  0  2  0  0  0  0  0  0
  190.6680  176.0970  137.0690 N   0  0  0  0  0  0  0  0  0  0  0  0
  190.6380  173.7550  137.2040 O   0  0  0  0  0  0  0  0  0  0  0  0
  189.2910  175.6640  137.0030 C   0  0  0  0  0  2  0  0  0  0  0  0
  191.4040  174.9050  137.4650 C   0  0  1  0  0  3  0  0  0  0  0  0
  189.3080  174.1800  137.2570 C   0  0  0  0  0  2  0  0  0  0  0  0
  192.7100  174.8410  136.7320 C   0  0  0  0  0  0  0  0  0  0  0  0
  192.9130  175.6220  135.7620 O   0  0  0  0  0  0  0  0  0  0  0  0
  193.7710  173.9090  137.1630 C   0  0  0  0  0  0  0  0  0  0  0  0
  195.6540  173.3870  138.6120 C   0  0  0  0  0  3  0  0  0  0  0  0
  194.9210  171.7750  136.9620 C   0  0  0  0  0  3  0  0  0  0  0  0
  195.7890  172.1420  137.9950 C   0  0  0  0  0  3  0  0  0  0  0  0
  193.9160  172.6550  136.5490 C   0  0  0  0  0  3  0  0  0  0  0  0
  194.6490  174.2680  138.1990 C   0  0  0  0  0  3  0  0  0  0  0  0
  185.0040  178.6330  144.4140 C   0  0  0  0  0  2  0  0  0  0  0  0
  183.2860  178.0550  141.0800 C   0  0  0  0  0  3  0  0  0  0  0  0
  182.0130  178.5870  141.3250 C   0  0  0  0  0  0  0  0  0  0  0  0
  182.6920  179.1290  143.5960 C   0  0  0  0  0  3  0  0  0  0  0  0
  184.2580  178.0590  142.0860 C   0  0  0  0  0  3  0  0  0  0  0  0
  183.9600  178.5920  143.3460 C   0  0  0  0  0  0  0  0  0  0  0  0
  181.7210  179.1250  142.5910 C   0  0  0  0  0  3  0  0  0  0  0  0
  180.9590  179.6090  139.3330 C   0  0  0  0  0  1  0  0  0  0  0  0
  181.0620  178.5700  140.3000 O   0  0  0  0  0  0  0  0  0  0  0  0
  1  8  1  0  0  0  0
  1  6  1  0  0  0  0
  2 12  2  0  0  0  0
  3 14  2  0  0  0  0
  3 10  1  0  0  0  0
  4 15  2  0  0  0  0
  4  8  1  0  0  0  0
  5  1  2  0  0  0  0
  7  4  1  0  0  0  0
  9  7  2  0  0  0  0
  9  5  1  0  0  0  0
 11 10  1  6  0  0  0
 11  2  1  0  0  0  0
 11  7  1  0  0  0  0
 12 15  1  0  0  0  0
 13 35  1  6  0  0  0
 13  2  1  0  0  0  0
 14 13  1  0  0  0  0
 16  3  1  0  0  0  0
 17 16  1  0  0  0  0
 18 16  2  0  0  0  0
 19 20  1  6  0  0  0
 19 17  1  0  0  0  0
 21 19  1  0  0  0  0
 22 25  1  0  0  0  0
 22 21  1  0  0  0  0
 23 26  1  0  0  0  0
 23 25  1  0  0  0  0
 24 22  1  0  0  0  0
 24 26  1  0  0  0  0
 25 27  1  6  0  0  0
 27 29  1  0  0  0  0
 28 27  2  0  0  0  0
 29 34  1  0  0  0  0
 31 32  2  0  0  0  0
 32 30  1  0  0  0  0
 33 31  1  0  0  0  0
 33 29  2  0  0  0  0
 34 30  2  0  0  0  0
 36 37  2  0  0  0  0
 36 39  1  0  0  0  0
 37 41  1  0  0  0  0
 39 40  2  0  0  0  0
 40 38  1  0  0  0  0
 40 35  1  0  0  0  0
 41 38  2  0  0  0  0
 42 43  1  0  0  0  0
 43 37  1  0  0  0  0
M  END
>  <MODEL>
1

>  <REMARK>
 VINA RESULT:     -10.6      0.000      0.000
  Name = 
  9 active torsions:
  status: ('A' for Active; 'I' for Inactive)
    1  A    between atoms: C_1  and  C_34
    2  A    between atoms: C_1  and  C_35
    3  A    between atoms: C_2  and  C_13
    4  A    between atoms: C_3  and  N_4
    5  A    between atoms: C_3  and  C_12
    6  A    between atoms: N_6  and  C_12
    7  A    between atoms: C_11  and  C_14
    8  A    between atoms: C_14  and  C_22
    9  A    between atoms: C_19  and  O_37
                            x       y       z     vdW  Elec       q    Type
                         _______ _______ _______ _____ _____    ______ ____

>  <TORSDO>
F 9

$$$$
=
 OpenBabel10272414063D

 43 48  0  0  1  0  0  0  0  0999 V2000
  191.7200  176.1270  147.0180 C   0  0  0  0  0  0  0  0  0  0  0  0
  187.3570  177.7160  144.7570 C   0  0  0  0  0  0  0  0  0  0  0  0
  187.8010  178.2280  141.9110 C   0  0  0  0  0  0  0  0  0  0  0  0
  189.4560  176.8900  146.5210 C   0  0  0  0  0  0  0  0  0  0  0  0
  191.9980  176.0430  145.5810 C   0  0  0  0  0  3  0  0  0  0  0  0
  192.6540  175.8160  147.9030 C   0  0  0  0  0  1  0  0  0  0  0  0
  189.7100  176.8480  145.1920 C   0  0  0  0  0  0  0  0  0  0  0  0
  190.4540  176.5410  147.4430 O   0  0  0  0  0  0  0  0  0  0  0  0
  191.0360  176.3830  144.7210 C   0  0  0  0  0  3  0  0  0  0  0  0
  189.2780  178.3770  142.9350 S   0  0  0  0  0  0  0  0  0  0  0  0
  188.6500  177.1830  144.1640 C   0  0  2  0  0  3  0  0  0  0  0  0
  187.1610  177.6820  146.2190 C   0  0  0  0  0  3  0  0  0  0  0  0
  186.3840  178.1710  143.9400 C   0  0  1  0  0  3  0  0  0  0  0  0
  186.5900  178.2290  142.4770 C   0  0  0  0  0  3  0  0  0  0  0  0
  188.1380  177.2970  147.0340 C   0  0  0  0  0  3  0  0  0  0  0  0
  187.9230  178.1170  140.4480 C   0  0  0  0  0  0  0  0  0  0  0  0
  189.0580  177.4620  139.8760 N   0  0  0  0  0  2  0  0  0  0  0  0
  187.0280  178.6010  139.7030 O   0  0  0  0  0  0  0  0  0  0  0  0
  189.2510  177.3030  138.4420 C   0  0  1  0  0  3  0  0  0  0  0  0
  189.8570  178.4330  137.9280 F   0  0  0  0  0  0  0  0  0  0  0  0
  190.1460  176.1040  138.1840 C   0  0  0  0  0  2  0  0  0  0  0  0
  189.7630  175.4500  136.9410 N   0  0  0  0  0  0  0  0  0  0  0  0
  188.4450  176.3380  135.2150 O   0  0  0  0  0  0  0  0  0  0  0  0
  190.6490  175.9480  135.9140 C   0  0  0  0  0  2  0  0  0  0  0  0
  188.4530  175.9680  136.5710 C   0  0  1  0  0  3  0  0  0  0  0  0
  189.7730  176.6500  134.9110 C   0  0  0  0  0  2  0  0  0  0  0  0
  187.3990  174.9360  136.8380 C   0  0  0  0  0  0  0  0  0  0  0  0
  187.7230  173.7170  136.8730 O   0  0  0  0  0  0  0  0  0  0  0  0
  186.0030  175.3370  137.1040 C   0  0  0  0  0  0  0  0  0  0  0  0
  184.3450  177.0810  137.4620 C   0  0  0  0  0  3  0  0  0  0  0  0
  183.6750  174.7550  137.4990 C   0  0  0  0  0  3  0  0  0  0  0  0
  183.3500  176.1110  137.6050 C   0  0  0  0  0  3  0  0  0  0  0  0
  184.9960  174.3710  137.2490 C   0  0  0  0  0  3  0  0  0  0  0  0
  185.6670  176.6960  137.2130 C   0  0  0  0  0  3  0  0  0  0  0  0
  185.0540  178.6120  144.4810 C   0  0  0  0  0  2  0  0  0  0  0  0
  183.3290  178.1930  141.1280 C   0  0  0  0  0  3  0  0  0  0  0  0
  182.0250  178.6050  141.4300 C   0  0  0  0  0  0  0  0  0  0  0  0
  182.6980  179.0000  143.7320 C   0  0  0  0  0  3  0  0  0  0  0  0
  184.3150  178.1840  142.1200 C   0  0  0  0  0  3  0  0  0  0  0  0
  183.9990  178.5840  143.4240 C   0  0  0  0  0  0  0  0  0  0  0  0
  181.7140  179.0090  142.7400 C   0  0  0  0  0  3  0  0  0  0  0  0
  181.3580  178.9740  139.0760 C   0  0  0  0  0  1  0  0  0  0  0  0
  181.0610  178.6030  140.4170 O   0  0  0  0  0  0  0  0  0  0  0  0
  1  8  1  0  0  0  0
  1  6  1  0  0  0  0
  2 12  2  0  0  0  0
  3 14  2  0  0  0  0
  3 10  1  0  0  0  0
  4 15  2  0  0  0  0
  4  8  1  0  0  0  0
  5  1  2  0  0  0  0
  7  4  1  0  0  0  0
  9  7  2  0  0  0  0
  9  5  1  0  0  0  0
 11 10  1  6  0  0  0
 11  2  1  0  0  0  0
 11  7  1  0  0  0  0
 12 15  1  0  0  0  0
 13 35  1  6  0  0  0
 13  2  1  0  0  0  0
 14 13  1  0  0  0  0
 16  3  1  0  0  0  0
 17 16  1  0  0  0  0
 18 16  2  0  0  0  0
 19 20  1  1  0  0  0
 19 17  1  0  0  0  0
 21 19  1  0  0  0  0
 22 21  1  0  0  0  0
 23 25  1  0  0  0  0
 24 22  1  0  0  0  0
 25 27  1  6  0  0  0
 25 22  1  0  0  0  0
 26 23  1  0  0  0  0
 26 24  1  0  0  0  0
 27 28  2  0  0  0  0
 27 29  1  0  0  0  0
 29 34  2  0  0  0  0
 29 33  1  0  0  0  0
 30 32  2  0  0  0  0
 31 32  1  0  0  0  0
 33 31  2  0  0  0  0
 34 30  1  0  0  0  0
 36 37  2  0  0  0  0
 36 39  1  0  0  0  0
 37 41  1  0  0  0  0
 39 40  2  0  0  0  0
 40 38  1  0  0  0  0
 40 35  1  0  0  0  0
 41 38  2  0  0  0  0
 42 43  1  0  0  0  0
 43 37  1  0  0  0  0
M  END
>  <MODEL>
2

>  <REMARK>
 VINA RESULT:     -10.6      2.311      4.279
  Name = 
  9 active torsions:
  status: ('A' for Active; 'I' for Inactive)
    1  A    between atoms: C_1  and  C_34
    2  A    between atoms: C_1  and  C_35
    3  A    between atoms: C_2  and  C_13
    4  A    between atoms: C_3  and  N_4
    5  A    between atoms: C_3  and  C_12
    6  A    between atoms: N_6  and  C_12
    7  A    between atoms: C_11  and  C_14
    8  A    between atoms: C_14  and  C_22
    9  A    between atoms: C_19  and  O_37
                            x       y       z     vdW  Elec       q    Type
                         _______ _______ _______ _____ _____    ______ ____

>  <TORSDO>
F 9

$$$$
=
 OpenBabel10272414063D

 43 48  0  0  1  0  0  0  0  0999 V2000
  191.6220  176.2000  147.1860 C   0  0  0  0  0  0  0  0  0  0  0  0
  187.3810  177.7820  144.6980 C   0  0  0  0  0  0  0  0  0  0  0  0
  187.9730  178.2940  141.8790 C   0  0  0  0  0  0  0  0  0  0  0  0
  189.3860  176.9600  146.5700 C   0  0  0  0  0  0  0  0  0  0  0  0
  191.9740  176.1160  145.7660 C   0  0  0  0  0  3  0  0  0  0  0  0
  192.5080  175.8900  148.1180 C   0  0  0  0  0  1  0  0  0  0  0  0
  189.7090  176.9180  145.2560 C   0  0  0  0  0  0  0  0  0  0  0  0
  190.3340  176.6120  147.5440 O   0  0  0  0  0  0  0  0  0  0  0  0
  191.0580  176.4540  144.8560 C   0  0  0  0  0  3  0  0  0  0  0  0
  189.3940  178.4450  142.9800 S   0  0  0  0  0  0  0  0  0  0  0  0
  188.7040  177.2500  144.1750 C   0  0  2  0  0  3  0  0  0  0  0  0
  187.1080  177.7480  146.1480 C   0  0  0  0  0  3  0  0  0  0  0  0
  186.4510  178.2350  143.8310 C   0  0  1  0  0  3  0  0  0  0  0  0
  186.7340  178.2920  142.3810 C   0  0  0  0  0  3  0  0  0  0  0  0
  188.0430  177.3650  147.0130 C   0  0  0  0  0  3  0  0  0  0  0  0
  188.1720  178.1820  140.4250 C   0  0  0  0  0  0  0  0  0  0  0  0
  189.4110  177.6860  139.9120 N   0  0  0  0  0  2  0  0  0  0  0  0
  187.2500  178.5250  139.6360 O   0  0  0  0  0  0  0  0  0  0  0  0
  189.6840  177.5380  138.4890 C   0  0  1  0  0  3  0  0  0  0  0  0
  191.0330  177.3060  138.2980 F   0  0  0  0  0  0  0  0  0  0  0  0
  188.9010  176.3560  137.9470 C   0  0  0  0  0  2  0  0  0  0  0  0
  188.5410  176.5870  136.5550 N   0  0  0  0  0  0  0  0  0  0  0  0
  186.4280  177.1570  135.7090 O   0  0  0  0  0  0  0  0  0  0  0  0
  188.5090  178.0190  136.3630 C   0  0  0  0  0  2  0  0  0  0  0  0
  187.1550  176.1700  136.3970 C   0  0  1  0  0  3  0  0  0  0  0  0
  187.0930  178.3570  135.9780 C   0  0  0  0  0  2  0  0  0  0  0  0
  187.0940  174.8660  135.6590 C   0  0  0  0  0  0  0  0  0  0  0  0
  187.9190  174.6420  134.7320 O   0  0  0  0  0  0  0  0  0  0  0  0
  186.1100  173.8320  136.0380 C   0  0  0  0  0  0  0  0  0  0  0  0
  184.7440  172.7470  137.7330 C   0  0  0  0  0  3  0  0  0  0  0  0
  184.6600  171.9740  135.4400 C   0  0  0  0  0  3  0  0  0  0  0  0
  184.2350  171.8730  136.7680 C   0  0  0  0  0  3  0  0  0  0  0  0
  185.5930  172.9500  135.0770 C   0  0  0  0  0  3  0  0  0  0  0  0
  185.6770  173.7220  137.3690 C   0  0  0  0  0  3  0  0  0  0  0  0
  185.0940  178.6750  144.3020 C   0  0  0  0  0  2  0  0  0  0  0  0
  183.4870  177.9840  140.9350 C   0  0  0  0  0  3  0  0  0  0  0  0
  182.1680  178.3950  141.1650 C   0  0  0  0  0  0  0  0  0  0  0  0
  182.7590  178.9680  143.4520 C   0  0  0  0  0  3  0  0  0  0  0  0
  184.4390  178.0630  141.9560 C   0  0  0  0  0  3  0  0  0  0  0  0
  184.0750  178.5520  143.2170 C   0  0  0  0  0  0  0  0  0  0  0  0
  181.8080  178.8880  142.4310 C   0  0  0  0  0  3  0  0  0  0  0  0
  181.2280  179.2060  139.0240 C   0  0  0  0  0  1  0  0  0  0  0  0
  181.2370  178.3040  140.1250 O   0  0  0  0  0  0  0  0  0  0  0  0
  1  8  1  0  0  0  0
  1  6  1  0  0  0  0
  2 12  2  0  0  0  0
  3 14  2  0  0  0  0
  3 10  1  0  0  0  0
  4 15  2  0  0  0  0
  4  8  1  0  0  0  0
  5  1  2  0  0  0  0
  7  4  1  0  0  0  0
  9  7  2  0  0  0  0
  9  5  1  0  0  0  0
 11 10  1  6  0  0  0
 11  2  1  0  0  0  0
 11  7  1  0  0  0  0
 12 15  1  0  0  0  0
 13 35  1  6  0  0  0
 13  2  1  0  0  0  0
 14 13  1  0  0  0  0
 16  3  1  0  0  0  0
 17 16  1  0  0  0  0
 18 16  2  0  0  0  0
 19 20  1  1  0  0  0
 19 17  1  0  0  0  0
 21 19  1  0  0  0  0
 22 21  1  0  0  0  0
 23 26  1  0  0  0  0
 23 25  1  0  0  0  0
 24 22  1  0  0  0  0
 25 27  1  6  0  0  0
 25 22  1  0  0  0  0
 26 24  1  0  0  0  0
 27 29  1  0  0  0  0
 28 27  2  0  0  0  0
 29 34  1  0  0  0  0
 31 32  2  0  0  0  0
 32 30  1  0  0  0  0
 33 31  1  0  0  0  0
 33 29  2  0  0  0  0
 34 30  2  0  0  0  0
 36 37  2  0  0  0  0
 36 39  1  0  0  0  0
 37 41  1  0  0  0  0
 39 40  2  0  0  0  0
 40 38  1  0  0  0  0
 40 35  1  0  0  0  0
 41 38  2  0  0  0  0
 42 43  1  0  0  0  0
 43 37  1  0  0  0  0
M  END
>  <MODEL>
3

>  <REMARK>
 VINA RESULT:     -10.5      2.939      4.133
  Name = 
  9 active torsions:
  status: ('A' for Active; 'I' for Inactive)
    1  A    between atoms: C_1  and  C_34
    2  A    between atoms: C_1  and  C_35
    3  A    between atoms: C_2  and  C_13
    4  A    between atoms: C_3  and  N_4
    5  A    between atoms: C_3  and  C_12
    6  A    between atoms: N_6  and  C_12
    7  A    between atoms: C_11  and  C_14
    8  A    between atoms: C_14  and  C_22
    9  A    between atoms: C_19  and  O_37
                            x       y       z     vdW  Elec       q    Type
                         _______ _______ _______ _____ _____    ______ ____

>  <TORSDO>
F 9

$$$$
=
 OpenBabel10272414063D

 43 48  0  0  1  0  0  0  0  0999 V2000
  185.6540  176.9840  135.4280 C   0  0  0  0  0  0  0  0  0  0  0  0
  190.4350  176.6190  137.3480 C   0  0  0  0  0  0  0  0  0  0  0  0
  190.4200  177.0760  140.2380 C   0  0  0  0  0  0  0  0  0  0  0  0
  188.0650  176.7820  135.7490 C   0  0  2  0  0  3  0  0  0  0  0  0
  185.4640  176.9200  136.8800 C   0  0  0  0  0  3  0  0  0  0  0  0
  184.6150  177.1150  134.6190 C   0  0  0  0  0  1  0  0  0  0  0  0
  187.9060  176.7540  137.0930 C   0  0  0  0  0  0  0  0  0  0  0  0
  186.9490  176.9050  134.9070 O   0  0  0  0  0  0  0  0  0  0  0  0
  186.5390  176.8050  137.6630 C   0  0  0  0  0  3  0  0  0  0  0  0
  189.0510  177.8480  139.3530 S   0  0  0  0  0  0  0  0  0  0  0  0
  189.0800  176.5870  138.0340 C   0  0  0  0  0  0  0  0  0  0  0  0
  190.5020  176.6080  135.8740 C   0  0  0  0  0  3  0  0  0  0  0  0
  191.5610  176.6100  138.0910 C   0  0  1  0  0  3  0  0  0  0  0  0
  191.4940  176.6470  139.5680 C   0  0  0  0  0  3  0  0  0  0  0  0
  189.3990  176.6830  135.1360 C   0  0  0  0  0  3  0  0  0  0  0  0
  190.3640  176.9240  141.7010 C   0  0  0  0  0  0  0  0  0  0  0  0
  190.1900  178.0760  142.5300 N   0  0  0  0  0  2  0  0  0  0  0  0
  190.4720  175.7790  142.2200 O   0  0  0  0  0  0  0  0  0  0  0  0
  190.1170  178.0120  143.9830 C   0  0  1  0  0  3  0  0  0  0  0  0
  190.4720  179.2340  144.5200 F   0  0  0  0  0  0  0  0  0  0  0  0
  188.6940  177.6850  144.4010 C   0  0  0  0  0  2  0  0  0  0  0  0
  188.4280  178.2130  145.7320 N   0  0  0  0  0  0  0  0  0  0  0  0
  187.2920  177.1430  147.4840 O   0  0  0  0  0  0  0  0  0  0  0  0
  189.4140  177.6360  146.6160 C   0  0  0  0  0  2  0  0  0  0  0  0
  187.1650  177.6390  146.1740 C   0  0  1  0  0  3  0  0  0  0  0  0
  188.6450  176.8270  147.6270 C   0  0  0  0  0  2  0  0  0  0  0  0
  186.0810  178.6730  146.1090 C   0  0  0  0  0  0  0  0  0  0  0  0
  186.0020  179.5420  147.0210 O   0  0  0  0  0  0  0  0  0  0  0  0
  185.1410  178.7080  144.9720 C   0  0  0  0  0  0  0  0  0  0  0  0
  182.9070  179.1130  144.0990 C   0  0  0  0  0  3  0  0  0  0  0  0
  184.6780  178.4170  142.6020 C   0  0  0  0  0  3  0  0  0  0  0  0
  183.3460  178.7850  142.8140 C   0  0  0  0  0  3  0  0  0  0  0  0
  185.5710  178.3800  143.6770 C   0  0  0  0  0  3  0  0  0  0  0  0
  183.8010  179.0760  145.1740 C   0  0  0  0  0  3  0  0  0  0  0  0
  192.9180  176.5390  137.4500 C   0  0  0  0  0  2  0  0  0  0  0  0
  195.0740  173.5830  138.4560 C   0  0  0  0  0  3  0  0  0  0  0  0
  194.5900  172.5810  137.6050 C   0  0  0  0  0  0  0  0  0  0  0  0
  192.9990  174.1630  136.6700 C   0  0  0  0  0  3  0  0  0  0  0  0
  194.5250  174.8690  138.4160 C   0  0  0  0  0  3  0  0  0  0  0  0
  193.4850  175.1590  137.5250 C   0  0  0  0  0  0  0  0  0  0  0  0
  193.5470  172.8790  136.7100 C   0  0  0  0  0  3  0  0  0  0  0  0
  194.5890  170.1790  137.0090 C   0  0  0  0  0  1  0  0  0  0  0  0
  195.1580  171.3050  137.6680 O   0  0  0  0  0  0  0  0  0  0  0  0
  1  5  2  0  0  0  0
  2 11  2  0  0  0  0
  2 13  1  0  0  0  0
  3 16  1  0  0  0  0
  4 15  1  6  0  0  0
  4  7  1  0  0  0  0
  5  9  1  0  0  0  0
  6  1  1  0  0  0  0
  7  9  2  0  0  0  0
  7 11  1  0  0  0  0
  8  1  1  0  0  0  0
  8  4  1  0  0  0  0
 10  3  1  0  0  0  0
 11 10  1  0  0  0  0
 12  2  1  0  0  0  0
 13 35  1  1  0  0  0
 13 14  1  0  0  0  0
 14  3  2  0  0  0  0
 15 12  2  0  0  0  0
 16 18  2  0  0  0  0
 16 17  1  0  0  0  0
 17 19  1  0  0  0  0
 19 21  1  0  0  0  0
 19 20  1  1  0  0  0
 21 22  1  0  0  0  0
 22 25  1  0  0  0  0
 22 24  1  0  0  0  0
 23 26  1  0  0  0  0
 24 26  1  0  0  0  0
 25 27  1  1  0  0  0
 25 23  1  0  0  0  0
 27 28  2  0  0  0  0
 29 34  1  0  0  0  0
 29 27  1  0  0  0  0
 30 34  2  0  0  0  0
 31 32  2  0  0  0  0
 31 33  1  0  0  0  0
 32 30  1  0  0  0  0
 33 29  2  0  0  0  0
 35 40  1  0  0  0  0
 37 43  1  0  0  0  0
 37 36  2  0  0  0  0
 38 41  2  0  0  0  0
 38 40  1  0  0  0  0
 39 36  1  0  0  0  0
 40 39  2  0  0  0  0
 41 37  1  0  0  0  0
 42 43  1  0  0  0  0
M  END
>  <MODEL>
4

>  <REMARK>
 VINA RESULT:     -10.3      2.921     11.085
  Name = 
  9 active torsions:
  status: ('A' for Active; 'I' for Inactive)
    1  A    between atoms: C_1  and  C_34
    2  A    between atoms: C_1  and  C_35
    3  A    between atoms: C_2  and  C_13
    4  A    between atoms: C_3  and  N_4
    5  A    between atoms: C_3  and  C_12
    6  A    between atoms: N_6  and  C_12
    7  A    between atoms: C_11  and  C_14
    8  A    between atoms: C_14  and  C_22
    9  A    between atoms: C_19  and  O_37
                            x       y       z     vdW  Elec       q    Type
                         _______ _______ _______ _____ _____    ______ ____

>  <TORSDO>
F 9

$$$$
=
 OpenBabel10272414063D

 43 48  0  0  1  0  0  0  0  0999 V2000
  193.7420  174.4080  135.6430 C   0  0  0  0  0  0  0  0  0  0  0  0
  189.7820  177.4490  136.9690 C   0  0  0  0  0  0  0  0  0  0  0  0
  189.5720  177.6530  139.8790 C   0  0  0  0  0  0  0  0  0  0  0  0
  191.7530  175.8230  135.6750 C   0  0  2  0  0  3  0  0  0  0  0  0
  193.9400  174.6710  137.0710 C   0  0  0  0  0  3  0  0  0  0  0  0
  194.5760  173.6230  134.9810 C   0  0  0  0  0  1  0  0  0  0  0  0
  191.9070  176.0470  137.0010 C   0  0  0  0  0  0  0  0  0  0  0  0
  192.6570  175.0000  134.9870 O   0  0  0  0  0  0  0  0  0  0  0  0
  193.0670  175.4540  137.7070 C   0  0  0  0  0  3  0  0  0  0  0  0
  190.3720  176.1460  139.2930 S   0  0  0  0  0  0  0  0  0  0  0  0
  190.9740  176.9560  137.7720 C   0  0  0  0  0  0  0  0  0  0  0  0
  189.7270  177.1860  135.5170 C   0  0  0  0  0  3  0  0  0  0  0  0
  188.8110  178.1600  137.5790 C   0  0  1  0  0  3  0  0  0  0  0  0
  188.8540  178.4020  139.0370 C   0  0  0  0  0  3  0  0  0  0  0  0
  190.6450  176.4300  134.9210 C   0  0  0  0  0  3  0  0  0  0  0  0
  189.6990  178.0560  141.2890 C   0  0  0  0  0  0  0  0  0  0  0  0
  190.8720  177.7060  142.0290 N   0  0  0  0  0  2  0  0  0  0  0  0
  188.7720  178.7090  141.8420 O   0  0  0  0  0  0  0  0  0  0  0  0
  191.0770  178.0720  143.4220 C   0  0  1  0  0  3  0  0  0  0  0  0
  190.7830  179.4110  143.5980 F   0  0  0  0  0  0  0  0  0  0  0  0
  190.1530  177.2470  144.3000 C   0  0  0  0  0  2  0  0  0  0  0  0
  190.3660  177.5760  145.7030 N   0  0  0  0  0  0  0  0  0  0  0  0
  189.9300  176.2160  147.5640 O   0  0  0  0  0  0  0  0  0  0  0  0
  191.6060  176.9490  146.0960 C   0  0  0  0  0  2  0  0  0  0  0  0
  189.3460  176.8720  146.4670 C   0  0  1  0  0  3  0  0  0  0  0  0
  191.2510  175.9670  147.1820 C   0  0  0  0  0  2  0  0  0  0  0  0
  188.2970  177.8370  146.9330 C   0  0  0  0  0  0  0  0  0  0  0  0
  188.4850  178.4870  147.9970 O   0  0  0  0  0  0  0  0  0  0  0  0
  187.0740  178.0620  146.1360 C   0  0  0  0  0  0  0  0  0  0  0  0
  184.7560  178.7870  145.9980 C   0  0  0  0  0  3  0  0  0  0  0  0
  185.8920  177.9960  144.0120 C   0  0  0  0  0  3  0  0  0  0  0  0
  184.7450  178.5010  144.6310 C   0  0  0  0  0  3  0  0  0  0  0  0
  187.0510  177.7780  144.7620 C   0  0  0  0  0  3  0  0  0  0  0  0
  185.9160  178.5680  146.7480 C   0  0  0  0  0  3  0  0  0  0  0  0
  187.6700  178.7490  136.8010 C   0  0  0  0  0  2  0  0  0  0  0  0
  184.4000  177.7100  138.4220 C   0  0  0  0  0  3  0  0  0  0  0  0
  184.0300  176.6150  137.6300 C   0  0  0  0  0  0  0  0  0  0  0  0
  186.0300  176.9300  136.2850 C   0  0  0  0  0  3  0  0  0  0  0  0
  185.5770  178.4140  138.1490 C   0  0  0  0  0  3  0  0  0  0  0  0
  186.3920  178.0260  137.0770 C   0  0  0  0  0  0  0  0  0  0  0  0
  184.8530  176.2280  136.5580 C   0  0  0  0  0  3  0  0  0  0  0  0
  182.2660  175.9340  139.2270 C   0  0  0  0  0  1  0  0  0  0  0  0
  182.8470  175.9310  137.9280 O   0  0  0  0  0  0  0  0  0  0  0  0
  1  5  2  0  0  0  0
  2 13  1  0  0  0  0
  2 11  2  0  0  0  0
  3 16  1  0  0  0  0
  4 15  1  6  0  0  0
  4  7  1  0  0  0  0
  5  9  1  0  0  0  0
  6  1  1  0  0  0  0
  7  9  2  0  0  0  0
  7 11  1  0  0  0  0
  8  1  1  0  0  0  0
  8  4  1  0  0  0  0
 10  3  1  0  0  0  0
 11 10  1  0  0  0  0
 12  2  1  0  0  0  0
 13 35  1  6  0  0  0
 13 14  1  0  0  0  0
 14  3  2  0  0  0  0
 15 12  2  0  0  0  0
 16 18  2  0  0  0  0
 16 17  1  0  0  0  0
 17 19  1  0  0  0  0
 19 20  1  6  0  0  0
 19 21  1  0  0  0  0
 21 22  1  0  0  0  0
 22 24  1  0  0  0  0
 22 25  1  0  0  0  0
 24 26  1  0  0  0  0
 25 27  1  1  0  0  0
 25 23  1  0  0  0  0
 26 23  1  0  0  0  0
 27 28  2  0  0  0  0
 29 34  1  0  0  0  0
 29 27  1  0  0  0  0
 30 34  2  0  0  0  0
 31 32  2  0  0  0  0
 31 33  1  0  0  0  0
 32 30  1  0  0  0  0
 33 29  2  0  0  0  0
 35 40  1  0  0  0  0
 37 43  1  0  0  0  0
 37 36  2  0  0  0  0
 38 41  2  0  0  0  0
 38 40  1  0  0  0  0
 39 36  1  0  0  0  0
 40 39  2  0  0  0  0
 41 37  1  0  0  0  0
 43 42  1  0  0  0  0
M  END
>  <MODEL>
5

>  <REMARK>
 VINA RESULT:     -10.3      2.520      9.060
  Name = 
  9 active torsions:
  status: ('A' for Active; 'I' for Inactive)
    1  A    between atoms: C_1  and  C_34
    2  A    between atoms: C_1  and  C_35
    3  A    between atoms: C_2  and  C_13
    4  A    between atoms: C_3  and  N_4
    5  A    between atoms: C_3  and  C_12
    6  A    between atoms: N_6  and  C_12
    7  A    between atoms: C_11  and  C_14
    8  A    between atoms: C_14  and  C_22
    9  A    between atoms: C_19  and  O_37
                            x       y       z     vdW  Elec       q    Type
                         _______ _______ _______ _____ _____    ______ ____

>  <TORSDO>
F 9

$$$$
=
 OpenBabel10272414063D

 43 48  0  0  1  0  0  0  0  0999 V2000
  187.9610  177.3970  146.8980 C   0  0  0  0  0  0  0  0  0  0  0  0
  185.6900  178.4090  142.3700 C   0  0  0  0  0  0  0  0  0  0  0  0
  187.6650  178.4280  140.2110 C   0  0  0  0  0  0  0  0  0  0  0  0
  186.4050  177.9800  145.1090 C   0  0  0  0  0  0  0  0  0  0  0  0
  188.9780  177.0710  145.8940 C   0  0  0  0  0  3  0  0  0  0  0  0
  188.2280  177.2780  148.1880 C   0  0  0  0  0  1  0  0  0  0  0  0
  187.3470  177.7140  144.1730 C   0  0  0  0  0  0  0  0  0  0  0  0
  186.7020  177.8340  146.4730 O   0  0  0  0  0  0  0  0  0  0  0  0
  188.6760  177.2200  144.6030 C   0  0  0  0  0  3  0  0  0  0  0  0
  188.3380  178.8060  141.8410 S   0  0  0  0  0  0  0  0  0  0  0  0
  187.0550  177.8260  142.6930 C   0  0  2  0  0  3  0  0  0  0  0  0
  184.7190  178.6260  143.4590 C   0  0  0  0  0  3  0  0  0  0  0  0
  185.3630  178.6790  141.0890 C   0  0  1  0  0  3  0  0  0  0  0  0
  186.3460  178.4860  140.0010 C   0  0  0  0  0  3  0  0  0  0  0  0
  185.0550  178.4250  144.7300 C   0  0  0  0  0  3  0  0  0  0  0  0
  188.5650  178.0650  139.1050 C   0  0  0  0  0  0  0  0  0  0  0  0
  189.6150  177.1190  139.3220 N   0  0  0  0  0  2  0  0  0  0  0  0
  188.4100  178.5910  137.9690 O   0  0  0  0  0  0  0  0  0  0  0  0
  190.5430  176.7020  138.2800 C   0  0  1  0  0  3  0  0  0  0  0  0
  191.7440  177.3660  138.4360 F   0  0  0  0  0  0  0  0  0  0  0  0
  190.7880  175.2080  138.3950 C   0  0  0  0  0  2  0  0  0  0  0  0
  190.9180  174.6170  137.0700 N   0  0  0  0  0  0  0  0  0  0  0  0
  191.1670  175.7470  135.0290 O   0  0  0  0  0  0  0  0  0  0  0  0
  192.3240  174.6360  136.7390 C   0  0  0  0  0  2  0  0  0  0  0  0
  190.3120  175.5460  136.1270 C   0  0  1  0  0  3  0  0  0  0  0  0
  192.4540  175.5050  135.5170 C   0  0  0  0  0  2  0  0  0  0  0  0
  188.9860  175.0190  135.6680 C   0  0  0  0  0  0  0  0  0  0  0  0
  188.9240  173.8700  135.1500 O   0  0  0  0  0  0  0  0  0  0  0  0
  187.7540  175.8100  135.8580 C   0  0  0  0  0  0  0  0  0  0  0  0
  185.7060  176.2540  137.0940 C   0  0  0  0  0  3  0  0  0  0  0  0
  186.2800  177.6230  135.1820 C   0  0  0  0  0  3  0  0  0  0  0  0
  185.4110  177.3120  136.2320 C   0  0  0  0  0  3  0  0  0  0  0  0
  187.4470  176.8750  134.9970 C   0  0  0  0  0  3  0  0  0  0  0  0
  186.8730  175.5050  136.9080 C   0  0  0  0  0  3  0  0  0  0  0  0
  183.9900  179.1620  140.7200 C   0  0  0  0  0  2  0  0  0  0  0  0
  182.2370  177.8500  137.6200 C   0  0  0  0  0  3  0  0  0  0  0  0
  182.0300  176.5080  137.9630 C   0  0  0  0  0  0  0  0  0  0  0  0
  183.1230  176.8980  140.0980 C   0  0  0  0  0  3  0  0  0  0  0  0
  182.8840  178.7150  138.5100 C   0  0  0  0  0  3  0  0  0  0  0  0
  183.3310  178.2380  139.7480 C   0  0  0  0  0  0  0  0  0  0  0  0
  182.4770  176.0350  139.2090 C   0  0  0  0  0  3  0  0  0  0  0  0
  181.8920  174.3930  136.6860 C   0  0  0  0  0  1  0  0  0  0  0  0
  181.3800  175.6690  137.0530 O   0  0  0  0  0  0  0  0  0  0  0  0
  1  6  1  0  0  0  0
  2 11  1  0  0  0  0
  2 12  2  0  0  0  0
  3 10  1  0  0  0  0
  4  8  1  0  0  0  0
  5  1  2  0  0  0  0
  7  9  2  0  0  0  0
  7  4  1  0  0  0  0
  8  1  1  0  0  0  0
  9  5  1  0  0  0  0
 11 10  1  6  0  0  0
 11  7  1  0  0  0  0
 12 15  1  0  0  0  0
 13 35  1  6  0  0  0
 13  2  1  0  0  0  0
 14  3  2  0  0  0  0
 14 13  1  0  0  0  0
 15  4  2  0  0  0  0
 16 17  1  0  0  0  0
 16  3  1  0  0  0  0
 18 16  2  0  0  0  0
 19 21  1  0  0  0  0
 19 20  1  1  0  0  0
 19 17  1  0  0  0  0
 22 21  1  0  0  0  0
 23 26  1  0  0  0  0
 23 25  1  0  0  0  0
 24 22  1  0  0  0  0
 25 27  1  6  0  0  0
 25 22  1  0  0  0  0
 26 24  1  0  0  0  0
 27 29  1  0  0  0  0
 28 27  2  0  0  0  0
 29 34  1  0  0  0  0
 31 32  2  0  0  0  0
 32 30  1  0  0  0  0
 33 31  1  0  0  0  0
 33 29  2  0  0  0  0
 34 30  2  0  0  0  0
 36 37  2  0  0  0  0
 36 39  1  0  0  0  0
 37 41  1  0  0  0  0
 39 40  2  0  0  0  0
 40 38  1  0  0  0  0
 40 35  1  0  0  0  0
 41 38  2  0  0  0  0
 42 43  1  0  0  0  0
 43 37  1  0  0  0  0
M  END
>  <MODEL>
6

>  <REMARK>
 VINA RESULT:     -10.2      2.290      4.669
  Name = 
  9 active torsions:
  status: ('A' for Active; 'I' for Inactive)
    1  A    between atoms: C_1  and  C_34
    2  A    between atoms: C_1  and  C_35
    3  A    between atoms: C_2  and  C_13
    4  A    between atoms: C_3  and  N_4
    5  A    between atoms: C_3  and  C_12
    6  A    between atoms: N_6  and  C_12
    7  A    between atoms: C_11  and  C_14
    8  A    between atoms: C_14  and  C_22
    9  A    between atoms: C_19  and  O_37
                            x       y       z     vdW  Elec       q    Type
                         _______ _______ _______ _____ _____    ______ ____

>  <TORSDO>
F 9

$$$$
=
 OpenBabel10272414063D

 43 48  0  0  1  0  0  0  0  0999 V2000
  187.9910  177.4900  146.9810 C   0  0  0  0  0  0  0  0  0  0  0  0
  185.6480  178.3960  142.4680 C   0  0  0  0  0  0  0  0  0  0  0  0
  187.5940  178.4130  140.2850 C   0  0  0  0  0  0  0  0  0  0  0  0
  186.4040  178.0210  145.2050 C   0  0  0  0  0  0  0  0  0  0  0  0
  189.0010  177.1650  145.9700 C   0  0  0  0  0  3  0  0  0  0  0  0
  188.2760  177.3960  148.2700 C   0  0  0  0  0  1  0  0  0  0  0  0
  187.3380  177.7550  144.2610 C   0  0  0  0  0  0  0  0  0  0  0  0
  186.7200  177.9000  146.5670 O   0  0  0  0  0  0  0  0  0  0  0  0
  188.6800  177.2890  144.6800 C   0  0  0  0  0  3  0  0  0  0  0  0
  188.2820  178.8270  141.9000 S   0  0  0  0  0  0  0  0  0  0  0  0
  187.0260  177.8390  142.7830 C   0  0  2  0  0  3  0  0  0  0  0  0
  184.6870  178.6150  143.5670 C   0  0  0  0  0  3  0  0  0  0  0  0
  185.3010  178.6410  141.1880 C   0  0  1  0  0  3  0  0  0  0  0  0
  186.2720  178.4460  140.0900 C   0  0  0  0  0  3  0  0  0  0  0  0
  185.0430  178.4380  144.8360 C   0  0  0  0  0  3  0  0  0  0  0  0
  188.4860  178.0470  139.1720 C   0  0  0  0  0  0  0  0  0  0  0  0
  189.4190  176.9740  139.3300 N   0  0  0  0  0  2  0  0  0  0  0  0
  188.4280  178.6820  138.0840 O   0  0  0  0  0  0  0  0  0  0  0  0
  190.3300  176.5460  138.2780 C   0  0  1  0  0  3  0  0  0  0  0  0
  191.6000  176.3900  138.7990 F   0  0  0  0  0  0  0  0  0  0  0  0
  189.8610  175.2140  137.7180 C   0  0  0  0  0  2  0  0  0  0  0  0
  189.7160  175.3010  136.2720 N   0  0  0  0  0  0  0  0  0  0  0  0
  188.1440  176.5660  135.0750 O   0  0  0  0  0  0  0  0  0  0  0  0
  190.3540  176.5300  135.8600 C   0  0  0  0  0  2  0  0  0  0  0  0
  188.3020  175.5170  135.9970 C   0  0  1  0  0  3  0  0  0  0  0  0
  189.2710  177.3750  135.2420 C   0  0  0  0  0  2  0  0  0  0  0  0
  187.6840  174.2580  135.4670 C   0  0  0  0  0  0  0  0  0  0  0  0
  188.3210  173.5640  134.6270 O   0  0  0  0  0  0  0  0  0  0  0  0
  186.3660  173.8040  135.9520 C   0  0  0  0  0  0  0  0  0  0  0  0
  184.0060  173.3770  135.5440 C   0  0  0  0  0  3  0  0  0  0  0  0
  184.9520  172.9300  137.7270 C   0  0  0  0  0  3  0  0  0  0  0  0
  183.8540  172.9370  136.8610 C   0  0  0  0  0  3  0  0  0  0  0  0
  186.2020  173.3600  137.2730 C   0  0  0  0  0  3  0  0  0  0  0  0
  185.2570  173.8090  135.0910 C   0  0  0  0  0  3  0  0  0  0  0  0
  183.9150  179.0960  140.8290 C   0  0  0  0  0  2  0  0  0  0  0  0
  182.4550  176.0910  139.0290 C   0  0  0  0  0  3  0  0  0  0  0  0
  182.2610  176.6040  137.7410 C   0  0  0  0  0  0  0  0  0  0  0  0
  183.1290  178.7510  138.4790 C   0  0  0  0  0  3  0  0  0  0  0  0
  182.9830  176.9020  140.0400 C   0  0  0  0  0  3  0  0  0  0  0  0
  183.3170  178.2340  139.7660 C   0  0  0  0  0  0  0  0  0  0  0  0
  182.6010  177.9410  137.4700 C   0  0  0  0  0  3  0  0  0  0  0  0
  181.3710  176.2450  135.4590 C   0  0  0  0  0  1  0  0  0  0  0  0
  181.7320  175.7690  136.7510 O   0  0  0  0  0  0  0  0  0  0  0  0
  1  6  1  0  0  0  0
  2 11  1  0  0  0  0
  2 12  2  0  0  0  0
  3 10  1  0  0  0  0
  4  8  1  0  0  0  0
  5  1  2  0  0  0  0
  7  9  2  0  0  0  0
  7  4  1  0  0  0  0
  8  1  1  0  0  0  0
  9  5  1  0  0  0  0
 11 10  1  6  0  0  0
 11  7  1  0  0  0  0
 12 15  1  0  0  0  0
 13 35  1  6  0  0  0
 13  2  1  0  0  0  0
 14  3  2  0  0  0  0
 14 13  1  0  0  0  0
 15  4  2  0  0  0  0
 16 17  1  0  0  0  0
 16  3  1  0  0  0  0
 18 16  2  0  0  0  0
 19 20  1  1  0  0  0
 19 17  1  0  0  0  0
 21 19  1  0  0  0  0
 22 21  1  0  0  0  0
 23 26  1  0  0  0  0
 23 25  1  0  0  0  0
 24 22  1  0  0  0  0
 25 27  1  6  0  0  0
 25 22  1  0  0  0  0
 26 24  1  0  0  0  0
 27 29  1  0  0  0  0
 28 27  2  0  0  0  0
 29 33  1  0  0  0  0
 30 32  2  0  0  0  0
 32 31  1  0  0  0  0
 33 31  2  0  0  0  0
 34 30  1  0  0  0  0
 34 29  2  0  0  0  0
 36 39  1  0  0  0  0
 37 36  2  0  0  0  0
 38 40  1  0  0  0  0
 40 39  2  0  0  0  0
 40 35  1  0  0  0  0
 41 37  1  0  0  0  0
 41 38  2  0  0  0  0
 42 43  1  0  0  0  0
 43 37  1  0  0  0  0
M  END
>  <MODEL>
7

>  <REMARK>
 VINA RESULT:     -10.2      2.954      4.932
  Name = 
  9 active torsions:
  status: ('A' for Active; 'I' for Inactive)
    1  A    between atoms: C_1  and  C_34
    2  A    between atoms: C_1  and  C_35
    3  A    between atoms: C_2  and  C_13
    4  A    between atoms: C_3  and  N_4
    5  A    between atoms: C_3  and  C_12
    6  A    between atoms: N_6  and  C_12
    7  A    between atoms: C_11  and  C_14
    8  A    between atoms: C_14  and  C_22
    9  A    between atoms: C_19  and  O_37
                            x       y       z     vdW  Elec       q    Type
                         _______ _______ _______ _____ _____    ______ ____

>  <TORSDO>
F 9

$$$$
=
 OpenBabel10272414063D

 43 48  0  0  1  0  0  0  0  0999 V2000
  191.5340  176.4160  146.9810 C   0  0  0  0  0  0  0  0  0  0  0  0
  189.3650  178.0860  142.6010 C   0  0  0  0  0  0  0  0  0  0  0  0
  186.4550  177.8250  142.7300 C   0  0  0  0  0  0  0  0  0  0  0  0
  191.0860  177.2340  144.7260 C   0  0  0  0  0  0  0  0  0  0  0  0
  190.1060  176.5230  147.2940 C   0  0  0  0  0  3  0  0  0  0  0  0
  192.3910  175.9780  147.8900 C   0  0  0  0  0  1  0  0  0  0  0  0
  189.7600  177.3070  144.9910 C   0  0  0  0  0  0  0  0  0  0  0  0
  191.9810  176.7830  145.7080 O   0  0  0  0  0  0  0  0  0  0  0  0
  189.2720  176.9520  146.3450 C   0  0  0  0  0  3  0  0  0  0  0  0
  187.3540  176.6800  143.7940 S   0  0  0  0  0  0  0  0  0  0  0  0
  188.7680  177.8210  143.9720 C   0  0  2  0  0  3  0  0  0  0  0  0
  190.8290  178.0200  142.4230 C   0  0  0  0  0  3  0  0  0  0  0  0
  188.5600  178.4240  141.5730 C   0  0  1  0  0  3  0  0  0  0  0  0
  187.0910  178.4650  141.7450 C   0  0  0  0  0  3  0  0  0  0  0  0
  191.6240  177.6240  143.4130 C   0  0  0  0  0  3  0  0  0  0  0  0
  185.0150  178.0500  142.9360 C   0  0  0  0  0  0  0  0  0  0  0  0
  184.1350  178.1100  141.8100 N   0  0  0  0  0  2  0  0  0  0  0  0
  184.5600  178.1920  144.1040 O   0  0  0  0  0  0  0  0  0  0  0  0
  182.6990  178.3230  141.9280 C   0  0  1  0  0  3  0  0  0  0  0  0
  182.4540  179.6230  142.3270 F   0  0  0  0  0  0  0  0  0  0  0  0
  182.0440  178.0900  140.5780 C   0  0  0  0  0  2  0  0  0  0  0  0
  182.5480  179.0470  139.6040 N   0  0  0  0  0  0  0  0  0  0  0  0
  182.1580  179.0590  137.2900 O   0  0  0  0  0  0  0  0  0  0  0  0
  181.4760  179.9780  139.3370 C   0  0  0  0  0  2  0  0  0  0  0  0
  182.7230  178.3280  138.3500 C   0  0  1  0  0  3  0  0  0  0  0  0
  181.1510  179.8330  137.8740 C   0  0  0  0  0  2  0  0  0  0  0  0
  184.1810  178.0850  138.0970 C   0  0  0  0  0  0  0  0  0  0  0  0
  185.0370  178.8110  138.6730 O   0  0  0  0  0  0  0  0  0  0  0  0
  184.6200  176.9800  137.2220 C   0  0  0  0  0  0  0  0  0  0  0  0
  184.8340  174.5960  136.7880 C   0  0  0  0  0  3  0  0  0  0  0  0
  185.6470  176.1950  135.1620 C   0  0  0  0  0  3  0  0  0  0  0  0
  185.4450  174.8700  135.5620 C   0  0  0  0  0  3  0  0  0  0  0  0
  185.2350  177.2440  135.9890 C   0  0  0  0  0  3  0  0  0  0  0  0
  184.4230  175.6460  137.6150 C   0  0  0  0  0  3  0  0  0  0  0  0
  189.1220  178.7900  140.2290 C   0  0  0  0  0  2  0  0  0  0  0  0
  190.5730  175.7780  138.4340 C   0  0  0  0  0  3  0  0  0  0  0  0
  189.4960  175.3850  137.6300 C   0  0  0  0  0  0  0  0  0  0  0  0
  188.1680  177.2050  138.5430 C   0  0  0  0  0  3  0  0  0  0  0  0
  190.4530  176.8790  139.2880 C   0  0  0  0  0  3  0  0  0  0  0  0
  189.2480  177.5910  139.3460 C   0  0  0  0  0  0  0  0  0  0  0  0
  188.2900  176.1050  137.6900 C   0  0  0  0  0  3  0  0  0  0  0  0
  189.0940  174.2370  135.4750 C   0  0  0  0  0  1  0  0  0  0  0  0
  189.6470  174.2810  136.7860 O   0  0  0  0  0  0  0  0  0  0  0  0
  1  5  2  0  0  0  0
  1  6  1  0  0  0  0
  3 16  1  0  0  0  0
  3 10  1  0  0  0  0
  4  7  1  0  0  0  0
  4  8  1  0  0  0  0
  7  9  2  0  0  0  0
  8  1  1  0  0  0  0
  9  5  1  0  0  0  0
 10 11  1  0  0  0  0
 11  2  1  6  0  0  0
 11  7  1  0  0  0  0
 12  2  2  0  0  0  0
 12 15  1  0  0  0  0
 13 35  1  1  0  0  0
 13 14  1  0  0  0  0
 13  2  1  0  0  0  0
 14  3  2  0  0  0  0
 15  4  2  0  0  0  0
 16 18  2  0  0  0  0
 17 19  1  0  0  0  0
 17 16  1  0  0  0  0
 19 20  1  6  0  0  0
 21 19  1  0  0  0  0
 22 21  1  0  0  0  0
 23 26  1  0  0  0  0
 23 25  1  0  0  0  0
 24 22  1  0  0  0  0
 25 27  1  6  0  0  0
 25 22  1  0  0  0  0
 26 24  1  0  0  0  0
 27 28  2  0  0  0  0
 29 34  1  0  0  0  0
 29 27  1  0  0  0  0
 30 34  2  0  0  0  0
 31 32  2  0  0  0  0
 31 33  1  0  0  0  0
 32 30  1  0  0  0  0
 33 29  2  0  0  0  0
 36 39  1  0  0  0  0
 37 41  1  0  0  0  0
 37 36  2  0  0  0  0
 38 40  1  0  0  0  0
 39 40  2  0  0  0  0
 40 35  1  0  0  0  0
 41 38  2  0  0  0  0
 42 43  1  0  0  0  0
 43 37  1  0  0  0  0
M  END
>  <MODEL>
8

>  <REMARK>
 VINA RESULT:     -10.2      3.145      7.277
  Name = 
  9 active torsions:
  status: ('A' for Active; 'I' for Inactive)
    1  A    between atoms: C_1  and  C_34
    2  A    between atoms: C_1  and  C_35
    3  A    between atoms: C_2  and  C_13
    4  A    between atoms: C_3  and  N_4
    5  A    between atoms: C_3  and  C_12
    6  A    between atoms: N_6  and  C_12
    7  A    between atoms: C_11  and  C_14
    8  A    between atoms: C_14  and  C_22
    9  A    between atoms: C_19  and  O_37
                            x       y       z     vdW  Elec       q    Type
                         _______ _______ _______ _____ _____    ______ ____

>  <TORSDO>
F 9

$$$$
=
 OpenBabel10272414063D

 43 48  0  0  1  0  0  0  0  0999 V2000
  184.1880  171.2640  136.2030 C   0  0  0  0  0  0  0  0  0  0  0  0
  188.4270  174.1920  135.8280 C   0  0  0  0  0  0  0  0  0  0  0  0
  188.1340  176.6330  137.4140 C   0  0  0  0  0  0  0  0  0  0  0  0
  186.3450  172.2390  135.6050 C   0  0  2  0  0  3  0  0  0  0  0  0
  184.0400  172.2660  137.2630 C   0  0  0  0  0  3  0  0  0  0  0  0
  183.2460  170.3580  135.9970 C   0  0  0  0  0  1  0  0  0  0  0  0
  186.2040  173.1900  136.5590 C   0  0  0  0  0  0  0  0  0  0  0  0
  185.3420  171.2770  135.4120 O   0  0  0  0  0  0  0  0  0  0  0  0
  185.0040  173.1730  137.4280 C   0  0  0  0  0  3  0  0  0  0  0  0
  186.5770  175.9060  136.8670 S   0  0  0  0  0  0  0  0  0  0  0  0
  187.2790  174.2220  136.8220 C   0  0  0  0  0  0  0  0  0  0  0  0
  188.5120  173.0890  134.8510 C   0  0  0  0  0  3  0  0  0  0  0  0
  189.3820  175.1440  135.8780 C   0  0  1  0  0  3  0  0  0  0  0  0
  189.2840  176.2630  136.8400 C   0  0  0  0  0  3  0  0  0  0  0  0
  187.5420  172.1840  134.7520 C   0  0  0  0  0  3  0  0  0  0  0  0
  188.1450  177.6420  138.4850 C   0  0  0  0  0  0  0  0  0  0  0  0
  188.9450  177.4350  139.6520 N   0  0  0  0  0  2  0  0  0  0  0  0
  187.4460  178.6870  138.3720 O   0  0  0  0  0  0  0  0  0  0  0  0
  189.0160  178.3860  140.7510 C   0  0  1  0  0  3  0  0  0  0  0  0
  187.8350  178.3560  141.4680 F   0  0  0  0  0  0  0  0  0  0  0  0
  190.1610  178.0030  141.6730 C   0  0  0  0  0  2  0  0  0  0  0  0
  189.7890  178.2450  143.0610 N   0  0  0  0  0  0  0  0  0  0  0  0
  190.4340  176.9990  144.9420 O   0  0  0  0  0  0  0  0  0  0  0  0
  190.9060  178.9200  143.6810 C   0  0  0  0  0  2  0  0  0  0  0  0
  189.7390  176.9480  143.7210 C   0  0  1  0  0  3  0  0  0  0  0  0
  191.3870  178.0080  144.7790 C   0  0  0  0  0  2  0  0  0  0  0  0
  188.3130  176.5440  143.9490 C   0  0  0  0  0  0  0  0  0  0  0  0
  187.8540  175.5340  143.3470 O   0  0  0  0  0  0  0  0  0  0  0  0
  187.4620  177.2870  144.8990 C   0  0  0  0  0  0  0  0  0  0  0  0
  187.0270  178.0850  147.1560 C   0  0  0  0  0  3  0  0  0  0  0  0
  185.4800  178.6140  145.3710 C   0  0  0  0  0  3  0  0  0  0  0  0
  185.8540  178.7020  146.7150 C   0  0  0  0  0  3  0  0  0  0  0  0
  186.2810  177.9100  144.4680 C   0  0  0  0  0  3  0  0  0  0  0  0
  187.8280  177.3800  146.2520 C   0  0  0  0  0  3  0  0  0  0  0  0
  190.5840  175.0910  134.9790 C   0  0  0  0  0  2  0  0  0  0  0  0
  194.0030  176.0700  136.3040 C   0  0  0  0  0  3  0  0  0  0  0  0
  194.2650  175.0260  137.2000 C   0  0  0  0  0  0  0  0  0  0  0  0
  192.1110  174.0380  136.6590 C   0  0  0  0  0  3  0  0  0  0  0  0
  192.8020  176.1010  135.5880 C   0  0  0  0  0  3  0  0  0  0  0  0
  191.8530  175.0860  135.7670 C   0  0  0  0  0  0  0  0  0  0  0  0
  193.3110  174.0080  137.3750 C   0  0  0  0  0  3  0  0  0  0  0  0
  195.8100  174.0100  138.8450 C   0  0  0  0  0  1  0  0  0  0  0  0
  195.4740  175.0220  137.9020 O   0  0  0  0  0  0  0  0  0  0  0  0
  1  5  2  0  0  0  0
  2 13  1  0  0  0  0
  2 11  2  0  0  0  0
  3 16  1  0  0  0  0
  4 15  1  1  0  0  0
  4  7  1  0  0  0  0
  5  9  1  0  0  0  0
  6  1  1  0  0  0  0
  7 11  1  0  0  0  0
  7  9  2  0  0  0  0
  8  4  1  0  0  0  0
  8  1  1  0  0  0  0
 10  3  1  0  0  0  0
 11 10  1  0  0  0  0
 12  2  1  0  0  0  0
 13 35  1  1  0  0  0
 13 14  1  0  0  0  0
 14  3  2  0  0  0  0
 15 12  2  0  0  0  0
 16 17  1  0  0  0  0
 17 19  1  0  0  0  0
 18 16  2  0  0  0  0
 19 20  1  1  0  0  0
 19 21  1  0  0  0  0
 21 22  1  0  0  0  0
 22 24  1  0  0  0  0
 22 25  1  0  0  0  0
 24 26  1  0  0  0  0
 25 27  1  1  0  0  0
 25 23  1  0  0  0  0
 26 23  1  0  0  0  0
 27 29  1  0  0  0  0
 28 27  2  0  0  0  0
 29 34  1  0  0  0  0
 31 32  2  0  0  0  0
 32 30  1  0  0  0  0
 33 29  2  0  0  0  0
 33 31  1  0  0  0  0
 34 30  2  0  0  0  0
 35 40  1  0  0  0  0
 36 37  1  0  0  0  0
 37 41  2  0  0  0  0
 37 43  1  0  0  0  0
 38 41  1  0  0  0  0
 39 40  1  0  0  0  0
 39 36  2  0  0  0  0
 40 38  2  0  0  0  0
 43 42  1  0  0  0  0
M  END
>  <MODEL>
9

>  <REMARK>
 VINA RESULT:     -10.1      3.053     10.599
  Name = 
  9 active torsions:
  status: ('A' for Active; 'I' for Inactive)
    1  A    between atoms: C_1  and  C_34
    2  A    between atoms: C_1  and  C_35
    3  A    between atoms: C_2  and  C_13
    4  A    between atoms: C_3  and  N_4
    5  A    between atoms: C_3  and  C_12
    6  A    between atoms: N_6  and  C_12
    7  A    between atoms: C_11  and  C_14
    8  A    between atoms: C_14  and  C_22
    9  A    between atoms: C_19  and  O_37
                            x       y       z     vdW  Elec       q    Type
                         _______ _______ _______ _____ _____    ______ ____

>  <TORSDO>
F 9

$$$$
