=
 OpenBabel10262423513D

 34 40  0  0  1  0  0  0  0  0999 V2000
  188.4040  177.4320  144.9990 C   0  0  0  0  0  0  0  0  0  0  0  0
  190.5490  177.4060  143.8620 C   0  0  0  0  0  3  0  0  0  0  0  0
  188.5160  178.0300  142.6250 C   0  0  0  0  0  0  0  0  0  0  0  0
  188.5150  178.9420  140.2140 C   0  0  1  0  0  3  0  0  0  0  0  0
  190.4080  176.7960  146.2000 C   0  0  0  0  0  3  0  0  0  0  0  0
  191.1670  176.9940  145.0460 C   0  0  0  0  0  3  0  0  0  0  0  0
  189.7940  177.0290  140.6810 C   0  0  0  0  0  0  0  0  0  0  0  0
  189.1610  177.6190  143.8160 C   0  0  0  0  0  0  0  0  0  0  0  0
  189.1710  178.4290  138.9270 C   0  0  0  0  0  2  0  0  0  0  0  0
  189.0290  177.0170  146.1780 C   0  0  0  0  0  3  0  0  0  0  0  0
  187.1280  178.2930  142.6470 C   0  0  0  0  0  0  0  0  0  0  0  0
  187.0350  177.6870  145.0000 C   0  0  0  0  0  3  0  0  0  0  0  0
  190.2060  175.9970  141.2750 O   0  0  0  0  0  0  0  0  0  0  0  0
  187.1300  178.4780  140.2070 N   0  0  0  0  0  2  0  0  0  0  0  0
  186.4630  178.9040  141.4330 C   0  0  1  0  0  3  0  0  0  0  0  0
  189.7590  177.1430  139.2710 N   0  0  0  0  0  0  0  0  0  0  0  0
  189.3110  178.2620  141.3510 C   0  0  2  0  0  3  0  0  0  0  0  0
  186.4070  178.1300  143.8400 C   0  0  0  0  0  3  0  0  0  0  0  0
  190.7690  175.1030  138.6870 O   0  0  0  0  0  0  0  0  0  0  0  0
  189.9250  174.0500  136.2980 O   0  0  0  0  0  1  0  0  0  0  0  0
  190.9330  175.8870  137.5310 C   0  0  1  0  0  0  0  0  0  0  0  0
  190.9040  175.0450  136.2430 C   0  0  1  0  0  3  0  0  0  0  0  0
  189.7110  175.9920  138.3780 C   0  0  2  0  0  3  0  0  0  0  0  0
  193.0790  175.5020  135.8020 C   0  0  0  0  0  2  0  0  0  0  0  0
  193.3820  176.2150  137.1240 C   0  0  0  0  0  2  0  0  0  0  0  0
  192.1080  176.8520  137.6800 C   0  0  0  0  0  2  0  0  0  0  0  0
  192.1630  174.4550  136.0240 O   0  0  0  0  0  0  0  0  0  0  0  0
  182.7680  178.5810  142.2970 C   0  0  0  0  0  0  0  0  0  0  0  0
  182.2660  178.0130  141.1230 C   0  0  0  0  0  3  0  0  0  0  0  0
  184.9980  178.5910  141.3390 C   0  0  0  0  0  0  0  0  0  0  0  0
  183.1270  177.7340  140.0570 C   0  0  0  0  0  3  0  0  0  0  0  0
  184.1310  178.8710  142.4070 C   0  0  0  0  0  3  0  0  0  0  0  0
  184.4910  178.0240  140.1650 C   0  0  0  0  0  3  0  0  0  0  0  0
  181.6900  178.9310  143.6300 Cl  0  0  0  0  0  0  0  0  0  0  0  0
  1 12  1  0  0  0  0
  1 10  2  0  0  0  0
  2  6  1  0  0  0  0
  3 11  2  0  0  0  0
  3  8  1  0  0  0  0
  4  9  1  6  0  0  0
  4 17  1  0  0  0  0
  6  5  2  0  0  0  0
  7 13  2  0  0  0  0
  8  2  2  0  0  0  0
  8  1  1  0  0  0  0
  9 16  1  0  0  0  0
 10  5  1  0  0  0  0
 11 18  1  0  0  0  0
 14  4  1  0  0  0  0
 14 15  1  0  0  0  0
 15 30  1  6  0  0  0
 15 11  1  0  0  0  0
 16  7  1  0  0  0  0
 17  7  1  6  0  0  0
 17  3  1  0  0  0  0
 18 12  2  0  0  0  0
 21 26  1  1  0  0  0
 21 23  1  0  0  0  0
 21 19  1  0  0  0  0
 22 20  1  1  0  0  0
 22 21  1  0  0  0  0
 23 19  1  0  0  0  0
 23 16  1  1  0  0  0
 24 27  1  0  0  0  0
 24 25  1  0  0  0  0
 25 26  1  0  0  0  0
 27 22  1  0  0  0  0
 28 32  1  0  0  0  0
 28 34  1  0  0  0  0
 29 28  2  0  0  0  0
 30 32  2  0  0  0  0
 31 33  2  0  0  0  0
 31 29  1  0  0  0  0
 33 30  1  0  0  0  0
M  END
>  <MODEL>
1

>  <REMARK>
 VINA RESULT:     -10.0      0.000      0.000
  Name = 
  2 active torsions:
  status: ('A' for Active; 'I' for Inactive)
    1  A    between atoms: C_12  and  C_28
    2  A    between atoms: C_17  and  N_29
                            x       y       z     vdW  Elec       q    Type
                         _______ _______ _______ _____ _____    ______ ____

>  <TORSDO>
F 2

$$$$
=
 OpenBabel10262423513D

 34 40  0  0  1  0  0  0  0  0999 V2000
  188.3810  177.3560  145.2100 C   0  0  0  0  0  0  0  0  0  0  0  0
  190.5210  177.3540  144.0640 C   0  0  0  0  0  3  0  0  0  0  0  0
  188.4850  178.0110  142.8510 C   0  0  0  0  0  0  0  0  0  0  0  0
  188.4750  178.9810  140.4630 C   0  0  1  0  0  3  0  0  0  0  0  0
  190.3890  176.6880  146.3870 C   0  0  0  0  0  3  0  0  0  0  0  0
  191.1440  176.9120  145.2350 C   0  0  0  0  0  3  0  0  0  0  0  0
  189.7520  177.0540  140.8780 C   0  0  0  0  0  0  0  0  0  0  0  0
  189.1340  177.5700  144.0290 C   0  0  0  0  0  0  0  0  0  0  0  0
  189.1250  178.4970  139.1610 C   0  0  0  0  0  2  0  0  0  0  0  0
  189.0110  176.9120  146.3760 C   0  0  0  0  0  3  0  0  0  0  0  0
  187.0970  178.2760  142.8860 C   0  0  0  0  0  0  0  0  0  0  0  0
  187.0130  177.6140  145.2240 C   0  0  0  0  0  3  0  0  0  0  0  0
  190.1650  176.0080  141.4460 O   0  0  0  0  0  0  0  0  0  0  0  0
  187.0890  178.5190  140.4510 N   0  0  0  0  0  2  0  0  0  0  0  0
  186.4280  178.9170  141.6890 C   0  0  1  0  0  3  0  0  0  0  0  0
  189.7110  177.2020  139.4720 N   0  0  0  0  0  0  0  0  0  0  0  0
  189.2750  178.2720  141.5800 C   0  0  2  0  0  3  0  0  0  0  0  0
  186.3800  178.0860  144.0780 C   0  0  0  0  0  3  0  0  0  0  0  0
  190.7210  175.1800  138.8280 O   0  0  0  0  0  0  0  0  0  0  0  0
  189.8550  174.1830  136.4230 O   0  0  0  0  0  1  0  0  0  0  0  0
  190.8710  175.9920  137.6900 C   0  0  1  0  0  0  0  0  0  0  0  0
  190.8310  175.1820  136.3820 C   0  0  1  0  0  3  0  0  0  0  0  0
  189.6580  176.0730  138.5510 C   0  0  2  0  0  3  0  0  0  0  0  0
  193.0010  175.6550  135.9310 C   0  0  0  0  0  2  0  0  0  0  0  0
  193.3150  176.3370  137.2660 C   0  0  0  0  0  2  0  0  0  0  0  0
  192.0450  176.9560  137.8500 C   0  0  0  0  0  2  0  0  0  0  0  0
  192.0900  174.6010  136.1370 O   0  0  0  0  0  0  0  0  0  0  0  0
  183.0740  177.6240  140.4310 C   0  0  0  0  0  0  0  0  0  0  0  0
  182.2240  178.0360  141.4620 C   0  0  0  0  0  3  0  0  0  0  0  0
  184.9620  178.6090  141.5950 C   0  0  0  0  0  0  0  0  0  0  0  0
  182.7410  178.7320  142.5580 C   0  0  0  0  0  3  0  0  0  0  0  0
  184.4410  177.9090  140.4970 C   0  0  0  0  0  3  0  0  0  0  0  0
  184.1080  179.0180  142.6250 C   0  0  0  0  0  3  0  0  0  0  0  0
  182.4270  176.7510  139.0600 Cl  0  0  0  0  0  0  0  0  0  0  0  0
  1 12  1  0  0  0  0
  1 10  2  0  0  0  0
  2  6  1  0  0  0  0
  3 11  2  0  0  0  0
  3  8  1  0  0  0  0
  4  9  1  6  0  0  0
  4 17  1  0  0  0  0
  6  5  2  0  0  0  0
  7 13  2  0  0  0  0
  8  2  2  0  0  0  0
  8  1  1  0  0  0  0
  9 16  1  0  0  0  0
 10  5  1  0  0  0  0
 11 18  1  0  0  0  0
 14  4  1  0  0  0  0
 14 15  1  0  0  0  0
 15 30  1  6  0  0  0
 15 11  1  0  0  0  0
 16  7  1  0  0  0  0
 17  7  1  6  0  0  0
 17  3  1  0  0  0  0
 18 12  2  0  0  0  0
 21 26  1  1  0  0  0
 21 23  1  0  0  0  0
 21 19  1  0  0  0  0
 22 20  1  1  0  0  0
 22 21  1  0  0  0  0
 23 19  1  0  0  0  0
 23 16  1  1  0  0  0
 24 27  1  0  0  0  0
 24 25  1  0  0  0  0
 25 26  1  0  0  0  0
 27 22  1  0  0  0  0
 28 32  2  0  0  0  0
 28 29  1  0  0  0  0
 29 31  2  0  0  0  0
 30 33  2  0  0  0  0
 31 33  1  0  0  0  0
 32 30  1  0  0  0  0
 34 28  1  0  0  0  0
M  END
>  <MODEL>
2

>  <REMARK>
 VINA RESULT:      -9.8      0.909      1.230
  Name = 
  2 active torsions:
  status: ('A' for Active; 'I' for Inactive)
    1  A    between atoms: C_12  and  C_28
    2  A    between atoms: C_17  and  N_29
                            x       y       z     vdW  Elec       q    Type
                         _______ _______ _______ _____ _____    ______ ____

>  <TORSDO>
F 2

$$$$
=
 OpenBabel10262423513D

 34 40  0  0  1  0  0  0  0  0999 V2000
  187.0350  177.9240  143.5530 C   0  0  0  0  0  0  0  0  0  0  0  0
  189.4040  177.8540  143.0270 C   0  0  0  0  0  3  0  0  0  0  0  0
  187.7650  178.2650  141.2380 C   0  0  0  0  0  0  0  0  0  0  0  0
  188.3940  178.9100  138.8240 C   0  0  1  0  0  3  0  0  0  0  0  0
  188.6560  177.4970  145.3010 C   0  0  0  0  0  3  0  0  0  0  0  0
  189.6910  177.5970  144.3700 C   0  0  0  0  0  3  0  0  0  0  0  0
  189.5170  177.1070  139.8240 C   0  0  0  0  0  0  0  0  0  0  0  0
  188.0760  178.0100  142.5960 C   0  0  0  0  0  0  0  0  0  0  0  0
  189.3690  178.2840  137.8200 C   0  0  0  0  0  2  0  0  0  0  0  0
  187.3300  177.6640  144.8940 C   0  0  0  0  0  3  0  0  0  0  0  0
  186.4180  178.4770  140.8670 C   0  0  0  0  0  0  0  0  0  0  0  0
  185.7120  178.1280  143.1670 C   0  0  0  0  0  3  0  0  0  0  0  0
  189.7650  176.1610  140.6190 O   0  0  0  0  0  0  0  0  0  0  0  0
  187.0620  178.3960  138.5080 N   0  0  0  0  0  2  0  0  0  0  0  0
  186.0930  178.9280  139.4600 C   0  0  1  0  0  3  0  0  0  0  0  0
  189.8540  177.0660  138.4500 N   0  0  0  0  0  0  0  0  0  0  0  0
  188.8660  178.3870  140.1990 C   0  0  2  0  0  3  0  0  0  0  0  0
  185.4090  178.4190  141.8410 C   0  0  0  0  0  3  0  0  0  0  0  0
  190.8640  174.9440  138.4690 O   0  0  0  0  0  0  0  0  0  0  0  0
  190.8650  173.6550  136.0470 O   0  0  0  0  0  1  0  0  0  0  0  0
  191.4860  175.5870  137.3850 C   0  0  1  0  0  0  0  0  0  0  0  0
  191.8650  174.6080  136.2600 C   0  0  1  0  0  3  0  0  0  0  0  0
  190.0520  175.8240  137.7130 C   0  0  2  0  0  3  0  0  0  0  0  0
  194.0790  174.9460  136.6030 C   0  0  0  0  0  2  0  0  0  0  0  0
  193.9340  175.7940  137.8710 C   0  0  0  0  0  2  0  0  0  0  0  0
  192.5930  176.5270  137.8620 C   0  0  0  0  0  2  0  0  0  0  0  0
  193.0750  173.9590  136.5730 O   0  0  0  0  0  0  0  0  0  0  0  0
  183.1320  176.9430  138.1200 C   0  0  0  0  0  0  0  0  0  0  0  0
  182.1030  177.8830  138.2370 C   0  0  0  0  0  3  0  0  0  0  0  0
  184.7070  178.5530  139.0230 C   0  0  0  0  0  0  0  0  0  0  0  0
  182.3750  179.1560  138.7480 C   0  0  0  0  0  3  0  0  0  0  0  0
  184.4310  177.2760  138.5130 C   0  0  0  0  0  3  0  0  0  0  0  0
  183.6740  179.4910  139.1410 C   0  0  0  0  0  3  0  0  0  0  0  0
  182.7920  175.3500  137.4830 Cl  0  0  0  0  0  0  0  0  0  0  0  0
  1 10  2  0  0  0  0
  2  6  1  0  0  0  0
  3  8  1  0  0  0  0
  4  9  1  6  0  0  0
  4 17  1  0  0  0  0
  6  5  2  0  0  0  0
  7 13  2  0  0  0  0
  8  2  2  0  0  0  0
  8  1  1  0  0  0  0
  9 16  1  0  0  0  0
 10  5  1  0  0  0  0
 11  3  2  0  0  0  0
 11 18  1  0  0  0  0
 12  1  1  0  0  0  0
 14  4  1  0  0  0  0
 14 15  1  0  0  0  0
 15 30  1  6  0  0  0
 15 11  1  0  0  0  0
 16  7  1  0  0  0  0
 17  7  1  6  0  0  0
 17  3  1  0  0  0  0
 18 12  2  0  0  0  0
 21 23  1  0  0  0  0
 21 26  1  1  0  0  0
 21 19  1  0  0  0  0
 22 20  1  1  0  0  0
 22 27  1  0  0  0  0
 22 21  1  0  0  0  0
 23 16  1  1  0  0  0
 23 19  1  0  0  0  0
 24 25  1  0  0  0  0
 26 25  1  0  0  0  0
 27 24  1  0  0  0  0
 28 29  2  0  0  0  0
 28 32  1  0  0  0  0
 29 31  1  0  0  0  0
 30 33  1  0  0  0  0
 31 33  2  0  0  0  0
 32 30  2  0  0  0  0
 34 28  1  0  0  0  0
M  END
>  <MODEL>
3

>  <REMARK>
 VINA RESULT:      -9.2      1.740      2.249
  Name = 
  2 active torsions:
  status: ('A' for Active; 'I' for Inactive)
    1  A    between atoms: C_12  and  C_28
    2  A    between atoms: C_17  and  N_29
                            x       y       z     vdW  Elec       q    Type
                         _______ _______ _______ _____ _____    ______ ____

>  <TORSDO>
F 2

$$$$
=
 OpenBabel10262423513D

 34 40  0  0  1  0  0  0  0  0999 V2000
  187.7340  177.4030  145.8010 C   0  0  0  0  0  0  0  0  0  0  0  0
  189.9760  177.4520  144.8710 C   0  0  0  0  0  3  0  0  0  0  0  0
  188.0540  178.0650  143.4630 C   0  0  0  0  0  0  0  0  0  0  0  0
  188.2570  179.0380  141.0850 C   0  0  1  0  0  3  0  0  0  0  0  0
  189.6320  176.7800  147.1700 C   0  0  0  0  0  3  0  0  0  0  0  0
  190.4900  177.0230  146.0970 C   0  0  0  0  0  3  0  0  0  0  0  0
  189.5310  177.1410  141.6250 C   0  0  0  0  0  0  0  0  0  0  0  0
  188.5940  177.6360  144.7000 C   0  0  0  0  0  0  0  0  0  0  0  0
  189.0420  178.5720  139.8540 C   0  0  0  0  0  2  0  0  0  0  0  0
  188.2560  176.9720  147.0240 C   0  0  0  0  0  3  0  0  0  0  0  0
  186.6630  178.2970  143.3610 C   0  0  0  0  0  0  0  0  0  0  0  0
  186.3650  177.6300  145.6800 C   0  0  0  0  0  3  0  0  0  0  0  0
  189.9090  176.1030  142.2310 O   0  0  0  0  0  0  0  0  0  0  0  0
  186.8890  178.5450  140.9370 N   0  0  0  0  0  2  0  0  0  0  0  0
  186.1020  178.9250  142.1040 C   0  0  1  0  0  3  0  0  0  0  0  0
  189.6250  177.2910  140.2210 N   0  0  0  0  0  0  0  0  0  0  0  0
  188.9590  178.3460  142.2760 C   0  0  2  0  0  3  0  0  0  0  0  0
  185.8380  178.0890  144.4770 C   0  0  0  0  0  3  0  0  0  0  0  0
  190.6070  176.4440  138.2610 O   0  0  0  0  0  0  0  0  0  0  0  0
  189.3930  174.2020  137.2480 O   0  0  0  0  0  1  0  0  0  0  0  0
  189.2450  176.5320  137.9270 C   0  0  1  0  0  0  0  0  0  0  0  0
  188.8120  175.4340  136.9380 C   0  0  1  0  0  3  0  0  0  0  0  0
  189.6880  176.1620  139.3000 C   0  0  2  0  0  3  0  0  0  0  0  0
  188.4130  176.9520  135.3050 C   0  0  0  0  0  2  0  0  0  0  0  0
  188.9830  178.1660  136.0470 C   0  0  0  0  0  2  0  0  0  0  0  0
  188.8580  177.9630  137.5570 C   0  0  0  0  0  2  0  0  0  0  0  0
  189.1600  175.8030  135.6250 O   0  0  0  0  0  0  0  0  0  0  0  0
  182.3510  178.4990  142.6110 C   0  0  0  0  0  0  0  0  0  0  0  0
  181.9740  177.9540  141.3800 C   0  0  0  0  0  3  0  0  0  0  0  0
  184.6590  178.5840  141.8660 C   0  0  0  0  0  0  0  0  0  0  0  0
  182.9360  177.7250  140.3930 C   0  0  0  0  0  3  0  0  0  0  0  0
  183.6900  178.8150  142.8550 C   0  0  0  0  0  3  0  0  0  0  0  0
  184.2770  178.0400  140.6350 C   0  0  0  0  0  3  0  0  0  0  0  0
  181.1460  178.7880  143.8460 Cl  0  0  0  0  0  0  0  0  0  0  0  0
  1 10  2  0  0  0  0
  2  6  1  0  0  0  0
  3  8  1  0  0  0  0
  4  9  1  6  0  0  0
  4 17  1  0  0  0  0
  6  5  2  0  0  0  0
  7 13  2  0  0  0  0
  8  2  2  0  0  0  0
  8  1  1  0  0  0  0
  9 16  1  0  0  0  0
 10  5  1  0  0  0  0
 11  3  2  0  0  0  0
 11 18  1  0  0  0  0
 12  1  1  0  0  0  0
 14  4  1  0  0  0  0
 14 15  1  0  0  0  0
 15 30  1  6  0  0  0
 15 11  1  0  0  0  0
 16  7  1  0  0  0  0
 17  7  1  6  0  0  0
 17  3  1  0  0  0  0
 18 12  2  0  0  0  0
 19 23  1  0  0  0  0
 21 26  1  6  0  0  0
 21 19  1  0  0  0  0
 21 23  1  0  0  0  0
 22 20  1  1  0  0  0
 22 21  1  0  0  0  0
 23 16  1  1  0  0  0
 24 27  1  0  0  0  0
 24 25  1  0  0  0  0
 25 26  1  0  0  0  0
 27 22  1  0  0  0  0
 28 32  1  0  0  0  0
 28 34  1  0  0  0  0
 29 28  2  0  0  0  0
 30 32  2  0  0  0  0
 31 33  2  0  0  0  0
 31 29  1  0  0  0  0
 33 30  1  0  0  0  0
M  END
>  <MODEL>
4

>  <REMARK>
 VINA RESULT:      -8.8      1.570      1.748
  Name = 
  2 active torsions:
  status: ('A' for Active; 'I' for Inactive)
    1  A    between atoms: C_12  and  C_28
    2  A    between atoms: C_17  and  N_29
                            x       y       z     vdW  Elec       q    Type
                         _______ _______ _______ _____ _____    ______ ____

>  <TORSDO>
F 2

$$$$
=
 OpenBabel10262423513D

 34 40  0  0  1  0  0  0  0  0999 V2000
  187.8570  177.3730  145.8020 C   0  0  0  0  0  0  0  0  0  0  0  0
  190.0660  177.3940  144.7950 C   0  0  0  0  0  3  0  0  0  0  0  0
  188.1070  178.0650  143.4640 C   0  0  0  0  0  0  0  0  0  0  0  0
  188.2460  179.0710  141.0960 C   0  0  1  0  0  3  0  0  0  0  0  0
  189.7890  176.6930  147.0940 C   0  0  0  0  0  3  0  0  0  0  0  0
  190.6140  176.9360  145.9950 C   0  0  0  0  0  3  0  0  0  0  0  0
  189.5010  177.1420  141.5620 C   0  0  0  0  0  0  0  0  0  0  0  0
  188.6820  177.6070  144.6750 C   0  0  0  0  0  0  0  0  0  0  0  0
  188.9790  178.6090  139.8310 C   0  0  0  0  0  2  0  0  0  0  0  0
  188.4130  176.9130  146.9990 C   0  0  0  0  0  3  0  0  0  0  0  0
  186.7190  178.3250  143.4150 C   0  0  0  0  0  0  0  0  0  0  0  0
  186.4890  177.6270  145.7330 C   0  0  0  0  0  3  0  0  0  0  0  0
  189.8810  176.0880  142.1380 O   0  0  0  0  0  0  0  0  0  0  0  0
  186.8650  178.6060  140.9890 N   0  0  0  0  0  2  0  0  0  0  0  0
  186.1260  178.9820  142.1880 C   0  0  1  0  0  3  0  0  0  0  0  0
  189.5480  177.3120  140.1580 N   0  0  0  0  0  0  0  0  0  0  0  0
  188.9760  178.3480  142.2500 C   0  0  2  0  0  3  0  0  0  0  0  0
  185.9290  178.1150  144.5560 C   0  0  0  0  0  3  0  0  0  0  0  0
  190.1940  176.5900  138.0160 O   0  0  0  0  0  0  0  0  0  0  0  0
  189.0860  174.2060  137.2300 O   0  0  0  0  0  1  0  0  0  0  0  0
  188.7910  176.5000  137.9780 C   0  0  1  0  0  0  0  0  0  0  0  0
  188.3010  175.3520  137.0780 C   0  0  1  0  0  3  0  0  0  0  0  0
  189.5580  176.1960  139.2190 C   0  0  2  0  0  3  0  0  0  0  0  0
  187.3770  176.7990  135.6000 C   0  0  0  0  0  2  0  0  0  0  0  0
  187.9330  178.0790  136.2330 C   0  0  0  0  0  2  0  0  0  0  0  0
  188.1570  177.8680  137.7310 C   0  0  0  0  0  2  0  0  0  0  0  0
  188.3150  175.7570  135.7300 O   0  0  0  0  0  0  0  0  0  0  0  0
  182.8640  177.6870  140.7080 C   0  0  0  0  0  0  0  0  0  0  0  0
  181.9470  178.0950  141.6810 C   0  0  0  0  0  3  0  0  0  0  0  0
  184.6690  178.6730  141.9960 C   0  0  0  0  0  0  0  0  0  0  0  0
  182.3890  178.7890  142.8110 C   0  0  0  0  0  3  0  0  0  0  0  0
  184.2230  177.9740  140.8640 C   0  0  0  0  0  3  0  0  0  0  0  0
  183.7480  179.0770  142.9690 C   0  0  0  0  0  3  0  0  0  0  0  0
  182.3110  176.8170  139.2950 Cl  0  0  0  0  0  0  0  0  0  0  0  0
  1 10  2  0  0  0  0
  2  6  1  0  0  0  0
  3  8  1  0  0  0  0
  4  9  1  6  0  0  0
  4 17  1  0  0  0  0
  6  5  2  0  0  0  0
  7 13  2  0  0  0  0
  8  2  2  0  0  0  0
  8  1  1  0  0  0  0
  9 16  1  0  0  0  0
 10  5  1  0  0  0  0
 11  3  2  0  0  0  0
 11 18  1  0  0  0  0
 12  1  1  0  0  0  0
 14  4  1  0  0  0  0
 14 15  1  0  0  0  0
 15 30  1  6  0  0  0
 15 11  1  0  0  0  0
 16  7  1  0  0  0  0
 17  7  1  6  0  0  0
 17  3  1  0  0  0  0
 18 12  2  0  0  0  0
 19 23  1  0  0  0  0
 21 26  1  6  0  0  0
 21 19  1  0  0  0  0
 21 23  1  0  0  0  0
 22 20  1  6  0  0  0
 22 21  1  0  0  0  0
 23 16  1  1  0  0  0
 24 27  1  0  0  0  0
 24 25  1  0  0  0  0
 25 26  1  0  0  0  0
 27 22  1  0  0  0  0
 28 32  2  0  0  0  0
 28 29  1  0  0  0  0
 29 31  2  0  0  0  0
 30 33  2  0  0  0  0
 31 33  1  0  0  0  0
 32 30  1  0  0  0  0
 34 28  1  0  0  0  0
M  END
>  <MODEL>
5

>  <REMARK>
 VINA RESULT:      -8.7      1.887      2.338
  Name = 
  2 active torsions:
  status: ('A' for Active; 'I' for Inactive)
    1  A    between atoms: C_12  and  C_28
    2  A    between atoms: C_17  and  N_29
                            x       y       z     vdW  Elec       q    Type
                         _______ _______ _______ _____ _____    ______ ____

>  <TORSDO>
F 2

$$$$
=
 OpenBabel10262423513D

 34 40  0  0  1  0  0  0  0  0999 V2000
  186.9010  177.8620  143.6950 C   0  0  0  0  0  0  0  0  0  0  0  0
  189.3050  177.8370  143.3550 C   0  0  0  0  0  3  0  0  0  0  0  0
  187.8040  178.2260  141.4450 C   0  0  0  0  0  0  0  0  0  0  0  0
  188.6060  178.8920  139.0890 C   0  0  1  0  0  3  0  0  0  0  0  0
  188.3890  177.4570  145.5630 C   0  0  0  0  0  3  0  0  0  0  0  0
  189.4910  177.5790  144.7160 C   0  0  0  0  0  3  0  0  0  0  0  0
  189.6820  177.1060  140.1690 C   0  0  0  0  0  0  0  0  0  0  0  0
  188.0130  177.9700  142.8220 C   0  0  0  0  0  0  0  0  0  0  0  0
  189.6690  178.2890  138.1630 C   0  0  0  0  0  2  0  0  0  0  0  0
  187.0960  177.6010  145.0540 C   0  0  0  0  0  3  0  0  0  0  0  0
  186.4860  178.4150  140.9710 C   0  0  0  0  0  0  0  0  0  0  0  0
  185.6090  178.0420  143.2080 C   0  0  0  0  0  3  0  0  0  0  0  0
  189.8850  176.1620  140.9780 O   0  0  0  0  0  0  0  0  0  0  0  0
  187.3130  178.3560  138.6690 N   0  0  0  0  0  2  0  0  0  0  0  0
  186.2630  178.8650  139.5430 C   0  0  1  0  0  3  0  0  0  0  0  0
  190.1250  177.0770  138.8250 N   0  0  0  0  0  0  0  0  0  0  0  0
  188.9800  178.3720  140.4950 C   0  0  2  0  0  3  0  0  0  0  0  0
  185.4050  178.3340  141.8630 C   0  0  0  0  0  3  0  0  0  0  0  0
  190.2190  176.0480  136.7140 O   0  0  0  0  0  0  0  0  0  0  0  0
  190.4210  173.3130  136.7810 O   0  0  0  0  0  1  0  0  0  0  0  0
  189.2060  175.3330  137.3770 C   0  0  1  0  0  0  0  0  0  0  0  0
  189.1440  173.8600  136.9360 C   0  0  1  0  0  3  0  0  0  0  0  0
  190.4040  175.8420  138.1030 C   0  0  2  0  0  3  0  0  0  0  0  0
  187.1090  174.1490  135.9830 C   0  0  0  0  0  2  0  0  0  0  0  0
  187.0500  175.6710  136.1490 C   0  0  0  0  0  2  0  0  0  0  0  0
  187.8840  176.0990  137.3560 C   0  0  0  0  0  2  0  0  0  0  0  0
  188.4340  173.7490  135.7250 O   0  0  0  0  0  0  0  0  0  0  0  0
  183.4530  176.8330  137.9690 C   0  0  0  0  0  0  0  0  0  0  0  0
  182.4010  177.7530  138.0110 C   0  0  0  0  0  3  0  0  0  0  0  0
  184.9220  178.4670  138.9990 C   0  0  0  0  0  0  0  0  0  0  0  0
  182.6070  179.0270  138.5470 C   0  0  0  0  0  3  0  0  0  0  0  0
  184.7120  177.1880  138.4630 C   0  0  0  0  0  3  0  0  0  0  0  0
  183.8660  179.3840  139.0410 C   0  0  0  0  0  3  0  0  0  0  0  0
  183.1950  175.2370  137.3000 Cl  0  0  0  0  0  0  0  0  0  0  0  0
  1 10  2  0  0  0  0
  2  6  1  0  0  0  0
  3  8  1  0  0  0  0
  4  9  1  6  0  0  0
  4 17  1  0  0  0  0
  6  5  2  0  0  0  0
  7 13  2  0  0  0  0
  8  2  2  0  0  0  0
  8  1  1  0  0  0  0
  9 16  1  0  0  0  0
 10  5  1  0  0  0  0
 11  3  2  0  0  0  0
 11 18  1  0  0  0  0
 12  1  1  0  0  0  0
 14  4  1  0  0  0  0
 14 15  1  0  0  0  0
 15 30  1  6  0  0  0
 15 11  1  0  0  0  0
 16  7  1  0  0  0  0
 17  7  1  6  0  0  0
 17  3  1  0  0  0  0
 18 12  2  0  0  0  0
 19 21  1  0  0  0  0
 19 23  1  0  0  0  0
 21 26  1  1  0  0  0
 21 23  1  0  0  0  0
 22 20  1  6  0  0  0
 22 21  1  0  0  0  0
 23 16  1  1  0  0  0
 24 25  1  0  0  0  0
 25 26  1  0  0  0  0
 27 24  1  0  0  0  0
 27 22  1  0  0  0  0
 28 29  2  0  0  0  0
 28 32  1  0  0  0  0
 29 31  1  0  0  0  0
 30 33  1  0  0  0  0
 31 33  2  0  0  0  0
 32 30  2  0  0  0  0
 34 28  1  0  0  0  0
M  END
>  <MODEL>
6

>  <REMARK>
 VINA RESULT:      -8.1      2.037      2.942
  Name = 
  2 active torsions:
  status: ('A' for Active; 'I' for Inactive)
    1  A    between atoms: C_12  and  C_28
    2  A    between atoms: C_17  and  N_29
                            x       y       z     vdW  Elec       q    Type
                         _______ _______ _______ _____ _____    ______ ____

>  <TORSDO>
F 2

$$$$
=
 OpenBabel10262423513D

 34 40  0  0  1  0  0  0  0  0999 V2000
  188.9040  177.8570  139.4350 C   0  0  0  0  0  0  0  0  0  0  0  0
  187.7290  177.8110  137.3100 C   0  0  0  0  0  3  0  0  0  0  0  0
  186.5060  178.3590  139.3730 C   0  0  0  0  0  0  0  0  0  0  0  0
  184.0610  179.1720  139.4300 C   0  0  1  0  0  3  0  0  0  0  0  0
  190.0920  177.2960  137.4010 C   0  0  0  0  0  3  0  0  0  0  0  0
  188.9170  177.4550  136.6660 C   0  0  0  0  0  3  0  0  0  0  0  0
  184.5810  177.2950  138.1190 C   0  0  0  0  0  0  0  0  0  0  0  0
  187.7000  178.0050  138.7010 C   0  0  0  0  0  0  0  0  0  0  0  0
  182.7840  178.6150  138.7910 C   0  0  0  0  0  2  0  0  0  0  0  0
  190.0870  177.4990  138.7820 C   0  0  0  0  0  3  0  0  0  0  0  0
  186.5440  178.6060  140.7650 C   0  0  0  0  0  0  0  0  0  0  0  0
  188.9210  178.0960  140.8070 C   0  0  0  0  0  3  0  0  0  0  0  0
  185.2080  176.2940  137.6820 O   0  0  0  0  0  0  0  0  0  0  0  0
  184.0990  178.6910  140.8090 N   0  0  0  0  0  2  0  0  0  0  0  0
  185.3180  179.1590  141.4590 C   0  0  1  0  0  3  0  0  0  0  0  0
  183.1690  177.3520  138.1810 N   0  0  0  0  0  0  0  0  0  0  0  0
  185.2090  178.5490  138.6050 C   0  0  2  0  0  3  0  0  0  0  0  0
  187.7560  178.4840  141.4620 C   0  0  0  0  0  3  0  0  0  0  0  0
  182.7950  175.2040  137.3030 O   0  0  0  0  0  0  0  0  0  0  0  0
  180.3660  174.1070  137.9550 O   0  0  0  0  0  1  0  0  0  0  0  0
  181.6370  175.9090  136.9320 C   0  0  1  0  0  0  0  0  0  0  0  0
  180.3900  175.0090  136.8870 C   0  0  1  0  0  3  0  0  0  0  0  0
  182.3230  176.1640  138.2300 C   0  0  2  0  0  3  0  0  0  0  0  0
  180.1990  175.2500  134.6430 C   0  0  0  0  0  2  0  0  0  0  0  0
  181.5180  176.0010  134.4320 C   0  0  0  0  0  2  0  0  0  0  0  0
  181.8880  176.7740  135.6980 C   0  0  0  0  0  2  0  0  0  0  0  0
  180.3510  174.3000  135.6710 O   0  0  0  0  0  0  0  0  0  0  0  0
  186.3110  177.9780  144.9410 C   0  0  0  0  0  0  0  0  0  0  0  0
  185.1370  178.2330  145.6560 C   0  0  0  0  0  3  0  0  0  0  0  0
  185.2650  178.8250  142.9220 C   0  0  0  0  0  0  0  0  0  0  0  0
  184.0280  178.7840  145.0060 C   0  0  0  0  0  3  0  0  0  0  0  0
  186.3770  178.2740  143.5770 C   0  0  0  0  0  3  0  0  0  0  0  0
  184.0920  179.0800  143.6410 C   0  0  0  0  0  3  0  0  0  0  0  0
  187.6990  177.2910  145.7540 Cl  0  0  0  0  0  0  0  0  0  0  0  0
  1 12  1  0  0  0  0
  2  8  1  0  0  0  0
  3 11  2  0  0  0  0
  4  9  1  6  0  0  0
  4 14  1  0  0  0  0
  5 10  2  0  0  0  0
  6  2  2  0  0  0  0
  6  5  1  0  0  0  0
  7 16  1  0  0  0  0
  8  3  1  0  0  0  0
  8  1  2  0  0  0  0
 10  1  1  0  0  0  0
 11 15  1  0  0  0  0
 11 18  1  0  0  0  0
 12 18  2  0  0  0  0
 13  7  2  0  0  0  0
 14 15  1  0  0  0  0
 15 30  1  1  0  0  0
 16  9  1  0  0  0  0
 17  7  1  1  0  0  0
 17  3  1  0  0  0  0
 17  4  1  0  0  0  0
 19 23  1  0  0  0  0
 21 26  1  6  0  0  0
 21 19  1  0  0  0  0
 21 23  1  0  0  0  0
 22 21  1  0  0  0  0
 22 20  1  1  0  0  0
 23 16  1  6  0  0  0
 24 27  1  0  0  0  0
 25 24  1  0  0  0  0
 25 26  1  0  0  0  0
 27 22  1  0  0  0  0
 28 29  1  0  0  0  0
 28 34  1  0  0  0  0
 30 32  1  0  0  0  0
 30 33  2  0  0  0  0
 31 29  2  0  0  0  0
 32 28  2  0  0  0  0
 33 31  1  0  0  0  0
M  END
>  <MODEL>
7

>  <REMARK>
 VINA RESULT:      -8.1      4.006      7.066
  Name = 
  2 active torsions:
  status: ('A' for Active; 'I' for Inactive)
    1  A    between atoms: C_12  and  C_28
    2  A    between atoms: C_17  and  N_29
                            x       y       z     vdW  Elec       q    Type
                         _______ _______ _______ _____ _____    ______ ____

>  <TORSDO>
F 2

$$$$
=
 OpenBabel10262423513D

 34 40  0  0  1  0  0  0  0  0999 V2000
  182.1130  178.3900  141.8310 C   0  0  0  0  0  0  0  0  0  0  0  0
  183.6900  179.0850  143.5410 C   0  0  0  0  0  3  0  0  0  0  0  0
  184.4780  178.6600  141.2490 C   0  0  0  0  0  0  0  0  0  0  0  0
  186.8680  179.1630  140.4270 C   0  0  1  0  0  3  0  0  0  0  0  0
  181.3530  178.7890  144.0960 C   0  0  0  0  0  3  0  0  0  0  0  0
  182.6540  179.1220  144.4770 C   0  0  0  0  0  3  0  0  0  0  0  0
  186.6070  178.0140  142.4580 C   0  0  0  0  0  0  0  0  0  0  0  0
  183.4400  178.7090  142.2110 C   0  0  0  0  0  0  0  0  0  0  0  0
  188.2430  178.7930  140.9950 C   0  0  0  0  0  2  0  0  0  0  0  0
  181.0820  178.4260  142.7750 C   0  0  0  0  0  3  0  0  0  0  0  0
  184.1630  178.3370  139.9100 C   0  0  0  0  0  0  0  0  0  0  0  0
  181.8220  178.0650  140.5090 C   0  0  0  0  0  3  0  0  0  0  0  0
  186.0720  177.3280  143.3690 O   0  0  0  0  0  0  0  0  0  0  0  0
  186.5500  178.1800  139.3940 N   0  0  0  0  0  2  0  0  0  0  0  0
  185.2290  178.4580  138.8420 C   0  0  1  0  0  3  0  0  0  0  0  0
  187.9790  177.9150  142.1240 N   0  0  0  0  0  0  0  0  0  0  0  0
  185.9040  179.0230  141.6270 C   0  0  2  0  0  3  0  0  0  0  0  0
  182.8350  178.0560  139.5540 C   0  0  0  0  0  3  0  0  0  0  0  0
  188.5130  176.2750  143.7210 O   0  0  0  0  0  0  0  0  0  0  0  0
  190.7450  174.7910  143.1350 O   0  0  0  0  0  1  0  0  0  0  0  0
  189.7270  176.9610  143.5440 C   0  0  1  0  0  0  0  0  0  0  0  0
  190.9500  176.0430  143.7210 C   0  0  1  0  0  3  0  0  0  0  0  0
  188.7870  176.7360  142.4110 C   0  0  2  0  0  3  0  0  0  0  0  0
  191.6070  177.1450  145.5880 C   0  0  0  0  0  2  0  0  0  0  0  0
  190.3660  178.0350  145.7140 C   0  0  0  0  0  2  0  0  0  0  0  0
  189.7450  178.2670  144.3370 C   0  0  0  0  0  2  0  0  0  0  0  0
  191.2380  175.8810  145.0890 O   0  0  0  0  0  0  0  0  0  0  0  0
  185.6500  175.7420  136.2060 C   0  0  0  0  0  0  0  0  0  0  0  0
  184.4840  175.9140  135.4540 C   0  0  0  0  0  3  0  0  0  0  0  0
  184.9840  177.5680  137.6580 C   0  0  0  0  0  0  0  0  0  0  0  0
  183.5680  176.9110  135.8030 C   0  0  0  0  0  3  0  0  0  0  0  0
  185.9000  176.5660  137.3070 C   0  0  0  0  0  3  0  0  0  0  0  0
  183.8170  177.7360  136.9040 C   0  0  0  0  0  3  0  0  0  0  0  0
  186.7960  174.4930  135.7700 Cl  0  0  0  0  0  0  0  0  0  0  0  0
  1  8  1  0  0  0  0
  1 10  2  0  0  0  0
  2  6  1  0  0  0  0
  3  8  1  0  0  0  0
  4  9  1  1  0  0  0
  4 17  1  0  0  0  0
  5  6  2  0  0  0  0
  7 13  2  0  0  0  0
  8  2  2  0  0  0  0
  9 16  1  0  0  0  0
 10  5  1  0  0  0  0
 11  3  2  0  0  0  0
 12  1  1  0  0  0  0
 14  4  1  0  0  0  0
 15 30  1  6  0  0  0
 15 14  1  0  0  0  0
 15 11  1  0  0  0  0
 16  7  1  0  0  0  0
 17  3  1  6  0  0  0
 17  7  1  0  0  0  0
 18 11  1  0  0  0  0
 18 12  2  0  0  0  0
 21 22  1  0  0  0  0
 21 19  1  0  0  0  0
 21 26  1  1  0  0  0
 22 20  1  1  0  0  0
 22 27  1  0  0  0  0
 23 16  1  1  0  0  0
 23 21  1  0  0  0  0
 23 19  1  0  0  0  0
 24 25  1  0  0  0  0
 26 25  1  0  0  0  0
 27 24  1  0  0  0  0
 28 32  1  0  0  0  0
 29 31  1  0  0  0  0
 29 28  2  0  0  0  0
 31 33  2  0  0  0  0
 32 30  2  0  0  0  0
 33 30  1  0  0  0  0
 34 28  1  0  0  0  0
M  END
>  <MODEL>
8

>  <REMARK>
 VINA RESULT:      -8.1      3.772      6.354
  Name = 
  2 active torsions:
  status: ('A' for Active; 'I' for Inactive)
    1  A    between atoms: C_12  and  C_28
    2  A    between atoms: C_17  and  N_29
                            x       y       z     vdW  Elec       q    Type
                         _______ _______ _______ _____ _____    ______ ____

>  <TORSDO>
F 2

$$$$
=
 OpenBabel10262423513D

 34 40  0  0  1  0  0  0  0  0999 V2000
  188.3030  177.4480  144.5570 C   0  0  0  0  0  0  0  0  0  0  0  0
  190.5040  177.4750  143.5330 C   0  0  0  0  0  3  0  0  0  0  0  0
  188.5210  178.0280  142.1850 C   0  0  0  0  0  0  0  0  0  0  0  0
  188.6190  178.9170  139.7690 C   0  0  1  0  0  3  0  0  0  0  0  0
  190.2600  176.8830  145.8660 C   0  0  0  0  0  3  0  0  0  0  0  0
  191.0720  177.0930  144.7510 C   0  0  0  0  0  3  0  0  0  0  0  0
  189.9260  177.0470  140.3210 C   0  0  0  0  0  0  0  0  0  0  0  0
  189.1150  177.6460  143.4130 C   0  0  0  0  0  0  0  0  0  0  0  0
  189.3550  178.4120  138.5230 C   0  0  0  0  0  2  0  0  0  0  0  0
  188.8790  177.0630  145.7710 C   0  0  0  0  0  3  0  0  0  0  0  0
  187.1260  178.2490  142.1340 C   0  0  0  0  0  0  0  0  0  0  0  0
  186.9290  177.6620  144.4850 C   0  0  0  0  0  3  0  0  0  0  0  0
  190.3370  176.0340  140.9460 O   0  0  0  0  0  0  0  0  0  0  0  0
  187.2490  178.4120  139.6950 N   0  0  0  0  0  2  0  0  0  0  0  0
  186.5080  178.8290  140.8800 C   0  0  1  0  0  3  0  0  0  0  0  0
  189.9610  177.1480  138.9100 N   0  0  0  0  0  0  0  0  0  0  0  0
  189.3740  178.2720  140.9520 C   0  0  2  0  0  3  0  0  0  0  0  0
  186.3490  178.0760  143.2890 C   0  0  0  0  0  3  0  0  0  0  0  0
  189.6320  176.3750  136.7150 O   0  0  0  0  0  0  0  0  0  0  0  0
  189.5410  173.6450  136.4640 O   0  0  0  0  0  1  0  0  0  0  0  0
  188.6550  175.6820  137.4500 C   0  0  1  0  0  0  0  0  0  0  0  0
  188.3670  174.2850  136.8730 C   0  0  1  0  0  3  0  0  0  0  0  0
  189.9940  175.9880  138.0270 C   0  0  2  0  0  3  0  0  0  0  0  0
  186.2590  174.8720  136.2880 C   0  0  0  0  0  2  0  0  0  0  0  0
  186.3920  176.3620  136.6190 C   0  0  0  0  0  2  0  0  0  0  0  0
  187.4360  176.5640  137.7180 C   0  0  0  0  0  2  0  0  0  0  0  0
  187.4810  174.3850  135.7850 O   0  0  0  0  0  0  0  0  0  0  0  0
  183.2430  177.5360  139.4050 C   0  0  0  0  0  0  0  0  0  0  0  0
  182.3530  177.8030  140.4490 C   0  0  0  0  0  3  0  0  0  0  0  0
  185.0590  178.4720  140.7150 C   0  0  0  0  0  0  0  0  0  0  0  0
  182.8130  178.4030  141.6250 C   0  0  0  0  0  3  0  0  0  0  0  0
  184.5940  177.8680  139.5370 C   0  0  0  0  0  3  0  0  0  0  0  0
  184.1650  178.7360  141.7580 C   0  0  0  0  0  3  0  0  0  0  0  0
  182.6670  176.7840  137.9350 Cl  0  0  0  0  0  0  0  0  0  0  0  0
  1 10  2  0  0  0  0
  2  6  1  0  0  0  0
  3  8  1  0  0  0  0
  4  9  1  6  0  0  0
  4 17  1  0  0  0  0
  6  5  2  0  0  0  0
  7 13  2  0  0  0  0
  8  2  2  0  0  0  0
  8  1  1  0  0  0  0
  9 16  1  0  0  0  0
 10  5  1  0  0  0  0
 11  3  2  0  0  0  0
 11 18  1  0  0  0  0
 12  1  1  0  0  0  0
 14  4  1  0  0  0  0
 14 15  1  0  0  0  0
 15 30  1  6  0  0  0
 15 11  1  0  0  0  0
 16  7  1  0  0  0  0
 17  7  1  6  0  0  0
 17  3  1  0  0  0  0
 18 12  2  0  0  0  0
 19 21  1  0  0  0  0
 19 23  1  0  0  0  0
 21 26  1  1  0  0  0
 21 23  1  0  0  0  0
 22 20  1  6  0  0  0
 22 21  1  0  0  0  0
 23 16  1  1  0  0  0
 24 25  1  0  0  0  0
 25 26  1  0  0  0  0
 27 24  1  0  0  0  0
 27 22  1  0  0  0  0
 28 32  2  0  0  0  0
 28 29  1  0  0  0  0
 29 31  2  0  0  0  0
 30 33  2  0  0  0  0
 31 33  1  0  0  0  0
 32 30  1  0  0  0  0
 34 28  1  0  0  0  0
M  END
>  <MODEL>
9

>  <REMARK>
 VINA RESULT:      -8.0      1.746      2.589
  Name = 
  2 active torsions:
  status: ('A' for Active; 'I' for Inactive)
    1  A    between atoms: C_12  and  C_28
    2  A    between atoms: C_17  and  N_29
                            x       y       z     vdW  Elec       q    Type
                         _______ _______ _______ _____ _____    ______ ____

>  <TORSDO>
F 2

$$$$
