=
 OpenBabel10272413353D

 32 37  0  0  1  0  0  0  0  0999 V2000
  190.5770  177.3130  138.3540 C   0  0  2  0  0  3  0  0  0  0  0  0
  186.7680  178.0160  137.6690 C   0  0  0  0  0  2  0  0  0  0  0  0
  186.7550  177.3270  136.2950 C   0  0  0  0  0  2  0  0  0  0  0  0
  192.4580  175.5420  137.8560 C   0  0  1  0  0  3  0  0  0  0  0  0
  192.5540  174.2480  137.0860 C   0  0  0  0  0  0  0  0  0  0  0  0
  192.0490  172.5280  135.7630 C   0  0  0  0  0  0  0  0  0  0  0  0
  188.1840  178.5000  138.0170 C   0  0  0  0  0  2  0  0  0  0  0  0
  189.1850  177.4100  137.7760 C   0  0  0  0  0  0  0  0  0  0  0  0
  190.1000  175.5730  136.8600 C   0  0  0  0  0  0  0  0  0  0  0  0
  193.3330  172.3280  136.2450 O   0  0  0  0  0  0  0  0  0  0  0  0
  193.6860  173.3760  137.0690 N   0  0  0  0  0  0  0  0  0  0  0  0
  187.7320  176.2820  136.2430 O   0  0  0  0  0  0  0  0  0  0  0  0
  188.9440  176.4250  136.9200 C   0  0  0  0  0  0  0  0  0  0  0  0
  190.2690  174.4480  136.1670 C   0  0  0  0  0  3  0  0  0  0  0  0
  193.4790  176.5290  137.3200 C   0  0  0  0  0  1  0  0  0  0  0  0
  191.4050  171.7120  134.9430 C   0  0  0  0  0  1  0  0  0  0  0  0
  191.1040  176.1030  137.7200 N   0  0  0  0  0  0  0  0  0  0  0  0
  191.5690  173.7770  136.3250 C   0  0  0  0  0  0  0  0  0  0  0  0
  190.9110  178.6250  143.7920 C   0  0  0  0  0  2  0  0  0  0  0  0
  189.6690  176.6990  141.9020 C   0  0  1  0  0  3  0  0  0  0  0  0
  191.5010  177.3630  140.6180 N   0  0  0  0  0  0  0  0  0  0  0  0
  191.7610  177.5530  143.1090 C   0  0  0  0  0  2  0  0  0  0  0  0
  190.5060  177.1280  139.8340 C   0  0  0  0  0  0  0  0  0  0  0  0
  189.4570  178.1630  143.9670 C   0  0  1  0  0  3  0  0  0  0  0  0
  191.0730  177.0820  141.9170 N   0  0  0  0  0  0  0  0  0  0  0  0
  188.8400  177.7690  142.6200 C   0  0  0  0  0  2  0  0  0  0  0  0
  189.3640  176.7160  140.5140 O   0  0  0  0  0  0  0  0  0  0  0  0
  189.3420  177.0280  144.9770 C   0  0  0  0  0  2  0  0  0  0  0  0
  189.2070  177.5030  147.4460 C   0  0  0  0  0  0  0  0  0  0  0  0
  188.6110  177.4790  146.1500 N   0  0  0  0  0  2  0  0  0  0  0  0
  188.4020  177.9370  148.6170 C   0  0  0  0  0  1  0  0  0  0  0  0
  190.4120  177.1670  147.6070 O   0  0  0  0  0  0  0  0  0  0  0  0
  1 23  1  1  0  0  0
  2  7  1  0  0  0  0
  3  2  1  0  0  0  0
  4 15  1  6  0  0  0
  5  4  1  0  0  0  0
  6 10  1  0  0  0  0
  6 18  2  0  0  0  0
  8  7  1  0  0  0  0
  8  1  1  0  0  0  0
  9 13  1  0  0  0  0
  9 17  1  0  0  0  0
 10 11  1  0  0  0  0
 11  5  2  0  0  0  0
 12  3  1  0  0  0  0
 12 13  1  0  0  0  0
 13  8  2  0  0  0  0
 14 18  1  0  0  0  0
 14  9  2  0  0  0  0
 16  6  1  0  0  0  0
 17  4  1  0  0  0  0
 17  1  1  0  0  0  0
 18  5  1  0  0  0  0
 19 24  1  0  0  0  0
 20 25  1  0  0  0  0
 20 26  1  1  0  0  0
 21 25  1  0  0  0  0
 22 19  1  0  0  0  0
 23 27  1  0  0  0  0
 23 21  2  0  0  0  0
 24 28  1  1  0  0  0
 25 22  1  0  0  0  0
 26 24  1  0  0  0  0
 27 20  1  0  0  0  0
 28 30  1  0  0  0  0
 29 32  2  0  0  0  0
 29 31  1  0  0  0  0
 30 29  1  0  0  0  0
M  END
>  <MODEL>
1

>  <REMARK>
 VINA RESULT:      -8.5      0.000      0.000
  Name = 
  3 active torsions:
  status: ('A' for Active; 'I' for Inactive)
    1  A    between atoms: C_3  and  C_14
    2  A    between atoms: N_10  and  C_24
    3  A    between atoms: C_19  and  C_24
                            x       y       z     vdW  Elec       q    Type
                         _______ _______ _______ _____ _____    ______ ____

>  <TORSDO>
F 3

$$$$
=
 OpenBabel10272413353D

 32 37  0  0  1  0  0  0  0  0999 V2000
  187.3840  178.1490  138.4740 C   0  0  2  0  0  3  0  0  0  0  0  0
  183.4590  178.4010  138.4560 C   0  0  0  0  0  2  0  0  0  0  0  0
  183.2760  177.4730  137.2440 C   0  0  0  0  0  2  0  0  0  0  0  0
  189.3350  176.4760  137.9080 C   0  0  1  0  0  3  0  0  0  0  0  0
  189.4380  175.0750  137.3580 C   0  0  0  0  0  0  0  0  0  0  0  0
  188.9020  173.1070  136.4620 C   0  0  0  0  0  0  0  0  0  0  0  0
  184.8490  179.0550  138.4320 C   0  0  0  0  0  2  0  0  0  0  0  0
  185.9080  178.0240  138.1770 C   0  0  0  0  0  0  0  0  0  0  0  0
  186.8480  176.1310  137.4110 C   0  0  0  0  0  0  0  0  0  0  0  0
  190.2670  173.1040  136.7040 O   0  0  0  0  0  0  0  0  0  0  0  0
  190.6400  174.3100  137.2580 N   0  0  0  0  0  0  0  0  0  0  0  0
  184.3410  176.5200  137.1700 O   0  0  0  0  0  0  0  0  0  0  0  0
  185.6310  176.8840  137.5600 C   0  0  0  0  0  0  0  0  0  0  0  0
  187.0160  174.9160  136.8920 C   0  0  0  0  0  3  0  0  0  0  0  0
  190.1200  177.4290  137.0260 C   0  0  0  0  0  1  0  0  0  0  0  0
  188.2180  172.1050  135.9310 C   0  0  0  0  0  1  0  0  0  0  0  0
  187.9230  176.8900  137.9550 N   0  0  0  0  0  0  0  0  0  0  0  0
  188.3910  174.3940  136.8950 C   0  0  0  0  0  0  0  0  0  0  0  0
  186.9500  176.7920  143.8940 C   0  0  0  0  0  2  0  0  0  0  0  0
  188.6640  178.2540  141.9590 C   0  0  1  0  0  3  0  0  0  0  0  0
  186.6410  178.3200  140.7990 N   0  0  0  0  0  0  0  0  0  0  0  0
  186.4850  178.1210  143.2980 C   0  0  0  0  0  2  0  0  0  0  0  0
  187.6050  178.2320  139.9490 C   0  0  0  0  0  0  0  0  0  0  0  0
  188.4820  176.7170  143.9720 C   0  0  1  0  0  3  0  0  0  0  0  0
  187.2180  178.3780  142.0680 N   0  0  0  0  0  0  0  0  0  0  0  0
  189.1130  176.9330  142.5920 C   0  0  0  0  0  2  0  0  0  0  0  0
  188.8580  178.1940  140.5520 O   0  0  0  0  0  0  0  0  0  0  0  0
  189.0460  177.6970  144.9940 C   0  0  0  0  0  2  0  0  0  0  0  0
  191.1150  176.9340  146.2080 C   0  0  0  0  0  0  0  0  0  0  0  0
  189.6960  176.9700  146.0730 N   0  0  0  0  0  2  0  0  0  0  0  0
  191.7290  176.1440  147.3080 C   0  0  0  0  0  1  0  0  0  0  0  0
  191.8550  177.5710  145.4110 O   0  0  0  0  0  0  0  0  0  0  0  0
  1 23  1  1  0  0  0
  3  2  1  0  0  0  0
  4 15  1  6  0  0  0
  4 17  1  0  0  0  0
  5  4  1  0  0  0  0
  6 10  1  0  0  0  0
  6 18  2  0  0  0  0
  7  2  1  0  0  0  0
  8  7  1  0  0  0  0
  8  1  1  0  0  0  0
  9 13  1  0  0  0  0
  9 17  1  0  0  0  0
 10 11  1  0  0  0  0
 11  5  2  0  0  0  0
 12  3  1  0  0  0  0
 12 13  1  0  0  0  0
 13  8  2  0  0  0  0
 14 18  1  0  0  0  0
 14  9  2  0  0  0  0
 16  6  1  0  0  0  0
 17  1  1  0  0  0  0
 18  5  1  0  0  0  0
 19 24  1  0  0  0  0
 20 25  1  0  0  0  0
 20 26  1  1  0  0  0
 21 25  1  0  0  0  0
 22 19  1  0  0  0  0
 23 27  1  0  0  0  0
 23 21  2  0  0  0  0
 24 28  1  1  0  0  0
 25 22  1  0  0  0  0
 26 24  1  0  0  0  0
 27 20  1  0  0  0  0
 28 30  1  0  0  0  0
 29 31  1  0  0  0  0
 30 29  1  0  0  0  0
 32 29  2  0  0  0  0
M  END
>  <MODEL>
2

>  <REMARK>
 VINA RESULT:      -7.8      2.491      3.263
  Name = 
  3 active torsions:
  status: ('A' for Active; 'I' for Inactive)
    1  A    between atoms: C_3  and  C_14
    2  A    between atoms: N_10  and  C_24
    3  A    between atoms: C_19  and  C_24
                            x       y       z     vdW  Elec       q    Type
                         _______ _______ _______ _____ _____    ______ ____

>  <TORSDO>
F 3

$$$$
=
 OpenBabel10272413353D

 32 37  0  0  1  0  0  0  0  0999 V2000
  185.6410  178.3310  138.2270 C   0  0  2  0  0  3  0  0  0  0  0  0
  182.1140  179.4810  139.5340 C   0  0  0  0  0  2  0  0  0  0  0  0
  181.3210  178.5600  138.5920 C   0  0  0  0  0  2  0  0  0  0  0  0
  186.8790  176.2270  137.2460 C   0  0  1  0  0  3  0  0  0  0  0  0
  186.4950  174.8140  136.8820 C   0  0  0  0  0  0  0  0  0  0  0  0
  185.2930  172.9800  136.4910 C   0  0  0  0  0  0  0  0  0  0  0  0
  183.4980  179.7950  138.9450 C   0  0  0  0  0  2  0  0  0  0  0  0
  184.1660  178.5350  138.4770 C   0  0  0  0  0  0  0  0  0  0  0  0
  184.3670  176.4410  137.6880 C   0  0  0  0  0  0  0  0  0  0  0  0
  186.6220  172.6740  136.2450 O   0  0  0  0  0  0  0  0  0  0  0  0
  187.4020  173.7880  136.4740 N   0  0  0  0  0  0  0  0  0  0  0  0
  182.0750  177.3840  138.2800 O   0  0  0  0  0  0  0  0  0  0  0  0
  183.4630  177.4600  138.1490 C   0  0  0  0  0  0  0  0  0  0  0  0
  184.0910  175.1940  137.3070 C   0  0  0  0  0  3  0  0  0  0  0  0
  187.4580  176.9260  136.0290 C   0  0  0  0  0  1  0  0  0  0  0  0
  184.2790  172.1370  136.3650 C   0  0  0  0  0  1  0  0  0  0  0  0
  185.6940  176.9570  137.7230 N   0  0  0  0  0  0  0  0  0  0  0  0
  185.2400  174.3700  136.9030 C   0  0  0  0  0  0  0  0  0  0  0  0
  187.5020  176.8910  143.3130 C   0  0  0  0  0  2  0  0  0  0  0  0
  188.1350  178.5980  140.9660 C   0  0  1  0  0  3  0  0  0  0  0  0
  185.8320  178.3780  140.6650 N   0  0  0  0  0  0  0  0  0  0  0  0
  186.6740  178.1430  143.0200 C   0  0  0  0  0  2  0  0  0  0  0  0
  186.3980  178.4360  139.5100 C   0  0  0  0  0  0  0  0  0  0  0  0
  188.9420  177.0370  142.8000 C   0  0  1  0  0  3  0  0  0  0  0  0
  186.8390  178.5120  141.6220 N   0  0  0  0  0  0  0  0  0  0  0  0
  188.9610  177.3510  141.2990 C   0  0  0  0  0  2  0  0  0  0  0  0
  187.7800  178.5750  139.5900 O   0  0  0  0  0  0  0  0  0  0  0  0
  189.7220  178.0810  143.5890 C   0  0  0  0  0  2  0  0  0  0  0  0
  190.6000  177.1590  145.7620 C   0  0  0  0  0  0  0  0  0  0  0  0
  189.5860  177.8300  145.0150 N   0  0  0  0  0  2  0  0  0  0  0  0
  190.3930  176.8940  147.2090 C   0  0  0  0  0  1  0  0  0  0  0  0
  191.6740  176.7970  145.2090 O   0  0  0  0  0  0  0  0  0  0  0  0
  1  8  1  0  0  0  0
  1 23  1  1  0  0  0
  3  2  1  0  0  0  0
  4 15  1  6  0  0  0
  4 17  1  0  0  0  0
  5 18  1  0  0  0  0
  5  4  1  0  0  0  0
  6 18  2  0  0  0  0
  7  2  1  0  0  0  0
  8  7  1  0  0  0  0
  9 17  1  0  0  0  0
  9 13  1  0  0  0  0
 10 11  1  0  0  0  0
 10  6  1  0  0  0  0
 11  5  2  0  0  0  0
 12  3  1  0  0  0  0
 13 12  1  0  0  0  0
 13  8  2  0  0  0  0
 14  9  2  0  0  0  0
 16  6  1  0  0  0  0
 17  1  1  0  0  0  0
 18 14  1  0  0  0  0
 20 26  1  6  0  0  0
 20 25  1  0  0  0  0
 21 25  1  0  0  0  0
 22 19  1  0  0  0  0
 23 27  1  0  0  0  0
 23 21  2  0  0  0  0
 24 19  1  0  0  0  0
 24 28  1  1  0  0  0
 25 22  1  0  0  0  0
 26 24  1  0  0  0  0
 27 20  1  0  0  0  0
 28 30  1  0  0  0  0
 29 31  1  0  0  0  0
 30 29  1  0  0  0  0
 32 29  2  0  0  0  0
M  END
>  <MODEL>
3

>  <REMARK>
 VINA RESULT:      -7.6      3.745      5.011
  Name = 
  3 active torsions:
  status: ('A' for Active; 'I' for Inactive)
    1  A    between atoms: C_3  and  C_14
    2  A    between atoms: N_10  and  C_24
    3  A    between atoms: C_19  and  C_24
                            x       y       z     vdW  Elec       q    Type
                         _______ _______ _______ _____ _____    ______ ____

>  <TORSDO>
F 3

$$$$
=
 OpenBabel10272413353D

 32 37  0  0  1  0  0  0  0  0999 V2000
  190.7990  176.4350  137.6840 C   0  0  2  0  0  3  0  0  0  0  0  0
  187.4130  174.5420  137.0380 C   0  0  0  0  0  2  0  0  0  0  0  0
  188.0450  173.4360  136.1770 C   0  0  0  0  0  2  0  0  0  0  0  0
  193.3770  175.9900  137.9650 C   0  0  1  0  0  3  0  0  0  0  0  0
  194.2820  174.7840  137.9160 C   0  0  0  0  0  0  0  0  0  0  0  0
  195.0210  172.7010  137.6370 C   0  0  0  0  0  0  0  0  0  0  0  0
  188.2700  175.8160  136.9980 C   0  0  0  0  0  2  0  0  0  0  0  0
  189.7130  175.4840  137.2400 C   0  0  0  0  0  0  0  0  0  0  0  0
  191.6090  174.2780  137.2640 C   0  0  0  0  0  0  0  0  0  0  0  0
  196.0910  173.4770  138.0540 O   0  0  0  0  0  0  0  0  0  0  0  0
  195.6740  174.7780  138.2370 N   0  0  0  0  0  0  0  0  0  0  0  0
  189.4050  173.2080  136.5640 O   0  0  0  0  0  0  0  0  0  0  0  0
  190.1970  174.2750  136.9910 C   0  0  0  0  0  0  0  0  0  0  0  0
  192.4710  173.2650  137.1930 C   0  0  0  0  0  3  0  0  0  0  0  0
  193.8360  177.0120  136.9410 C   0  0  0  0  0  1  0  0  0  0  0  0
  195.0760  171.4050  137.3670 C   0  0  0  0  0  1  0  0  0  0  0  0
  191.9920  175.5850  137.6790 N   0  0  0  0  0  0  0  0  0  0  0  0
  193.8640  173.5720  137.5570 C   0  0  0  0  0  0  0  0  0  0  0  0
  187.9450  177.3060  142.4270 C   0  0  0  0  0  2  0  0  0  0  0  0
  190.6980  177.2030  141.3160 C   0  0  1  0  0  3  0  0  0  0  0  0
  189.5160  177.6720  139.3590 N   0  0  0  0  0  0  0  0  0  0  0  0
  188.4510  178.4190  141.5080 C   0  0  0  0  0  2  0  0  0  0  0  0
  190.5220  176.9210  139.0680 C   0  0  0  0  0  0  0  0  0  0  0  0
  189.0960  176.6560  143.2090 C   0  0  1  0  0  3  0  0  0  0  0  0
  189.5770  177.9240  140.7310 N   0  0  0  0  0  0  0  0  0  0  0  0
  190.1700  176.1170  142.2580 C   0  0  0  0  0  2  0  0  0  0  0  0
  191.2940  176.5940  140.1780 O   0  0  0  0  0  0  0  0  0  0  0  0
  189.6980  177.6140  144.2310 C   0  0  0  0  0  2  0  0  0  0  0  0
  189.3520  177.2460  146.6980 C   0  0  0  0  0  0  0  0  0  0  0  0
  188.8640  177.6570  145.4220 N   0  0  0  0  0  2  0  0  0  0  0  0
  188.4450  177.2740  147.8750 C   0  0  0  0  0  1  0  0  0  0  0  0
  190.5460  176.8660  146.8400 O   0  0  0  0  0  0  0  0  0  0  0  0
  1 23  1  1  0  0  0
  3 12  1  0  0  0  0
  3  2  1  0  0  0  0
  4 15  1  6  0  0  0
  5  4  1  0  0  0  0
  5 11  2  0  0  0  0
  6 10  1  0  0  0  0
  7  2  1  0  0  0  0
  7  8  1  0  0  0  0
  8  1  1  0  0  0  0
  9 17  1  0  0  0  0
 10 11  1  0  0  0  0
 12 13  1  0  0  0  0
 13  8  2  0  0  0  0
 13  9  1  0  0  0  0
 14  9  2  0  0  0  0
 14 18  1  0  0  0  0
 16  6  1  0  0  0  0
 17  1  1  0  0  0  0
 17  4  1  0  0  0  0
 18  6  2  0  0  0  0
 18  5  1  0  0  0  0
 19 24  1  0  0  0  0
 20 26  1  1  0  0  0
 21 25  1  0  0  0  0
 22 19  1  0  0  0  0
 23 21  2  0  0  0  0
 23 27  1  0  0  0  0
 24 28  1  1  0  0  0
 25 20  1  0  0  0  0
 25 22  1  0  0  0  0
 26 24  1  0  0  0  0
 27 20  1  0  0  0  0
 28 30  1  0  0  0  0
 29 32  2  0  0  0  0
 29 31  1  0  0  0  0
 30 29  1  0  0  0  0
M  END
>  <MODEL>
4

>  <REMARK>
 VINA RESULT:      -7.3      1.797      2.453
  Name = 
  3 active torsions:
  status: ('A' for Active; 'I' for Inactive)
    1  A    between atoms: C_3  and  C_14
    2  A    between atoms: N_10  and  C_24
    3  A    between atoms: C_19  and  C_24
                            x       y       z     vdW  Elec       q    Type
                         _______ _______ _______ _____ _____    ______ ____

>  <TORSDO>
F 3

$$$$
=
 OpenBabel10272413353D

 32 37  0  0  1  0  0  0  0  0999 V2000
  187.3280  178.7800  140.2580 C   0  0  2  0  0  3  0  0  0  0  0  0
  183.6720  178.6680  141.7030 C   0  0  0  0  0  2  0  0  0  0  0  0
  182.9950  178.5350  140.3300 C   0  0  0  0  0  2  0  0  0  0  0  0
  188.7750  177.8560  138.2640 C   0  0  1  0  0  3  0  0  0  0  0  0
  188.5270  176.9930  137.0520 C   0  0  0  0  0  0  0  0  0  0  0  0
  187.5010  175.7900  135.4830 C   0  0  0  0  0  0  0  0  0  0  0  0
  185.0440  179.3450  141.5670 C   0  0  0  0  0  2  0  0  0  0  0  0
  185.8330  178.7120  140.4590 C   0  0  0  0  0  0  0  0  0  0  0  0
  186.2400  177.6270  138.5340 C   0  0  0  0  0  0  0  0  0  0  0  0
  188.8590  175.7720  135.2080 O   0  0  0  0  0  0  0  0  0  0  0  0
  189.5320  176.5100  136.1590 N   0  0  0  0  0  0  0  0  0  0  0  0
  183.8570  177.8690  139.4010 O   0  0  0  0  0  0  0  0  0  0  0  0
  185.2370  178.0710  139.4630 C   0  0  0  0  0  0  0  0  0  0  0  0
  186.0850  176.9070  137.4230 C   0  0  0  0  0  3  0  0  0  0  0  0
  189.3350  179.1980  137.8280 C   0  0  0  0  0  1  0  0  0  0  0  0
  186.5680  175.1830  134.7650 C   0  0  0  0  0  1  0  0  0  0  0  0
  187.5160  178.0560  138.9990 N   0  0  0  0  0  0  0  0  0  0  0  0
  187.3150  176.5860  136.6820 C   0  0  0  0  0  0  0  0  0  0  0  0
  191.5870  176.6900  143.2410 C   0  0  0  0  0  2  0  0  0  0  0  0
  188.7490  177.5410  143.4580 C   0  0  1  0  0  3  0  0  0  0  0  0
  188.8350  177.0830  141.1710 N   0  0  0  0  0  0  0  0  0  0  0  0
  190.4760  175.8460  142.6160 C   0  0  0  0  0  2  0  0  0  0  0  0
  188.0280  178.0680  141.3680 C   0  0  0  0  0  0  0  0  0  0  0  0
  191.0800  177.4690  144.4630 C   0  0  1  0  0  3  0  0  0  0  0  0
  189.2940  176.6730  142.4240 N   0  0  0  0  0  0  0  0  0  0  0  0
  189.8830  178.3520  144.0940 C   0  0  0  0  0  2  0  0  0  0  0  0
  187.9070  178.4090  142.7120 O   0  0  0  0  0  0  0  0  0  0  0  0
  190.7430  176.5430  145.6250 C   0  0  0  0  0  2  0  0  0  0  0  0
  189.1980  177.4780  147.3810 C   0  0  0  0  0  0  0  0  0  0  0  0
  190.5050  177.3230  146.8290 N   0  0  0  0  0  2  0  0  0  0  0  0
  189.0070  178.3180  148.5920 C   0  0  0  0  0  1  0  0  0  0  0  0
  188.2060  176.9030  146.8570 O   0  0  0  0  0  0  0  0  0  0  0  0
  1  8  1  0  0  0  0
  1 23  1  1  0  0  0
  3  2  1  0  0  0  0
  4 15  1  6  0  0  0
  4 17  1  0  0  0  0
  5  4  1  0  0  0  0
  6 18  2  0  0  0  0
  7  2  1  0  0  0  0
  8  7  1  0  0  0  0
  9 17  1  0  0  0  0
  9 13  1  0  0  0  0
 10  6  1  0  0  0  0
 10 11  1  0  0  0  0
 11  5  2  0  0  0  0
 12 13  1  0  0  0  0
 12  3  1  0  0  0  0
 13  8  2  0  0  0  0
 14  9  2  0  0  0  0
 16  6  1  0  0  0  0
 17  1  1  0  0  0  0
 18  5  1  0  0  0  0
 18 14  1  0  0  0  0
 19 24  1  0  0  0  0
 20 26  1  6  0  0  0
 21 23  2  0  0  0  0
 21 25  1  0  0  0  0
 22 19  1  0  0  0  0
 23 27  1  0  0  0  0
 24 28  1  1  0  0  0
 25 22  1  0  0  0  0
 25 20  1  0  0  0  0
 26 24  1  0  0  0  0
 27 20  1  0  0  0  0
 28 30  1  0  0  0  0
 29 31  1  0  0  0  0
 30 29  1  0  0  0  0
 32 29  2  0  0  0  0
M  END
>  <MODEL>
5

>  <REMARK>
 VINA RESULT:      -7.0      2.986      4.024
  Name = 
  3 active torsions:
  status: ('A' for Active; 'I' for Inactive)
    1  A    between atoms: C_3  and  C_14
    2  A    between atoms: N_10  and  C_24
    3  A    between atoms: C_19  and  C_24
                            x       y       z     vdW  Elec       q    Type
                         _______ _______ _______ _____ _____    ______ ____

>  <TORSDO>
F 3

$$$$
=
 OpenBabel10272413353D

 32 37  0  0  1  0  0  0  0  0999 V2000
  184.3940  178.2750  138.1640 C   0  0  2  0  0  3  0  0  0  0  0  0
  188.2610  177.6010  137.9110 C   0  0  0  0  0  2  0  0  0  0  0  0
  188.6160  178.4200  139.1630 C   0  0  0  0  0  2  0  0  0  0  0  0
  182.4950  178.6850  139.9380 C   0  0  1  0  0  3  0  0  0  0  0  0
  182.4190  178.8010  141.4400 C   0  0  0  0  0  0  0  0  0  0  0  0
  183.0040  178.9450  143.5850 C   0  0  0  0  0  0  0  0  0  0  0  0
  186.9380  178.0910  137.3020 C   0  0  0  0  0  2  0  0  0  0  0  0
  185.8900  178.2270  138.3660 C   0  0  0  0  0  0  0  0  0  0  0  0
  185.0080  178.5610  140.4060 C   0  0  0  0  0  0  0  0  0  0  0  0
  181.6200  178.9850  143.5210 O   0  0  0  0  0  0  0  0  0  0  0  0
  181.2160  178.9000  142.2050 N   0  0  0  0  0  0  0  0  0  0  0  0
  187.5330  178.4130  140.0980 O   0  0  0  0  0  0  0  0  0  0  0  0
  186.2140  178.4090  139.6390 C   0  0  0  0  0  0  0  0  0  0  0  0
  184.8730  178.7160  141.7230 C   0  0  0  0  0  3  0  0  0  0  0  0
  181.9420  179.9480  139.3020 C   0  0  0  0  0  1  0  0  0  0  0  0
  183.7190  179.0080  144.6980 C   0  0  0  0  0  1  0  0  0  0  0  0
  183.8930  178.4890  139.5230 N   0  0  0  0  0  0  0  0  0  0  0  0
  183.4950  178.8250  142.2250 C   0  0  0  0  0  0  0  0  0  0  0  0
  184.2220  173.6880  134.9500 C   0  0  0  0  0  2  0  0  0  0  0  0
  183.3120  174.7740  137.5610 C   0  0  1  0  0  3  0  0  0  0  0  0
  183.6080  176.7760  136.3980 N   0  0  0  0  0  0  0  0  0  0  0  0
  183.1170  174.7430  135.0070 C   0  0  0  0  0  2  0  0  0  0  0  0
  183.9050  176.9660  137.6370 C   0  0  0  0  0  0  0  0  0  0  0  0
  184.2420  172.8270  136.2220 C   0  0  1  0  0  3  0  0  0  0  0  0
  183.1920  175.4490  136.2770 N   0  0  0  0  0  0  0  0  0  0  0  0
  184.3990  173.6990  137.4730 C   0  0  0  0  0  2  0  0  0  0  0  0
  183.7510  175.8220  138.4140 O   0  0  0  0  0  0  0  0  0  0  0  0
  183.0080  171.9380  136.3230 C   0  0  0  0  0  2  0  0  0  0  0  0
  183.7360  169.6540  135.5510 C   0  0  0  0  0  0  0  0  0  0  0  0
  183.4050  170.5660  136.5970 N   0  0  0  0  0  2  0  0  0  0  0  0
  184.0990  168.2530  135.8850 C   0  0  0  0  0  1  0  0  0  0  0  0
  183.7330  170.0280  134.3460 O   0  0  0  0  0  0  0  0  0  0  0  0
  1 23  1  1  0  0  0
  1  8  1  0  0  0  0
  1 17  1  0  0  0  0
  2  3  1  0  0  0  0
  3 12  1  0  0  0  0
  4 15  1  6  0  0  0
  4  5  1  0  0  0  0
  5 11  2  0  0  0  0
  5 18  1  0  0  0  0
  6 16  1  0  0  0  0
  7  2  1  0  0  0  0
  7  8  1  0  0  0  0
  8 13  2  0  0  0  0
  9 14  2  0  0  0  0
 10  6  1  0  0  0  0
 11 10  1  0  0  0  0
 13 12  1  0  0  0  0
 13  9  1  0  0  0  0
 14 18  1  0  0  0  0
 17  4  1  0  0  0  0
 17  9  1  0  0  0  0
 18  6  2  0  0  0  0
 19 22  1  0  0  0  0
 19 24  1  0  0  0  0
 20 26  1  6  0  0  0
 20 27  1  0  0  0  0
 21 23  2  0  0  0  0
 22 25  1  0  0  0  0
 23 27  1  0  0  0  0
 24 28  1  1  0  0  0
 24 26  1  0  0  0  0
 25 21  1  0  0  0  0
 25 20  1  0  0  0  0
 28 30  1  0  0  0  0
 29 31  1  0  0  0  0
 29 30  1  0  0  0  0
 32 29  2  0  0  0  0
M  END
>  <MODEL>
6

>  <REMARK>
 VINA RESULT:      -6.9      5.662     10.528
  Name = 
  3 active torsions:
  status: ('A' for Active; 'I' for Inactive)
    1  A    between atoms: C_3  and  C_14
    2  A    between atoms: N_10  and  C_24
    3  A    between atoms: C_19  and  C_24
                            x       y       z     vdW  Elec       q    Type
                         _______ _______ _______ _____ _____    ______ ____

>  <TORSDO>
F 3

$$$$
=
 OpenBabel10272413353D

 32 37  0  0  1  0  0  0  0  0999 V2000
  187.2400  178.7890  139.8070 C   0  0  2  0  0  3  0  0  0  0  0  0
  183.9730  178.4920  141.9770 C   0  0  0  0  0  2  0  0  0  0  0  0
  183.0270  178.3810  140.7710 C   0  0  0  0  0  2  0  0  0  0  0  0
  188.2640  177.9870  137.5200 C   0  0  1  0  0  3  0  0  0  0  0  0
  187.7920  177.1580  136.3510 C   0  0  0  0  0  0  0  0  0  0  0  0
  186.4950  175.9720  134.9820 C   0  0  0  0  0  0  0  0  0  0  0  0
  185.2660  179.2240  141.5850 C   0  0  0  0  0  2  0  0  0  0  0  0
  185.8230  178.6580  140.3120 C   0  0  0  0  0  0  0  0  0  0  0  0
  185.8490  177.6550  138.3020 C   0  0  0  0  0  0  0  0  0  0  0  0
  187.7650  176.0140  134.4300 O   0  0  0  0  0  0  0  0  0  0  0  0
  188.6010  176.7440  135.2490 N   0  0  0  0  0  0  0  0  0  0  0  0
  183.6950  177.7800  139.6560 O   0  0  0  0  0  0  0  0  0  0  0  0
  185.0510  178.0300  139.4370 C   0  0  0  0  0  0  0  0  0  0  0  0
  185.4860  176.9700  137.2190 C   0  0  0  0  0  3  0  0  0  0  0  0
  188.6800  179.3630  137.0320 C   0  0  0  0  0  1  0  0  0  0  0  0
  185.4500  175.3560  134.4500 C   0  0  0  0  0  1  0  0  0  0  0  0
  187.1820  178.1160  138.5080 N   0  0  0  0  0  0  0  0  0  0  0  0
  186.5420  176.7200  136.2250 C   0  0  0  0  0  0  0  0  0  0  0  0
  191.7090  177.9400  143.0800 C   0  0  0  0  0  2  0  0  0  0  0  0
  188.9680  176.9400  142.5260 C   0  0  1  0  0  3  0  0  0  0  0  0
  189.4340  177.9300  140.4660 N   0  0  0  0  0  0  0  0  0  0  0  0
  191.4150  177.1550  141.8010 C   0  0  0  0  0  2  0  0  0  0  0  0
  188.1780  178.0650  140.7170 C   0  0  0  0  0  0  0  0  0  0  0  0
  190.7650  177.5310  144.2200 C   0  0  1  0  0  3  0  0  0  0  0  0
  189.9880  177.2070  141.5230 N   0  0  0  0  0  0  0  0  0  0  0  0
  189.2990  177.7080  143.8100 C   0  0  0  0  0  2  0  0  0  0  0  0
  187.8030  177.4960  141.9300 O   0  0  0  0  0  0  0  0  0  0  0  0
  191.0340  176.1080  144.6950 C   0  0  0  0  0  2  0  0  0  0  0  0
  191.5690  176.1170  147.1560 C   0  0  0  0  0  0  0  0  0  0  0  0
  191.9890  176.1230  145.7920 N   0  0  0  0  0  2  0  0  0  0  0  0
  192.5860  176.1720  148.2380 C   0  0  0  0  0  1  0  0  0  0  0  0
  190.3450  176.0580  147.4530 O   0  0  0  0  0  0  0  0  0  0  0  0
  1  8  1  0  0  0  0
  1 23  1  1  0  0  0
  3  2  1  0  0  0  0
  4 15  1  6  0  0  0
  4 17  1  0  0  0  0
  5  4  1  0  0  0  0
  6 18  2  0  0  0  0
  7  2  1  0  0  0  0
  8  7  1  0  0  0  0
  9 17  1  0  0  0  0
  9 13  1  0  0  0  0
 10  6  1  0  0  0  0
 10 11  1  0  0  0  0
 11  5  2  0  0  0  0
 12  3  1  0  0  0  0
 13 12  1  0  0  0  0
 13  8  2  0  0  0  0
 14  9  2  0  0  0  0
 16  6  1  0  0  0  0
 17  1  1  0  0  0  0
 18  5  1  0  0  0  0
 18 14  1  0  0  0  0
 19 24  1  0  0  0  0
 20 26  1  1  0  0  0
 21 23  2  0  0  0  0
 21 25  1  0  0  0  0
 22 19  1  0  0  0  0
 23 27  1  0  0  0  0
 24 28  1  6  0  0  0
 25 22  1  0  0  0  0
 25 20  1  0  0  0  0
 26 24  1  0  0  0  0
 27 20  1  0  0  0  0
 28 30  1  0  0  0  0
 29 32  2  0  0  0  0
 29 31  1  0  0  0  0
 30 29  1  0  0  0  0
M  END
>  <MODEL>
7

>  <REMARK>
 VINA RESULT:      -6.8      3.442      4.407
  Name = 
  3 active torsions:
  status: ('A' for Active; 'I' for Inactive)
    1  A    between atoms: C_3  and  C_14
    2  A    between atoms: N_10  and  C_24
    3  A    between atoms: C_19  and  C_24
                            x       y       z     vdW  Elec       q    Type
                         _______ _______ _______ _____ _____    ______ ____

>  <TORSDO>
F 3

$$$$
=
 OpenBabel10272413353D

 32 37  0  0  1  0  0  0  0  0999 V2000
  190.4760  176.5360  136.6870 C   0  0  2  0  0  3  0  0  0  0  0  0
  193.8180  174.6280  135.8750 C   0  0  0  0  0  2  0  0  0  0  0  0
  194.6230  175.2930  137.0030 C   0  0  0  0  0  2  0  0  0  0  0  0
  189.1360  177.5590  138.7080 C   0  0  1  0  0  3  0  0  0  0  0  0
  189.3550  177.7030  140.1940 C   0  0  0  0  0  0  0  0  0  0  0  0
  190.3060  177.6610  142.2080 C   0  0  0  0  0  0  0  0  0  0  0  0
  192.6410  175.5210  135.4520 C   0  0  0  0  0  2  0  0  0  0  0  0
  191.8870  176.0010  136.6560 C   0  0  0  0  0  0  0  0  0  0  0  0
  191.5150  176.6190  138.7850 C   0  0  0  0  0  0  0  0  0  0  0  0
  189.0190  178.1530  142.3580 O   0  0  0  0  0  0  0  0  0  0  0  0
  188.3950  178.1960  141.1290 N   0  0  0  0  0  0  0  0  0  0  0  0
  193.7680  175.6480  138.0960 O   0  0  0  0  0  0  0  0  0  0  0  0
  192.4620  176.0750  137.8490 C   0  0  0  0  0  0  0  0  0  0  0  0
  191.6610  176.8180  140.0940 C   0  0  0  0  0  3  0  0  0  0  0  0
  188.9220  178.9290  138.0900 C   0  0  0  0  0  1  0  0  0  0  0  0
  191.1790  177.4930  143.1900 C   0  0  0  0  0  1  0  0  0  0  0  0
  190.3050  176.9120  138.0920 N   0  0  0  0  0  0  0  0  0  0  0  0
  190.4960  177.3770  140.7980 C   0  0  0  0  0  0  0  0  0  0  0  0
  186.3610  172.7880  137.3440 C   0  0  0  0  0  2  0  0  0  0  0  0
  187.8140  174.3600  135.2840 C   0  0  1  0  0  3  0  0  0  0  0  0
  189.4380  174.3380  136.9590 N   0  0  0  0  0  0  0  0  0  0  0  0
  187.8010  172.4330  136.9710 C   0  0  0  0  0  2  0  0  0  0  0  0
  189.5090  175.4570  136.3250 C   0  0  0  0  0  0  0  0  0  0  0  0
  185.6190  173.4350  136.1650 C   0  0  1  0  0  3  0  0  0  0  0  0
  188.4340  173.5840  136.3480 N   0  0  0  0  0  0  0  0  0  0  0  0
  186.3630  174.6770  135.6620 C   0  0  0  0  0  2  0  0  0  0  0  0
  188.5780  175.5580  135.2960 O   0  0  0  0  0  0  0  0  0  0  0  0
  185.3790  172.4420  135.0340 C   0  0  0  0  0  2  0  0  0  0  0  0
  184.7540  170.0370  135.4430 C   0  0  0  0  0  0  0  0  0  0  0  0
  184.4290  171.4260  135.4580 N   0  0  0  0  0  2  0  0  0  0  0  0
  183.7310  169.0390  135.8500 C   0  0  0  0  0  1  0  0  0  0  0  0
  185.9020  169.6480  135.0950 O   0  0  0  0  0  0  0  0  0  0  0  0
  1 23  1  1  0  0  0
  1 17  1  0  0  0  0
  2  3  1  0  0  0  0
  3 12  1  0  0  0  0
  4 15  1  6  0  0  0
  4  5  1  0  0  0  0
  5 18  1  0  0  0  0
  5 11  2  0  0  0  0
  6 10  1  0  0  0  0
  6 16  1  0  0  0  0
  7  2  1  0  0  0  0
  7  8  1  0  0  0  0
  8  1  1  0  0  0  0
  8 13  2  0  0  0  0
  9 14  2  0  0  0  0
 11 10  1  0  0  0  0
 13 12  1  0  0  0  0
 13  9  1  0  0  0  0
 14 18  1  0  0  0  0
 17  4  1  0  0  0  0
 17  9  1  0  0  0  0
 18  6  2  0  0  0  0
 20 27  1  0  0  0  0
 20 26  1  1  0  0  0
 20 25  1  0  0  0  0
 22 19  1  0  0  0  0
 23 21  2  0  0  0  0
 24 28  1  6  0  0  0
 24 19  1  0  0  0  0
 25 21  1  0  0  0  0
 25 22  1  0  0  0  0
 26 24  1  0  0  0  0
 27 23  1  0  0  0  0
 28 30  1  0  0  0  0
 29 30  1  0  0  0  0
 29 31  1  0  0  0  0
 32 29  2  0  0  0  0
M  END
>  <MODEL>
8

>  <REMARK>
 VINA RESULT:      -6.8      3.540      8.363
  Name = 
  3 active torsions:
  status: ('A' for Active; 'I' for Inactive)
    1  A    between atoms: C_3  and  C_14
    2  A    between atoms: N_10  and  C_24
    3  A    between atoms: C_19  and  C_24
                            x       y       z     vdW  Elec       q    Type
                         _______ _______ _______ _____ _____    ______ ____

>  <TORSDO>
F 3

$$$$
=
 OpenBabel10272413353D

 32 37  0  0  1  0  0  0  0  0999 V2000
  188.8890  178.4130  142.1980 C   0  0  2  0  0  3  0  0  0  0  0  0
  188.5390  176.9500  138.5640 C   0  0  0  0  0  2  0  0  0  0  0  0
  189.9330  176.3020  138.5500 C   0  0  0  0  0  2  0  0  0  0  0  0
  190.0200  177.8960  144.5170 C   0  0  1  0  0  3  0  0  0  0  0  0
  190.9220  176.8210  145.0690 C   0  0  0  0  0  0  0  0  0  0  0  0
  192.2560  175.0420  145.2100 C   0  0  0  0  0  0  0  0  0  0  0  0
  188.4990  178.1280  139.5490 C   0  0  0  0  0  2  0  0  0  0  0  0
  189.0940  177.7290  140.8670 C   0  0  0  0  0  0  0  0  0  0  0  0
  190.3960  176.6250  142.3280 C   0  0  0  0  0  0  0  0  0  0  0  0
  192.1290  175.5770  146.4820 O   0  0  0  0  0  0  0  0  0  0  0  0
  191.3100  176.6850  146.4370 N   0  0  0  0  0  0  0  0  0  0  0  0
  190.3340  175.9370  139.8750 O   0  0  0  0  0  0  0  0  0  0  0  0
  189.9640  176.7330  140.9610 C   0  0  0  0  0  0  0  0  0  0  0  0
  191.2260  175.7340  142.8700 C   0  0  0  0  0  3  0  0  0  0  0  0
  190.6820  179.2520  144.6850 C   0  0  0  0  0  1  0  0  0  0  0  0
  192.9760  173.9740  144.8980 C   0  0  0  0  0  1  0  0  0  0  0  0
  189.7580  177.6440  143.0910 N   0  0  0  0  0  0  0  0  0  0  0  0
  191.4640  175.8660  144.3160 C   0  0  0  0  0  0  0  0  0  0  0  0
  184.3120  179.1260  145.3510 C   0  0  0  0  0  2  0  0  0  0  0  0
  185.1980  178.4200  142.6050 C   0  0  1  0  0  3  0  0  0  0  0  0
  187.1220  177.8340  143.7870 N   0  0  0  0  0  0  0  0  0  0  0  0
  184.9650  177.7720  145.0720 C   0  0  0  0  0  2  0  0  0  0  0  0
  187.4650  178.2810  142.6290 C   0  0  0  0  0  0  0  0  0  0  0  0
  183.5740  179.6600  144.1140 C   0  0  1  0  0  3  0  0  0  0  0  0
  185.7270  177.8520  143.8360 N   0  0  0  0  0  0  0  0  0  0  0  0
  184.5190  179.7590  142.9110 C   0  0  0  0  0  2  0  0  0  0  0  0
  186.3770  178.6510  141.8450 O   0  0  0  0  0  0  0  0  0  0  0  0
  182.3470  178.8190  143.7810 C   0  0  0  0  0  2  0  0  0  0  0  0
  181.0280  179.2540  141.6800 C   0  0  0  0  0  0  0  0  0  0  0  0
  181.3980  179.6080  143.0120 N   0  0  0  0  0  2  0  0  0  0  0  0
  180.0830  180.1180  140.9260 C   0  0  0  0  0  1  0  0  0  0  0  0
  181.4890  178.2120  141.1390 O   0  0  0  0  0  0  0  0  0  0  0  0
  1 23  1  1  0  0  0
  1 17  1  0  0  0  0
  2  7  1  0  0  0  0
  3  2  1  0  0  0  0
  3 12  1  0  0  0  0
  4 15  1  6  0  0  0
  4  5  1  0  0  0  0
  5 11  2  0  0  0  0
  6 10  1  0  0  0  0
  7  8  1  0  0  0  0
  8 13  2  0  0  0  0
  8  1  1  0  0  0  0
  9 14  2  0  0  0  0
  9 17  1  0  0  0  0
 11 10  1  0  0  0  0
 12 13  1  0  0  0  0
 13  9  1  0  0  0  0
 14 18  1  0  0  0  0
 16  6  1  0  0  0  0
 17  4  1  0  0  0  0
 18  5  1  0  0  0  0
 18  6  2  0  0  0  0
 20 26  1  1  0  0  0
 20 25  1  0  0  0  0
 21 25  1  0  0  0  0
 22 19  1  0  0  0  0
 23 21  2  0  0  0  0
 24 28  1  6  0  0  0
 24 19  1  0  0  0  0
 25 22  1  0  0  0  0
 26 24  1  0  0  0  0
 27 20  1  0  0  0  0
 27 23  1  0  0  0  0
 29 30  1  0  0  0  0
 30 28  1  0  0  0  0
 31 29  1  0  0  0  0
 32 29  2  0  0  0  0
M  END
>  <MODEL>
9

>  <REMARK>
 VINA RESULT:      -6.7      4.008      7.170
  Name = 
  3 active torsions:
  status: ('A' for Active; 'I' for Inactive)
    1  A    between atoms: C_3  and  C_14
    2  A    between atoms: N_10  and  C_24
    3  A    between atoms: C_19  and  C_24
                            x       y       z     vdW  Elec       q    Type
                         _______ _______ _______ _____ _____    ______ ____

>  <TORSDO>
F 3

$$$$
