=
 OpenBabel10272401293D

 55 59  0  0  1  0  0  0  0  0999 V2000
  191.9870  175.4410  136.6110 C   0  0  0  0  0  3  0  0  0  0  0  0
  191.1540  176.3690  139.1150 C   0  0  0  0  0  0  0  0  0  0  0  0
  190.2600  175.6770  138.2930 C   0  0  0  0  0  3  0  0  0  0  0  0
  192.8800  176.1380  137.4300 C   0  0  0  0  0  3  0  0  0  0  0  0
  190.6740  175.2170  137.0400 C   0  0  0  0  0  0  0  0  0  0  0  0
  192.4640  176.6030  138.6810 C   0  0  0  0  0  3  0  0  0  0  0  0
  190.7060  176.8500  140.4510 C   0  0  0  0  0  2  0  0  0  0  0  0
  191.5480  178.0300  140.9020 C   0  0  0  0  0  2  0  0  0  0  0  0
  192.2590  177.6790  142.1960 C   0  0  0  0  0  2  0  0  0  0  0  0
  191.6970  178.5170  143.3320 C   0  0  0  0  0  2  0  0  0  0  0  0
  190.2280  178.4470  145.2430 O   0  0  0  0  0  0  0  0  0  0  0  0
  190.7640  177.6830  144.1900 C   0  0  1  0  0  0  0  0  0  0  0  0
  189.3340  178.0940  144.2090 C   0  0  1  0  0  3  0  0  0  0  0  0
  186.9470  177.0090  142.8100 C   0  0  2  0  0  3  0  0  0  0  0  0
  187.8940  178.2200  146.8500 C   0  0  0  0  0  1  0  0  0  0  0  0
  188.3690  177.0010  144.7000 C   0  0  1  0  0  3  0  0  0  0  0  0
  183.8890  179.1590  143.6130 C   0  0  0  0  0  3  0  0  0  0  0  0
  186.5830  176.3960  146.1380 F   0  0  0  0  0  0  0  0  0  0  0  0
  187.2760  177.4980  145.6620 C   0  0  1  0  0  0  0  0  0  0  0  0
  187.6660  177.7610  141.8800 O   0  0  0  0  0  1  0  0  0  0  0  0
  184.0060  179.4200  144.9180 C   0  0  0  0  0  3  0  0  0  0  0  0
  185.0550  178.7340  145.7460 C   0  0  0  0  0  2  0  0  0  0  0  0
  185.9620  177.8670  143.5570 C   0  0  0  0  0  0  0  0  0  0  0  0
  186.3170  178.4320  144.9150 C   0  0  2  0  0  3  0  0  0  0  0  0
  184.8450  178.2650  142.9380 C   0  0  0  0  0  3  0  0  0  0  0  0
  187.8170  176.2420  143.6340 O   0  0  0  0  0  0  0  0  0  0  0  0
  191.6510  176.1820  145.8380 O   0  0  0  0  0  1  0  0  0  0  0  0
  191.2120  176.3310  144.6660 C   0  0  0  0  0  0  0  0  0  0  0  0
  191.1900  175.2470  143.7970 O   0  0  0  0  0  0  0  0  0  0  0  0
  189.7330  174.4410  136.1900 C   0  0  0  0  0  2  0  0  0  0  0  0
  188.3720  174.8940  136.4320 N   0  0  0  0  0  2  0  0  0  0  0  0
  187.5800  174.4600  135.3000 C   0  0  0  0  0  2  0  0  0  0  0  0
  186.3090  175.2890  135.2260 C   0  0  0  0  0  2  0  0  0  0  0  0
  185.6810  175.5490  136.6100 C   0  0  2  0  0  3  0  0  0  0  0  0
  183.6460  174.3850  135.9970 C   0  0  0  0  0  2  0  0  0  0  0  0
  184.3320  172.2090  136.7790 C   0  0  1  0  0  3  0  0  0  0  0  0
  184.6680  174.5680  137.0270 N   0  0  0  0  0  0  0  0  0  0  0  0
  185.2990  173.2690  137.2430 C   0  0  0  0  0  2  0  0  0  0  0  0
  183.3380  172.9090  135.8830 C   0  0  0  0  0  2  0  0  0  0  0  0
  185.0270  171.0410  136.0750 C   0  0  0  0  0  2  0  0  0  0  0  0
  183.5610  169.0350  135.8270 C   0  0  0  0  0  1  0  0  0  0  0  0
  184.1130  170.2650  135.1330 C   0  0  0  0  0  2  0  0  0  0  0  0
  185.1820  176.8550  136.7090 O   0  0  0  0  0  0  0  0  0  0  0  0
  186.0770  177.5350  137.5450 C   0  0  1  0  0  3  0  0  0  0  0  0
  186.8500  178.5970  136.7650 C   0  0  0  0  0  2  0  0  0  0  0  0
  189.2180  179.1530  137.3250 C   0  0  0  0  0  1  0  0  0  0  0  0
  188.3090  178.2220  136.5430 C   0  0  0  0  0  2  0  0  0  0  0  0
  185.4090  178.1250  138.7930 C   0  0  0  0  0  2  0  0  0  0  0  0
  183.9480  178.4310  138.6400 C   0  0  0  0  0  3  0  0  0  0  0  0
  183.1110  178.3170  139.6690 C   0  0  0  0  0  3  0  0  0  0  0  0
  180.9180  178.2110  138.0960 O   0  0  0  0  0  0  0  0  0  0  0  0
  181.1290  180.3470  139.5930 O   0  0  0  0  0  1  0  0  0  0  0  0
  181.3720  178.6780  139.4620 P   0  0  2  0  0  0  0  0  0  0  0  0
  180.3420  176.5590  140.3140 O   0  0  0  0  0  1  0  0  0  0  0  0
  180.4420  177.8550  140.6970 N   0  0  0  0  0  2  0  0  0  0  0  0
  1  5  2  0  0  0  0
  1  4  1  0  0  0  0
  2  7  1  0  0  0  0
  3  2  2  0  0  0  0
  4  6  2  0  0  0  0
  5  3  1  0  0  0  0
  6  2  1  0  0  0  0
  7  8  1  0  0  0  0
  8  9  1  0  0  0  0
  9 10  1  0  0  0  0
 12 10  1  6  0  0  0
 12 13  1  0  0  0  0
 12 28  1  0  0  0  0
 12 11  1  0  0  0  0
 13 16  1  0  0  0  0
 13 11  1  1  0  0  0
 14 20  1  1  0  0  0
 14 23  1  0  0  0  0
 14 26  1  0  0  0  0
 16 26  1  6  0  0  0
 16 19  1  0  0  0  0
 17 21  2  0  0  0  0
 19 18  1  0  0  0  0
 19 15  1  1  0  0  0
 21 22  1  0  0  0  0
 23 24  1  0  0  0  0
 24 19  1  0  0  0  0
 24 22  1  1  0  0  0
 25 23  2  0  0  0  0
 25 17  1  0  0  0  0
 28 27  1  0  0  0  0
 29 28  2  0  0  0  0
 30 31  1  0  0  0  0
 30  5  1  0  0  0  0
 32 31  1  0  0  0  0
 33 32  1  0  0  0  0
 34 33  1  6  0  0  0
 34 43  1  0  0  0  0
 34 37  1  0  0  0  0
 35 37  1  0  0  0  0
 36 40  1  6  0  0  0
 36 38  1  0  0  0  0
 37 38  1  0  0  0  0
 39 35  1  0  0  0  0
 39 36  1  0  0  0  0
 42 41  1  0  0  0  0
 42 40  1  0  0  0  0
 43 44  1  0  0  0  0
 44 45  1  6  0  0  0
 44 48  1  0  0  0  0
 47 45  1  0  0  0  0
 47 46  1  0  0  0  0
 49 48  1  0  0  0  0
 49 50  2  0  0  0  0
 53 51  2  6  0  0  0
 53 52  1  0  0  0  0
 53 50  1  0  0  0  0
 53 55  1  0  0  0  0
 54 55  1  0  0  0  0
M  END
>  <MODEL>
1

>  <REMARK>
 VINA RESULT:      -6.3      0.000      0.000
  Name = 
  23 active torsions:
  status: ('A' for Active; 'I' for Inactive)
    1  A    between atoms: C_2  and  N_28
    2  A    between atoms: C_2  and  C_44
    3  A    between atoms: C_6  and  C_46
    4  A    between atoms: C_10  and  C_32
    5  A    between atoms: C_10  and  C_47
    6  A    between atoms: C_15  and  C_23
    7  A    between atoms: C_16  and  C_17
    8  A    between atoms: C_16  and  C_26
    9  A    between atoms: C_17  and  C_23
   10  A    between atoms: C_17  and  O_36
   11  A    between atoms: N_19  and  P_40
   12  A    between atoms: C_20  and  C_22
   13  A    between atoms: C_22  and  C_35
   14  A    between atoms: C_27  and  C_54
   15  A    between atoms: N_28  and  C_49
   16  A    between atoms: C_33  and  C_49
   17  A    between atoms: C_33  and  C_52
   18  A    between atoms: N_34  and  C_52
   19  A    between atoms: C_35  and  C_43
   20  A    between atoms: O_36  and  C_52
   21  A    between atoms: P_40  and  C_45
   22  A    between atoms: C_43  and  C_51
   23  A    between atoms: C_51  and  C_54
                            x       y       z     vdW  Elec       q    Type
                         _______ _______ _______ _____ _____    ______ ____

>  <TORSDO>
F 23

$$$$
=
 OpenBabel10272401293D

 55 59  0  0  1  0  0  0  0  0999 V2000
  192.6820  176.8550  138.4530 C   0  0  0  0  0  3  0  0  0  0  0  0
  191.3180  174.7600  137.1980 C   0  0  0  0  0  0  0  0  0  0  0  0
  190.6990  175.4830  138.2220 C   0  0  0  0  0  3  0  0  0  0  0  0
  193.3030  176.1300  137.4330 C   0  0  0  0  0  3  0  0  0  0  0  0
  191.3810  176.5270  138.8530 C   0  0  0  0  0  0  0  0  0  0  0  0
  192.6220  175.0820  136.8060 C   0  0  0  0  0  3  0  0  0  0  0  0
  190.5810  173.6540  136.5280 C   0  0  0  0  0  2  0  0  0  0  0  0
  190.1990  174.0490  135.1130 C   0  0  0  0  0  2  0  0  0  0  0  0
  189.4440  175.3650  135.1410 C   0  0  0  0  0  2  0  0  0  0  0  0
  188.1410  175.2240  134.3730 C   0  0  0  0  0  2  0  0  0  0  0  0
  185.8840  176.0640  134.4960 O   0  0  0  0  0  0  0  0  0  0  0  0
  186.9650  175.5850  135.2600 C   0  0  1  0  0  0  0  0  0  0  0  0
  185.7220  174.7860  135.0740 C   0  0  1  0  0  3  0  0  0  0  0  0
  185.1410  172.6940  137.1030 C   0  0  2  0  0  3  0  0  0  0  0  0
  182.8100  175.4790  134.7590 C   0  0  0  0  0  1  0  0  0  0  0  0
  184.7380  174.8650  136.2550 C   0  0  1  0  0  3  0  0  0  0  0  0
  182.3940  170.3680  135.8110 C   0  0  0  0  0  3  0  0  0  0  0  0
  182.4880  174.8230  137.0000 F   0  0  0  0  0  0  0  0  0  0  0  0
  183.2740  174.5690  135.8870 C   0  0  1  0  0  0  0  0  0  0  0  0
  186.2870  172.2960  136.4130 O   0  0  0  0  0  1  0  0  0  0  0  0
  181.5170  171.1910  135.2310 C   0  0  0  0  0  3  0  0  0  0  0  0
  181.6540  172.6800  135.3680 C   0  0  0  0  0  2  0  0  0  0  0  0
  183.8950  172.1980  136.4200 C   0  0  0  0  0  0  0  0  0  0  0  0
  183.1310  173.1000  135.4750 C   0  0  2  0  0  3  0  0  0  0  0  0
  183.5690  170.9050  136.5210 C   0  0  0  0  0  3  0  0  0  0  0  0
  185.1610  174.0920  137.3680 O   0  0  0  0  0  0  0  0  0  0  0  0
  187.1300  177.6890  136.4010 O   0  0  0  0  0  0  0  0  0  0  0  0
  187.1940  176.4330  136.4790 C   0  0  0  0  0  0  0  0  0  0  0  0
  187.5250  175.8340  137.6870 O   0  0  0  0  0  1  0  0  0  0  0  0
  190.7010  177.3220  139.9090 C   0  0  0  0  0  2  0  0  0  0  0  0
  189.5250  177.9690  139.3500 N   0  0  0  0  0  2  0  0  0  0  0  0
  188.4290  177.7010  140.2570 C   0  0  0  0  0  2  0  0  0  0  0  0
  188.4980  178.6640  141.4300 C   0  0  0  0  0  2  0  0  0  0  0  0
  188.4310  177.9520  142.7960 C   0  0  2  0  0  3  0  0  0  0  0  0
  190.7340  178.3520  143.4370 C   0  0  0  0  0  2  0  0  0  0  0  0
  190.7460  176.8750  145.3420 C   0  0  1  0  0  3  0  0  0  0  0  0
  189.6930  177.3430  143.2420 N   0  0  0  0  0  0  0  0  0  0  0  0
  189.4930  176.6780  144.5260 C   0  0  0  0  0  2  0  0  0  0  0  0
  191.4840  178.0290  144.7090 C   0  0  0  0  0  2  0  0  0  0  0  0
  190.4550  177.1150  146.8250 C   0  0  0  0  0  2  0  0  0  0  0  0
  192.1140  175.3850  147.5260 C   0  0  0  0  0  1  0  0  0  0  0  0
  191.6390  176.8100  147.7370 C   0  0  0  0  0  2  0  0  0  0  0  0
  187.3850  177.0200  142.8380 O   0  0  0  0  0  0  0  0  0  0  0  0
  186.3000  177.7010  143.4060 C   0  0  1  0  0  3  0  0  0  0  0  0
  186.6740  178.2820  144.7680 C   0  0  0  0  0  2  0  0  0  0  0  0
  184.9950  178.3680  146.6130 C   0  0  0  0  0  1  0  0  0  0  0  0
  186.0490  177.5170  145.9280 C   0  0  0  0  0  2  0  0  0  0  0  0
  185.7060  178.7690  142.4800 C   0  0  0  0  0  2  0  0  0  0  0  0
  184.5330  178.3130  141.6630 C   0  0  0  0  0  3  0  0  0  0  0  0
  183.3520  178.9210  141.7580 C   0  0  0  0  0  3  0  0  0  0  0  0
  181.5970  179.4140  139.7650 O   0  0  0  0  0  0  0  0  0  0  0  0
  180.6450  178.0690  141.7980 O   0  0  0  0  0  1  0  0  0  0  0  0
  181.9660  178.3550  140.7800 P   0  0  2  0  0  0  0  0  0  0  0  0
  183.0910  177.2320  138.8430 O   0  0  0  0  0  1  0  0  0  0  0  0
  182.3920  176.8740  139.9470 N   0  0  0  0  0  2  0  0  0  0  0  0
  1  5  1  0  0  0  0
  2  3  1  0  0  0  0
  3  5  2  0  0  0  0
  4  1  2  0  0  0  0
  5 30  1  0  0  0  0
  6  2  2  0  0  0  0
  6  4  1  0  0  0  0
  7  2  1  0  0  0  0
  8  9  1  0  0  0  0
  8  7  1  0  0  0  0
 10  9  1  0  0  0  0
 11 12  1  0  0  0  0
 12 10  1  6  0  0  0
 12 28  1  0  0  0  0
 13 11  1  6  0  0  0
 13 12  1  0  0  0  0
 13 16  1  0  0  0  0
 14 20  1  6  0  0  0
 14 26  1  0  0  0  0
 16 26  1  1  0  0  0
 17 25  1  0  0  0  0
 19 15  1  6  0  0  0
 19 16  1  0  0  0  0
 19 18  1  0  0  0  0
 21 22  1  0  0  0  0
 21 17  2  0  0  0  0
 23 25  2  0  0  0  0
 23 14  1  0  0  0  0
 24 22  1  1  0  0  0
 24 19  1  0  0  0  0
 24 23  1  0  0  0  0
 27 28  2  0  0  0  0
 28 29  1  0  0  0  0
 31 30  1  0  0  0  0
 31 32  1  0  0  0  0
 32 33  1  0  0  0  0
 34 33  1  6  0  0  0
 34 43  1  0  0  0  0
 34 37  1  0  0  0  0
 35 39  1  0  0  0  0
 36 40  1  1  0  0  0
 37 35  1  0  0  0  0
 37 38  1  0  0  0  0
 38 36  1  0  0  0  0
 39 36  1  0  0  0  0
 40 42  1  0  0  0  0
 41 42  1  0  0  0  0
 43 44  1  0  0  0  0
 44 48  1  6  0  0  0
 44 45  1  0  0  0  0
 45 47  1  0  0  0  0
 47 46  1  0  0  0  0
 49 50  2  0  0  0  0
 49 48  1  0  0  0  0
 53 51  2  6  0  0  0
 53 50  1  0  0  0  0
 53 52  1  0  0  0  0
 54 55  1  0  0  0  0
 55 53  1  0  0  0  0
M  END
>  <MODEL>
2

>  <REMARK>
 VINA RESULT:      -6.0      2.469      8.688
  Name = 
  23 active torsions:
  status: ('A' for Active; 'I' for Inactive)
    1  A    between atoms: C_2  and  N_28
    2  A    between atoms: C_2  and  C_44
    3  A    between atoms: C_6  and  C_46
    4  A    between atoms: C_10  and  C_32
    5  A    between atoms: C_10  and  C_47
    6  A    between atoms: C_15  and  C_23
    7  A    between atoms: C_16  and  C_17
    8  A    between atoms: C_16  and  C_26
    9  A    between atoms: C_17  and  C_23
   10  A    between atoms: C_17  and  O_36
   11  A    between atoms: N_19  and  P_40
   12  A    between atoms: C_20  and  C_22
   13  A    between atoms: C_22  and  C_35
   14  A    between atoms: C_27  and  C_54
   15  A    between atoms: N_28  and  C_49
   16  A    between atoms: C_33  and  C_49
   17  A    between atoms: C_33  and  C_52
   18  A    between atoms: N_34  and  C_52
   19  A    between atoms: C_35  and  C_43
   20  A    between atoms: O_36  and  C_52
   21  A    between atoms: P_40  and  C_45
   22  A    between atoms: C_43  and  C_51
   23  A    between atoms: C_51  and  C_54
                            x       y       z     vdW  Elec       q    Type
                         _______ _______ _______ _____ _____    ______ ____

>  <TORSDO>
F 23

$$$$
=
 OpenBabel10272401293D

 55 59  0  0  1  0  0  0  0  0999 V2000
  185.0330  178.5770  144.6990 C   0  0  0  0  0  3  0  0  0  0  0  0
  187.6340  177.6950  144.1650 C   0  0  0  0  0  0  0  0  0  0  0  0
  186.7180  177.8440  143.1200 C   0  0  0  0  0  3  0  0  0  0  0  0
  185.9470  178.4230  145.7450 C   0  0  0  0  0  3  0  0  0  0  0  0
  185.4170  178.2800  143.3860 C   0  0  0  0  0  0  0  0  0  0  0  0
  187.2470  177.9820  145.4790 C   0  0  0  0  0  3  0  0  0  0  0  0
  189.0190  177.2360  143.8710 C   0  0  0  0  0  2  0  0  0  0  0  0
  189.0100  176.1900  142.7700 C   0  0  0  0  0  2  0  0  0  0  0  0
  189.7600  176.7200  141.5620 C   0  0  0  0  0  2  0  0  0  0  0  0
  188.9050  176.5570  140.3170 C   0  0  0  0  0  2  0  0  0  0  0  0
  190.9910  177.3680  139.4210 O   0  0  0  0  0  0  0  0  0  0  0  0
  189.6720  177.0080  139.0880 C   0  0  1  0  0  0  0  0  0  0  0  0
  190.8370  176.1710  138.6880 C   0  0  1  0  0  3  0  0  0  0  0  0
  190.6260  174.2670  136.4180 C   0  0  2  0  0  3  0  0  0  0  0  0
  193.6420  176.9640  137.9370 C   0  0  0  0  0  1  0  0  0  0  0  0
  191.2970  176.3820  137.2350 C   0  0  1  0  0  3  0  0  0  0  0  0
  193.6840  171.9710  136.3660 C   0  0  0  0  0  3  0  0  0  0  0  0
  193.0940  176.4950  135.6930 F   0  0  0  0  0  0  0  0  0  0  0  0
  192.7940  176.1230  136.9950 C   0  0  1  0  0  0  0  0  0  0  0  0
  189.8340  173.7680  137.4520 O   0  0  0  0  0  1  0  0  0  0  0  0
  194.7070  172.7840  136.6410 C   0  0  0  0  0  3  0  0  0  0  0  0
  194.5110  174.2720  136.6960 C   0  0  0  0  0  2  0  0  0  0  0  0
  192.0440  173.7750  136.5330 C   0  0  0  0  0  0  0  0  0  0  0  0
  193.0990  174.6350  137.1930 C   0  0  2  0  0  3  0  0  0  0  0  0
  192.3220  172.5080  136.2040 C   0  0  0  0  0  3  0  0  0  0  0  0
  190.4910  175.6780  136.3010 O   0  0  0  0  0  0  0  0  0  0  0  0
  189.3280  179.2310  138.2550 O   0  0  0  0  0  1  0  0  0  0  0  0
  189.0490  178.0060  138.1560 C   0  0  0  0  0  0  0  0  0  0  0  0
  188.1230  177.5860  137.2100 O   0  0  0  0  0  0  0  0  0  0  0  0
  184.4610  178.4810  142.2650 C   0  0  0  0  0  2  0  0  0  0  0  0
  185.0620  179.3440  141.2620 N   0  0  0  0  0  2  0  0  0  0  0  0
  184.2530  179.2250  140.0670 C   0  0  0  0  0  2  0  0  0  0  0  0
  182.8630  178.7440  140.4450 C   0  0  0  0  0  2  0  0  0  0  0  0
  181.9990  178.3800  139.2210 C   0  0  2  0  0  3  0  0  0  0  0  0
  180.4710  179.9460  140.2630 C   0  0  0  0  0  2  0  0  0  0  0  0
  180.3040  181.4520  138.3870 C   0  0  1  0  0  3  0  0  0  0  0  0
  180.7920  179.2010  139.0460 N   0  0  0  0  0  0  0  0  0  0  0  0
  181.0100  180.1800  137.9860 C   0  0  0  0  0  2  0  0  0  0  0  0
  180.0630  181.3490  139.8730 C   0  0  0  0  0  2  0  0  0  0  0  0
  181.0900  182.7090  138.0110 C   0  0  0  0  0  2  0  0  0  0  0  0
  180.9160  184.6390  136.4360 C   0  0  0  0  0  1  0  0  0  0  0  0
  180.9150  183.1270  136.5550 C   0  0  0  0  0  2  0  0  0  0  0  0
  181.6830  177.0150  139.2040 O   0  0  0  0  0  0  0  0  0  0  0  0
  181.6070  176.6650  137.8500 C   0  0  1  0  0  3  0  0  0  0  0  0
  182.9410  176.9090  137.1480 C   0  0  0  0  0  2  0  0  0  0  0  0
  181.4080  177.9860  135.4990 C   0  0  0  0  0  1  0  0  0  0  0  0
  182.7740  177.3550  135.7010 C   0  0  0  0  0  2  0  0  0  0  0  0
  181.1040  175.2330  137.6240 C   0  0  0  0  0  2  0  0  0  0  0  0
  182.1180  174.2940  137.0420 C   0  0  0  0  0  3  0  0  0  0  0  0
  183.2910  174.0940  137.6390 C   0  0  0  0  0  3  0  0  0  0  0  0
  184.7730  173.3860  135.4960 O   0  0  0  0  0  0  0  0  0  0  0  0
  183.8640  171.4030  136.9410 O   0  0  0  0  0  1  0  0  0  0  0  0
  184.4880  172.9750  136.9230 P   0  0  2  0  0  0  0  0  0  0  0  0
  186.6820  174.0880  137.4000 O   0  0  0  0  0  1  0  0  0  0  0  0
  185.9740  173.0240  137.8500 N   0  0  0  0  0  2  0  0  0  0  0  0
  1  4  1  0  0  0  0
  2  6  1  0  0  0  0
  3  5  1  0  0  0  0
  3  2  2  0  0  0  0
  5  1  2  0  0  0  0
  6  4  2  0  0  0  0
  7  2  1  0  0  0  0
  8  7  1  0  0  0  0
  9  8  1  0  0  0  0
 10  9  1  0  0  0  0
 12 11  1  0  0  0  0
 12 10  1  1  0  0  0
 13 12  1  0  0  0  0
 13 11  1  1  0  0  0
 14 23  1  0  0  0  0
 14 20  1  1  0  0  0
 16 26  1  6  0  0  0
 16 13  1  0  0  0  0
 17 21  2  0  0  0  0
 18 19  1  0  0  0  0
 19 24  1  0  0  0  0
 19 16  1  0  0  0  0
 19 15  1  1  0  0  0
 21 22  1  0  0  0  0
 23 24  1  0  0  0  0
 24 22  1  6  0  0  0
 25 17  1  0  0  0  0
 25 23  2  0  0  0  0
 26 14  1  0  0  0  0
 28 27  1  0  0  0  0
 28 12  1  0  0  0  0
 29 28  2  0  0  0  0
 30  5  1  0  0  0  0
 31 30  1  0  0  0  0
 32 33  1  0  0  0  0
 32 31  1  0  0  0  0
 34 33  1  1  0  0  0
 36 40  1  1  0  0  0
 36 39  1  0  0  0  0
 37 34  1  0  0  0  0
 37 35  1  0  0  0  0
 38 36  1  0  0  0  0
 38 37  1  0  0  0  0
 39 35  1  0  0  0  0
 41 42  1  0  0  0  0
 42 40  1  0  0  0  0
 43 34  1  0  0  0  0
 44 45  1  1  0  0  0
 44 43  1  0  0  0  0
 46 47  1  0  0  0  0
 47 45  1  0  0  0  0
 48 44  1  0  0  0  0
 49 48  1  0  0  0  0
 49 50  2  0  0  0  0
 53 51  2  6  0  0  0
 53 52  1  0  0  0  0
 53 50  1  0  0  0  0
 53 55  1  0  0  0  0
 54 55  1  0  0  0  0
M  END
>  <MODEL>
3

>  <REMARK>
 VINA RESULT:      -5.5      3.588      8.686
  Name = 
  23 active torsions:
  status: ('A' for Active; 'I' for Inactive)
    1  A    between atoms: C_2  and  N_28
    2  A    between atoms: C_2  and  C_44
    3  A    between atoms: C_6  and  C_46
    4  A    between atoms: C_10  and  C_32
    5  A    between atoms: C_10  and  C_47
    6  A    between atoms: C_15  and  C_23
    7  A    between atoms: C_16  and  C_17
    8  A    between atoms: C_16  and  C_26
    9  A    between atoms: C_17  and  C_23
   10  A    between atoms: C_17  and  O_36
   11  A    between atoms: N_19  and  P_40
   12  A    between atoms: C_20  and  C_22
   13  A    between atoms: C_22  and  C_35
   14  A    between atoms: C_27  and  C_54
   15  A    between atoms: N_28  and  C_49
   16  A    between atoms: C_33  and  C_49
   17  A    between atoms: C_33  and  C_52
   18  A    between atoms: N_34  and  C_52
   19  A    between atoms: C_35  and  C_43
   20  A    between atoms: O_36  and  C_52
   21  A    between atoms: P_40  and  C_45
   22  A    between atoms: C_43  and  C_51
   23  A    between atoms: C_51  and  C_54
                            x       y       z     vdW  Elec       q    Type
                         _______ _______ _______ _____ _____    ______ ____

>  <TORSDO>
F 23

$$$$
=
 OpenBabel10272401293D

 55 59  0  0  1  0  0  0  0  0999 V2000
  187.8970  176.8790  143.2850 C   0  0  0  0  0  3  0  0  0  0  0  0
  189.4800  177.3270  141.0230 C   0  0  0  0  0  0  0  0  0  0  0  0
  188.2300  177.9430  141.1350 C   0  0  0  0  0  3  0  0  0  0  0  0
  189.1430  176.2580  143.1710 C   0  0  0  0  0  3  0  0  0  0  0  0
  187.4360  177.7170  142.2630 C   0  0  0  0  0  0  0  0  0  0  0  0
  189.9340  176.4800  142.0400 C   0  0  0  0  0  3  0  0  0  0  0  0
  190.3200  177.5790  139.8200 C   0  0  0  0  0  2  0  0  0  0  0  0
  190.5660  176.2860  139.0620 C   0  0  0  0  0  2  0  0  0  0  0  0
  191.7710  176.4520  138.1550 C   0  0  0  0  0  2  0  0  0  0  0  0
  192.3240  175.0870  137.7840 C   0  0  0  0  0  2  0  0  0  0  0  0
  194.7090  175.2880  138.0780 O   0  0  0  0  0  0  0  0  0  0  0  0
  193.6800  175.2310  137.1190 C   0  0  1  0  0  0  0  0  0  0  0  0
  194.6360  174.1050  137.3110 C   0  0  1  0  0  3  0  0  0  0  0  0
  195.0860  172.1240  135.1440 C   0  0  2  0  0  3  0  0  0  0  0  0
  197.5450  174.1180  138.0860 C   0  0  0  0  0  1  0  0  0  0  0  0
  195.7850  174.0720  136.2880 C   0  0  1  0  0  3  0  0  0  0  0  0
  197.0740  169.1520  136.5000 C   0  0  0  0  0  3  0  0  0  0  0  0
  198.0670  173.6070  135.8460 F   0  0  0  0  0  0  0  0  0  0  0  0
  197.0850  173.4330  136.8080 C   0  0  1  0  0  0  0  0  0  0  0  0
  193.7910  171.9250  135.6240 O   0  0  0  0  0  1  0  0  0  0  0  0
  198.0000  169.7090  137.2840 C   0  0  0  0  0  3  0  0  0  0  0  0
  198.1900  171.1990  137.3080 C   0  0  0  0  0  2  0  0  0  0  0  0
  196.0860  171.3100  135.9210 C   0  0  0  0  0  0  0  0  0  0  0  0
  196.8620  171.9380  137.0580 C   0  0  2  0  0  3  0  0  0  0  0  0
  196.1550  169.9910  135.7110 C   0  0  0  0  0  3  0  0  0  0  0  0
  195.3910  173.5100  135.0450 O   0  0  0  0  0  0  0  0  0  0  0  0
  194.6180  177.2590  136.2470 O   0  0  0  0  0  1  0  0  0  0  0  0
  193.8690  176.2650  136.0470 C   0  0  0  0  0  0  0  0  0  0  0  0
  193.1790  176.1540  134.8470 O   0  0  0  0  0  0  0  0  0  0  0  0
  186.1290  178.4120  142.3980 C   0  0  0  0  0  2  0  0  0  0  0  0
  185.9670  179.3590  141.3070 N   0  0  0  0  0  2  0  0  0  0  0  0
  184.9070  178.8480  140.4630 C   0  0  0  0  0  2  0  0  0  0  0  0
  185.3470  178.9070  139.0100 C   0  0  0  0  0  2  0  0  0  0  0  0
  184.6020  177.8970  138.1160 C   0  0  2  0  0  3  0  0  0  0  0  0
  186.5930  178.2040  136.7690 C   0  0  0  0  0  2  0  0  0  0  0  0
  187.0170  175.8640  136.3730 C   0  0  1  0  0  3  0  0  0  0  0  0
  185.3310  177.4790  136.9090 N   0  0  0  0  0  0  0  0  0  0  0  0
  185.6580  176.0580  136.9980 C   0  0  0  0  0  2  0  0  0  0  0  0
  187.6620  177.2280  136.3350 C   0  0  0  0  0  2  0  0  0  0  0  0
  187.8710  174.8380  137.1220 C   0  0  0  0  0  2  0  0  0  0  0  0
  188.8320  172.8070  136.0320 C   0  0  0  0  0  1  0  0  0  0  0  0
  189.0290  174.2880  136.2950 C   0  0  0  0  0  2  0  0  0  0  0  0
  183.3160  178.3500  137.7910 O   0  0  0  0  0  0  0  0  0  0  0  0
  182.4430  177.3460  138.2310 C   0  0  1  0  0  3  0  0  0  0  0  0
  181.5110  177.8730  139.3200 C   0  0  0  0  0  2  0  0  0  0  0  0
  180.1590  179.7920  138.4720 C   0  0  0  0  0  1  0  0  0  0  0  0
  181.3710  179.3890  139.2940 C   0  0  0  0  0  2  0  0  0  0  0  0
  181.6600  176.6850  137.0890 C   0  0  0  0  0  2  0  0  0  0  0  0
  182.2490  175.4020  136.5820 C   0  0  0  0  0  3  0  0  0  0  0  0
  182.3850  174.3450  137.3800 C   0  0  0  0  0  3  0  0  0  0  0  0
  183.1840  172.8930  135.2480 O   0  0  0  0  0  0  0  0  0  0  0  0
  182.1190  171.5250  137.2080 O   0  0  0  0  0  1  0  0  0  0  0  0
  183.0980  172.8290  136.7570 P   0  0  2  0  0  0  0  0  0  0  0  0
  185.4500  172.0200  136.4560 O   0  0  0  0  0  1  0  0  0  0  0  0
  184.7040  172.6100  137.4210 N   0  0  0  0  0  2  0  0  0  0  0  0
  2  3  2  0  0  0  0
  2  6  1  0  0  0  0
  3  5  1  0  0  0  0
  4  1  1  0  0  0  0
  5 30  1  0  0  0  0
  5  1  2  0  0  0  0
  6  4  2  0  0  0  0
  7  2  1  0  0  0  0
  8  7  1  0  0  0  0
  9  8  1  0  0  0  0
 10  9  1  0  0  0  0
 12 13  1  0  0  0  0
 12 10  1  1  0  0  0
 12 11  1  0  0  0  0
 13 11  1  1  0  0  0
 14 20  1  1  0  0  0
 14 23  1  0  0  0  0
 16 26  1  6  0  0  0
 16 19  1  0  0  0  0
 16 13  1  0  0  0  0
 17 21  2  0  0  0  0
 18 19  1  0  0  0  0
 19 24  1  0  0  0  0
 19 15  1  1  0  0  0
 21 22  1  0  0  0  0
 23 24  1  0  0  0  0
 24 22  1  6  0  0  0
 25 23  2  0  0  0  0
 25 17  1  0  0  0  0
 26 14  1  0  0  0  0
 28 27  1  0  0  0  0
 28 12  1  0  0  0  0
 29 28  2  0  0  0  0
 31 30  1  0  0  0  0
 32 31  1  0  0  0  0
 33 32  1  0  0  0  0
 34 33  1  6  0  0  0
 35 37  1  0  0  0  0
 36 38  1  0  0  0  0
 36 40  1  1  0  0  0
 37 38  1  0  0  0  0
 37 34  1  0  0  0  0
 39 36  1  0  0  0  0
 39 35  1  0  0  0  0
 41 42  1  0  0  0  0
 42 40  1  0  0  0  0
 43 34  1  0  0  0  0
 43 44  1  0  0  0  0
 44 48  1  6  0  0  0
 44 45  1  0  0  0  0
 46 47  1  0  0  0  0
 47 45  1  0  0  0  0
 49 48  1  0  0  0  0
 49 50  2  0  0  0  0
 53 51  2  6  0  0  0
 53 52  1  0  0  0  0
 53 50  1  0  0  0  0
 53 55  1  0  0  0  0
 54 55  1  0  0  0  0
M  END
>  <MODEL>
4

>  <REMARK>
 VINA RESULT:      -5.5      4.812      9.070
  Name = 
  23 active torsions:
  status: ('A' for Active; 'I' for Inactive)
    1  A    between atoms: C_2  and  N_28
    2  A    between atoms: C_2  and  C_44
    3  A    between atoms: C_6  and  C_46
    4  A    between atoms: C_10  and  C_32
    5  A    between atoms: C_10  and  C_47
    6  A    between atoms: C_15  and  C_23
    7  A    between atoms: C_16  and  C_17
    8  A    between atoms: C_16  and  C_26
    9  A    between atoms: C_17  and  C_23
   10  A    between atoms: C_17  and  O_36
   11  A    between atoms: N_19  and  P_40
   12  A    between atoms: C_20  and  C_22
   13  A    between atoms: C_22  and  C_35
   14  A    between atoms: C_27  and  C_54
   15  A    between atoms: N_28  and  C_49
   16  A    between atoms: C_33  and  C_49
   17  A    between atoms: C_33  and  C_52
   18  A    between atoms: N_34  and  C_52
   19  A    between atoms: C_35  and  C_43
   20  A    between atoms: O_36  and  C_52
   21  A    between atoms: P_40  and  C_45
   22  A    between atoms: C_43  and  C_51
   23  A    between atoms: C_51  and  C_54
                            x       y       z     vdW  Elec       q    Type
                         _______ _______ _______ _____ _____    ______ ____

>  <TORSDO>
F 23

$$$$
=
 OpenBabel10272401293D

 55 59  0  0  1  0  0  0  0  0999 V2000
  188.0020  177.4620  144.3770 C   0  0  0  0  0  3  0  0  0  0  0  0
  189.4770  177.2440  142.0100 C   0  0  0  0  0  0  0  0  0  0  0  0
  188.1170  177.5660  141.9600 C   0  0  0  0  0  3  0  0  0  0  0  0
  189.3610  177.1350  144.4280 C   0  0  0  0  0  3  0  0  0  0  0  0
  187.3780  177.6710  143.1420 C   0  0  0  0  0  0  0  0  0  0  0  0
  190.0970  177.0250  143.2450 C   0  0  0  0  0  3  0  0  0  0  0  0
  190.2560  177.1410  140.7450 C   0  0  0  0  0  2  0  0  0  0  0  0
  191.7130  177.4940  140.9880 C   0  0  0  0  0  2  0  0  0  0  0  0
  192.5720  176.8720  139.9030 C   0  0  0  0  0  2  0  0  0  0  0  0
  191.9090  177.0680  138.5500 C   0  0  0  0  0  2  0  0  0  0  0  0
  193.1520  176.4530  136.5780 O   0  0  0  0  0  0  0  0  0  0  0  0
  192.3180  175.9600  137.5980 C   0  0  1  0  0  0  0  0  0  0  0  0
  193.7690  175.6320  137.5460 C   0  0  1  0  0  3  0  0  0  0  0  0
  195.7200  173.6150  138.5230 C   0  0  2  0  0  3  0  0  0  0  0  0
  194.5890  175.2300  134.6770 C   0  0  0  0  0  1  0  0  0  0  0  0
  194.0830  174.2520  136.9400 C   0  0  1  0  0  3  0  0  0  0  0  0
  199.1720  174.3300  137.0410 C   0  0  0  0  0  3  0  0  0  0  0  0
  195.1450  173.0060  135.2250 F   0  0  0  0  0  0  0  0  0  0  0  0
  195.0740  174.2810  135.7640 C   0  0  1  0  0  0  0  0  0  0  0  0
  195.5700  174.5690  139.5310 O   0  0  0  0  0  1  0  0  0  0  0  0
  198.9200  174.6540  135.7700 C   0  0  0  0  0  3  0  0  0  0  0  0
  197.5430  174.4890  135.1940 C   0  0  0  0  0  2  0  0  0  0  0  0
  196.8050  174.0100  137.5580 C   0  0  0  0  0  0  0  0  0  0  0  0
  196.4570  174.7110  136.2640 C   0  0  2  0  0  3  0  0  0  0  0  0
  198.0830  173.8910  137.9330 C   0  0  0  0  0  3  0  0  0  0  0  0
  194.4700  173.3020  137.9220 O   0  0  0  0  0  0  0  0  0  0  0  0
  190.8690  175.1580  135.8630 O   0  0  0  0  0  0  0  0  0  0  0  0
  191.2700  175.0340  137.0510 C   0  0  0  0  0  0  0  0  0  0  0  0
  190.7030  174.0670  137.8710 O   0  0  0  0  0  1  0  0  0  0  0  0
  185.9450  178.0580  143.0850 C   0  0  0  0  0  2  0  0  0  0  0  0
  185.7420  179.0180  142.0120 N   0  0  0  0  0  2  0  0  0  0  0  0
  184.7350  178.4580  141.1350 C   0  0  0  0  0  2  0  0  0  0  0  0
  184.4270  179.4470  140.0230 C   0  0  0  0  0  2  0  0  0  0  0  0
  184.1580  178.7630  138.6690 C   0  0  2  0  0  3  0  0  0  0  0  0
  182.2300  177.3060  138.4830 C   0  0  0  0  0  2  0  0  0  0  0  0
  180.6310  178.8520  139.4130 C   0  0  1  0  0  3  0  0  0  0  0  0
  182.7400  178.6630  138.2930 N   0  0  0  0  0  0  0  0  0  0  0  0
  181.9420  179.5460  139.1400 C   0  0  0  0  0  2  0  0  0  0  0  0
  180.8530  177.3920  139.1010 C   0  0  0  0  0  2  0  0  0  0  0  0
  180.1320  179.0710  140.8430 C   0  0  0  0  0  2  0  0  0  0  0  0
  180.6200  178.6830  143.2610 C   0  0  0  0  0  1  0  0  0  0  0  0
  181.2270  178.9510  141.8970 C   0  0  0  0  0  2  0  0  0  0  0  0
  184.7840  177.5110  138.5930 O   0  0  0  0  0  0  0  0  0  0  0  0
  185.8110  177.6620  137.6520 C   0  0  1  0  0  3  0  0  0  0  0  0
  187.1690  177.3430  138.2730 C   0  0  0  0  0  2  0  0  0  0  0  0
  187.9540  179.0450  136.6240 C   0  0  0  0  0  1  0  0  0  0  0  0
  188.2180  178.4070  137.9760 C   0  0  0  0  0  2  0  0  0  0  0  0
  185.5750  176.8590  136.3670 C   0  0  0  0  0  2  0  0  0  0  0  0
  185.8680  175.3920  136.4770 C   0  0  0  0  0  3  0  0  0  0  0  0
  185.1690  174.4970  135.7820 C   0  0  0  0  0  3  0  0  0  0  0  0
  186.2920  172.5060  137.2200 O   0  0  0  0  0  1  0  0  0  0  0  0
  186.4750  172.2600  134.6210 O   0  0  0  0  0  0  0  0  0  0  0  0
  185.5320  172.7530  135.9360 P   0  0  2  0  0  0  0  0  0  0  0  0
  183.6570  171.7410  137.2560 O   0  0  0  0  0  1  0  0  0  0  0  0
  184.0390  171.8360  135.9600 N   0  0  0  0  0  2  0  0  0  0  0  0
  1  4  1  0  0  0  0
  2  6  1  0  0  0  0
  3  2  2  0  0  0  0
  3  5  1  0  0  0  0
  5  1  2  0  0  0  0
  6  4  2  0  0  0  0
  7  8  1  0  0  0  0
  7  2  1  0  0  0  0
  9  8  1  0  0  0  0
 10  9  1  0  0  0  0
 11 12  1  0  0  0  0
 12 10  1  1  0  0  0
 13 11  1  6  0  0  0
 13 12  1  0  0  0  0
 14 20  1  1  0  0  0
 16 13  1  0  0  0  0
 16 26  1  1  0  0  0
 17 25  1  0  0  0  0
 18 19  1  0  0  0  0
 19 15  1  6  0  0  0
 19 24  1  0  0  0  0
 19 16  1  0  0  0  0
 21 17  2  0  0  0  0
 22 21  1  0  0  0  0
 23 25  2  0  0  0  0
 23 14  1  0  0  0  0
 24 22  1  6  0  0  0
 24 23  1  0  0  0  0
 26 14  1  0  0  0  0
 27 28  2  0  0  0  0
 28 12  1  0  0  0  0
 28 29  1  0  0  0  0
 30  5  1  0  0  0  0
 31 30  1  0  0  0  0
 32 31  1  0  0  0  0
 33 32  1  0  0  0  0
 34 33  1  1  0  0  0
 35 39  1  0  0  0  0
 36 40  1  1  0  0  0
 37 35  1  0  0  0  0
 37 34  1  0  0  0  0
 37 38  1  0  0  0  0
 38 36  1  0  0  0  0
 39 36  1  0  0  0  0
 40 42  1  0  0  0  0
 42 41  1  0  0  0  0
 43 34  1  0  0  0  0
 44 48  1  6  0  0  0
 44 45  1  0  0  0  0
 44 43  1  0  0  0  0
 46 47  1  0  0  0  0
 47 45  1  0  0  0  0
 48 49  1  0  0  0  0
 50 53  1  0  0  0  0
 50 49  2  0  0  0  0
 53 52  2  6  0  0  0
 53 55  1  0  0  0  0
 53 51  1  0  0  0  0
 55 54  1  0  0  0  0
M  END
>  <MODEL>
5

>  <REMARK>
 VINA RESULT:      -5.2      4.097      8.950
  Name = 
  23 active torsions:
  status: ('A' for Active; 'I' for Inactive)
    1  A    between atoms: C_2  and  N_28
    2  A    between atoms: C_2  and  C_44
    3  A    between atoms: C_6  and  C_46
    4  A    between atoms: C_10  and  C_32
    5  A    between atoms: C_10  and  C_47
    6  A    between atoms: C_15  and  C_23
    7  A    between atoms: C_16  and  C_17
    8  A    between atoms: C_16  and  C_26
    9  A    between atoms: C_17  and  C_23
   10  A    between atoms: C_17  and  O_36
   11  A    between atoms: N_19  and  P_40
   12  A    between atoms: C_20  and  C_22
   13  A    between atoms: C_22  and  C_35
   14  A    between atoms: C_27  and  C_54
   15  A    between atoms: N_28  and  C_49
   16  A    between atoms: C_33  and  C_49
   17  A    between atoms: C_33  and  C_52
   18  A    between atoms: N_34  and  C_52
   19  A    between atoms: C_35  and  C_43
   20  A    between atoms: O_36  and  C_52
   21  A    between atoms: P_40  and  C_45
   22  A    between atoms: C_43  and  C_51
   23  A    between atoms: C_51  and  C_54
                            x       y       z     vdW  Elec       q    Type
                         _______ _______ _______ _____ _____    ______ ____

>  <TORSDO>
F 23

$$$$
=
 OpenBabel10272401293D

 55 59  0  0  1  0  0  0  0  0999 V2000
  193.1820  175.8970  137.9240 C   0  0  0  0  0  3  0  0  0  0  0  0
  191.3040  176.8970  139.7400 C   0  0  0  0  0  0  0  0  0  0  0  0
  190.9300  175.9170  138.8150 C   0  0  0  0  0  3  0  0  0  0  0  0
  193.5560  176.8810  138.8440 C   0  0  0  0  0  3  0  0  0  0  0  0
  191.8660  175.4200  137.9040 C   0  0  0  0  0  0  0  0  0  0  0  0
  192.6170  177.3810  139.7510 C   0  0  0  0  0  3  0  0  0  0  0  0
  190.3010  177.4160  140.7100 C   0  0  0  0  0  2  0  0  0  0  0  0
  190.9130  178.4980  141.5810 C   0  0  0  0  0  2  0  0  0  0  0  0
  191.8880  177.8690  142.5590 C   0  0  0  0  0  2  0  0  0  0  0  0
  191.7600  178.5430  143.9150 C   0  0  0  0  0  2  0  0  0  0  0  0
  190.1830  178.6040  145.7370 O   0  0  0  0  0  0  0  0  0  0  0  0
  190.8160  177.7590  144.8070 C   0  0  1  0  0  0  0  0  0  0  0  0
  189.3700  178.0960  144.7000 C   0  0  1  0  0  3  0  0  0  0  0  0
  187.0480  176.8340  143.3430 C   0  0  2  0  0  3  0  0  0  0  0  0
  187.8700  178.3780  147.2950 C   0  0  0  0  0  1  0  0  0  0  0  0
  188.4270  177.0140  145.2550 C   0  0  1  0  0  3  0  0  0  0  0  0
  183.9100  178.9420  143.9190 C   0  0  0  0  0  3  0  0  0  0  0  0
  186.6290  176.4650  146.7000 F   0  0  0  0  0  0  0  0  0  0  0  0
  187.2990  177.5490  146.1540 C   0  0  1  0  0  0  0  0  0  0  0  0
  187.7650  177.5340  142.3720 O   0  0  0  0  0  1  0  0  0  0  0  0
  183.9920  179.3050  145.2010 C   0  0  0  0  0  3  0  0  0  0  0  0
  185.0420  178.7170  146.1000 C   0  0  0  0  0  2  0  0  0  0  0  0
  186.0210  177.7150  144.0020 C   0  0  0  0  0  0  0  0  0  0  0  0
  186.3300  178.3920  145.3200 C   0  0  2  0  0  3  0  0  0  0  0  0
  184.9070  178.0290  143.3330 C   0  0  0  0  0  3  0  0  0  0  0  0
  187.9220  176.1590  144.2400 O   0  0  0  0  0  0  0  0  0  0  0  0
  191.4320  175.4410  144.7710 O   0  0  0  0  0  0  0  0  0  0  0  0
  191.2960  176.4920  145.4540 C   0  0  0  0  0  0  0  0  0  0  0  0
  191.5440  176.4620  146.8200 O   0  0  0  0  0  1  0  0  0  0  0  0
  191.4750  174.3460  136.9550 C   0  0  0  0  0  2  0  0  0  0  0  0
  190.1260  174.5900  136.4710 N   0  0  0  0  0  2  0  0  0  0  0  0
  190.2550  175.2910  135.2100 C   0  0  0  0  0  2  0  0  0  0  0  0
  189.0380  175.0040  134.3480 C   0  0  0  0  0  2  0  0  0  0  0  0
  187.7620  174.7480  135.1750 C   0  0  2  0  0  3  0  0  0  0  0  0
  187.6860  172.3380  135.4220 C   0  0  0  0  0  2  0  0  0  0  0  0
  185.3150  172.1830  135.8360 C   0  0  1  0  0  3  0  0  0  0  0  0
  187.0390  173.5130  134.8370 N   0  0  0  0  0  0  0  0  0  0  0  0
  185.6840  173.5720  135.3760 C   0  0  0  0  0  2  0  0  0  0  0  0
  186.6140  171.4270  135.9770 C   0  0  0  0  0  2  0  0  0  0  0  0
  184.5010  172.1850  137.1320 C   0  0  0  0  0  2  0  0  0  0  0  0
  182.9840  170.8720  135.6450 C   0  0  0  0  0  1  0  0  0  0  0  0
  183.1080  171.5840  136.9780 C   0  0  0  0  0  2  0  0  0  0  0  0
  186.9020  175.8540  135.1470 O   0  0  0  0  0  0  0  0  0  0  0  0
  187.3740  176.7210  136.1400 C   0  0  1  0  0  3  0  0  0  0  0  0
  187.4460  178.1560  135.6230 C   0  0  0  0  0  2  0  0  0  0  0  0
  189.2200  178.6860  137.2970 C   0  0  0  0  0  1  0  0  0  0  0  0
  187.9080  179.1450  136.6860 C   0  0  0  0  0  2  0  0  0  0  0  0
  186.5760  176.6320  137.4480 C   0  0  0  0  0  2  0  0  0  0  0  0
  185.0920  176.7850  137.2910 C   0  0  0  0  0  3  0  0  0  0  0  0
  184.4270  177.7380  137.9410 C   0  0  0  0  0  3  0  0  0  0  0  0
  181.9630  176.7860  138.5050 O   0  0  0  0  0  1  0  0  0  0  0  0
  182.2640  177.7840  136.1050 O   0  0  0  0  0  0  0  0  0  0  0  0
  182.6570  177.8960  137.7460 P   0  0  2  0  0  0  0  0  0  0  0  0
  183.2040  180.0220  138.9540 O   0  0  0  0  0  1  0  0  0  0  0  0
  182.1270  179.4450  138.3690 N   0  0  0  0  0  2  0  0  0  0  0  0
  1  4  1  0  0  0  0
  2  6  1  0  0  0  0
  2  7  1  0  0  0  0
  3  2  2  0  0  0  0
  4  6  2  0  0  0  0
  5  1  2  0  0  0  0
  5  3  1  0  0  0  0
  7  8  1  0  0  0  0
  8  9  1  0  0  0  0
  9 10  1  0  0  0  0
 12 10  1  6  0  0  0
 12 28  1  0  0  0  0
 12 11  1  0  0  0  0
 13 12  1  0  0  0  0
 13 16  1  0  0  0  0
 13 11  1  1  0  0  0
 14 20  1  6  0  0  0
 14 23  1  0  0  0  0
 14 26  1  0  0  0  0
 16 26  1  6  0  0  0
 16 19  1  0  0  0  0
 17 21  2  0  0  0  0
 19 18  1  0  0  0  0
 19 15  1  1  0  0  0
 21 22  1  0  0  0  0
 23 24  1  0  0  0  0
 24 22  1  1  0  0  0
 24 19  1  0  0  0  0
 25 17  1  0  0  0  0
 25 23  2  0  0  0  0
 27 28  2  0  0  0  0
 28 29  1  0  0  0  0
 30  5  1  0  0  0  0
 31 30  1  0  0  0  0
 32 31  1  0  0  0  0
 33 32  1  0  0  0  0
 34 33  1  6  0  0  0
 35 39  1  0  0  0  0
 36 39  1  0  0  0  0
 36 40  1  1  0  0  0
 37 34  1  0  0  0  0
 37 38  1  0  0  0  0
 37 35  1  0  0  0  0
 38 36  1  0  0  0  0
 41 42  1  0  0  0  0
 42 40  1  0  0  0  0
 43 34  1  0  0  0  0
 43 44  1  0  0  0  0
 44 45  1  6  0  0  0
 44 48  1  0  0  0  0
 45 47  1  0  0  0  0
 47 46  1  0  0  0  0
 49 48  1  0  0  0  0
 49 50  2  0  0  0  0
 53 52  2  6  0  0  0
 53 50  1  0  0  0  0
 53 55  1  0  0  0  0
 53 51  1  0  0  0  0
 55 54  1  0  0  0  0
M  END
>  <MODEL>
6

>  <REMARK>
 VINA RESULT:      -5.2      1.361      1.982
  Name = 
  23 active torsions:
  status: ('A' for Active; 'I' for Inactive)
    1  A    between atoms: C_2  and  N_28
    2  A    between atoms: C_2  and  C_44
    3  A    between atoms: C_6  and  C_46
    4  A    between atoms: C_10  and  C_32
    5  A    between atoms: C_10  and  C_47
    6  A    between atoms: C_15  and  C_23
    7  A    between atoms: C_16  and  C_17
    8  A    between atoms: C_16  and  C_26
    9  A    between atoms: C_17  and  C_23
   10  A    between atoms: C_17  and  O_36
   11  A    between atoms: N_19  and  P_40
   12  A    between atoms: C_20  and  C_22
   13  A    between atoms: C_22  and  C_35
   14  A    between atoms: C_27  and  C_54
   15  A    between atoms: N_28  and  C_49
   16  A    between atoms: C_33  and  C_49
   17  A    between atoms: C_33  and  C_52
   18  A    between atoms: N_34  and  C_52
   19  A    between atoms: C_35  and  C_43
   20  A    between atoms: O_36  and  C_52
   21  A    between atoms: P_40  and  C_45
   22  A    between atoms: C_43  and  C_51
   23  A    between atoms: C_51  and  C_54
                            x       y       z     vdW  Elec       q    Type
                         _______ _______ _______ _____ _____    ______ ____

>  <TORSDO>
F 23

$$$$
=
 OpenBabel10272401293D

 55 59  0  0  1  0  0  0  0  0999 V2000
  191.5670  177.6690  140.3240 C   0  0  0  0  0  3  0  0  0  0  0  0
  191.1280  176.1910  137.9900 C   0  0  0  0  0  0  0  0  0  0  0  0
  190.0420  176.6620  138.7340 C   0  0  0  0  0  3  0  0  0  0  0  0
  192.6530  177.1940  139.5830 C   0  0  0  0  0  3  0  0  0  0  0  0
  190.2600  177.3960  139.9030 C   0  0  0  0  0  0  0  0  0  0  0  0
  192.4340  176.4550  138.4170 C   0  0  0  0  0  3  0  0  0  0  0  0
  190.8850  175.4150  136.7430 C   0  0  0  0  0  2  0  0  0  0  0  0
  191.6170  176.0460  135.5720 C   0  0  0  0  0  2  0  0  0  0  0  0
  192.0840  174.9590  134.6220 C   0  0  0  0  0  2  0  0  0  0  0  0
  193.5880  175.0590  134.4310 C   0  0  0  0  0  2  0  0  0  0  0  0
  195.5830  173.7070  134.5060 O   0  0  0  0  0  0  0  0  0  0  0  0
  194.2750  173.8350  135.0080 C   0  0  1  0  0  0  0  0  0  0  0  0
  195.4690  174.0860  135.8610 C   0  0  1  0  0  3  0  0  0  0  0  0
  195.8890  174.1140  138.8020 C   0  0  2  0  0  3  0  0  0  0  0  0
  197.8920  172.3590  135.3980 C   0  0  0  0  0  1  0  0  0  0  0  0
  195.8540  172.9050  136.7710 C   0  0  1  0  0  3  0  0  0  0  0  0
  199.5120  175.0540  139.5830 C   0  0  0  0  0  3  0  0  0  0  0  0
  197.5410  171.4240  137.5320 F   0  0  0  0  0  0  0  0  0  0  0  0
  197.3590  172.5900  136.8050 C   0  0  1  0  0  0  0  0  0  0  0  0
  195.2820  175.3230  138.4590 O   0  0  0  0  0  1  0  0  0  0  0  0
  200.2260  174.3820  138.6760 C   0  0  0  0  0  3  0  0  0  0  0  0
  199.5730  173.3630  137.7870 C   0  0  0  0  0  2  0  0  0  0  0  0
  197.3880  174.2140  138.7160 C   0  0  0  0  0  0  0  0  0  0  0  0
  198.1140  173.7430  137.4750 C   0  0  2  0  0  3  0  0  0  0  0  0
  198.0520  174.8780  139.6680 C   0  0  0  0  0  3  0  0  0  0  0  0
  195.3190  173.0290  138.0800 O   0  0  0  0  0  0  0  0  0  0  0  0
  192.4540  172.3940  135.6120 O   0  0  0  0  0  1  0  0  0  0  0  0
  193.5550  172.5180  135.0100 C   0  0  0  0  0  0  0  0  0  0  0  0
  194.1250  171.4160  134.3860 O   0  0  0  0  0  0  0  0  0  0  0  0
  189.1020  177.9330  140.6650 C   0  0  0  0  0  2  0  0  0  0  0  0
  187.9050  177.8630  139.8450 N   0  0  0  0  0  2  0  0  0  0  0  0
  186.8570  178.5470  140.5740 C   0  0  0  0  0  2  0  0  0  0  0  0
  187.3890  178.9880  141.9260 C   0  0  0  0  0  2  0  0  0  0  0  0
  186.6040  178.3810  143.1060 C   0  0  2  0  0  3  0  0  0  0  0  0
  187.6710  176.2100  142.9660 C   0  0  0  0  0  2  0  0  0  0  0  0
  189.5900  176.7630  144.3180 C   0  0  1  0  0  3  0  0  0  0  0  0
  187.3100  177.3230  143.8440 N   0  0  0  0  0  0  0  0  0  0  0  0
  188.5510  177.8530  144.4010 C   0  0  0  0  0  2  0  0  0  0  0  0
  189.0760  175.7670  143.3070 C   0  0  0  0  0  2  0  0  0  0  0  0
  190.9780  177.2950  143.9550 C   0  0  0  0  0  2  0  0  0  0  0  0
  191.7130  179.6780  144.0940 C   0  0  0  0  0  1  0  0  0  0  0  0
  191.4680  178.4040  144.8800 C   0  0  0  0  0  2  0  0  0  0  0  0
  185.3310  177.9500  142.7090 O   0  0  0  0  0  0  0  0  0  0  0  0
  184.4880  178.2180  143.7940 C   0  0  1  0  0  3  0  0  0  0  0  0
  185.2030  179.0680  144.8430 C   0  0  0  0  0  2  0  0  0  0  0  0
  186.1710  178.9750  147.1420 C   0  0  0  0  0  1  0  0  0  0  0  0
  185.0140  178.5400  146.2590 C   0  0  0  0  0  2  0  0  0  0  0  0
  183.1500  178.8420  143.3790 C   0  0  0  0  0  2  0  0  0  0  0  0
  182.8930  178.8570  141.9010 C   0  0  0  0  0  3  0  0  0  0  0  0
  181.7030  178.5240  141.4060 C   0  0  0  0  0  3  0  0  0  0  0  0
  180.3360  177.5470  139.2920 O   0  0  0  0  0  1  0  0  0  0  0  0
  182.8520  178.1130  138.8450 O   0  0  0  0  0  0  0  0  0  0  0  0
  181.4220  178.5410  139.6410 P   0  0  2  0  0  0  0  0  0  0  0  0
  180.2200  180.6780  140.1560 O   0  0  0  0  0  1  0  0  0  0  0  0
  180.9290  180.1430  139.1330 N   0  0  0  0  0  2  0  0  0  0  0  0
  2  6  2  0  0  0  0
  2  3  1  0  0  0  0
  3  5  2  0  0  0  0
  4  1  2  0  0  0  0
  5  1  1  0  0  0  0
  5 30  1  0  0  0  0
  6  4  1  0  0  0  0
  7  2  1  0  0  0  0
  8  7  1  0  0  0  0
  9  8  1  0  0  0  0
 10  9  1  0  0  0  0
 11 12  1  0  0  0  0
 12 10  1  6  0  0  0
 12 28  1  0  0  0  0
 12 13  1  0  0  0  0
 13 11  1  6  0  0  0
 13 16  1  0  0  0  0
 14 20  1  6  0  0  0
 16 19  1  0  0  0  0
 16 26  1  1  0  0  0
 17 25  1  0  0  0  0
 19 15  1  6  0  0  0
 19 24  1  0  0  0  0
 19 18  1  0  0  0  0
 21 17  2  0  0  0  0
 22 21  1  0  0  0  0
 23 14  1  0  0  0  0
 23 25  2  0  0  0  0
 24 22  1  1  0  0  0
 24 23  1  0  0  0  0
 26 14  1  0  0  0  0
 28 27  1  0  0  0  0
 29 28  2  0  0  0  0
 31 32  1  0  0  0  0
 31 30  1  0  0  0  0
 32 33  1  0  0  0  0
 34 33  1  6  0  0  0
 34 37  1  0  0  0  0
 35 39  1  0  0  0  0
 35 37  1  0  0  0  0
 36 40  1  6  0  0  0
 36 38  1  0  0  0  0
 37 38  1  0  0  0  0
 39 36  1  0  0  0  0
 40 42  1  0  0  0  0
 41 42  1  0  0  0  0
 43 34  1  0  0  0  0
 43 44  1  0  0  0  0
 44 48  1  6  0  0  0
 44 45  1  0  0  0  0
 45 47  1  0  0  0  0
 47 46  1  0  0  0  0
 49 48  1  0  0  0  0
 50 49  2  0  0  0  0
 51 53  1  0  0  0  0
 53 52  2  6  0  0  0
 53 50  1  0  0  0  0
 55 53  1  0  0  0  0
 55 54  1  0  0  0  0
M  END
>  <MODEL>
7

>  <REMARK>
 VINA RESULT:      -4.9      4.620      9.765
  Name = 
  23 active torsions:
  status: ('A' for Active; 'I' for Inactive)
    1  A    between atoms: C_2  and  N_28
    2  A    between atoms: C_2  and  C_44
    3  A    between atoms: C_6  and  C_46
    4  A    between atoms: C_10  and  C_32
    5  A    between atoms: C_10  and  C_47
    6  A    between atoms: C_15  and  C_23
    7  A    between atoms: C_16  and  C_17
    8  A    between atoms: C_16  and  C_26
    9  A    between atoms: C_17  and  C_23
   10  A    between atoms: C_17  and  O_36
   11  A    between atoms: N_19  and  P_40
   12  A    between atoms: C_20  and  C_22
   13  A    between atoms: C_22  and  C_35
   14  A    between atoms: C_27  and  C_54
   15  A    between atoms: N_28  and  C_49
   16  A    between atoms: C_33  and  C_49
   17  A    between atoms: C_33  and  C_52
   18  A    between atoms: N_34  and  C_52
   19  A    between atoms: C_35  and  C_43
   20  A    between atoms: O_36  and  C_52
   21  A    between atoms: P_40  and  C_45
   22  A    between atoms: C_43  and  C_51
   23  A    between atoms: C_51  and  C_54
                            x       y       z     vdW  Elec       q    Type
                         _______ _______ _______ _____ _____    ______ ____

>  <TORSDO>
F 23

$$$$
=
 OpenBabel10272401293D

 55 59  0  0  1  0  0  0  0  0999 V2000
  189.1150  178.5060  139.0400 C   0  0  0  0  0  3  0  0  0  0  0  0
  189.8040  176.9990  136.7850 C   0  0  0  0  0  0  0  0  0  0  0  0
  189.8740  176.4250  138.0580 C   0  0  0  0  0  3  0  0  0  0  0  0
  189.0500  179.0820  137.7680 C   0  0  0  0  0  3  0  0  0  0  0  0
  189.5340  177.1780  139.1860 C   0  0  0  0  0  0  0  0  0  0  0  0
  189.3950  178.3300  136.6410 C   0  0  0  0  0  3  0  0  0  0  0  0
  190.1620  176.1870  135.5900 C   0  0  0  0  0  2  0  0  0  0  0  0
  191.6690  176.0330  135.4840 C   0  0  0  0  0  2  0  0  0  0  0  0
  192.0060  174.6040  135.1020 C   0  0  0  0  0  2  0  0  0  0  0  0
  193.3950  174.5520  134.4890 C   0  0  0  0  0  2  0  0  0  0  0  0
  195.4830  173.3460  134.5280 O   0  0  0  0  0  0  0  0  0  0  0  0
  194.1930  173.4080  135.0870 C   0  0  1  0  0  0  0  0  0  0  0  0
  195.4030  173.7800  135.8700 C   0  0  1  0  0  3  0  0  0  0  0  0
  195.7460  173.9120  138.8180 C   0  0  2  0  0  3  0  0  0  0  0  0
  198.0330  172.3640  135.4930 C   0  0  0  0  0  1  0  0  0  0  0  0
  195.9110  172.6730  136.8100 C   0  0  1  0  0  3  0  0  0  0  0  0
  199.2040  175.3120  139.6560 C   0  0  0  0  0  3  0  0  0  0  0  0
  197.7520  171.4290  137.6370 F   0  0  0  0  0  0  0  0  0  0  0  0
  197.4430  172.5500  136.8830 C   0  0  1  0  0  0  0  0  0  0  0  0
  195.0010  175.0280  138.4370 O   0  0  0  0  0  1  0  0  0  0  0  0
  200.0180  174.7200  138.7780 C   0  0  0  0  0  3  0  0  0  0  0  0
  199.5190  173.6120  137.8970 C   0  0  0  0  0  2  0  0  0  0  0  0
  197.2230  174.1970  138.7610 C   0  0  0  0  0  0  0  0  0  0  0  0
  198.0310  173.8000  137.5460 C   0  0  2  0  0  3  0  0  0  0  0  0
  197.7760  174.9560  139.7140 C   0  0  0  0  0  3  0  0  0  0  0  0
  195.3340  172.7510  138.1060 O   0  0  0  0  0  0  0  0  0  0  0  0
  192.5230  171.8690  135.8610 O   0  0  0  0  0  1  0  0  0  0  0  0
  193.5690  172.0450  135.1800 C   0  0  0  0  0  0  0  0  0  0  0  0
  194.1720  170.9620  134.5530 O   0  0  0  0  0  0  0  0  0  0  0  0
  189.5650  176.5480  140.5320 C   0  0  0  0  0  2  0  0  0  0  0  0
  190.9260  176.5560  141.0410 N   0  0  0  0  0  2  0  0  0  0  0  0
  190.9780  177.5610  142.0830 C   0  0  0  0  0  2  0  0  0  0  0  0
  190.0150  177.1840  143.1960 C   0  0  0  0  0  2  0  0  0  0  0  0
  189.7570  178.3400  144.1830 C   0  0  2  0  0  3  0  0  0  0  0  0
  189.6320  177.7640  146.5340 C   0  0  0  0  0  2  0  0  0  0  0  0
  191.7190  176.5600  146.6300 C   0  0  1  0  0  3  0  0  0  0  0  0
  190.4910  178.2480  145.4540 N   0  0  0  0  0  0  0  0  0  0  0  0
  191.5920  177.2970  145.3200 C   0  0  0  0  0  2  0  0  0  0  0  0
  190.4120  176.7650  147.3570 C   0  0  0  0  0  2  0  0  0  0  0  0
  192.0560  175.0790  146.4450 C   0  0  0  0  0  2  0  0  0  0  0  0
  192.2010  173.1630  144.8510 C   0  0  0  0  0  1  0  0  0  0  0  0
  192.2420  174.6720  144.9870 C   0  0  0  0  0  2  0  0  0  0  0  0
  188.3860  178.5230  144.4100 O   0  0  0  0  0  0  0  0  0  0  0  0
  187.7410  177.8820  143.3440 C   0  0  1  0  0  3  0  0  0  0  0  0
  186.4260  177.2540  143.8020 C   0  0  0  0  0  2  0  0  0  0  0  0
  184.5270  178.4040  144.9430 C   0  0  0  0  0  1  0  0  0  0  0  0
  185.9230  177.8330  145.1180 C   0  0  0  0  0  2  0  0  0  0  0  0
  187.5380  178.7930  142.1260 C   0  0  0  0  0  2  0  0  0  0  0  0
  186.1120  178.9540  141.6910 C   0  0  0  0  0  3  0  0  0  0  0  0
  185.7390  178.6780  140.4430 C   0  0  0  0  0  3  0  0  0  0  0  0
  183.8820  180.1900  139.1940 O   0  0  0  0  0  0  0  0  0  0  0  0
  183.0490  178.9100  141.3190 O   0  0  0  0  0  1  0  0  0  0  0  0
  184.0340  178.8850  139.9440 P   0  0  2  0  0  0  0  0  0  0  0  0
  182.5440  176.9120  139.5380 O   0  0  0  0  0  1  0  0  0  0  0  0
  183.5540  177.5590  138.9060 N   0  0  0  0  0  2  0  0  0  0  0  0
  1  5  1  0  0  0  0
  2  3  1  0  0  0  0
  3  5  2  0  0  0  0
  4  1  2  0  0  0  0
  5 30  1  0  0  0  0
  6  2  2  0  0  0  0
  6  4  1  0  0  0  0
  7  2  1  0  0  0  0
  8  7  1  0  0  0  0
  9  8  1  0  0  0  0
 10  9  1  0  0  0  0
 11 12  1  0  0  0  0
 12 10  1  6  0  0  0
 12 28  1  0  0  0  0
 12 13  1  0  0  0  0
 13 11  1  6  0  0  0
 13 16  1  0  0  0  0
 14 20  1  6  0  0  0
 16 19  1  0  0  0  0
 16 26  1  1  0  0  0
 17 25  1  0  0  0  0
 19 15  1  6  0  0  0
 19 24  1  0  0  0  0
 19 18  1  0  0  0  0
 21 17  2  0  0  0  0
 22 21  1  0  0  0  0
 23 14  1  0  0  0  0
 23 25  2  0  0  0  0
 24 22  1  1  0  0  0
 24 23  1  0  0  0  0
 26 14  1  0  0  0  0
 28 27  1  0  0  0  0
 29 28  2  0  0  0  0
 30 31  1  0  0  0  0
 31 32  1  0  0  0  0
 32 33  1  0  0  0  0
 34 33  1  1  0  0  0
 34 43  1  0  0  0  0
 34 37  1  0  0  0  0
 35 39  1  0  0  0  0
 36 40  1  6  0  0  0
 36 39  1  0  0  0  0
 37 35  1  0  0  0  0
 38 37  1  0  0  0  0
 38 36  1  0  0  0  0
 41 42  1  0  0  0  0
 42 40  1  0  0  0  0
 44 48  1  6  0  0  0
 44 45  1  0  0  0  0
 44 43  1  0  0  0  0
 45 47  1  0  0  0  0
 46 47  1  0  0  0  0
 49 48  1  0  0  0  0
 50 49  2  0  0  0  0
 53 51  2  6  0  0  0
 53 50  1  0  0  0  0
 53 52  1  0  0  0  0
 55 54  1  0  0  0  0
 55 53  1  0  0  0  0
M  END
>  <MODEL>
8

>  <REMARK>
 VINA RESULT:      -4.8      4.809     10.074
  Name = 
  23 active torsions:
  status: ('A' for Active; 'I' for Inactive)
    1  A    between atoms: C_2  and  N_28
    2  A    between atoms: C_2  and  C_44
    3  A    between atoms: C_6  and  C_46
    4  A    between atoms: C_10  and  C_32
    5  A    between atoms: C_10  and  C_47
    6  A    between atoms: C_15  and  C_23
    7  A    between atoms: C_16  and  C_17
    8  A    between atoms: C_16  and  C_26
    9  A    between atoms: C_17  and  C_23
   10  A    between atoms: C_17  and  O_36
   11  A    between atoms: N_19  and  P_40
   12  A    between atoms: C_20  and  C_22
   13  A    between atoms: C_22  and  C_35
   14  A    between atoms: C_27  and  C_54
   15  A    between atoms: N_28  and  C_49
   16  A    between atoms: C_33  and  C_49
   17  A    between atoms: C_33  and  C_52
   18  A    between atoms: N_34  and  C_52
   19  A    between atoms: C_35  and  C_43
   20  A    between atoms: O_36  and  C_52
   21  A    between atoms: P_40  and  C_45
   22  A    between atoms: C_43  and  C_51
   23  A    between atoms: C_51  and  C_54
                            x       y       z     vdW  Elec       q    Type
                         _______ _______ _______ _____ _____    ______ ____

>  <TORSDO>
F 23

$$$$
=
 OpenBabel10272401293D

 55 59  0  0  1  0  0  0  0  0999 V2000
  191.4090  177.4280  141.6230 C   0  0  0  0  0  3  0  0  0  0  0  0
  190.9680  177.0670  138.8840 C   0  0  0  0  0  0  0  0  0  0  0  0
  189.8870  177.0860  139.7700 C   0  0  0  0  0  3  0  0  0  0  0  0
  192.4920  177.4030  140.7390 C   0  0  0  0  0  3  0  0  0  0  0  0
  190.1060  177.2620  141.1390 C   0  0  0  0  0  0  0  0  0  0  0  0
  192.2710  177.2210  139.3700 C   0  0  0  0  0  3  0  0  0  0  0  0
  190.7240  176.8840  137.4270 C   0  0  0  0  0  2  0  0  0  0  0  0
  190.9430  175.4360  137.0280 C   0  0  0  0  0  2  0  0  0  0  0  0
  192.1400  174.8800  137.7760 C   0  0  0  0  0  2  0  0  0  0  0  0
  193.0090  174.0750  136.8250 C   0  0  0  0  0  2  0  0  0  0  0  0
  194.9910  175.0570  137.7840 O   0  0  0  0  0  0  0  0  0  0  0  0
  194.3220  174.7920  136.5750 C   0  0  1  0  0  0  0  0  0  0  0  0
  195.5610  174.0630  136.9610 C   0  0  1  0  0  3  0  0  0  0  0  0
  197.0740  172.8790  134.6940 C   0  0  2  0  0  3  0  0  0  0  0  0
  198.0790  174.6880  138.4890 C   0  0  0  0  0  1  0  0  0  0  0  0
  196.8420  174.6010  136.2990 C   0  0  1  0  0  3  0  0  0  0  0  0
  199.6030  170.3340  136.0150 C   0  0  0  0  0  3  0  0  0  0  0  0
  199.1890  174.9090  136.4220 F   0  0  0  0  0  0  0  0  0  0  0  0
  198.1430  174.2390  137.0360 C   0  0  1  0  0  0  0  0  0  0  0  0
  195.8470  172.2190  134.7630 O   0  0  0  0  0  1  0  0  0  0  0  0
  200.1110  170.9150  137.1050 C   0  0  0  0  0  3  0  0  0  0  0  0
  199.7920  172.3450  137.4320 C   0  0  0  0  0  2  0  0  0  0  0  0
  198.1020  172.2090  135.5640 C   0  0  0  0  0  0  0  0  0  0  0  0
  198.3770  172.7270  136.9590 C   0  0  2  0  0  3  0  0  0  0  0  0
  198.6430  171.0540  135.1610 C   0  0  0  0  0  3  0  0  0  0  0  0
  196.9200  174.2750  134.9190 O   0  0  0  0  0  0  0  0  0  0  0  0
  194.2470  175.8300  134.4130 O   0  0  0  0  0  0  0  0  0  0  0  0
  194.3480  175.9830  135.6600 C   0  0  0  0  0  0  0  0  0  0  0  0
  194.5330  177.2560  136.1840 O   0  0  0  0  0  1  0  0  0  0  0  0
  188.9500  177.3300  142.0700 C   0  0  0  0  0  2  0  0  0  0  0  0
  187.7320  177.5810  141.3170 N   0  0  0  0  0  2  0  0  0  0  0  0
  186.9430  178.5130  142.0950 C   0  0  0  0  0  2  0  0  0  0  0  0
  185.5630  177.9270  142.3370 C   0  0  0  0  0  2  0  0  0  0  0  0
  184.4920  179.0030  142.6040 C   0  0  2  0  0  3  0  0  0  0  0  0
  183.6530  178.5880  144.8390 C   0  0  0  0  0  2  0  0  0  0  0  0
  185.6880  179.1550  146.0030 C   0  0  1  0  0  3  0  0  0  0  0  0
  184.4320  179.4890  143.9910 N   0  0  0  0  0  0  0  0  0  0  0  0
  185.7790  179.5520  144.5510 C   0  0  0  0  0  2  0  0  0  0  0  0
  184.3720  178.4320  146.1600 C   0  0  0  0  0  2  0  0  0  0  0  0
  186.8750  178.3050  146.4600 C   0  0  0  0  0  2  0  0  0  0  0  0
  188.8400  177.0690  145.5400 C   0  0  0  0  0  1  0  0  0  0  0  0
  187.3470  177.3020  145.4130 C   0  0  0  0  0  2  0  0  0  0  0  0
  183.2270  178.5880  142.1640 O   0  0  0  0  0  0  0  0  0  0  0  0
  183.3890  178.2640  140.8110 C   0  0  1  0  0  3  0  0  0  0  0  0
  182.0350  178.0770  140.1300 C   0  0  0  0  0  2  0  0  0  0  0  0
  179.9910  179.5070  140.2100 C   0  0  0  0  0  1  0  0  0  0  0  0
  181.4110  179.3940  139.6850 C   0  0  0  0  0  2  0  0  0  0  0  0
  184.2700  179.2650  140.0520 C   0  0  0  0  0  2  0  0  0  0  0  0
  184.7200  178.8060  138.6970 C   0  0  0  0  0  3  0  0  0  0  0  0
  185.2720  177.6070  138.5250 C   0  0  0  0  0  3  0  0  0  0  0  0
  186.1700  178.2970  136.0750 O   0  0  0  0  0  0  0  0  0  0  0  0
  184.5530  176.2410  136.1440 O   0  0  0  0  0  1  0  0  0  0  0  0
  185.8080  177.0840  136.9020 P   0  0  2  0  0  0  0  0  0  0  0  0
  187.3100  175.3580  135.8810 O   0  0  0  0  0  1  0  0  0  0  0  0
  187.2080  176.0410  137.0470 N   0  0  0  0  0  2  0  0  0  0  0  0
  2  6  2  0  0  0  0
  2  3  1  0  0  0  0
  3  5  2  0  0  0  0
  4  1  2  0  0  0  0
  5  1  1  0  0  0  0
  5 30  1  0  0  0  0
  6  4  1  0  0  0  0
  7  2  1  0  0  0  0
  8  7  1  0  0  0  0
  8  9  1  0  0  0  0
 10  9  1  0  0  0  0
 12 10  1  1  0  0  0
 12 13  1  0  0  0  0
 12 11  1  0  0  0  0
 13 11  1  1  0  0  0
 14 20  1  1  0  0  0
 14 26  1  0  0  0  0
 14 23  1  0  0  0  0
 16 26  1  6  0  0  0
 16 13  1  0  0  0  0
 16 19  1  0  0  0  0
 17 21  2  0  0  0  0
 18 19  1  0  0  0  0
 19 15  1  1  0  0  0
 21 22  1  0  0  0  0
 23 24  1  0  0  0  0
 24 19  1  0  0  0  0
 24 22  1  6  0  0  0
 25 23  2  0  0  0  0
 25 17  1  0  0  0  0
 27 28  2  0  0  0  0
 28 29  1  0  0  0  0
 28 12  1  0  0  0  0
 31 30  1  0  0  0  0
 31 32  1  0  0  0  0
 32 33  1  0  0  0  0
 34 33  1  1  0  0  0
 34 37  1  0  0  0  0
 35 39  1  0  0  0  0
 36 39  1  0  0  0  0
 36 40  1  6  0  0  0
 37 38  1  0  0  0  0
 37 35  1  0  0  0  0
 38 36  1  0  0  0  0
 42 41  1  0  0  0  0
 42 40  1  0  0  0  0
 43 34  1  0  0  0  0
 44 48  1  6  0  0  0
 44 43  1  0  0  0  0
 45 44  1  0  0  0  0
 47 45  1  0  0  0  0
 47 46  1  0  0  0  0
 49 48  1  0  0  0  0
 50 49  2  0  0  0  0
 52 53  1  0  0  0  0
 53 51  2  6  0  0  0
 53 55  1  0  0  0  0
 53 50  1  0  0  0  0
 54 55  1  0  0  0  0
M  END
>  <MODEL>
9

>  <REMARK>
 VINA RESULT:      -4.7      5.001     10.208
  Name = 
  23 active torsions:
  status: ('A' for Active; 'I' for Inactive)
    1  A    between atoms: C_2  and  N_28
    2  A    between atoms: C_2  and  C_44
    3  A    between atoms: C_6  and  C_46
    4  A    between atoms: C_10  and  C_32
    5  A    between atoms: C_10  and  C_47
    6  A    between atoms: C_15  and  C_23
    7  A    between atoms: C_16  and  C_17
    8  A    between atoms: C_16  and  C_26
    9  A    between atoms: C_17  and  C_23
   10  A    between atoms: C_17  and  O_36
   11  A    between atoms: N_19  and  P_40
   12  A    between atoms: C_20  and  C_22
   13  A    between atoms: C_22  and  C_35
   14  A    between atoms: C_27  and  C_54
   15  A    between atoms: N_28  and  C_49
   16  A    between atoms: C_33  and  C_49
   17  A    between atoms: C_33  and  C_52
   18  A    between atoms: N_34  and  C_52
   19  A    between atoms: C_35  and  C_43
   20  A    between atoms: O_36  and  C_52
   21  A    between atoms: P_40  and  C_45
   22  A    between atoms: C_43  and  C_51
   23  A    between atoms: C_51  and  C_54
                            x       y       z     vdW  Elec       q    Type
                         _______ _______ _______ _____ _____    ______ ____

>  <TORSDO>
F 23

$$$$
