=
 OpenBabel10272401583D

 28 31  0  0  1  0  0  0  0  0999 V2000
  184.6760  178.4300  143.0600 C   0  0  0  0  0  0  0  0  0  0  0  0
  186.2500  178.4930  147.5730 O   0  0  0  0  0  0  0  0  0  0  0  0
  187.8440  177.0010  144.5760 C   0  0  2  0  0  3  0  0  0  0  0  0
  185.4050  178.4210  145.3690 C   0  0  0  0  0  0  0  0  0  0  0  0
  186.9300  177.6330  143.6250 N   0  0  0  0  0  2  0  0  0  0  0  0
  183.2150  179.1720  144.8400 C   0  0  0  0  0  3  0  0  0  0  0  0
  186.4680  178.2070  146.3630 C   0  0  0  0  0  0  0  0  0  0  0  0
  184.1950  178.9160  145.7470 N   0  0  0  0  0  0  0  0  0  0  0  0
  187.8460  177.7490  145.9330 C   0  0  1  0  0  3  0  0  0  0  0  0
  183.4390  178.9380  143.4830 C   0  0  0  0  0  3  0  0  0  0  0  0
  185.6610  178.1570  144.0180 C   0  0  0  0  0  0  0  0  0  0  0  0
  189.9180  178.2990  143.9350 C   0  0  0  0  0  2  0  0  0  0  0  0
  189.1930  176.4010  142.6280 O   0  0  0  0  0  0  0  0  0  0  0  0
  191.2190  177.4620  141.9660 C   0  0  0  0  0  0  0  0  0  0  0  0
  189.2460  176.9250  143.9570 C   0  0  2  0  0  3  0  0  0  0  0  0
  190.2210  176.6150  141.7010 C   0  0  0  0  0  3  0  0  0  0  0  0
  192.2120  177.6300  141.0610 F   0  0  0  0  0  0  0  0  0  0  0  0
  191.2960  178.1690  143.2900 C   0  0  0  0  0  2  0  0  0  0  0  0
  188.5300  176.9330  147.0370 C   0  0  0  0  0  2  0  0  0  0  0  0
  189.6250  177.7200  147.7420 C   0  0  0  0  0  1  0  0  0  0  0  0
  184.9490  178.1820  141.7060 O   0  0  0  0  0  0  0  0  0  0  0  0
  184.0170  178.3460  140.6350 C   0  0  2  0  0  3  0  0  0  0  0  0
  183.9560  178.0760  138.2840 C   0  0  1  0  0  3  0  0  0  0  0  0
  183.3260  177.1520  140.3820 O   0  0  0  0  0  0  0  0  0  0  0  0
  184.5410  180.1750  139.2110 O   0  0  0  0  0  1  0  0  0  0  0  0
  184.7020  178.7990  139.3650 C   0  0  1  0  0  3  0  0  0  0  0  0
  184.9150  177.1790  137.5250 C   0  0  0  0  0  1  0  0  0  0  0  0
  182.9500  177.2250  139.0310 C   0  0  0  0  0  2  0  0  0  0  0  0
  1 10  2  0  0  0  0
  1 11  1  0  0  0  0
  3  5  1  6  0  0  0
  3  9  1  0  0  0  0
  4  8  1  0  0  0  0
  4  7  1  0  0  0  0
  5 11  1  0  0  0  0
  6  8  2  0  0  0  0
  7  2  2  0  0  0  0
  9  7  1  0  0  0  0
  9 19  1  1  0  0  0
 10  6  1  0  0  0  0
 11  4  2  0  0  0  0
 13 15  1  0  0  0  0
 14 18  1  0  0  0  0
 15 12  1  6  0  0  0
 15  3  1  0  0  0  0
 16 14  2  0  0  0  0
 16 13  1  0  0  0  0
 17 14  1  0  0  0  0
 18 12  1  0  0  0  0
 19 20  1  0  0  0  0
 21  1  1  0  0  0  0
 22 21  1  1  0  0  0
 23 27  1  1  0  0  0
 23 28  1  0  0  0  0
 23 26  1  0  0  0  0
 24 22  1  0  0  0  0
 26 25  1  6  0  0  0
 26 22  1  0  0  0  0
 28 24  1  0  0  0  0
M  END
>  <MODEL>
1

>  <REMARK>
 VINA RESULT:      -9.8      0.000      0.000
  Name = 
  4 active torsions:
  status: ('A' for Active; 'I' for Inactive)
    1  A    between atoms: C_1  and  O_2
    2  A    between atoms: O_2  and  C_3
    3  A    between atoms: C_10  and  C_13
    4  A    between atoms: C_14  and  C_25
                            x       y       z     vdW  Elec       q    Type
                         _______ _______ _______ _____ _____    ______ ____

>  <TORSDO>
F 4

$$$$
=
 OpenBabel10272401583D

 28 31  0  0  1  0  0  0  0  0999 V2000
  184.7090  178.3960  142.6930 C   0  0  0  0  0  0  0  0  0  0  0  0
  185.5090  178.9830  147.3690 O   0  0  0  0  0  0  0  0  0  0  0  0
  187.5400  177.1350  144.8770 C   0  0  2  0  0  3  0  0  0  0  0  0
  185.0420  178.6560  145.0770 C   0  0  0  0  0  0  0  0  0  0  0  0
  186.8140  177.6560  143.7180 N   0  0  0  0  0  2  0  0  0  0  0  0
  182.9920  179.3550  144.1030 C   0  0  0  0  0  3  0  0  0  0  0  0
  185.9180  178.5540  146.2540 C   0  0  0  0  0  0  0  0  0  0  0  0
  183.7990  179.2010  145.1850 N   0  0  0  0  0  0  0  0  0  0  0  0
  187.3360  178.0390  146.1190 C   0  0  1  0  0  3  0  0  0  0  0  0
  183.4330  178.9600  142.8400 C   0  0  0  0  0  3  0  0  0  0  0  0
  185.5120  178.2320  143.8290 C   0  0  0  0  0  0  0  0  0  0  0  0
  189.6890  178.3360  144.2990 C   0  0  0  0  0  2  0  0  0  0  0  0
  189.1830  176.1750  143.3430 O   0  0  0  0  0  0  0  0  0  0  0  0
  191.2890  177.1390  142.7890 C   0  0  0  0  0  0  0  0  0  0  0  0
  189.0230  176.9760  144.5160 C   0  0  2  0  0  3  0  0  0  0  0  0
  190.3470  176.2210  142.5640 C   0  0  0  0  0  3  0  0  0  0  0  0
  192.4140  177.1430  142.0350 F   0  0  0  0  0  0  0  0  0  0  0  0
  191.1530  178.1180  143.9210 C   0  0  0  0  0  2  0  0  0  0  0  0
  187.8040  177.3550  147.4100 C   0  0  0  0  0  2  0  0  0  0  0  0
  188.8750  178.1580  148.1320 C   0  0  0  0  0  1  0  0  0  0  0  0
  185.1970  177.9880  141.4420 O   0  0  0  0  0  0  0  0  0  0  0  0
  184.6200  178.3330  140.1810 C   0  0  2  0  0  3  0  0  0  0  0  0
  182.4880  178.8600  139.2970 C   0  0  1  0  0  3  0  0  0  0  0  0
  184.5850  179.7250  140.0080 O   0  0  0  0  0  0  0  0  0  0  0  0
  183.2450  176.6170  139.2810 O   0  0  0  0  0  1  0  0  0  0  0  0
  183.2170  177.7840  140.0430 C   0  0  1  0  0  3  0  0  0  0  0  0
  181.3380  179.3690  140.1440 C   0  0  0  0  0  1  0  0  0  0  0  0
  183.5170  179.9580  139.1260 C   0  0  0  0  0  2  0  0  0  0  0  0
  1 10  2  0  0  0  0
  1 11  1  0  0  0  0
  3  5  1  6  0  0  0
  3  9  1  0  0  0  0
  4  8  1  0  0  0  0
  4  7  1  0  0  0  0
  5 11  1  0  0  0  0
  6  8  2  0  0  0  0
  7  2  2  0  0  0  0
  9  7  1  0  0  0  0
  9 19  1  1  0  0  0
 10  6  1  0  0  0  0
 11  4  2  0  0  0  0
 13 15  1  0  0  0  0
 14 18  1  0  0  0  0
 15 12  1  6  0  0  0
 15  3  1  0  0  0  0
 16 14  2  0  0  0  0
 16 13  1  0  0  0  0
 17 14  1  0  0  0  0
 18 12  1  0  0  0  0
 19 20  1  0  0  0  0
 21  1  1  0  0  0  0
 22 21  1  1  0  0  0
 23 26  1  0  0  0  0
 23 27  1  1  0  0  0
 24 22  1  0  0  0  0
 26 25  1  6  0  0  0
 26 22  1  0  0  0  0
 28 23  1  0  0  0  0
 28 24  1  0  0  0  0
M  END
>  <MODEL>
2

>  <REMARK>
 VINA RESULT:      -8.9      1.013      1.618
  Name = 
  4 active torsions:
  status: ('A' for Active; 'I' for Inactive)
    1  A    between atoms: C_1  and  O_2
    2  A    between atoms: O_2  and  C_3
    3  A    between atoms: C_10  and  C_13
    4  A    between atoms: C_14  and  C_25
                            x       y       z     vdW  Elec       q    Type
                         _______ _______ _______ _____ _____    ______ ____

>  <TORSDO>
F 4

$$$$
=
 OpenBabel10272401583D

 28 31  0  0  1  0  0  0  0  0999 V2000
  186.3160  178.5050  140.4730 C   0  0  0  0  0  0  0  0  0  0  0  0
  183.7480  178.8100  144.4930 O   0  0  0  0  0  0  0  0  0  0  0  0
  187.2510  177.6770  144.0530 C   0  0  2  0  0  3  0  0  0  0  0  0
  184.9610  178.6070  142.4770 C   0  0  0  0  0  0  0  0  0  0  0  0
  187.3550  178.1380  142.6690 N   0  0  0  0  0  2  0  0  0  0  0  0
  183.9390  178.9410  140.3590 C   0  0  0  0  0  3  0  0  0  0  0  0
  184.8620  178.5840  143.9450 C   0  0  0  0  0  0  0  0  0  0  0  0
  183.8630  178.8620  141.7140 N   0  0  0  0  0  0  0  0  0  0  0  0
  186.0990  178.3970  144.7980 C   0  0  1  0  0  3  0  0  0  0  0  0
  185.1650  178.7690  139.7170 C   0  0  0  0  0  3  0  0  0  0  0  0
  186.2050  178.4100  141.8670 C   0  0  0  0  0  0  0  0  0  0  0  0
  189.7640  177.5140  143.8260 C   0  0  0  0  0  2  0  0  0  0  0  0
  188.6830  177.0810  145.9430 O   0  0  0  0  0  0  0  0  0  0  0  0
  191.0620  176.9910  145.9040 C   0  0  0  0  0  0  0  0  0  0  0  0
  188.6020  177.8710  144.7540 C   0  0  2  0  0  3  0  0  0  0  0  0
  189.9090  176.7370  146.5270 C   0  0  0  0  0  3  0  0  0  0  0  0
  192.2320  176.6700  146.5040 F   0  0  0  0  0  0  0  0  0  0  0  0
  191.0790  177.7030  144.5800 C   0  0  0  0  0  2  0  0  0  0  0  0
  185.7580  177.7110  146.1270 C   0  0  0  0  0  2  0  0  0  0  0  0
  185.8290  178.6690  147.3070 C   0  0  0  0  0  1  0  0  0  0  0  0
  187.5720  178.3280  139.8720 O   0  0  0  0  0  0  0  0  0  0  0  0
  187.7880  178.0500  138.4860 C   0  0  2  0  0  3  0  0  0  0  0  0
  189.5880  177.4870  137.0550 C   0  0  1  0  0  3  0  0  0  0  0  0
  187.6860  176.6750  138.2280 O   0  0  0  0  0  0  0  0  0  0  0  0
  189.0000  179.7600  137.3670 O   0  0  0  0  0  1  0  0  0  0  0  0
  189.1430  178.5390  138.0260 C   0  0  1  0  0  3  0  0  0  0  0  0
  190.8790  176.8610  137.5480 C   0  0  0  0  0  1  0  0  0  0  0  0
  188.4790  176.4560  137.0900 C   0  0  0  0  0  2  0  0  0  0  0  0
  1 11  1  0  0  0  0
  3  5  1  6  0  0  0
  3 15  1  0  0  0  0
  3  9  1  0  0  0  0
  4  7  1  0  0  0  0
  6  8  2  0  0  0  0
  7  2  2  0  0  0  0
  7  9  1  0  0  0  0
  8  4  1  0  0  0  0
  9 19  1  1  0  0  0
 10  6  1  0  0  0  0
 10  1  2  0  0  0  0
 11  4  2  0  0  0  0
 11  5  1  0  0  0  0
 12 18  1  0  0  0  0
 13 16  1  0  0  0  0
 14 17  1  0  0  0  0
 14 16  2  0  0  0  0
 15 12  1  6  0  0  0
 15 13  1  0  0  0  0
 18 14  1  0  0  0  0
 19 20  1  0  0  0  0
 21  1  1  0  0  0  0
 22 21  1  1  0  0  0
 23 28  1  0  0  0  0
 23 27  1  1  0  0  0
 23 26  1  0  0  0  0
 24 22  1  0  0  0  0
 26 25  1  6  0  0  0
 26 22  1  0  0  0  0
 28 24  1  0  0  0  0
M  END
>  <MODEL>
3

>  <REMARK>
 VINA RESULT:      -8.4      2.864      3.881
  Name = 
  4 active torsions:
  status: ('A' for Active; 'I' for Inactive)
    1  A    between atoms: C_1  and  O_2
    2  A    between atoms: O_2  and  C_3
    3  A    between atoms: C_10  and  C_13
    4  A    between atoms: C_14  and  C_25
                            x       y       z     vdW  Elec       q    Type
                         _______ _______ _______ _____ _____    ______ ____

>  <TORSDO>
F 4

$$$$
=
 OpenBabel10272401583D

 28 31  0  0  1  0  0  0  0  0999 V2000
  185.9820  177.7770  144.1550 C   0  0  0  0  0  0  0  0  0  0  0  0
  190.3880  178.0720  145.9850 O   0  0  0  0  0  0  0  0  0  0  0  0
  189.3610  177.2390  142.5210 C   0  0  2  0  0  3  0  0  0  0  0  0
  188.1940  177.8670  145.1360 C   0  0  0  0  0  0  0  0  0  0  0  0
  187.9640  177.6290  142.7120 N   0  0  0  0  0  2  0  0  0  0  0  0
  186.2870  177.9880  146.5470 C   0  0  0  0  0  3  0  0  0  0  0  0
  189.6550  177.9180  144.9700 C   0  0  0  0  0  0  0  0  0  0  0  0
  187.6350  177.9790  146.3720 N   0  0  0  0  0  0  0  0  0  0  0  0
  190.2750  177.8920  143.5880 C   0  0  1  0  0  3  0  0  0  0  0  0
  185.4390  177.8920  145.4430 C   0  0  0  0  0  3  0  0  0  0  0  0
  187.3750  177.7500  144.0070 C   0  0  0  0  0  0  0  0  0  0  0  0
  188.6140  178.0970  140.2630 C   0  0  0  0  0  2  0  0  0  0  0  0
  190.3890  176.4680  140.4410 O   0  0  0  0  0  0  0  0  0  0  0  0
  189.8620  177.2620  138.2590 C   0  0  0  0  0  0  0  0  0  0  0  0
  189.7960  177.5940  141.0930 C   0  0  2  0  0  3  0  0  0  0  0  0
  190.4790  176.3780  139.0470 C   0  0  0  0  0  3  0  0  0  0  0  0
  189.9880  177.1630  136.9150 F   0  0  0  0  0  0  0  0  0  0  0  0
  189.0970  178.4140  138.8490 C   0  0  0  0  0  2  0  0  0  0  0  0
  191.6700  177.2530  143.6180 C   0  0  0  0  0  2  0  0  0  0  0  0
  191.6070  175.7360  143.7280 C   0  0  0  0  0  1  0  0  0  0  0  0
  185.1690  177.6810  143.0160 O   0  0  0  0  0  0  0  0  0  0  0  0
  184.2680  178.6940  142.5620 C   0  0  2  0  0  3  0  0  0  0  0  0
  182.5810  178.9540  140.9210 C   0  0  1  0  0  3  0  0  0  0  0  0
  183.0370  178.6070  143.2280 O   0  0  0  0  0  0  0  0  0  0  0  0
  184.8180  179.5380  140.4100 O   0  0  0  0  0  1  0  0  0  0  0  0
  184.0290  178.5980  141.0710 C   0  0  1  0  0  3  0  0  0  0  0  0
  181.8380  177.7880  140.2990 C   0  0  0  0  0  1  0  0  0  0  0  0
  182.1000  179.1620  142.3420 C   0  0  0  0  0  2  0  0  0  0  0  0
  1 10  1  0  0  0  0
  3  5  1  1  0  0  0
  3  9  1  0  0  0  0
  4  8  2  0  0  0  0
  5 11  1  0  0  0  0
  7  4  1  0  0  0  0
  7  2  2  0  0  0  0
  8  6  1  0  0  0  0
  9 19  1  1  0  0  0
  9  7  1  0  0  0  0
 10  6  2  0  0  0  0
 11  1  2  0  0  0  0
 11  4  1  0  0  0  0
 13 15  1  0  0  0  0
 14 18  1  0  0  0  0
 14 16  2  0  0  0  0
 15 12  1  6  0  0  0
 15  3  1  0  0  0  0
 16 13  1  0  0  0  0
 17 14  1  0  0  0  0
 18 12  1  0  0  0  0
 19 20  1  0  0  0  0
 21  1  1  0  0  0  0
 22 21  1  1  0  0  0
 22 24  1  0  0  0  0
 23 27  1  1  0  0  0
 23 26  1  0  0  0  0
 23 28  1  0  0  0  0
 26 25  1  6  0  0  0
 26 22  1  0  0  0  0
 28 24  1  0  0  0  0
M  END
>  <MODEL>
4

>  <REMARK>
 VINA RESULT:      -8.2      2.211      3.339
  Name = 
  4 active torsions:
  status: ('A' for Active; 'I' for Inactive)
    1  A    between atoms: C_1  and  O_2
    2  A    between atoms: O_2  and  C_3
    3  A    between atoms: C_10  and  C_13
    4  A    between atoms: C_14  and  C_25
                            x       y       z     vdW  Elec       q    Type
                         _______ _______ _______ _____ _____    ______ ____

>  <TORSDO>
F 4

$$$$
=
 OpenBabel10272401583D

 28 31  0  0  1  0  0  0  0  0999 V2000
  189.3120  176.7700  141.1870 C   0  0  0  0  0  0  0  0  0  0  0  0
  185.4150  179.5380  141.2050 O   0  0  0  0  0  0  0  0  0  0  0  0
  186.6200  177.2060  143.8230 C   0  0  2  0  0  3  0  0  0  0  0  0
  187.3110  178.1330  141.1290 C   0  0  0  0  0  0  0  0  0  0  0  0
  187.9310  176.9970  143.2060 N   0  0  0  0  0  2  0  0  0  0  0  0
  188.6240  177.9030  139.1630 C   0  0  0  0  0  3  0  0  0  0  0  0
  186.1710  178.7440  141.8300 C   0  0  0  0  0  0  0  0  0  0  0  0
  187.5480  178.4130  139.8190 N   0  0  0  0  0  0  0  0  0  0  0  0
  185.9620  178.5120  143.3120 C   0  0  1  0  0  3  0  0  0  0  0  0
  189.5250  177.0780  139.8360 C   0  0  0  0  0  3  0  0  0  0  0  0
  188.1840  177.2940  141.8320 C   0  0  0  0  0  0  0  0  0  0  0  0
  186.3390  178.5300  145.9590 C   0  0  0  0  0  2  0  0  0  0  0  0
  188.1220  176.9150  145.7300 O   0  0  0  0  0  0  0  0  0  0  0  0
  187.9170  178.0110  147.8340 C   0  0  0  0  0  0  0  0  0  0  0  0
  186.7720  177.1950  145.3500 C   0  0  2  0  0  3  0  0  0  0  0  0
  188.6260  177.2570  146.9910 C   0  0  0  0  0  3  0  0  0  0  0  0
  188.4200  178.3050  149.0560 F   0  0  0  0  0  0  0  0  0  0  0  0
  186.5320  178.4710  147.4730 C   0  0  0  0  0  2  0  0  0  0  0  0
  184.4750  178.5860  143.6810 C   0  0  0  0  0  2  0  0  0  0  0  0
  184.0530  179.9890  144.0940 C   0  0  0  0  0  1  0  0  0  0  0  0
  190.1930  175.9470  141.9070 O   0  0  0  0  0  0  0  0  0  0  0  0
  191.2340  176.4130  142.7670 C   0  0  2  0  0  3  0  0  0  0  0  0
  191.8630  178.4170  143.8600 C   0  0  1  0  0  3  0  0  0  0  0  0
  190.8750  176.2700  144.1150 O   0  0  0  0  0  0  0  0  0  0  0  0
  192.7140  177.9370  141.7030 O   0  0  0  0  0  1  0  0  0  0  0  0
  191.5710  177.8630  142.4980 C   0  0  1  0  0  3  0  0  0  0  0  0
  190.8900  179.5390  144.1650 C   0  0  0  0  0  1  0  0  0  0  0  0
  191.6080  177.2550  144.7970 C   0  0  0  0  0  2  0  0  0  0  0  0
  1 11  1  0  0  0  0
  1 21  1  0  0  0  0
  2  7  2  0  0  0  0
  3  5  1  6  0  0  0
  3 15  1  0  0  0  0
  4  7  1  0  0  0  0
  4 11  2  0  0  0  0
  6  8  2  0  0  0  0
  6 10  1  0  0  0  0
  7  9  1  0  0  0  0
  8  4  1  0  0  0  0
  9 19  1  6  0  0  0
  9  3  1  0  0  0  0
 10  1  2  0  0  0  0
 11  5  1  0  0  0  0
 12 18  1  0  0  0  0
 13 16  1  0  0  0  0
 14 17  1  0  0  0  0
 15 13  1  0  0  0  0
 15 12  1  6  0  0  0
 16 14  2  0  0  0  0
 18 14  1  0  0  0  0
 19 20  1  0  0  0  0
 22 21  1  6  0  0  0
 22 24  1  0  0  0  0
 23 27  1  1  0  0  0
 23 28  1  0  0  0  0
 24 28  1  0  0  0  0
 26 25  1  6  0  0  0
 26 22  1  0  0  0  0
 26 23  1  0  0  0  0
M  END
>  <MODEL>
5

>  <REMARK>
 VINA RESULT:      -8.1      2.838      6.553
  Name = 
  4 active torsions:
  status: ('A' for Active; 'I' for Inactive)
    1  A    between atoms: C_1  and  O_2
    2  A    between atoms: O_2  and  C_3
    3  A    between atoms: C_10  and  C_13
    4  A    between atoms: C_14  and  C_25
                            x       y       z     vdW  Elec       q    Type
                         _______ _______ _______ _____ _____    ______ ____

>  <TORSDO>
F 4

$$$$
=
 OpenBabel10272401583D

 28 31  0  0  1  0  0  0  0  0999 V2000
  190.1220  176.5440  143.0930 C   0  0  0  0  0  0  0  0  0  0  0  0
  188.3340  177.7860  147.3490 O   0  0  0  0  0  0  0  0  0  0  0  0
  186.8080  178.1530  143.9900 C   0  0  2  0  0  3  0  0  0  0  0  0
  189.2810  177.2230  145.2600 C   0  0  0  0  0  0  0  0  0  0  0  0
  187.8020  177.3200  143.3130 N   0  0  0  0  0  2  0  0  0  0  0  0
  191.5330  176.4980  145.0580 C   0  0  0  0  0  3  0  0  0  0  0  0
  188.1600  177.6630  146.1050 C   0  0  0  0  0  0  0  0  0  0  0  0
  190.4970  176.9560  145.8090 N   0  0  0  0  0  0  0  0  0  0  0  0
  186.7810  177.8670  145.5120 C   0  0  1  0  0  3  0  0  0  0  0  0
  191.3630  176.2800  143.6910 C   0  0  0  0  0  3  0  0  0  0  0  0
  189.0770  177.0340  143.8880 C   0  0  0  0  0  0  0  0  0  0  0  0
  185.4290  178.4150  141.8860 C   0  0  0  0  0  2  0  0  0  0  0  0
  184.4070  178.6100  144.0660 O   0  0  0  0  0  0  0  0  0  0  0  0
  182.9680  178.7770  142.1760 C   0  0  0  0  0  0  0  0  0  0  0  0
  185.4360  177.9340  143.3380 C   0  0  2  0  0  3  0  0  0  0  0  0
  183.1740  178.9340  143.4860 C   0  0  0  0  0  3  0  0  0  0  0  0
  181.7580  179.0760  141.6480 F   0  0  0  0  0  0  0  0  0  0  0  0
  184.0380  178.1950  141.2950 C   0  0  0  0  0  2  0  0  0  0  0  0
  185.9990  178.9390  146.2830 C   0  0  0  0  0  2  0  0  0  0  0  0
  184.8570  178.3460  147.0970 C   0  0  0  0  0  1  0  0  0  0  0  0
  189.9020  176.3360  141.7230 O   0  0  0  0  0  0  0  0  0  0  0  0
  190.1300  177.3060  140.6970 C   0  0  2  0  0  3  0  0  0  0  0  0
  190.1070  177.4190  138.3330 C   0  0  1  0  0  3  0  0  0  0  0  0
  188.9350  177.9440  140.3330 O   0  0  0  0  0  0  0  0  0  0  0  0
  192.1240  176.9130  139.4670 O   0  0  0  0  0  1  0  0  0  0  0  0
  190.7500  176.6800  139.4680 C   0  0  1  0  0  3  0  0  0  0  0  0
  189.3480  176.4390  137.4600 C   0  0  0  0  0  1  0  0  0  0  0  0
  189.1310  178.3600  139.0070 C   0  0  0  0  0  2  0  0  0  0  0  0
  1 10  2  0  0  0  0
  1 11  1  0  0  0  0
  3  5  1  6  0  0  0
  3  9  1  0  0  0  0
  4  8  1  0  0  0  0
  4  7  1  0  0  0  0
  5 11  1  0  0  0  0
  6  8  2  0  0  0  0
  7  2  2  0  0  0  0
  9  7  1  0  0  0  0
  9 19  1  1  0  0  0
 10  6  1  0  0  0  0
 11  4  2  0  0  0  0
 14 16  2  0  0  0  0
 15 12  1  6  0  0  0
 15  3  1  0  0  0  0
 15 13  1  0  0  0  0
 16 13  1  0  0  0  0
 17 14  1  0  0  0  0
 18 12  1  0  0  0  0
 18 14  1  0  0  0  0
 19 20  1  0  0  0  0
 21  1  1  0  0  0  0
 22 21  1  1  0  0  0
 23 27  1  6  0  0  0
 23 28  1  0  0  0  0
 23 26  1  0  0  0  0
 24 22  1  0  0  0  0
 26 25  1  1  0  0  0
 26 22  1  0  0  0  0
 28 24  1  0  0  0  0
M  END
>  <MODEL>
6

>  <REMARK>
 VINA RESULT:      -8.1      2.992      5.893
  Name = 
  4 active torsions:
  status: ('A' for Active; 'I' for Inactive)
    1  A    between atoms: C_1  and  O_2
    2  A    between atoms: O_2  and  C_3
    3  A    between atoms: C_10  and  C_13
    4  A    between atoms: C_14  and  C_25
                            x       y       z     vdW  Elec       q    Type
                         _______ _______ _______ _____ _____    ______ ____

>  <TORSDO>
F 4

$$$$
=
 OpenBabel10272401583D

 28 31  0  0  1  0  0  0  0  0999 V2000
  189.3320  177.3180  141.9320 C   0  0  0  0  0  0  0  0  0  0  0  0
  188.2290  177.8620  146.5510 O   0  0  0  0  0  0  0  0  0  0  0  0
  186.0990  178.4320  143.5700 C   0  0  2  0  0  3  0  0  0  0  0  0
  188.8340  177.6500  144.2780 C   0  0  0  0  0  0  0  0  0  0  0  0
  187.0280  177.7980  142.6340 N   0  0  0  0  0  2  0  0  0  0  0  0
  191.0710  177.2090  143.6110 C   0  0  0  0  0  3  0  0  0  0  0  0
  187.8470  177.8620  145.3480 C   0  0  0  0  0  0  0  0  0  0  0  0
  190.1480  177.4600  144.5780 N   0  0  0  0  0  0  0  0  0  0  0  0
  186.3710  177.9750  145.0250 C   0  0  1  0  0  3  0  0  0  0  0  0
  190.6790  177.1290  142.2750 C   0  0  0  0  0  3  0  0  0  0  0  0
  188.4060  177.5940  142.9460 C   0  0  0  0  0  0  0  0  0  0  0  0
  184.4650  178.4100  141.6400 C   0  0  0  0  0  2  0  0  0  0  0  0
  183.7230  178.9130  143.8830 O   0  0  0  0  0  0  0  0  0  0  0  0
  182.0560  178.8270  142.1840 C   0  0  0  0  0  0  0  0  0  0  0  0
  184.6580  178.1360  143.1320 C   0  0  2  0  0  3  0  0  0  0  0  0
  182.4240  179.1630  143.4230 C   0  0  0  0  0  3  0  0  0  0  0  0
  180.7860  179.0590  141.7760 F   0  0  0  0  0  0  0  0  0  0  0  0
  183.0130  178.1210  141.2640 C   0  0  0  0  0  2  0  0  0  0  0  0
  185.6450  178.8580  146.0480 C   0  0  0  0  0  2  0  0  0  0  0  0
  184.8570  178.0380  147.0600 C   0  0  0  0  0  1  0  0  0  0  0  0
  188.8900  177.2430  140.6020 O   0  0  0  0  0  0  0  0  0  0  0  0
  189.4770  177.9400  139.5000 C   0  0  2  0  0  3  0  0  0  0  0  0
  189.7310  177.6600  137.1630 C   0  0  1  0  0  3  0  0  0  0  0  0
  188.5430  178.7880  138.8870 O   0  0  0  0  0  0  0  0  0  0  0  0
  191.4070  176.8590  138.6310 O   0  0  0  0  0  1  0  0  0  0  0  0
  190.0280  176.9830  138.4670 C   0  0  1  0  0  3  0  0  0  0  0  0
  188.8290  176.7720  136.3280 C   0  0  0  0  0  1  0  0  0  0  0  0
  188.9820  178.9160  137.5580 C   0  0  0  0  0  2  0  0  0  0  0  0
  1 10  2  0  0  0  0
  1 11  1  0  0  0  0
  3  5  1  6  0  0  0
  3  9  1  0  0  0  0
  4  8  1  0  0  0  0
  4  7  1  0  0  0  0
  5 11  1  0  0  0  0
  6  8  2  0  0  0  0
  7  2  2  0  0  0  0
  9  7  1  0  0  0  0
  9 19  1  1  0  0  0
 10  6  1  0  0  0  0
 11  4  2  0  0  0  0
 14 16  2  0  0  0  0
 15 12  1  6  0  0  0
 15  3  1  0  0  0  0
 15 13  1  0  0  0  0
 16 13  1  0  0  0  0
 17 14  1  0  0  0  0
 18 12  1  0  0  0  0
 18 14  1  0  0  0  0
 19 20  1  0  0  0  0
 21  1  1  0  0  0  0
 22 21  1  1  0  0  0
 23 27  1  6  0  0  0
 23 28  1  0  0  0  0
 23 26  1  0  0  0  0
 24 22  1  0  0  0  0
 26 25  1  1  0  0  0
 26 22  1  0  0  0  0
 28 24  1  0  0  0  0
M  END
>  <MODEL>
7

>  <REMARK>
 VINA RESULT:      -8.1      3.257      5.940
  Name = 
  4 active torsions:
  status: ('A' for Active; 'I' for Inactive)
    1  A    between atoms: C_1  and  O_2
    2  A    between atoms: O_2  and  C_3
    3  A    between atoms: C_10  and  C_13
    4  A    between atoms: C_14  and  C_25
                            x       y       z     vdW  Elec       q    Type
                         _______ _______ _______ _____ _____    ______ ____

>  <TORSDO>
F 4

$$$$
=
 OpenBabel10272401583D

 28 31  0  0  1  0  0  0  0  0999 V2000
  189.8180  177.6290  140.5220 C   0  0  0  0  0  0  0  0  0  0  0  0
  191.5830  176.6660  144.8590 O   0  0  0  0  0  0  0  0  0  0  0  0
  188.2750  178.0770  143.9570 C   0  0  2  0  0  3  0  0  0  0  0  0
  190.7740  177.1940  142.7040 C   0  0  0  0  0  0  0  0  0  0  0  0
  188.4090  177.7960  142.5270 N   0  0  0  0  0  2  0  0  0  0  0  0
  192.1540  177.0510  140.7770 C   0  0  0  0  0  3  0  0  0  0  0  0
  190.6010  177.0310  144.1560 C   0  0  0  0  0  0  0  0  0  0  0  0
  191.9820  176.9590  142.1220 N   0  0  0  0  0  0  0  0  0  0  0  0
  189.2370  177.1960  144.7930 C   0  0  1  0  0  3  0  0  0  0  0  0
  191.0770  177.3830  139.9550 C   0  0  0  0  0  3  0  0  0  0  0  0
  189.6740  177.5460  141.9140 C   0  0  0  0  0  0  0  0  0  0  0  0
  185.8570  178.4370  143.3110 C   0  0  0  0  0  2  0  0  0  0  0  0
  186.5470  178.5330  145.6250 O   0  0  0  0  0  0  0  0  0  0  0  0
  184.2220  178.7880  145.1760 C   0  0  0  0  0  0  0  0  0  0  0  0
  186.8110  177.8900  144.3750 C   0  0  2  0  0  3  0  0  0  0  0  0
  185.2510  178.8840  146.0220 C   0  0  0  0  0  3  0  0  0  0  0  0
  182.9770  179.1120  145.5960 F   0  0  0  0  0  0  0  0  0  0  0  0
  184.4180  178.2470  143.7870 C   0  0  0  0  0  2  0  0  0  0  0  0
  189.3560  177.6910  146.2400 C   0  0  0  0  0  2  0  0  0  0  0  0
  188.9870  176.6150  147.2510 C   0  0  0  0  0  1  0  0  0  0  0  0
  188.7050  177.9620  139.7360 O   0  0  0  0  0  0  0  0  0  0  0  0
  188.6780  177.9630  138.3070 C   0  0  2  0  0  3  0  0  0  0  0  0
  187.2500  177.2360  136.5640 C   0  0  1  0  0  3  0  0  0  0  0  0
  188.0240  179.1030  137.8170 O   0  0  0  0  0  0  0  0  0  0  0  0
  188.9520  175.7980  137.3660 O   0  0  0  0  0  1  0  0  0  0  0  0
  187.9930  176.7290  137.7630 C   0  0  1  0  0  3  0  0  0  0  0  0
  185.7660  176.9920  136.7510 C   0  0  0  0  0  1  0  0  0  0  0  0
  187.5230  178.7260  136.5600 C   0  0  0  0  0  2  0  0  0  0  0  0
  1 11  1  0  0  0  0
  3  5  1  6  0  0  0
  3 15  1  0  0  0  0
  3  9  1  0  0  0  0
  4  7  1  0  0  0  0
  6  8  2  0  0  0  0
  7  9  1  0  0  0  0
  7  2  2  0  0  0  0
  8  4  1  0  0  0  0
  9 19  1  1  0  0  0
 10  1  2  0  0  0  0
 10  6  1  0  0  0  0
 11  5  1  0  0  0  0
 11  4  2  0  0  0  0
 12 18  1  0  0  0  0
 13 16  1  0  0  0  0
 14 17  1  0  0  0  0
 14 16  2  0  0  0  0
 15 12  1  6  0  0  0
 15 13  1  0  0  0  0
 18 14  1  0  0  0  0
 19 20  1  0  0  0  0
 21  1  1  0  0  0  0
 22 21  1  1  0  0  0
 23 27  1  1  0  0  0
 23 26  1  0  0  0  0
 24 22  1  0  0  0  0
 26 25  1  6  0  0  0
 26 22  1  0  0  0  0
 28 23  1  0  0  0  0
 28 24  1  0  0  0  0
M  END
>  <MODEL>
8

>  <REMARK>
 VINA RESULT:      -8.1      3.168      5.703
  Name = 
  4 active torsions:
  status: ('A' for Active; 'I' for Inactive)
    1  A    between atoms: C_1  and  O_2
    2  A    between atoms: O_2  and  C_3
    3  A    between atoms: C_10  and  C_13
    4  A    between atoms: C_14  and  C_25
                            x       y       z     vdW  Elec       q    Type
                         _______ _______ _______ _____ _____    ______ ____

>  <TORSDO>
F 4

$$$$
=
 OpenBabel10272401583D

 28 31  0  0  1  0  0  0  0  0999 V2000
  189.1380  178.2530  140.1250 C   0  0  0  0  0  0  0  0  0  0  0  0
  187.3480  176.6190  144.2440 O   0  0  0  0  0  0  0  0  0  0  0  0
  185.8310  178.9870  141.8280 C   0  0  2  0  0  3  0  0  0  0  0  0
  188.2950  177.4580  142.2510 C   0  0  0  0  0  0  0  0  0  0  0  0
  186.8220  178.7420  140.7800 N   0  0  0  0  0  2  0  0  0  0  0  0
  190.5440  176.9960  141.6410 C   0  0  0  0  0  3  0  0  0  0  0  0
  187.1760  177.2900  143.1900 C   0  0  0  0  0  0  0  0  0  0  0  0
  189.5090  176.9010  142.5160 N   0  0  0  0  0  0  0  0  0  0  0  0
  185.7990  177.8240  142.8510 C   0  0  1  0  0  3  0  0  0  0  0  0
  190.3760  177.6690  140.4300 C   0  0  0  0  0  3  0  0  0  0  0  0
  188.0940  178.1550  141.0540 C   0  0  0  0  0  0  0  0  0  0  0  0
  183.6860  177.9160  141.0240 C   0  0  0  0  0  2  0  0  0  0  0  0
  184.5950  179.8550  139.9060 O   0  0  0  0  0  0  0  0  0  0  0  0
  182.5160  179.0170  139.1030 C   0  0  0  0  0  0  0  0  0  0  0  0
  184.4590  179.2260  141.1830 C   0  0  2  0  0  3  0  0  0  0  0  0
  183.5830  179.8010  138.9390 C   0  0  0  0  0  3  0  0  0  0  0  0
  181.5430  179.0040  138.1620 F   0  0  0  0  0  0  0  0  0  0  0  0
  182.3430  178.2080  140.3580 C   0  0  0  0  0  2  0  0  0  0  0  0
  185.0210  178.1970  144.1200 C   0  0  0  0  0  2  0  0  0  0  0  0
  185.5250  179.4900  144.7460 C   0  0  0  0  0  1  0  0  0  0  0  0
  188.9200  178.9360  138.9180 O   0  0  0  0  0  0  0  0  0  0  0  0
  188.6120  178.3160  137.6670 C   0  0  2  0  0  3  0  0  0  0  0  0
  186.8820  177.0080  136.7190 C   0  0  1  0  0  3  0  0  0  0  0  0
  187.8550  179.1730  136.8540 O   0  0  0  0  0  0  0  0  0  0  0  0
  188.7340  175.9450  137.7430 O   0  0  0  0  0  1  0  0  0  0  0  0
  187.8550  177.0210  137.8590 C   0  0  1  0  0  3  0  0  0  0  0  0
  185.4680  176.9770  137.2640 C   0  0  0  0  0  1  0  0  0  0  0  0
  187.1230  178.3240  136.0090 C   0  0  0  0  0  2  0  0  0  0  0  0
  1 10  2  0  0  0  0
  1 11  1  0  0  0  0
  3  5  1  6  0  0  0
  3  9  1  0  0  0  0
  4  8  1  0  0  0  0
  4  7  1  0  0  0  0
  5 11  1  0  0  0  0
  6  8  2  0  0  0  0
  7  2  2  0  0  0  0
  9  7  1  0  0  0  0
  9 19  1  1  0  0  0
 10  6  1  0  0  0  0
 11  4  2  0  0  0  0
 13 15  1  0  0  0  0
 14 18  1  0  0  0  0
 15 12  1  6  0  0  0
 15  3  1  0  0  0  0
 16 14  2  0  0  0  0
 16 13  1  0  0  0  0
 17 14  1  0  0  0  0
 18 12  1  0  0  0  0
 19 20  1  0  0  0  0
 21  1  1  0  0  0  0
 22 26  1  0  0  0  0
 22 21  1  1  0  0  0
 23 27  1  1  0  0  0
 23 26  1  0  0  0  0
 24 22  1  0  0  0  0
 26 25  1  6  0  0  0
 28 23  1  0  0  0  0
 28 24  1  0  0  0  0
M  END
>  <MODEL>
9

>  <REMARK>
 VINA RESULT:      -8.0      3.266      6.033
  Name = 
  4 active torsions:
  status: ('A' for Active; 'I' for Inactive)
    1  A    between atoms: C_1  and  O_2
    2  A    between atoms: O_2  and  C_3
    3  A    between atoms: C_10  and  C_13
    4  A    between atoms: C_14  and  C_25
                            x       y       z     vdW  Elec       q    Type
                         _______ _______ _______ _____ _____    ______ ____

>  <TORSDO>
F 4

$$$$
