=
 OpenBabel10272400353D

 31 34  0  0  1  0  0  0  0  0999 V2000
  189.7230  176.6450  147.4460 C   0  0  0  0  0  3  0  0  0  0  0  0
  187.7650  177.6920  144.2920 C   0  0  0  0  0  0  0  0  0  0  0  0
  186.5220  177.9970  144.8380 C   0  0  0  0  0  0  0  0  0  0  0  0
  185.0760  178.3440  146.8010 C   0  0  0  0  0  3  0  0  0  0  0  0
  188.9420  177.3060  145.0650 C   0  0  0  0  0  0  0  0  0  0  0  0
  191.8790  176.5660  146.2140 C   0  0  0  0  0  3  0  0  0  0  0  0
  186.2940  177.9880  146.2300 C   0  0  0  0  0  3  0  0  0  0  0  0
  189.1620  177.6420  142.2630 C   0  0  0  0  0  0  0  0  0  0  0  0
  191.0270  176.4380  147.3860 C   0  0  0  0  0  3  0  0  0  0  0  0
  185.5150  178.4370  142.6950 C   0  0  0  0  0  3  0  0  0  0  0  0
  184.0250  178.7400  145.9880 C   0  0  0  0  0  3  0  0  0  0  0  0
  190.2720  177.3540  143.0270 C   0  0  0  0  0  3  0  0  0  0  0  0
  187.9130  177.7990  142.8740 C   0  0  0  0  0  0  0  0  0  0  0  0
  188.8060  177.0540  146.3790 C   0  0  0  0  0  3  0  0  0  0  0  0
  182.8030  179.2910  143.6420 Cl  0  0  0  0  0  0  0  0  0  0  0  0
  190.1960  177.1750  144.3990 C   0  0  0  0  0  0  0  0  0  0  0  0
  191.5160  176.8710  144.9760 C   0  0  0  0  0  3  0  0  0  0  0  0
  186.7300  177.9980  141.9690 C   0  0  0  0  0  3  0  0  0  0  0  0
  185.4160  178.4000  144.0210 C   0  0  0  0  0  0  0  0  0  0  0  0
  184.1860  178.7760  144.6070 C   0  0  2  0  0  3  0  0  0  0  0  0
  189.3490  177.7950  140.7840 C   0  0  0  0  0  2  0  0  0  0  0  0
  191.7130  177.4310  140.0330 C   0  0  0  0  0  1  0  0  0  0  0  0
  190.3590  176.7790  140.2520 C   0  0  2  0  0  3  0  0  0  0  0  0
  190.8380  175.2220  138.4770 O   0  0  0  0  0  1  0  0  0  0  0  0
  189.8770  176.1150  138.9600 C   0  0  2  0  0  3  0  0  0  0  0  0
  190.4040  177.0420  136.8010 O   0  0  0  0  0  1  0  0  0  0  0  0
  189.5300  177.1500  137.8860 C   0  0  1  0  0  3  0  0  0  0  0  0
  188.0800  177.0370  137.4090 C   0  0  0  0  0  2  0  0  0  0  0  0
  187.3200  178.3140  137.5730 C   0  0  0  0  0  0  0  0  0  0  0  0
  186.4090  178.3990  138.4370 O   0  0  0  0  0  1  0  0  0  0  0  0
  187.6390  179.4160  136.7920 O   0  0  0  0  0  0  0  0  0  0  0  0
  2  3  1  0  0  0  0
  2  5  2  0  0  0  0
  3  7  2  0  0  0  0
  5 14  1  0  0  0  0
  6  9  2  0  0  0  0
  7  4  1  0  0  0  0
  8 13  1  0  0  0  0
  8 12  2  0  0  0  0
  9  1  1  0  0  0  0
 10 19  2  0  0  0  0
 11  4  2  0  0  0  0
 12 16  1  0  0  0  0
 13  2  1  0  0  0  0
 14  1  2  0  0  0  0
 16 17  2  0  0  0  0
 16  5  1  0  0  0  0
 17  6  1  0  0  0  0
 18 10  1  0  0  0  0
 18 13  2  0  0  0  0
 19 20  1  0  0  0  0
 19  3  1  0  0  0  0
 20 15  1  6  0  0  0
 20 11  1  0  0  0  0
 21  8  1  0  0  0  0
 23 22  1  6  0  0  0
 23 21  1  0  0  0  0
 25 24  1  6  0  0  0
 25 23  1  0  0  0  0
 27 26  1  6  0  0  0
 27 25  1  0  0  0  0
 28 29  1  0  0  0  0
 28 27  1  0  0  0  0
 29 30  1  0  0  0  0
 31 29  2  0  0  0  0
M  END
>  <MODEL>
1

>  <REMARK>
 VINA RESULT:     -10.7      0.000      0.000
  Name = 
  6 active torsions:
  status: ('A' for Active; 'I' for Inactive)
    1  A    between atoms: C_1  and  C_24
    2  A    between atoms: C_9  and  C_22
    3  A    between atoms: C_9  and  C_23
    4  A    between atoms: C_15  and  C_23
    5  A    between atoms: C_19  and  C_22
    6  A    between atoms: C_19  and  C_24
                            x       y       z     vdW  Elec       q    Type
                         _______ _______ _______ _____ _____    ______ ____

>  <TORSDO>
F 6

$$$$
=
 OpenBabel10272400353D

 31 34  0  0  1  0  0  0  0  0999 V2000
  184.0090  178.5960  145.2670 C   0  0  0  0  0  3  0  0  0  0  0  0
  187.6120  178.0440  144.0060 C   0  0  0  0  0  0  0  0  0  0  0  0
  188.2490  177.6530  145.1800 C   0  0  0  0  0  0  0  0  0  0  0  0
  188.1480  176.9990  147.5510 C   0  0  0  0  0  3  0  0  0  0  0  0
  186.1820  178.3100  143.8840 C   0  0  0  0  0  0  0  0  0  0  0  0
  183.1280  178.8750  142.9610 C   0  0  0  0  0  3  0  0  0  0  0  0
  187.5410  177.4450  146.3820 C   0  0  0  0  0  3  0  0  0  0  0  0
  187.8220  178.4140  141.5790 C   0  0  0  0  0  0  0  0  0  0  0  0
  183.0270  178.8160  144.4110 C   0  0  0  0  0  3  0  0  0  0  0  0
  190.4240  177.5470  144.1480 C   0  0  0  0  0  3  0  0  0  0  0  0
  189.5080  176.7300  147.5610 C   0  0  0  0  0  3  0  0  0  0  0  0
  186.4580  178.5850  141.4810 C   0  0  0  0  0  3  0  0  0  0  0  0
  188.4090  178.1590  142.8240 C   0  0  0  0  0  0  0  0  0  0  0  0
  185.4290  178.3550  144.9970 C   0  0  0  0  0  3  0  0  0  0  0  0
  191.9870  176.5450  146.5010 Cl  0  0  0  0  0  0  0  0  0  0  0  0
  185.6290  178.5490  142.5910 C   0  0  0  0  0  0  0  0  0  0  0  0
  184.2210  178.7640  142.2190 C   0  0  0  0  0  3  0  0  0  0  0  0
  189.9090  178.0980  142.8720 C   0  0  0  0  0  2  0  0  0  0  0  0
  189.6550  177.3770  145.2210 C   0  0  0  0  0  0  0  0  0  0  0  0
  190.2640  176.9090  146.4080 C   0  0  0  0  0  0  0  0  0  0  0  0
  188.6310  178.4940  140.3200 C   0  0  0  0  0  2  0  0  0  0  0  0
  190.0860  176.5670  139.6440 C   0  0  0  0  0  1  0  0  0  0  0  0
  188.6800  177.1400  139.6140 C   0  0  2  0  0  3  0  0  0  0  0  0
  189.2410  177.4390  137.2900 O   0  0  0  0  0  1  0  0  0  0  0  0
  188.1760  177.2280  138.1720 C   0  0  2  0  0  3  0  0  0  0  0  0
  187.5030  179.2180  136.9940 O   0  0  0  0  0  1  0  0  0  0  0  0
  187.1250  178.3300  138.0050 C   0  0  1  0  0  3  0  0  0  0  0  0
  185.7290  177.7710  137.7220 C   0  0  0  0  0  2  0  0  0  0  0  0
  184.6610  178.4730  138.4970 C   0  0  0  0  0  0  0  0  0  0  0  0
  183.6210  177.8540  138.8400 O   0  0  0  0  0  0  0  0  0  0  0  0
  184.8300  179.8010  138.8640 O   0  0  0  0  0  1  0  0  0  0  0  0
  2  3  2  0  0  0  0
  3 19  1  0  0  0  0
  3  7  1  0  0  0  0
  4 11  1  0  0  0  0
  5  2  1  0  0  0  0
  5 14  2  0  0  0  0
  6  9  1  0  0  0  0
  7  4  2  0  0  0  0
  8 13  2  0  0  0  0
  9  1  2  0  0  0  0
 10 19  2  0  0  0  0
 12  8  1  0  0  0  0
 12 16  2  0  0  0  0
 13 18  1  0  0  0  0
 13  2  1  0  0  0  0
 14  1  1  0  0  0  0
 16  5  1  0  0  0  0
 17 16  1  0  0  0  0
 17  6  2  0  0  0  0
 18 10  1  0  0  0  0
 19 20  1  0  0  0  0
 20 15  1  0  0  0  0
 20 11  2  0  0  0  0
 21  8  1  0  0  0  0
 23 22  1  6  0  0  0
 23 21  1  0  0  0  0
 25 24  1  6  0  0  0
 25 23  1  0  0  0  0
 27 26  1  6  0  0  0
 27 25  1  0  0  0  0
 28 27  1  0  0  0  0
 28 29  1  0  0  0  0
 29 30  2  0  0  0  0
 29 31  1  0  0  0  0
M  END
>  <MODEL>
2

>  <REMARK>
 VINA RESULT:     -10.5      2.197      4.690
  Name = 
  6 active torsions:
  status: ('A' for Active; 'I' for Inactive)
    1  A    between atoms: C_1  and  C_24
    2  A    between atoms: C_9  and  C_22
    3  A    between atoms: C_9  and  C_23
    4  A    between atoms: C_15  and  C_23
    5  A    between atoms: C_19  and  C_22
    6  A    between atoms: C_19  and  C_24
                            x       y       z     vdW  Elec       q    Type
                         _______ _______ _______ _____ _____    ______ ____

>  <TORSDO>
F 6

$$$$
=
 OpenBabel10272400353D

 31 34  0  0  1  0  0  0  0  0999 V2000
  189.5610  176.8040  147.1430 C   0  0  0  0  0  3  0  0  0  0  0  0
  187.5200  177.9080  144.0630 C   0  0  0  0  0  0  0  0  0  0  0  0
  186.2700  178.1290  144.6350 C   0  0  0  0  0  0  0  0  0  0  0  0
  184.8330  178.3140  146.6250 C   0  0  0  0  0  3  0  0  0  0  0  0
  188.7220  177.5410  144.8050 C   0  0  0  0  0  0  0  0  0  0  0  0
  191.7030  176.8840  145.8880 C   0  0  0  0  0  3  0  0  0  0  0  0
  186.0590  178.0420  146.0270 C   0  0  0  0  0  3  0  0  0  0  0  0
  188.8930  178.0200  142.0200 C   0  0  0  0  0  0  0  0  0  0  0  0
  190.8710  176.6600  147.0610 C   0  0  0  0  0  3  0  0  0  0  0  0
  185.2190  178.6230  142.5240 C   0  0  0  0  0  3  0  0  0  0  0  0
  183.7560  178.6980  145.8430 C   0  0  0  0  0  3  0  0  0  0  0  0
  190.0240  177.7480  142.7590 C   0  0  0  0  0  3  0  0  0  0  0  0
  187.6450  178.0900  142.6500 C   0  0  0  0  0  0  0  0  0  0  0  0
  188.6130  177.2200  146.1060 C   0  0  0  0  0  3  0  0  0  0  0  0
  182.4810  179.3040  143.5380 Cl  0  0  0  0  0  0  0  0  0  0  0  0
  189.9730  177.5000  144.1210 C   0  0  0  0  0  0  0  0  0  0  0  0
  191.3120  177.2310  144.6700 C   0  0  0  0  0  3  0  0  0  0  0  0
  186.4440  178.2770  141.7670 C   0  0  0  0  0  3  0  0  0  0  0  0
  185.1370  178.5180  143.8490 C   0  0  0  0  0  0  0  0  0  0  0  0
  183.8980  178.8090  144.4640 C   0  0  2  0  0  3  0  0  0  0  0  0
  189.0550  178.2520  140.5480 C   0  0  0  0  0  2  0  0  0  0  0  0
  190.8800  176.8230  139.5920 C   0  0  0  0  0  1  0  0  0  0  0  0
  189.3840  176.9490  139.8210 C   0  0  2  0  0  3  0  0  0  0  0  0
  189.4210  176.1730  137.5410 O   0  0  0  0  0  1  0  0  0  0  0  0
  188.6340  176.8290  138.4930 C   0  0  2  0  0  3  0  0  0  0  0  0
  189.2270  178.7950  137.2340 O   0  0  0  0  0  1  0  0  0  0  0  0
  188.1950  178.1980  137.9650 C   0  0  1  0  0  3  0  0  0  0  0  0
  186.9240  178.1200  137.1150 C   0  0  0  0  0  2  0  0  0  0  0  0
  185.6790  178.1760  137.9400 C   0  0  0  0  0  0  0  0  0  0  0  0
  185.4470  179.1790  138.6630 O   0  0  0  0  0  1  0  0  0  0  0  0
  184.7630  177.1340  137.8860 O   0  0  0  0  0  0  0  0  0  0  0  0
  2  3  1  0  0  0  0
  2  5  2  0  0  0  0
  3  7  2  0  0  0  0
  5 14  1  0  0  0  0
  6  9  2  0  0  0  0
  7  4  1  0  0  0  0
  8 13  1  0  0  0  0
  8 12  2  0  0  0  0
  9  1  1  0  0  0  0
 10 19  2  0  0  0  0
 11  4  2  0  0  0  0
 12 16  1  0  0  0  0
 13  2  1  0  0  0  0
 14  1  2  0  0  0  0
 16 17  2  0  0  0  0
 16  5  1  0  0  0  0
 17  6  1  0  0  0  0
 18 10  1  0  0  0  0
 18 13  2  0  0  0  0
 19 20  1  0  0  0  0
 19  3  1  0  0  0  0
 20 15  1  6  0  0  0
 20 11  1  0  0  0  0
 21  8  1  0  0  0  0
 23 22  1  6  0  0  0
 23 21  1  0  0  0  0
 25 24  1  6  0  0  0
 25 23  1  0  0  0  0
 27 26  1  6  0  0  0
 27 25  1  0  0  0  0
 28 29  1  0  0  0  0
 28 27  1  0  0  0  0
 29 30  1  0  0  0  0
 31 29  2  0  0  0  0
M  END
>  <MODEL>
3

>  <REMARK>
 VINA RESULT:     -10.5      0.855      1.157
  Name = 
  6 active torsions:
  status: ('A' for Active; 'I' for Inactive)
    1  A    between atoms: C_1  and  C_24
    2  A    between atoms: C_9  and  C_22
    3  A    between atoms: C_9  and  C_23
    4  A    between atoms: C_15  and  C_23
    5  A    between atoms: C_19  and  C_22
    6  A    between atoms: C_19  and  C_24
                            x       y       z     vdW  Elec       q    Type
                         _______ _______ _______ _____ _____    ______ ____

>  <TORSDO>
F 6

$$$$
=
 OpenBabel10272400353D

 31 34  0  0  1  0  0  0  0  0999 V2000
  189.5700  176.7620  147.3380 C   0  0  0  0  0  3  0  0  0  0  0  0
  187.6320  177.7540  144.1540 C   0  0  0  0  0  0  0  0  0  0  0  0
  186.3770  178.0370  144.6820 C   0  0  0  0  0  0  0  0  0  0  0  0
  184.8990  178.3660  146.6240 C   0  0  0  0  0  3  0  0  0  0  0  0
  188.8070  177.3950  144.9430 C   0  0  0  0  0  0  0  0  0  0  0  0
  191.7420  176.7180  146.1340 C   0  0  0  0  0  3  0  0  0  0  0  0
  186.1310  178.0300  146.0710 C   0  0  0  0  0  3  0  0  0  0  0  0
  189.0560  177.7200  142.1430 C   0  0  0  0  0  0  0  0  0  0  0  0
  190.8780  176.5790  147.2950 C   0  0  0  0  0  3  0  0  0  0  0  0
  185.3890  178.4450  142.5230 C   0  0  0  0  0  3  0  0  0  0  0  0
  183.8510  178.7360  145.7960 C   0  0  0  0  0  3  0  0  0  0  0  0
  190.1610  177.4570  142.9220 C   0  0  0  0  0  3  0  0  0  0  0  0
  187.7960  177.8560  142.7370 C   0  0  0  0  0  0  0  0  0  0  0  0
  188.6590  177.1470  146.2570 C   0  0  0  0  0  3  0  0  0  0  0  0
  182.6480  179.2510  143.4310 Cl  0  0  0  0  0  0  0  0  0  0  0  0
  190.0710  177.2840  144.2940 C   0  0  0  0  0  0  0  0  0  0  0  0
  191.3890  177.0090  144.8900 C   0  0  0  0  0  3  0  0  0  0  0  0
  186.6210  178.0270  141.8150 C   0  0  0  0  0  3  0  0  0  0  0  0
  185.2730  178.4140  143.8490 C   0  0  0  0  0  0  0  0  0  0  0  0
  184.0280  178.7690  144.4170 C   0  0  2  0  0  3  0  0  0  0  0  0
  189.2580  177.8680  140.6650 C   0  0  0  0  0  2  0  0  0  0  0  0
  191.7330  177.4980  140.5150 C   0  0  0  0  0  1  0  0  0  0  0  0
  190.3650  176.9390  140.1680 C   0  0  2  0  0  3  0  0  0  0  0  0
  188.9760  176.2580  138.3200 O   0  0  0  0  0  1  0  0  0  0  0  0
  190.2640  176.6840  138.6630 C   0  0  2  0  0  3  0  0  0  0  0  0
  190.6830  174.4500  137.8660 O   0  0  0  0  0  1  0  0  0  0  0  0
  191.3010  175.6610  138.1900 C   0  0  1  0  0  3  0  0  0  0  0  0
  192.1260  176.1660  137.0040 C   0  0  0  0  0  2  0  0  0  0  0  0
  193.5950  176.1530  137.2800 C   0  0  0  0  0  0  0  0  0  0  0  0
  194.0150  175.9480  138.4490 O   0  0  0  0  0  1  0  0  0  0  0  0
  194.4980  176.3390  136.2420 O   0  0  0  0  0  0  0  0  0  0  0  0
  2  3  1  0  0  0  0
  2  5  2  0  0  0  0
  3  7  2  0  0  0  0
  5 14  1  0  0  0  0
  6  9  2  0  0  0  0
  7  4  1  0  0  0  0
  8 13  1  0  0  0  0
  8 12  2  0  0  0  0
  9  1  1  0  0  0  0
 10 19  2  0  0  0  0
 11  4  2  0  0  0  0
 12 16  1  0  0  0  0
 13  2  1  0  0  0  0
 14  1  2  0  0  0  0
 16 17  2  0  0  0  0
 16  5  1  0  0  0  0
 17  6  1  0  0  0  0
 18 10  1  0  0  0  0
 18 13  2  0  0  0  0
 19 20  1  0  0  0  0
 19  3  1  0  0  0  0
 20 15  1  6  0  0  0
 20 11  1  0  0  0  0
 21  8  1  0  0  0  0
 23 22  1  6  0  0  0
 23 21  1  0  0  0  0
 25 24  1  1  0  0  0
 25 23  1  0  0  0  0
 27 26  1  6  0  0  0
 27 25  1  0  0  0  0
 28 29  1  0  0  0  0
 28 27  1  0  0  0  0
 29 30  1  0  0  0  0
 31 29  2  0  0  0  0
M  END
>  <MODEL>
4

>  <REMARK>
 VINA RESULT:     -10.4      1.387      2.552
  Name = 
  6 active torsions:
  status: ('A' for Active; 'I' for Inactive)
    1  A    between atoms: C_1  and  C_24
    2  A    between atoms: C_9  and  C_22
    3  A    between atoms: C_9  and  C_23
    4  A    between atoms: C_15  and  C_23
    5  A    between atoms: C_19  and  C_22
    6  A    between atoms: C_19  and  C_24
                            x       y       z     vdW  Elec       q    Type
                         _______ _______ _______ _____ _____    ______ ____

>  <TORSDO>
F 6

$$$$
=
 OpenBabel10272400353D

 31 34  0  0  1  0  0  0  0  0999 V2000
  184.1100  178.6200  144.7130 C   0  0  0  0  0  3  0  0  0  0  0  0
  187.8250  178.0000  143.8800 C   0  0  0  0  0  0  0  0  0  0  0  0
  188.3260  177.6580  145.1320 C   0  0  0  0  0  0  0  0  0  0  0  0
  187.9600  177.1090  147.5040 C   0  0  0  0  0  3  0  0  0  0  0  0
  186.4190  178.2660  143.5900 C   0  0  0  0  0  0  0  0  0  0  0  0
  183.4900  178.8020  142.3140 C   0  0  0  0  0  3  0  0  0  0  0  0
  187.4890  177.5060  146.2570 C   0  0  0  0  0  3  0  0  0  0  0  0
  188.3030  178.2640  141.4780 C   0  0  0  0  0  0  0  0  0  0  0  0
  183.2300  178.8060  143.7450 C   0  0  0  0  0  3  0  0  0  0  0  0
  190.6000  177.5000  144.3510 C   0  0  0  0  0  3  0  0  0  0  0  0
  189.3080  176.8360  147.6750 C   0  0  0  0  0  3  0  0  0  0  0  0
  186.9600  178.4350  141.2230 C   0  0  0  0  0  3  0  0  0  0  0  0
  188.7470  178.0610  142.7890 C   0  0  0  0  0  0  0  0  0  0  0  0
  185.5490  178.3620  144.6110 C   0  0  0  0  0  3  0  0  0  0  0  0
  191.8870  176.5950  146.9030 Cl  0  0  0  0  0  0  0  0  0  0  0  0
  186.0140  178.4500  142.2350 C   0  0  0  0  0  0  0  0  0  0  0  0
  184.6570  178.6550  141.7020 C   0  0  0  0  0  3  0  0  0  0  0  0
  190.2330  177.9970  143.0040 C   0  0  0  0  0  2  0  0  0  0  0  0
  189.7160  177.3800  145.3400 C   0  0  0  0  0  0  0  0  0  0  0  0
  190.1870  176.9610  146.6050 C   0  0  0  0  0  0  0  0  0  0  0  0
  189.2460  178.2860  140.3130 C   0  0  0  0  0  2  0  0  0  0  0  0
  189.9820  176.2860  138.9910 C   0  0  0  0  0  1  0  0  0  0  0  0
  188.8420  177.2530  139.2610 C   0  0  2  0  0  3  0  0  0  0  0  0
  188.6440  179.2860  137.9840 O   0  0  0  0  0  1  0  0  0  0  0  0
  188.3870  177.9110  137.9580 C   0  0  2  0  0  3  0  0  0  0  0  0
  186.1740  178.8440  137.7800 O   0  0  0  0  0  1  0  0  0  0  0  0
  186.9030  177.6560  137.6810 C   0  0  1  0  0  3  0  0  0  0  0  0
  186.6640  177.0010  136.3180 C   0  0  0  0  0  2  0  0  0  0  0  0
  187.4410  175.7360  136.1450 C   0  0  0  0  0  0  0  0  0  0  0  0
  187.1850  174.7360  136.8650 O   0  0  0  0  0  1  0  0  0  0  0  0
  188.4250  175.6540  135.1700 O   0  0  0  0  0  0  0  0  0  0  0  0
  2  3  2  0  0  0  0
  3 19  1  0  0  0  0
  3  7  1  0  0  0  0
  4 11  1  0  0  0  0
  5  2  1  0  0  0  0
  5 14  2  0  0  0  0
  6  9  1  0  0  0  0
  7  4  2  0  0  0  0
  8 13  2  0  0  0  0
  9  1  2  0  0  0  0
 10 19  2  0  0  0  0
 12  8  1  0  0  0  0
 12 16  2  0  0  0  0
 13 18  1  0  0  0  0
 13  2  1  0  0  0  0
 14  1  1  0  0  0  0
 16  5  1  0  0  0  0
 17 16  1  0  0  0  0
 17  6  2  0  0  0  0
 18 10  1  0  0  0  0
 19 20  1  0  0  0  0
 20 15  1  0  0  0  0
 20 11  2  0  0  0  0
 21  8  1  0  0  0  0
 23 22  1  6  0  0  0
 23 21  1  0  0  0  0
 25 24  1  1  0  0  0
 25 23  1  0  0  0  0
 27 26  1  6  0  0  0
 27 25  1  0  0  0  0
 28 27  1  0  0  0  0
 29 28  1  0  0  0  0
 29 30  1  0  0  0  0
 31 29  2  0  0  0  0
M  END
>  <MODEL>
5

>  <REMARK>
 VINA RESULT:     -10.1      2.289      4.789
  Name = 
  6 active torsions:
  status: ('A' for Active; 'I' for Inactive)
    1  A    between atoms: C_1  and  C_24
    2  A    between atoms: C_9  and  C_22
    3  A    between atoms: C_9  and  C_23
    4  A    between atoms: C_15  and  C_23
    5  A    between atoms: C_19  and  C_22
    6  A    between atoms: C_19  and  C_24
                            x       y       z     vdW  Elec       q    Type
                         _______ _______ _______ _____ _____    ______ ____

>  <TORSDO>
F 6

$$$$
=
 OpenBabel10272400353D

 31 34  0  0  1  0  0  0  0  0999 V2000
  189.4540  176.8530  146.9770 C   0  0  0  0  0  3  0  0  0  0  0  0
  187.4100  178.0090  143.9170 C   0  0  0  0  0  0  0  0  0  0  0  0
  186.1550  178.1960  144.4890 C   0  0  0  0  0  0  0  0  0  0  0  0
  184.7070  178.3070  146.4770 C   0  0  0  0  0  3  0  0  0  0  0  0
  188.6150  177.6390  144.6550 C   0  0  0  0  0  0  0  0  0  0  0  0
  191.6000  176.9970  145.7340 C   0  0  0  0  0  3  0  0  0  0  0  0
  185.9390  178.0690  145.8770 C   0  0  0  0  0  3  0  0  0  0  0  0
  188.7900  178.1950  141.8850 C   0  0  0  0  0  0  0  0  0  0  0  0
  190.7670  176.7300  146.8970 C   0  0  0  0  0  3  0  0  0  0  0  0
  185.1050  178.7300  142.3870 C   0  0  0  0  0  3  0  0  0  0  0  0
  183.6270  178.6970  145.7000 C   0  0  0  0  0  3  0  0  0  0  0  0
  189.9220  177.9190  142.6210 C   0  0  0  0  0  3  0  0  0  0  0  0
  187.5390  178.2290  142.5100 C   0  0  0  0  0  0  0  0  0  0  0  0
  188.5050  177.2820  145.9460 C   0  0  0  0  0  3  0  0  0  0  0  0
  182.3540  179.3450  143.4060 Cl  0  0  0  0  0  0  0  0  0  0  0  0
  189.8680  177.6340  143.9760 C   0  0  0  0  0  0  0  0  0  0  0  0
  191.2090  177.3700  144.5240 C   0  0  0  0  0  3  0  0  0  0  0  0
  186.3390  178.4220  141.6270 C   0  0  0  0  0  3  0  0  0  0  0  0
  185.0200  178.5890  143.7080 C   0  0  0  0  0  0  0  0  0  0  0  0
  183.7740  178.8460  144.3250 C   0  0  2  0  0  3  0  0  0  0  0  0
  188.9550  178.4680  140.4200 C   0  0  0  0  0  2  0  0  0  0  0  0
  190.5250  176.6510  139.6960 C   0  0  0  0  0  1  0  0  0  0  0  0
  189.0970  177.1650  139.6330 C   0  0  2  0  0  3  0  0  0  0  0  0
  187.7860  178.4120  138.0420 O   0  0  0  0  0  1  0  0  0  0  0  0
  188.6580  177.3270  138.1760 C   0  0  2  0  0  3  0  0  0  0  0  0
  186.6630  176.2890  137.3130 O   0  0  0  0  0  1  0  0  0  0  0  0
  188.0020  176.0520  137.6380 C   0  0  1  0  0  3  0  0  0  0  0  0
  188.7430  175.4760  136.4290 C   0  0  0  0  0  2  0  0  0  0  0  0
  189.9850  174.7390  136.8150 C   0  0  0  0  0  0  0  0  0  0  0  0
  189.9020  173.6430  137.4280 O   0  0  0  0  0  1  0  0  0  0  0  0
  191.2300  175.2480  136.4720 O   0  0  0  0  0  0  0  0  0  0  0  0
  2  3  1  0  0  0  0
  2  5  2  0  0  0  0
  3  7  2  0  0  0  0
  5 14  1  0  0  0  0
  6  9  2  0  0  0  0
  7  4  1  0  0  0  0
  8 13  1  0  0  0  0
  8 12  2  0  0  0  0
  9  1  1  0  0  0  0
 10 19  2  0  0  0  0
 11  4  2  0  0  0  0
 12 16  1  0  0  0  0
 13  2  1  0  0  0  0
 14  1  2  0  0  0  0
 16 17  2  0  0  0  0
 16  5  1  0  0  0  0
 17  6  1  0  0  0  0
 18 10  1  0  0  0  0
 18 13  2  0  0  0  0
 19 20  1  0  0  0  0
 19  3  1  0  0  0  0
 20 15  1  6  0  0  0
 20 11  1  0  0  0  0
 21  8  1  0  0  0  0
 23 22  1  6  0  0  0
 23 21  1  0  0  0  0
 25 24  1  1  0  0  0
 25 23  1  0  0  0  0
 27 26  1  6  0  0  0
 27 25  1  0  0  0  0
 28 29  1  0  0  0  0
 28 27  1  0  0  0  0
 29 30  1  0  0  0  0
 31 29  2  0  0  0  0
M  END
>  <MODEL>
6

>  <REMARK>
 VINA RESULT:      -9.9      1.123      2.161
  Name = 
  6 active torsions:
  status: ('A' for Active; 'I' for Inactive)
    1  A    between atoms: C_1  and  C_24
    2  A    between atoms: C_9  and  C_22
    3  A    between atoms: C_9  and  C_23
    4  A    between atoms: C_15  and  C_23
    5  A    between atoms: C_19  and  C_22
    6  A    between atoms: C_19  and  C_24
                            x       y       z     vdW  Elec       q    Type
                         _______ _______ _______ _____ _____    ______ ____

>  <TORSDO>
F 6

$$$$
=
 OpenBabel10272400353D

 31 34  0  0  1  0  0  0  0  0999 V2000
  183.5250  178.7550  144.1150 C   0  0  0  0  0  3  0  0  0  0  0  0
  186.7010  178.0810  142.0340 C   0  0  0  0  0  0  0  0  0  0  0  0
  186.2370  178.3380  140.7470 C   0  0  0  0  0  0  0  0  0  0  0  0
  184.4750  179.1550  139.2330 C   0  0  0  0  0  3  0  0  0  0  0  0
  185.9180  178.2600  143.2530 C   0  0  0  0  0  0  0  0  0  0  0  0
  184.7670  178.6000  146.2610 C   0  0  0  0  0  3  0  0  0  0  0  0
  184.9400  178.8370  140.5050 C   0  0  0  0  0  3  0  0  0  0  0  0
  188.6360  177.4950  143.4410 C   0  0  0  0  0  0  0  0  0  0  0  0
  183.5850  178.7880  145.4350 C   0  0  0  0  0  3  0  0  0  0  0  0
  188.3110  177.6960  139.7030 C   0  0  0  0  0  3  0  0  0  0  0  0
  185.3070  178.9920  138.1360 C   0  0  0  0  0  3  0  0  0  0  0  0
  187.8950  177.7460  144.5750 C   0  0  0  0  0  3  0  0  0  0  0  0
  188.0550  177.6440  142.1770 C   0  0  0  0  0  0  0  0  0  0  0  0
  184.6040  178.5270  143.1510 C   0  0  0  0  0  3  0  0  0  0  0  0
  187.5960  178.3310  136.8620 Cl  0  0  0  0  0  0  0  0  0  0  0  0
  186.5610  178.1130  144.5170 C   0  0  0  0  0  0  0  0  0  0  0  0
  185.9990  178.3160  145.8630 C   0  0  0  0  0  3  0  0  0  0  0  0
  188.8860  177.2430  140.9910 C   0  0  0  0  0  3  0  0  0  0  0  0
  187.0720  178.1700  139.5950 C   0  0  0  0  0  0  0  0  0  0  0  0
  186.6000  178.5090  138.3060 C   0  0  2  0  0  3  0  0  0  0  0  0
  190.0670  177.0820  143.6140 C   0  0  0  0  0  2  0  0  0  0  0  0
  191.5810  179.0210  144.0970 C   0  0  0  0  0  1  0  0  0  0  0  0
  190.7470  177.9080  144.7060 C   0  0  2  0  0  3  0  0  0  0  0  0
  191.8240  175.7810  145.0550 O   0  0  0  0  0  1  0  0  0  0  0  0
  191.6110  177.0410  145.6240 C   0  0  2  0  0  3  0  0  0  0  0  0
  191.9820  176.9120  148.0000 O   0  0  0  0  0  1  0  0  0  0  0  0
  190.9890  176.8950  147.0160 C   0  0  1  0  0  3  0  0  0  0  0  0
  189.9390  177.9700  147.3060 C   0  0  0  0  0  2  0  0  0  0  0  0
  188.7590  177.4340  148.0490 C   0  0  0  0  0  0  0  0  0  0  0  0
  188.3700  176.2540  147.8460 O   0  0  0  0  0  0  0  0  0  0  0  0
  188.1080  178.2270  148.9840 O   0  0  0  0  0  1  0  0  0  0  0  0
  1  9  1  0  0  0  0
  2 13  1  0  0  0  0
  2  5  2  0  0  0  0
  3  2  1  0  0  0  0
  4  7  1  0  0  0  0
  5 16  1  0  0  0  0
  7  3  2  0  0  0  0
  8 21  1  0  0  0  0
  8 12  2  0  0  0  0
  9  6  2  0  0  0  0
 10 18  1  0  0  0  0
 11 20  1  0  0  0  0
 11  4  2  0  0  0  0
 13  8  1  0  0  0  0
 14  5  1  0  0  0  0
 14  1  2  0  0  0  0
 16 12  1  0  0  0  0
 16 17  2  0  0  0  0
 17  6  1  0  0  0  0
 18 13  2  0  0  0  0
 19 10  2  0  0  0  0
 19  3  1  0  0  0  0
 20 15  1  6  0  0  0
 20 19  1  0  0  0  0
 21 23  1  0  0  0  0
 23 22  1  6  0  0  0
 23 25  1  0  0  0  0
 25 24  1  6  0  0  0
 25 27  1  0  0  0  0
 27 28  1  0  0  0  0
 27 26  1  1  0  0  0
 28 29  1  0  0  0  0
 29 31  1  0  0  0  0
 30 29  2  0  0  0  0
M  END
>  <MODEL>
7

>  <REMARK>
 VINA RESULT:      -9.8      3.879      6.802
  Name = 
  6 active torsions:
  status: ('A' for Active; 'I' for Inactive)
    1  A    between atoms: C_1  and  C_24
    2  A    between atoms: C_9  and  C_22
    3  A    between atoms: C_9  and  C_23
    4  A    between atoms: C_15  and  C_23
    5  A    between atoms: C_19  and  C_22
    6  A    between atoms: C_19  and  C_24
                            x       y       z     vdW  Elec       q    Type
                         _______ _______ _______ _____ _____    ______ ____

>  <TORSDO>
F 6

$$$$
=
 OpenBabel10272400353D

 31 34  0  0  1  0  0  0  0  0999 V2000
  191.2480  177.0380  141.1950 C   0  0  0  0  0  3  0  0  0  0  0  0
  188.1540  177.7490  143.3860 C   0  0  0  0  0  0  0  0  0  0  0  0
  188.6790  177.5570  144.6600 C   0  0  0  0  0  0  0  0  0  0  0  0
  190.6060  177.1680  146.1420 C   0  0  0  0  0  3  0  0  0  0  0  0
  188.9270  177.6840  142.1480 C   0  0  0  0  0  0  0  0  0  0  0  0
  190.1060  177.8250  139.1350 C   0  0  0  0  0  3  0  0  0  0  0  0
  190.0500  177.3050  144.8740 C   0  0  0  0  0  2  0  0  0  0  0  0
  186.1920  178.4070  142.0490 C   0  0  0  0  0  0  0  0  0  0  0  0
  191.2190  177.2830  139.8970 C   0  0  0  0  0  3  0  0  0  0  0  0
  186.5580  177.8920  145.7530 C   0  0  0  0  0  3  0  0  0  0  0  0
  189.8010  177.2870  147.2630 C   0  0  0  0  0  3  0  0  0  0  0  0
  186.9640  178.4130  140.9080 C   0  0  0  0  0  3  0  0  0  0  0  0
  186.7640  178.0680  143.2800 C   0  0  0  0  0  0  0  0  0  0  0  0
  190.1970  177.2450  142.1950 C   0  0  0  0  0  3  0  0  0  0  0  0
  187.4830  177.6800  148.5970 Cl  0  0  0  0  0  0  0  0  0  0  0  0
  188.3030  178.0560  140.9220 C   0  0  0  0  0  0  0  0  0  0  0  0
  188.8960  178.1390  139.5770 C   0  0  0  0  0  3  0  0  0  0  0  0
  185.8390  177.9710  144.4600 C   0  0  0  0  0  3  0  0  0  0  0  0
  187.8670  177.6660  145.8360 C   0  0  0  0  0  0  0  0  0  0  0  0
  188.4410  177.5410  147.1220 C   0  0  0  0  0  0  0  0  0  0  0  0
  184.7480  178.7900  141.9220 C   0  0  0  0  0  2  0  0  0  0  0  0
  183.9950  179.5380  139.6500 C   0  0  0  0  0  1  0  0  0  0  0  0
  184.1810  178.3460  140.5740 C   0  0  2  0  0  3  0  0  0  0  0  0
  182.7750  176.5530  139.7920 O   0  0  0  0  0  1  0  0  0  0  0  0
  182.8620  177.5880  140.7300 C   0  0  2  0  0  3  0  0  0  0  0  0
  180.9680  178.2730  139.4090 O   0  0  0  0  0  1  0  0  0  0  0  0
  181.6530  178.5200  140.6020 C   0  0  1  0  0  3  0  0  0  0  0  0
  180.6970  178.4080  141.7930 C   0  0  0  0  0  2  0  0  0  0  0  0
  181.0010  179.4000  142.8680 C   0  0  0  0  0  0  0  0  0  0  0  0
  180.3570  180.4790  142.9300 O   0  0  0  0  0  0  0  0  0  0  0  0
  181.9750  179.1190  143.8170 O   0  0  0  0  0  1  0  0  0  0  0  0
  1 14  1  0  0  0  0
  2  3  2  0  0  0  0
  3  7  1  0  0  0  0
  3 19  1  0  0  0  0
  4 11  2  0  0  0  0
  5 14  2  0  0  0  0
  5  2  1  0  0  0  0
  6 17  2  0  0  0  0
  6  9  1  0  0  0  0
  7  4  1  0  0  0  0
  8 13  2  0  0  0  0
  9  1  2  0  0  0  0
 10 19  1  0  0  0  0
 12 16  2  0  0  0  0
 12  8  1  0  0  0  0
 13  2  1  0  0  0  0
 13 18  1  0  0  0  0
 16  5  1  0  0  0  0
 17 16  1  0  0  0  0
 18 10  2  0  0  0  0
 19 20  2  0  0  0  0
 20 11  1  0  0  0  0
 20 15  1  0  0  0  0
 21  8  1  0  0  0  0
 23 22  1  6  0  0  0
 23 25  1  0  0  0  0
 23 21  1  0  0  0  0
 25 24  1  6  0  0  0
 27 26  1  6  0  0  0
 27 25  1  0  0  0  0
 27 28  1  0  0  0  0
 28 29  1  0  0  0  0
 29 30  2  0  0  0  0
 29 31  1  0  0  0  0
M  END
>  <MODEL>
8

>  <REMARK>
 VINA RESULT:      -9.5      3.170      6.130
  Name = 
  6 active torsions:
  status: ('A' for Active; 'I' for Inactive)
    1  A    between atoms: C_1  and  C_24
    2  A    between atoms: C_9  and  C_22
    3  A    between atoms: C_9  and  C_23
    4  A    between atoms: C_15  and  C_23
    5  A    between atoms: C_19  and  C_22
    6  A    between atoms: C_19  and  C_24
                            x       y       z     vdW  Elec       q    Type
                         _______ _______ _______ _____ _____    ______ ____

>  <TORSDO>
F 6

$$$$
=
 OpenBabel10272400353D

 31 34  0  0  1  0  0  0  0  0999 V2000
  190.4760  176.6790  141.1640 C   0  0  0  0  0  3  0  0  0  0  0  0
  187.8580  177.8180  143.7580 C   0  0  0  0  0  0  0  0  0  0  0  0
  188.5010  177.4890  144.9480 C   0  0  0  0  0  0  0  0  0  0  0  0
  190.5040  176.7180  146.1540 C   0  0  0  0  0  3  0  0  0  0  0  0
  188.4430  177.6730  142.4290 C   0  0  0  0  0  0  0  0  0  0  0  0
  189.2330  177.7320  139.2880 C   0  0  0  0  0  3  0  0  0  0  0  0
  189.8230  176.9990  144.9740 C   0  0  0  0  0  2  0  0  0  0  0  0
  185.8870  178.8550  142.7060 C   0  0  0  0  0  0  0  0  0  0  0  0
  190.3240  176.9770  139.8860 C   0  0  0  0  0  3  0  0  0  0  0  0
  186.6280  178.1370  146.3190 C   0  0  0  0  0  3  0  0  0  0  0  0
  189.8820  176.9280  147.3740 C   0  0  0  0  0  3  0  0  0  0  0  0
  186.4950  178.7750  141.4730 C   0  0  0  0  0  3  0  0  0  0  0  0
  186.5430  178.3740  143.8440 C   0  0  0  0  0  0  0  0  0  0  0  0
  189.6130  177.0220  142.2980 C   0  0  0  0  0  3  0  0  0  0  0  0
  187.8580  177.6570  149.0100 Cl  0  0  0  0  0  0  0  0  0  0  0  0
  187.7420  178.1940  141.3020 C   0  0  0  0  0  0  0  0  0  0  0  0
  188.1640  178.2290  139.8920 C   0  0  0  0  0  3  0  0  0  0  0  0
  185.7740  178.3890  145.1350 C   0  0  0  0  0  3  0  0  0  0  0  0
  187.8780  177.6870  146.2230 C   0  0  0  0  0  0  0  0  0  0  0  0
  188.5800  177.4150  147.4200 C   0  0  0  0  0  0  0  0  0  0  0  0
  184.5270  179.4820  142.7790 C   0  0  0  0  0  2  0  0  0  0  0  0
  183.4590  178.0300  141.0360 C   0  0  0  0  0  1  0  0  0  0  0  0
  183.4330  178.4540  142.4940 C   0  0  2  0  0  3  0  0  0  0  0  0
  181.6180  178.4200  144.0780 O   0  0  0  0  0  1  0  0  0  0  0  0
  182.0450  178.9770  142.8670 C   0  0  2  0  0  3  0  0  0  0  0  0
  180.1400  177.6840  142.1600 O   0  0  0  0  0  1  0  0  0  0  0  0
  181.0180  178.6980  141.7660 C   0  0  1  0  0  3  0  0  0  0  0  0
  180.2340  179.9490  141.3640 C   0  0  0  0  0  2  0  0  0  0  0  0
  180.3820  180.2780  139.9130 C   0  0  0  0  0  0  0  0  0  0  0  0
  180.0670  181.4210  139.4910 O   0  0  0  0  0  1  0  0  0  0  0  0
  180.8930  179.3330  139.0360 O   0  0  0  0  0  0  0  0  0  0  0  0
  1 14  1  0  0  0  0
  2 13  1  0  0  0  0
  2  3  2  0  0  0  0
  3  7  1  0  0  0  0
  3 19  1  0  0  0  0
  4 11  2  0  0  0  0
  5  2  1  0  0  0  0
  6  9  1  0  0  0  0
  6 17  2  0  0  0  0
  7  4  1  0  0  0  0
  8 21  1  0  0  0  0
  8 13  2  0  0  0  0
  9  1  2  0  0  0  0
 11 20  1  0  0  0  0
 12  8  1  0  0  0  0
 13 18  1  0  0  0  0
 14  5  2  0  0  0  0
 16 12  2  0  0  0  0
 16  5  1  0  0  0  0
 17 16  1  0  0  0  0
 18 10  2  0  0  0  0
 19 10  1  0  0  0  0
 19 20  2  0  0  0  0
 20 15  1  0  0  0  0
 23 22  1  6  0  0  0
 23 21  1  0  0  0  0
 23 25  1  0  0  0  0
 25 24  1  1  0  0  0
 27 26  1  1  0  0  0
 27 25  1  0  0  0  0
 28 27  1  0  0  0  0
 29 28  1  0  0  0  0
 30 29  1  0  0  0  0
 31 29  2  0  0  0  0
M  END
>  <MODEL>
9

>  <REMARK>
 VINA RESULT:      -9.2      3.591      6.520
  Name = 
  6 active torsions:
  status: ('A' for Active; 'I' for Inactive)
    1  A    between atoms: C_1  and  C_24
    2  A    between atoms: C_9  and  C_22
    3  A    between atoms: C_9  and  C_23
    4  A    between atoms: C_15  and  C_23
    5  A    between atoms: C_19  and  C_22
    6  A    between atoms: C_19  and  C_24
                            x       y       z     vdW  Elec       q    Type
                         _______ _______ _______ _____ _____    ______ ____

>  <TORSDO>
F 6

$$$$
