=
 OpenBabel10272400543D

 25 28  0  0  1  0  0  0  0  0999 V2000
  190.1460  177.9980  144.5180 C   0  0  1  0  0  0  0  0  0  0  0  0
  189.8670  178.2360  143.0190 C   0  0  2  0  0  3  0  0  0  0  0  0
  191.4330  175.8570  144.0880 C   0  0  0  0  0  2  0  0  0  0  0  0
  189.1200  178.4530  145.3740 O   0  0  0  0  0  0  0  0  0  0  0  0
  189.5520  178.2080  147.6210 O   0  0  0  0  0  1  0  0  0  0  0  0
  191.7060  176.4660  142.6970 C   0  0  0  0  0  2  0  0  0  0  0  0
  189.0960  177.5540  146.4770 C   0  0  1  0  0  0  0  0  0  0  0  0
  187.6740  177.0820  146.7070 C   0  0  0  0  0  1  0  0  0  0  0  0
  190.0490  176.9470  140.8670 C   0  0  0  0  0  0  0  0  0  0  0  0
  190.7450  176.3090  140.0340 O   0  0  0  0  0  0  0  0  0  0  0  0
  188.3750  178.2660  142.6860 C   0  0  0  0  0  2  0  0  0  0  0  0
  190.2050  176.5070  144.7220 C   0  0  1  0  0  3  0  0  0  0  0  0
  189.9910  176.3530  146.1860 C   0  0  0  0  0  2  0  0  0  0  0  0
  188.6390  177.3250  140.5180 C   0  0  0  0  0  2  0  0  0  0  0  0
  188.2150  178.5170  141.2550 N   0  0  0  0  0  0  0  0  0  0  0  0
  190.5520  177.2250  142.1820 N   0  0  0  0  0  0  0  0  0  0  0  0
  191.4690  178.6930  144.9050 C   0  0  0  0  0  2  0  0  0  0  0  0
  191.6740  179.9940  144.1460 C   0  0  0  0  0  1  0  0  0  0  0  0
  186.7930  178.6770  141.0040 C   0  0  0  0  0  2  0  0  0  0  0  0
  186.0710  178.3300  142.1470 O   0  0  0  0  0  0  0  0  0  0  0  0
  184.5910  179.5340  143.6390 C   0  0  2  0  0  3  0  0  0  0  0  0
  183.7880  178.5940  142.7630 C   0  0  0  0  0  2  0  0  0  0  0  0
  185.0270  179.2590  142.2000 C   0  0  2  0  0  3  0  0  0  0  0  0
  184.5710  178.7910  145.7210 C   0  0  0  0  0  1  0  0  0  0  0  0
  185.3400  178.7910  144.5570 O   0  0  0  0  0  0  0  0  0  0  0  0
  1 12  1  0  0  0  0
  1 17  1  1  0  0  0
  1  4  1  0  0  0  0
  2 11  1  1  0  0  0
  2  1  1  0  0  0  0
  4  7  1  0  0  0  0
  6  3  1  0  0  0  0
  7  8  1  1  0  0  0
  7  5  1  0  0  0  0
  9 16  1  0  0  0  0
 10  9  2  0  0  0  0
 12  3  1  1  0  0  0
 12 13  1  0  0  0  0
 13  7  1  0  0  0  0
 14  9  1  0  0  0  0
 14 15  1  0  0  0  0
 15 11  1  0  0  0  0
 16  6  1  0  0  0  0
 16  2  1  0  0  0  0
 18 17  1  0  0  0  0
 19 15  1  0  0  0  0
 19 20  1  0  0  0  0
 21 25  1  1  0  0  0
 22 21  1  0  0  0  0
 23 20  1  1  0  0  0
 23 22  1  0  0  0  0
 23 21  1  0  0  0  0
 25 24  1  0  0  0  0
M  END
>  <MODEL>
1

>  <REMARK>
 VINA RESULT:      -6.1      0.000      0.000
  Name = 
  5 active torsions:
  status: ('A' for Active; 'I' for Inactive)
    1  A    between atoms: C_1  and  C_17
    2  A    between atoms: C_2  and  O_12
    3  A    between atoms: C_6  and  O_15
    4  A    between atoms: C_6  and  N_23
    5  A    between atoms: O_15  and  C_25
                            x       y       z     vdW  Elec       q    Type
                         _______ _______ _______ _____ _____    ______ ____

>  <TORSDO>
F 5

$$$$
=
 OpenBabel10272400543D

 25 28  0  0  1  0  0  0  0  0999 V2000
  190.7150  177.7670  144.6350 C   0  0  1  0  0  0  0  0  0  0  0  0
  189.6140  178.1770  143.6340 C   0  0  2  0  0  3  0  0  0  0  0  0
  191.8600  176.2350  142.9710 C   0  0  0  0  0  2  0  0  0  0  0  0
  190.2850  177.7240  145.9780 O   0  0  0  0  0  0  0  0  0  0  0  0
  191.9290  177.2180  147.5070 O   0  0  0  0  0  1  0  0  0  0  0  0
  191.2110  177.1410  141.9030 C   0  0  0  0  0  2  0  0  0  0  0  0
  191.0210  176.6770  146.5970 C   0  0  1  0  0  0  0  0  0  0  0  0
  190.0640  175.7610  147.3350 C   0  0  0  0  0  1  0  0  0  0  0  0
  188.7640  177.4190  141.3910 C   0  0  0  0  0  0  0  0  0  0  0  0
  188.9670  177.1860  140.1710 O   0  0  0  0  0  0  0  0  0  0  0  0
  188.2070  177.8120  144.1090 C   0  0  0  0  0  2  0  0  0  0  0  0
  191.1110  176.3540  144.2970 C   0  0  1  0  0  3  0  0  0  0  0  0
  191.7770  175.8790  145.5390 C   0  0  0  0  0  2  0  0  0  0  0  0
  187.3610  177.4070  141.9240 C   0  0  0  0  0  2  0  0  0  0  0  0
  187.2400  178.2570  143.1090 N   0  0  0  0  0  0  0  0  0  0  0  0
  189.8640  177.5930  142.2960 N   0  0  0  0  0  0  0  0  0  0  0  0
  191.9000  178.7490  144.5170 C   0  0  0  0  0  2  0  0  0  0  0  0
  191.4390  180.1650  144.2100 C   0  0  0  0  0  1  0  0  0  0  0  0
  185.9160  178.0200  143.6580 C   0  0  0  0  0  2  0  0  0  0  0  0
  186.0190  177.6720  145.0050 O   0  0  0  0  0  0  0  0  0  0  0  0
  186.1330  178.9180  147.0780 C   0  0  2  0  0  3  0  0  0  0  0  0
  184.7620  178.2920  146.9270 C   0  0  0  0  0  2  0  0  0  0  0  0
  185.5000  178.7710  145.6950 C   0  0  2  0  0  3  0  0  0  0  0  0
  187.7930  178.3710  148.4310 C   0  0  0  0  0  1  0  0  0  0  0  0
  187.0790  177.9180  147.3220 O   0  0  0  0  0  0  0  0  0  0  0  0
  1 17  1  6  0  0  0
  1  4  1  0  0  0  0
  2 11  1  1  0  0  0
  2  1  1  0  0  0  0
  4  7  1  0  0  0  0
  6 16  1  0  0  0  0
  6  3  1  0  0  0  0
  7  8  1  1  0  0  0
  7  5  1  0  0  0  0
  9 14  1  0  0  0  0
  9 16  1  0  0  0  0
 10  9  2  0  0  0  0
 12  3  1  6  0  0  0
 12  1  1  0  0  0  0
 12 13  1  0  0  0  0
 13  7  1  0  0  0  0
 14 15  1  0  0  0  0
 15 19  1  0  0  0  0
 15 11  1  0  0  0  0
 16  2  1  0  0  0  0
 18 17  1  0  0  0  0
 19 20  1  0  0  0  0
 21 25  1  6  0  0  0
 22 21  1  0  0  0  0
 23 20  1  6  0  0  0
 23 22  1  0  0  0  0
 23 21  1  0  0  0  0
 25 24  1  0  0  0  0
M  END
>  <MODEL>
2

>  <REMARK>
 VINA RESULT:      -5.7      1.569      2.359
  Name = 
  5 active torsions:
  status: ('A' for Active; 'I' for Inactive)
    1  A    between atoms: C_1  and  C_17
    2  A    between atoms: C_2  and  O_12
    3  A    between atoms: C_6  and  O_15
    4  A    between atoms: C_6  and  N_23
    5  A    between atoms: O_15  and  C_25
                            x       y       z     vdW  Elec       q    Type
                         _______ _______ _______ _____ _____    ______ ____

>  <TORSDO>
F 5

$$$$
=
 OpenBabel10272400543D

 25 28  0  0  1  0  0  0  0  0999 V2000
  182.5930  178.5420  138.9540 C   0  0  1  0  0  0  0  0  0  0  0  0
  183.3420  179.1060  140.1790 C   0  0  2  0  0  3  0  0  0  0  0  0
  180.8190  177.4180  140.3740 C   0  0  0  0  0  2  0  0  0  0  0  0
  183.4300  178.2140  137.8670 O   0  0  0  0  0  0  0  0  0  0  0  0
  182.3330  177.4680  135.9870 O   0  0  0  0  0  1  0  0  0  0  0  0
  181.1730  178.4980  141.4200 C   0  0  0  0  0  2  0  0  0  0  0  0
  182.8340  177.0900  137.2320 C   0  0  1  0  0  0  0  0  0  0  0  0
  183.8820  176.0110  137.0390 C   0  0  0  0  0  1  0  0  0  0  0  0
  183.3340  178.7860  142.6740 C   0  0  0  0  0  0  0  0  0  0  0  0
  182.7210  178.8120  143.7740 O   0  0  0  0  0  0  0  0  0  0  0  0
  184.7830  178.6030  140.2830 C   0  0  0  0  0  2  0  0  0  0  0  0
  181.9680  177.2400  139.3840 C   0  0  1  0  0  3  0  0  0  0  0  0
  181.6980  176.5480  138.0950 C   0  0  0  0  0  2  0  0  0  0  0  0
  184.8250  178.6180  142.6600 C   0  0  0  0  0  2  0  0  0  0  0  0
  185.4110  179.2070  141.4550 N   0  0  0  0  0  0  0  0  0  0  0  0
  182.6120  178.8130  141.4340 N   0  0  0  0  0  0  0  0  0  0  0  0
  181.5390  179.5680  138.4860 C   0  0  0  0  0  2  0  0  0  0  0  0
  182.0660  180.9940  138.5430 C   0  0  0  0  0  1  0  0  0  0  0  0
  186.8110  178.8180  141.4400 C   0  0  0  0  0  2  0  0  0  0  0  0
  187.2710  178.7640  140.1240 O   0  0  0  0  0  0  0  0  0  0  0  0
  189.3980  178.3190  139.0570 C   0  0  2  0  0  3  0  0  0  0  0  0
  188.5060  177.0990  138.9560 C   0  0  0  0  0  2  0  0  0  0  0  0
  188.4260  177.9800  140.1860 C   0  0  2  0  0  3  0  0  0  0  0  0
  189.0500  178.8400  136.9370 C   0  0  0  0  0  1  0  0  0  0  0  0
  188.8990  179.3330  138.2330 O   0  0  0  0  0  0  0  0  0  0  0  0
  1 17  1  6  0  0  0
  1 12  1  0  0  0  0
  1  2  1  0  0  0  0
  2 11  1  1  0  0  0
  2 16  1  0  0  0  0
  3  6  1  0  0  0  0
  4  1  1  0  0  0  0
  5  7  1  0  0  0  0
  6 16  1  0  0  0  0
  7  8  1  6  0  0  0
  7  4  1  0  0  0  0
  7 13  1  0  0  0  0
  9 10  2  0  0  0  0
 11 15  1  0  0  0  0
 12 13  1  6  0  0  0
 12  3  1  0  0  0  0
 14  9  1  0  0  0  0
 15 14  1  0  0  0  0
 16  9  1  0  0  0  0
 17 18  1  0  0  0  0
 19 15  1  0  0  0  0
 20 19  1  0  0  0  0
 21 25  1  6  0  0  0
 21 23  1  0  0  0  0
 22 21  1  0  0  0  0
 22 23  1  0  0  0  0
 23 20  1  6  0  0  0
 24 25  1  0  0  0  0
M  END
>  <MODEL>
3

>  <REMARK>
 VINA RESULT:      -5.6      4.234      8.720
  Name = 
  5 active torsions:
  status: ('A' for Active; 'I' for Inactive)
    1  A    between atoms: C_1  and  C_17
    2  A    between atoms: C_2  and  O_12
    3  A    between atoms: C_6  and  O_15
    4  A    between atoms: C_6  and  N_23
    5  A    between atoms: O_15  and  C_25
                            x       y       z     vdW  Elec       q    Type
                         _______ _______ _______ _____ _____    ______ ____

>  <TORSDO>
F 5

$$$$
=
 OpenBabel10272400543D

 25 28  0  0  1  0  0  0  0  0999 V2000
  188.3510  176.5470  136.7790 C   0  0  1  0  0  0  0  0  0  0  0  0
  188.6500  177.4580  137.9880 C   0  0  2  0  0  3  0  0  0  0  0  0
  185.8520  176.5570  137.2050 C   0  0  0  0  0  2  0  0  0  0  0  0
  189.3650  175.6060  136.5020 O   0  0  0  0  0  0  0  0  0  0  0  0
  188.9970  174.3030  134.6420 O   0  0  0  0  0  1  0  0  0  0  0  0
  186.1180  177.9070  137.9040 C   0  0  0  0  0  2  0  0  0  0  0  0
  188.7070  174.4510  135.9970 C   0  0  1  0  0  0  0  0  0  0  0  0
  189.1980  173.2280  136.7480 C   0  0  0  0  0  1  0  0  0  0  0  0
  187.4290  178.3270  140.0090 C   0  0  0  0  0  0  0  0  0  0  0  0
  186.4690  178.9690  140.5100 O   0  0  0  0  0  0  0  0  0  0  0  0
  189.5610  176.7980  139.0240 C   0  0  0  0  0  2  0  0  0  0  0  0
  187.1350  175.7320  137.1350 C   0  0  1  0  0  3  0  0  0  0  0  0
  187.1990  174.5900  136.1830 C   0  0  0  0  0  2  0  0  0  0  0  0
  188.5680  177.8940  140.8860 C   0  0  0  0  0  2  0  0  0  0  0  0
  189.8010  177.7420  140.1130 N   0  0  0  0  0  0  0  0  0  0  0  0
  187.3980  177.9160  138.6340 N   0  0  0  0  0  0  0  0  0  0  0  0
  188.1210  177.4220  135.5280 C   0  0  0  0  0  2  0  0  0  0  0  0
  189.4190  177.7230  134.7960 C   0  0  0  0  0  1  0  0  0  0  0  0
  190.7770  177.1340  141.0000 C   0  0  0  0  0  2  0  0  0  0  0  0
  190.3430  177.2430  142.3230 O   0  0  0  0  0  0  0  0  0  0  0  0
  191.2200  177.5580  144.5570 C   0  0  2  0  0  3  0  0  0  0  0  0
  191.4320  178.8140  143.7380 C   0  0  0  0  0  2  0  0  0  0  0  0
  191.5100  177.4620  143.0600 C   0  0  2  0  0  3  0  0  0  0  0  0
  189.7990  177.1620  146.2030 C   0  0  0  0  0  1  0  0  0  0  0  0
  189.8570  177.4020  144.8310 O   0  0  0  0  0  0  0  0  0  0  0  0
  1 17  1  6  0  0  0
  1 12  1  0  0  0  0
  1  2  1  0  0  0  0
  2 16  1  0  0  0  0
  2 11  1  1  0  0  0
  3  6  1  0  0  0  0
  4  1  1  0  0  0  0
  5  7  1  0  0  0  0
  6 16  1  0  0  0  0
  7 13  1  0  0  0  0
  7  4  1  0  0  0  0
  7  8  1  1  0  0  0
  9 10  2  0  0  0  0
  9 14  1  0  0  0  0
 11 15  1  0  0  0  0
 12 13  1  6  0  0  0
 12  3  1  0  0  0  0
 15 14  1  0  0  0  0
 15 19  1  0  0  0  0
 16  9  1  0  0  0  0
 18 17  1  0  0  0  0
 19 20  1  0  0  0  0
 21 25  1  6  0  0  0
 22 21  1  0  0  0  0
 23 20  1  6  0  0  0
 23 22  1  0  0  0  0
 23 21  1  0  0  0  0
 25 24  1  0  0  0  0
M  END
>  <MODEL>
4

>  <REMARK>
 VINA RESULT:      -5.6      3.462      7.579
  Name = 
  5 active torsions:
  status: ('A' for Active; 'I' for Inactive)
    1  A    between atoms: C_1  and  C_17
    2  A    between atoms: C_2  and  O_12
    3  A    between atoms: C_6  and  O_15
    4  A    between atoms: C_6  and  N_23
    5  A    between atoms: O_15  and  C_25
                            x       y       z     vdW  Elec       q    Type
                         _______ _______ _______ _____ _____    ______ ____

>  <TORSDO>
F 5

$$$$
=
 OpenBabel10272400543D

 25 28  0  0  1  0  0  0  0  0999 V2000
  182.7220  178.4810  138.9630 C   0  0  1  0  0  0  0  0  0  0  0  0
  183.4200  179.0790  140.2020 C   0  0  2  0  0  3  0  0  0  0  0  0
  180.9270  177.3430  140.3450 C   0  0  0  0  0  2  0  0  0  0  0  0
  183.6000  178.1530  137.9080 O   0  0  0  0  0  0  0  0  0  0  0  0
  182.5780  177.3560  136.0070 O   0  0  0  0  0  1  0  0  0  0  0  0
  181.2250  178.4450  141.3830 C   0  0  0  0  0  2  0  0  0  0  0  0
  183.0470  177.0070  137.2720 C   0  0  1  0  0  0  0  0  0  0  0  0
  184.1210  175.9470  137.1300 C   0  0  0  0  0  1  0  0  0  0  0  0
  183.3390  178.7970  142.7010 C   0  0  0  0  0  0  0  0  0  0  0  0
  182.6910  178.8270  143.7800 O   0  0  0  0  0  0  0  0  0  0  0  0
  184.8670  178.6070  140.3590 C   0  0  0  0  0  2  0  0  0  0  0  0
  182.1090  177.1730  139.3930 C   0  0  1  0  0  3  0  0  0  0  0  0
  181.8950  176.4560  138.1080 C   0  0  0  0  0  2  0  0  0  0  0  0
  184.8330  178.6590  142.7360 C   0  0  0  0  0  2  0  0  0  0  0  0
  185.4450  179.2420  141.5410 N   0  0  0  0  0  0  0  0  0  0  0  0
  182.6570  178.7900  141.4370 N   0  0  0  0  0  0  0  0  0  0  0  0
  181.6630  179.4780  138.4460 C   0  0  0  0  0  2  0  0  0  0  0  0
  182.1410  180.9180  138.5420 C   0  0  0  0  0  1  0  0  0  0  0  0
  186.8520  178.8810  141.5770 C   0  0  0  0  0  2  0  0  0  0  0  0
  187.0900  178.0180  142.6480 O   0  0  0  0  0  0  0  0  0  0  0  0
  188.9680  176.7820  143.5460 C   0  0  2  0  0  3  0  0  0  0  0  0
  189.4510  178.0810  142.9340 C   0  0  0  0  0  2  0  0  0  0  0  0
  188.2750  177.3570  142.3120 C   0  0  2  0  0  3  0  0  0  0  0  0
  189.2210  177.1270  145.7150 C   0  0  0  0  0  1  0  0  0  0  0  0
  188.2510  177.0540  144.7150 O   0  0  0  0  0  0  0  0  0  0  0  0
  1 17  1  6  0  0  0
  1 12  1  0  0  0  0
  1  2  1  0  0  0  0
  2 11  1  1  0  0  0
  2 16  1  0  0  0  0
  3  6  1  0  0  0  0
  4  1  1  0  0  0  0
  5  7  1  0  0  0  0
  6 16  1  0  0  0  0
  7  8  1  6  0  0  0
  7  4  1  0  0  0  0
  7 13  1  0  0  0  0
  9 14  1  0  0  0  0
  9 10  2  0  0  0  0
 11 15  1  0  0  0  0
 12 13  1  6  0  0  0
 12  3  1  0  0  0  0
 15 19  1  0  0  0  0
 15 14  1  0  0  0  0
 16  9  1  0  0  0  0
 17 18  1  0  0  0  0
 19 20  1  0  0  0  0
 21 25  1  1  0  0  0
 22 21  1  0  0  0  0
 23 20  1  1  0  0  0
 23 22  1  0  0  0  0
 23 21  1  0  0  0  0
 25 24  1  0  0  0  0
M  END
>  <MODEL>
5

>  <REMARK>
 VINA RESULT:      -5.4      3.674      8.304
  Name = 
  5 active torsions:
  status: ('A' for Active; 'I' for Inactive)
    1  A    between atoms: C_1  and  C_17
    2  A    between atoms: C_2  and  O_12
    3  A    between atoms: C_6  and  O_15
    4  A    between atoms: C_6  and  N_23
    5  A    between atoms: O_15  and  C_25
                            x       y       z     vdW  Elec       q    Type
                         _______ _______ _______ _____ _____    ______ ____

>  <TORSDO>
F 5

$$$$
=
 OpenBabel10272400543D

 25 28  0  0  1  0  0  0  0  0999 V2000
  189.2140  175.6110  136.7680 C   0  0  1  0  0  0  0  0  0  0  0  0
  190.1330  175.6480  138.0070 C   0  0  2  0  0  3  0  0  0  0  0  0
  191.0390  176.4270  135.2100 C   0  0  0  0  0  2  0  0  0  0  0  0
  187.8620  175.9040  137.0450 O   0  0  0  0  0  0  0  0  0  0  0  0
  186.4470  175.7540  135.2370 O   0  0  0  0  0  1  0  0  0  0  0  0
  192.0050  175.8210  136.2510 C   0  0  0  0  0  2  0  0  0  0  0  0
  187.3580  176.5760  135.8980 C   0  0  1  0  0  0  0  0  0  0  0  0
  186.6570  177.8480  136.3320 C   0  0  0  0  0  1  0  0  0  0  0  0
  192.3920  176.5710  138.6210 C   0  0  0  0  0  0  0  0  0  0  0  0
  193.6340  176.6300  138.4260 O   0  0  0  0  0  0  0  0  0  0  0  0
  189.6310  176.5960  139.0970 C   0  0  0  0  0  2  0  0  0  0  0  0
  189.6790  176.7070  135.8450 C   0  0  1  0  0  3  0  0  0  0  0  0
  188.5070  176.9240  134.9550 C   0  0  0  0  0  2  0  0  0  0  0  0
  191.8040  177.2000  139.8490 C   0  0  0  0  0  2  0  0  0  0  0  0
  190.5520  176.5450  140.2300 N   0  0  0  0  0  0  0  0  0  0  0  0
  191.5220  176.0000  137.6320 N   0  0  0  0  0  0  0  0  0  0  0  0
  189.3030  174.2170  136.1110 C   0  0  0  0  0  2  0  0  0  0  0  0
  188.5420  173.1640  136.9010 C   0  0  0  0  0  1  0  0  0  0  0  0
  189.9690  177.3460  141.2930 C   0  0  0  0  0  2  0  0  0  0  0  0
  190.4770  176.9350  142.5260 O   0  0  0  0  0  0  0  0  0  0  0  0
  190.7410  177.7700  144.7830 C   0  0  2  0  0  3  0  0  0  0  0  0
  189.3300  177.2550  144.5860 C   0  0  0  0  0  2  0  0  0  0  0  0
  190.0500  177.9130  143.4270 C   0  0  2  0  0  3  0  0  0  0  0  0
  191.7890  176.3800  146.1460 C   0  0  0  0  0  1  0  0  0  0  0  0
  191.6340  176.6940  144.7960 O   0  0  0  0  0  0  0  0  0  0  0  0
  1 17  1  6  0  0  0
  1  4  1  0  0  0  0
  1  2  1  0  0  0  0
  2 11  1  1  0  0  0
  3 12  1  0  0  0  0
  3  6  1  0  0  0  0
  5  7  1  0  0  0  0
  6 16  1  0  0  0  0
  7  8  1  1  0  0  0
  7  4  1  0  0  0  0
  9 14  1  0  0  0  0
 10  9  2  0  0  0  0
 11 15  1  0  0  0  0
 12 13  1  6  0  0  0
 12  1  1  0  0  0  0
 13  7  1  0  0  0  0
 14 15  1  0  0  0  0
 15 19  1  0  0  0  0
 16  2  1  0  0  0  0
 16  9  1  0  0  0  0
 17 18  1  0  0  0  0
 19 20  1  0  0  0  0
 21 25  1  6  0  0  0
 22 21  1  0  0  0  0
 23 20  1  6  0  0  0
 23 22  1  0  0  0  0
 23 21  1  0  0  0  0
 25 24  1  0  0  0  0
M  END
>  <MODEL>
6

>  <REMARK>
 VINA RESULT:      -5.4      3.921      7.578
  Name = 
  5 active torsions:
  status: ('A' for Active; 'I' for Inactive)
    1  A    between atoms: C_1  and  C_17
    2  A    between atoms: C_2  and  O_12
    3  A    between atoms: C_6  and  O_15
    4  A    between atoms: C_6  and  N_23
    5  A    between atoms: O_15  and  C_25
                            x       y       z     vdW  Elec       q    Type
                         _______ _______ _______ _____ _____    ______ ____

>  <TORSDO>
F 5

$$$$
=
 OpenBabel10272400543D

 25 28  0  0  1  0  0  0  0  0999 V2000
  190.1230  177.9970  144.5320 C   0  0  1  0  0  0  0  0  0  0  0  0
  189.7160  178.3040  143.0760 C   0  0  2  0  0  3  0  0  0  0  0  0
  191.3910  175.8990  143.8880 C   0  0  0  0  0  2  0  0  0  0  0  0
  189.1690  178.3940  145.4920 O   0  0  0  0  0  0  0  0  0  0  0  0
  189.7920  178.0450  147.6800 O   0  0  0  0  0  1  0  0  0  0  0  0
  191.5390  176.5800  142.5100 C   0  0  0  0  0  2  0  0  0  0  0  0
  189.2480  177.4420  146.5470 C   0  0  1  0  0  0  0  0  0  0  0  0
  187.8550  176.9390  146.8710 C   0  0  0  0  0  1  0  0  0  0  0  0
  189.7280  177.1260  140.8530 C   0  0  0  0  0  0  0  0  0  0  0  0
  190.3580  176.5410  139.9330 O   0  0  0  0  0  0  0  0  0  0  0  0
  188.2000  178.3300  142.8710 C   0  0  0  0  0  2  0  0  0  0  0  0
  190.2140  176.4980  144.6550 C   0  0  1  0  0  3  0  0  0  0  0  0
  190.1270  176.2690  146.1220 C   0  0  0  0  0  2  0  0  0  0  0  0
  188.2900  177.5010  140.6430 C   0  0  0  0  0  2  0  0  0  0  0  0
  187.9170  178.6480  141.4730 N   0  0  0  0  0  0  0  0  0  0  0  0
  190.3380  177.3460  142.1330 N   0  0  0  0  0  0  0  0  0  0  0  0
  191.4670  178.6910  144.8410 C   0  0  0  0  0  2  0  0  0  0  0  0
  191.5880  180.0360  144.1420 C   0  0  0  0  0  1  0  0  0  0  0  0
  186.4780  178.8000  141.3510 C   0  0  0  0  0  2  0  0  0  0  0  0
  186.1180  178.8080  140.0020 O   0  0  0  0  0  0  0  0  0  0  0  0
  184.2250  178.0900  138.6740 C   0  0  2  0  0  3  0  0  0  0  0  0
  184.1070  179.5680  138.9830 C   0  0  0  0  0  2  0  0  0  0  0  0
  184.7300  178.6420  140.0070 C   0  0  2  0  0  3  0  0  0  0  0  0
  184.6950  177.1680  136.7210 C   0  0  0  0  0  1  0  0  0  0  0  0
  185.2710  177.8830  137.7710 O   0  0  0  0  0  0  0  0  0  0  0  0
  1 12  1  0  0  0  0
  1 17  1  1  0  0  0
  1  4  1  0  0  0  0
  2 11  1  1  0  0  0
  2  1  1  0  0  0  0
  4  7  1  0  0  0  0
  6  3  1  0  0  0  0
  7  8  1  1  0  0  0
  7  5  1  0  0  0  0
  9 16  1  0  0  0  0
 10  9  2  0  0  0  0
 12  3  1  1  0  0  0
 12 13  1  0  0  0  0
 13  7  1  0  0  0  0
 14  9  1  0  0  0  0
 14 15  1  0  0  0  0
 15 11  1  0  0  0  0
 16  6  1  0  0  0  0
 16  2  1  0  0  0  0
 18 17  1  0  0  0  0
 19 15  1  0  0  0  0
 20 19  1  0  0  0  0
 21 25  1  6  0  0  0
 21 22  1  0  0  0  0
 21 23  1  0  0  0  0
 22 23  1  0  0  0  0
 23 20  1  6  0  0  0
 24 25  1  0  0  0  0
M  END
>  <MODEL>
7

>  <REMARK>
 VINA RESULT:      -5.3      1.791      2.715
  Name = 
  5 active torsions:
  status: ('A' for Active; 'I' for Inactive)
    1  A    between atoms: C_1  and  C_17
    2  A    between atoms: C_2  and  O_12
    3  A    between atoms: C_6  and  O_15
    4  A    between atoms: C_6  and  N_23
    5  A    between atoms: O_15  and  C_25
                            x       y       z     vdW  Elec       q    Type
                         _______ _______ _______ _____ _____    ______ ____

>  <TORSDO>
F 5

$$$$
=
 OpenBabel10272400543D

 25 28  0  0  1  0  0  0  0  0999 V2000
  188.7890  177.9190  142.8670 C   0  0  1  0  0  0  0  0  0  0  0  0
  189.4800  178.0730  141.4960 C   0  0  2  0  0  3  0  0  0  0  0  0
  189.5480  175.5160  143.1420 C   0  0  0  0  0  2  0  0  0  0  0  0
  187.6000  178.6660  143.0000 O   0  0  0  0  0  0  0  0  0  0  0  0
  186.6010  178.5400  145.0700 O   0  0  0  0  0  1  0  0  0  0  0  0
  190.6990  175.9180  142.1960 C   0  0  0  0  0  2  0  0  0  0  0  0
  186.7420  177.9010  143.8380 C   0  0  1  0  0  0  0  0  0  0  0  0
  185.3800  177.7790  143.1830 C   0  0  0  0  0  1  0  0  0  0  0  0
  190.5490  176.5820  139.7740 C   0  0  0  0  0  0  0  0  0  0  0  0
  191.4230  175.7320  139.4610 O   0  0  0  0  0  0  0  0  0  0  0  0
  188.5010  178.4010  140.3670 C   0  0  0  0  0  2  0  0  0  0  0  0
  188.3710  176.4770  142.9880 C   0  0  1  0  0  3  0  0  0  0  0  0
  187.3320  176.5100  144.0520 C   0  0  0  0  0  2  0  0  0  0  0  0
  189.7260  177.2290  138.6990 C   0  0  0  0  0  2  0  0  0  0  0  0
  189.2500  178.5480  139.1200 N   0  0  0  0  0  0  0  0  0  0  0  0
  190.2610  176.8620  141.1520 N   0  0  0  0  0  0  0  0  0  0  0  0
  189.7730  178.3360  143.9810 C   0  0  0  0  0  2  0  0  0  0  0  0
  190.8170  179.3210  143.4800 C   0  0  0  0  0  1  0  0  0  0  0  0
  188.3110  178.9940  138.1060 C   0  0  0  0  0  2  0  0  0  0  0  0
  187.0510  178.4460  138.3560 O   0  0  0  0  0  0  0  0  0  0  0  0
  185.1260  177.5960  137.1600 C   0  0  2  0  0  3  0  0  0  0  0  0
  186.2460  176.5770  137.1230 C   0  0  0  0  0  2  0  0  0  0  0  0
  186.5820  178.0540  137.0990 C   0  0  2  0  0  3  0  0  0  0  0  0
  183.3780  177.0320  138.3910 C   0  0  0  0  0  1  0  0  0  0  0  0
  184.6120  177.6790  138.4580 O   0  0  0  0  0  0  0  0  0  0  0  0
  1 12  1  0  0  0  0
  1  4  1  0  0  0  0
  1 17  1  1  0  0  0
  2 11  1  6  0  0  0
  2  1  1  0  0  0  0
  4  7  1  0  0  0  0
  6  3  1  0  0  0  0
  7  8  1  6  0  0  0
  7 13  1  0  0  0  0
  7  5  1  0  0  0  0
  9 16  1  0  0  0  0
 10  9  2  0  0  0  0
 12  3  1  1  0  0  0
 12 13  1  0  0  0  0
 14 15  1  0  0  0  0
 14  9  1  0  0  0  0
 15 11  1  0  0  0  0
 16  2  1  0  0  0  0
 16  6  1  0  0  0  0
 18 17  1  0  0  0  0
 19 20  1  0  0  0  0
 19 15  1  0  0  0  0
 21 25  1  1  0  0  0
 22 21  1  0  0  0  0
 23 22  1  0  0  0  0
 23 21  1  0  0  0  0
 23 20  1  1  0  0  0
 24 25  1  0  0  0  0
M  END
>  <MODEL>
8

>  <REMARK>
 VINA RESULT:      -5.2      2.536      3.750
  Name = 
  5 active torsions:
  status: ('A' for Active; 'I' for Inactive)
    1  A    between atoms: C_1  and  C_17
    2  A    between atoms: C_2  and  O_12
    3  A    between atoms: C_6  and  O_15
    4  A    between atoms: C_6  and  N_23
    5  A    between atoms: O_15  and  C_25
                            x       y       z     vdW  Elec       q    Type
                         _______ _______ _______ _____ _____    ______ ____

>  <TORSDO>
F 5

$$$$
=
 OpenBabel10272400543D

 25 28  0  0  1  0  0  0  0  0999 V2000
  189.6850  178.0240  143.5070 C   0  0  1  0  0  0  0  0  0  0  0  0
  189.0490  178.4480  142.1670 C   0  0  2  0  0  3  0  0  0  0  0  0
  190.6550  175.8920  142.5380 C   0  0  0  0  0  2  0  0  0  0  0  0
  188.9510  178.4210  144.6440 O   0  0  0  0  0  0  0  0  0  0  0  0
  189.9270  177.8950  146.6610 O   0  0  0  0  0  1  0  0  0  0  0  0
  190.6060  176.6470  141.1930 C   0  0  0  0  0  2  0  0  0  0  0  0
  189.1450  177.4020  145.6180 C   0  0  1  0  0  0  0  0  0  0  0  0
  187.7980  176.9710  146.1660 C   0  0  0  0  0  1  0  0  0  0  0  0
  188.5740  177.4130  139.9230 C   0  0  0  0  0  0  0  0  0  0  0  0
  188.9830  176.8470  138.8760 O   0  0  0  0  0  0  0  0  0  0  0  0
  187.5270  178.5850  142.2440 C   0  0  0  0  0  2  0  0  0  0  0  0
  189.6830  176.5180  143.5360 C   0  0  1  0  0  3  0  0  0  0  0  0
  189.8420  176.2030  144.9810 C   0  0  0  0  0  2  0  0  0  0  0  0
  187.1550  177.8940  139.9990 C   0  0  0  0  0  2  0  0  0  0  0  0
  187.0240  179.0090  140.9390 N   0  0  0  0  0  0  0  0  0  0  0  0
  189.4180  177.5120  141.0800 N   0  0  0  0  0  0  0  0  0  0  0  0
  191.1110  178.6070  143.5990 C   0  0  0  0  0  2  0  0  0  0  0  0
  191.1170  180.0090  144.1880 C   0  0  0  0  0  1  0  0  0  0  0  0
  185.6020  179.2610  141.0900 C   0  0  0  0  0  2  0  0  0  0  0  0
  185.0340  179.5190  139.8410 O   0  0  0  0  0  0  0  0  0  0  0  0
  183.2110  178.2730  138.8480 C   0  0  2  0  0  3  0  0  0  0  0  0
  182.8890  179.7530  138.8390 C   0  0  0  0  0  2  0  0  0  0  0  0
  183.6880  179.1730  139.9870 C   0  0  2  0  0  3  0  0  0  0  0  0
  183.6040  177.3570  136.8750 C   0  0  0  0  0  1  0  0  0  0  0  0
  184.2350  178.0120  137.9330 O   0  0  0  0  0  0  0  0  0  0  0  0
  1 12  1  0  0  0  0
  1 17  1  1  0  0  0
  1  4  1  0  0  0  0
  2 11  1  1  0  0  0
  2  1  1  0  0  0  0
  4  7  1  0  0  0  0
  6  3  1  0  0  0  0
  7  8  1  1  0  0  0
  7  5  1  0  0  0  0
  9 14  1  0  0  0  0
  9 16  1  0  0  0  0
 10  9  2  0  0  0  0
 12  3  1  6  0  0  0
 12 13  1  0  0  0  0
 13  7  1  0  0  0  0
 14 15  1  0  0  0  0
 15 19  1  0  0  0  0
 15 11  1  0  0  0  0
 16  6  1  0  0  0  0
 16  2  1  0  0  0  0
 17 18  1  0  0  0  0
 20 19  1  0  0  0  0
 21 25  1  6  0  0  0
 21 23  1  0  0  0  0
 22 21  1  0  0  0  0
 22 23  1  0  0  0  0
 23 20  1  6  0  0  0
 24 25  1  0  0  0  0
M  END
>  <MODEL>
9

>  <REMARK>
 VINA RESULT:      -5.2      2.191      2.971
  Name = 
  5 active torsions:
  status: ('A' for Active; 'I' for Inactive)
    1  A    between atoms: C_1  and  C_17
    2  A    between atoms: C_2  and  O_12
    3  A    between atoms: C_6  and  O_15
    4  A    between atoms: C_6  and  N_23
    5  A    between atoms: O_15  and  C_25
                            x       y       z     vdW  Elec       q    Type
                         _______ _______ _______ _____ _____    ______ ____

>  <TORSDO>
F 5

$$$$
