=
 OpenBabel10272400543D

 25 28  0  0  1  0  0  0  0  0999 V2000
  187.4900  177.6630  145.6050 C   0  0  0  0  0  0  0  0  0  0  0  0
  188.7970  177.3070  145.2480 C   0  0  0  0  0  0  0  0  0  0  0  0
  188.1050  178.0830  147.8990 C   0  0  0  0  0  3  0  0  0  0  0  0
  186.2320  177.6290  144.8070 C   0  0  1  0  0  3  0  0  0  0  0  0
  190.0810  176.3140  143.2450 C   0  0  0  0  0  0  0  0  0  0  0  0
  183.9030  179.2120  144.1960 C   0  0  0  0  0  3  0  0  0  0  0  0
  189.4300  177.7690  147.5730 C   0  0  0  0  0  3  0  0  0  0  0  0
  185.2600  178.1210  145.8470 C   0  0  0  0  0  0  0  0  0  0  0  0
  183.9790  178.7000  145.4320 C   0  0  0  0  0  3  0  0  0  0  0  0
  191.2330  177.0740  145.9590 C   0  0  1  0  0  3  0  0  0  0  0  0
  192.0210  177.1020  147.1130 O   0  0  0  0  0  1  0  0  0  0  0  0
  189.0420  176.9340  143.8350 C   0  0  0  0  0  3  0  0  0  0  0  0
  185.0940  179.2350  143.3060 C   0  0  0  0  0  3  0  0  0  0  0  0
  187.1530  178.0050  146.8930 C   0  0  0  0  0  0  0  0  0  0  0  0
  185.7760  178.3250  147.0180 N   0  0  0  0  0  0  0  0  0  0  0  0
  191.3170  175.7020  145.3380 C   0  0  0  0  0  2  0  0  0  0  0  0
  186.2080  178.5510  143.6140 C   0  0  0  0  0  3  0  0  0  0  0  0
  191.1960  175.8130  143.9300 O   0  0  0  0  0  0  0  0  0  0  0  0
  189.7950  177.3780  146.2620 C   0  0  0  0  0  0  0  0  0  0  0  0
  190.0640  176.1430  141.8230 N   0  0  0  0  0  2  0  0  0  0  0  0
  188.8960  177.6300  140.2730 C   0  0  0  0  0  1  0  0  0  0  0  0
  190.2390  177.2260  140.8600 C   0  0  2  0  0  3  0  0  0  0  0  0
  191.1660  176.7990  139.7720 C   0  0  0  0  0  0  0  0  0  0  0  0
  190.7310  175.8450  138.8110 N   0  0  0  0  0  1  0  0  0  0  0  0
  192.3340  177.2670  139.7030 O   0  0  0  0  0  0  0  0  0  0  0  0
  1 14  1  0  0  0  0
  2  1  2  0  0  0  0
  2 19  1  0  0  0  0
  4 17  1  6  0  0  0
  4  1  1  0  0  0  0
  4  8  1  0  0  0  0
  5 12  2  0  0  0  0
  5 18  1  0  0  0  0
  6  9  2  0  0  0  0
  7  3  1  0  0  0  0
  8 15  2  0  0  0  0
  9  8  1  0  0  0  0
 10 19  1  0  0  0  0
 10 11  1  1  0  0  0
 12  2  1  0  0  0  0
 13 17  2  0  0  0  0
 13  6  1  0  0  0  0
 14 15  1  0  0  0  0
 14  3  2  0  0  0  0
 16 10  1  0  0  0  0
 18 16  1  0  0  0  0
 19  7  2  0  0  0  0
 20  5  1  0  0  0  0
 22 21  1  6  0  0  0
 22 20  1  0  0  0  0
 23 22  1  0  0  0  0
 24 23  1  0  0  0  0
 25 23  2  0  0  0  0
M  END
>  <MODEL>
1

>  <REMARK>
 VINA RESULT:     -10.0      0.000      0.000
  Name = 
  3 active torsions:
  status: ('A' for Active; 'I' for Inactive)
    1  A    between atoms: C_2  and  C_25
    2  A    between atoms: C_6  and  N_15
    3  A    between atoms: N_15  and  C_25
                            x       y       z     vdW  Elec       q    Type
                         _______ _______ _______ _____ _____    ______ ____

>  <TORSDO>
F 3

$$$$
=
 OpenBabel10272400543D

 25 28  0  0  1  0  0  0  0  0999 V2000
  188.5390  177.6440  144.8680 C   0  0  0  0  0  0  0  0  0  0  0  0
  187.8470  177.8010  143.6590 C   0  0  0  0  0  0  0  0  0  0  0  0
  186.5120  177.7180  146.1730 C   0  0  0  0  0  3  0  0  0  0  0  0
  190.0030  177.5950  145.1390 C   0  0  1  0  0  3  0  0  0  0  0  0
  188.3340  178.1970  141.1590 C   0  0  0  0  0  0  0  0  0  0  0  0
  191.9750  176.1080  146.6220 C   0  0  0  0  0  3  0  0  0  0  0  0
  185.7820  177.8390  144.9840 C   0  0  0  0  0  3  0  0  0  0  0  0
  189.9780  177.4370  146.6360 C   0  0  0  0  0  0  0  0  0  0  0  0
  191.1440  176.8830  147.3310 C   0  0  0  0  0  3  0  0  0  0  0  0
  185.5970  177.9940  142.4780 C   0  0  1  0  0  3  0  0  0  0  0  0
  184.2430  178.1700  142.7720 O   0  0  0  0  0  1  0  0  0  0  0  0
  188.6470  177.8160  142.4120 C   0  0  0  0  0  3  0  0  0  0  0  0
  191.6890  175.7840  145.2000 C   0  0  0  0  0  3  0  0  0  0  0  0
  187.8940  177.6380  146.0820 C   0  0  0  0  0  0  0  0  0  0  0  0
  188.7950  177.4680  147.1650 N   0  0  0  0  0  0  0  0  0  0  0  0
  186.0840  179.1740  141.6740 C   0  0  0  0  0  2  0  0  0  0  0  0
  190.7280  176.4280  144.5170 C   0  0  0  0  0  3  0  0  0  0  0  0
  187.1030  178.7500  140.7840 O   0  0  0  0  0  0  0  0  0  0  0  0
  186.4270  177.8860  143.7240 C   0  0  0  0  0  0  0  0  0  0  0  0
  189.3130  178.0360  140.1250 N   0  0  0  0  0  2  0  0  0  0  0  0
  191.6510  177.4800  140.5740 C   0  0  0  0  0  1  0  0  0  0  0  0
  190.3050  176.9660  140.0900 C   0  0  2  0  0  3  0  0  0  0  0  0
  190.4310  176.4310  138.7020 C   0  0  0  0  0  0  0  0  0  0  0  0
  190.0490  177.2410  137.5980 N   0  0  0  0  0  1  0  0  0  0  0  0
  190.8630  175.2640  138.5010 O   0  0  0  0  0  0  0  0  0  0  0  0
  1  4  1  0  0  0  0
  1 14  1  0  0  0  0
  2 19  1  0  0  0  0
  2  1  2  0  0  0  0
  4 17  1  6  0  0  0
  4  8  1  0  0  0  0
  5 12  2  0  0  0  0
  6  9  2  0  0  0  0
  7  3  1  0  0  0  0
  8 15  2  0  0  0  0
  8  9  1  0  0  0  0
 10 11  1  1  0  0  0
 10 19  1  0  0  0  0
 12  2  1  0  0  0  0
 13  6  1  0  0  0  0
 14  3  2  0  0  0  0
 14 15  1  0  0  0  0
 16 10  1  0  0  0  0
 17 13  2  0  0  0  0
 18  5  1  0  0  0  0
 18 16  1  0  0  0  0
 19  7  2  0  0  0  0
 20  5  1  0  0  0  0
 22 20  1  0  0  0  0
 22 21  1  6  0  0  0
 23 22  1  0  0  0  0
 24 23  1  0  0  0  0
 25 23  2  0  0  0  0
M  END
>  <MODEL>
2

>  <REMARK>
 VINA RESULT:      -9.8      2.494      4.806
  Name = 
  3 active torsions:
  status: ('A' for Active; 'I' for Inactive)
    1  A    between atoms: C_2  and  C_25
    2  A    between atoms: C_6  and  N_15
    3  A    between atoms: N_15  and  C_25
                            x       y       z     vdW  Elec       q    Type
                         _______ _______ _______ _____ _____    ______ ____

>  <TORSDO>
F 3

$$$$
=
 OpenBabel10272400543D

 25 28  0  0  1  0  0  0  0  0999 V2000
  188.4330  177.6810  144.8260 C   0  0  0  0  0  0  0  0  0  0  0  0
  187.6750  177.8650  143.6610 C   0  0  0  0  0  0  0  0  0  0  0  0
  186.4790  177.6980  146.2400 C   0  0  0  0  0  3  0  0  0  0  0  0
  189.9100  177.6400  145.0160 C   0  0  1  0  0  3  0  0  0  0  0  0
  188.0230  178.3350  141.1500 C   0  0  0  0  0  0  0  0  0  0  0  0
  191.9720  176.1320  146.3480 C   0  0  0  0  0  3  0  0  0  0  0  0
  185.6850  177.8450  145.0950 C   0  0  0  0  0  3  0  0  0  0  0  0
  189.9670  177.4400  146.5070 C   0  0  0  0  0  0  0  0  0  0  0  0
  191.1740  176.8790  147.1220 C   0  0  0  0  0  3  0  0  0  0  0  0
  185.3630  178.0680  142.6080 C   0  0  1  0  0  3  0  0  0  0  0  0
  184.0250  178.2220  142.9810 O   0  0  0  0  0  1  0  0  0  0  0  0
  188.4060  177.9230  142.3730 C   0  0  0  0  0  3  0  0  0  0  0  0
  191.6130  175.8450  144.9340 C   0  0  0  0  0  3  0  0  0  0  0  0
  187.8550  177.6350  146.0720 C   0  0  0  0  0  0  0  0  0  0  0  0
  188.8150  177.4440  147.0990 N   0  0  0  0  0  0  0  0  0  0  0  0
  185.7950  179.2740  141.8140 C   0  0  0  0  0  2  0  0  0  0  0  0
  190.6100  176.4970  144.3230 C   0  0  0  0  0  3  0  0  0  0  0  0
  186.7680  178.8860  140.8580 O   0  0  0  0  0  0  0  0  0  0  0  0
  186.2600  177.9330  143.8040 C   0  0  0  0  0  0  0  0  0  0  0  0
  188.9460  178.2130  140.0610 N   0  0  0  0  0  2  0  0  0  0  0  0
  189.8370  176.8550  138.2340 C   0  0  0  0  0  1  0  0  0  0  0  0
  188.6270  177.5980  138.7760 C   0  0  2  0  0  3  0  0  0  0  0  0
  188.1900  178.6430  137.8040 C   0  0  0  0  0  0  0  0  0  0  0  0
  186.8450  178.6580  137.3440 N   0  0  0  0  0  1  0  0  0  0  0  0
  189.0060  179.5040  137.3790 O   0  0  0  0  0  0  0  0  0  0  0  0
  1  4  1  0  0  0  0
  1 14  1  0  0  0  0
  2 19  1  0  0  0  0
  2  1  2  0  0  0  0
  4 17  1  6  0  0  0
  4  8  1  0  0  0  0
  5 12  2  0  0  0  0
  6  9  2  0  0  0  0
  7  3  1  0  0  0  0
  8 15  2  0  0  0  0
  8  9  1  0  0  0  0
 10 11  1  1  0  0  0
 10 19  1  0  0  0  0
 12  2  1  0  0  0  0
 13  6  1  0  0  0  0
 14  3  2  0  0  0  0
 14 15  1  0  0  0  0
 16 10  1  0  0  0  0
 17 13  2  0  0  0  0
 18  5  1  0  0  0  0
 18 16  1  0  0  0  0
 19  7  2  0  0  0  0
 20  5  1  0  0  0  0
 22 21  1  6  0  0  0
 22 20  1  0  0  0  0
 23 22  1  0  0  0  0
 24 23  1  0  0  0  0
 25 23  2  0  0  0  0
M  END
>  <MODEL>
3

>  <REMARK>
 VINA RESULT:      -9.8      2.803      5.057
  Name = 
  3 active torsions:
  status: ('A' for Active; 'I' for Inactive)
    1  A    between atoms: C_2  and  C_25
    2  A    between atoms: C_6  and  N_15
    3  A    between atoms: N_15  and  C_25
                            x       y       z     vdW  Elec       q    Type
                         _______ _______ _______ _____ _____    ______ ____

>  <TORSDO>
F 3

$$$$
=
 OpenBabel10272400543D

 25 28  0  0  1  0  0  0  0  0999 V2000
  188.1320  177.7590  144.8590 C   0  0  0  0  0  0  0  0  0  0  0  0
  186.8690  178.1320  144.3800 C   0  0  0  0  0  0  0  0  0  0  0  0
  187.3880  177.7520  147.1540 C   0  0  0  0  0  3  0  0  0  0  0  0
  189.4230  177.5870  144.1360 C   0  0  1  0  0  3  0  0  0  0  0  0
  185.7470  178.8670  142.1780 C   0  0  0  0  0  0  0  0  0  0  0  0
  191.6610  175.7870  143.9100 C   0  0  0  0  0  3  0  0  0  0  0  0
  186.1030  178.0900  146.7100 C   0  0  0  0  0  3  0  0  0  0  0  0
  190.3110  177.2100  145.2920 C   0  0  0  0  0  0  0  0  0  0  0  0
  191.5660  176.4940  145.0440 C   0  0  0  0  0  3  0  0  0  0  0  0
  184.4260  178.6260  144.9110 C   0  0  1  0  0  3  0  0  0  0  0  0
  183.5880  178.8320  146.0100 O   0  0  0  0  0  1  0  0  0  0  0  0
  186.7130  178.2880  142.9140 C   0  0  0  0  0  3  0  0  0  0  0  0
  190.5130  175.6950  142.9710 C   0  0  0  0  0  3  0  0  0  0  0  0
  188.3870  177.6080  146.2010 C   0  0  0  0  0  0  0  0  0  0  0  0
  189.7310  177.2290  146.4510 N   0  0  0  0  0  0  0  0  0  0  0  0
  184.4650  179.8820  144.0780 C   0  0  0  0  0  2  0  0  0  0  0  0
  189.4350  176.4860  143.1060 C   0  0  0  0  0  3  0  0  0  0  0  0
  184.6400  179.5390  142.7140 O   0  0  0  0  0  0  0  0  0  0  0  0
  185.8250  178.2870  145.3360 C   0  0  0  0  0  0  0  0  0  0  0  0
  185.8380  178.8070  140.7500 N   0  0  0  0  0  2  0  0  0  0  0  0
  183.6460  177.8010  140.3530 C   0  0  0  0  0  1  0  0  0  0  0  0
  184.6890  178.7860  139.8510 C   0  0  2  0  0  3  0  0  0  0  0  0
  185.1230  178.4130  138.4730 C   0  0  0  0  0  0  0  0  0  0  0  0
  186.4550  178.6870  138.0560 N   0  0  0  0  0  1  0  0  0  0  0  0
  184.3170  177.8680  137.6720 O   0  0  0  0  0  0  0  0  0  0  0  0
  1 14  1  0  0  0  0
  2  1  2  0  0  0  0
  2 19  1  0  0  0  0
  4 17  1  6  0  0  0
  4  1  1  0  0  0  0
  4  8  1  0  0  0  0
  5 18  1  0  0  0  0
  5 12  2  0  0  0  0
  6  9  2  0  0  0  0
  7  3  1  0  0  0  0
  8 15  2  0  0  0  0
  9  8  1  0  0  0  0
 10 19  1  0  0  0  0
 10 11  1  1  0  0  0
 12  2  1  0  0  0  0
 13 17  2  0  0  0  0
 13  6  1  0  0  0  0
 14 15  1  0  0  0  0
 14  3  2  0  0  0  0
 16 10  1  0  0  0  0
 18 16  1  0  0  0  0
 19  7  2  0  0  0  0
 20  5  1  0  0  0  0
 22 21  1  1  0  0  0
 22 20  1  0  0  0  0
 23 22  1  0  0  0  0
 24 23  1  0  0  0  0
 25 23  2  0  0  0  0
M  END
>  <MODEL>
4

>  <REMARK>
 VINA RESULT:      -9.5      3.614      5.633
  Name = 
  3 active torsions:
  status: ('A' for Active; 'I' for Inactive)
    1  A    between atoms: C_2  and  C_25
    2  A    between atoms: C_6  and  N_15
    3  A    between atoms: N_15  and  C_25
                            x       y       z     vdW  Elec       q    Type
                         _______ _______ _______ _____ _____    ______ ____

>  <TORSDO>
F 3

$$$$
=
 OpenBabel10272400543D

 25 28  0  0  1  0  0  0  0  0999 V2000
  185.9420  178.5330  144.8550 C   0  0  0  0  0  0  0  0  0  0  0  0
  185.7820  178.4130  143.4670 C   0  0  0  0  0  0  0  0  0  0  0  0
  183.5710  178.7820  145.2230 C   0  0  0  0  0  3  0  0  0  0  0  0
  187.1810  178.6010  145.6790 C   0  0  1  0  0  3  0  0  0  0  0  0
  187.2210  178.3170  141.3310 C   0  0  0  0  0  0  0  0  0  0  0  0
  188.3570  177.5290  148.0800 C   0  0  0  0  0  3  0  0  0  0  0  0
  183.3680  178.6300  143.8460 C   0  0  0  0  0  3  0  0  0  0  0  0
  186.5680  178.7480  147.0460 C   0  0  0  0  0  0  0  0  0  0  0  0
  187.3470  178.3950  148.2360 C   0  0  0  0  0  3  0  0  0  0  0  0
  184.1810  178.2690  141.4900 C   0  0  1  0  0  3  0  0  0  0  0  0
  182.8270  178.4430  141.1920 O   0  0  0  0  0  1  0  0  0  0  0  0
  187.0050  178.2110  142.6550 C   0  0  0  0  0  2  0  0  0  0  0  0
  188.6350  176.9130  146.7560 C   0  0  0  0  0  3  0  0  0  0  0  0
  184.8750  178.7440  145.6950 C   0  0  0  0  0  0  0  0  0  0  0  0
  185.2750  178.8340  147.0540 N   0  0  0  0  0  0  0  0  0  0  0  0
  184.9900  179.2820  140.7200 C   0  0  0  0  0  2  0  0  0  0  0  0
  188.0420  177.3640  145.6380 C   0  0  0  0  0  3  0  0  0  0  0  0
  186.2570  178.7310  140.4020 O   0  0  0  0  0  0  0  0  0  0  0  0
  184.4540  178.4490  142.9550 C   0  0  0  0  0  0  0  0  0  0  0  0
  188.5180  177.9920  140.8160 N   0  0  0  0  0  0  0  0  0  0  0  0
  190.0320  178.1580  142.7280 C   0  0  0  0  0  1  0  0  0  0  0  0
  189.5540  177.2950  141.5720 C   0  0  2  0  0  3  0  0  0  0  0  0
  190.7000  176.9570  140.6780 C   0  0  0  0  0  0  0  0  0  0  0  0
  190.4790  176.1650  139.5190 N   0  0  0  0  0  1  0  0  0  0  0  0
  191.8640  177.3600  140.9470 O   0  0  0  0  0  0  0  0  0  0  0  0
  1  4  1  0  0  0  0
  1 14  1  0  0  0  0
  2  1  2  0  0  0  0
  3 14  2  0  0  0  0
  4 17  1  1  0  0  0
  4  8  1  0  0  0  0
  5 12  1  0  0  0  0
  6  9  2  0  0  0  0
  7  3  1  0  0  0  0
  8 15  2  0  0  0  0
  8  9  1  0  0  0  0
 10 11  1  1  0  0  0
 10 19  1  0  0  0  0
 12  2  1  0  0  0  0
 13  6  1  0  0  0  0
 14 15  1  0  0  0  0
 16 10  1  0  0  0  0
 17 13  2  0  0  0  0
 18 16  1  0  0  0  0
 18  5  1  0  0  0  0
 19  2  1  0  0  0  0
 19  7  2  0  0  0  0
 20  5  2  0  0  0  0
 20 22  1  0  0  0  0
 22 21  1  1  0  0  0
 23 25  2  0  0  0  0
 23 22  1  0  0  0  0
 24 23  1  0  0  0  0
M  END
>  <MODEL>
5

>  <REMARK>
 VINA RESULT:      -9.4      2.574      4.903
  Name = 
  3 active torsions:
  status: ('A' for Active; 'I' for Inactive)
    1  A    between atoms: C_2  and  C_25
    2  A    between atoms: C_6  and  N_15
    3  A    between atoms: N_15  and  C_25
                            x       y       z     vdW  Elec       q    Type
                         _______ _______ _______ _____ _____    ______ ____

>  <TORSDO>
F 3

$$$$
=
 OpenBabel10272400543D

 25 28  0  0  1  0  0  0  0  0999 V2000
  184.8710  178.7530  143.8000 C   0  0  0  0  0  0  0  0  0  0  0  0
  184.7880  178.6390  142.4050 C   0  0  0  0  0  0  0  0  0  0  0  0
  182.4730  178.8110  144.0540 C   0  0  0  0  0  3  0  0  0  0  0  0
  186.0600  178.9090  144.6840 C   0  0  1  0  0  3  0  0  0  0  0  0
  186.3310  178.6830  140.3400 C   0  0  0  0  0  0  0  0  0  0  0  0
  187.2010  177.9020  147.1300 C   0  0  0  0  0  3  0  0  0  0  0  0
  182.3490  178.6610  142.6670 C   0  0  0  0  0  3  0  0  0  0  0  0
  185.3720  178.9890  146.0200 C   0  0  0  0  0  0  0  0  0  0  0  0
  186.1190  178.6840  147.2440 C   0  0  0  0  0  3  0  0  0  0  0  0
  183.3000  178.3940  140.3510 C   0  0  1  0  0  3  0  0  0  0  0  0
  181.9520  178.4640  139.9890 O   0  0  0  0  0  1  0  0  0  0  0  0
  186.0610  178.5430  141.6520 C   0  0  0  0  0  3  0  0  0  0  0  0
  187.5900  177.3260  145.8160 C   0  0  0  0  0  3  0  0  0  0  0  0
  183.7520  178.8700  144.5890 C   0  0  0  0  0  0  0  0  0  0  0  0
  184.0780  178.9740  145.9660 N   0  0  0  0  0  0  0  0  0  0  0  0
  184.0620  179.4770  139.6300 C   0  0  0  0  0  2  0  0  0  0  0  0
  187.0180  177.7440  144.6740 C   0  0  0  0  0  3  0  0  0  0  0  0
  185.3830  179.0310  139.3690 O   0  0  0  0  0  0  0  0  0  0  0  0
  183.4880  178.5770  141.8290 C   0  0  0  0  0  0  0  0  0  0  0  0
  187.6730  178.4680  139.8870 N   0  0  0  0  0  2  0  0  0  0  0  0
  189.3240  176.9330  138.9410 C   0  0  0  0  0  1  0  0  0  0  0  0
  188.0280  177.6900  138.7040 C   0  0  2  0  0  3  0  0  0  0  0  0
  188.1710  178.5920  137.5230 C   0  0  0  0  0  0  0  0  0  0  0  0
  187.4160  178.3340  136.3460 N   0  0  0  0  0  1  0  0  0  0  0  0
  188.9620  179.5720  137.5570 O   0  0  0  0  0  0  0  0  0  0  0  0
  1 14  1  0  0  0  0
  1  4  1  0  0  0  0
  2  1  2  0  0  0  0
  3 14  2  0  0  0  0
  4 17  1  1  0  0  0
  4  8  1  0  0  0  0
  5 12  2  0  0  0  0
  6  9  2  0  0  0  0
  7  3  1  0  0  0  0
  8  9  1  0  0  0  0
 10 11  1  1  0  0  0
 10 19  1  0  0  0  0
 12  2  1  0  0  0  0
 13  6  1  0  0  0  0
 14 15  1  0  0  0  0
 15  8  2  0  0  0  0
 16 10  1  0  0  0  0
 17 13  2  0  0  0  0
 18 16  1  0  0  0  0
 18  5  1  0  0  0  0
 19  2  1  0  0  0  0
 19  7  2  0  0  0  0
 20  5  1  0  0  0  0
 22 21  1  1  0  0  0
 22 20  1  0  0  0  0
 23 25  2  0  0  0  0
 23 22  1  0  0  0  0
 24 23  1  0  0  0  0
M  END
>  <MODEL>
6

>  <REMARK>
 VINA RESULT:      -9.3      3.480      5.797
  Name = 
  3 active torsions:
  status: ('A' for Active; 'I' for Inactive)
    1  A    between atoms: C_2  and  C_25
    2  A    between atoms: C_6  and  N_15
    3  A    between atoms: N_15  and  C_25
                            x       y       z     vdW  Elec       q    Type
                         _______ _______ _______ _____ _____    ______ ____

>  <TORSDO>
F 3

$$$$
=
 OpenBabel10272400543D

 25 28  0  0  1  0  0  0  0  0999 V2000
  189.7000  177.6300  144.1570 C   0  0  0  0  0  0  0  0  0  0  0  0
  188.5970  177.5690  145.0200 C   0  0  0  0  0  0  0  0  0  0  0  0
  191.2710  177.2550  145.9500 C   0  0  0  0  0  3  0  0  0  0  0  0
  189.7680  177.9480  142.7030 C   0  0  1  0  0  3  0  0  0  0  0  0
  186.0530  177.9810  144.9790 C   0  0  0  0  0  0  0  0  0  0  0  0
  190.9720  177.0410  140.2480 C   0  0  0  0  0  3  0  0  0  0  0  0
  190.1910  177.1520  146.8370 C   0  0  0  0  0  3  0  0  0  0  0  0
  191.2550  177.8440  142.4910 C   0  0  0  0  0  0  0  0  0  0  0  0
  191.7860  177.6160  141.1440 C   0  0  0  0  0  3  0  0  0  0  0  0
  187.7340  177.1670  147.3830 C   0  0  1  0  0  3  0  0  0  0  0  0
  188.2110  177.0180  148.6880 O   0  0  0  0  0  1  0  0  0  0  0  0
  187.2520  177.7340  144.4200 C   0  0  0  0  0  3  0  0  0  0  0  0
  189.6030  176.6050  140.6310 C   0  0  0  0  0  3  0  0  0  0  0  0
  190.9910  177.5110  144.6140 C   0  0  0  0  0  0  0  0  0  0  0  0
  191.9410  177.6050  143.5650 N   0  0  0  0  0  0  0  0  0  0  0  0
  186.8680  178.3990  147.3120 C   0  0  0  0  0  2  0  0  0  0  0  0
  189.0570  176.9710  141.8030 C   0  0  0  0  0  3  0  0  0  0  0  0
  185.8480  178.2040  146.3470 O   0  0  0  0  0  0  0  0  0  0  0  0
  188.8550  177.3090  146.3950 C   0  0  0  0  0  0  0  0  0  0  0  0
  184.8950  178.0250  144.1360 N   0  0  0  0  0  2  0  0  0  0  0  0
  182.9050  179.4070  143.8130 C   0  0  0  0  0  1  0  0  0  0  0  0
  184.3830  179.2370  143.5030 C   0  0  2  0  0  3  0  0  0  0  0  0
  184.5920  179.1700  142.0270 C   0  0  0  0  0  0  0  0  0  0  0  0
  183.5700  178.6360  141.1950 N   0  0  0  0  0  1  0  0  0  0  0  0
  185.6690  179.5730  141.5120 O   0  0  0  0  0  0  0  0  0  0  0  0
  1 14  2  0  0  0  0
  1  2  1  0  0  0  0
  2 19  2  0  0  0  0
  3  7  2  0  0  0  0
  4 17  1  6  0  0  0
  4  1  1  0  0  0  0
  5 18  1  0  0  0  0
  6 13  1  0  0  0  0
  6  9  2  0  0  0  0
  8  4  1  0  0  0  0
  8 15  2  0  0  0  0
  9  8  1  0  0  0  0
 10 11  1  1  0  0  0
 12  5  2  0  0  0  0
 12  2  1  0  0  0  0
 13 17  2  0  0  0  0
 14  3  1  0  0  0  0
 15 14  1  0  0  0  0
 16 10  1  0  0  0  0
 18 16  1  0  0  0  0
 19  7  1  0  0  0  0
 19 10  1  0  0  0  0
 20  5  1  0  0  0  0
 22 21  1  6  0  0  0
 22 20  1  0  0  0  0
 23 22  1  0  0  0  0
 24 23  1  0  0  0  0
 25 23  2  0  0  0  0
M  END
>  <MODEL>
7

>  <REMARK>
 VINA RESULT:      -9.1      2.747      5.625
  Name = 
  3 active torsions:
  status: ('A' for Active; 'I' for Inactive)
    1  A    between atoms: C_2  and  C_25
    2  A    between atoms: C_6  and  N_15
    3  A    between atoms: N_15  and  C_25
                            x       y       z     vdW  Elec       q    Type
                         _______ _______ _______ _____ _____    ______ ____

>  <TORSDO>
F 3

$$$$
=
 OpenBabel10272400543D

 25 28  0  0  1  0  0  0  0  0999 V2000
  186.1940  178.1070  144.7740 C   0  0  0  0  0  0  0  0  0  0  0  0
  187.4800  177.8020  145.2410 C   0  0  0  0  0  0  0  0  0  0  0  0
  185.5200  179.0430  146.8930 C   0  0  0  0  0  3  0  0  0  0  0  0
  185.5460  177.7980  143.4690 C   0  0  1  0  0  3  0  0  0  0  0  0
  189.5920  176.5340  144.4800 C   0  0  0  0  0  0  0  0  0  0  0  0
  183.9480  179.0090  141.4000 C   0  0  0  0  0  3  0  0  0  0  0  0
  186.8060  178.7870  147.3840 C   0  0  0  0  0  3  0  0  0  0  0  0
  184.1900  178.4070  143.7100 C   0  0  0  0  0  0  0  0  0  0  0  0
  183.3420  178.7730  142.5710 C   0  0  0  0  0  3  0  0  0  0  0  0
  189.1640  177.9350  147.1490 C   0  0  1  0  0  3  0  0  0  0  0  0
  189.2240  178.2700  148.5050 O   0  0  0  0  0  1  0  0  0  0  0  0
  188.4200  177.1680  144.2870 C   0  0  0  0  0  3  0  0  0  0  0  0
  185.4290  178.9530  141.2820 C   0  0  0  0  0  3  0  0  0  0  0  0
  185.2400  178.6760  145.5840 C   0  0  0  0  0  0  0  0  0  0  0  0
  184.0170  178.8930  144.8980 N   0  0  0  0  0  0  0  0  0  0  0  0
  189.5150  176.4780  146.9850 C   0  0  0  0  0  2  0  0  0  0  0  0
  186.1890  178.4480  142.2690 C   0  0  0  0  0  3  0  0  0  0  0  0
  190.1590  176.2850  145.7370 O   0  0  0  0  0  0  0  0  0  0  0  0
  187.7940  178.1670  146.5810 C   0  0  0  0  0  0  0  0  0  0  0  0
  190.3220  176.0720  143.3380 N   0  0  0  0  0  2  0  0  0  0  0  0
  191.1600  178.3380  142.9660 C   0  0  0  0  0  1  0  0  0  0  0  0
  190.9910  176.9460  142.3790 C   0  0  2  0  0  3  0  0  0  0  0  0
  190.2010  177.0170  141.1140 C   0  0  0  0  0  0  0  0  0  0  0  0
  189.2040  178.0190  140.9630 N   0  0  0  0  0  1  0  0  0  0  0  0
  190.4040  176.1910  140.1840 O   0  0  0  0  0  0  0  0  0  0  0  0
  1  2  2  0  0  0  0
  1 14  1  0  0  0  0
  2 19  1  0  0  0  0
  3  7  1  0  0  0  0
  4 17  1  6  0  0  0
  4  8  1  0  0  0  0
  4  1  1  0  0  0  0
  5 18  1  0  0  0  0
  6  9  2  0  0  0  0
  8 15  2  0  0  0  0
  9  8  1  0  0  0  0
 10 11  1  1  0  0  0
 12  5  2  0  0  0  0
 12  2  1  0  0  0  0
 13  6  1  0  0  0  0
 13 17  2  0  0  0  0
 14  3  2  0  0  0  0
 15 14  1  0  0  0  0
 16 10  1  0  0  0  0
 18 16  1  0  0  0  0
 19 10  1  0  0  0  0
 19  7  2  0  0  0  0
 20  5  1  0  0  0  0
 22 21  1  1  0  0  0
 22 20  1  0  0  0  0
 23 22  1  0  0  0  0
 24 23  1  0  0  0  0
 25 23  2  0  0  0  0
M  END
>  <MODEL>
8

>  <REMARK>
 VINA RESULT:      -8.9      1.640      2.359
  Name = 
  3 active torsions:
  status: ('A' for Active; 'I' for Inactive)
    1  A    between atoms: C_2  and  C_25
    2  A    between atoms: C_6  and  N_15
    3  A    between atoms: N_15  and  C_25
                            x       y       z     vdW  Elec       q    Type
                         _______ _______ _______ _____ _____    ______ ____

>  <TORSDO>
F 3

$$$$
=
 OpenBabel10272400543D

 25 28  0  0  1  0  0  0  0  0999 V2000
  187.4800  177.8310  144.1550 C   0  0  0  0  0  0  0  0  0  0  0  0
  188.4370  177.8680  143.1310 C   0  0  0  0  0  0  0  0  0  0  0  0
  189.1460  177.4390  145.8560 C   0  0  0  0  0  3  0  0  0  0  0  0
  185.9940  177.8910  144.0860 C   0  0  1  0  0  3  0  0  0  0  0  0
  188.5490  177.9510  140.5570 C   0  0  0  0  0  0  0  0  0  0  0  0
  183.7250  179.1640  145.3240 C   0  0  0  0  0  3  0  0  0  0  0  0
  190.1340  177.5060  144.8650 C   0  0  0  0  0  3  0  0  0  0  0  0
  185.6670  177.7740  145.5510 C   0  0  0  0  0  0  0  0  0  0  0  0
  184.3700  178.2400  146.0490 C   0  0  0  0  0  3  0  0  0  0  0  0
  190.9010  177.7990  142.4850 C   0  0  1  0  0  3  0  0  0  0  0  0
  192.1490  177.5180  143.0460 O   0  0  0  0  0  1  0  0  0  0  0  0
  187.9510  178.1110  141.7520 C   0  0  0  0  0  3  0  0  0  0  0  0
  184.3350  179.7280  144.0920 C   0  0  0  0  0  3  0  0  0  0  0  0
  187.8230  177.5910  145.4640 C   0  0  0  0  0  0  0  0  0  0  0  0
  186.6940  177.5990  146.3230 N   0  0  0  0  0  0  0  0  0  0  0  0
  190.6190  176.8060  141.3860 C   0  0  0  0  0  2  0  0  0  0  0  0
  185.4320  179.1800  143.5420 C   0  0  0  0  0  3  0  0  0  0  0  0
  189.8350  177.4250  140.3790 O   0  0  0  0  0  0  0  0  0  0  0  0
  189.8020  177.7140  143.5040 C   0  0  0  0  0  0  0  0  0  0  0  0
  187.8380  178.3370  139.3740 N   0  0  0  0  0  2  0  0  0  0  0  0
  188.9820  178.7900  137.2610 C   0  0  0  0  0  1  0  0  0  0  0  0
  188.1150  177.8140  138.0400 C   0  0  2  0  0  3  0  0  0  0  0  0
  186.8360  177.5710  137.3100 C   0  0  0  0  0  0  0  0  0  0  0  0
  185.6140  178.0540  137.8530 N   0  0  0  0  0  1  0  0  0  0  0  0
  186.8280  176.9340  136.2230 O   0  0  0  0  0  0  0  0  0  0  0  0
  1 14  1  0  0  0  0
  2 19  1  0  0  0  0
  2  1  2  0  0  0  0
  4 17  1  1  0  0  0
  4  1  1  0  0  0  0
  4  8  1  0  0  0  0
  5 12  2  0  0  0  0
  6  9  2  0  0  0  0
  7  3  1  0  0  0  0
  8  9  1  0  0  0  0
  8 15  2  0  0  0  0
 10 11  1  1  0  0  0
 10 19  1  0  0  0  0
 12  2  1  0  0  0  0
 13  6  1  0  0  0  0
 14  3  2  0  0  0  0
 14 15  1  0  0  0  0
 16 10  1  0  0  0  0
 17 13  2  0  0  0  0
 18  5  1  0  0  0  0
 18 16  1  0  0  0  0
 19  7  2  0  0  0  0
 20  5  1  0  0  0  0
 22 21  1  6  0  0  0
 22 20  1  0  0  0  0
 23 24  1  0  0  0  0
 23 22  1  0  0  0  0
 25 23  2  0  0  0  0
M  END
>  <MODEL>
9

>  <REMARK>
 VINA RESULT:      -8.9      2.447      3.227
  Name = 
  3 active torsions:
  status: ('A' for Active; 'I' for Inactive)
    1  A    between atoms: C_2  and  C_25
    2  A    between atoms: C_6  and  N_15
    3  A    between atoms: N_15  and  C_25
                            x       y       z     vdW  Elec       q    Type
                         _______ _______ _______ _____ _____    ______ ____

>  <TORSDO>
F 3

$$$$
