=
 OpenBabel10272415193D

 34 37  0  0  1  0  0  0  0  0999 V2000
  186.7800  178.0100  144.5770 C   0  0  0  0  0  0  0  0  0  0  0  0
  189.6540  177.7400  146.8110 C   0  0  0  0  0  3  0  0  0  0  0  0
  187.4170  178.5080  147.3260 C   0  0  0  0  0  3  0  0  0  0  0  0
  185.2040  178.2220  142.6240 N   0  0  0  0  0  0  0  0  0  0  0  0
  186.4630  177.9220  143.1720 N   0  0  0  0  0  2  0  0  0  0  0  0
  184.0690  179.6570  144.2590 C   0  0  0  0  0  2  0  0  0  0  0  0
  183.5370  178.5480  146.3130 O   0  0  0  0  0  1  0  0  0  0  0  0
  184.8920  179.6020  142.9730 C   0  0  0  0  0  2  0  0  0  0  0  0
  186.1670  178.6990  146.9120 C   0  0  0  0  0  3  0  0  0  0  0  0
  185.7790  178.4140  145.5530 N   0  0  0  0  0  0  0  0  0  0  0  0
  184.3590  178.4770  145.1850 C   0  0  2  0  0  3  0  0  0  0  0  0
  190.6930  177.2180  145.9050 C   0  0  0  0  0  0  0  0  0  0  0  0
  190.4270  177.0470  144.6020 C   0  0  0  0  0  3  0  0  0  0  0  0
  188.4180  178.0020  146.3850 C   0  0  0  0  0  0  0  0  0  0  0  0
  189.1120  177.4110  143.9680 C   0  0  0  0  0  2  0  0  0  0  0  0
  188.0460  177.7860  144.9700 C   0  0  0  0  0  0  0  0  0  0  0  0
  185.3530  178.1780  141.1790 C   0  0  0  0  0  2  0  0  0  0  0  0
  183.0280  179.9960  138.8100 C   0  0  0  0  0  3  0  0  0  0  0  0
  182.8620  178.2220  140.9610 C   0  0  0  0  0  3  0  0  0  0  0  0
  181.7740  179.5520  139.2470 C   0  0  0  0  0  0  0  0  0  0  0  0
  181.6860  178.6590  140.3350 C   0  0  0  0  0  0  0  0  0  0  0  0
  184.1090  178.6720  140.5230 C   0  0  0  0  0  0  0  0  0  0  0  0
  184.1920  179.5550  139.4430 C   0  0  0  0  0  3  0  0  0  0  0  0
  180.3800  178.1790  140.8130 C   0  0  0  0  0  3  0  0  0  0  0  0
  180.1130  178.1240  142.0430 O   0  0  0  0  0  0  0  0  0  0  0  0
  180.5530  180.0620  138.5510 C   0  0  0  0  0  2  0  0  0  0  0  0
  180.3810  181.5490  138.8160 C   0  0  0  0  0  2  0  0  0  0  0  0
  180.5220  182.3190  137.5450 C   0  0  0  0  0  0  0  0  0  0  0  0
  180.4320  181.6110  136.2360 C   0  0  0  0  0  1  0  0  0  0  0  0
  180.6940  183.5270  137.5730 O   0  0  0  0  0  0  0  0  0  0  0  0
  191.9440  176.9010  146.4630 O   0  0  0  0  0  0  0  0  0  0  0  0
  192.4010  174.6370  146.1750 O   0  0  0  0  0  0  0  0  0  0  0  0
  192.7500  175.5000  148.3550 C   0  0  0  0  0  1  0  0  0  0  0  0
  192.3540  175.6440  146.9310 C   0  0  0  0  0  0  0  0  0  0  0  0
  1 16  2  0  0  0  0
  1 10  1  0  0  0  0
  4  8  1  0  0  0  0
  4  5  1  0  0  0  0
  5  1  1  0  0  0  0
  6 11  1  0  0  0  0
  8  6  1  0  0  0  0
  9  3  2  0  0  0  0
 10  9  1  0  0  0  0
 11 10  1  0  0  0  0
 11  7  1  1  0  0  0
 12 31  1  0  0  0  0
 12  2  1  0  0  0  0
 13 12  2  0  0  0  0
 14  2  2  0  0  0  0
 14  3  1  0  0  0  0
 15 13  1  0  0  0  0
 15 16  1  0  0  0  0
 16 14  1  0  0  0  0
 17  4  1  0  0  0  0
 18 20  2  0  0  0  0
 18 23  1  0  0  0  0
 20 21  1  0  0  0  0
 21 24  1  0  0  0  0
 21 19  2  0  0  0  0
 22 19  1  0  0  0  0
 22 17  1  0  0  0  0
 23 22  2  0  0  0  0
 24 25  2  0  0  0  0
 26 27  1  0  0  0  0
 26 20  1  0  0  0  0
 28 30  2  0  0  0  0
 28 27  1  0  0  0  0
 29 28  1  0  0  0  0
 31 34  1  0  0  0  0
 32 34  2  0  0  0  0
 34 33  1  0  0  0  0
M  END
>  <MODEL>
1

>  <REMARK>
 VINA RESULT:      -8.1      0.000      0.000
  Name = 
  8 active torsions:
  status: ('A' for Active; 'I' for Inactive)
    1  A    between atoms: C_7  and  C_11
    2  A    between atoms: C_7  and  C_14
    3  A    between atoms: N_8  and  C_18
    4  A    between atoms: C_14  and  C_16
    5  A    between atoms: C_18  and  C_30
    6  A    between atoms: O_23  and  C_24
    7  A    between atoms: O_23  and  C_25
    8  A    between atoms: C_26  and  C_28
                            x       y       z     vdW  Elec       q    Type
                         _______ _______ _______ _____ _____    ______ ____

>  <TORSDO>
F 8

$$$$
=
 OpenBabel10272415193D

 34 37  0  0  1  0  0  0  0  0999 V2000
  187.7030  177.9350  142.9490 C   0  0  0  0  0  0  0  0  0  0  0  0
  184.7350  178.3660  145.0310 C   0  0  0  0  0  3  0  0  0  0  0  0
  186.9970  177.8530  145.7250 C   0  0  0  0  0  3  0  0  0  0  0  0
  189.3600  177.5160  141.1010 N   0  0  0  0  0  0  0  0  0  0  0  0
  188.0650  177.8130  141.5580 N   0  0  0  0  0  2  0  0  0  0  0  0
  190.5250  176.4540  142.9810 C   0  0  0  0  0  2  0  0  0  0  0  0
  190.9070  177.9210  144.8340 O   0  0  0  0  0  1  0  0  0  0  0  0
  189.7490  176.2380  141.6830 C   0  0  0  0  0  2  0  0  0  0  0  0
  188.2720  177.6850  145.3810 C   0  0  0  0  0  3  0  0  0  0  0  0
  188.6910  177.7700  144.0040 N   0  0  0  0  0  0  0  0  0  0  0  0
  190.1240  177.7470  143.6890 C   0  0  2  0  0  3  0  0  0  0  0  0
  183.6990  178.6570  144.0250 C   0  0  0  0  0  0  0  0  0  0  0  0
  184.0020  178.6290  142.7190 C   0  0  0  0  0  3  0  0  0  0  0  0
  186.0010  178.1250  144.6870 C   0  0  0  0  0  0  0  0  0  0  0  0
  185.3610  178.2590  142.1890 C   0  0  0  0  0  2  0  0  0  0  0  0
  186.4100  178.1310  143.2660 C   0  0  0  0  0  0  0  0  0  0  0  0
  189.2630  177.3110  139.6650 C   0  0  0  0  0  2  0  0  0  0  0  0
  192.9720  176.8390  139.0830 C   0  0  0  0  0  3  0  0  0  0  0  0
  190.5580  175.7090  138.2470 C   0  0  0  0  0  3  0  0  0  0  0  0
  192.9840  175.7600  138.1890 C   0  0  0  0  0  0  0  0  0  0  0  0
  191.7670  175.1900  137.7630 C   0  0  0  0  0  0  0  0  0  0  0  0
  190.5540  176.7870  139.1350 C   0  0  0  0  0  0  0  0  0  0  0  0
  191.7620  177.3480  139.5570 C   0  0  0  0  0  3  0  0  0  0  0  0
  191.7540  174.0570  136.8240 C   0  0  0  0  0  3  0  0  0  0  0  0
  191.4910  174.2230  135.6030 O   0  0  0  0  0  0  0  0  0  0  0  0
  194.3020  175.2580  137.6930 C   0  0  0  0  0  2  0  0  0  0  0  0
  195.0770  174.6080  138.8290 C   0  0  0  0  0  2  0  0  0  0  0  0
  195.6580  173.3100  138.3790 C   0  0  0  0  0  0  0  0  0  0  0  0
  196.7690  173.2990  137.3850 C   0  0  0  0  0  1  0  0  0  0  0  0
  195.2400  172.2570  138.8350 O   0  0  0  0  0  0  0  0  0  0  0  0
  182.4100  178.9720  144.4890 O   0  0  0  0  0  0  0  0  0  0  0  0
  181.0770  179.9560  142.8550 O   0  0  0  0  0  0  0  0  0  0  0  0
  180.1750  178.0390  143.9180 C   0  0  0  0  0  1  0  0  0  0  0  0
  181.2420  179.0530  143.7170 C   0  0  0  0  0  0  0  0  0  0  0  0
  1 16  2  0  0  0  0
  1 10  1  0  0  0  0
  4  5  1  0  0  0  0
  4  8  1  0  0  0  0
  5  1  1  0  0  0  0
  6 11  1  0  0  0  0
  8  6  1  0  0  0  0
  9  3  2  0  0  0  0
 10  9  1  0  0  0  0
 11 10  1  0  0  0  0
 11  7  1  1  0  0  0
 12 31  1  0  0  0  0
 12  2  1  0  0  0  0
 13 12  2  0  0  0  0
 14  2  2  0  0  0  0
 14  3  1  0  0  0  0
 15 13  1  0  0  0  0
 15 16  1  0  0  0  0
 16 14  1  0  0  0  0
 17  4  1  0  0  0  0
 18 23  1  0  0  0  0
 19 22  1  0  0  0  0
 20 18  2  0  0  0  0
 21 20  1  0  0  0  0
 21 19  2  0  0  0  0
 22 23  2  0  0  0  0
 22 17  1  0  0  0  0
 24 21  1  0  0  0  0
 25 24  2  0  0  0  0
 26 20  1  0  0  0  0
 26 27  1  0  0  0  0
 28 27  1  0  0  0  0
 28 30  2  0  0  0  0
 29 28  1  0  0  0  0
 32 34  2  0  0  0  0
 34 33  1  0  0  0  0
 34 31  1  0  0  0  0
M  END
>  <MODEL>
2

>  <REMARK>
 VINA RESULT:      -8.0      5.109      9.966
  Name = 
  8 active torsions:
  status: ('A' for Active; 'I' for Inactive)
    1  A    between atoms: C_7  and  C_11
    2  A    between atoms: C_7  and  C_14
    3  A    between atoms: N_8  and  C_18
    4  A    between atoms: C_14  and  C_16
    5  A    between atoms: C_18  and  C_30
    6  A    between atoms: O_23  and  C_24
    7  A    between atoms: O_23  and  C_25
    8  A    between atoms: C_26  and  C_28
                            x       y       z     vdW  Elec       q    Type
                         _______ _______ _______ _____ _____    ______ ____

>  <TORSDO>
F 8

$$$$
=
 OpenBabel10272415193D

 34 37  0  0  1  0  0  0  0  0999 V2000
  189.2790  177.7490  140.7740 C   0  0  0  0  0  0  0  0  0  0  0  0
  187.8580  177.0590  144.0660 C   0  0  0  0  0  3  0  0  0  0  0  0
  190.0450  176.4620  143.2170 C   0  0  0  0  0  3  0  0  0  0  0  0
  189.7030  178.2600  138.3460 N   0  0  0  0  0  0  0  0  0  0  0  0
  188.8750  178.2460  139.4820 N   0  0  0  0  0  2  0  0  0  0  0  0
  191.4550  176.5910  138.7540 C   0  0  0  0  0  2  0  0  0  0  0  0
  192.9440  177.1690  140.5370 O   0  0  0  0  0  1  0  0  0  0  0  0
  190.1130  176.8850  138.0860 C   0  0  0  0  0  2  0  0  0  0  0  0
  190.9320  176.5430  142.2290 C   0  0  0  0  0  3  0  0  0  0  0  0
  190.6180  177.2260  140.9980 N   0  0  0  0  0  0  0  0  0  0  0  0
  191.6790  177.4370  140.0050 C   0  0  2  0  0  3  0  0  0  0  0  0
  186.5230  177.6720  143.9540 C   0  0  0  0  0  0  0  0  0  0  0  0
  186.1260  178.2150  142.7930 C   0  0  0  0  0  3  0  0  0  0  0  0
  188.7250  177.0740  143.0530 C   0  0  0  0  0  0  0  0  0  0  0  0
  186.9590  178.1970  141.5400 C   0  0  0  0  0  2  0  0  0  0  0  0
  188.3680  177.7030  141.7630 C   0  0  0  0  0  0  0  0  0  0  0  0
  188.8720  178.6690  137.2250 C   0  0  0  0  0  2  0  0  0  0  0  0
  186.0450  176.1710  136.9190 C   0  0  0  0  0  3  0  0  0  0  0  0
  186.4960  178.7030  138.0080 C   0  0  0  0  0  3  0  0  0  0  0  0
  185.0090  176.8310  137.5910 C   0  0  0  0  0  0  0  0  0  0  0  0
  185.2320  178.1110  138.1380 C   0  0  0  0  0  0  0  0  0  0  0  0
  187.5250  178.0400  137.3330 C   0  0  0  0  0  0  0  0  0  0  0  0
  187.3000  176.7710  136.7940 C   0  0  0  0  0  3  0  0  0  0  0  0
  184.1590  178.8250  138.8470 C   0  0  0  0  0  3  0  0  0  0  0  0
  184.3200  180.0050  139.2610 O   0  0  0  0  0  0  0  0  0  0  0  0
  183.6770  176.1580  137.6870 C   0  0  0  0  0  2  0  0  0  0  0  0
  183.4890  175.1990  136.5220 C   0  0  0  0  0  2  0  0  0  0  0  0
  183.1670  173.8320  137.0280 C   0  0  0  0  0  0  0  0  0  0  0  0
  184.2660  172.8590  137.2850 C   0  0  0  0  0  1  0  0  0  0  0  0
  182.0090  173.5150  137.2490 O   0  0  0  0  0  0  0  0  0  0  0  0
  185.7080  177.6730  145.0990 O   0  0  0  0  0  0  0  0  0  0  0  0
  185.4480  179.5360  146.4690 O   0  0  0  0  0  0  0  0  0  0  0  0
  183.6020  179.0000  145.0810 C   0  0  0  0  0  1  0  0  0  0  0  0
  184.9730  178.7580  145.5990 C   0  0  0  0  0  0  0  0  0  0  0  0
  1 10  1  0  0  0  0
  1 16  2  0  0  0  0
  4  5  1  0  0  0  0
  5  1  1  0  0  0  0
  6 11  1  0  0  0  0
  8  4  1  0  0  0  0
  8  6  1  0  0  0  0
  9  3  2  0  0  0  0
 10  9  1  0  0  0  0
 11  7  1  1  0  0  0
 11 10  1  0  0  0  0
 12  2  1  0  0  0  0
 12 31  1  0  0  0  0
 13 12  2  0  0  0  0
 14  3  1  0  0  0  0
 14  2  2  0  0  0  0
 15 16  1  0  0  0  0
 15 13  1  0  0  0  0
 16 14  1  0  0  0  0
 17 22  1  0  0  0  0
 17  4  1  0  0  0  0
 18 20  1  0  0  0  0
 19 21  1  0  0  0  0
 20 26  1  0  0  0  0
 20 21  2  0  0  0  0
 21 24  1  0  0  0  0
 22 19  2  0  0  0  0
 23 18  2  0  0  0  0
 23 22  1  0  0  0  0
 24 25  2  0  0  0  0
 27 28  1  0  0  0  0
 27 26  1  0  0  0  0
 28 30  2  0  0  0  0
 28 29  1  0  0  0  0
 31 34  1  0  0  0  0
 33 34  1  0  0  0  0
 34 32  2  0  0  0  0
M  END
>  <MODEL>
3

>  <REMARK>
 VINA RESULT:      -7.9      4.067      6.643
  Name = 
  8 active torsions:
  status: ('A' for Active; 'I' for Inactive)
    1  A    between atoms: C_7  and  C_11
    2  A    between atoms: C_7  and  C_14
    3  A    between atoms: N_8  and  C_18
    4  A    between atoms: C_14  and  C_16
    5  A    between atoms: C_18  and  C_30
    6  A    between atoms: O_23  and  C_24
    7  A    between atoms: O_23  and  C_25
    8  A    between atoms: C_26  and  C_28
                            x       y       z     vdW  Elec       q    Type
                         _______ _______ _______ _____ _____    ______ ____

>  <TORSDO>
F 8

$$$$
=
 OpenBabel10272415193D

 34 37  0  0  1  0  0  0  0  0999 V2000
  186.9620  177.9190  142.9400 C   0  0  0  0  0  0  0  0  0  0  0  0
  190.3740  177.4840  141.7160 C   0  0  0  0  0  3  0  0  0  0  0  0
  189.5990  177.5700  144.0070 C   0  0  0  0  0  3  0  0  0  0  0  0
  184.5260  178.4640  143.2650 N   0  0  0  0  0  0  0  0  0  0  0  0
  185.6490  178.2520  142.4460 N   0  0  0  0  0  2  0  0  0  0  0  0
  185.3960  179.0010  145.4960 C   0  0  0  0  0  2  0  0  0  0  0  0
  186.5280  177.1780  146.5570 O   0  0  0  0  0  1  0  0  0  0  0  0
  184.8490  179.5520  144.1800 C   0  0  0  0  0  2  0  0  0  0  0  0
  188.5690  177.6370  144.8480 C   0  0  0  0  0  3  0  0  0  0  0  0
  187.2170  177.7590  144.3630 N   0  0  0  0  0  0  0  0  0  0  0  0
  186.1030  177.6600  145.3150 C   0  0  2  0  0  3  0  0  0  0  0  0
  190.1790  177.5190  140.2560 C   0  0  0  0  0  0  0  0  0  0  0  0
  188.9610  177.7510  139.7440 C   0  0  0  0  0  3  0  0  0  0  0  0
  189.3560  177.6230  142.5640 C   0  0  0  0  0  0  0  0  0  0  0  0
  187.7470  178.0400  140.5870 C   0  0  0  0  0  2  0  0  0  0  0  0
  187.9800  177.8320  142.0640 C   0  0  0  0  0  0  0  0  0  0  0  0
  183.4600  178.9440  142.4020 C   0  0  0  0  0  2  0  0  0  0  0  0
  184.7480  178.8000  138.8460 C   0  0  0  0  0  3  0  0  0  0  0  0
  183.1310  177.2920  140.5530 C   0  0  0  0  0  3  0  0  0  0  0  0
  184.1850  177.6020  138.3890 C   0  0  0  0  0  0  0  0  0  0  0  0
  183.3650  176.8400  139.2470 C   0  0  0  0  0  0  0  0  0  0  0  0
  183.6930  178.4900  141.0020 C   0  0  0  0  0  0  0  0  0  0  0  0
  184.5060  179.2400  140.1490 C   0  0  0  0  0  3  0  0  0  0  0  0
  182.7610  175.5790  138.7890 C   0  0  0  0  0  3  0  0  0  0  0  0
  181.6290  175.5590  138.2360 O   0  0  0  0  0  0  0  0  0  0  0  0
  184.4560  177.1770  136.9810 C   0  0  0  0  0  2  0  0  0  0  0  0
  185.9080  177.4440  136.6230 C   0  0  0  0  0  2  0  0  0  0  0  0
  186.6940  176.1760  136.6760 C   0  0  0  0  0  0  0  0  0  0  0  0
  188.1580  176.1990  136.3980 C   0  0  0  0  0  1  0  0  0  0  0  0
  186.1450  175.1240  136.9630 O   0  0  0  0  0  0  0  0  0  0  0  0
  191.3010  177.2870  139.4420 O   0  0  0  0  0  0  0  0  0  0  0  0
  190.7710  175.2150  138.5240 O   0  0  0  0  0  0  0  0  0  0  0  0
  192.3780  176.4950  137.3430 C   0  0  0  0  0  1  0  0  0  0  0  0
  191.4340  176.2840  138.4700 C   0  0  0  0  0  0  0  0  0  0  0  0
  1 10  1  0  0  0  0
  2 14  2  0  0  0  0
  3  9  2  0  0  0  0
  4  8  1  0  0  0  0
  5  1  1  0  0  0  0
  5  4  1  0  0  0  0
  8  6  1  0  0  0  0
 10  9  1  0  0  0  0
 10 11  1  0  0  0  0
 11  6  1  0  0  0  0
 11  7  1  1  0  0  0
 12  2  1  0  0  0  0
 13 12  2  0  0  0  0
 13 15  1  0  0  0  0
 14  3  1  0  0  0  0
 15 16  1  0  0  0  0
 16 14  1  0  0  0  0
 16  1  2  0  0  0  0
 17  4  1  0  0  0  0
 18 23  1  0  0  0  0
 19 22  1  0  0  0  0
 20 18  2  0  0  0  0
 20 21  1  0  0  0  0
 21 19  2  0  0  0  0
 22 17  1  0  0  0  0
 23 22  2  0  0  0  0
 24 21  1  0  0  0  0
 25 24  2  0  0  0  0
 26 20  1  0  0  0  0
 27 28  1  0  0  0  0
 27 26  1  0  0  0  0
 28 30  2  0  0  0  0
 29 28  1  0  0  0  0
 31 12  1  0  0  0  0
 33 34  1  0  0  0  0
 34 32  2  0  0  0  0
 34 31  1  0  0  0  0
M  END
>  <MODEL>
4

>  <REMARK>
 VINA RESULT:      -7.9      3.773      5.146
  Name = 
  8 active torsions:
  status: ('A' for Active; 'I' for Inactive)
    1  A    between atoms: C_7  and  C_11
    2  A    between atoms: C_7  and  C_14
    3  A    between atoms: N_8  and  C_18
    4  A    between atoms: C_14  and  C_16
    5  A    between atoms: C_18  and  C_30
    6  A    between atoms: O_23  and  C_24
    7  A    between atoms: O_23  and  C_25
    8  A    between atoms: C_26  and  C_28
                            x       y       z     vdW  Elec       q    Type
                         _______ _______ _______ _____ _____    ______ ____

>  <TORSDO>
F 8

$$$$
=
 OpenBabel10272415193D

 34 37  0  0  1  0  0  0  0  0999 V2000
  188.5710  177.7870  140.8330 C   0  0  0  0  0  0  0  0  0  0  0  0
  187.7320  177.0680  144.3130 C   0  0  0  0  0  3  0  0  0  0  0  0
  189.7150  176.4260  143.0810 C   0  0  0  0  0  3  0  0  0  0  0  0
  188.5760  178.3370  138.3760 N   0  0  0  0  0  0  0  0  0  0  0  0
  187.9620  178.3240  139.6410 N   0  0  0  0  0  2  0  0  0  0  0  0
  190.3180  176.6110  138.4400 C   0  0  0  0  0  2  0  0  0  0  0  0
  192.1160  177.1080  139.9410 O   0  0  0  0  0  1  0  0  0  0  0  0
  188.8890  176.9580  138.0250 C   0  0  0  0  0  2  0  0  0  0  0  0
  190.4160  176.5030  141.9520 C   0  0  0  0  0  3  0  0  0  0  0  0
  189.9110  177.2210  140.8080 N   0  0  0  0  0  0  0  0  0  0  0  0
  190.7860  177.4230  139.6460 C   0  0  2  0  0  3  0  0  0  0  0  0
  186.4180  177.7210  144.4480 C   0  0  0  0  0  0  0  0  0  0  0  0
  185.8410  178.3000  143.3850 C   0  0  0  0  0  3  0  0  0  0  0  0
  188.4070  177.0790  143.1630 C   0  0  0  0  0  0  0  0  0  0  0  0
  186.4380  178.2850  142.0040 C   0  0  0  0  0  2  0  0  0  0  0  0
  187.8480  177.7460  141.9670 C   0  0  0  0  0  0  0  0  0  0  0  0
  187.5740  178.7940  137.4270 C   0  0  0  0  0  2  0  0  0  0  0  0
  184.1030  177.8470  138.6010 C   0  0  0  0  0  3  0  0  0  0  0  0
  186.1050  176.8290  136.9400 C   0  0  0  0  0  3  0  0  0  0  0  0
  183.8960  176.6370  137.9270 C   0  0  0  0  0  0  0  0  0  0  0  0
  184.9060  176.1180  137.0900 C   0  0  0  0  0  0  0  0  0  0  0  0
  186.3060  178.0340  137.6180 C   0  0  0  0  0  0  0  0  0  0  0  0
  185.3010  178.5450  138.4440 C   0  0  0  0  0  3  0  0  0  0  0  0
  184.7130  174.8480  136.3730 C   0  0  0  0  0  3  0  0  0  0  0  0
  185.1590  173.7630  136.8320 O   0  0  0  0  0  0  0  0  0  0  0  0
  182.6040  175.9140  138.1370 C   0  0  0  0  0  2  0  0  0  0  0  0
  182.2830  175.8340  139.6200 C   0  0  0  0  0  2  0  0  0  0  0  0
  180.8790  176.2770  139.8680 C   0  0  0  0  0  0  0  0  0  0  0  0
  180.5700  177.7320  139.9770 C   0  0  0  0  0  1  0  0  0  0  0  0
  179.9820  175.4550  139.9640 O   0  0  0  0  0  0  0  0  0  0  0  0
  185.8180  177.7210  145.7190 O   0  0  0  0  0  0  0  0  0  0  0  0
  185.5810  179.5500  147.1390 O   0  0  0  0  0  0  0  0  0  0  0  0
  187.3620  178.0680  147.6410 C   0  0  0  0  0  1  0  0  0  0  0  0
  186.2000  178.5000  146.8220 C   0  0  0  0  0  0  0  0  0  0  0  0
  1 16  2  0  0  0  0
  2 12  1  0  0  0  0
  3 14  1  0  0  0  0
  4  5  1  0  0  0  0
  5  1  1  0  0  0  0
  6 11  1  0  0  0  0
  8  4  1  0  0  0  0
  8  6  1  0  0  0  0
  9  3  2  0  0  0  0
 10  1  1  0  0  0  0
 10  9  1  0  0  0  0
 11  7  1  1  0  0  0
 11 10  1  0  0  0  0
 12 31  1  0  0  0  0
 13 12  2  0  0  0  0
 14  2  2  0  0  0  0
 15 13  1  0  0  0  0
 16 15  1  0  0  0  0
 16 14  1  0  0  0  0
 17 22  1  0  0  0  0
 17  4  1  0  0  0  0
 19 21  2  0  0  0  0
 19 22  1  0  0  0  0
 20 26  1  0  0  0  0
 20 18  2  0  0  0  0
 21 20  1  0  0  0  0
 22 23  2  0  0  0  0
 23 18  1  0  0  0  0
 24 25  2  0  0  0  0
 24 21  1  0  0  0  0
 26 27  1  0  0  0  0
 27 28  1  0  0  0  0
 28 30  2  0  0  0  0
 28 29  1  0  0  0  0
 31 34  1  0  0  0  0
 34 32  2  0  0  0  0
 34 33  1  0  0  0  0
M  END
>  <MODEL>
5

>  <REMARK>
 VINA RESULT:      -7.8      3.638      5.969
  Name = 
  8 active torsions:
  status: ('A' for Active; 'I' for Inactive)
    1  A    between atoms: C_7  and  C_11
    2  A    between atoms: C_7  and  C_14
    3  A    between atoms: N_8  and  C_18
    4  A    between atoms: C_14  and  C_16
    5  A    between atoms: C_18  and  C_30
    6  A    between atoms: O_23  and  C_24
    7  A    between atoms: O_23  and  C_25
    8  A    between atoms: C_26  and  C_28
                            x       y       z     vdW  Elec       q    Type
                         _______ _______ _______ _____ _____    ______ ____

>  <TORSDO>
F 8

$$$$
=
 OpenBabel10272415193D

 34 37  0  0  1  0  0  0  0  0999 V2000
  187.3830  178.3560  141.8440 C   0  0  0  0  0  0  0  0  0  0  0  0
  184.4330  178.3000  143.9930 C   0  0  0  0  0  3  0  0  0  0  0  0
  186.7050  177.6720  144.5440 C   0  0  0  0  0  3  0  0  0  0  0  0
  189.0270  178.3600  139.9370 N   0  0  0  0  0  0  0  0  0  0  0  0
  187.7330  178.5390  140.4570 N   0  0  0  0  0  2  0  0  0  0  0  0
  190.2180  176.9310  141.5360 C   0  0  0  0  0  2  0  0  0  0  0  0
  190.6060  177.9690  143.6590 O   0  0  0  0  0  1  0  0  0  0  0  0
  189.4310  176.9900  140.2280 C   0  0  0  0  0  2  0  0  0  0  0  0
  187.9780  177.5950  144.1620 C   0  0  0  0  0  3  0  0  0  0  0  0
  188.3830  177.9770  142.8320 N   0  0  0  0  0  0  0  0  0  0  0  0
  189.8130  178.0370  142.5080 C   0  0  2  0  0  3  0  0  0  0  0  0
  183.3840  178.7890  143.0810 C   0  0  0  0  0  0  0  0  0  0  0  0
  183.6750  179.0460  141.7970 C   0  0  0  0  0  3  0  0  0  0  0  0
  185.6970  178.1510  143.5960 C   0  0  0  0  0  0  0  0  0  0  0  0
  185.0320  178.8120  141.1890 C   0  0  0  0  0  2  0  0  0  0  0  0
  186.0930  178.4660  142.2060 C   0  0  0  0  0  0  0  0  0  0  0  0
  188.9170  178.4670  138.4910 C   0  0  0  0  0  2  0  0  0  0  0  0
  185.3900  177.5280  137.4930 C   0  0  0  0  0  3  0  0  0  0  0  0
  187.9310  176.3690  137.5530 C   0  0  0  0  0  3  0  0  0  0  0  0
  185.5640  176.2150  137.0390 C   0  0  0  0  0  0  0  0  0  0  0  0
  186.8440  175.6260  137.0710 C   0  0  0  0  0  0  0  0  0  0  0  0
  187.7490  177.6780  138.0080 C   0  0  0  0  0  0  0  0  0  0  0  0
  186.4790  178.2580  137.9720 C   0  0  0  0  0  3  0  0  0  0  0  0
  187.0520  174.2470  136.6000 C   0  0  0  0  0  3  0  0  0  0  0  0
  188.0470  173.5710  136.9740 O   0  0  0  0  0  0  0  0  0  0  0  0
  184.3670  175.4640  136.5500 C   0  0  0  0  0  2  0  0  0  0  0  0
  183.6640  174.7820  137.7130 C   0  0  0  0  0  2  0  0  0  0  0  0
  182.5390  175.6310  138.2040 C   0  0  0  0  0  0  0  0  0  0  0  0
  182.5640  176.1630  139.5960 C   0  0  0  0  0  1  0  0  0  0  0  0
  181.6080  175.9070  137.4640 O   0  0  0  0  0  0  0  0  0  0  0  0
  182.0980  178.9850  143.6120 O   0  0  0  0  0  0  0  0  0  0  0  0
  180.4150  180.3510  142.7630 O   0  0  0  0  0  0  0  0  0  0  0  0
  180.2530  178.0470  142.2310 C   0  0  0  0  0  1  0  0  0  0  0  0
  180.9190  179.2020  142.8830 C   0  0  0  0  0  0  0  0  0  0  0  0
  1 16  2  0  0  0  0
  1 10  1  0  0  0  0
  4  8  1  0  0  0  0
  4  5  1  0  0  0  0
  5  1  1  0  0  0  0
  6 11  1  0  0  0  0
  8  6  1  0  0  0  0
  9  3  2  0  0  0  0
 10  9  1  0  0  0  0
 11 10  1  0  0  0  0
 11  7  1  1  0  0  0
 12 31  1  0  0  0  0
 12  2  1  0  0  0  0
 13 12  2  0  0  0  0
 14  2  2  0  0  0  0
 14  3  1  0  0  0  0
 15 13  1  0  0  0  0
 15 16  1  0  0  0  0
 16 14  1  0  0  0  0
 17  4  1  0  0  0  0
 18 23  1  0  0  0  0
 19 22  1  0  0  0  0
 20 21  1  0  0  0  0
 20 18  2  0  0  0  0
 21 19  2  0  0  0  0
 22 17  1  0  0  0  0
 23 22  2  0  0  0  0
 24 25  2  0  0  0  0
 24 21  1  0  0  0  0
 26 20  1  0  0  0  0
 26 27  1  0  0  0  0
 27 28  1  0  0  0  0
 28 29  1  0  0  0  0
 30 28  2  0  0  0  0
 32 34  2  0  0  0  0
 33 34  1  0  0  0  0
 34 31  1  0  0  0  0
M  END
>  <MODEL>
6

>  <REMARK>
 VINA RESULT:      -7.7      3.698      7.160
  Name = 
  8 active torsions:
  status: ('A' for Active; 'I' for Inactive)
    1  A    between atoms: C_7  and  C_11
    2  A    between atoms: C_7  and  C_14
    3  A    between atoms: N_8  and  C_18
    4  A    between atoms: C_14  and  C_16
    5  A    between atoms: C_18  and  C_30
    6  A    between atoms: O_23  and  C_24
    7  A    between atoms: O_23  and  C_25
    8  A    between atoms: C_26  and  C_28
                            x       y       z     vdW  Elec       q    Type
                         _______ _______ _______ _____ _____    ______ ____

>  <TORSDO>
F 8

$$$$
=
 OpenBabel10272415193D

 34 37  0  0  1  0  0  0  0  0999 V2000
  188.9670  175.9930  137.6720 C   0  0  0  0  0  0  0  0  0  0  0  0
  186.1060  176.1880  135.4130 C   0  0  0  0  0  3  0  0  0  0  0  0
  188.1720  174.9600  135.1200 C   0  0  0  0  0  3  0  0  0  0  0  0
  190.7340  176.3630  139.4270 N   0  0  0  0  0  0  0  0  0  0  0  0
  189.4660  176.6140  138.8750 N   0  0  0  0  0  2  0  0  0  0  0  0
  192.1080  175.4580  137.6080 C   0  0  0  0  0  2  0  0  0  0  0  0
  191.3970  173.3060  136.8370 O   0  0  0  0  0  1  0  0  0  0  0  0
  191.7280  176.6980  138.4150 C   0  0  0  0  0  2  0  0  0  0  0  0
  189.3370  174.5750  135.6340 C   0  0  0  0  0  3  0  0  0  0  0  0
  189.7630  175.0220  136.9370 N   0  0  0  0  0  0  0  0  0  0  0  0
  190.9720  174.4410  137.5340 C   0  0  2  0  0  3  0  0  0  0  0  0
  185.1940  177.0760  136.1550 C   0  0  0  0  0  0  0  0  0  0  0  0
  185.5830  177.6210  137.3170 C   0  0  0  0  0  3  0  0  0  0  0  0
  187.3060  175.8560  135.8900 C   0  0  2  0  0  3  0  0  0  0  0  0
  186.9510  177.4230  137.9120 C   0  0  0  0  0  3  0  0  0  0  0  0
  187.7730  176.3830  137.1900 C   0  0  0  0  0  0  0  0  0  0  0  0
  190.9120  177.3070  140.5180 C   0  0  0  0  0  2  0  0  0  0  0  0
  188.6590  176.3620  143.4080 C   0  0  0  0  0  3  0  0  0  0  0  0
  188.6460  178.0980  141.2200 C   0  0  0  0  0  3  0  0  0  0  0  0
  187.5590  177.2020  143.1970 C   0  0  0  0  0  0  0  0  0  0  0  0
  187.5470  178.0770  142.0910 C   0  0  0  0  0  0  0  0  0  0  0  0
  189.7380  177.2540  141.4350 C   0  0  0  0  0  0  0  0  0  0  0  0
  189.7460  176.3910  142.5330 C   0  0  0  0  0  3  0  0  0  0  0  0
  186.4020  178.9680  141.8470 C   0  0  0  0  0  3  0  0  0  0  0  0
  185.9850  179.1920  140.6790 O   0  0  0  0  0  0  0  0  0  0  0  0
  186.4080  177.1260  144.1490 C   0  0  0  0  0  2  0  0  0  0  0  0
  186.7300  177.8910  145.4220 C   0  0  0  0  0  2  0  0  0  0  0  0
  185.5730  178.7470  145.8150 C   0  0  0  0  0  0  0  0  0  0  0  0
  184.3560  178.7890  144.9550 C   0  0  0  0  0  1  0  0  0  0  0  0
  185.6120  179.3990  146.8460 O   0  0  0  0  0  0  0  0  0  0  0  0
  183.9210  177.3070  135.6080 O   0  0  0  0  0  0  0  0  0  0  0  0
  181.7410  177.7980  136.2590 O   0  0  0  0  0  0  0  0  0  0  0  0
  182.4970  175.6020  136.7300 C   0  0  0  0  0  1  0  0  0  0  0  0
  182.6890  176.9720  136.1890 C   0  0  0  0  0  0  0  0  0  0  0  0
  1  5  1  0  0  0  0
  2 14  1  0  0  0  0
  2 12  2  0  0  0  0
  3  9  2  0  0  0  0
  4 17  1  0  0  0  0
  5  4  1  0  0  0  0
  6  8  1  0  0  0  0
  8  4  1  0  0  0  0
  9 10  1  0  0  0  0
 10 11  1  0  0  0  0
 10  1  1  0  0  0  0
 11  7  1  6  0  0  0
 11  6  1  0  0  0  0
 12 13  1  0  0  0  0
 13 15  2  0  0  0  0
 14  3  1  1  0  0  0
 14 16  1  0  0  0  0
 16  1  2  0  0  0  0
 16 15  1  0  0  0  0
 17 22  1  0  0  0  0
 19 22  2  0  0  0  0
 19 21  1  0  0  0  0
 20 18  1  0  0  0  0
 20 26  1  0  0  0  0
 21 20  2  0  0  0  0
 22 23  1  0  0  0  0
 23 18  2  0  0  0  0
 24 21  1  0  0  0  0
 25 24  2  0  0  0  0
 26 27  1  0  0  0  0
 27 28  1  0  0  0  0
 28 30  2  0  0  0  0
 29 28  1  0  0  0  0
 31 12  1  0  0  0  0
 31 34  1  0  0  0  0
 34 32  2  0  0  0  0
 34 33  1  0  0  0  0
M  END
>  <MODEL>
7

>  <REMARK>
 VINA RESULT:      -7.7      5.017      9.940
  Name = 
  8 active torsions:
  status: ('A' for Active; 'I' for Inactive)
    1  A    between atoms: C_7  and  C_11
    2  A    between atoms: C_7  and  C_14
    3  A    between atoms: N_8  and  C_18
    4  A    between atoms: C_14  and  C_16
    5  A    between atoms: C_18  and  C_30
    6  A    between atoms: O_23  and  C_24
    7  A    between atoms: O_23  and  C_25
    8  A    between atoms: C_26  and  C_28
                            x       y       z     vdW  Elec       q    Type
                         _______ _______ _______ _____ _____    ______ ____

>  <TORSDO>
F 8

$$$$
=
 OpenBabel10272415193D

 34 37  0  0  1  0  0  0  0  0999 V2000
  185.2450  177.8930  137.9710 C   0  0  0  0  0  0  0  0  0  0  0  0
  181.7120  178.1490  138.8530 C   0  0  0  0  0  3  0  0  0  0  0  0
  182.6930  177.3260  136.7980 C   0  0  0  0  0  3  0  0  0  0  0  0
  187.7430  178.1320  137.7630 N   0  0  0  0  0  0  0  0  0  0  0  0
  186.5370  178.3080  138.4620 N   0  0  0  0  0  2  0  0  0  0  0  0
  187.1330  177.8460  135.4030 C   0  0  0  0  0  2  0  0  0  0  0  0
  185.9250  175.8290  134.9540 O   0  0  0  0  0  1  0  0  0  0  0  0
  187.6120  178.8160  136.4820 C   0  0  0  0  0  2  0  0  0  0  0  0
  183.7950  177.0130  136.1210 C   0  0  0  0  0  3  0  0  0  0  0  0
  185.1040  177.2280  136.6850 N   0  0  0  0  0  0  0  0  0  0  0  0
  186.2830  176.7140  135.9760 C   0  0  2  0  0  3  0  0  0  0  0  0
  181.7790  178.7160  140.2110 C   0  0  0  0  0  0  0  0  0  0  0  0
  182.9640  179.0510  140.7430 C   0  0  0  0  0  3  0  0  0  0  0  0
  182.8110  177.9010  138.1400 C   0  0  2  0  0  3  0  0  0  0  0  0
  184.2700  178.9310  140.0050 C   0  0  0  0  0  3  0  0  0  0  0  0
  184.1510  178.2000  138.6900 C   0  0  0  0  0  0  0  0  0  0  0  0
  188.7710  178.8360  138.5120 C   0  0  0  0  0  2  0  0  0  0  0  0
  190.5340  176.7060  141.0960 C   0  0  0  0  0  3  0  0  0  0  0  0
  188.1890  178.2060  140.8610 C   0  0  0  0  0  3  0  0  0  0  0  0
  189.6560  176.7960  142.1840 C   0  0  0  0  0  0  0  0  0  0  0  0
  188.4700  177.5490  142.0670 C   0  0  0  0  0  0  0  0  0  0  0  0
  189.0670  178.1090  139.7790 C   0  0  0  0  0  0  0  0  0  0  0  0
  190.2420  177.3640  139.8990 C   0  0  0  0  0  3  0  0  0  0  0  0
  187.5320  177.6560  143.1960 C   0  0  0  0  0  3  0  0  0  0  0  0
  186.3150  177.9280  143.0110 O   0  0  0  0  0  0  0  0  0  0  0  0
  189.9990  176.0620  143.4400 C   0  0  0  0  0  2  0  0  0  0  0  0
  191.2750  176.6240  144.0450 C   0  0  0  0  0  2  0  0  0  0  0  0
  191.0790  176.8980  145.4990 C   0  0  0  0  0  0  0  0  0  0  0  0
  189.7780  177.4410  145.9820 C   0  0  0  0  0  1  0  0  0  0  0  0
  191.9740  176.6620  146.2950 O   0  0  0  0  0  0  0  0  0  0  0  0
  180.5710  178.8720  140.9130 O   0  0  0  0  0  0  0  0  0  0  0  0
  179.9870  180.6770  142.2610 O   0  0  0  0  0  0  0  0  0  0  0  0
  180.7230  178.7290  143.3920 C   0  0  0  0  0  1  0  0  0  0  0  0
  180.4050  179.4930  142.1590 C   0  0  0  0  0  0  0  0  0  0  0  0
  1  5  1  0  0  0  0
  1 16  2  0  0  0  0
  2 12  2  0  0  0  0
  4  5  1  0  0  0  0
  4 17  1  0  0  0  0
  6 11  1  0  0  0  0
  6  8  1  0  0  0  0
  8  4  1  0  0  0  0
  9 10  1  0  0  0  0
  9  3  2  0  0  0  0
 10  1  1  0  0  0  0
 11  7  1  6  0  0  0
 11 10  1  0  0  0  0
 12 13  1  0  0  0  0
 12 31  1  0  0  0  0
 14  3  1  1  0  0  0
 14 16  1  0  0  0  0
 14  2  1  0  0  0  0
 15 13  2  0  0  0  0
 16 15  1  0  0  0  0
 17 22  1  0  0  0  0
 18 20  1  0  0  0  0
 19 21  1  0  0  0  0
 20 26  1  0  0  0  0
 21 20  2  0  0  0  0
 21 24  1  0  0  0  0
 22 23  1  0  0  0  0
 22 19  2  0  0  0  0
 23 18  2  0  0  0  0
 25 24  2  0  0  0  0
 26 27  1  0  0  0  0
 27 28  1  0  0  0  0
 28 29  1  0  0  0  0
 28 30  2  0  0  0  0
 31 34  1  0  0  0  0
 34 32  2  0  0  0  0
 34 33  1  0  0  0  0
M  END
>  <MODEL>
8

>  <REMARK>
 VINA RESULT:      -7.6      3.507     10.030
  Name = 
  8 active torsions:
  status: ('A' for Active; 'I' for Inactive)
    1  A    between atoms: C_7  and  C_11
    2  A    between atoms: C_7  and  C_14
    3  A    between atoms: N_8  and  C_18
    4  A    between atoms: C_14  and  C_16
    5  A    between atoms: C_18  and  C_30
    6  A    between atoms: O_23  and  C_24
    7  A    between atoms: O_23  and  C_25
    8  A    between atoms: C_26  and  C_28
                            x       y       z     vdW  Elec       q    Type
                         _______ _______ _______ _____ _____    ______ ____

>  <TORSDO>
F 8

$$$$
=
 OpenBabel10272415193D

 34 37  0  0  1  0  0  0  0  0999 V2000
  185.8540  177.6940  137.7740 C   0  0  0  0  0  0  0  0  0  0  0  0
  182.2520  178.2380  138.0110 C   0  0  0  0  0  3  0  0  0  0  0  0
  183.5070  177.2510  136.1910 C   0  0  0  0  0  3  0  0  0  0  0  0
  188.3610  177.7470  138.0000 N   0  0  0  0  0  0  0  0  0  0  0  0
  187.0690  178.0400  138.4700 N   0  0  0  0  0  2  0  0  0  0  0  0
  188.1480  177.3920  135.5820 C   0  0  0  0  0  2  0  0  0  0  0  0
  186.8830  175.4450  134.9980 O   0  0  0  0  0  1  0  0  0  0  0  0
  188.5070  178.3760  136.6940 C   0  0  0  0  0  2  0  0  0  0  0  0
  184.6820  176.8300  135.7290 C   0  0  0  0  0  3  0  0  0  0  0  0
  185.8860  176.9790  136.5080 N   0  0  0  0  0  0  0  0  0  0  0  0
  187.1260  176.3510  136.0350 C   0  0  2  0  0  3  0  0  0  0  0  0
  182.1270  178.8630  139.3390 C   0  0  0  0  0  0  0  0  0  0  0  0
  183.2240  179.1400  140.0600 C   0  0  0  0  0  3  0  0  0  0  0  0
  183.4350  177.8800  137.5120 C   0  0  2  0  0  3  0  0  0  0  0  0
  184.6250  178.8940  139.5680 C   0  0  0  0  0  3  0  0  0  0  0  0
  184.6780  178.1100  138.2780 C   0  0  0  0  0  0  0  0  0  0  0  0
  189.2950  178.4130  138.8930 C   0  0  0  0  0  2  0  0  0  0  0  0
  187.6010  178.1840  142.2690 C   0  0  0  0  0  3  0  0  0  0  0  0
  189.8360  177.1280  140.9700 C   0  0  0  0  0  3  0  0  0  0  0  0
  188.4290  177.2770  142.9420 C   0  0  0  0  0  0  0  0  0  0  0  0
  189.5610  176.7450  142.2900 C   0  0  0  0  0  0  0  0  0  0  0  0
  189.0070  178.0360  140.3060 C   0  0  0  0  0  0  0  0  0  0  0  0
  187.8860  178.5590  140.9550 C   0  0  0  0  0  3  0  0  0  0  0  0
  190.4480  175.7920  142.9760 C   0  0  0  0  0  3  0  0  0  0  0  0
  191.2680  176.1760  143.8520 O   0  0  0  0  0  0  0  0  0  0  0  0
  188.0960  176.9160  144.3540 C   0  0  0  0  0  2  0  0  0  0  0  0
  186.6980  177.4000  144.7030 C   0  0  0  0  0  2  0  0  0  0  0  0
  186.6260  177.7680  146.1480 C   0  0  0  0  0  0  0  0  0  0  0  0
  185.3960  178.4170  146.6870 C   0  0  0  0  0  1  0  0  0  0  0  0
  187.5610  177.5240  146.8920 O   0  0  0  0  0  0  0  0  0  0  0  0
  180.8320  179.1370  139.8120 O   0  0  0  0  0  0  0  0  0  0  0  0
  180.3500  180.6510  141.5120 O   0  0  0  0  0  0  0  0  0  0  0  0
  180.2310  178.3580  142.0970 C   0  0  0  0  0  1  0  0  0  0  0  0
  180.4750  179.4570  141.1300 C   0  0  0  0  0  0  0  0  0  0  0  0
  1 16  2  0  0  0  0
  1  5  1  0  0  0  0
  2 12  2  0  0  0  0
  4  5  1  0  0  0  0
  4 17  1  0  0  0  0
  6 11  1  0  0  0  0
  6  8  1  0  0  0  0
  8  4  1  0  0  0  0
  9  3  2  0  0  0  0
  9 10  1  0  0  0  0
 10  1  1  0  0  0  0
 11  7  1  6  0  0  0
 11 10  1  0  0  0  0
 12 31  1  0  0  0  0
 12 13  1  0  0  0  0
 14  3  1  1  0  0  0
 14  2  1  0  0  0  0
 14 16  1  0  0  0  0
 15 13  2  0  0  0  0
 16 15  1  0  0  0  0
 17 22  1  0  0  0  0
 18 20  1  0  0  0  0
 19 21  1  0  0  0  0
 20 26  1  0  0  0  0
 21 20  2  0  0  0  0
 21 24  1  0  0  0  0
 22 23  1  0  0  0  0
 22 19  2  0  0  0  0
 23 18  2  0  0  0  0
 24 25  2  0  0  0  0
 26 27  1  0  0  0  0
 27 28  1  0  0  0  0
 28 29  1  0  0  0  0
 28 30  2  0  0  0  0
 31 34  1  0  0  0  0
 34 32  2  0  0  0  0
 34 33  1  0  0  0  0
M  END
>  <MODEL>
9

>  <REMARK>
 VINA RESULT:      -7.6      3.676      9.873
  Name = 
  8 active torsions:
  status: ('A' for Active; 'I' for Inactive)
    1  A    between atoms: C_7  and  C_11
    2  A    between atoms: C_7  and  C_14
    3  A    between atoms: N_8  and  C_18
    4  A    between atoms: C_14  and  C_16
    5  A    between atoms: C_18  and  C_30
    6  A    between atoms: O_23  and  C_24
    7  A    between atoms: O_23  and  C_25
    8  A    between atoms: C_26  and  C_28
                            x       y       z     vdW  Elec       q    Type
                         _______ _______ _______ _____ _____    ______ ____

>  <TORSDO>
F 8

$$$$
