=
 OpenBabel10272414413D

 43 48  0  0  1  0  0  0  0  0999 V2000
  194.1790  174.1300  135.9000 C   0  0  0  0  0  2  0  0  0  0  0  0
  191.0750  175.9780  138.8800 C   0  0  1  0  0  3  0  0  0  0  0  0
  189.6150  176.9190  137.0220 C   0  0  0  0  0  2  0  0  0  0  0  0
  192.3740  175.8740  136.2160 C   0  0  2  0  0  3  0  0  0  0  0  0
  192.0040  172.7450  135.8410 C   0  0  0  0  0  2  0  0  0  0  0  0
  193.5250  172.7630  135.6870 C   0  0  0  0  0  2  0  0  0  0  0  0
  191.1560  174.9820  136.5550 C   0  0  1  0  0  3  0  0  0  0  0  0
  193.3970  175.2680  135.2500 C   0  0  0  0  0  2  0  0  0  0  0  0
  191.5300  173.5760  137.0230 C   0  0  0  0  0  2  0  0  0  0  0  0
  188.7680  177.6250  138.0760 C   0  0  1  0  0  3  0  0  0  0  0  0
  190.2680  175.6610  137.6040 C   0  0  1  0  0  3  0  0  0  0  0  0
  192.4040  176.6470  138.5920 C   0  0  0  0  0  3  0  0  0  0  0  0
  190.2170  176.7350  139.9060 C   0  0  2  0  0  3  0  0  0  0  0  0
  189.6150  177.9990  139.2940 C   0  0  0  0  0  2  0  0  0  0  0  0
  193.0150  176.5510  137.4030 C   0  0  0  0  0  3  0  0  0  0  0  0
  188.0900  178.8190  137.4760 C   0  0  0  0  0  0  0  0  0  0  0  0
  186.6900  178.7890  137.1870 N   0  0  0  0  0  2  0  0  0  0  0  0
  188.7620  179.8390  137.1670 O   0  0  0  0  0  0  0  0  0  0  0  0
  186.0650  176.5590  136.4400 C   0  0  0  0  0  2  0  0  0  0  0  0
  185.8430  175.2440  137.0270 N   0  0  0  0  0  2  0  0  0  0  0  0
  183.6640  175.1520  138.1140 C   0  0  0  0  0  2  0  0  0  0  0  0
  185.8510  177.6400  137.4910 C   0  0  2  0  0  3  0  0  0  0  0  0
  184.4480  174.8710  136.8360 C   0  0  2  0  0  3  0  0  0  0  0  0
  184.5090  178.0320  137.4990 O   0  0  0  0  0  0  0  0  0  0  0  0
  183.9170  177.3260  138.5530 C   0  0  2  0  0  3  0  0  0  0  0  0
  183.0160  176.3890  138.0360 O   0  0  0  0  0  0  0  0  0  0  0  0
  184.3760  173.3890  136.5330 C   0  0  0  0  0  1  0  0  0  0  0  0
  183.2050  178.2860  139.5070 C   0  0  0  0  0  2  0  0  0  0  0  0
  183.9630  178.4950  140.7770 C   0  0  0  0  0  0  0  0  0  0  0  0
  183.9980  178.6430  143.1960 C   0  0  0  0  0  3  0  0  0  0  0  0
  186.0320  179.0110  141.9300 C   0  0  0  0  0  3  0  0  0  0  0  0
  185.3650  178.9370  143.1580 C   0  0  0  0  0  3  0  0  0  0  0  0
  185.3330  178.7880  140.7420 C   0  0  0  0  0  3  0  0  0  0  0  0
  183.2970  178.4260  142.0070 C   0  0  0  0  0  3  0  0  0  0  0  0
  191.0020  177.0520  141.1740 C   0  0  0  0  0  2  0  0  0  0  0  0
  189.5620  178.1330  144.5050 C   0  0  0  0  0  3  0  0  0  0  0  0
  188.4290  177.3190  144.6020 C   0  0  0  0  0  0  0  0  0  0  0  0
  188.9630  176.3420  142.4440 C   0  0  0  0  0  3  0  0  0  0  0  0
  190.3950  178.0530  143.3850 C   0  0  0  0  0  3  0  0  0  0  0  0
  190.0980  177.1560  142.3550 C   0  0  0  0  0  0  0  0  0  0  0  0
  188.1300  176.4240  143.5620 C   0  0  0  0  0  3  0  0  0  0  0  0
  188.1290  177.4500  147.0540 C   0  0  0  0  0  1  0  0  0  0  0  0
  187.6120  177.4280  145.7320 O   0  0  0  0  0  0  0  0  0  0  0  0
  2 12  1  6  0  0  0
  2 13  1  0  0  0  0
  3 10  1  0  0  0  0
  4  8  1  1  0  0  0
  4  7  1  0  0  0  0
  4 15  1  0  0  0  0
  5  9  1  0  0  0  0
  6  5  1  0  0  0  0
  6  1  1  0  0  0  0
  7  9  1  1  0  0  0
  7 11  1  0  0  0  0
  8  1  1  0  0  0  0
 10 16  1  6  0  0  0
 10 14  1  0  0  0  0
 11  3  1  6  0  0  0
 11  2  1  0  0  0  0
 13 35  1  1  0  0  0
 14 13  1  0  0  0  0
 15 12  2  0  0  0  0
 17 16  1  0  0  0  0
 18 16  2  0  0  0  0
 19 20  1  0  0  0  0
 19 22  1  0  0  0  0
 22 17  1  6  0  0  0
 22 24  1  0  0  0  0
 23 27  1  1  0  0  0
 23 20  1  0  0  0  0
 23 21  1  0  0  0  0
 24 25  1  0  0  0  0
 25 28  1  1  0  0  0
 26 21  1  0  0  0  0
 26 25  1  0  0  0  0
 28 29  1  0  0  0  0
 29 34  1  0  0  0  0
 31 32  2  0  0  0  0
 32 30  1  0  0  0  0
 33 29  2  0  0  0  0
 33 31  1  0  0  0  0
 34 30  2  0  0  0  0
 35 40  1  0  0  0  0
 36 37  1  0  0  0  0
 37 43  1  0  0  0  0
 38 41  1  0  0  0  0
 39 36  2  0  0  0  0
 40 38  2  0  0  0  0
 40 39  1  0  0  0  0
 41 37  2  0  0  0  0
 43 42  1  0  0  0  0
M  END
>  <MODEL>
1

>  <REMARK>
 VINA RESULT:      -9.3      0.000      0.000
  Name = 
  7 active torsions:
  status: ('A' for Active; 'I' for Inactive)
    1  A    between atoms: C_1  and  C_34
    2  A    between atoms: C_1  and  C_35
    3  A    between atoms: C_2  and  C_27
    4  A    between atoms: N_6  and  C_12
    5  A    between atoms: C_11  and  C_14
    6  A    between atoms: C_14  and  C_22
    7  A    between atoms: C_19  and  O_37
                            x       y       z     vdW  Elec       q    Type
                         _______ _______ _______ _____ _____    ______ ____

>  <TORSDO>
F 7

$$$$
=
 OpenBabel10272414413D

 43 48  0  0  1  0  0  0  0  0999 V2000
  185.2960  172.9180  134.5540 C   0  0  0  0  0  2  0  0  0  0  0  0
  189.1030  174.6630  136.6480 C   0  0  1  0  0  3  0  0  0  0  0  0
  187.8310  176.6010  137.6950 C   0  0  0  0  0  2  0  0  0  0  0  0
  186.3630  174.9790  135.5570 C   0  0  2  0  0  3  0  0  0  0  0  0
  185.1570  172.4770  137.0910 C   0  0  0  0  0  2  0  0  0  0  0  0
  184.7940  172.0120  135.6800 C   0  0  0  0  0  2  0  0  0  0  0  0
  186.6030  174.5110  137.0120 C   0  0  1  0  0  3  0  0  0  0  0  0
  185.1250  174.4010  134.8660 C   0  0  0  0  0  2  0  0  0  0  0  0
  186.5850  172.9910  137.1840 C   0  0  0  0  0  2  0  0  0  0  0  0
  189.1560  177.1760  138.1850 C   0  0  1  0  0  3  0  0  0  0  0  0
  187.9220  175.0780  137.5490 C   0  0  1  0  0  3  0  0  0  0  0  0
  188.8300  174.8810  135.1740 C   0  0  0  0  0  3  0  0  0  0  0  0
  190.4180  175.2970  137.1280 C   0  0  2  0  0  3  0  0  0  0  0  0
  190.2930  176.8170  137.2260 C   0  0  0  0  0  2  0  0  0  0  0  0
  187.5880  174.9680  134.6760 C   0  0  0  0  0  3  0  0  0  0  0  0
  189.0340  178.6570  138.3780 C   0  0  0  0  0  0  0  0  0  0  0  0
  189.0140  179.2180  139.6940 N   0  0  0  0  0  2  0  0  0  0  0  0
  188.8860  179.4160  137.3830 O   0  0  0  0  0  0  0  0  0  0  0  0
  190.4590  177.6250  140.8340 C   0  0  0  0  0  2  0  0  0  0  0  0
  190.9610  177.3920  142.1820 N   0  0  0  0  0  2  0  0  0  0  0  0
  189.2440  176.3480  143.5610 C   0  0  0  0  0  2  0  0  0  0  0  0
  189.1530  178.4060  140.8930 C   0  0  2  0  0  3  0  0  0  0  0  0
  190.4520  176.1130  142.6600 C   0  0  2  0  0  3  0  0  0  0  0  0
  188.0760  177.5190  140.9820 O   0  0  0  0  0  0  0  0  0  0  0  0
  187.7450  177.4650  142.3410 C   0  0  2  0  0  3  0  0  0  0  0  0
  188.0530  176.1960  142.8440 O   0  0  0  0  0  0  0  0  0  0  0  0
  191.5360  175.4260  143.4630 C   0  0  0  0  0  1  0  0  0  0  0  0
  186.2610  177.7750  142.5420 C   0  0  0  0  0  2  0  0  0  0  0  0
  185.9310  178.0850  143.9660 C   0  0  0  0  0  0  0  0  0  0  0  0
  186.5570  178.0970  146.3070 C   0  0  0  0  0  3  0  0  0  0  0  0
  184.3590  178.8680  145.6380 C   0  0  0  0  0  3  0  0  0  0  0  0
  185.3010  178.6150  146.6400 C   0  0  0  0  0  3  0  0  0  0  0  0
  184.6740  178.6060  144.3030 C   0  0  0  0  0  3  0  0  0  0  0  0
  186.8700  177.8290  144.9730 C   0  0  0  0  0  3  0  0  0  0  0  0
  191.5950  174.8920  136.2470 C   0  0  0  0  0  2  0  0  0  0  0  0
  194.4810  175.4530  138.6320 C   0  0  0  0  0  3  0  0  0  0  0  0
  195.1550  174.2300  138.5560 C   0  0  0  0  0  0  0  0  0  0  0  0
  193.4880  173.4260  136.9840 C   0  0  0  0  0  3  0  0  0  0  0  0
  193.3170  175.6660  137.8890 C   0  0  0  0  0  3  0  0  0  0  0  0
  192.8200  174.6540  137.0620 C   0  0  0  0  0  0  0  0  0  0  0  0
  194.6500  173.2140  137.7290 C   0  0  0  0  0  3  0  0  0  0  0  0
  196.7540  174.9880  140.2840 C   0  0  0  0  0  1  0  0  0  0  0  0
  196.3130  174.0450  139.3180 O   0  0  0  0  0  0  0  0  0  0  0  0
  1  8  1  0  0  0  0
  1  6  1  0  0  0  0
  2 12  1  6  0  0  0
  2 13  1  0  0  0  0
  2 11  1  0  0  0  0
  3 10  1  0  0  0  0
  4 15  1  6  0  0  0
  4  7  1  0  0  0  0
  5  9  1  0  0  0  0
  6  5  1  0  0  0  0
  7  9  1  6  0  0  0
  7 11  1  0  0  0  0
  8  4  1  0  0  0  0
 10 16  1  6  0  0  0
 11  3  1  6  0  0  0
 13 35  1  6  0  0  0
 13 14  1  0  0  0  0
 14 10  1  0  0  0  0
 15 12  2  0  0  0  0
 16 17  1  0  0  0  0
 18 16  2  0  0  0  0
 19 22  1  0  0  0  0
 19 20  1  0  0  0  0
 20 23  1  0  0  0  0
 22 17  1  6  0  0  0
 22 24  1  0  0  0  0
 23 27  1  1  0  0  0
 23 21  1  0  0  0  0
 24 25  1  0  0  0  0
 25 28  1  6  0  0  0
 25 26  1  0  0  0  0
 26 21  1  0  0  0  0
 28 29  1  0  0  0  0
 29 33  2  0  0  0  0
 29 34  1  0  0  0  0
 30 32  1  0  0  0  0
 31 32  2  0  0  0  0
 33 31  1  0  0  0  0
 34 30  2  0  0  0  0
 35 40  1  0  0  0  0
 37 36  1  0  0  0  0
 37 43  1  0  0  0  0
 38 40  2  0  0  0  0
 38 41  1  0  0  0  0
 39 36  2  0  0  0  0
 40 39  1  0  0  0  0
 41 37  2  0  0  0  0
 43 42  1  0  0  0  0
M  END
>  <MODEL>
2

>  <REMARK>
 VINA RESULT:      -7.6      2.769      6.331
  Name = 
  7 active torsions:
  status: ('A' for Active; 'I' for Inactive)
    1  A    between atoms: C_1  and  C_34
    2  A    between atoms: C_1  and  C_35
    3  A    between atoms: C_2  and  C_27
    4  A    between atoms: N_6  and  C_12
    5  A    between atoms: C_11  and  C_14
    6  A    between atoms: C_14  and  C_22
    7  A    between atoms: C_19  and  O_37
                            x       y       z     vdW  Elec       q    Type
                         _______ _______ _______ _____ _____    ______ ____

>  <TORSDO>
F 7

$$$$
=
 OpenBabel10272414413D

 43 48  0  0  1  0  0  0  0  0999 V2000
  193.8930  174.0130  135.2790 C   0  0  0  0  0  2  0  0  0  0  0  0
  191.1600  175.9050  138.5770 C   0  0  1  0  0  3  0  0  0  0  0  0
  189.4920  176.8240  136.8900 C   0  0  0  0  0  2  0  0  0  0  0  0
  192.1380  175.7630  135.7810 C   0  0  2  0  0  3  0  0  0  0  0  0
  191.7260  172.6310  135.4940 C   0  0  0  0  0  2  0  0  0  0  0  0
  193.2180  172.6440  135.1620 C   0  0  0  0  0  2  0  0  0  0  0  0
  190.9670  174.8780  136.2720 C   0  0  1  0  0  3  0  0  0  0  0  0
  193.0400  175.1430  134.7100 C   0  0  0  0  0  2  0  0  0  0  0  0
  191.3940  173.4780  136.7120 C   0  0  0  0  0  2  0  0  0  0  0  0
  188.7740  177.5440  138.0270 C   0  0  1  0  0  3  0  0  0  0  0  0
  190.2090  175.5720  137.4090 C   0  0  1  0  0  3  0  0  0  0  0  0
  192.4450  176.5680  138.1260 C   0  0  0  0  0  3  0  0  0  0  0  0
  190.4280  176.6770  139.6860 C   0  0  2  0  0  3  0  0  0  0  0  0
  189.7580  177.9340  139.1320 C   0  0  0  0  0  2  0  0  0  0  0  0
  192.9130  176.4560  136.8750 C   0  0  0  0  0  3  0  0  0  0  0  0
  188.0300  178.7310  137.4950 C   0  0  0  0  0  0  0  0  0  0  0  0
  186.6580  178.6150  137.1090 N   0  0  0  0  0  2  0  0  0  0  0  0
  188.6260  179.8290  137.3270 O   0  0  0  0  0  0  0  0  0  0  0  0
  186.1910  176.4700  136.0560 C   0  0  0  0  0  2  0  0  0  0  0  0
  186.0700  175.0740  136.4540 N   0  0  0  0  0  2  0  0  0  0  0  0
  183.9130  174.6720  137.5130 C   0  0  0  0  0  2  0  0  0  0  0  0
  185.9080  177.3760  137.2470 C   0  0  2  0  0  3  0  0  0  0  0  0
  184.7040  174.6310  136.2100 C   0  0  2  0  0  3  0  0  0  0  0  0
  184.5410  177.6640  137.3080 O   0  0  0  0  0  0  0  0  0  0  0  0
  184.0110  176.7760  138.2520 C   0  0  2  0  0  3  0  0  0  0  0  0
  183.1750  175.8580  137.6070 O   0  0  0  0  0  0  0  0  0  0  0  0
  184.7370  173.2040  135.7030 C   0  0  0  0  0  1  0  0  0  0  0  0
  183.2380  177.5400  139.3290 C   0  0  0  0  0  2  0  0  0  0  0  0
  182.4440  178.6730  138.7640 C   0  0  0  0  0  0  0  0  0  0  0  0
  182.1180  181.0540  138.4550 C   0  0  0  0  0  3  0  0  0  0  0  0
  180.5020  179.4860  137.5610 C   0  0  0  0  0  3  0  0  0  0  0  0
  180.9340  180.8020  137.7560 C   0  0  0  0  0  3  0  0  0  0  0  0
  181.2580  178.4230  138.0620 C   0  0  0  0  0  3  0  0  0  0  0  0
  182.8700  179.9920  138.9620 C   0  0  0  0  0  3  0  0  0  0  0  0
  191.3560  177.0090  140.8490 C   0  0  0  0  0  2  0  0  0  0  0  0
  190.4630  177.7350  144.4560 C   0  0  0  0  0  3  0  0  0  0  0  0
  189.2350  177.0770  144.5830 C   0  0  0  0  0  0  0  0  0  0  0  0
  189.3800  176.3900  142.2590 C   0  0  0  0  0  3  0  0  0  0  0  0
  191.1490  177.7220  143.2380 C   0  0  0  0  0  3  0  0  0  0  0  0
  190.6100  177.0470  142.1390 C   0  0  0  0  0  0  0  0  0  0  0  0
  188.6940  176.4060  143.4750 C   0  0  0  0  0  3  0  0  0  0  0  0
  189.2040  177.5230  147.0160 C   0  0  0  0  0  1  0  0  0  0  0  0
  188.5700  177.1150  145.8120 O   0  0  0  0  0  0  0  0  0  0  0  0
  2 12  1  6  0  0  0
  2 13  1  0  0  0  0
  3 10  1  0  0  0  0
  4  8  1  1  0  0  0
  4  7  1  0  0  0  0
  4 15  1  0  0  0  0
  5  9  1  0  0  0  0
  6  1  1  0  0  0  0
  6  5  1  0  0  0  0
  7  9  1  1  0  0  0
  7 11  1  0  0  0  0
  8  1  1  0  0  0  0
 10 16  1  6  0  0  0
 10 14  1  0  0  0  0
 11  3  1  6  0  0  0
 11  2  1  0  0  0  0
 13 35  1  1  0  0  0
 14 13  1  0  0  0  0
 15 12  2  0  0  0  0
 17 16  1  0  0  0  0
 18 16  2  0  0  0  0
 19 20  1  0  0  0  0
 19 22  1  0  0  0  0
 21 26  1  0  0  0  0
 22 17  1  6  0  0  0
 22 24  1  0  0  0  0
 23 27  1  1  0  0  0
 23 20  1  0  0  0  0
 23 21  1  0  0  0  0
 24 25  1  0  0  0  0
 25 28  1  1  0  0  0
 26 25  1  0  0  0  0
 29 34  1  0  0  0  0
 29 28  1  0  0  0  0
 30 34  2  0  0  0  0
 31 32  2  0  0  0  0
 31 33  1  0  0  0  0
 32 30  1  0  0  0  0
 33 29  2  0  0  0  0
 35 40  1  0  0  0  0
 36 37  1  0  0  0  0
 37 43  1  0  0  0  0
 38 41  1  0  0  0  0
 39 36  2  0  0  0  0
 40 38  2  0  0  0  0
 40 39  1  0  0  0  0
 41 37  2  0  0  0  0
 43 42  1  0  0  0  0
M  END
>  <MODEL>
3

>  <REMARK>
 VINA RESULT:      -7.4      1.390      2.098
  Name = 
  7 active torsions:
  status: ('A' for Active; 'I' for Inactive)
    1  A    between atoms: C_1  and  C_34
    2  A    between atoms: C_1  and  C_35
    3  A    between atoms: C_2  and  C_27
    4  A    between atoms: N_6  and  C_12
    5  A    between atoms: C_11  and  C_14
    6  A    between atoms: C_14  and  C_22
    7  A    between atoms: C_19  and  O_37
                            x       y       z     vdW  Elec       q    Type
                         _______ _______ _______ _____ _____    ______ ____

>  <TORSDO>
F 7

$$$$
=
 OpenBabel10272414413D

 43 48  0  0  1  0  0  0  0  0999 V2000
  186.2780  177.5750  134.3460 C   0  0  0  0  0  2  0  0  0  0  0  0
  189.4620  175.2870  136.9060 C   0  0  1  0  0  3  0  0  0  0  0  0
  189.5360  177.0830  138.7060 C   0  0  0  0  0  2  0  0  0  0  0  0
  188.0770  177.7860  136.1110 C   0  0  2  0  0  3  0  0  0  0  0  0
  185.1500  176.6110  136.4560 C   0  0  0  0  0  2  0  0  0  0  0  0
  185.0060  177.0190  134.9890 C   0  0  0  0  0  2  0  0  0  0  0  0
  187.5120  176.8690  137.2220 C   0  0  1  0  0  3  0  0  0  0  0  0
  187.0380  178.5270  135.2650 C   0  0  0  0  0  2  0  0  0  0  0  0
  186.4550  175.8800  136.7290 C   0  0  0  0  0  2  0  0  0  0  0  0
  190.6930  176.3410  139.3670 C   0  0  1  0  0  3  0  0  0  0  0  0
  188.6460  176.1120  137.9220 C   0  0  1  0  0  3  0  0  0  0  0  0
  189.8450  176.0770  135.6720 C   0  0  0  0  0  3  0  0  0  0  0  0
  190.6530  174.5910  137.5840 C   0  0  2  0  0  3  0  0  0  0  0  0
  191.5320  175.6000  138.3230 C   0  0  0  0  0  2  0  0  0  0  0  0
  189.1820  177.1750  135.2840 C   0  0  0  0  0  3  0  0  0  0  0  0
  191.5200  177.2940  140.1760 C   0  0  0  0  0  0  0  0  0  0  0  0
  190.9250  178.0560  141.2290 N   0  0  0  0  0  2  0  0  0  0  0  0
  192.7350  177.4750  139.8940 O   0  0  0  0  0  0  0  0  0  0  0  0
  188.6830  178.8830  140.7690 C   0  0  0  0  0  2  0  0  0  0  0  0
  187.3460  178.3360  140.5790 N   0  0  0  0  0  2  0  0  0  0  0  0
  186.3520  177.7480  142.7240 C   0  0  0  0  0  2  0  0  0  0  0  0
  189.5240  177.9220  141.5980 C   0  0  2  0  0  3  0  0  0  0  0  0
  186.4820  178.8200  141.6470 C   0  0  2  0  0  3  0  0  0  0  0  0
  189.3720  178.2130  142.9580 O   0  0  0  0  0  0  0  0  0  0  0  0
  188.4210  177.3010  143.4330 C   0  0  2  0  0  3  0  0  0  0  0  0
  187.2490  177.9860  143.7710 O   0  0  0  0  0  0  0  0  0  0  0  0
  185.1100  179.1060  141.0730 C   0  0  0  0  0  1  0  0  0  0  0  0
  188.9670  176.5420  144.6430 C   0  0  0  0  0  2  0  0  0  0  0  0
  188.6160  177.2030  145.9360 C   0  0  0  0  0  0  0  0  0  0  0  0
  189.2840  178.0490  148.1060 C   0  0  0  0  0  3  0  0  0  0  0  0
  186.9570  178.1410  147.4360 C   0  0  0  0  0  3  0  0  0  0  0  0
  187.9570  178.3930  148.3810 C   0  0  0  0  0  3  0  0  0  0  0  0
  187.2870  177.5490  146.2140 C   0  0  0  0  0  3  0  0  0  0  0  0
  189.6130  177.4520  146.8870 C   0  0  0  0  0  3  0  0  0  0  0  0
  191.4660  173.7690  136.5910 C   0  0  0  0  0  2  0  0  0  0  0  0
  195.1480  174.0840  137.4190 C   0  0  0  0  0  3  0  0  0  0  0  0
  195.5520  175.0920  136.5380 C   0  0  0  0  0  0  0  0  0  0  0  0
  193.2880  175.2230  135.6710 C   0  0  0  0  0  3  0  0  0  0  0  0
  193.8200  173.6460  137.4300 C   0  0  0  0  0  3  0  0  0  0  0  0
  192.8880  174.2160  136.5580 C   0  0  0  0  0  0  0  0  0  0  0  0
  194.6140  175.6580  135.6590 C   0  0  0  0  0  3  0  0  0  0  0  0
  197.7030  175.4870  135.3820 C   0  0  0  0  0  1  0  0  0  0  0  0
  196.8890  175.5020  136.5460 O   0  0  0  0  0  0  0  0  0  0  0  0
  1  6  1  0  0  0  0
  1  8  1  0  0  0  0
  2 12  1  6  0  0  0
  2 13  1  0  0  0  0
  2 11  1  0  0  0  0
  3 10  1  0  0  0  0
  4  8  1  6  0  0  0
  4  7  1  0  0  0  0
  5  9  1  0  0  0  0
  6  5  1  0  0  0  0
  7  9  1  6  0  0  0
  7 11  1  0  0  0  0
 10 16  1  6  0  0  0
 11  3  1  6  0  0  0
 13 35  1  6  0  0  0
 13 14  1  0  0  0  0
 14 10  1  0  0  0  0
 15 12  2  0  0  0  0
 15  4  1  0  0  0  0
 16 17  1  0  0  0  0
 18 16  2  0  0  0  0
 19 22  1  0  0  0  0
 20 19  1  0  0  0  0
 20 23  1  0  0  0  0
 21 26  1  0  0  0  0
 22 17  1  6  0  0  0
 22 24  1  0  0  0  0
 23 27  1  6  0  0  0
 23 21  1  0  0  0  0
 24 25  1  0  0  0  0
 25 26  1  0  0  0  0
 25 28  1  1  0  0  0
 28 29  1  0  0  0  0
 29 33  2  0  0  0  0
 29 34  1  0  0  0  0
 30 32  1  0  0  0  0
 31 32  2  0  0  0  0
 33 31  1  0  0  0  0
 34 30  2  0  0  0  0
 36 39  1  0  0  0  0
 37 43  1  0  0  0  0
 37 36  2  0  0  0  0
 38 40  1  0  0  0  0
 40 35  1  0  0  0  0
 40 39  2  0  0  0  0
 41 38  2  0  0  0  0
 41 37  1  0  0  0  0
 42 43  1  0  0  0  0
M  END
>  <MODEL>
4

>  <REMARK>
 VINA RESULT:      -6.6      2.483      7.081
  Name = 
  7 active torsions:
  status: ('A' for Active; 'I' for Inactive)
    1  A    between atoms: C_1  and  C_34
    2  A    between atoms: C_1  and  C_35
    3  A    between atoms: C_2  and  C_27
    4  A    between atoms: N_6  and  C_12
    5  A    between atoms: C_11  and  C_14
    6  A    between atoms: C_14  and  C_22
    7  A    between atoms: C_19  and  O_37
                            x       y       z     vdW  Elec       q    Type
                         _______ _______ _______ _____ _____    ______ ____

>  <TORSDO>
F 7

$$$$
=
 OpenBabel10272414413D

 43 48  0  0  1  0  0  0  0  0999 V2000
  183.6580  172.9260  135.0600 C   0  0  0  0  0  2  0  0  0  0  0  0
  187.8940  174.1370  136.6480 C   0  0  1  0  0  3  0  0  0  0  0  0
  187.1720  176.5050  137.2290 C   0  0  0  0  0  2  0  0  0  0  0  0
  185.2340  174.8440  135.5440 C   0  0  2  0  0  3  0  0  0  0  0  0
  183.5900  173.1100  137.6310 C   0  0  0  0  0  2  0  0  0  0  0  0
  183.0370  172.4420  136.3720 C   0  0  0  0  0  2  0  0  0  0  0  0
  185.4550  174.6700  137.0650 C   0  0  1  0  0  3  0  0  0  0  0  0
  183.8530  174.4390  135.0200 C   0  0  0  0  0  2  0  0  0  0  0  0
  185.1000  173.2760  137.5860 C   0  0  0  0  0  2  0  0  0  0  0  0
  188.6230  176.8430  137.5570 C   0  0  1  0  0  3  0  0  0  0  0  0
  186.9010  175.0120  137.4410 C   0  0  1  0  0  3  0  0  0  0  0  0
  187.5810  174.0780  135.1670 C   0  0  0  0  0  3  0  0  0  0  0  0
  189.3480  174.5300  136.9530 C   0  0  2  0  0  3  0  0  0  0  0  0
  189.5820  176.0180  136.6950 C   0  0  0  0  0  2  0  0  0  0  0  0
  186.3630  174.3450  134.6760 C   0  0  0  0  0  3  0  0  0  0  0  0
  188.8560  178.3150  137.4020 C   0  0  0  0  0  0  0  0  0  0  0  0
  188.9800  179.1550  138.5520 N   0  0  0  0  0  2  0  0  0  0  0  0
  188.8860  178.8340  136.2540 O   0  0  0  0  0  0  0  0  0  0  0  0
  189.9810  177.5460  140.0790 C   0  0  0  0  0  2  0  0  0  0  0  0
  190.4390  177.5060  141.4610 N   0  0  0  0  0  2  0  0  0  0  0  0
  188.5450  177.3010  142.9820 C   0  0  0  0  0  2  0  0  0  0  0  0
  188.9310  178.6360  139.9100 C   0  0  2  0  0  3  0  0  0  0  0  0
  189.6220  176.5540  142.2020 C   0  0  2  0  0  3  0  0  0  0  0  0
  187.6600  178.1100  140.1620 O   0  0  0  0  0  0  0  0  0  0  0  0
  187.3630  178.4610  141.4840 C   0  0  2  0  0  3  0  0  0  0  0  0
  187.3370  177.3070  142.2760 O   0  0  0  0  0  0  0  0  0  0  0  0
  190.5060  175.8100  143.1800 C   0  0  0  0  0  1  0  0  0  0  0  0
  186.0200  179.1910  141.5550 C   0  0  0  0  0  2  0  0  0  0  0  0
  184.9920  178.5800  140.6600 C   0  0  0  0  0  0  0  0  0  0  0  0
  184.0830  178.2390  138.4400 C   0  0  0  0  0  3  0  0  0  0  0  0
  182.9710  177.2730  140.3640 C   0  0  0  0  0  3  0  0  0  0  0  0
  183.0400  177.4820  138.9830 C   0  0  0  0  0  3  0  0  0  0  0  0
  183.9470  177.8190  141.2010 C   0  0  0  0  0  3  0  0  0  0  0  0
  185.0550  178.7910  139.2770 C   0  0  0  0  0  3  0  0  0  0  0  0
  190.3390  173.6700  136.1780 C   0  0  0  0  0  2  0  0  0  0  0  0
  193.2980  175.0670  138.0830 C   0  0  0  0  0  3  0  0  0  0  0  0
  194.3630  174.3640  137.5100 C   0  0  0  0  0  0  0  0  0  0  0  0
  192.7960  173.1870  136.0770 C   0  0  0  0  0  3  0  0  0  0  0  0
  191.9870  174.8340  137.6570 C   0  0  0  0  0  3  0  0  0  0  0  0
  191.7340  173.8960  136.6520 C   0  0  0  0  0  0  0  0  0  0  0  0
  194.1040  173.4180  136.5050 C   0  0  0  0  0  3  0  0  0  0  0  0
  196.5640  173.5750  138.3170 C   0  0  0  0  0  1  0  0  0  0  0  0
  195.6610  174.6140  137.9640 O   0  0  0  0  0  0  0  0  0  0  0  0
  1  6  1  0  0  0  0
  2 12  1  6  0  0  0
  2 13  1  0  0  0  0
  2 11  1  0  0  0  0
  3 10  1  0  0  0  0
  4 15  1  6  0  0  0
  4  7  1  0  0  0  0
  6  5  1  0  0  0  0
  7 11  1  0  0  0  0
  7  9  1  6  0  0  0
  8  1  1  0  0  0  0
  8  4  1  0  0  0  0
  9  5  1  0  0  0  0
 10 16  1  6  0  0  0
 11  3  1  6  0  0  0
 13 35  1  6  0  0  0
 14 13  1  0  0  0  0
 14 10  1  0  0  0  0
 15 12  2  0  0  0  0
 16 17  1  0  0  0  0
 18 16  2  0  0  0  0
 19 20  1  0  0  0  0
 20 23  1  0  0  0  0
 22 17  1  6  0  0  0
 22 19  1  0  0  0  0
 22 24  1  0  0  0  0
 23 21  1  0  0  0  0
 23 27  1  1  0  0  0
 24 25  1  0  0  0  0
 25 28  1  6  0  0  0
 25 26  1  0  0  0  0
 26 21  1  0  0  0  0
 29 33  1  0  0  0  0
 29 28  1  0  0  0  0
 30 32  2  0  0  0  0
 30 34  1  0  0  0  0
 31 33  2  0  0  0  0
 32 31  1  0  0  0  0
 34 29  2  0  0  0  0
 35 40  1  0  0  0  0
 37 43  1  0  0  0  0
 37 36  2  0  0  0  0
 38 41  2  0  0  0  0
 38 40  1  0  0  0  0
 39 36  1  0  0  0  0
 40 39  2  0  0  0  0
 41 37  1  0  0  0  0
 43 42  1  0  0  0  0
M  END
>  <MODEL>
5

>  <REMARK>
 VINA RESULT:      -6.5      2.349      6.623
  Name = 
  7 active torsions:
  status: ('A' for Active; 'I' for Inactive)
    1  A    between atoms: C_1  and  C_34
    2  A    between atoms: C_1  and  C_35
    3  A    between atoms: C_2  and  C_27
    4  A    between atoms: N_6  and  C_12
    5  A    between atoms: C_11  and  C_14
    6  A    between atoms: C_14  and  C_22
    7  A    between atoms: C_19  and  O_37
                            x       y       z     vdW  Elec       q    Type
                         _______ _______ _______ _____ _____    ______ ____

>  <TORSDO>
F 7

$$$$
=
 OpenBabel10272414413D

 43 48  0  0  1  0  0  0  0  0999 V2000
  192.7090  174.4470  135.4490 C   0  0  0  0  0  2  0  0  0  0  0  0
  188.9920  176.4750  137.4480 C   0  0  1  0  0  3  0  0  0  0  0  0
  187.4750  176.0160  135.4590 C   0  0  0  0  0  2  0  0  0  0  0  0
  190.4700  175.5520  135.0480 C   0  0  2  0  0  3  0  0  0  0  0  0
  191.0210  172.6320  136.1600 C   0  0  0  0  0  2  0  0  0  0  0  0
  192.4830  173.0090  135.9210 C   0  0  0  0  0  2  0  0  0  0  0  0
  189.5280  174.6050  135.8290 C   0  0  1  0  0  3  0  0  0  0  0  0
  191.6920  174.8930  134.4020 C   0  0  0  0  0  2  0  0  0  0  0  0
  190.2440  173.7340  136.8620 C   0  0  0  0  0  2  0  0  0  0  0  0
  186.3850  176.8490  136.1270 C   0  0  1  0  0  3  0  0  0  0  0  0
  188.4070  175.4010  136.5080 C   0  0  1  0  0  3  0  0  0  0  0  0
  190.0980  177.2870  136.8060 C   0  0  0  0  0  3  0  0  0  0  0  0
  187.8800  177.3350  138.0680 C   0  0  2  0  0  3  0  0  0  0  0  0
  186.9960  177.9570  136.9870 C   0  0  0  0  0  2  0  0  0  0  0  0
  190.8020  176.8430  135.7550 C   0  0  0  0  0  3  0  0  0  0  0  0
  185.4480  177.3940  135.0930 C   0  0  0  0  0  0  0  0  0  0  0  0
  184.2010  176.7460  134.8290 N   0  0  0  0  0  2  0  0  0  0  0  0
  185.7790  178.3970  134.4050 O   0  0  0  0  0  0  0  0  0  0  0  0
  184.0780  174.3160  134.7600 C   0  0  0  0  0  2  0  0  0  0  0  0
  184.3120  173.1950  135.6600 N   0  0  0  0  0  2  0  0  0  0  0  0
  182.4430  172.9350  137.2020 C   0  0  0  0  0  2  0  0  0  0  0  0
  183.7590  175.5700  135.5630 C   0  0  2  0  0  3  0  0  0  0  0  0
  183.0540  172.4930  135.8760 C   0  0  2  0  0  3  0  0  0  0  0  0
  182.3810  175.6510  135.7850 O   0  0  0  0  0  0  0  0  0  0  0  0
  182.1780  175.1480  137.0760 C   0  0  2  0  0  3  0  0  0  0  0  0
  181.4850  173.9350  136.9980 O   0  0  0  0  0  0  0  0  0  0  0  0
  183.3300  171.0050  135.9370 C   0  0  0  0  0  1  0  0  0  0  0  0
  181.4010  176.1550  137.9260 C   0  0  0  0  0  2  0  0  0  0  0  0
  182.3000  177.0850  138.6720 C   0  0  0  0  0  0  0  0  0  0  0  0
  183.6660  179.0860  138.7260 C   0  0  0  0  0  3  0  0  0  0  0  0
  183.5270  177.6620  140.6820 C   0  0  0  0  0  3  0  0  0  0  0  0
  184.0270  178.8040  140.0470 C   0  0  0  0  0  3  0  0  0  0  0  0
  182.6620  176.8060  139.9970 C   0  0  0  0  0  3  0  0  0  0  0  0
  182.8070  178.2260  138.0380 C   0  0  0  0  0  3  0  0  0  0  0  0
  188.4440  178.3990  139.0030 C   0  0  0  0  0  2  0  0  0  0  0  0
  187.2020  177.9430  142.5500 C   0  0  0  0  0  3  0  0  0  0  0  0
  188.2340  177.1900  143.1190 C   0  0  0  0  0  0  0  0  0  0  0  0
  189.3990  177.2060  140.9880 C   0  0  0  0  0  3  0  0  0  0  0  0
  187.2640  178.3290  141.2080 C   0  0  0  0  0  3  0  0  0  0  0  0
  188.3640  177.9630  140.4260 C   0  0  0  0  0  0  0  0  0  0  0  0
  189.3340  176.8190  142.3280 C   0  0  0  0  0  3  0  0  0  0  0  0
  188.5830  177.6430  145.5250 C   0  0  0  0  0  1  0  0  0  0  0  0
  188.1370  176.8130  144.4610 O   0  0  0  0  0  0  0  0  0  0  0  0
  1  6  1  0  0  0  0
  2 12  1  6  0  0  0
  2 13  1  0  0  0  0
  3 10  1  0  0  0  0
  4  8  1  1  0  0  0
  4 15  1  0  0  0  0
  4  7  1  0  0  0  0
  5  9  1  0  0  0  0
  6  5  1  0  0  0  0
  7 11  1  0  0  0  0
  7  9  1  1  0  0  0
  8  1  1  0  0  0  0
 10 16  1  6  0  0  0
 10 14  1  0  0  0  0
 11  3  1  6  0  0  0
 11  2  1  0  0  0  0
 13 35  1  6  0  0  0
 14 13  1  0  0  0  0
 15 12  2  0  0  0  0
 17 16  1  0  0  0  0
 18 16  2  0  0  0  0
 19 22  1  0  0  0  0
 19 20  1  0  0  0  0
 20 23  1  0  0  0  0
 22 17  1  6  0  0  0
 22 24  1  0  0  0  0
 23 27  1  1  0  0  0
 23 21  1  0  0  0  0
 24 25  1  0  0  0  0
 25 28  1  1  0  0  0
 26 25  1  0  0  0  0
 26 21  1  0  0  0  0
 28 29  1  0  0  0  0
 29 33  1  0  0  0  0
 30 32  2  0  0  0  0
 32 31  1  0  0  0  0
 33 31  2  0  0  0  0
 34 29  2  0  0  0  0
 34 30  1  0  0  0  0
 35 40  1  0  0  0  0
 36 37  1  0  0  0  0
 37 43  1  0  0  0  0
 38 41  1  0  0  0  0
 39 36  2  0  0  0  0
 40 38  2  0  0  0  0
 40 39  1  0  0  0  0
 41 37  2  0  0  0  0
 43 42  1  0  0  0  0
M  END
>  <MODEL>
6

>  <REMARK>
 VINA RESULT:      -6.5      1.903      2.931
  Name = 
  7 active torsions:
  status: ('A' for Active; 'I' for Inactive)
    1  A    between atoms: C_1  and  C_34
    2  A    between atoms: C_1  and  C_35
    3  A    between atoms: C_2  and  C_27
    4  A    between atoms: N_6  and  C_12
    5  A    between atoms: C_11  and  C_14
    6  A    between atoms: C_14  and  C_22
    7  A    between atoms: C_19  and  O_37
                            x       y       z     vdW  Elec       q    Type
                         _______ _______ _______ _____ _____    ______ ____

>  <TORSDO>
F 7

$$$$
=
 OpenBabel10272414413D

 43 48  0  0  1  0  0  0  0  0999 V2000
  191.6090  177.4810  145.1940 C   0  0  0  0  0  2  0  0  0  0  0  0
  187.9190  177.5230  142.3120 C   0  0  1  0  0  3  0  0  0  0  0  0
  189.3580  177.5870  140.2160 C   0  0  0  0  0  2  0  0  0  0  0  0
  190.7760  178.0760  142.8810 C   0  0  2  0  0  3  0  0  0  0  0  0
  191.4000  175.1870  144.0350 C   0  0  0  0  0  2  0  0  0  0  0  0
  191.8370  175.9700  145.2740 C   0  0  0  0  0  2  0  0  0  0  0  0
  190.3090  176.6920  142.3700 C   0  0  1  0  0  3  0  0  0  0  0  0
  191.9760  178.0640  143.8330 C   0  0  0  0  0  2  0  0  0  0  0  0
  190.0690  175.6700  143.4810 C   0  0  0  0  0  2  0  0  0  0  0  0
  188.0940  177.7730  139.3820 C   0  0  1  0  0  3  0  0  0  0  0  0
  189.0450  176.8350  141.5140 C   0  0  1  0  0  3  0  0  0  0  0  0
  188.3810  178.7700  143.0370 C   0  0  0  0  0  3  0  0  0  0  0  0
  186.6750  177.7480  141.4370 C   0  0  2  0  0  3  0  0  0  0  0  0
  187.0260  178.5310  140.1720 C   0  0  0  0  0  2  0  0  0  0  0  0
  189.6680  178.9910  143.3420 C   0  0  0  0  0  3  0  0  0  0  0  0
  188.4260  178.4580  138.0910 C   0  0  0  0  0  0  0  0  0  0  0  0
  188.0730  177.8600  136.8400 N   0  0  0  0  0  2  0  0  0  0  0  0
  189.0740  179.5380  138.0960 O   0  0  0  0  0  0  0  0  0  0  0  0
  188.3150  175.4770  136.4080 C   0  0  0  0  0  2  0  0  0  0  0  0
  187.8380  174.2220  136.9710 N   0  0  0  0  0  2  0  0  0  0  0  0
  185.5390  173.7960  136.2810 C   0  0  0  0  0  2  0  0  0  0  0  0
  187.3480  176.6020  136.7510 C   0  0  2  0  0  3  0  0  0  0  0  0
  187.0130  173.5430  135.9810 C   0  0  2  0  0  3  0  0  0  0  0  0
  186.3660  176.7000  135.7600 O   0  0  0  0  0  0  0  0  0  0  0  0
  185.2550  176.0100  136.2600 C   0  0  2  0  0  3  0  0  0  0  0  0
  185.0490  174.8520  135.5040 O   0  0  0  0  0  0  0  0  0  0  0  0
  187.2790  172.0540  136.0610 C   0  0  0  0  0  1  0  0  0  0  0  0
  184.0130  176.9020  136.2260 C   0  0  0  0  0  2  0  0  0  0  0  0
  182.9720  176.4680  137.2060 C   0  0  0  0  0  0  0  0  0  0  0  0
  182.3870  175.4880  139.3440 C   0  0  0  0  0  3  0  0  0  0  0  0
  180.6430  176.1540  137.7990 C   0  0  0  0  0  3  0  0  0  0  0  0
  181.0300  175.6060  139.0260 C   0  0  0  0  0  3  0  0  0  0  0  0
  181.6120  176.5870  136.8910 C   0  0  0  0  0  3  0  0  0  0  0  0
  183.3570  175.9150  138.4340 C   0  0  0  0  0  3  0  0  0  0  0  0
  185.5520  178.4250  142.2160 C   0  0  0  0  0  2  0  0  0  0  0  0
  183.4220  179.4200  139.2480 C   0  0  0  0  0  3  0  0  0  0  0  0
  182.1320  179.1730  139.7290 C   0  0  0  0  0  0  0  0  0  0  0  0
  183.0770  178.4130  141.8330 C   0  0  0  0  0  3  0  0  0  0  0  0
  184.5370  179.1670  140.0530 C   0  0  0  0  0  3  0  0  0  0  0  0
  184.3650  178.6660  141.3470 C   0  0  0  0  0  0  0  0  0  0  0  0
  181.9640  178.6640  141.0270 C   0  0  0  0  0  3  0  0  0  0  0  0
  181.1280  180.2490  137.7400 C   0  0  0  0  0  1  0  0  0  0  0  0
  181.0380  179.4280  138.8960 O   0  0  0  0  0  0  0  0  0  0  0  0
  1  6  1  0  0  0  0
  2 12  1  6  0  0  0
  4 15  1  1  0  0  0
  4  8  1  0  0  0  0
  5  6  1  0  0  0  0
  7  4  1  0  0  0  0
  7  9  1  1  0  0  0
  8  1  1  0  0  0  0
  9  5  1  0  0  0  0
 10 16  1  6  0  0  0
 10 14  1  0  0  0  0
 10  3  1  0  0  0  0
 11  3  1  6  0  0  0
 11  2  1  0  0  0  0
 11  7  1  0  0  0  0
 12 15  2  0  0  0  0
 13 35  1  1  0  0  0
 13  2  1  0  0  0  0
 14 13  1  0  0  0  0
 16 18  2  0  0  0  0
 17 16  1  0  0  0  0
 19 22  1  0  0  0  0
 19 20  1  0  0  0  0
 22 17  1  6  0  0  0
 23 27  1  1  0  0  0
 23 21  1  0  0  0  0
 23 20  1  0  0  0  0
 24 25  1  0  0  0  0
 24 22  1  0  0  0  0
 25 28  1  6  0  0  0
 26 25  1  0  0  0  0
 26 21  1  0  0  0  0
 28 29  1  0  0  0  0
 29 34  1  0  0  0  0
 31 32  2  0  0  0  0
 32 30  1  0  0  0  0
 33 29  2  0  0  0  0
 33 31  1  0  0  0  0
 34 30  2  0  0  0  0
 36 37  2  0  0  0  0
 36 39  1  0  0  0  0
 37 41  1  0  0  0  0
 39 40  2  0  0  0  0
 40 38  1  0  0  0  0
 40 35  1  0  0  0  0
 41 38  2  0  0  0  0
 42 43  1  0  0  0  0
 43 37  1  0  0  0  0
M  END
>  <MODEL>
7

>  <REMARK>
 VINA RESULT:      -6.5      2.889      5.987
  Name = 
  7 active torsions:
  status: ('A' for Active; 'I' for Inactive)
    1  A    between atoms: C_1  and  C_34
    2  A    between atoms: C_1  and  C_35
    3  A    between atoms: C_2  and  C_27
    4  A    between atoms: N_6  and  C_12
    5  A    between atoms: C_11  and  C_14
    6  A    between atoms: C_14  and  C_22
    7  A    between atoms: C_19  and  O_37
                            x       y       z     vdW  Elec       q    Type
                         _______ _______ _______ _____ _____    ______ ____

>  <TORSDO>
F 7

$$$$
=
 OpenBabel10272414413D

 43 48  0  0  1  0  0  0  0  0999 V2000
  191.3870  177.5560  144.8950 C   0  0  0  0  0  2  0  0  0  0  0  0
  188.0270  177.6610  141.6350 C   0  0  1  0  0  3  0  0  0  0  0  0
  189.6830  177.7770  139.7080 C   0  0  0  0  0  2  0  0  0  0  0  0
  190.8050  178.2040  142.5210 C   0  0  2  0  0  3  0  0  0  0  0  0
  191.3120  175.2890  143.6660 C   0  0  0  0  0  2  0  0  0  0  0  0
  191.6100  176.0440  144.9630 C   0  0  0  0  0  2  0  0  0  0  0  0
  190.4000  176.8330  141.9290 C   0  0  1  0  0  3  0  0  0  0  0  0
  191.8960  178.1710  143.5950 C   0  0  0  0  0  2  0  0  0  0  0  0
  190.0470  175.7840  142.9850 C   0  0  0  0  0  2  0  0  0  0  0  0
  188.5150  177.9810  138.7470 C   0  0  1  0  0  3  0  0  0  0  0  0
  189.2350  176.9940  140.9460 C   0  0  1  0  0  3  0  0  0  0  0  0
  188.4040  178.8910  142.4350 C   0  0  0  0  0  3  0  0  0  0  0  0
  186.8840  177.9050  140.6370 C   0  0  2  0  0  3  0  0  0  0  0  0
  187.3650  178.7190  139.4360 C   0  0  0  0  0  2  0  0  0  0  0  0
  189.6500  179.1060  142.8820 C   0  0  0  0  0  3  0  0  0  0  0  0
  188.9810  178.6970  137.5160 C   0  0  0  0  0  0  0  0  0  0  0  0
  189.8040  178.0290  136.5550 N   0  0  0  0  0  2  0  0  0  0  0  0
  188.7010  179.9130  137.3460 O   0  0  0  0  0  0  0  0  0  0  0  0
  191.6960  176.5380  136.9050 C   0  0  0  0  0  2  0  0  0  0  0  0
  192.0130  175.3610  137.7030 N   0  0  0  0  0  2  0  0  0  0  0  0
  191.0270  173.3670  136.7080 C   0  0  0  0  0  2  0  0  0  0  0  0
  190.1910  176.6330  136.6930 C   0  0  2  0  0  3  0  0  0  0  0  0
  192.2720  174.2410  136.8080 C   0  0  2  0  0  3  0  0  0  0  0  0
  189.8330  175.9340  135.5360 O   0  0  0  0  0  0  0  0  0  0  0  0
  189.3800  174.6850  135.9760 C   0  0  2  0  0  3  0  0  0  0  0  0
  190.2810  173.6950  135.5700 O   0  0  0  0  0  0  0  0  0  0  0  0
  193.4060  173.4140  137.3770 C   0  0  0  0  0  1  0  0  0  0  0  0
  187.9830  174.3980  135.4220 C   0  0  0  0  0  2  0  0  0  0  0  0
  186.9940  175.4540  135.7950 C   0  0  0  0  0  0  0  0  0  0  0  0
  185.9080  177.5680  135.3220 C   0  0  0  0  0  3  0  0  0  0  0  0
  185.3620  176.3530  137.3460 C   0  0  0  0  0  3  0  0  0  0  0  0
  185.1820  177.4620  136.5120 C   0  0  0  0  0  3  0  0  0  0  0  0
  186.2650  175.3500  136.9870 C   0  0  0  0  0  3  0  0  0  0  0  0
  186.8160  176.5680  134.9650 C   0  0  0  0  0  3  0  0  0  0  0  0
  185.6810  178.5620  141.3060 C   0  0  0  0  0  2  0  0  0  0  0  0
  182.5340  177.2760  139.6400 C   0  0  0  0  0  3  0  0  0  0  0  0
  182.2300  178.3210  138.7610 C   0  0  0  0  0  0  0  0  0  0  0  0
  184.1730  179.5380  139.5610 C   0  0  0  0  0  3  0  0  0  0  0  0
  183.6520  177.3580  140.4760 C   0  0  0  0  0  3  0  0  0  0  0  0
  184.4740  178.4880  140.4360 C   0  0  0  0  0  0  0  0  0  0  0  0
  183.0550  179.4570  138.7280 C   0  0  0  0  0  3  0  0  0  0  0  0
  181.0840  178.6580  136.5950 C   0  0  0  0  0  1  0  0  0  0  0  0
  181.1010  178.2120  137.9440 O   0  0  0  0  0  0  0  0  0  0  0  0
  1  6  1  0  0  0  0
  2 12  1  6  0  0  0
  4 15  1  1  0  0  0
  4  8  1  0  0  0  0
  5  6  1  0  0  0  0
  7  4  1  0  0  0  0
  7  9  1  1  0  0  0
  8  1  1  0  0  0  0
  9  5  1  0  0  0  0
 10 16  1  6  0  0  0
 10 14  1  0  0  0  0
 10  3  1  0  0  0  0
 11  3  1  6  0  0  0
 11  2  1  0  0  0  0
 11  7  1  0  0  0  0
 12 15  2  0  0  0  0
 13 35  1  1  0  0  0
 13  2  1  0  0  0  0
 14 13  1  0  0  0  0
 17 16  1  0  0  0  0
 18 16  2  0  0  0  0
 19 20  1  0  0  0  0
 21 23  1  0  0  0  0
 22 17  1  6  0  0  0
 22 19  1  0  0  0  0
 23 27  1  1  0  0  0
 23 20  1  0  0  0  0
 24 25  1  0  0  0  0
 24 22  1  0  0  0  0
 25 28  1  6  0  0  0
 26 25  1  0  0  0  0
 26 21  1  0  0  0  0
 28 29  1  0  0  0  0
 29 33  1  0  0  0  0
 30 32  2  0  0  0  0
 32 31  1  0  0  0  0
 33 31  2  0  0  0  0
 34 30  1  0  0  0  0
 34 29  2  0  0  0  0
 36 39  1  0  0  0  0
 37 36  2  0  0  0  0
 38 40  1  0  0  0  0
 40 39  2  0  0  0  0
 40 35  1  0  0  0  0
 41 37  1  0  0  0  0
 41 38  2  0  0  0  0
 42 43  1  0  0  0  0
 43 37  1  0  0  0  0
M  END
>  <MODEL>
8

>  <REMARK>
 VINA RESULT:      -6.4      2.344      6.878
  Name = 
  7 active torsions:
  status: ('A' for Active; 'I' for Inactive)
    1  A    between atoms: C_1  and  C_34
    2  A    between atoms: C_1  and  C_35
    3  A    between atoms: C_2  and  C_27
    4  A    between atoms: N_6  and  C_12
    5  A    between atoms: C_11  and  C_14
    6  A    between atoms: C_14  and  C_22
    7  A    between atoms: C_19  and  O_37
                            x       y       z     vdW  Elec       q    Type
                         _______ _______ _______ _____ _____    ______ ____

>  <TORSDO>
F 7

$$$$
