=
 OpenBabel10272414513D

 37 42  0  0  1  0  0  0  0  0999 V2000
  184.4900  176.5260  137.4980 C   0  0  0  0  0  0  0  0  0  0  0  0
  185.9850  173.5570  136.8990 C   0  0  2  0  0  3  0  0  0  0  0  0
  181.2380  177.1770  136.5630 C   0  0  2  0  0  3  0  0  0  0  0  0
  185.3600  176.1070  136.2940 C   0  0  2  0  0  0  0  0  0  0  0  0
  182.1770  178.9530  138.0630 C   0  0  1  0  0  3  0  0  0  0  0  0
  181.8290  172.9890  135.6960 C   0  0  0  0  0  3  0  0  0  0  0  0
  183.9470  177.8530  139.5380 C   0  0  0  0  0  2  0  0  0  0  0  0
  184.5670  175.6470  135.2410 O   0  0  0  0  0  0  0  0  0  0  0  0
  186.3990  175.0370  136.7020 C   0  0  0  0  0  2  0  0  0  0  0  0
  182.5160  174.9700  136.9270 C   0  0  0  0  0  0  0  0  0  0  0  0
  180.7200  173.6690  135.2050 C   0  0  0  0  0  3  0  0  0  0  0  0
  185.6100  177.5180  134.4280 O   0  0  0  0  0  0  0  0  0  0  0  0
  183.3790  175.6150  137.9730 C   0  0  0  0  0  2  0  0  0  0  0  0
  185.0590  173.0080  135.8310 C   0  0  0  0  0  2  0  0  0  0  0  0
  186.1300  177.2640  135.6940 C   0  0  0  0  0  2  0  0  0  0  0  0
  180.5240  175.0070  135.5310 C   0  0  0  0  0  3  0  0  0  0  0  0
  184.9180  173.3330  137.9520 C   0  0  0  0  0  2  0  0  0  0  0  0
  183.0450  179.0710  139.3170 C   0  0  0  0  0  2  0  0  0  0  0  0
  181.4090  175.6800  136.3850 C   0  0  0  0  0  0  0  0  0  0  0  0
  184.8220  177.5430  138.3410 C   0  0  0  0  0  0  0  0  0  0  0  0
  182.7470  173.6160  136.5440 C   0  0  0  0  0  0  0  0  0  0  0  0
  181.3390  177.6690  138.0090 C   0  0  1  0  0  3  0  0  0  0  0  0
  183.9780  172.7900  136.8800 C   0  0  1  0  0  3  0  0  0  0  0  0
  184.4560  176.7330  134.3640 C   0  0  0  0  0  2  0  0  0  0  0  0
  180.0870  177.6690  135.9350 O   0  0  0  0  0  1  0  0  0  0  0  0
  181.0280  181.0960  138.7670 C   0  0  0  0  0  3  0  0  0  0  0  0
  181.4220  180.2110  137.7510 C   0  0  0  0  0  0  0  0  0  0  0  0
  181.0880  180.4930  136.4210 C   0  0  0  0  0  3  0  0  0  0  0  0
  180.0510  181.9190  134.8180 F   0  0  0  0  0  0  0  0  0  0  0  0
  179.9820  182.5310  137.1210 C   0  0  0  0  0  3  0  0  0  0  0  0
  180.3710  181.6510  136.1060 C   0  0  0  0  0  0  0  0  0  0  0  0
  180.3110  182.2540  138.4510 C   0  0  0  0  0  3  0  0  0  0  0  0
  187.0280  178.3970  139.0770 C   0  0  0  0  0  1  0  0  0  0  0  0
  185.9750  178.3080  138.1290 O   0  0  0  0  0  0  0  0  0  0  0  0
  180.0110  177.7360  138.7660 C   0  0  0  0  0  2  0  0  0  0  0  0
  179.9890  178.0630  141.3790 C   0  0  0  0  0  1  0  0  0  0  0  0
  180.0480  176.6580  140.2310 S   0  0  0  0  0  0  0  0  0  0  0  0
  1 13  1  0  0  0  0
  1 20  2  0  0  0  0
  2 14  1  6  0  0  0
  2 17  1  0  0  0  0
  3 25  1  1  0  0  0
  3 22  1  0  0  0  0
  4 15  1  6  0  0  0
  4  9  1  0  0  0  0
  4  1  1  0  0  0  0
  5 27  1  1  0  0  0
  5 18  1  0  0  0  0
  6 21  1  0  0  0  0
  8  4  1  0  0  0  0
  9  2  1  0  0  0  0
 10 13  1  0  0  0  0
 11 16  1  0  0  0  0
 11  6  2  0  0  0  0
 12 15  1  0  0  0  0
 16 19  2  0  0  0  0
 18  7  1  0  0  0  0
 19  3  1  0  0  0  0
 19 10  1  0  0  0  0
 20  7  1  0  0  0  0
 21 23  1  0  0  0  0
 21 10  2  0  0  0  0
 22  5  1  0  0  0  0
 22 35  1  6  0  0  0
 23 14  1  6  0  0  0
 23 17  1  0  0  0  0
 24 12  1  0  0  0  0
 24  8  1  0  0  0  0
 27 26  2  0  0  0  0
 28 27  1  0  0  0  0
 29 31  1  0  0  0  0
 30 32  2  0  0  0  0
 31 28  2  0  0  0  0
 31 30  1  0  0  0  0
 32 26  1  0  0  0  0
 34 20  1  0  0  0  0
 34 33  1  0  0  0  0
 35 37  1  0  0  0  0
 37 36  1  0  0  0  0
M  END
>  <MODEL>
1

>  <REMARK>
 VINA RESULT:      -5.1      0.000      0.000
  Name = 
  4 active torsions:
  status: ('A' for Active; 'I' for Inactive)
    1  A    between atoms: C_6  and  C_7
    2  A    between atoms: C_14  and  C_31
    3  A    between atoms: C_14  and  S_37
    4  A    between atoms: C_29  and  O_33
                            x       y       z     vdW  Elec       q    Type
                         _______ _______ _______ _____ _____    ______ ____

>  <TORSDO>
F 4

$$$$
=
 OpenBabel10272414513D

 37 42  0  0  1  0  0  0  0  0999 V2000
  182.7460  176.0590  135.8610 C   0  0  0  0  0  0  0  0  0  0  0  0
  179.9820  174.1710  135.4180 C   0  0  2  0  0  3  0  0  0  0  0  0
  185.7350  174.7320  136.9470 C   0  0  2  0  0  3  0  0  0  0  0  0
  181.5990  175.7780  136.8530 C   0  0  2  0  0  0  0  0  0  0  0  0
  185.9720  177.0960  136.1470 C   0  0  1  0  0  3  0  0  0  0  0  0
  183.1580  171.3220  136.3360 C   0  0  0  0  0  3  0  0  0  0  0  0
  184.1600  177.4970  134.3940 C   0  0  0  0  0  2  0  0  0  0  0  0
  181.9100  174.6980  137.6830 O   0  0  0  0  0  0  0  0  0  0  0  0
  180.2660  175.5280  136.1100 C   0  0  0  0  0  2  0  0  0  0  0  0
  183.6650  173.6520  135.8580 C   0  0  0  0  0  0  0  0  0  0  0  0
  184.3590  171.1940  137.0240 C   0  0  0  0  0  3  0  0  0  0  0  0
  181.7250  176.4970  139.0910 O   0  0  0  0  0  0  0  0  0  0  0  0
  183.3760  174.9140  135.0990 C   0  0  0  0  0  2  0  0  0  0  0  0
  180.3660  172.9490  136.2300 C   0  0  0  0  0  2  0  0  0  0  0  0
  181.3600  176.9220  137.8160 C   0  0  0  0  0  2  0  0  0  0  0  0
  185.1960  172.2950  137.1740 C   0  0  0  0  0  3  0  0  0  0  0  0
  180.9830  173.7840  134.3470 C   0  0  0  0  0  2  0  0  0  0  0  0
  185.4710  177.9920  135.0130 C   0  0  0  0  0  2  0  0  0  0  0  0
  184.8700  173.5330  136.6050 C   0  0  0  0  0  0  0  0  0  0  0  0
  183.0590  177.3090  135.4170 C   0  0  0  0  0  0  0  0  0  0  0  0
  182.7810  172.5380  135.7570 C   0  0  0  0  0  0  0  0  0  0  0  0
  186.1070  175.6190  135.7560 C   0  0  1  0  0  3  0  0  0  0  0  0
  181.3810  172.5600  135.1650 C   0  0  1  0  0  3  0  0  0  0  0  0
  182.3630  175.2720  138.8770 C   0  0  0  0  0  2  0  0  0  0  0  0
  186.8650  174.3880  137.7000 O   0  0  0  0  0  1  0  0  0  0  0  0
  188.3230  178.0360  136.1740 C   0  0  0  0  0  3  0  0  0  0  0  0
  187.1580  177.6680  136.8660 C   0  0  0  0  0  0  0  0  0  0  0  0
  187.1050  177.8160  138.2570 C   0  0  0  0  0  3  0  0  0  0  0  0
  188.1450  178.4730  140.2980 F   0  0  0  0  0  0  0  0  0  0  0  0
  189.3600  178.6990  138.2590 C   0  0  0  0  0  3  0  0  0  0  0  0
  188.2020  178.3320  138.9520 C   0  0  0  0  0  0  0  0  0  0  0  0
  189.4200  178.5510  136.8710 C   0  0  0  0  0  3  0  0  0  0  0  0
  181.2690  179.0070  135.1890 C   0  0  0  0  0  1  0  0  0  0  0  0
  182.3680  178.4330  135.8820 O   0  0  0  0  0  0  0  0  0  0  0  0
  187.4200  175.2550  135.0610 C   0  0  0  0  0  2  0  0  0  0  0  0
  188.8660  173.0590  135.2050 C   0  0  0  0  0  1  0  0  0  0  0  0
  187.3400  173.5760  134.3670 S   0  0  0  0  0  0  0  0  0  0  0  0
  1  4  1  0  0  0  0
  2 17  1  6  0  0  0
  2  9  1  0  0  0  0
  2 14  1  0  0  0  0
  3 25  1  6  0  0  0
  4  9  1  6  0  0  0
  4  8  1  0  0  0  0
  4 15  1  0  0  0  0
  5 27  1  6  0  0  0
  6 11  1  0  0  0  0
  7 18  1  0  0  0  0
  7 20  1  0  0  0  0
  8 24  1  0  0  0  0
 10 19  2  0  0  0  0
 11 16  2  0  0  0  0
 13 10  1  0  0  0  0
 13  1  1  0  0  0  0
 15 12  1  0  0  0  0
 18  5  1  0  0  0  0
 19  3  1  0  0  0  0
 19 16  1  0  0  0  0
 20  1  2  0  0  0  0
 20 34  1  0  0  0  0
 21 10  1  0  0  0  0
 21  6  2  0  0  0  0
 22 35  1  1  0  0  0
 22  5  1  0  0  0  0
 22  3  1  0  0  0  0
 23 17  1  6  0  0  0
 23 21  1  0  0  0  0
 23 14  1  0  0  0  0
 24 12  1  0  0  0  0
 26 27  2  0  0  0  0
 26 32  1  0  0  0  0
 27 28  1  0  0  0  0
 28 31  2  0  0  0  0
 30 31  1  0  0  0  0
 31 29  1  0  0  0  0
 32 30  2  0  0  0  0
 33 34  1  0  0  0  0
 37 35  1  0  0  0  0
 37 36  1  0  0  0  0
M  END
>  <MODEL>
2

>  <REMARK>
 VINA RESULT:      -3.5      3.297      6.338
  Name = 
  4 active torsions:
  status: ('A' for Active; 'I' for Inactive)
    1  A    between atoms: C_6  and  C_7
    2  A    between atoms: C_14  and  C_31
    3  A    between atoms: C_14  and  S_37
    4  A    between atoms: C_29  and  O_33
                            x       y       z     vdW  Elec       q    Type
                         _______ _______ _______ _____ _____    ______ ____

>  <TORSDO>
F 4

$$$$
=
 OpenBabel10272414513D

 37 42  0  0  1  0  0  0  0  0999 V2000
  182.3060  177.8230  137.9810 C   0  0  0  0  0  0  0  0  0  0  0  0
  179.9850  176.8780  135.7180 C   0  0  2  0  0  3  0  0  0  0  0  0
  185.5300  176.6060  137.9390 C   0  0  2  0  0  3  0  0  0  0  0  0
  181.2650  176.6880  138.0800 C   0  0  2  0  0  0  0  0  0  0  0  0
  185.2510  178.5240  139.5280 C   0  0  1  0  0  3  0  0  0  0  0  0
  183.7040  175.0510  134.3480 C   0  0  0  0  0  3  0  0  0  0  0  0
  183.3560  179.9860  138.6410 C   0  0  0  0  0  2  0  0  0  0  0  0
  181.8130  175.4710  137.6680 O   0  0  0  0  0  0  0  0  0  0  0  0
  179.9970  177.0210  137.2600 C   0  0  0  0  0  2  0  0  0  0  0  0
  183.7040  176.7130  136.1240 C   0  0  0  0  0  0  0  0  0  0  0  0
  184.9210  174.5550  134.8010 C   0  0  0  0  0  3  0  0  0  0  0  0
  181.2910  175.1700  139.8790 O   0  0  0  0  0  0  0  0  0  0  0  0
  183.1420  177.9660  136.7290 C   0  0  0  0  0  2  0  0  0  0  0  0
  180.6330  175.6130  135.1890 C   0  0  0  0  0  2  0  0  0  0  0  0
  180.8160  176.4230  139.5010 C   0  0  0  0  0  2  0  0  0  0  0  0
  185.5140  175.0980  135.9360 C   0  0  0  0  0  3  0  0  0  0  0  0
  181.0190  177.7200  134.9960 C   0  0  0  0  0  2  0  0  0  0  0  0
  184.5490  179.8810  139.5950 C   0  0  0  0  0  2  0  0  0  0  0  0
  184.9240  176.1730  136.6160 C   0  0  0  0  0  0  0  0  0  0  0  0
  182.3420  178.8780  138.8410 C   0  0  0  0  0  0  0  0  0  0  0  0
  183.0690  176.1160  134.9950 C   0  0  0  0  0  0  0  0  0  0  0  0
  185.6810  178.1190  138.1120 C   0  0  1  0  0  3  0  0  0  0  0  0
  181.6810  176.4510  134.4710 C   0  0  1  0  0  3  0  0  0  0  0  0
  182.1640  174.8080  138.8500 C   0  0  0  0  0  2  0  0  0  0  0  0
  186.7230  175.9350  138.2340 O   0  0  0  0  0  1  0  0  0  0  0  0
  187.6740  178.3750  140.2500 C   0  0  0  0  0  3  0  0  0  0  0  0
  186.3090  178.3580  140.5790 C   0  0  0  0  0  0  0  0  0  0  0  0
  185.9220  178.1600  141.9090 C   0  0  0  0  0  3  0  0  0  0  0  0
  186.5070  177.7970  144.1910 F   0  0  0  0  0  0  0  0  0  0  0  0
  188.2460  178.0070  142.5730 C   0  0  0  0  0  3  0  0  0  0  0  0
  186.8880  177.9870  142.9050 C   0  0  0  0  0  0  0  0  0  0  0  0
  188.6390  178.2010  141.2460 C   0  0  0  0  0  3  0  0  0  0  0  0
  180.5040  180.0260  140.0440 C   0  0  0  0  0  1  0  0  0  0  0  0
  181.4430  178.9690  139.9110 O   0  0  0  0  0  0  0  0  0  0  0  0
  187.0250  178.6930  137.6600 C   0  0  0  0  0  2  0  0  0  0  0  0
  189.0410  177.8900  136.1680 C   0  0  0  0  0  1  0  0  0  0  0  0
  187.3080  178.3580  135.8950 S   0  0  0  0  0  0  0  0  0  0  0  0
  1  4  1  0  0  0  0
  1 20  2  0  0  0  0
  2 17  1  6  0  0  0
  2  9  1  0  0  0  0
  3 22  1  0  0  0  0
  3 25  1  6  0  0  0
  4  9  1  6  0  0  0
  4 15  1  0  0  0  0
  5 18  1  0  0  0  0
  5 27  1  1  0  0  0
  6 11  2  0  0  0  0
  6 21  1  0  0  0  0
  7 20  1  0  0  0  0
  7 18  1  0  0  0  0
  8  4  1  0  0  0  0
  8 24  1  0  0  0  0
 10 19  1  0  0  0  0
 10 13  1  0  0  0  0
 11 16  1  0  0  0  0
 13  1  1  0  0  0  0
 14  2  1  0  0  0  0
 15 12  1  0  0  0  0
 16 19  2  0  0  0  0
 19  3  1  0  0  0  0
 20 34  1  0  0  0  0
 21 10  2  0  0  0  0
 22 35  1  1  0  0  0
 22  5  1  0  0  0  0
 23 21  1  0  0  0  0
 23 17  1  1  0  0  0
 23 14  1  0  0  0  0
 24 12  1  0  0  0  0
 26 27  2  0  0  0  0
 26 32  1  0  0  0  0
 27 28  1  0  0  0  0
 28 31  2  0  0  0  0
 30 31  1  0  0  0  0
 31 29  1  0  0  0  0
 32 30  2  0  0  0  0
 34 33  1  0  0  0  0
 37 36  1  0  0  0  0
 37 35  1  0  0  0  0
M  END
>  <MODEL>
3

>  <REMARK>
 VINA RESULT:      -2.6      3.307      6.317
  Name = 
  4 active torsions:
  status: ('A' for Active; 'I' for Inactive)
    1  A    between atoms: C_6  and  C_7
    2  A    between atoms: C_14  and  C_31
    3  A    between atoms: C_14  and  S_37
    4  A    between atoms: C_29  and  O_33
                            x       y       z     vdW  Elec       q    Type
                         _______ _______ _______ _____ _____    ______ ____

>  <TORSDO>
F 4

$$$$
=
 OpenBabel10272414513D

 37 42  0  0  1  0  0  0  0  0999 V2000
  183.1300  176.2000  136.4240 C   0  0  0  0  0  0  0  0  0  0  0  0
  179.9850  175.2490  135.6420 C   0  0  2  0  0  3  0  0  0  0  0  0
  185.5930  173.9350  137.2460 C   0  0  2  0  0  3  0  0  0  0  0  0
  181.9010  176.0720  137.3480 C   0  0  2  0  0  0  0  0  0  0  0  0
  186.4970  176.2460  136.8950 C   0  0  1  0  0  3  0  0  0  0  0  0
  182.2280  171.5250  136.0190 C   0  0  0  0  0  3  0  0  0  0  0  0
  184.9510  177.4320  135.2460 C   0  0  0  0  0  2  0  0  0  0  0  0
  181.8690  174.8190  137.9650 O   0  0  0  0  0  0  0  0  0  0  0  0
  180.5900  176.3320  136.5710 C   0  0  0  0  0  2  0  0  0  0  0  0
  183.3660  173.6730  135.9780 C   0  0  0  0  0  0  0  0  0  0  0  0
  183.3140  170.9530  136.6720 C   0  0  0  0  0  3  0  0  0  0  0  0
  182.1040  176.3210  139.6790 O   0  0  0  0  0  0  0  0  0  0  0  0
  183.4660  175.0790  135.4640 C   0  0  0  0  0  2  0  0  0  0  0  0
  179.9850  173.8450  136.2150 C   0  0  0  0  0  2  0  0  0  0  0  0
  181.9310  177.0480  138.5040 C   0  0  0  0  0  2  0  0  0  0  0  0
  184.4070  171.7380  137.0210 C   0  0  0  0  0  3  0  0  0  0  0  0
  180.8970  174.8000  134.5170 C   0  0  0  0  0  2  0  0  0  0  0  0
  186.3130  177.4310  135.9450 C   0  0  0  0  0  2  0  0  0  0  0  0
  184.4560  173.0990  136.6890 C   0  0  0  0  0  0  0  0  0  0  0  0
  183.7900  177.3740  136.2170 C   0  0  0  0  0  0  0  0  0  0  0  0
  182.2210  172.8800  135.6740 C   0  0  0  0  0  0  0  0  0  0  0  0
  186.2490  174.8820  136.2380 C   0  0  1  0  0  3  0  0  0  0  0  0
  180.9100  173.3890  135.0960 C   0  0  1  0  0  3  0  0  0  0  0  0
  182.3980  175.0270  139.2440 C   0  0  0  0  0  2  0  0  0  0  0  0
  186.5490  173.1660  137.9230 O   0  0  0  0  0  1  0  0  0  0  0  0
  187.8460  177.1820  138.8220 C   0  0  0  0  0  3  0  0  0  0  0  0
  187.7560  176.3350  137.7070 C   0  0  0  0  0  0  0  0  0  0  0  0
  188.8660  175.5710  137.3270 C   0  0  0  0  0  3  0  0  0  0  0  0
  191.1260  174.9070  137.6870 F   0  0  0  0  0  0  0  0  0  0  0  0
  190.1410  176.4920  139.1700 C   0  0  0  0  0  3  0  0  0  0  0  0
  190.0550  175.6480  138.0580 C   0  0  0  0  0  0  0  0  0  0  0  0
  189.0360  177.2590  139.5510 C   0  0  0  0  0  3  0  0  0  0  0  0
  184.0280  178.9970  138.0750 C   0  0  0  0  0  1  0  0  0  0  0  0
  183.4040  178.5440  136.8810 O   0  0  0  0  0  0  0  0  0  0  0  0
  187.4490  174.3020  135.4880 C   0  0  0  0  0  2  0  0  0  0  0  0
  188.1100  171.7760  135.1440 C   0  0  0  0  0  1  0  0  0  0  0  0
  186.9330  172.9400  134.3990 S   0  0  0  0  0  0  0  0  0  0  0  0
  1  4  1  0  0  0  0
  2 17  1  6  0  0  0
  2 14  1  0  0  0  0
  2  9  1  0  0  0  0
  3 25  1  6  0  0  0
  4  9  1  6  0  0  0
  4  8  1  0  0  0  0
  4 15  1  0  0  0  0
  5 27  1  6  0  0  0
  6 11  1  0  0  0  0
  7 18  1  0  0  0  0
  7 20  1  0  0  0  0
  8 24  1  0  0  0  0
 10 19  2  0  0  0  0
 11 16  2  0  0  0  0
 13 10  1  0  0  0  0
 13  1  1  0  0  0  0
 15 12  1  0  0  0  0
 18  5  1  0  0  0  0
 19 16  1  0  0  0  0
 19  3  1  0  0  0  0
 20  1  2  0  0  0  0
 20 34  1  0  0  0  0
 21 10  1  0  0  0  0
 21  6  2  0  0  0  0
 22 35  1  1  0  0  0
 22  5  1  0  0  0  0
 22  3  1  0  0  0  0
 23 17  1  6  0  0  0
 23 21  1  0  0  0  0
 23 14  1  0  0  0  0
 24 12  1  0  0  0  0
 26 32  1  0  0  0  0
 27 26  2  0  0  0  0
 28 27  1  0  0  0  0
 28 31  2  0  0  0  0
 29 31  1  0  0  0  0
 30 32  2  0  0  0  0
 31 30  1  0  0  0  0
 34 33  1  0  0  0  0
 37 36  1  0  0  0  0
 37 35  1  0  0  0  0
M  END
>  <MODEL>
4

>  <REMARK>
 VINA RESULT:      -2.4      3.623      6.690
  Name = 
  4 active torsions:
  status: ('A' for Active; 'I' for Inactive)
    1  A    between atoms: C_6  and  C_7
    2  A    between atoms: C_14  and  C_31
    3  A    between atoms: C_14  and  S_37
    4  A    between atoms: C_29  and  O_33
                            x       y       z     vdW  Elec       q    Type
                         _______ _______ _______ _____ _____    ______ ____

>  <TORSDO>
F 4

$$$$
=
 OpenBabel10272414513D

 37 42  0  0  1  0  0  0  0  0999 V2000
  183.5870  176.4930  136.5560 C   0  0  0  0  0  0  0  0  0  0  0  0
  180.5430  175.5090  135.4730 C   0  0  2  0  0  3  0  0  0  0  0  0
  186.0810  174.2490  137.3430 C   0  0  2  0  0  3  0  0  0  0  0  0
  182.3050  176.2370  137.3760 C   0  0  2  0  0  0  0  0  0  0  0  0
  186.9100  176.6130  137.2640 C   0  0  1  0  0  3  0  0  0  0  0  0
  182.9060  171.8460  135.6730 C   0  0  0  0  0  3  0  0  0  0  0  0
  185.4290  177.8910  135.6230 C   0  0  0  0  0  2  0  0  0  0  0  0
  182.2830  174.9330  137.8750 O   0  0  0  0  0  0  0  0  0  0  0  0
  181.0380  176.5220  136.5360 C   0  0  0  0  0  2  0  0  0  0  0  0
  183.9560  174.0280  135.9040 C   0  0  0  0  0  0  0  0  0  0  0  0
  183.9690  171.2550  136.3460 C   0  0  0  0  0  3  0  0  0  0  0  0
  182.3420  176.2780  139.7290 O   0  0  0  0  0  0  0  0  0  0  0  0
  184.0310  175.4780  135.5250 C   0  0  0  0  0  2  0  0  0  0  0  0
  180.5620  174.0590  135.9180 C   0  0  0  0  0  2  0  0  0  0  0  0
  182.2170  177.1040  138.6150 C   0  0  0  0  0  2  0  0  0  0  0  0
  185.0040  172.0420  136.8400 C   0  0  0  0  0  3  0  0  0  0  0  0
  181.5450  175.1970  134.3800 C   0  0  0  0  0  2  0  0  0  0  0  0
  186.7400  177.8730  136.4130 C   0  0  0  0  0  2  0  0  0  0  0  0
  185.0180  173.4290  136.6350 C   0  0  0  0  0  0  0  0  0  0  0  0
  184.2090  177.7030  136.5020 C   0  0  0  0  0  0  0  0  0  0  0  0
  182.8670  173.2260  135.4500 C   0  0  0  0  0  0  0  0  0  0  0  0
  186.7620  175.3080  136.4730 C   0  0  1  0  0  3  0  0  0  0  0  0
  181.5780  173.7400  134.8300 C   0  0  1  0  0  3  0  0  0  0  0  0
  182.7170  175.0410  139.2010 C   0  0  0  0  0  2  0  0  0  0  0  0
  187.0200  173.4560  138.0140 O   0  0  0  0  0  1  0  0  0  0  0  0
  189.3280  176.0860  137.7970 C   0  0  0  0  0  3  0  0  0  0  0  0
  188.1070  176.6710  138.1670 C   0  0  0  0  0  0  0  0  0  0  0  0
  187.9920  177.3030  139.4100 C   0  0  0  0  0  3  0  0  0  0  0  0
  188.9710  177.9700  141.4780 F   0  0  0  0  0  0  0  0  0  0  0  0
  190.3040  176.7740  139.9030 C   0  0  0  0  0  3  0  0  0  0  0  0
  189.0880  177.3560  140.2760 C   0  0  0  0  0  0  0  0  0  0  0  0
  190.4240  176.1400  138.6640 C   0  0  0  0  0  3  0  0  0  0  0  0
  184.3110  179.2070  138.4690 C   0  0  0  0  0  1  0  0  0  0  0  0
  183.7330  178.7930  137.2390 O   0  0  0  0  0  0  0  0  0  0  0  0
  188.0330  174.8410  135.7600 C   0  0  0  0  0  2  0  0  0  0  0  0
  188.7200  172.4420  134.9190 C   0  0  0  0  0  1  0  0  0  0  0  0
  187.6240  173.7720  134.3460 S   0  0  0  0  0  0  0  0  0  0  0  0
  1  4  1  0  0  0  0
  2 17  1  6  0  0  0
  2 14  1  0  0  0  0
  2  9  1  0  0  0  0
  3 25  1  6  0  0  0
  4  9  1  6  0  0  0
  4  8  1  0  0  0  0
  4 15  1  0  0  0  0
  5 27  1  6  0  0  0
  6 11  1  0  0  0  0
  7 18  1  0  0  0  0
  7 20  1  0  0  0  0
  8 24  1  0  0  0  0
 10 19  2  0  0  0  0
 11 16  2  0  0  0  0
 13 10  1  0  0  0  0
 13  1  1  0  0  0  0
 15 12  1  0  0  0  0
 18  5  1  0  0  0  0
 19 16  1  0  0  0  0
 19  3  1  0  0  0  0
 20  1  2  0  0  0  0
 20 34  1  0  0  0  0
 21  6  2  0  0  0  0
 21 10  1  0  0  0  0
 22 35  1  1  0  0  0
 22  5  1  0  0  0  0
 22  3  1  0  0  0  0
 23 17  1  1  0  0  0
 23 21  1  0  0  0  0
 23 14  1  0  0  0  0
 24 12  1  0  0  0  0
 26 27  2  0  0  0  0
 26 32  1  0  0  0  0
 27 28  1  0  0  0  0
 28 31  2  0  0  0  0
 30 31  1  0  0  0  0
 31 29  1  0  0  0  0
 32 30  2  0  0  0  0
 34 33  1  0  0  0  0
 37 36  1  0  0  0  0
 37 35  1  0  0  0  0
M  END
>  <MODEL>
5

>  <REMARK>
 VINA RESULT:      -2.2      3.558      6.663
  Name = 
  4 active torsions:
  status: ('A' for Active; 'I' for Inactive)
    1  A    between atoms: C_6  and  C_7
    2  A    between atoms: C_14  and  C_31
    3  A    between atoms: C_14  and  S_37
    4  A    between atoms: C_29  and  O_33
                            x       y       z     vdW  Elec       q    Type
                         _______ _______ _______ _____ _____    ______ ____

>  <TORSDO>
F 4

$$$$
