=
 OpenBabel10262423553D

 34 39  0  0  1  0  0  0  0  0999 V2000
  188.4140  178.0970  139.5780 C   0  0  0  0  0  0  0  0  0  0  0  0
  189.1300  177.9070  142.0230 C   0  0  1  0  0  3  0  0  0  0  0  0
  187.9920  178.3160  145.3220 C   0  0  0  0  0  2  0  0  0  0  0  0
  186.7540  178.3660  141.3010 C   0  0  0  0  0  0  0  0  0  0  0  0
  185.0070  178.5290  143.0520 C   0  0  0  0  0  0  0  0  0  0  0  0
  190.6810  177.2130  140.1690 C   0  0  0  0  0  2  0  0  0  0  0  0
  190.5650  177.9610  141.4900 C   0  0  0  0  0  2  0  0  0  0  0  0
  185.1050  178.7120  146.9040 S   0  0  0  0  0  0  0  0  0  0  0  0
  189.0990  176.0290  147.4970 C   0  0  0  0  0  1  0  0  0  0  0  0
  189.1040  177.3890  145.4760 N   0  0  0  0  0  0  0  0  0  0  0  0
  189.6930  177.2440  146.8080 C   0  0  2  0  0  3  0  0  0  0  0  0
  188.0900  178.1510  140.9470 C   0  0  0  0  0  0  0  0  0  0  0  0
  186.7680  177.6100  145.2010 O   0  0  0  0  0  0  0  0  0  0  0  0
  184.6530  178.5090  144.3020 N   0  0  0  0  0  0  0  0  0  0  0  0
  189.8300  177.9110  139.1160 C   0  0  0  0  0  2  0  0  0  0  0  0
  191.7610  176.6500  145.5990 C   0  0  0  0  0  3  0  0  0  0  0  0
  185.7790  178.5430  140.3070 C   0  0  0  0  0  0  0  0  0  0  0  0
  190.9780  176.3920  144.4250 N   0  0  0  0  0  0  0  0  0  0  0  0
  187.4390  178.3010  138.6550 N   0  0  0  0  0  0  0  0  0  0  0  0
  188.8050  176.3190  142.8650 S   0  0  0  0  0  0  0  0  0  0  0  0
  184.0070  178.7510  141.9990 C   0  0  0  0  0  3  0  0  0  0  0  0
  184.3430  178.7590  140.6950 C   0  0  0  0  0  0  0  0  0  0  0  0
  185.5490  178.2630  145.3970 C   0  0  0  0  0  0  0  0  0  0  0  0
  186.3730  178.3740  142.6740 N   0  0  0  0  0  2  0  0  0  0  0  0
  186.1700  178.5140  139.0050 N   0  0  0  0  0  0  0  0  0  0  0  0
  189.7290  176.7410  144.3480 C   0  0  0  0  0  0  0  0  0  0  0  0
  191.1860  177.0850  146.7220 C   0  0  0  0  0  3  0  0  0  0  0  0
  181.9700  180.4940  138.1690 C   0  0  2  0  0  3  0  0  0  0  0  0
  181.5260  179.2840  137.4690 N   0  0  0  0  0  2  0  0  0  0  0  0
  183.2610  178.9880  139.6930 C   0  0  0  0  0  0  0  0  0  0  0  0
  181.2060  178.2400  138.4400 C   0  0  0  0  0  2  0  0  0  0  0  0
  183.0550  180.2060  139.1730 C   0  0  0  0  0  3  0  0  0  0  0  0
  182.4770  177.8080  139.1640 C   0  0  0  0  0  2  0  0  0  0  0  0
  180.7980  181.1940  138.8360 C   0  0  0  0  0  1  0  0  0  0  0  0
  1 12  1  0  0  0  0
  2  7  1  6  0  0  0
  2 20  1  0  0  0  0
  3 10  1  0  0  0  0
  4 24  1  0  0  0  0
  5 14  2  0  0  0  0
  6  7  1  0  0  0  0
 10 11  1  0  0  0  0
 11  9  1  6  0  0  0
 12  4  2  0  0  0  0
 12  2  1  0  0  0  0
 13  3  1  0  0  0  0
 13 23  1  0  0  0  0
 14 23  1  0  0  0  0
 15  1  1  0  0  0  0
 15  6  1  0  0  0  0
 16 27  2  0  0  0  0
 17 22  1  0  0  0  0
 17  4  1  0  0  0  0
 18 16  1  0  0  0  0
 19 25  1  0  0  0  0
 19  1  2  0  0  0  0
 20 26  1  0  0  0  0
 21  5  1  0  0  0  0
 22 21  2  0  0  0  0
 23  8  2  0  0  0  0
 24  5  1  0  0  0  0
 25 17  2  0  0  0  0
 26 18  2  0  0  0  0
 26 10  1  0  0  0  0
 27 11  1  0  0  0  0
 28 34  1  1  0  0  0
 28 32  1  0  0  0  0
 29 28  1  0  0  0  0
 29 31  1  0  0  0  0
 30 22  1  0  0  0  0
 31 33  1  0  0  0  0
 32 30  2  0  0  0  0
 33 30  1  0  0  0  0
M  END
>  <MODEL>
1

>  <REMARK>
 VINA RESULT:      -9.8      0.000      0.000
  Name = 
  1 active torsions:
  status: ('A' for Active; 'I' for Inactive)
    1  A    between atoms: C_12  and  C_28
                            x       y       z     vdW  Elec       q    Type
                         _______ _______ _______ _____ _____    ______ ____

>  <TORSDO>
F 1

$$$$
=
 OpenBabel10262423553D

 34 39  0  0  1  0  0  0  0  0999 V2000
  190.9840  177.1900  141.9160 C   0  0  0  0  0  0  0  0  0  0  0  0
  188.8030  178.0920  142.8930 C   0  0  1  0  0  3  0  0  0  0  0  0
  185.6610  179.3990  142.0160 C   0  0  0  0  0  2  0  0  0  0  0  0
  189.1510  177.6640  140.4290 C   0  0  0  0  0  0  0  0  0  0  0  0
  187.2400  178.0330  138.8940 C   0  0  0  0  0  0  0  0  0  0  0  0
  190.5970  177.1610  144.3900 C   0  0  0  0  0  2  0  0  0  0  0  0
  189.5970  178.2910  144.1880 C   0  0  0  0  0  2  0  0  0  0  0  0
  183.7580  179.6390  139.3120 S   0  0  0  0  0  0  0  0  0  0  0  0
  183.1240  178.4130  143.9590 C   0  0  0  0  0  1  0  0  0  0  0  0
  185.4370  178.8910  143.3630 N   0  0  0  0  0  0  0  0  0  0  0  0
  184.2740  179.3940  144.0960 C   0  0  2  0  0  3  0  0  0  0  0  0
  189.6720  177.6630  141.7270 C   0  0  0  0  0  0  0  0  0  0  0  0
  185.3010  178.4240  141.0500 O   0  0  0  0  0  0  0  0  0  0  0  0
  186.0080  178.3900  138.6860 N   0  0  0  0  0  0  0  0  0  0  0  0
  191.6300  177.1940  143.2700 C   0  0  0  0  0  2  0  0  0  0  0  0
  185.6070  178.9150  146.1170 C   0  0  0  0  0  3  0  0  0  0  0  0
  189.9350  177.2210  139.3530 C   0  0  0  0  0  0  0  0  0  0  0  0
  186.4530  178.0620  145.3350 N   0  0  0  0  0  0  0  0  0  0  0  0
  191.7120  176.7970  140.8380 N   0  0  0  0  0  0  0  0  0  0  0  0
  187.4430  176.8980  143.1380 S   0  0  0  0  0  0  0  0  0  0  0  0
  188.0880  177.6030  137.7740 C   0  0  0  0  0  3  0  0  0  0  0  0
  189.3630  177.2110  137.9620 C   0  0  0  0  0  0  0  0  0  0  0  0
  185.0930  178.7880  139.7180 C   0  0  0  0  0  0  0  0  0  0  0  0
  187.8090  178.0850  140.2000 N   0  0  0  0  0  2  0  0  0  0  0  0
  191.2070  176.8110  139.6040 N   0  0  0  0  0  0  0  0  0  0  0  0
  186.3920  178.0460  144.0370 C   0  0  0  0  0  0  0  0  0  0  0  0
  184.5960  179.5800  145.5530 C   0  0  0  0  0  3  0  0  0  0  0  0
  191.9930  175.4620  135.7160 C   0  0  2  0  0  3  0  0  0  0  0  0
  191.3040  175.6570  134.4360 N   0  0  0  0  0  2  0  0  0  0  0  0
  190.1500  176.7870  136.7680 C   0  0  0  0  0  0  0  0  0  0  0  0
  190.8060  177.0280  134.3460 C   0  0  0  0  0  2  0  0  0  0  0  0
  191.1600  175.9140  136.8860 C   0  0  0  0  0  3  0  0  0  0  0  0
  189.7190  177.2470  135.3930 C   0  0  0  0  0  2  0  0  0  0  0  0
  193.3400  176.1640  135.7180 C   0  0  0  0  0  1  0  0  0  0  0  0
  1 15  1  0  0  0  0
  2 20  1  0  0  0  0
  2  7  1  1  0  0  0
  3 10  1  0  0  0  0
  4 12  2  0  0  0  0
  5 24  1  0  0  0  0
  7  6  1  0  0  0  0
  8 23  2  0  0  0  0
 10 26  1  0  0  0  0
 10 11  1  0  0  0  0
 11  9  1  1  0  0  0
 11 27  1  0  0  0  0
 12  1  1  0  0  0  0
 12  2  1  0  0  0  0
 13  3  1  0  0  0  0
 14  5  2  0  0  0  0
 14 23  1  0  0  0  0
 15  6  1  0  0  0  0
 17 25  2  0  0  0  0
 17  4  1  0  0  0  0
 18 16  1  0  0  0  0
 19  1  2  0  0  0  0
 20 26  1  0  0  0  0
 21 22  2  0  0  0  0
 21  5  1  0  0  0  0
 22 17  1  0  0  0  0
 23 13  1  0  0  0  0
 24  4  1  0  0  0  0
 25 19  1  0  0  0  0
 26 18  2  0  0  0  0
 27 16  2  0  0  0  0
 28 34  1  6  0  0  0
 28 32  1  0  0  0  0
 29 28  1  0  0  0  0
 30 32  2  0  0  0  0
 30 22  1  0  0  0  0
 31 29  1  0  0  0  0
 31 33  1  0  0  0  0
 33 30  1  0  0  0  0
M  END
>  <MODEL>
2

>  <REMARK>
 VINA RESULT:      -8.6      2.934      6.484
  Name = 
  1 active torsions:
  status: ('A' for Active; 'I' for Inactive)
    1  A    between atoms: C_12  and  C_28
                            x       y       z     vdW  Elec       q    Type
                         _______ _______ _______ _____ _____    ______ ____

>  <TORSDO>
F 1

$$$$
=
 OpenBabel10262423553D

 34 39  0  0  1  0  0  0  0  0999 V2000
  184.0890  178.5690  144.1040 C   0  0  0  0  0  0  0  0  0  0  0  0
  183.2180  178.8200  141.7160 C   0  0  1  0  0  3  0  0  0  0  0  0
  184.2450  179.1420  138.3710 C   0  0  0  0  0  2  0  0  0  0  0  0
  185.6530  178.4600  142.2770 C   0  0  0  0  0  0  0  0  0  0  0  0
  187.2650  178.2280  140.4080 C   0  0  0  0  0  0  0  0  0  0  0  0
  181.6300  178.4810  143.6380 C   0  0  0  0  0  2  0  0  0  0  0  0
  181.9030  179.2680  142.3630 C   0  0  0  0  0  2  0  0  0  0  0  0
  187.0190  178.7640  136.5960 S   0  0  0  0  0  0  0  0  0  0  0  0
  182.3600  177.5050  136.1460 C   0  0  0  0  0  1  0  0  0  0  0  0
  182.8910  178.6200  138.2460 N   0  0  0  0  0  0  0  0  0  0  0  0
  182.2150  178.7790  136.9570 C   0  0  2  0  0  3  0  0  0  0  0  0
  184.3390  178.6380  142.7200 C   0  0  0  0  0  0  0  0  0  0  0  0
  185.1910  178.0850  138.3490 O   0  0  0  0  0  0  0  0  0  0  0  0
  187.5260  178.2080  139.1350 N   0  0  0  0  0  0  0  0  0  0  0  0
  182.7140  178.7880  144.6640 C   0  0  0  0  0  2  0  0  0  0  0  0
  180.1340  178.7500  138.2840 C   0  0  0  0  0  3  0  0  0  0  0  0
  186.6870  178.2410  143.2000 C   0  0  0  0  0  0  0  0  0  0  0  0
  180.8590  178.1620  139.3740 N   0  0  0  0  0  0  0  0  0  0  0  0
  185.1280  178.3820  144.9590 N   0  0  0  0  0  0  0  0  0  0  0  0
  182.9820  177.2880  140.7490 S   0  0  0  0  0  0  0  0  0  0  0  0
  188.3400  178.0390  141.3910 C   0  0  0  0  0  3  0  0  0  0  0  0
  188.0950  178.0370  142.7150 C   0  0  0  0  0  0  0  0  0  0  0  0
  186.5400  178.3450  138.1010 C   0  0  0  0  0  0  0  0  0  0  0  0
  185.9420  178.4690  140.8820 N   0  0  0  0  0  2  0  0  0  0  0  0
  186.3790  178.2220  144.5240 N   0  0  0  0  0  0  0  0  0  0  0  0
  182.1570  178.1020  139.3750 C   0  0  0  0  0  0  0  0  0  0  0  0
  180.7550  179.0810  137.1500 C   0  0  0  0  0  3  0  0  0  0  0  0
  190.3210  176.6770  145.5820 C   0  0  2  0  0  3  0  0  0  0  0  0
  191.6070  177.1590  145.0650 N   0  0  0  0  0  2  0  0  0  0  0  0
  189.2480  177.8340  143.6410 C   0  0  0  0  0  0  0  0  0  0  0  0
  191.4680  178.5390  144.6040 C   0  0  0  0  0  2  0  0  0  0  0  0
  189.1930  176.9130  144.6130 C   0  0  0  0  0  3  0  0  0  0  0  0
  190.5380  178.5840  143.3960 C   0  0  0  0  0  2  0  0  0  0  0  0
  190.0090  177.3060  146.9290 C   0  0  0  0  0  1  0  0  0  0  0  0
  1 15  1  0  0  0  0
  1 19  1  0  0  0  0
  2  7  1  1  0  0  0
  2 12  1  0  0  0  0
  4 12  1  0  0  0  0
  4 17  2  0  0  0  0
  5 24  1  0  0  0  0
  5 21  1  0  0  0  0
  6 15  1  0  0  0  0
  7  6  1  0  0  0  0
  8 23  2  0  0  0  0
 10  3  1  0  0  0  0
 10 26  1  0  0  0  0
 11  9  1  6  0  0  0
 11 27  1  0  0  0  0
 11 10  1  0  0  0  0
 12  1  2  0  0  0  0
 13  3  1  0  0  0  0
 14  5  2  0  0  0  0
 16 18  1  0  0  0  0
 17 25  1  0  0  0  0
 18 26  2  0  0  0  0
 20  2  1  0  0  0  0
 21 22  2  0  0  0  0
 22 17  1  0  0  0  0
 22 30  1  0  0  0  0
 23 13  1  0  0  0  0
 23 14  1  0  0  0  0
 24  4  1  0  0  0  0
 25 19  2  0  0  0  0
 26 20  1  0  0  0  0
 27 16  2  0  0  0  0
 28 34  1  1  0  0  0
 29 28  1  0  0  0  0
 30 32  2  0  0  0  0
 31 29  1  0  0  0  0
 32 28  1  0  0  0  0
 33 30  1  0  0  0  0
 33 31  1  0  0  0  0
M  END
>  <MODEL>
3

>  <REMARK>
 VINA RESULT:      -8.6      2.554      8.916
  Name = 
  1 active torsions:
  status: ('A' for Active; 'I' for Inactive)
    1  A    between atoms: C_12  and  C_28
                            x       y       z     vdW  Elec       q    Type
                         _______ _______ _______ _____ _____    ______ ____

>  <TORSDO>
F 1

$$$$
=
 OpenBabel10262423553D

 34 39  0  0  1  0  0  0  0  0999 V2000
  190.2590  177.6630  140.9100 C   0  0  0  0  0  0  0  0  0  0  0  0
  189.0570  178.1230  143.1160 C   0  0  1  0  0  3  0  0  0  0  0  0
  185.9820  179.1380  144.4800 C   0  0  0  0  0  2  0  0  0  0  0  0
  187.8960  178.1200  140.8740 C   0  0  0  0  0  0  0  0  0  0  0  0
  185.4420  178.4700  140.8230 C   0  0  0  0  0  0  0  0  0  0  0  0
  191.4020  177.2130  143.0920 C   0  0  0  0  0  2  0  0  0  0  0  0
  190.4580  178.2240  143.7280 C   0  0  0  0  0  2  0  0  0  0  0  0
  182.8490  179.5390  143.4720 S   0  0  0  0  0  0  0  0  0  0  0  0
  185.0860  177.5560  147.2870 C   0  0  0  0  0  1  0  0  0  0  0  0
  186.5990  178.4080  145.5790 N   0  0  0  0  0  0  0  0  0  0  0  0
  186.0830  178.6420  146.9290 C   0  0  2  0  0  3  0  0  0  0  0  0
  189.0800  177.9890  141.6060 C   0  0  0  0  0  0  0  0  0  0  0  0
  185.1370  178.2820  143.7270 O   0  0  0  0  0  0  0  0  0  0  0  0
  184.3190  178.6940  141.4360 N   0  0  0  0  0  0  0  0  0  0  0  0
  191.5780  177.5460  141.6150 C   0  0  0  0  0  2  0  0  0  0  0  0
  188.3560  178.0380  147.6750 C   0  0  0  0  0  3  0  0  0  0  0  0
  187.9030  177.9470  139.4810 C   0  0  0  0  0  0  0  0  0  0  0  0
  188.5930  177.4270  146.4000 N   0  0  0  0  0  0  0  0  0  0  0  0
  190.2200  177.5340  139.5580 N   0  0  0  0  0  0  0  0  0  0  0  0
  188.1180  176.7430  143.8570 S   0  0  0  0  0  0  0  0  0  0  0  0
  185.4760  178.3250  139.3620 C   0  0  0  0  0  3  0  0  0  0  0  0
  186.6230  178.0740  138.7030 C   0  0  0  0  0  0  0  0  0  0  0  0
  184.1790  178.8120  142.8600 C   0  0  0  0  0  0  0  0  0  0  0  0
  186.6700  178.3960  141.5450 N   0  0  0  0  0  2  0  0  0  0  0  0
  189.0850  177.6680  138.8700 N   0  0  0  0  0  0  0  0  0  0  0  0
  187.7800  177.5990  145.4000 C   0  0  0  0  0  0  0  0  0  0  0  0
  187.1970  178.6470  147.9380 C   0  0  0  0  0  3  0  0  0  0  0  0
  185.5350  176.9900  135.1440 C   0  0  2  0  0  3  0  0  0  0  0  0
  186.1900  178.0780  134.4090 N   0  0  0  0  0  2  0  0  0  0  0  0
  186.5640  177.9390  137.2180 C   0  0  0  0  0  0  0  0  0  0  0  0
  187.5450  178.2740  134.9200 C   0  0  0  0  0  2  0  0  0  0  0  0
  185.6320  177.1710  136.6360 C   0  0  0  0  0  3  0  0  0  0  0  0
  187.4810  178.7790  136.3580 C   0  0  0  0  0  2  0  0  0  0  0  0
  186.1000  175.6410  134.7330 C   0  0  0  0  0  1  0  0  0  0  0  0
  1 12  1  0  0  0  0
  1 15  1  0  0  0  0
  2  7  1  1  0  0  0
  2 20  1  0  0  0  0
  3 10  1  0  0  0  0
  4 24  1  0  0  0  0
  4 12  2  0  0  0  0
  5 14  2  0  0  0  0
  5 24  1  0  0  0  0
  6  7  1  0  0  0  0
 10 11  1  0  0  0  0
 11  9  1  1  0  0  0
 11 27  1  0  0  0  0
 12  2  1  0  0  0  0
 13  3  1  0  0  0  0
 14 23  1  0  0  0  0
 15  6  1  0  0  0  0
 16 27  2  0  0  0  0
 17  4  1  0  0  0  0
 18 16  1  0  0  0  0
 19  1  2  0  0  0  0
 20 26  1  0  0  0  0
 21  5  1  0  0  0  0
 22 21  2  0  0  0  0
 22 17  1  0  0  0  0
 23  8  2  0  0  0  0
 23 13  1  0  0  0  0
 25 17  2  0  0  0  0
 25 19  1  0  0  0  0
 26 10  1  0  0  0  0
 26 18  2  0  0  0  0
 28 34  1  1  0  0  0
 28 32  1  0  0  0  0
 29 31  1  0  0  0  0
 29 28  1  0  0  0  0
 30 22  1  0  0  0  0
 31 33  1  0  0  0  0
 32 30  2  0  0  0  0
 33 30  1  0  0  0  0
M  END
>  <MODEL>
4

>  <REMARK>
 VINA RESULT:      -8.5      2.579      3.810
  Name = 
  1 active torsions:
  status: ('A' for Active; 'I' for Inactive)
    1  A    between atoms: C_12  and  C_28
                            x       y       z     vdW  Elec       q    Type
                         _______ _______ _______ _____ _____    ______ ____

>  <TORSDO>
F 1

$$$$
=
 OpenBabel10262423553D

 34 39  0  0  1  0  0  0  0  0999 V2000
  183.9650  178.5990  144.3430 C   0  0  0  0  0  0  0  0  0  0  0  0
  183.0960  178.9530  141.9670 C   0  0  1  0  0  3  0  0  0  0  0  0
  184.1220  179.2930  138.6230 C   0  0  0  0  0  2  0  0  0  0  0  0
  185.5100  178.4450  142.5040 C   0  0  0  0  0  0  0  0  0  0  0  0
  187.0960  178.1650  140.6200 C   0  0  0  0  0  0  0  0  0  0  0  0
  181.5020  178.6600  143.8910 C   0  0  0  0  0  2  0  0  0  0  0  0
  181.8120  179.4590  142.6320 C   0  0  0  0  0  2  0  0  0  0  0  0
  186.8610  178.8000  136.8220 S   0  0  0  0  0  0  0  0  0  0  0  0
  182.1360  177.8140  136.3750 C   0  0  0  0  0  1  0  0  0  0  0  0
  182.7400  178.8500  138.4950 N   0  0  0  0  0  0  0  0  0  0  0  0
  182.0670  179.0760  137.2150 C   0  0  2  0  0  3  0  0  0  0  0  0
  184.2100  178.6860  142.9600 C   0  0  0  0  0  0  0  0  0  0  0  0
  185.0070  178.1850  138.5720 O   0  0  0  0  0  0  0  0  0  0  0  0
  187.3500  178.1590  139.3450 N   0  0  0  0  0  0  0  0  0  0  0  0
  182.6070  178.8830  144.9160 C   0  0  0  0  0  2  0  0  0  0  0  0
  179.9960  179.1330  138.5550 C   0  0  0  0  0  3  0  0  0  0  0  0
  186.5350  178.1480  143.4150 C   0  0  0  0  0  0  0  0  0  0  0  0
  180.6920  178.4820  139.6260 N   0  0  0  0  0  0  0  0  0  0  0  0
  184.9950  178.3350  145.1870 N   0  0  0  0  0  0  0  0  0  0  0  0
  182.7690  177.4600  140.9680 S   0  0  0  0  0  0  0  0  0  0  0  0
  188.1640  177.8930  141.5910 C   0  0  0  0  0  3  0  0  0  0  0  0
  187.9270  177.8750  142.9170 C   0  0  0  0  0  0  0  0  0  0  0  0
  186.3670  178.3740  138.3210 C   0  0  0  0  0  0  0  0  0  0  0  0
  185.7920  178.4690  141.1070 N   0  0  0  0  0  2  0  0  0  0  0  0
  186.2330  178.1160  144.7410 N   0  0  0  0  0  0  0  0  0  0  0  0
  181.9850  178.3490  139.6170 C   0  0  0  0  0  0  0  0  0  0  0  0
  180.6280  179.4550  137.4240 C   0  0  0  0  0  3  0  0  0  0  0  0
  191.4640  176.9680  144.2180 C   0  0  2  0  0  3  0  0  0  0  0  0
  191.3090  177.5110  145.5720 N   0  0  0  0  0  2  0  0  0  0  0  0
  189.0710  177.5870  143.8300 C   0  0  0  0  0  0  0  0  0  0  0  0
  190.0140  177.1130  146.1190 C   0  0  0  0  0  2  0  0  0  0  0  0
  190.2790  177.2790  143.3410 C   0  0  0  0  0  3  0  0  0  0  0  0
  188.8960  177.7750  145.3210 C   0  0  0  0  0  2  0  0  0  0  0  0
  191.7170  175.4710  144.2600 C   0  0  0  0  0  1  0  0  0  0  0  0
  1 15  1  0  0  0  0
  1 19  1  0  0  0  0
  2  7  1  1  0  0  0
  2 12  1  0  0  0  0
  4 12  1  0  0  0  0
  4 17  2  0  0  0  0
  5 24  1  0  0  0  0
  5 21  1  0  0  0  0
  6 15  1  0  0  0  0
  7  6  1  0  0  0  0
  8 23  2  0  0  0  0
 10  3  1  0  0  0  0
 10 26  1  0  0  0  0
 11  9  1  6  0  0  0
 11 27  1  0  0  0  0
 11 10  1  0  0  0  0
 12  1  2  0  0  0  0
 13  3  1  0  0  0  0
 14  5  2  0  0  0  0
 16 18  1  0  0  0  0
 17 25  1  0  0  0  0
 20  2  1  0  0  0  0
 21 22  2  0  0  0  0
 22 17  1  0  0  0  0
 22 30  1  0  0  0  0
 23 13  1  0  0  0  0
 23 14  1  0  0  0  0
 24  4  1  0  0  0  0
 25 19  2  0  0  0  0
 26 18  2  0  0  0  0
 26 20  1  0  0  0  0
 27 16  2  0  0  0  0
 28 34  1  1  0  0  0
 28 29  1  0  0  0  0
 29 31  1  0  0  0  0
 30 33  1  0  0  0  0
 32 30  2  0  0  0  0
 32 28  1  0  0  0  0
 33 31  1  0  0  0  0
M  END
>  <MODEL>
5

>  <REMARK>
 VINA RESULT:      -8.0      2.542      8.941
  Name = 
  1 active torsions:
  status: ('A' for Active; 'I' for Inactive)
    1  A    between atoms: C_12  and  C_28
                            x       y       z     vdW  Elec       q    Type
                         _______ _______ _______ _____ _____    ______ ____

>  <TORSDO>
F 1

$$$$
=
 OpenBabel10262423553D

 34 39  0  0  1  0  0  0  0  0999 V2000
  184.0850  178.6020  143.8060 C   0  0  0  0  0  0  0  0  0  0  0  0
  186.5000  177.7880  143.6320 C   0  0  1  0  0  3  0  0  0  0  0  0
  188.9820  176.8290  141.3360 C   0  0  0  0  0  2  0  0  0  0  0  0
  185.0990  178.4240  141.6300 C   0  0  0  0  0  0  0  0  0  0  0  0
  186.1580  178.3620  139.3900 C   0  0  0  0  0  0  0  0  0  0  0  0
  185.5110  178.4200  145.8560 C   0  0  0  0  0  2  0  0  0  0  0  0
  186.3570  177.4000  145.1070 C   0  0  0  0  0  2  0  0  0  0  0  0
  189.5210  177.0090  138.0700 S   0  0  0  0  0  0  0  0  0  0  0  0
  192.0820  177.8220  142.1040 C   0  0  0  0  0  1  0  0  0  0  0  0
  189.7560  177.2200  142.5060 N   0  0  0  0  0  0  0  0  0  0  0  0
  191.1370  176.7430  142.6010 C   0  0  2  0  0  3  0  0  0  0  0  0
  185.1970  178.2560  143.0150 C   0  0  0  0  0  0  0  0  0  0  0  0
  188.8550  177.9200  140.4370 O   0  0  0  0  0  0  0  0  0  0  0  0
  187.1870  178.1280  138.6300 N   0  0  0  0  0  0  0  0  0  0  0  0
  184.0950  178.4130  145.2950 C   0  0  0  0  0  2  0  0  0  0  0  0
  190.8060  176.9130  145.0400 C   0  0  0  0  0  3  0  0  0  0  0  0
  183.9110  178.9050  141.0580 C   0  0  0  0  0  0  0  0  0  0  0  0
  189.6770  177.7680  144.8090 N   0  0  0  0  0  0  0  0  0  0  0  0
  182.9490  179.0380  143.2030 N   0  0  0  0  0  0  0  0  0  0  0  0
  187.7940  179.0580  143.4120 S   0  0  0  0  0  0  0  0  0  0  0  0
  184.8950  178.8300  138.8060 C   0  0  0  0  0  3  0  0  0  0  0  0
  183.8190  179.0970  139.5700 C   0  0  0  0  0  0  0  0  0  0  0  0
  188.4720  177.7060  139.1110 C   0  0  0  0  0  0  0  0  0  0  0  0
  186.2180  178.1380  140.7960 N   0  0  0  0  0  2  0  0  0  0  0  0
  182.8650  179.1860  141.8800 N   0  0  0  0  0  0  0  0  0  0  0  0
  189.1660  177.9150  143.6240 C   0  0  0  0  0  0  0  0  0  0  0  0
  191.4880  176.3900  144.0190 C   0  0  0  0  0  3  0  0  0  0  0  0
  181.0350  181.4080  138.1770 C   0  0  2  0  0  3  0  0  0  0  0  0
  180.4760  180.4610  137.2060 N   0  0  0  0  0  2  0  0  0  0  0  0
  182.5770  179.5710  138.8920 C   0  0  0  0  0  0  0  0  0  0  0  0
  180.3340  179.1450  137.8240 C   0  0  0  0  0  2  0  0  0  0  0  0
  182.2800  180.8770  138.8380 C   0  0  0  0  0  3  0  0  0  0  0  0
  181.7130  178.5790  138.1460 C   0  0  0  0  0  2  0  0  0  0  0  0
  179.9990  181.7880  139.2210 C   0  0  0  0  0  1  0  0  0  0  0  0
  1 15  1  0  0  0  0
  2  7  1  1  0  0  0
  3 10  1  0  0  0  0
  4 12  1  0  0  0  0
  5 24  1  0  0  0  0
  7  6  1  0  0  0  0
  8 23  2  0  0  0  0
 10 11  1  0  0  0  0
 10 26  1  0  0  0  0
 11  9  1  1  0  0  0
 11 27  1  0  0  0  0
 12  2  1  0  0  0  0
 12  1  2  0  0  0  0
 13  3  1  0  0  0  0
 14 23  1  0  0  0  0
 14  5  2  0  0  0  0
 15  6  1  0  0  0  0
 17  4  2  0  0  0  0
 17 25  1  0  0  0  0
 18 16  1  0  0  0  0
 19  1  1  0  0  0  0
 20 26  1  0  0  0  0
 20  2  1  0  0  0  0
 21  5  1  0  0  0  0
 21 22  2  0  0  0  0
 22 17  1  0  0  0  0
 23 13  1  0  0  0  0
 24  4  1  0  0  0  0
 25 19  2  0  0  0  0
 26 18  2  0  0  0  0
 27 16  2  0  0  0  0
 28 32  1  0  0  0  0
 28 34  1  1  0  0  0
 29 31  1  0  0  0  0
 29 28  1  0  0  0  0
 30 22  1  0  0  0  0
 31 33  1  0  0  0  0
 32 30  2  0  0  0  0
 33 30  1  0  0  0  0
M  END
>  <MODEL>
6

>  <REMARK>
 VINA RESULT:      -7.7      1.885      4.411
  Name = 
  1 active torsions:
  status: ('A' for Active; 'I' for Inactive)
    1  A    between atoms: C_12  and  C_28
                            x       y       z     vdW  Elec       q    Type
                         _______ _______ _______ _____ _____    ______ ____

>  <TORSDO>
F 1

$$$$
=
 OpenBabel10262423553D

 34 39  0  0  1  0  0  0  0  0999 V2000
  185.0140  178.7200  141.2430 C   0  0  0  0  0  0  0  0  0  0  0  0
  186.3580  178.4420  139.0890 C   0  0  1  0  0  3  0  0  0  0  0  0
  189.6010  177.8860  137.8540 C   0  0  0  0  0  2  0  0  0  0  0  0
  187.3300  178.0790  141.3910 C   0  0  0  0  0  0  0  0  0  0  0  0
  189.6780  177.3050  141.5650 C   0  0  0  0  0  0  0  0  0  0  0  0
  183.8540  178.6730  139.0240 C   0  0  0  0  0  2  0  0  0  0  0  0
  185.1690  179.1120  138.3940 C   0  0  0  0  0  2  0  0  0  0  0  0
  192.5520  176.9220  139.0190 S   0  0  0  0  0  0  0  0  0  0  0  0
  189.7760  175.8800  135.1850 C   0  0  0  0  0  1  0  0  0  0  0  0
  188.7550  177.4330  136.7590 N   0  0  0  0  0  0  0  0  0  0  0  0
  189.3600  177.3180  135.4320 C   0  0  2  0  0  3  0  0  0  0  0  0
  186.2340  178.4380  140.6000 C   0  0  0  0  0  0  0  0  0  0  0  0
  189.9520  176.7990  138.6960 O   0  0  0  0  0  0  0  0  0  0  0  0
  190.8010  176.9640  141.0070 N   0  0  0  0  0  0  0  0  0  0  0  0
  183.8030  179.1520  140.4700 C   0  0  0  0  0  2  0  0  0  0  0  0
  187.0800  177.7370  134.5870 C   0  0  0  0  0  3  0  0  0  0  0  0
  187.2060  178.0260  142.7880 C   0  0  0  0  0  0  0  0  0  0  0  0
  186.5580  177.3850  135.8760 N   0  0  0  0  0  0  0  0  0  0  0  0
  184.9520  178.6810  142.6000 N   0  0  0  0  0  0  0  0  0  0  0  0
  186.6020  176.7400  138.4730 S   0  0  0  0  0  0  0  0  0  0  0  0
  189.5410  177.2930  143.0270 C   0  0  0  0  0  3  0  0  0  0  0  0
  188.3850  177.6250  143.6310 C   0  0  0  0  0  0  0  0  0  0  0  0
  191.0200  176.9080  139.5890 C   0  0  0  0  0  0  0  0  0  0  0  0
  188.5690  177.7340  140.7790 N   0  0  0  0  0  2  0  0  0  0  0  0
  186.0070  178.3450  143.3440 N   0  0  0  0  0  0  0  0  0  0  0  0
  187.3320  177.2470  136.9100 C   0  0  0  0  0  0  0  0  0  0  0  0
  188.3950  177.7470  134.3610 C   0  0  0  0  0  3  0  0  0  0  0  0
  187.0600  177.6510  147.2740 C   0  0  2  0  0  3  0  0  0  0  0  0
  188.2290  177.0250  147.9020 N   0  0  0  0  0  2  0  0  0  0  0  0
  188.3340  177.5810  145.1220 C   0  0  0  0  0  0  0  0  0  0  0  0
  189.4540  177.6290  147.3800 C   0  0  0  0  0  2  0  0  0  0  0  0
  187.1660  177.6770  145.7720 C   0  0  0  0  0  3  0  0  0  0  0  0
  189.5990  177.2930  145.9000 C   0  0  0  0  0  2  0  0  0  0  0  0
  186.8390  179.0520  147.8180 C   0  0  0  0  0  1  0  0  0  0  0  0
  1 19  1  0  0  0  0
  2  7  1  6  0  0  0
  2 12  1  0  0  0  0
  3 13  1  0  0  0  0
  4 17  2  0  0  0  0
  5 21  1  0  0  0  0
  6 15  1  0  0  0  0
  7  6  1  0  0  0  0
  8 23  2  0  0  0  0
 10 26  1  0  0  0  0
 10  3  1  0  0  0  0
 11  9  1  6  0  0  0
 11 10  1  0  0  0  0
 12  1  2  0  0  0  0
 12  4  1  0  0  0  0
 13 23  1  0  0  0  0
 14  5  2  0  0  0  0
 15  1  1  0  0  0  0
 16 18  1  0  0  0  0
 17 25  1  0  0  0  0
 17 22  1  0  0  0  0
 18 26  2  0  0  0  0
 19 25  2  0  0  0  0
 20  2  1  0  0  0  0
 21 22  2  0  0  0  0
 22 30  1  0  0  0  0
 23 14  1  0  0  0  0
 24  4  1  0  0  0  0
 24  5  1  0  0  0  0
 26 20  1  0  0  0  0
 27 16  2  0  0  0  0
 27 11  1  0  0  0  0
 28 34  1  1  0  0  0
 28 29  1  0  0  0  0
 30 32  2  0  0  0  0
 30 33  1  0  0  0  0
 31 29  1  0  0  0  0
 32 28  1  0  0  0  0
 33 31  1  0  0  0  0
M  END
>  <MODEL>
7

>  <REMARK>
 VINA RESULT:      -7.5      2.943      8.164
  Name = 
  1 active torsions:
  status: ('A' for Active; 'I' for Inactive)
    1  A    between atoms: C_12  and  C_28
                            x       y       z     vdW  Elec       q    Type
                         _______ _______ _______ _____ _____    ______ ____

>  <TORSDO>
F 1

$$$$
=
 OpenBabel10262423553D

 34 39  0  0  1  0  0  0  0  0999 V2000
  182.7740  178.7900  141.6010 C   0  0  0  0  0  0  0  0  0  0  0  0
  183.8150  178.5070  139.2860 C   0  0  1  0  0  3  0  0  0  0  0  0
  186.8860  178.2030  137.6050 C   0  0  0  0  0  2  0  0  0  0  0  0
  185.1440  178.4010  141.4300 C   0  0  0  0  0  0  0  0  0  0  0  0
  187.5630  177.8840  141.2850 C   0  0  0  0  0  0  0  0  0  0  0  0
  181.3180  178.4760  139.5880 C   0  0  0  0  0  2  0  0  0  0  0  0
  182.4710  179.0040  138.7440 C   0  0  0  0  0  2  0  0  0  0  0  0
  190.0620  177.6260  138.3580 S   0  0  0  0  0  0  0  0  0  0  0  0
  186.8940  176.0500  135.0460 C   0  0  0  0  0  1  0  0  0  0  0  0
  185.9460  177.5930  136.6750 N   0  0  0  0  0  0  0  0  0  0  0  0
  186.3610  177.4520  135.2780 C   0  0  2  0  0  3  0  0  0  0  0  0
  183.9120  178.5920  140.7960 C   0  0  0  0  0  0  0  0  0  0  0  0
  187.4730  177.2160  138.4380 O   0  0  0  0  0  0  0  0  0  0  0  0
  188.6250  177.6220  140.5820 N   0  0  0  0  0  0  0  0  0  0  0  0
  181.4230  179.0430  140.9980 C   0  0  0  0  0  2  0  0  0  0  0  0
  183.9500  177.5780  134.7680 C   0  0  0  0  0  3  0  0  0  0  0  0
  185.2300  178.4290  142.8300 C   0  0  0  0  0  0  0  0  0  0  0  0
  183.6630  177.2620  136.1370 N   0  0  0  0  0  0  0  0  0  0  0  0
  182.9140  178.8360  142.9510 N   0  0  0  0  0  0  0  0  0  0  0  0
  184.1540  176.8010  138.7270 S   0  0  0  0  0  0  0  0  0  0  0  0
  187.6420  177.9560  142.7500 C   0  0  0  0  0  3  0  0  0  0  0  0
  186.5550  178.2080  143.5050 C   0  0  0  0  0  0  0  0  0  0  0  0
  188.6410  177.4930  139.1530 C   0  0  0  0  0  0  0  0  0  0  0  0
  186.3120  178.1440  140.6550 N   0  0  0  0  0  2  0  0  0  0  0  0
  184.0960  178.6610  143.5440 N   0  0  0  0  0  0  0  0  0  0  0  0
  184.5890  177.2740  137.0490 C   0  0  0  0  0  0  0  0  0  0  0  0
  185.2100  177.7070  134.3460 C   0  0  0  0  0  3  0  0  0  0  0  0
  188.1420  178.0380  147.0370 C   0  0  2  0  0  3  0  0  0  0  0  0
  187.1190  178.8230  147.7390 N   0  0  0  0  0  2  0  0  0  0  0  0
  186.7260  178.2590  144.9860 C   0  0  0  0  0  0  0  0  0  0  0  0
  185.7880  178.3850  147.3230 C   0  0  0  0  0  2  0  0  0  0  0  0
  187.9170  178.0120  145.5480 C   0  0  0  0  0  3  0  0  0  0  0  0
  185.5750  178.7240  145.8510 C   0  0  0  0  0  2  0  0  0  0  0  0
  188.2140  176.6260  147.5910 C   0  0  0  0  0  1  0  0  0  0  0  0
  1 19  1  0  0  0  0
  2  7  1  1  0  0  0
  2 12  1  0  0  0  0
  3 13  1  0  0  0  0
  4 17  2  0  0  0  0
  5 21  1  0  0  0  0
  6 15  1  0  0  0  0
  7  6  1  0  0  0  0
  8 23  2  0  0  0  0
 10 26  1  0  0  0  0
 10  3  1  0  0  0  0
 11  9  1  1  0  0  0
 11 10  1  0  0  0  0
 12  4  1  0  0  0  0
 12  1  2  0  0  0  0
 13 23  1  0  0  0  0
 14  5  2  0  0  0  0
 15  1  1  0  0  0  0
 16 18  1  0  0  0  0
 17 22  1  0  0  0  0
 17 25  1  0  0  0  0
 18 26  2  0  0  0  0
 19 25  2  0  0  0  0
 20  2  1  0  0  0  0
 21 22  2  0  0  0  0
 22 30  1  0  0  0  0
 23 14  1  0  0  0  0
 24  5  1  0  0  0  0
 24  4  1  0  0  0  0
 26 20  1  0  0  0  0
 27 16  2  0  0  0  0
 27 11  1  0  0  0  0
 28 34  1  1  0  0  0
 28 29  1  0  0  0  0
 30 32  2  0  0  0  0
 30 33  1  0  0  0  0
 31 29  1  0  0  0  0
 32 28  1  0  0  0  0
 33 31  1  0  0  0  0
M  END
>  <MODEL>
8

>  <REMARK>
 VINA RESULT:      -7.3      2.958      8.417
  Name = 
  1 active torsions:
  status: ('A' for Active; 'I' for Inactive)
    1  A    between atoms: C_12  and  C_28
                            x       y       z     vdW  Elec       q    Type
                         _______ _______ _______ _____ _____    ______ ____

>  <TORSDO>
F 1

$$$$
=
 OpenBabel10262423553D

 34 39  0  0  1  0  0  0  0  0999 V2000
  183.8680  178.6690  142.8830 C   0  0  0  0  0  0  0  0  0  0  0  0
  183.4550  178.5550  140.3650 C   0  0  1  0  0  3  0  0  0  0  0  0
  185.0840  178.3480  137.2580 C   0  0  0  0  0  2  0  0  0  0  0  0
  185.7330  178.2670  141.4150 C   0  0  0  0  0  0  0  0  0  0  0  0
  187.6480  177.7360  139.9340 C   0  0  0  0  0  0  0  0  0  0  0  0
  181.5330  178.5290  141.9880 C   0  0  0  0  0  2  0  0  0  0  0  0
  182.0620  179.1070  140.6820 C   0  0  0  0  0  2  0  0  0  0  0  0
  188.1200  177.6790  136.1060 S   0  0  0  0  0  0  0  0  0  0  0  0
  183.5780  176.4010  134.9950 C   0  0  0  0  0  1  0  0  0  0  0  0
  183.7580  177.8230  136.9640 N   0  0  0  0  0  0  0  0  0  0  0  0
  183.3340  177.7860  135.5640 C   0  0  2  0  0  3  0  0  0  0  0  0
  184.3670  178.5210  141.5750 C   0  0  0  0  0  0  0  0  0  0  0  0
  185.9800  177.2930  137.5710 O   0  0  0  0  0  0  0  0  0  0  0  0
  188.1360  177.5180  138.7490 N   0  0  0  0  0  0  0  0  0  0  0  0
  182.4230  178.9830  143.1380 C   0  0  0  0  0  2  0  0  0  0  0  0
  181.0470  177.9790  136.4710 C   0  0  0  0  0  3  0  0  0  0  0  0
  186.5730  178.1860  142.5360 C   0  0  0  0  0  0  0  0  0  0  0  0
  181.5400  177.5610  137.7520 N   0  0  0  0  0  0  0  0  0  0  0  0
  184.7260  178.6080  143.9340 N   0  0  0  0  0  0  0  0  0  0  0  0
  183.3440  176.8940  139.6130 S   0  0  0  0  0  0  0  0  0  0  0  0
  188.5190  177.6930  141.1160 C   0  0  0  0  0  3  0  0  0  0  0  0
  188.0380  177.8980  142.3570 C   0  0  0  0  0  0  0  0  0  0  0  0
  187.3600  177.5000  137.5410 C   0  0  0  0  0  0  0  0  0  0  0  0
  186.2710  178.0580  140.1120 N   0  0  0  0  0  2  0  0  0  0  0  0
  186.0290  178.3740  143.7680 N   0  0  0  0  0  0  0  0  0  0  0  0
  182.8130  177.4920  138.0030 C   0  0  0  0  0  0  0  0  0  0  0  0
  181.8750  178.1260  135.4350 C   0  0  0  0  0  3  0  0  0  0  0  0
  189.6150  177.0530  145.7950 C   0  0  2  0  0  3  0  0  0  0  0  0
  191.0080  177.3430  145.4380 N   0  0  0  0  0  2  0  0  0  0  0  0
  188.9940  177.8320  143.5000 C   0  0  0  0  0  0  0  0  0  0  0  0
  191.0770  178.5990  144.6950 C   0  0  0  0  0  2  0  0  0  0  0  0
  188.6920  177.1420  144.6090 C   0  0  0  0  0  3  0  0  0  0  0  0
  190.3720  178.4390  143.3520 C   0  0  0  0  0  2  0  0  0  0  0  0
  189.1400  177.9700  146.9100 C   0  0  0  0  0  1  0  0  0  0  0  0
  1 15  1  0  0  0  0
  1 19  1  0  0  0  0
  2  7  1  1  0  0  0
  2 12  1  0  0  0  0
  3 13  1  0  0  0  0
  4 12  1  0  0  0  0
  4 17  2  0  0  0  0
  5 24  1  0  0  0  0
  5 21  1  0  0  0  0
  6 15  1  0  0  0  0
  7  6  1  0  0  0  0
  8 23  2  0  0  0  0
 10  3  1  0  0  0  0
 10 26  1  0  0  0  0
 11  9  1  1  0  0  0
 11 10  1  0  0  0  0
 12  1  2  0  0  0  0
 14  5  2  0  0  0  0
 16 18  1  0  0  0  0
 17 25  1  0  0  0  0
 18 26  2  0  0  0  0
 20  2  1  0  0  0  0
 21 22  2  0  0  0  0
 22 17  1  0  0  0  0
 22 30  1  0  0  0  0
 23 13  1  0  0  0  0
 23 14  1  0  0  0  0
 24  4  1  0  0  0  0
 25 19  2  0  0  0  0
 26 20  1  0  0  0  0
 27 11  1  0  0  0  0
 27 16  2  0  0  0  0
 28 34  1  1  0  0  0
 29 28  1  0  0  0  0
 30 32  2  0  0  0  0
 31 29  1  0  0  0  0
 32 28  1  0  0  0  0
 33 30  1  0  0  0  0
 33 31  1  0  0  0  0
M  END
>  <MODEL>
9

>  <REMARK>
 VINA RESULT:      -7.1      2.774      8.937
  Name = 
  1 active torsions:
  status: ('A' for Active; 'I' for Inactive)
    1  A    between atoms: C_12  and  C_28
                            x       y       z     vdW  Elec       q    Type
                         _______ _______ _______ _____ _____    ______ ____

>  <TORSDO>
F 1

$$$$
