=
 OpenBabel10272414423D

 43 47  0  0  1  0  0  0  0  0999 V2000
  189.9600  177.4220  141.6090 N   0  0  0  0  0  0  0  0  0  0  0  0
  191.8380  175.9020  146.1530 C   0  0  0  0  0  0  0  0  0  0  0  0
  191.2210  177.7830  144.7980 C   0  0  0  0  0  0  0  0  0  0  0  0
  191.9830  175.1260  144.9860 C   0  0  0  0  0  3  0  0  0  0  0  0
  192.0950  175.2920  147.4830 C   0  0  0  0  0  1  0  0  0  0  0  0
  191.3350  177.0260  143.6670 C   0  0  0  0  0  0  0  0  0  0  0  0
  191.4580  177.2500  146.0640 C   0  0  0  0  0  3  0  0  0  0  0  0
  191.7370  175.6900  143.7240 C   0  0  0  0  0  3  0  0  0  0  0  0
  191.0710  177.8820  142.4700 C   0  0  2  0  0  3  0  0  0  0  0  0
  190.7630  179.2630  143.0940 C   0  0  0  0  0  2  0  0  0  0  0  0
  190.8850  179.0850  144.5050 O   0  0  0  0  0  0  0  0  0  0  0  0
  188.6550  177.8810  142.1130 C   0  0  1  0  0  3  0  0  0  0  0  0
  187.8260  178.2460  141.0460 O   0  0  0  0  0  1  0  0  0  0  0  0
  187.9620  176.7830  142.9160 C   0  0  0  0  0  2  0  0  0  0  0  0
  187.0780  177.8970  146.4270 C   0  0  0  0  0  0  0  0  0  0  0  0
  185.8350  178.5070  146.2170 C   0  0  0  0  0  0  0  0  0  0  0  0
  185.1430  179.0710  147.2810 O   0  0  0  0  0  1  0  0  0  0  0  0
  185.9760  177.9820  143.8560 C   0  0  0  0  0  3  0  0  0  0  0  0
  187.7680  177.3310  145.3500 C   0  0  0  0  0  3  0  0  0  0  0  0
  187.2160  177.3690  144.0650 C   0  0  0  0  0  0  0  0  0  0  0  0
  187.6210  177.8540  147.6680 F   0  0  0  0  0  0  0  0  0  0  0  0
  185.2850  178.5490  144.9310 C   0  0  0  0  0  3  0  0  0  0  0  0
  190.1740  177.7210  140.1760 C   0  0  0  0  0  2  0  0  0  0  0  0
  189.9090  176.5300  139.2440 C   0  0  0  0  0  2  0  0  0  0  0  0
  189.1450  176.9290  137.9830 C   0  0  2  0  0  3  0  0  0  0  0  0
  189.1110  178.4370  137.8070 C   0  0  0  0  0  1  0  0  0  0  0  0
  187.7300  176.3640  137.9800 C   0  0  0  0  0  2  0  0  0  0  0  0
  185.7590  177.3680  136.6960 N   0  0  0  0  0  2  0  0  0  0  0  0
  186.9940  176.6430  136.7000 C   0  0  0  0  0  0  0  0  0  0  0  0
  187.4690  176.2520  135.6000 O   0  0  0  0  0  0  0  0  0  0  0  0
  184.9180  177.6490  137.8240 C   0  0  0  0  0  0  0  0  0  0  0  0
  183.0130  177.1840  139.3660 N   0  0  0  0  0  2  0  0  0  0  0  0
  185.0980  178.8140  138.4540 C   0  0  0  0  0  3  0  0  0  0  0  0
  184.3060  179.2030  139.6650 C   0  0  0  0  0  2  0  0  0  0  0  0
  183.9320  176.6200  138.3680 C   0  0  1  0  0  3  0  0  0  0  0  0
  183.7630  177.9580  140.3470 C   0  0  0  0  0  2  0  0  0  0  0  0
  183.1130  176.0220  137.2290 C   0  0  0  0  0  2  0  0  0  0  0  0
  183.3280  174.5490  137.1330 C   0  0  0  0  0  0  0  0  0  0  0  0
  183.7000  171.8040  136.9740 C   0  0  0  0  0  3  0  0  0  0  0  0
  182.5240  172.4010  136.5140 C   0  0  0  0  0  3  0  0  0  0  0  0
  184.7000  172.6070  137.5230 C   0  0  0  0  0  3  0  0  0  0  0  0
  182.3620  173.7480  136.6020 N   0  0  0  0  0  0  0  0  0  0  0  0
  184.5170  173.9890  137.6050 C   0  0  0  0  0  3  0  0  0  0  0  0
  1 12  1  0  0  0  0
  2  5  1  0  0  0  0
  3  7  2  0  0  0  0
  4  2  2  0  0  0  0
  6  8  2  0  0  0  0
  6  3  1  0  0  0  0
  7  2  1  0  0  0  0
  8  4  1  0  0  0  0
  9  1  1  1  0  0  0
  9 10  1  0  0  0  0
  9  6  1  0  0  0  0
 10 11  1  0  0  0  0
 11  3  1  0  0  0  0
 12 13  1  6  0  0  0
 12 14  1  0  0  0  0
 14 20  1  0  0  0  0
 15 21  1  0  0  0  0
 16 15  1  0  0  0  0
 16 17  1  0  0  0  0
 18 20  2  0  0  0  0
 18 22  1  0  0  0  0
 19 15  2  0  0  0  0
 20 19  1  0  0  0  0
 22 16  2  0  0  0  0
 23  1  1  0  0  0  0
 24 23  1  0  0  0  0
 25 26  1  1  0  0  0
 25 24  1  0  0  0  0
 27 25  1  0  0  0  0
 28 29  1  0  0  0  0
 28 31  1  0  0  0  0
 29 27  1  0  0  0  0
 30 29  2  0  0  0  0
 31 35  1  0  0  0  0
 31 33  2  0  0  0  0
 32 36  1  0  0  0  0
 33 34  1  0  0  0  0
 34 36  1  0  0  0  0
 35 37  1  6  0  0  0
 35 32  1  0  0  0  0
 38 37  1  0  0  0  0
 38 43  1  0  0  0  0
 39 41  1  0  0  0  0
 40 42  1  0  0  0  0
 40 39  2  0  0  0  0
 41 43  2  0  0  0  0
 42 38  2  0  0  0  0
M  END
>  <MODEL>
1

>  <REMARK>
 VINA RESULT:      -8.6      0.000      0.000
  Name = 
  12 active torsions:
  status: ('A' for Active; 'I' for Inactive)
    1  A    between atoms: C_1  and  C_34
    2  A    between atoms: C_1  and  C_35
    3  A    between atoms: C_2  and  C_6
    4  A    between atoms: C_2  and  C_13
    5  A    between atoms: N_3  and  C_4
    6  A    between atoms: C_6  and  C_12
    7  A    between atoms: N_8  and  C_27
    8  A    between atoms: N_8  and  C_30
    9  A    between atoms: N_8  and  C_34
   10  A    between atoms: C_11  and  C_14
   11  A    between atoms: C_13  and  C_27
   12  A    between atoms: C_14  and  C_41
                            x       y       z     vdW  Elec       q    Type
                         _______ _______ _______ _____ _____    ______ ____

>  <TORSDO>
F 12

$$$$
=
 OpenBabel10272414423D

 43 47  0  0  1  0  0  0  0  0999 V2000
  189.9740  177.3770  141.6150 N   0  0  0  0  0  0  0  0  0  0  0  0
  191.8460  175.9130  146.1810 C   0  0  0  0  0  0  0  0  0  0  0  0
  191.2010  177.7760  144.8140 C   0  0  0  0  0  0  0  0  0  0  0  0
  192.0170  175.1370  145.0180 C   0  0  0  0  0  3  0  0  0  0  0  0
  192.1050  175.3140  147.5150 C   0  0  0  0  0  1  0  0  0  0  0  0
  191.3400  177.0180  143.6860 C   0  0  0  0  0  0  0  0  0  0  0  0
  191.4380  177.2530  146.0840 C   0  0  0  0  0  3  0  0  0  0  0  0
  191.7700  175.6910  143.7510 C   0  0  0  0  0  3  0  0  0  0  0  0
  191.0680  177.8630  142.4840 C   0  0  2  0  0  3  0  0  0  0  0  0
  190.7250  179.2400  143.1000 C   0  0  0  0  0  2  0  0  0  0  0  0
  190.8390  179.0700  144.5130 O   0  0  0  0  0  0  0  0  0  0  0  0
  188.6580  177.8300  142.0930 C   0  0  1  0  0  3  0  0  0  0  0  0
  187.8320  178.1440  141.0070 O   0  0  0  0  0  1  0  0  0  0  0  0
  187.9760  176.7480  142.9270 C   0  0  0  0  0  2  0  0  0  0  0  0
  185.2720  178.4810  144.9350 C   0  0  0  0  0  0  0  0  0  0  0  0
  185.8300  178.4640  146.2200 C   0  0  0  0  0  0  0  0  0  0  0  0
  185.1380  179.0130  147.2920 O   0  0  0  0  0  1  0  0  0  0  0  0
  187.7920  177.3370  145.3530 C   0  0  0  0  0  3  0  0  0  0  0  0
  185.9750  177.9260  143.8620 C   0  0  0  0  0  3  0  0  0  0  0  0
  187.2380  177.3570  144.0690 C   0  0  0  0  0  0  0  0  0  0  0  0
  184.0510  179.0300  144.7260 F   0  0  0  0  0  0  0  0  0  0  0  0
  187.0900  177.8910  146.4270 C   0  0  0  0  0  3  0  0  0  0  0  0
  190.2050  177.6530  140.1810 C   0  0  0  0  0  2  0  0  0  0  0  0
  190.5600  176.4090  139.3550 C   0  0  0  0  0  2  0  0  0  0  0  0
  190.0560  176.4970  137.9140 C   0  0  2  0  0  3  0  0  0  0  0  0
  189.3590  177.8190  137.6490 C   0  0  0  0  0  1  0  0  0  0  0  0
  189.1350  175.3330  137.5690 C   0  0  0  0  0  2  0  0  0  0  0  0
  187.4340  175.0930  135.6740 N   0  0  0  0  0  2  0  0  0  0  0  0
  188.7860  175.2810  136.1080 C   0  0  0  0  0  0  0  0  0  0  0  0
  189.6860  175.4200  135.2380 O   0  0  0  0  0  0  0  0  0  0  0  0
  186.3260  174.6410  136.4670 C   0  0  0  0  0  0  0  0  0  0  0  0
  184.2630  174.9760  137.8280 N   0  0  0  0  0  2  0  0  0  0  0  0
  186.2930  173.3460  136.7990 C   0  0  0  0  0  3  0  0  0  0  0  0
  185.1710  172.7490  137.5920 C   0  0  0  0  0  2  0  0  0  0  0  0
  185.1660  175.5610  136.8270 C   0  0  1  0  0  3  0  0  0  0  0  0
  183.9260  173.6090  137.4510 C   0  0  0  0  0  2  0  0  0  0  0  0
  185.6920  176.8900  137.3580 C   0  0  0  0  0  2  0  0  0  0  0  0
  184.5710  177.7710  137.7990 C   0  0  0  0  0  0  0  0  0  0  0  0
  182.4850  179.4200  138.5880 C   0  0  0  0  0  3  0  0  0  0  0  0
  182.3170  178.4830  137.5650 C   0  0  0  0  0  3  0  0  0  0  0  0
  183.7260  179.5250  139.2180 C   0  0  0  0  0  3  0  0  0  0  0  0
  183.3530  177.6860  137.1950 N   0  0  0  0  0  0  0  0  0  0  0  0
  184.7780  178.6960  138.8250 C   0  0  0  0  0  3  0  0  0  0  0  0
  1 12  1  0  0  0  0
  2  5  1  0  0  0  0
  3  7  2  0  0  0  0
  4  2  2  0  0  0  0
  6  8  2  0  0  0  0
  6  3  1  0  0  0  0
  7  2  1  0  0  0  0
  8  4  1  0  0  0  0
  9  1  1  1  0  0  0
  9 10  1  0  0  0  0
  9  6  1  0  0  0  0
 10 11  1  0  0  0  0
 11  3  1  0  0  0  0
 12 13  1  6  0  0  0
 12 14  1  0  0  0  0
 14 20  1  0  0  0  0
 15 16  1  0  0  0  0
 16 22  2  0  0  0  0
 16 17  1  0  0  0  0
 18 22  1  0  0  0  0
 19 20  1  0  0  0  0
 19 15  2  0  0  0  0
 20 18  2  0  0  0  0
 21 15  1  0  0  0  0
 23  1  1  0  0  0  0
 24 23  1  0  0  0  0
 25 26  1  1  0  0  0
 25 24  1  0  0  0  0
 27 25  1  0  0  0  0
 28 29  1  0  0  0  0
 28 31  1  0  0  0  0
 29 27  1  0  0  0  0
 30 29  2  0  0  0  0
 31 33  2  0  0  0  0
 31 35  1  0  0  0  0
 33 34  1  0  0  0  0
 35 37  1  1  0  0  0
 35 32  1  0  0  0  0
 36 34  1  0  0  0  0
 36 32  1  0  0  0  0
 37 38  1  0  0  0  0
 38 43  1  0  0  0  0
 39 41  1  0  0  0  0
 40 39  2  0  0  0  0
 42 40  1  0  0  0  0
 42 38  2  0  0  0  0
 43 41  2  0  0  0  0
M  END
>  <MODEL>
2

>  <REMARK>
 VINA RESULT:      -8.3      1.409      3.120
  Name = 
  12 active torsions:
  status: ('A' for Active; 'I' for Inactive)
    1  A    between atoms: C_1  and  C_34
    2  A    between atoms: C_1  and  C_35
    3  A    between atoms: C_2  and  C_6
    4  A    between atoms: C_2  and  C_13
    5  A    between atoms: N_3  and  C_4
    6  A    between atoms: C_6  and  C_12
    7  A    between atoms: N_8  and  C_27
    8  A    between atoms: N_8  and  C_30
    9  A    between atoms: N_8  and  C_34
   10  A    between atoms: C_11  and  C_14
   11  A    between atoms: C_13  and  C_27
   12  A    between atoms: C_14  and  C_41
                            x       y       z     vdW  Elec       q    Type
                         _______ _______ _______ _____ _____    ______ ____

>  <TORSDO>
F 12

$$$$
=
 OpenBabel10272414423D

 43 47  0  0  1  0  0  0  0  0999 V2000
  190.2120  177.6890  141.7440 N   0  0  0  0  0  0  0  0  0  0  0  0
  185.3460  178.7090  143.0740 C   0  0  0  0  0  0  0  0  0  0  0  0
  187.1390  177.1220  143.2040 C   0  0  0  0  0  0  0  0  0  0  0  0
  185.9390  179.2660  141.9240 C   0  0  0  0  0  3  0  0  0  0  0  0
  184.0750  179.2740  143.5980 C   0  0  0  0  0  1  0  0  0  0  0  0
  187.7320  177.6760  142.1050 C   0  0  0  0  0  0  0  0  0  0  0  0
  185.9460  177.6190  143.7240 C   0  0  0  0  0  3  0  0  0  0  0  0
  187.1430  178.7430  141.4230 C   0  0  0  0  0  3  0  0  0  0  0  0
  188.9610  176.9000  141.7600 C   0  0  2  0  0  3  0  0  0  0  0  0
  189.0000  175.8100  142.8570 C   0  0  0  0  0  2  0  0  0  0  0  0
  187.8510  176.0400  143.6710 O   0  0  0  0  0  0  0  0  0  0  0  0
  191.1360  177.2670  142.8100 C   0  0  1  0  0  3  0  0  0  0  0  0
  192.4110  177.0370  142.2800 O   0  0  0  0  0  1  0  0  0  0  0  0
  191.2440  178.3360  143.8950 C   0  0  0  0  0  2  0  0  0  0  0  0
  188.5190  178.0120  146.5060 C   0  0  0  0  0  0  0  0  0  0  0  0
  189.0940  177.0920  147.3910 C   0  0  0  0  0  0  0  0  0  0  0  0
  188.4010  176.6800  148.5230 O   0  0  0  0  0  1  0  0  0  0  0  0
  191.0760  176.9920  146.0000 C   0  0  0  0  0  3  0  0  0  0  0  0
  189.2230  178.4210  145.3690 C   0  0  0  0  0  3  0  0  0  0  0  0
  190.5040  177.9150  145.1170 C   0  0  0  0  0  0  0  0  0  0  0  0
  187.2800  178.5070  146.7420 F   0  0  0  0  0  0  0  0  0  0  0  0
  190.3730  176.5830  147.1370 C   0  0  0  0  0  3  0  0  0  0  0  0
  190.8440  177.7490  140.4080 C   0  0  0  0  0  2  0  0  0  0  0  0
  190.3750  176.6490  139.4460 C   0  0  0  0  0  2  0  0  0  0  0  0
  189.6240  177.2070  138.2380 C   0  0  2  0  0  3  0  0  0  0  0  0
  189.2170  178.6530  138.4550 C   0  0  0  0  0  1  0  0  0  0  0  0
  188.4040  176.3600  137.8940 C   0  0  0  0  0  2  0  0  0  0  0  0
  186.8210  175.9310  135.9320 N   0  0  0  0  0  2  0  0  0  0  0  0
  188.1010  176.3460  136.4230 C   0  0  0  0  0  0  0  0  0  0  0  0
  188.9740  176.7180  135.5940 O   0  0  0  0  0  0  0  0  0  0  0  0
  185.8080  175.2180  136.6560 C   0  0  0  0  0  0  0  0  0  0  0  0
  183.6900  175.0490  137.9640 N   0  0  0  0  0  2  0  0  0  0  0  0
  186.0230  173.9220  136.9040 C   0  0  0  0  0  3  0  0  0  0  0  0
  185.0230  173.0640  137.6180 C   0  0  0  0  0  2  0  0  0  0  0  0
  184.4810  175.8670  137.0330 C   0  0  1  0  0  3  0  0  0  0  0  0
  183.6370  173.6720  137.4890 C   0  0  0  0  0  2  0  0  0  0  0  0
  184.7240  177.2330  137.6660 C   0  0  0  0  0  2  0  0  0  0  0  0
  183.5080  177.7110  138.3870 C   0  0  0  0  0  0  0  0  0  0  0  0
  181.2500  178.6310  139.7100 C   0  0  0  0  0  3  0  0  0  0  0  0
  181.2880  178.5540  138.3160 C   0  0  0  0  0  3  0  0  0  0  0  0
  182.3710  178.2390  140.4440 C   0  0  0  0  0  3  0  0  0  0  0  0
  182.4050  178.1000  137.6880 N   0  0  0  0  0  0  0  0  0  0  0  0
  183.5090  177.7750  139.7820 C   0  0  0  0  0  3  0  0  0  0  0  0
  1 12  1  0  0  0  0
  2  5  1  0  0  0  0
  2  7  1  0  0  0  0
  3 11  1  0  0  0  0
  3  7  2  0  0  0  0
  4  2  2  0  0  0  0
  6  3  1  0  0  0  0
  8  4  1  0  0  0  0
  8  6  2  0  0  0  0
  9  1  1  1  0  0  0
  9  6  1  0  0  0  0
  9 10  1  0  0  0  0
 10 11  1  0  0  0  0
 12 13  1  6  0  0  0
 12 14  1  0  0  0  0
 14 20  1  0  0  0  0
 15 21  1  0  0  0  0
 15 16  1  0  0  0  0
 16 17  1  0  0  0  0
 18 22  1  0  0  0  0
 19 15  2  0  0  0  0
 20 19  1  0  0  0  0
 20 18  2  0  0  0  0
 22 16  2  0  0  0  0
 23  1  1  0  0  0  0
 24 23  1  0  0  0  0
 25 26  1  1  0  0  0
 25 24  1  0  0  0  0
 27 25  1  0  0  0  0
 28 29  1  0  0  0  0
 28 31  1  0  0  0  0
 29 27  1  0  0  0  0
 30 29  2  0  0  0  0
 31 33  2  0  0  0  0
 31 35  1  0  0  0  0
 33 34  1  0  0  0  0
 35 37  1  1  0  0  0
 35 32  1  0  0  0  0
 36 34  1  0  0  0  0
 36 32  1  0  0  0  0
 37 38  1  0  0  0  0
 38 43  1  0  0  0  0
 39 41  1  0  0  0  0
 40 39  2  0  0  0  0
 42 40  1  0  0  0  0
 42 38  2  0  0  0  0
 43 41  2  0  0  0  0
M  END
>  <MODEL>
3

>  <REMARK>
 VINA RESULT:      -8.3      1.728      4.461
  Name = 
  12 active torsions:
  status: ('A' for Active; 'I' for Inactive)
    1  A    between atoms: C_1  and  C_34
    2  A    between atoms: C_1  and  C_35
    3  A    between atoms: C_2  and  C_6
    4  A    between atoms: C_2  and  C_13
    5  A    between atoms: N_3  and  C_4
    6  A    between atoms: C_6  and  C_12
    7  A    between atoms: N_8  and  C_27
    8  A    between atoms: N_8  and  C_30
    9  A    between atoms: N_8  and  C_34
   10  A    between atoms: C_11  and  C_14
   11  A    between atoms: C_13  and  C_27
   12  A    between atoms: C_14  and  C_41
                            x       y       z     vdW  Elec       q    Type
                         _______ _______ _______ _____ _____    ______ ____

>  <TORSDO>
F 12

$$$$
=
 OpenBabel10272414423D

 43 47  0  0  1  0  0  0  0  0999 V2000
  190.0410  176.9190  141.8270 N   0  0  0  0  0  0  0  0  0  0  0  0
  191.9840  175.8810  146.4790 C   0  0  0  0  0  0  0  0  0  0  0  0
  191.3400  177.6100  144.9460 C   0  0  0  0  0  0  0  0  0  0  0  0
  192.1180  174.9900  145.3960 C   0  0  0  0  0  3  0  0  0  0  0  0
  192.2610  175.4130  147.8610 C   0  0  0  0  0  1  0  0  0  0  0  0
  191.4430  176.7420  143.8970 C   0  0  0  0  0  0  0  0  0  0  0  0
  191.5950  177.2120  146.2570 C   0  0  0  0  0  3  0  0  0  0  0  0
  191.8540  175.4210  144.0850 C   0  0  0  0  0  3  0  0  0  0  0  0
  191.1600  177.4690  142.6220 C   0  0  2  0  0  3  0  0  0  0  0  0
  190.8530  178.9060  143.1050 C   0  0  0  0  0  2  0  0  0  0  0  0
  190.9930  178.8750  144.5250 O   0  0  0  0  0  0  0  0  0  0  0  0
  188.7580  177.5470  142.1860 C   0  0  1  0  0  3  0  0  0  0  0  0
  188.0580  177.9090  141.0290 O   0  0  0  0  0  1  0  0  0  0  0  0
  187.8920  176.5920  143.0030 C   0  0  0  0  0  2  0  0  0  0  0  0
  185.4940  178.5980  145.1410 C   0  0  0  0  0  0  0  0  0  0  0  0
  186.1540  178.5920  146.3770 C   0  0  0  0  0  0  0  0  0  0  0  0
  185.5950  179.2320  147.4740 O   0  0  0  0  0  1  0  0  0  0  0  0
  187.9530  177.2890  145.4070 C   0  0  0  0  0  3  0  0  0  0  0  0
  186.0640  177.9510  144.0410 C   0  0  0  0  0  3  0  0  0  0  0  0
  187.2960  177.2990  144.1710 C   0  0  0  0  0  0  0  0  0  0  0  0
  184.3010  179.2270  145.0060 F   0  0  0  0  0  0  0  0  0  0  0  0
  187.3840  177.9360  146.5070 C   0  0  0  0  0  3  0  0  0  0  0  0
  190.3070  176.9180  140.3720 C   0  0  0  0  0  2  0  0  0  0  0  0
  191.7520  177.2800  140.0020 C   0  0  0  0  0  2  0  0  0  0  0  0
  192.1160  176.8630  138.5770 C   0  0  2  0  0  3  0  0  0  0  0  0
  190.8780  176.6950  137.7140 C   0  0  0  0  0  1  0  0  0  0  0  0
  192.9490  175.5870  138.5600 C   0  0  0  0  0  2  0  0  0  0  0  0
  193.5620  174.5570  136.3010 N   0  0  0  0  0  2  0  0  0  0  0  0
  192.6380  174.7040  137.3860 C   0  0  0  0  0  0  0  0  0  0  0  0
  191.5560  174.0600  137.3480 O   0  0  0  0  0  0  0  0  0  0  0  0
  194.6920  175.3930  136.0100 C   0  0  0  0  0  0  0  0  0  0  0  0
  197.1100  175.9990  136.1000 N   0  0  0  0  0  2  0  0  0  0  0  0
  194.4530  176.5740  135.4300 C   0  0  0  0  0  3  0  0  0  0  0  0
  195.5530  177.5160  135.0450 C   0  0  0  0  0  2  0  0  0  0  0  0
  196.1230  174.9190  136.2390 C   0  0  1  0  0  3  0  0  0  0  0  0
  196.8540  176.7480  134.8770 C   0  0  0  0  0  2  0  0  0  0  0  0
  196.2590  174.3060  137.6290 C   0  0  0  0  0  2  0  0  0  0  0  0
  196.3590  172.8200  137.5500 C   0  0  0  0  0  0  0  0  0  0  0  0
  196.5450  170.0580  137.3690 C   0  0  0  0  0  3  0  0  0  0  0  0
  197.5330  170.8850  136.8290 C   0  0  0  0  0  3  0  0  0  0  0  0
  195.4480  170.6370  138.0090 C   0  0  0  0  0  3  0  0  0  0  0  0
  197.4210  172.2360  136.9290 N   0  0  0  0  0  0  0  0  0  0  0  0
  195.3500  172.0270  138.1020 C   0  0  0  0  0  3  0  0  0  0  0  0
  1 12  1  0  0  0  0
  2  5  1  0  0  0  0
  3  7  2  0  0  0  0
  4  2  2  0  0  0  0
  6  8  2  0  0  0  0
  6  3  1  0  0  0  0
  7  2  1  0  0  0  0
  8  4  1  0  0  0  0
  9  1  1  1  0  0  0
  9 10  1  0  0  0  0
  9  6  1  0  0  0  0
 10 11  1  0  0  0  0
 11  3  1  0  0  0  0
 12 13  1  6  0  0  0
 12 14  1  0  0  0  0
 14 20  1  0  0  0  0
 15 16  1  0  0  0  0
 16 22  2  0  0  0  0
 16 17  1  0  0  0  0
 18 22  1  0  0  0  0
 19 20  1  0  0  0  0
 19 15  2  0  0  0  0
 20 18  2  0  0  0  0
 21 15  1  0  0  0  0
 23  1  1  0  0  0  0
 24 23  1  0  0  0  0
 25 26  1  6  0  0  0
 25 24  1  0  0  0  0
 27 25  1  0  0  0  0
 28 29  1  0  0  0  0
 29 27  1  0  0  0  0
 30 29  2  0  0  0  0
 31 35  1  0  0  0  0
 31 28  1  0  0  0  0
 32 35  1  0  0  0  0
 33 31  2  0  0  0  0
 34 33  1  0  0  0  0
 35 37  1  1  0  0  0
 36 34  1  0  0  0  0
 36 32  1  0  0  0  0
 38 37  1  0  0  0  0
 38 43  1  0  0  0  0
 39 41  1  0  0  0  0
 40 42  1  0  0  0  0
 40 39  2  0  0  0  0
 41 43  2  0  0  0  0
 42 38  2  0  0  0  0
M  END
>  <MODEL>
4

>  <REMARK>
 VINA RESULT:      -8.2      4.744      7.417
  Name = 
  12 active torsions:
  status: ('A' for Active; 'I' for Inactive)
    1  A    between atoms: C_1  and  C_34
    2  A    between atoms: C_1  and  C_35
    3  A    between atoms: C_2  and  C_6
    4  A    between atoms: C_2  and  C_13
    5  A    between atoms: N_3  and  C_4
    6  A    between atoms: C_6  and  C_12
    7  A    between atoms: N_8  and  C_27
    8  A    between atoms: N_8  and  C_30
    9  A    between atoms: N_8  and  C_34
   10  A    between atoms: C_11  and  C_14
   11  A    between atoms: C_13  and  C_27
   12  A    between atoms: C_14  and  C_41
                            x       y       z     vdW  Elec       q    Type
                         _______ _______ _______ _____ _____    ______ ____

>  <TORSDO>
F 12

$$$$
=
 OpenBabel10272414423D

 43 47  0  0  1  0  0  0  0  0999 V2000
  183.6090  179.2010  140.7160 N   0  0  0  0  0  0  0  0  0  0  0  0
  180.8270  175.6790  138.1960 C   0  0  0  0  0  0  0  0  0  0  0  0
  180.7660  177.7440  139.4160 C   0  0  0  0  0  0  0  0  0  0  0  0
  182.0470  175.3600  138.8250 C   0  0  0  0  0  3  0  0  0  0  0  0
  180.2290  174.7350  137.2180 C   0  0  0  0  0  1  0  0  0  0  0  0
  181.9630  177.4490  140.0060 C   0  0  0  0  0  0  0  0  0  0  0  0
  180.1700  176.8830  138.4960 C   0  0  0  0  0  3  0  0  0  0  0  0
  182.6240  176.2480  139.7470 C   0  0  0  0  0  3  0  0  0  0  0  0
  182.3160  178.5320  140.9750 C   0  0  2  0  0  3  0  0  0  0  0  0
  181.1350  179.5200  140.8350 C   0  0  0  0  0  2  0  0  0  0  0  0
  180.2590  178.9410  139.8680 O   0  0  0  0  0  0  0  0  0  0  0  0
  184.6440  178.7750  141.6730 C   0  0  1  0  0  3  0  0  0  0  0  0
  185.5870  179.7930  141.8500 O   0  0  0  0  0  1  0  0  0  0  0  0
  184.0290  178.4370  143.0290 C   0  0  0  0  0  2  0  0  0  0  0  0
  185.9840  178.8690  146.2440 C   0  0  0  0  0  0  0  0  0  0  0  0
  187.0660  178.0050  146.0260 C   0  0  0  0  0  0  0  0  0  0  0  0
  188.0500  177.8560  146.9950 O   0  0  0  0  0  1  0  0  0  0  0  0
  186.1690  177.4320  143.8490 C   0  0  0  0  0  3  0  0  0  0  0  0
  184.9980  179.0130  145.2630 C   0  0  0  0  0  3  0  0  0  0  0  0
  185.0920  178.2980  144.0640 C   0  0  0  0  0  0  0  0  0  0  0  0
  185.8860  179.5660  147.4020 F   0  0  0  0  0  0  0  0  0  0  0  0
  187.1560  177.2870  144.8290 C   0  0  0  0  0  3  0  0  0  0  0  0
  184.0400  179.1060  139.3040 C   0  0  0  0  0  2  0  0  0  0  0  0
  185.3920  178.4040  139.1100 C   0  0  0  0  0  2  0  0  0  0  0  0
  185.7130  178.1430  137.6390 C   0  0  2  0  0  3  0  0  0  0  0  0
  184.5980  177.3710  136.9560 C   0  0  0  0  0  1  0  0  0  0  0  0
  187.0410  177.4140  137.4740 C   0  0  0  0  0  2  0  0  0  0  0  0
  189.3810  177.7820  136.5110 N   0  0  0  0  0  2  0  0  0  0  0  0
  188.1450  178.3150  137.0000 C   0  0  0  0  0  0  0  0  0  0  0  0
  187.9890  179.5660  137.0110 O   0  0  0  0  0  0  0  0  0  0  0  0
  189.8670  176.4410  136.6720 C   0  0  0  0  0  0  0  0  0  0  0  0
  191.0060  174.6090  137.9250 N   0  0  0  0  0  2  0  0  0  0  0  0
  189.8040  175.6300  135.6110 C   0  0  0  0  0  3  0  0  0  0  0  0
  190.2470  174.2000  135.6680 C   0  0  0  0  0  2  0  0  0  0  0  0
  190.3340  175.9130  138.0240 C   0  0  1  0  0  3  0  0  0  0  0  0
  190.2110  173.7050  137.1040 C   0  0  0  0  0  2  0  0  0  0  0  0
  191.2880  176.9070  138.6780 C   0  0  0  0  0  2  0  0  0  0  0  0
  190.8240  177.2680  140.0490 C   0  0  0  0  0  0  0  0  0  0  0  0
  189.9740  177.9080  142.6110 C   0  0  0  0  0  3  0  0  0  0  0  0
  191.3180  177.6350  142.3440 C   0  0  0  0  0  3  0  0  0  0  0  0
  189.0490  177.8560  141.5680 C   0  0  0  0  0  3  0  0  0  0  0  0
  191.7120  177.3220  141.0810 N   0  0  0  0  0  0  0  0  0  0  0  0
  189.4720  177.5340  140.2770 C   0  0  0  0  0  3  0  0  0  0  0  0
  1 12  1  0  0  0  0
  2  7  2  0  0  0  0
  2  4  1  0  0  0  0
  3 11  1  0  0  0  0
  3  6  2  0  0  0  0
  4  8  2  0  0  0  0
  5  2  1  0  0  0  0
  6  9  1  0  0  0  0
  7  3  1  0  0  0  0
  8  6  1  0  0  0  0
  9  1  1  6  0  0  0
 10  9  1  0  0  0  0
 11 10  1  0  0  0  0
 12 13  1  1  0  0  0
 12 14  1  0  0  0  0
 14 20  1  0  0  0  0
 15 21  1  0  0  0  0
 16 15  1  0  0  0  0
 16 17  1  0  0  0  0
 18 20  2  0  0  0  0
 18 22  1  0  0  0  0
 19 15  2  0  0  0  0
 20 19  1  0  0  0  0
 22 16  2  0  0  0  0
 23  1  1  0  0  0  0
 24 23  1  0  0  0  0
 25 26  1  1  0  0  0
 25 24  1  0  0  0  0
 27 25  1  0  0  0  0
 28 31  1  0  0  0  0
 28 29  1  0  0  0  0
 29 30  2  0  0  0  0
 29 27  1  0  0  0  0
 31 35  1  0  0  0  0
 32 35  1  0  0  0  0
 33 34  1  0  0  0  0
 33 31  2  0  0  0  0
 34 36  1  0  0  0  0
 35 37  1  6  0  0  0
 36 32  1  0  0  0  0
 37 38  1  0  0  0  0
 38 43  2  0  0  0  0
 38 42  1  0  0  0  0
 40 39  1  0  0  0  0
 41 39  2  0  0  0  0
 42 40  2  0  0  0  0
 43 41  1  0  0  0  0
M  END
>  <MODEL>
5

>  <REMARK>
 VINA RESULT:      -8.2      2.676      7.790
  Name = 
  12 active torsions:
  status: ('A' for Active; 'I' for Inactive)
    1  A    between atoms: C_1  and  C_34
    2  A    between atoms: C_1  and  C_35
    3  A    between atoms: C_2  and  C_6
    4  A    between atoms: C_2  and  C_13
    5  A    between atoms: N_3  and  C_4
    6  A    between atoms: C_6  and  C_12
    7  A    between atoms: N_8  and  C_27
    8  A    between atoms: N_8  and  C_30
    9  A    between atoms: N_8  and  C_34
   10  A    between atoms: C_11  and  C_14
   11  A    between atoms: C_13  and  C_27
   12  A    between atoms: C_14  and  C_41
                            x       y       z     vdW  Elec       q    Type
                         _______ _______ _______ _____ _____    ______ ____

>  <TORSDO>
F 12

$$$$
=
 OpenBabel10272414423D

 43 47  0  0  1  0  0  0  0  0999 V2000
  190.1740  177.0610  141.6510 N   0  0  0  0  0  0  0  0  0  0  0  0
  191.9230  175.9100  146.3530 C   0  0  0  0  0  0  0  0  0  0  0  0
  191.3700  177.6760  144.8270 C   0  0  0  0  0  0  0  0  0  0  0  0
  192.0810  175.0340  145.2600 C   0  0  0  0  0  3  0  0  0  0  0  0
  192.1400  175.4140  147.7360 C   0  0  0  0  0  1  0  0  0  0  0  0
  191.4960  176.8230  143.7680 C   0  0  0  0  0  0  0  0  0  0  0  0
  191.5680  177.2520  146.1400 C   0  0  0  0  0  3  0  0  0  0  0  0
  191.8740  175.4920  143.9490 C   0  0  0  0  0  3  0  0  0  0  0  0
  191.2730  177.5770  142.4960 C   0  0  2  0  0  3  0  0  0  0  0  0
  190.9750  179.0110  142.9920 C   0  0  0  0  0  2  0  0  0  0  0  0
  191.0620  178.9540  144.4160 O   0  0  0  0  0  0  0  0  0  0  0  0
  188.8620  177.5490  142.1080 C   0  0  1  0  0  3  0  0  0  0  0  0
  188.0210  177.7710  141.0120 O   0  0  0  0  0  1  0  0  0  0  0  0
  188.1970  176.5370  143.0370 C   0  0  0  0  0  2  0  0  0  0  0  0
  185.4530  178.4580  144.8060 C   0  0  0  0  0  0  0  0  0  0  0  0
  185.9540  178.5140  146.1130 C   0  0  0  0  0  0  0  0  0  0  0  0
  185.2310  179.1490  147.1150 O   0  0  0  0  0  1  0  0  0  0  0  0
  187.9230  177.2890  145.4090 C   0  0  0  0  0  3  0  0  0  0  0  0
  186.1870  177.8180  143.8030 C   0  0  0  0  0  3  0  0  0  0  0  0
  187.4250  177.2370  144.1030 C   0  0  0  0  0  0  0  0  0  0  0  0
  184.2560  179.0190  144.5070 F   0  0  0  0  0  0  0  0  0  0  0  0
  187.1890  177.9290  146.4130 C   0  0  0  0  0  3  0  0  0  0  0  0
  190.4070  177.2690  140.2060 C   0  0  0  0  0  2  0  0  0  0  0  0
  191.8340  176.9370  139.7480 C   0  0  0  0  0  2  0  0  0  0  0  0
  191.8640  175.9350  138.5950 C   0  0  2  0  0  3  0  0  0  0  0  0
  192.4930  176.5380  137.3520 C   0  0  0  0  0  1  0  0  0  0  0  0
  190.4720  175.4010  138.2770 C   0  0  0  0  0  2  0  0  0  0  0  0
  189.5170  175.4960  135.9070 N   0  0  0  0  0  2  0  0  0  0  0  0
  190.3590  174.8650  136.8790 C   0  0  0  0  0  0  0  0  0  0  0  0
  191.0230  173.8510  136.5350 O   0  0  0  0  0  0  0  0  0  0  0  0
  188.4840  176.4610  136.1550 C   0  0  0  0  0  0  0  0  0  0  0  0
  186.1090  177.1910  136.3710 N   0  0  0  0  0  2  0  0  0  0  0  0
  188.8530  177.7380  136.2970 C   0  0  0  0  0  3  0  0  0  0  0  0
  187.8700  178.8290  136.5950 C   0  0  0  0  0  2  0  0  0  0  0  0
  187.0320  176.0470  136.3660 C   0  0  1  0  0  3  0  0  0  0  0  0
  186.6260  178.2410  137.2400 C   0  0  0  0  0  2  0  0  0  0  0  0
  186.5980  175.0720  135.2780 C   0  0  0  0  0  2  0  0  0  0  0  0
  185.7210  174.0020  135.8380 C   0  0  0  0  0  0  0  0  0  0  0  0
  184.1180  171.9990  136.8930 C   0  0  0  0  0  3  0  0  0  0  0  0
  184.8990  172.8090  137.7210 C   0  0  0  0  0  3  0  0  0  0  0  0
  184.1500  172.2050  135.5130 C   0  0  0  0  0  3  0  0  0  0  0  0
  185.6780  173.7850  137.1820 N   0  0  0  0  0  0  0  0  0  0  0  0
  184.9550  173.2120  134.9780 C   0  0  0  0  0  3  0  0  0  0  0  0
  1 12  1  0  0  0  0
  2  5  1  0  0  0  0
  3  7  2  0  0  0  0
  4  2  2  0  0  0  0
  6  8  2  0  0  0  0
  6  3  1  0  0  0  0
  7  2  1  0  0  0  0
  8  4  1  0  0  0  0
  9  1  1  1  0  0  0
  9 10  1  0  0  0  0
  9  6  1  0  0  0  0
 10 11  1  0  0  0  0
 11  3  1  0  0  0  0
 12 13  1  6  0  0  0
 12 14  1  0  0  0  0
 14 20  1  0  0  0  0
 15 16  1  0  0  0  0
 16 22  2  0  0  0  0
 16 17  1  0  0  0  0
 18 22  1  0  0  0  0
 19 20  1  0  0  0  0
 19 15  2  0  0  0  0
 20 18  2  0  0  0  0
 21 15  1  0  0  0  0
 23  1  1  0  0  0  0
 24 23  1  0  0  0  0
 25 26  1  6  0  0  0
 25 24  1  0  0  0  0
 27 25  1  0  0  0  0
 28 31  1  0  0  0  0
 28 29  1  0  0  0  0
 29 27  1  0  0  0  0
 30 29  2  0  0  0  0
 31 33  2  0  0  0  0
 31 35  1  0  0  0  0
 32 36  1  0  0  0  0
 33 34  1  0  0  0  0
 34 36  1  0  0  0  0
 35 37  1  6  0  0  0
 35 32  1  0  0  0  0
 37 38  1  0  0  0  0
 38 42  1  0  0  0  0
 39 40  1  0  0  0  0
 41 39  2  0  0  0  0
 42 40  2  0  0  0  0
 43 41  1  0  0  0  0
 43 38  2  0  0  0  0
M  END
>  <MODEL>
6

>  <REMARK>
 VINA RESULT:      -8.2      1.919      2.650
  Name = 
  12 active torsions:
  status: ('A' for Active; 'I' for Inactive)
    1  A    between atoms: C_1  and  C_34
    2  A    between atoms: C_1  and  C_35
    3  A    between atoms: C_2  and  C_6
    4  A    between atoms: C_2  and  C_13
    5  A    between atoms: N_3  and  C_4
    6  A    between atoms: C_6  and  C_12
    7  A    between atoms: N_8  and  C_27
    8  A    between atoms: N_8  and  C_30
    9  A    between atoms: N_8  and  C_34
   10  A    between atoms: C_11  and  C_14
   11  A    between atoms: C_13  and  C_27
   12  A    between atoms: C_14  and  C_41
                            x       y       z     vdW  Elec       q    Type
                         _______ _______ _______ _____ _____    ______ ____

>  <TORSDO>
F 12

$$$$
=
 OpenBabel10272414423D

 43 47  0  0  1  0  0  0  0  0999 V2000
  189.8830  177.1720  141.7530 N   0  0  0  0  0  0  0  0  0  0  0  0
  191.9440  175.9320  146.3040 C   0  0  0  0  0  0  0  0  0  0  0  0
  191.3140  177.7270  144.8420 C   0  0  0  0  0  0  0  0  0  0  0  0
  192.0070  175.0680  145.1930 C   0  0  0  0  0  3  0  0  0  0  0  0
  192.2500  175.4150  147.6620 C   0  0  0  0  0  1  0  0  0  0  0  0
  191.3480  176.8850  143.7670 C   0  0  0  0  0  0  0  0  0  0  0  0
  191.5980  177.2820  146.1320 C   0  0  0  0  0  3  0  0  0  0  0  0
  191.7140  175.5450  143.9050 C   0  0  0  0  0  3  0  0  0  0  0  0
  191.0490  177.6580  142.5230 C   0  0  2  0  0  3  0  0  0  0  0  0
  190.8130  179.0910  143.0550 C   0  0  0  0  0  2  0  0  0  0  0  0
  191.0010  179.0140  144.4680 O   0  0  0  0  0  0  0  0  0  0  0  0
  188.6650  177.9350  142.0710 C   0  0  1  0  0  3  0  0  0  0  0  0
  188.1920  178.5890  140.9270 O   0  0  0  0  0  1  0  0  0  0  0  0
  187.5660  177.0170  142.5970 C   0  0  0  0  0  2  0  0  0  0  0  0
  187.3150  178.0450  146.2340 C   0  0  0  0  0  0  0  0  0  0  0  0
  186.0120  178.5580  146.2860 C   0  0  0  0  0  0  0  0  0  0  0  0
  185.5050  179.0640  147.4760 O   0  0  0  0  0  1  0  0  0  0  0  0
  185.7210  178.0560  143.9340 C   0  0  0  0  0  3  0  0  0  0  0  0
  187.8180  177.5380  145.0320 C   0  0  0  0  0  3  0  0  0  0  0  0
  187.0200  177.5390  143.8820 C   0  0  0  0  0  0  0  0  0  0  0  0
  188.0940  178.0390  147.3440 F   0  0  0  0  0  0  0  0  0  0  0  0
  185.2170  178.5630  145.1350 C   0  0  0  0  0  3  0  0  0  0  0  0
  190.1480  177.0660  140.3020 C   0  0  0  0  0  2  0  0  0  0  0  0
  191.5440  176.5280  139.9590 C   0  0  0  0  0  2  0  0  0  0  0  0
  191.9050  176.7260  138.4880 C   0  0  2  0  0  3  0  0  0  0  0  0
  190.6640  176.8510  137.6230 C   0  0  0  0  0  1  0  0  0  0  0  0
  192.7990  175.6040  137.9730 C   0  0  0  0  0  2  0  0  0  0  0  0
  194.3360  175.1600  135.9780 N   0  0  0  0  0  2  0  0  0  0  0  0
  193.7770  176.0700  136.9320 C   0  0  0  0  0  0  0  0  0  0  0  0
  194.1080  177.2850  136.8740 O   0  0  0  0  0  0  0  0  0  0  0  0
  194.3210  173.7260  136.0390 C   0  0  0  0  0  0  0  0  0  0  0  0
  195.2180  171.5060  136.7370 N   0  0  0  0  0  2  0  0  0  0  0  0
  193.4120  173.0870  135.2960 C   0  0  0  0  0  3  0  0  0  0  0  0
  193.2740  171.5950  135.3040 C   0  0  0  0  0  2  0  0  0  0  0  0
  195.2200  172.9530  136.9960 C   0  0  1  0  0  3  0  0  0  0  0  0
  193.8470  171.0320  136.5940 C   0  0  0  0  0  2  0  0  0  0  0  0
  196.6530  173.4650  136.9030 C   0  0  0  0  0  2  0  0  0  0  0  0
  197.0560  174.1560  138.1620 C   0  0  0  0  0  0  0  0  0  0  0  0
  197.8280  175.4160  140.5110 C   0  0  0  0  0  3  0  0  0  0  0  0
  198.7510  175.1540  139.4960 C   0  0  0  0  0  3  0  0  0  0  0  0
  196.4960  175.0340  140.3350 C   0  0  0  0  0  3  0  0  0  0  0  0
  198.3510  174.5340  138.3530 N   0  0  0  0  0  0  0  0  0  0  0  0
  196.1040  174.4000  139.1540 C   0  0  0  0  0  3  0  0  0  0  0  0
  1 12  1  0  0  0  0
  2  5  1  0  0  0  0
  3  7  2  0  0  0  0
  4  2  2  0  0  0  0
  6  8  2  0  0  0  0
  6  3  1  0  0  0  0
  7  2  1  0  0  0  0
  8  4  1  0  0  0  0
  9  1  1  1  0  0  0
  9 10  1  0  0  0  0
  9  6  1  0  0  0  0
 10 11  1  0  0  0  0
 11  3  1  0  0  0  0
 12 13  1  6  0  0  0
 12 14  1  0  0  0  0
 14 20  1  0  0  0  0
 15 16  1  0  0  0  0
 15 21  1  0  0  0  0
 16 17  1  0  0  0  0
 18 22  1  0  0  0  0
 19 15  2  0  0  0  0
 20 18  2  0  0  0  0
 20 19  1  0  0  0  0
 22 16  2  0  0  0  0
 23  1  1  0  0  0  0
 24 23  1  0  0  0  0
 25 26  1  6  0  0  0
 25 24  1  0  0  0  0
 27 25  1  0  0  0  0
 28 31  1  0  0  0  0
 28 29  1  0  0  0  0
 29 27  1  0  0  0  0
 30 29  2  0  0  0  0
 31 35  1  0  0  0  0
 32 35  1  0  0  0  0
 33 34  1  0  0  0  0
 33 31  2  0  0  0  0
 34 36  1  0  0  0  0
 35 37  1  6  0  0  0
 36 32  1  0  0  0  0
 37 38  1  0  0  0  0
 38 42  2  0  0  0  0
 38 43  1  0  0  0  0
 40 39  2  0  0  0  0
 41 39  1  0  0  0  0
 42 40  1  0  0  0  0
 43 41  2  0  0  0  0
M  END
>  <MODEL>
7

>  <REMARK>
 VINA RESULT:      -8.2      4.470      7.658
  Name = 
  12 active torsions:
  status: ('A' for Active; 'I' for Inactive)
    1  A    between atoms: C_1  and  C_34
    2  A    between atoms: C_1  and  C_35
    3  A    between atoms: C_2  and  C_6
    4  A    between atoms: C_2  and  C_13
    5  A    between atoms: N_3  and  C_4
    6  A    between atoms: C_6  and  C_12
    7  A    between atoms: N_8  and  C_27
    8  A    between atoms: N_8  and  C_30
    9  A    between atoms: N_8  and  C_34
   10  A    between atoms: C_11  and  C_14
   11  A    between atoms: C_13  and  C_27
   12  A    between atoms: C_14  and  C_41
                            x       y       z     vdW  Elec       q    Type
                         _______ _______ _______ _____ _____    ______ ____

>  <TORSDO>
F 12

$$$$
=
 OpenBabel10272414423D

 43 47  0  0  1  0  0  0  0  0999 V2000
  188.5220  177.1270  141.3930 N   0  0  0  0  0  0  0  0  0  0  0  0
  188.2180  177.6530  146.5040 C   0  0  0  0  0  0  0  0  0  0  0  0
  189.6560  177.1550  144.6500 C   0  0  0  0  0  0  0  0  0  0  0  0
  187.1050  177.2840  145.7220 C   0  0  0  0  0  3  0  0  0  0  0  0
  188.0200  178.1090  147.9040 C   0  0  0  0  0  1  0  0  0  0  0  0
  188.5770  176.8240  143.8810 C   0  0  0  0  0  0  0  0  0  0  0  0
  189.5140  177.5840  145.9680 C   0  0  0  0  0  3  0  0  0  0  0  0
  187.2800  176.8570  144.3960 C   0  0  0  0  0  3  0  0  0  0  0  0
  189.0490  176.3570  142.5410 C   0  0  2  0  0  3  0  0  0  0  0  0
  190.5850  176.4920  142.6500 C   0  0  0  0  0  2  0  0  0  0  0  0
  190.8390  176.9810  143.9660 O   0  0  0  0  0  0  0  0  0  0  0  0
  187.8440  178.3590  141.8290 C   0  0  1  0  0  3  0  0  0  0  0  0
  188.7400  179.4340  141.8140 O   0  0  0  0  0  1  0  0  0  0  0  0
  186.6690  178.6900  140.9130 C   0  0  0  0  0  2  0  0  0  0  0  0
  184.2160  179.2030  143.7540 C   0  0  0  0  0  0  0  0  0  0  0  0
  183.0060  178.8570  143.1380 C   0  0  0  0  0  0  0  0  0  0  0  0
  181.8150  178.9140  143.8520 O   0  0  0  0  0  1  0  0  0  0  0  0
  184.1880  178.3930  141.0750 C   0  0  0  0  0  3  0  0  0  0  0  0
  185.4100  179.1430  143.0290 C   0  0  0  0  0  3  0  0  0  0  0  0
  185.3980  178.7340  141.6900 C   0  0  0  0  0  0  0  0  0  0  0  0
  184.2370  179.5990  145.0500 F   0  0  0  0  0  0  0  0  0  0  0  0
  182.9940  178.4530  141.7990 C   0  0  0  0  0  3  0  0  0  0  0  0
  189.5280  177.3540  140.3340 C   0  0  0  0  0  2  0  0  0  0  0  0
  189.2640  176.5690  139.0420 C   0  0  0  0  0  2  0  0  0  0  0  0
  188.7310  177.4530  137.9160 C   0  0  2  0  0  3  0  0  0  0  0  0
  189.1300  178.9050  138.1130 C   0  0  0  0  0  1  0  0  0  0  0  0
  187.2170  177.3350  137.7760 C   0  0  0  0  0  2  0  0  0  0  0  0
  185.3790  177.2360  136.0010 N   0  0  0  0  0  2  0  0  0  0  0  0
  186.7560  177.4220  136.3490 C   0  0  0  0  0  0  0  0  0  0  0  0
  187.5810  177.6790  135.4320 O   0  0  0  0  0  0  0  0  0  0  0  0
  184.3490  176.6680  136.8230 C   0  0  0  0  0  0  0  0  0  0  0  0
  183.0550  174.7720  137.7980 N   0  0  0  0  0  2  0  0  0  0  0  0
  183.4770  177.5090  137.3880 C   0  0  0  0  0  3  0  0  0  0  0  0
  182.3810  177.0380  138.2950 C   0  0  0  0  0  2  0  0  0  0  0  0
  184.3060  175.1780  137.1430 C   0  0  1  0  0  3  0  0  0  0  0  0
  182.7480  175.6880  138.8890 C   0  0  0  0  0  2  0  0  0  0  0  0
  184.4810  174.3600  135.8690 C   0  0  0  0  0  2  0  0  0  0  0  0
  185.6440  173.4320  135.9850 C   0  0  0  0  0  0  0  0  0  0  0  0
  187.7840  171.6820  136.2130 C   0  0  0  0  0  3  0  0  0  0  0  0
  186.7100  171.4010  135.3670 C   0  0  0  0  0  3  0  0  0  0  0  0
  187.7760  172.8640  136.9550 C   0  0  0  0  0  3  0  0  0  0  0  0
  185.6700  172.2730  135.2710 N   0  0  0  0  0  0  0  0  0  0  0  0
  186.7000  173.7480  136.8430 C   0  0  0  0  0  3  0  0  0  0  0  0
  1 12  1  0  0  0  0
  2  5  1  0  0  0  0
  3  7  2  0  0  0  0
  4  2  2  0  0  0  0
  6  8  2  0  0  0  0
  6  3  1  0  0  0  0
  7  2  1  0  0  0  0
  8  4  1  0  0  0  0
  9  1  1  6  0  0  0
  9 10  1  0  0  0  0
  9  6  1  0  0  0  0
 10 11  1  0  0  0  0
 11  3  1  0  0  0  0
 12 13  1  6  0  0  0
 14 20  1  0  0  0  0
 14 12  1  0  0  0  0
 15 21  1  0  0  0  0
 16 15  1  0  0  0  0
 16 17  1  0  0  0  0
 18 20  2  0  0  0  0
 18 22  1  0  0  0  0
 19 15  2  0  0  0  0
 20 19  1  0  0  0  0
 22 16  2  0  0  0  0
 23  1  1  0  0  0  0
 24 23  1  0  0  0  0
 25 26  1  1  0  0  0
 25 24  1  0  0  0  0
 27 25  1  0  0  0  0
 28 29  1  0  0  0  0
 28 31  1  0  0  0  0
 29 27  1  0  0  0  0
 30 29  2  0  0  0  0
 31 35  1  0  0  0  0
 31 33  2  0  0  0  0
 32 36  1  0  0  0  0
 33 34  1  0  0  0  0
 34 36  1  0  0  0  0
 35 37  1  6  0  0  0
 35 32  1  0  0  0  0
 37 38  1  0  0  0  0
 38 43  1  0  0  0  0
 39 41  1  0  0  0  0
 40 39  2  0  0  0  0
 42 40  1  0  0  0  0
 42 38  2  0  0  0  0
 43 41  2  0  0  0  0
M  END
>  <MODEL>
8

>  <REMARK>
 VINA RESULT:      -8.0      2.043      3.039
  Name = 
  12 active torsions:
  status: ('A' for Active; 'I' for Inactive)
    1  A    between atoms: C_1  and  C_34
    2  A    between atoms: C_1  and  C_35
    3  A    between atoms: C_2  and  C_6
    4  A    between atoms: C_2  and  C_13
    5  A    between atoms: N_3  and  C_4
    6  A    between atoms: C_6  and  C_12
    7  A    between atoms: N_8  and  C_27
    8  A    between atoms: N_8  and  C_30
    9  A    between atoms: N_8  and  C_34
   10  A    between atoms: C_11  and  C_14
   11  A    between atoms: C_13  and  C_27
   12  A    between atoms: C_14  and  C_41
                            x       y       z     vdW  Elec       q    Type
                         _______ _______ _______ _____ _____    ______ ____

>  <TORSDO>
F 12

$$$$
=
 OpenBabel10272414423D

 43 47  0  0  1  0  0  0  0  0999 V2000
  186.8710  178.5620  142.4820 N   0  0  0  0  0  0  0  0  0  0  0  0
  187.9040  177.9150  147.4830 C   0  0  0  0  0  0  0  0  0  0  0  0
  188.3310  177.1270  145.2580 C   0  0  0  0  0  0  0  0  0  0  0  0
  186.6930  178.4790  147.0360 C   0  0  0  0  0  3  0  0  0  0  0  0
  188.2990  178.0450  148.9090 C   0  0  0  0  0  1  0  0  0  0  0  0
  187.1710  177.6970  144.8150 C   0  0  0  0  0  0  0  0  0  0  0  0
  188.7360  177.2230  146.5870 C   0  0  0  0  0  3  0  0  0  0  0  0
  186.3120  178.3660  145.6880 C   0  0  0  0  0  3  0  0  0  0  0  0
  186.9860  177.3820  143.3660 C   0  0  2  0  0  3  0  0  0  0  0  0
  188.2450  176.5500  143.0300 C   0  0  0  0  0  2  0  0  0  0  0  0
  188.9850  176.4580  144.2470 O   0  0  0  0  0  0  0  0  0  0  0  0
  187.2460  178.2420  141.0950 C   0  0  1  0  0  3  0  0  0  0  0  0
  186.3150  178.7890  140.2040 O   0  0  0  0  0  1  0  0  0  0  0  0
  188.6280  178.7980  140.7600 C   0  0  0  0  0  2  0  0  0  0  0  0
  190.3750  176.4030  138.4020 C   0  0  0  0  0  0  0  0  0  0  0  0
  190.0980  176.9890  137.1600 C   0  0  0  0  0  0  0  0  0  0  0  0
  190.5660  176.4050  135.9900 O   0  0  0  0  0  1  0  0  0  0  0  0
  188.8700  178.7600  138.2690 C   0  0  0  0  0  3  0  0  0  0  0  0
  189.8990  176.9970  139.5760 C   0  0  0  0  0  3  0  0  0  0  0  0
  189.1510  178.1780  139.5100 C   0  0  0  0  0  0  0  0  0  0  0  0
  191.1000  175.2600  138.4750 F   0  0  0  0  0  0  0  0  0  0  0  0
  189.3450  178.1660  137.0950 C   0  0  0  0  0  3  0  0  0  0  0  0
  185.5640  179.2460  142.5940 C   0  0  0  0  0  2  0  0  0  0  0  0
  184.3690  178.2930  142.7210 C   0  0  0  0  0  2  0  0  0  0  0  0
  183.1320  178.9740  143.3050 C   0  0  2  0  0  3  0  0  0  0  0  0
  183.0900  178.8480  144.8170 C   0  0  0  0  0  1  0  0  0  0  0  0
  181.8470  178.4290  142.6930 C   0  0  0  0  0  2  0  0  0  0  0  0
  180.7020  179.6280  140.7460 N   0  0  0  0  0  2  0  0  0  0  0  0
  180.9560  179.5100  142.1500 C   0  0  0  0  0  0  0  0  0  0  0  0
  180.4020  180.3250  142.9350 O   0  0  0  0  0  0  0  0  0  0  0  0
  181.4330  179.0050  139.6800 C   0  0  0  0  0  0  0  0  0  0  0  0
  182.2360  178.8210  137.3260 N   0  0  0  0  0  2  0  0  0  0  0  0
  181.9880  177.8140  139.9250 C   0  0  0  0  0  3  0  0  0  0  0  0
  182.8050  177.0830  138.9040 C   0  0  0  0  0  2  0  0  0  0  0  0
  181.6770  179.7130  138.3510 C   0  0  1  0  0  3  0  0  0  0  0  0
  183.3510  178.0660  137.8820 C   0  0  0  0  0  2  0  0  0  0  0  0
  180.3760  180.3090  137.8260 C   0  0  0  0  0  2  0  0  0  0  0  0
  180.6240  181.6100  137.1390 C   0  0  0  0  0  0  0  0  0  0  0  0
  181.1100  184.0150  135.8430 C   0  0  0  0  0  3  0  0  0  0  0  0
  180.6950  182.8850  135.1350 C   0  0  0  0  0  3  0  0  0  0  0  0
  181.2820  183.9270  137.2260 C   0  0  0  0  0  3  0  0  0  0  0  0
  180.4630  181.7160  135.7910 N   0  0  0  0  0  0  0  0  0  0  0  0
  181.0380  182.7180  137.8820 C   0  0  0  0  0  3  0  0  0  0  0  0
  1 23  1  0  0  0  0
  2  5  1  0  0  0  0
  3  7  1  0  0  0  0
  4  2  1  0  0  0  0
  6  3  2  0  0  0  0
  6  8  1  0  0  0  0
  7  2  2  0  0  0  0
  8  4  2  0  0  0  0
  9  1  1  6  0  0  0
  9  6  1  0  0  0  0
 10  9  1  0  0  0  0
 10 11  1  0  0  0  0
 11  3  1  0  0  0  0
 12 13  1  6  0  0  0
 12  1  1  0  0  0  0
 14 12  1  0  0  0  0
 15 21  1  0  0  0  0
 15 19  1  0  0  0  0
 16 15  2  0  0  0  0
 17 16  1  0  0  0  0
 18 20  1  0  0  0  0
 20 19  2  0  0  0  0
 20 14  1  0  0  0  0
 22 16  1  0  0  0  0
 22 18  2  0  0  0  0
 23 24  1  0  0  0  0
 24 25  1  0  0  0  0
 25 26  1  1  0  0  0
 27 25  1  0  0  0  0
 28 29  1  0  0  0  0
 29 27  1  0  0  0  0
 29 30  2  0  0  0  0
 31 33  2  0  0  0  0
 31 28  1  0  0  0  0
 32 36  1  0  0  0  0
 32 35  1  0  0  0  0
 34 33  1  0  0  0  0
 35 37  1  6  0  0  0
 35 31  1  0  0  0  0
 36 34  1  0  0  0  0
 38 37  1  0  0  0  0
 38 43  1  0  0  0  0
 39 41  1  0  0  0  0
 40 42  1  0  0  0  0
 40 39  2  0  0  0  0
 41 43  2  0  0  0  0
 42 38  2  0  0  0  0
M  END
>  <MODEL>
9

>  <REMARK>
 VINA RESULT:      -8.0      3.541      7.010
  Name = 
  12 active torsions:
  status: ('A' for Active; 'I' for Inactive)
    1  A    between atoms: C_1  and  C_34
    2  A    between atoms: C_1  and  C_35
    3  A    between atoms: C_2  and  C_6
    4  A    between atoms: C_2  and  C_13
    5  A    between atoms: N_3  and  C_4
    6  A    between atoms: C_6  and  C_12
    7  A    between atoms: N_8  and  C_27
    8  A    between atoms: N_8  and  C_30
    9  A    between atoms: N_8  and  C_34
   10  A    between atoms: C_11  and  C_14
   11  A    between atoms: C_13  and  C_27
   12  A    between atoms: C_14  and  C_41
                            x       y       z     vdW  Elec       q    Type
                         _______ _______ _______ _____ _____    ______ ____

>  <TORSDO>
F 12

$$$$
