=
 OpenBabel10272400003D

 34 37  0  0  1  0  0  0  0  0999 V2000
  190.9210  177.3030  143.5590 C   0  0  1  0  0  3  0  0  0  0  0  0
  188.4340  177.1140  142.8060 C   0  0  2  0  0  3  0  0  0  0  0  0
  186.6360  178.6510  141.8190 N   0  0  0  0  0  0  0  0  0  0  0  0
  186.4570  177.7840  143.9850 O   0  0  0  0  0  0  0  0  0  0  0  0
  189.4360  177.5670  143.8910 C   0  0  1  0  0  3  0  0  0  0  0  0
  189.0240  177.1220  141.3700 C   0  0  1  0  0  3  0  0  0  0  0  0
  191.2400  177.3060  142.0600 C   0  0  0  0  0  2  0  0  0  0  0  0
  187.4110  178.8170  140.6550 N   0  0  0  0  0  2  0  0  0  0  0  0
  187.9820  177.5200  140.3140 C   0  0  1  0  0  3  0  0  0  0  0  0
  187.1360  177.8790  142.9260 C   0  0  0  0  0  0  0  0  0  0  0  0
  190.1990  177.9820  141.3010 N   0  0  0  0  0  2  0  0  0  0  0  0
  189.3780  176.3150  136.9800 C   0  0  0  0  0  0  0  0  0  0  0  0
  189.4950  177.5240  136.2880 C   0  0  0  0  0  3  0  0  0  0  0  0
  188.5280  177.5040  138.9180 C   0  0  0  0  0  0  0  0  0  0  0  0
  189.1260  178.7220  136.9070 C   0  0  0  0  0  3  0  0  0  0  0  0
  188.8940  176.3040  138.2910 C   0  0  0  0  0  3  0  0  0  0  0  0
  188.6410  178.7110  138.2180 C   0  0  0  0  0  3  0  0  0  0  0  0
  189.8350  174.8150  136.2040 Cl  0  0  0  0  0  0  0  0  0  0  0  0
  191.2590  179.6090  144.0880 O   0  0  0  0  0  1  0  0  0  0  0  0
  191.7950  178.3310  144.2600 C   0  0  0  0  0  2  0  0  0  0  0  0
  189.0730  176.9050  145.2190 C   0  0  0  0  0  2  0  0  0  0  0  0
  188.5690  177.2310  147.6410 C   0  0  0  0  0  1  0  0  0  0  0  0
  188.9690  177.9170  146.3490 C   0  0  0  0  0  2  0  0  0  0  0  0
  185.2770  179.1770  141.8430 C   0  0  0  0  0  2  0  0  0  0  0  0
  184.2630  178.0510  141.7050 C   0  0  0  0  0  2  0  0  0  0  0  0
  183.3410  178.2720  140.5130 C   0  0  0  0  0  2  0  0  0  0  0  0
  182.9630  176.9490  139.8660 C   0  0  0  0  0  2  0  0  0  0  0  0
  183.1120  175.7020  137.7640 N   0  0  0  0  0  0  0  0  0  0  0  0
  182.9980  177.0450  138.3470 C   0  0  2  0  0  3  0  0  0  0  0  0
  181.9650  174.8120  137.7950 C   0  0  0  0  0  1  0  0  0  0  0  0
  185.3850  176.0240  137.0690 C   0  0  0  0  0  3  0  0  0  0  0  0
  185.2450  177.4580  137.3600 C   0  0  0  0  0  3  0  0  0  0  0  0
  184.1350  177.9420  137.9220 C   0  0  0  0  0  3  0  0  0  0  0  0
  184.3570  175.2000  137.2600 C   0  0  0  0  0  3  0  0  0  0  0  0
  1  5  1  0  0  0  0
  1 20  1  1  0  0  0
  2 10  1  6  0  0  0
  2  5  1  0  0  0  0
  3 24  1  0  0  0  0
  3 10  1  0  0  0  0
  5 21  1  1  0  0  0
  6 11  1  1  0  0  0
  6  2  1  0  0  0  0
  7  1  1  0  0  0  0
  8  3  1  0  0  0  0
  9 14  1  6  0  0  0
  9  8  1  0  0  0  0
  9  6  1  0  0  0  0
 10  4  2  0  0  0  0
 11  7  1  0  0  0  0
 12 16  1  0  0  0  0
 13 15  1  0  0  0  0
 13 12  2  0  0  0  0
 15 17  2  0  0  0  0
 16 14  2  0  0  0  0
 17 14  1  0  0  0  0
 18 12  1  0  0  0  0
 19 20  1  0  0  0  0
 21 23  1  0  0  0  0
 23 22  1  0  0  0  0
 25 24  1  0  0  0  0
 26 25  1  0  0  0  0
 27 26  1  0  0  0  0
 28 30  1  0  0  0  0
 28 29  1  0  0  0  0
 29 27  1  1  0  0  0
 31 34  2  0  0  0  0
 31 32  1  0  0  0  0
 32 33  2  0  0  0  0
 33 29  1  0  0  0  0
 34 28  1  0  0  0  0
M  END
>  <MODEL>
1

>  <REMARK>
 VINA RESULT:      -7.4      0.000      0.000
  Name = 
  9 active torsions:
  status: ('A' for Active; 'I' for Inactive)
    1  A    between atoms: C_1  and  C_19
    2  A    between atoms: C_2  and  C_15
    3  A    between atoms: C_2  and  C_25
    4  A    between atoms: C_3  and  C_13
    5  A    between atoms: C_3  and  C_17
    6  A    between atoms: N_5  and  C_18
    7  A    between atoms: C_12  and  C_28
    8  A    between atoms: C_17  and  C_29
    9  A    between atoms: C_18  and  C_29
                            x       y       z     vdW  Elec       q    Type
                         _______ _______ _______ _____ _____    ______ ____

>  <TORSDO>
F 9

$$$$
=
 OpenBabel10272400003D

 34 37  0  0  1  0  0  0  0  0999 V2000
  190.9700  176.3080  137.2990 C   0  0  1  0  0  3  0  0  0  0  0  0
  189.4050  178.0550  138.4320 C   0  0  2  0  0  3  0  0  0  0  0  0
  187.3880  178.0410  140.0140 N   0  0  0  0  0  0  0  0  0  0  0  0
  187.1960  178.7280  137.7850 O   0  0  0  0  0  0  0  0  0  0  0  0
  189.6010  177.0240  137.2990 C   0  0  1  0  0  3  0  0  0  0  0  0
  190.2270  177.7420  139.7100 C   0  0  1  0  0  3  0  0  0  0  0  0
  191.6080  176.1720  138.6860 C   0  0  0  0  0  2  0  0  0  0  0  0
  188.1830  177.4760  141.0290 N   0  0  0  0  0  2  0  0  0  0  0  0
  189.4820  178.1370  140.9940 C   0  0  1  0  0  3  0  0  0  0  0  0
  187.9330  178.2740  138.7020 C   0  0  0  0  0  0  0  0  0  0  0  0
  190.6180  176.3380  139.7400 N   0  0  0  0  0  2  0  0  0  0  0  0
  191.4570  176.3520  143.7200 C   0  0  0  0  0  0  0  0  0  0  0  0
  191.8000  177.4260  144.5460 C   0  0  0  0  0  3  0  0  0  0  0  0
  190.2750  177.8680  142.2370 C   0  0  0  0  0  0  0  0  0  0  0  0
  191.3870  178.7200  144.2170 C   0  0  0  0  0  3  0  0  0  0  0  0
  190.6980  176.5720  142.5670 C   0  0  0  0  0  3  0  0  0  0  0  0
  190.6280  178.9400  143.0640 C   0  0  0  0  0  3  0  0  0  0  0  0
  191.9780  174.7320  144.1280 Cl  0  0  0  0  0  0  0  0  0  0  0  0
  190.6520  173.9680  137.6730 O   0  0  0  0  0  1  0  0  0  0  0  0
  190.8290  174.9290  136.6750 C   0  0  0  0  0  2  0  0  0  0  0  0
  189.3710  177.7060  135.9510 C   0  0  0  0  0  2  0  0  0  0  0  0
  187.3310  177.7550  134.5150 C   0  0  0  0  0  1  0  0  0  0  0  0
  188.4560  176.8910  135.0510 C   0  0  0  0  0  2  0  0  0  0  0  0
  186.0400  178.4880  140.3400 C   0  0  0  0  0  2  0  0  0  0  0  0
  186.0250  179.2240  141.6720 C   0  0  0  0  0  2  0  0  0  0  0  0
  185.1010  178.5460  142.6750 C   0  0  0  0  0  2  0  0  0  0  0  0
  185.4880  178.9090  144.1010 C   0  0  0  0  0  2  0  0  0  0  0  0
  185.8520  178.0130  146.3510 N   0  0  0  0  0  0  0  0  0  0  0  0
  185.7980  177.6670  144.9240 C   0  0  2  0  0  3  0  0  0  0  0  0
  184.6190  178.3140  147.0570 C   0  0  0  0  0  1  0  0  0  0  0  0
  188.2320  177.7580  146.4850 C   0  0  0  0  0  3  0  0  0  0  0  0
  188.2150  177.1230  145.1600 C   0  0  0  0  0  3  0  0  0  0  0  0
  187.0890  177.0500  144.4460 C   0  0  0  0  0  3  0  0  0  0  0  0
  187.0960  178.1710  147.0440 C   0  0  0  0  0  3  0  0  0  0  0  0
  1 20  1  1  0  0  0
  1  5  1  0  0  0  0
  1  7  1  0  0  0  0
  2 10  1  1  0  0  0
  2  6  1  0  0  0  0
  3 24  1  0  0  0  0
  3  8  1  0  0  0  0
  4 10  2  0  0  0  0
  5 21  1  6  0  0  0
  5  2  1  0  0  0  0
  6 11  1  1  0  0  0
  6  9  1  0  0  0  0
  7 11  1  0  0  0  0
  9  8  1  0  0  0  0
  9 14  1  1  0  0  0
 10  3  1  0  0  0  0
 12 18  1  0  0  0  0
 12 13  1  0  0  0  0
 14 16  1  0  0  0  0
 14 17  2  0  0  0  0
 15 13  2  0  0  0  0
 16 12  2  0  0  0  0
 17 15  1  0  0  0  0
 20 19  1  0  0  0  0
 22 23  1  0  0  0  0
 23 21  1  0  0  0  0
 24 25  1  0  0  0  0
 25 26  1  0  0  0  0
 26 27  1  0  0  0  0
 28 34  1  0  0  0  0
 28 30  1  0  0  0  0
 29 27  1  6  0  0  0
 29 28  1  0  0  0  0
 31 34  2  0  0  0  0
 32 31  1  0  0  0  0
 33 29  1  0  0  0  0
 33 32  2  0  0  0  0
M  END
>  <MODEL>
2

>  <REMARK>
 VINA RESULT:      -7.2      3.253      6.992
  Name = 
  9 active torsions:
  status: ('A' for Active; 'I' for Inactive)
    1  A    between atoms: C_1  and  C_19
    2  A    between atoms: C_2  and  C_15
    3  A    between atoms: C_2  and  C_25
    4  A    between atoms: C_3  and  C_13
    5  A    between atoms: C_3  and  C_17
    6  A    between atoms: N_5  and  C_18
    7  A    between atoms: C_12  and  C_28
    8  A    between atoms: C_17  and  C_29
    9  A    between atoms: C_18  and  C_29
                            x       y       z     vdW  Elec       q    Type
                         _______ _______ _______ _____ _____    ______ ____

>  <TORSDO>
F 9

$$$$
=
 OpenBabel10272400003D

 34 37  0  0  1  0  0  0  0  0999 V2000
  190.5360  176.9260  144.2900 C   0  0  1  0  0  3  0  0  0  0  0  0
  188.2170  177.0150  143.1060 C   0  0  2  0  0  3  0  0  0  0  0  0
  186.8210  178.7320  141.8110 N   0  0  0  0  0  0  0  0  0  0  0  0
  186.1580  177.9450  143.9130 O   0  0  0  0  0  0  0  0  0  0  0  0
  189.0580  177.3730  144.3510 C   0  0  1  0  0  3  0  0  0  0  0  0
  189.0470  176.9200  141.7980 C   0  0  1  0  0  3  0  0  0  0  0  0
  191.1120  176.8550  142.8710 C   0  0  0  0  0  2  0  0  0  0  0  0
  187.8030  178.7770  140.8030 N   0  0  0  0  0  2  0  0  0  0  0  0
  188.2640  177.4130  140.5730 C   0  0  1  0  0  3  0  0  0  0  0  0
  187.0200  177.9330  142.9920 C   0  0  0  0  0  0  0  0  0  0  0  0
  190.3110  177.6320  141.9370 N   0  0  0  0  0  2  0  0  0  0  0  0
  190.7220  176.2150  137.9190 C   0  0  0  0  0  0  0  0  0  0  0  0
  190.4310  177.0940  136.8720 C   0  0  0  0  0  3  0  0  0  0  0  0
  189.0420  177.2990  139.2970 C   0  0  0  0  0  0  0  0  0  0  0  0
  189.4450  178.0710  137.0330 C   0  0  0  0  0  3  0  0  0  0  0  0
  190.0280  176.3150  139.1280 C   0  0  0  0  0  3  0  0  0  0  0  0
  188.7500  178.1710  138.2420 C   0  0  0  0  0  3  0  0  0  0  0  0
  191.9530  174.9890  137.7160 Cl  0  0  0  0  0  0  0  0  0  0  0  0
  191.8870  177.1790  146.2460 O   0  0  0  0  0  1  0  0  0  0  0  0
  191.3900  177.8590  145.1320 C   0  0  0  0  0  2  0  0  0  0  0  0
  188.3890  176.7900  145.5950 C   0  0  0  0  0  2  0  0  0  0  0  0
  188.7550  177.4860  147.9630 C   0  0  0  0  0  1  0  0  0  0  0  0
  188.1100  177.8570  146.6420 C   0  0  0  0  0  2  0  0  0  0  0  0
  185.5530  179.4160  141.5920 C   0  0  0  0  0  2  0  0  0  0  0  0
  184.5750  178.5120  140.8560 C   0  0  0  0  0  2  0  0  0  0  0  0
  184.5380  178.8230  139.3660 C   0  0  0  0  0  2  0  0  0  0  0  0
  183.4140  179.7960  139.0420 C   0  0  0  0  0  2  0  0  0  0  0  0
  181.2100  178.8530  139.5430 N   0  0  0  0  0  0  0  0  0  0  0  0
  182.1980  179.0720  138.4790 C   0  0  2  0  0  3  0  0  0  0  0  0
  180.4470  179.9800  140.0490 C   0  0  0  0  0  1  0  0  0  0  0  0
  181.6110  176.4910  139.6470 C   0  0  0  0  0  3  0  0  0  0  0  0
  182.3830  176.5910  138.4000 C   0  0  0  0  0  3  0  0  0  0  0  0
  182.6330  177.7770  137.8380 C   0  0  0  0  0  3  0  0  0  0  0  0
  181.0510  177.5760  140.1760 C   0  0  0  0  0  3  0  0  0  0  0  0
  1  5  1  0  0  0  0
  1 20  1  1  0  0  0
  2 10  1  6  0  0  0
  2  5  1  0  0  0  0
  3 10  1  0  0  0  0
  5 21  1  1  0  0  0
  6 11  1  1  0  0  0
  6  2  1  0  0  0  0
  7  1  1  0  0  0  0
  8  3  1  0  0  0  0
  9 14  1  6  0  0  0
  9  8  1  0  0  0  0
  9  6  1  0  0  0  0
 10  4  2  0  0  0  0
 11  7  1  0  0  0  0
 12 16  1  0  0  0  0
 13 15  1  0  0  0  0
 13 12  2  0  0  0  0
 15 17  2  0  0  0  0
 16 14  2  0  0  0  0
 17 14  1  0  0  0  0
 18 12  1  0  0  0  0
 20 19  1  0  0  0  0
 21 23  1  0  0  0  0
 23 22  1  0  0  0  0
 24  3  1  0  0  0  0
 25 24  1  0  0  0  0
 26 25  1  0  0  0  0
 27 26  1  0  0  0  0
 28 30  1  0  0  0  0
 28 34  1  0  0  0  0
 29 27  1  1  0  0  0
 29 28  1  0  0  0  0
 31 34  2  0  0  0  0
 32 31  1  0  0  0  0
 33 32  2  0  0  0  0
 33 29  1  0  0  0  0
M  END
>  <MODEL>
3

>  <REMARK>
 VINA RESULT:      -7.0      1.560      2.161
  Name = 
  9 active torsions:
  status: ('A' for Active; 'I' for Inactive)
    1  A    between atoms: C_1  and  C_19
    2  A    between atoms: C_2  and  C_15
    3  A    between atoms: C_2  and  C_25
    4  A    between atoms: C_3  and  C_13
    5  A    between atoms: C_3  and  C_17
    6  A    between atoms: N_5  and  C_18
    7  A    between atoms: C_12  and  C_28
    8  A    between atoms: C_17  and  C_29
    9  A    between atoms: C_18  and  C_29
                            x       y       z     vdW  Elec       q    Type
                         _______ _______ _______ _____ _____    ______ ____

>  <TORSDO>
F 9

$$$$
=
 OpenBabel10272400003D

 34 37  0  0  1  0  0  0  0  0999 V2000
  182.3910  177.5650  137.1130 C   0  0  1  0  0  3  0  0  0  0  0  0
  182.7730  179.0130  139.2450 C   0  0  2  0  0  3  0  0  0  0  0  0
  183.2840  178.6250  141.7270 N   0  0  0  0  0  0  0  0  0  0  0  0
  181.2350  179.5050  141.0180 O   0  0  0  0  0  0  0  0  0  0  0  0
  181.8080  178.1260  138.4290 C   0  0  1  0  0  3  0  0  0  0  0  0
  184.2710  178.6650  139.0320 C   0  0  1  0  0  3  0  0  0  0  0  0
  183.9100  177.3620  137.1370 C   0  0  0  0  0  2  0  0  0  0  0  0
  184.5240  178.0520  141.3870 N   0  0  0  0  0  2  0  0  0  0  0  0
  185.1000  178.8490  140.3110 C   0  0  1  0  0  3  0  0  0  0  0  0
  182.3660  179.0450  140.7010 C   0  0  0  0  0  0  0  0  0  0  0  0
  184.4150  177.3150  138.5000 N   0  0  0  0  0  2  0  0  0  0  0  0
  188.4660  178.1320  138.6750 C   0  0  0  0  0  0  0  0  0  0  0  0
  189.2910  178.0300  139.7980 C   0  0  0  0  0  3  0  0  0  0  0  0
  186.5550  178.5450  140.1140 C   0  0  0  0  0  0  0  0  0  0  0  0
  188.7520  178.1890  141.0780 C   0  0  0  0  0  3  0  0  0  0  0  0
  187.1020  178.3920  138.8310 C   0  0  0  0  0  3  0  0  0  0  0  0
  187.3880  178.4480  141.2350 C   0  0  0  0  0  3  0  0  0  0  0  0
  189.1410  177.9380  137.0730 Cl  0  0  0  0  0  0  0  0  0  0  0  0
  181.5360  175.4870  137.9300 O   0  0  0  0  0  1  0  0  0  0  0  0
  181.7140  176.2470  136.7720 C   0  0  0  0  0  2  0  0  0  0  0  0
  180.5280  178.9090  138.1390 C   0  0  0  0  0  2  0  0  0  0  0  0
  180.3460  181.3780  137.8250 C   0  0  0  0  0  1  0  0  0  0  0  0
  180.7750  180.0700  137.1890 C   0  0  0  0  0  2  0  0  0  0  0  0
  182.9900  178.8910  143.1300 C   0  0  0  0  0  2  0  0  0  0  0  0
  184.2270  179.4100  143.8490 C   0  0  0  0  0  2  0  0  0  0  0  0
  184.3790  178.7780  145.2260 C   0  0  0  0  0  2  0  0  0  0  0  0
  185.7920  178.9680  145.7570 C   0  0  0  0  0  2  0  0  0  0  0  0
  187.6780  177.8330  146.8300 N   0  0  0  0  0  0  0  0  0  0  0  0
  186.4680  177.6300  146.0240 C   0  0  2  0  0  3  0  0  0  0  0  0
  187.5480  178.1760  148.2350 C   0  0  0  0  0  1  0  0  0  0  0  0
  189.1630  177.3500  145.0100 C   0  0  0  0  0  3  0  0  0  0  0  0
  188.0180  176.8480  144.2390 C   0  0  0  0  0  3  0  0  0  0  0  0
  186.7730  176.9460  144.7130 C   0  0  0  0  0  3  0  0  0  0  0  0
  188.9880  177.8100  146.2470 C   0  0  0  0  0  3  0  0  0  0  0  0
  1 20  1  1  0  0  0
  1  7  1  0  0  0  0
  1  5  1  0  0  0  0
  2 10  1  1  0  0  0
  3 24  1  0  0  0  0
  5 21  1  6  0  0  0
  5  2  1  0  0  0  0
  6 11  1  1  0  0  0
  6  2  1  0  0  0  0
  6  9  1  0  0  0  0
  7 11  1  0  0  0  0
  8  3  1  0  0  0  0
  9 14  1  6  0  0  0
  9  8  1  0  0  0  0
 10  4  2  0  0  0  0
 10  3  1  0  0  0  0
 12 16  2  0  0  0  0
 12 13  1  0  0  0  0
 13 15  2  0  0  0  0
 14 17  2  0  0  0  0
 15 17  1  0  0  0  0
 16 14  1  0  0  0  0
 18 12  1  0  0  0  0
 20 19  1  0  0  0  0
 23 22  1  0  0  0  0
 23 21  1  0  0  0  0
 24 25  1  0  0  0  0
 25 26  1  0  0  0  0
 26 27  1  0  0  0  0
 28 30  1  0  0  0  0
 29 27  1  6  0  0  0
 29 28  1  0  0  0  0
 31 34  2  0  0  0  0
 32 33  2  0  0  0  0
 32 31  1  0  0  0  0
 33 29  1  0  0  0  0
 34 28  1  0  0  0  0
M  END
>  <MODEL>
4

>  <REMARK>
 VINA RESULT:      -6.7      2.957      7.785
  Name = 
  9 active torsions:
  status: ('A' for Active; 'I' for Inactive)
    1  A    between atoms: C_1  and  C_19
    2  A    between atoms: C_2  and  C_15
    3  A    between atoms: C_2  and  C_25
    4  A    between atoms: C_3  and  C_13
    5  A    between atoms: C_3  and  C_17
    6  A    between atoms: N_5  and  C_18
    7  A    between atoms: C_12  and  C_28
    8  A    between atoms: C_17  and  C_29
    9  A    between atoms: C_18  and  C_29
                            x       y       z     vdW  Elec       q    Type
                         _______ _______ _______ _____ _____    ______ ____

>  <TORSDO>
F 9

$$$$
=
 OpenBabel10272400003D

 34 37  0  0  1  0  0  0  0  0999 V2000
  190.1290  177.2720  140.0010 C   0  0  1  0  0  3  0  0  0  0  0  0
  188.2070  178.6220  141.1280 C   0  0  2  0  0  3  0  0  0  0  0  0
  185.9630  178.1270  142.2640 N   0  0  0  0  0  0  0  0  0  0  0  0
  186.0810  179.2490  140.2130 O   0  0  0  0  0  0  0  0  0  0  0  0
  188.7100  177.8680  139.8770 C   0  0  1  0  0  3  0  0  0  0  0  0
  188.8270  178.1100  142.4560 C   0  0  1  0  0  3  0  0  0  0  0  0
  190.5300  176.8960  141.4330 C   0  0  0  0  0  2  0  0  0  0  0  0
  186.6300  177.4230  143.2850 N   0  0  0  0  0  2  0  0  0  0  0  0
  187.8340  178.1720  143.6250 C   0  0  1  0  0  3  0  0  0  0  0  0
  186.6960  178.6700  141.1500 C   0  0  0  0  0  0  0  0  0  0  0  0
  189.3620  176.7640  142.2900 N   0  0  0  0  0  2  0  0  0  0  0  0
  190.3040  176.9070  146.2370 C   0  0  0  0  0  0  0  0  0  0  0  0
  189.5000  176.9000  147.3810 C   0  0  0  0  0  3  0  0  0  0  0  0
  188.4260  177.7080  144.9220 C   0  0  0  0  0  0  0  0  0  0  0  0
  188.1630  177.3000  147.2980 C   0  0  0  0  0  3  0  0  0  0  0  0
  189.7690  177.3130  145.0100 C   0  0  0  0  0  3  0  0  0  0  0  0
  187.6290  177.7060  146.0720 C   0  0  0  0  0  3  0  0  0  0  0  0
  191.9780  176.4110  146.3400 Cl  0  0  0  0  0  0  0  0  0  0  0  0
  191.2250  176.2630  138.1320 O   0  0  0  0  0  1  0  0  0  0  0  0
  190.2520  176.0470  139.1090 C   0  0  0  0  0  2  0  0  0  0  0  0
  188.6390  178.7980  138.6670 C   0  0  0  0  0  2  0  0  0  0  0  0
  188.7320  178.0380  136.2920 C   0  0  0  0  0  1  0  0  0  0  0  0
  187.8550  178.1800  137.5210 C   0  0  0  0  0  2  0  0  0  0  0  0
  184.5380  178.3940  142.4060 C   0  0  0  0  0  2  0  0  0  0  0  0
  183.7440  177.6650  141.3310 C   0  0  0  0  0  2  0  0  0  0  0  0
  182.7360  178.5860  140.6580 C   0  0  0  0  0  2  0  0  0  0  0  0
  181.4250  177.8600  140.3980 C   0  0  0  0  0  2  0  0  0  0  0  0
  181.5890  175.9470  138.8770 N   0  0  0  0  0  0  0  0  0  0  0  0
  181.3290  177.3910  138.9520 C   0  0  2  0  0  3  0  0  0  0  0  0
  180.5870  175.0170  139.3660 C   0  0  0  0  0  1  0  0  0  0  0  0
  183.7320  176.2280  137.8370 C   0  0  0  0  0  3  0  0  0  0  0  0
  183.4110  177.6440  137.6120 C   0  0  0  0  0  3  0  0  0  0  0  0
  182.2890  178.1810  138.0980 C   0  0  0  0  0  3  0  0  0  0  0  0
  182.8500  175.4290  138.4350 C   0  0  0  0  0  3  0  0  0  0  0  0
  1 20  1  6  0  0  0
  1  7  1  0  0  0  0
  2 10  1  1  0  0  0
  2  6  1  0  0  0  0
  3 24  1  0  0  0  0
  3  8  1  0  0  0  0
  4 10  2  0  0  0  0
  5 21  1  6  0  0  0
  5  1  1  0  0  0  0
  5  2  1  0  0  0  0
  6 11  1  6  0  0  0
  6  9  1  0  0  0  0
  7 11  1  0  0  0  0
  8  9  1  0  0  0  0
  9 14  1  1  0  0  0
 10  3  1  0  0  0  0
 12 18  1  0  0  0  0
 12 13  1  0  0  0  0
 14 16  1  0  0  0  0
 14 17  2  0  0  0  0
 15 13  2  0  0  0  0
 16 12  2  0  0  0  0
 17 15  1  0  0  0  0
 19 20  1  0  0  0  0
 22 23  1  0  0  0  0
 23 21  1  0  0  0  0
 25 24  1  0  0  0  0
 26 25  1  0  0  0  0
 27 26  1  0  0  0  0
 28 29  1  0  0  0  0
 28 30  1  0  0  0  0
 29 27  1  1  0  0  0
 31 34  2  0  0  0  0
 32 31  1  0  0  0  0
 32 33  2  0  0  0  0
 33 29  1  0  0  0  0
 34 28  1  0  0  0  0
M  END
>  <MODEL>
5

>  <REMARK>
 VINA RESULT:      -6.7      2.592      5.502
  Name = 
  9 active torsions:
  status: ('A' for Active; 'I' for Inactive)
    1  A    between atoms: C_1  and  C_19
    2  A    between atoms: C_2  and  C_15
    3  A    between atoms: C_2  and  C_25
    4  A    between atoms: C_3  and  C_13
    5  A    between atoms: C_3  and  C_17
    6  A    between atoms: N_5  and  C_18
    7  A    between atoms: C_12  and  C_28
    8  A    between atoms: C_17  and  C_29
    9  A    between atoms: C_18  and  C_29
                            x       y       z     vdW  Elec       q    Type
                         _______ _______ _______ _____ _____    ______ ____

>  <TORSDO>
F 9

$$$$
=
 OpenBabel10272400003D

 34 37  0  0  1  0  0  0  0  0999 V2000
  186.9080  176.4830  136.0950 C   0  0  1  0  0  3  0  0  0  0  0  0
  188.4170  177.7530  137.7970 C   0  0  2  0  0  3  0  0  0  0  0  0
  189.5610  177.2670  140.0400 N   0  0  0  0  0  0  0  0  0  0  0  0
  187.7940  178.7920  139.8670 O   0  0  0  0  0  0  0  0  0  0  0  0
  187.0050  177.2420  137.4380 C   0  0  1  0  0  3  0  0  0  0  0  0
  189.5630  176.8990  137.1930 C   0  0  1  0  0  3  0  0  0  0  0  0
  188.1980  175.7620  135.6870 C   0  0  0  0  0  2  0  0  0  0  0  0
  190.3640  176.2890  139.4230 N   0  0  0  0  0  2  0  0  0  0  0  0
  190.7790  176.8100  138.1260 C   0  0  1  0  0  3  0  0  0  0  0  0
  188.5440  177.9580  139.2910 C   0  0  0  0  0  0  0  0  0  0  0  0
  189.0800  175.5720  136.8290 N   0  0  0  0  0  2  0  0  0  0  0  0
  194.0110  175.8680  136.3400 C   0  0  0  0  0  0  0  0  0  0  0  0
  194.0180  174.4820  136.5180 C   0  0  0  0  0  3  0  0  0  0  0  0
  191.9070  176.0130  137.5430 C   0  0  0  0  0  0  0  0  0  0  0  0
  192.9750  173.8600  137.2110 C   0  0  0  0  0  3  0  0  0  0  0  0
  192.9590  176.6330  136.8530 C   0  0  0  0  0  3  0  0  0  0  0  0
  191.9240  174.6250  137.7240 C   0  0  0  0  0  3  0  0  0  0  0  0
  195.3180  176.6470  135.4770 Cl  0  0  0  0  0  0  0  0  0  0  0  0
  185.7360  174.8660  137.4090 O   0  0  0  0  0  1  0  0  0  0  0  0
  185.7690  175.4780  136.1550 C   0  0  0  0  0  2  0  0  0  0  0  0
  186.0270  178.4170  137.4430 C   0  0  0  0  0  2  0  0  0  0  0  0
  184.4290  179.0870  139.2380 C   0  0  0  0  0  1  0  0  0  0  0  0
  184.7280  178.0710  138.1520 C   0  0  0  0  0  2  0  0  0  0  0  0
  189.8470  177.6500  141.4160 C   0  0  0  0  0  2  0  0  0  0  0  0
  191.2700  177.2660  141.7960 C   0  0  0  0  0  2  0  0  0  0  0  0
  191.5470  177.5330  143.2690 C   0  0  0  0  0  2  0  0  0  0  0  0
  190.2900  178.0140  143.9790 C   0  0  0  0  0  2  0  0  0  0  0  0
  188.2500  177.1300  145.0060 N   0  0  0  0  0  0  0  0  0  0  0  0
  189.6960  176.9200  144.8560 C   0  0  2  0  0  3  0  0  0  0  0  0
  187.3720  176.8640  143.8800 C   0  0  0  0  0  1  0  0  0  0  0  0
  188.4260  177.8060  147.2990 C   0  0  0  0  0  3  0  0  0  0  0  0
  189.8190  177.3370  147.3070 C   0  0  0  0  0  3  0  0  0  0  0  0
  190.4030  176.8980  146.1890 C   0  0  0  0  0  3  0  0  0  0  0  0
  187.6880  177.6940  146.1970 C   0  0  0  0  0  3  0  0  0  0  0  0
  1 20  1  1  0  0  0
  1  5  1  0  0  0  0
  2 10  1  1  0  0  0
  3 24  1  0  0  0  0
  5 21  1  6  0  0  0
  5  2  1  0  0  0  0
  6 11  1  1  0  0  0
  6  2  1  0  0  0  0
  6  9  1  0  0  0  0
  7  1  1  0  0  0  0
  7 11  1  0  0  0  0
  8  3  1  0  0  0  0
  9 14  1  6  0  0  0
  9  8  1  0  0  0  0
 10  4  2  0  0  0  0
 10  3  1  0  0  0  0
 12 13  2  0  0  0  0
 12 16  1  0  0  0  0
 13 15  1  0  0  0  0
 14 17  1  0  0  0  0
 15 17  2  0  0  0  0
 16 14  2  0  0  0  0
 18 12  1  0  0  0  0
 20 19  1  0  0  0  0
 21 23  1  0  0  0  0
 23 22  1  0  0  0  0
 24 25  1  0  0  0  0
 25 26  1  0  0  0  0
 26 27  1  0  0  0  0
 28 34  1  0  0  0  0
 29 27  1  6  0  0  0
 29 28  1  0  0  0  0
 29 33  1  0  0  0  0
 30 28  1  0  0  0  0
 31 32  1  0  0  0  0
 33 32  2  0  0  0  0
 34 31  2  0  0  0  0
M  END
>  <MODEL>
6

>  <REMARK>
 VINA RESULT:      -6.5      2.902      7.407
  Name = 
  9 active torsions:
  status: ('A' for Active; 'I' for Inactive)
    1  A    between atoms: C_1  and  C_19
    2  A    between atoms: C_2  and  C_15
    3  A    between atoms: C_2  and  C_25
    4  A    between atoms: C_3  and  C_13
    5  A    between atoms: C_3  and  C_17
    6  A    between atoms: N_5  and  C_18
    7  A    between atoms: C_12  and  C_28
    8  A    between atoms: C_17  and  C_29
    9  A    between atoms: C_18  and  C_29
                            x       y       z     vdW  Elec       q    Type
                         _______ _______ _______ _____ _____    ______ ____

>  <TORSDO>
F 9

$$$$
=
 OpenBabel10272400003D

 34 37  0  0  1  0  0  0  0  0999 V2000
  190.6220  176.9780  144.1280 C   0  0  1  0  0  3  0  0  0  0  0  0
  188.2750  177.0770  143.0020 C   0  0  2  0  0  3  0  0  0  0  0  0
  186.8730  178.7820  141.6980 N   0  0  0  0  0  0  0  0  0  0  0  0
  186.2530  178.0600  143.8360 O   0  0  0  0  0  0  0  0  0  0  0  0
  189.1540  177.4510  144.2150 C   0  0  1  0  0  3  0  0  0  0  0  0
  189.0690  176.9340  141.6760 C   0  0  1  0  0  3  0  0  0  0  0  0
  191.1600  176.8620  142.6970 C   0  0  0  0  0  2  0  0  0  0  0  0
  187.8300  178.7850  140.6650 N   0  0  0  0  0  2  0  0  0  0  0  0
  188.2630  177.4090  140.4590 C   0  0  1  0  0  3  0  0  0  0  0  0
  187.0900  178.0110  142.8940 C   0  0  0  0  0  0  0  0  0  0  0  0
  190.3480  177.6280  141.7640 N   0  0  0  0  0  2  0  0  0  0  0  0
  190.6700  176.1370  137.7930 C   0  0  0  0  0  0  0  0  0  0  0  0
  190.3280  176.9560  136.7130 C   0  0  0  0  0  3  0  0  0  0  0  0
  189.0050  177.2490  139.1660 C   0  0  0  0  0  0  0  0  0  0  0  0
  189.3230  177.9170  136.8560 C   0  0  0  0  0  3  0  0  0  0  0  0
  190.0100  176.2810  139.0160 C   0  0  0  0  0  3  0  0  0  0  0  0
  188.6630  178.0610  138.0800 C   0  0  0  0  0  3  0  0  0  0  0  0
  191.9240  174.9300  137.6130 Cl  0  0  0  0  0  0  0  0  0  0  0  0
  191.9580  177.2860  146.0860 O   0  0  0  0  0  1  0  0  0  0  0  0
  191.5130  177.9190  144.9240 C   0  0  0  0  0  2  0  0  0  0  0  0
  188.5080  176.9120  145.4910 C   0  0  0  0  0  2  0  0  0  0  0  0
  188.5100  177.4300  147.9310 C   0  0  0  0  0  1  0  0  0  0  0  0
  188.3250  177.9990  146.5380 C   0  0  0  0  0  2  0  0  0  0  0  0
  185.6120  179.4820  141.4940 C   0  0  0  0  0  2  0  0  0  0  0  0
  184.8090  178.8280  140.3780 C   0  0  0  0  0  2  0  0  0  0  0  0
  183.3920  178.5000  140.8270 C   0  0  0  0  0  2  0  0  0  0  0  0
  182.9740  177.1200  140.3440 C   0  0  0  0  0  2  0  0  0  0  0  0
  181.9300  176.9510  138.1350 N   0  0  0  0  0  0  0  0  0  0  0  0
  181.6680  177.1780  139.5620 C   0  0  2  0  0  3  0  0  0  0  0  0
  182.2760  175.6160  137.6780 C   0  0  0  0  0  1  0  0  0  0  0  0
  181.4990  179.2310  137.5310 C   0  0  0  0  0  3  0  0  0  0  0  0
  180.9430  179.4570  138.8730 C   0  0  0  0  0  3  0  0  0  0  0  0
  180.9900  178.5030  139.8070 C   0  0  0  0  0  3  0  0  0  0  0  0
  181.9590  178.0290  137.1910 C   0  0  0  0  0  3  0  0  0  0  0  0
  1  5  1  0  0  0  0
  1 20  1  1  0  0  0
  2 10  1  6  0  0  0
  2  5  1  0  0  0  0
  3 10  1  0  0  0  0
  5 21  1  1  0  0  0
  6 11  1  1  0  0  0
  6  2  1  0  0  0  0
  7  1  1  0  0  0  0
  8  3  1  0  0  0  0
  9 14  1  6  0  0  0
  9  8  1  0  0  0  0
  9  6  1  0  0  0  0
 10  4  2  0  0  0  0
 11  7  1  0  0  0  0
 12 16  1  0  0  0  0
 13 15  1  0  0  0  0
 13 12  2  0  0  0  0
 15 17  2  0  0  0  0
 16 14  2  0  0  0  0
 17 14  1  0  0  0  0
 18 12  1  0  0  0  0
 20 19  1  0  0  0  0
 21 23  1  0  0  0  0
 23 22  1  0  0  0  0
 24  3  1  0  0  0  0
 25 26  1  0  0  0  0
 25 24  1  0  0  0  0
 27 26  1  0  0  0  0
 28 29  1  0  0  0  0
 29 33  1  0  0  0  0
 29 27  1  1  0  0  0
 30 28  1  0  0  0  0
 31 32  1  0  0  0  0
 32 33  2  0  0  0  0
 34 31  2  0  0  0  0
 34 28  1  0  0  0  0
M  END
>  <MODEL>
7

>  <REMARK>
 VINA RESULT:      -6.5      1.393      1.844
  Name = 
  9 active torsions:
  status: ('A' for Active; 'I' for Inactive)
    1  A    between atoms: C_1  and  C_19
    2  A    between atoms: C_2  and  C_15
    3  A    between atoms: C_2  and  C_25
    4  A    between atoms: C_3  and  C_13
    5  A    between atoms: C_3  and  C_17
    6  A    between atoms: N_5  and  C_18
    7  A    between atoms: C_12  and  C_28
    8  A    between atoms: C_17  and  C_29
    9  A    between atoms: C_18  and  C_29
                            x       y       z     vdW  Elec       q    Type
                         _______ _______ _______ _____ _____    ______ ____

>  <TORSDO>
F 9

$$$$
=
 OpenBabel10272400003D

 34 37  0  0  1  0  0  0  0  0999 V2000
  190.7380  176.9430  139.3250 C   0  0  1  0  0  3  0  0  0  0  0  0
  188.9200  178.3340  140.5690 C   0  0  2  0  0  3  0  0  0  0  0  0
  186.8180  177.8780  141.9640 N   0  0  0  0  0  0  0  0  0  0  0  0
  186.6970  178.8760  139.8500 O   0  0  0  0  0  0  0  0  0  0  0  0
  189.3020  177.5120  139.3180 C   0  0  1  0  0  3  0  0  0  0  0  0
  189.6850  177.9120  141.8510 C   0  0  1  0  0  3  0  0  0  0  0  0
  191.2950  176.6610  140.7260 C   0  0  0  0  0  2  0  0  0  0  0  0
  187.6020  177.2470  142.9470 N   0  0  0  0  0  2  0  0  0  0  0  0
  188.8200  178.0310  143.1130 C   0  0  1  0  0  3  0  0  0  0  0  0
  187.4180  178.3620  140.7480 C   0  0  0  0  0  0  0  0  0  0  0  0
  190.2260  176.5650  141.7080 N   0  0  0  0  0  2  0  0  0  0  0  0
  189.5990  177.1890  146.7470 C   0  0  0  0  0  0  0  0  0  0  0  0
  190.9640  176.8980  146.6660 C   0  0  0  0  0  3  0  0  0  0  0  0
  189.5550  177.6550  144.3650 C   0  0  0  0  0  0  0  0  0  0  0  0
  191.6240  176.9800  145.4360 C   0  0  0  0  0  3  0  0  0  0  0  0
  188.8950  177.5640  145.6000 C   0  0  0  0  0  3  0  0  0  0  0  0
  190.9200  177.3560  144.2890 C   0  0  0  0  0  3  0  0  0  0  0  0
  188.7710  177.0810  148.2840 Cl  0  0  0  0  0  0  0  0  0  0  0  0
  191.7190  175.8060  137.4650 O   0  0  0  0  0  1  0  0  0  0  0  0
  190.7900  175.6690  138.4990 C   0  0  0  0  0  2  0  0  0  0  0  0
  189.0860  178.3660  138.0690 C   0  0  0  0  0  2  0  0  0  0  0  0
  187.7000  178.6150  136.0090 C   0  0  0  0  0  1  0  0  0  0  0  0
  188.2720  177.6340  137.0150 C   0  0  0  0  0  2  0  0  0  0  0  0
  185.4100  178.1350  142.2410 C   0  0  0  0  0  2  0  0  0  0  0  0
  185.1310  178.0460  143.7340 C   0  0  0  0  0  2  0  0  0  0  0  0
  183.7550  178.5980  144.0800 C   0  0  0  0  0  2  0  0  0  0  0  0
  183.1650  179.3620  142.9040 C   0  0  0  0  0  2  0  0  0  0  0  0
  181.8380  178.6050  140.9900 N   0  0  0  0  0  0  0  0  0  0  0  0
  181.8460  178.7510  142.4510 C   0  0  2  0  0  3  0  0  0  0  0  0
  182.6570  177.5770  140.3730 C   0  0  0  0  0  1  0  0  0  0  0  0
  180.2490  180.3710  140.6640 C   0  0  0  0  0  3  0  0  0  0  0  0
  179.9870  180.3710  142.1100 C   0  0  0  0  0  3  0  0  0  0  0  0
  180.7000  179.6030  142.9380 C   0  0  0  0  0  3  0  0  0  0  0  0
  181.1290  179.5190  140.1430 C   0  0  0  0  0  3  0  0  0  0  0  0
  1 20  1  6  0  0  0
  1  7  1  0  0  0  0
  2 10  1  1  0  0  0
  2  6  1  0  0  0  0
  3 24  1  0  0  0  0
  3  8  1  0  0  0  0
  4 10  2  0  0  0  0
  5 21  1  6  0  0  0
  5  1  1  0  0  0  0
  5  2  1  0  0  0  0
  6 11  1  6  0  0  0
  6  9  1  0  0  0  0
  7 11  1  0  0  0  0
  8  9  1  0  0  0  0
  9 14  1  1  0  0  0
 10  3  1  0  0  0  0
 12 18  1  0  0  0  0
 13 12  1  0  0  0  0
 14 16  1  0  0  0  0
 15 13  2  0  0  0  0
 16 12  2  0  0  0  0
 17 14  2  0  0  0  0
 17 15  1  0  0  0  0
 19 20  1  0  0  0  0
 22 23  1  0  0  0  0
 23 21  1  0  0  0  0
 24 25  1  0  0  0  0
 25 26  1  0  0  0  0
 27 26  1  0  0  0  0
 28 29  1  0  0  0  0
 29 27  1  6  0  0  0
 29 33  1  0  0  0  0
 30 28  1  0  0  0  0
 31 32  1  0  0  0  0
 32 33  2  0  0  0  0
 34 31  2  0  0  0  0
 34 28  1  0  0  0  0
M  END
>  <MODEL>
8

>  <REMARK>
 VINA RESULT:      -6.5      3.283      6.244
  Name = 
  9 active torsions:
  status: ('A' for Active; 'I' for Inactive)
    1  A    between atoms: C_1  and  C_19
    2  A    between atoms: C_2  and  C_15
    3  A    between atoms: C_2  and  C_25
    4  A    between atoms: C_3  and  C_13
    5  A    between atoms: C_3  and  C_17
    6  A    between atoms: N_5  and  C_18
    7  A    between atoms: C_12  and  C_28
    8  A    between atoms: C_17  and  C_29
    9  A    between atoms: C_18  and  C_29
                            x       y       z     vdW  Elec       q    Type
                         _______ _______ _______ _____ _____    ______ ____

>  <TORSDO>
F 9

$$$$
=
 OpenBabel10272400003D

 34 37  0  0  1  0  0  0  0  0999 V2000
  181.1170  178.8950  141.9080 C   0  0  1  0  0  3  0  0  0  0  0  0
  183.3610  177.8750  141.0630 C   0  0  2  0  0  3  0  0  0  0  0  0
  185.7250  178.7010  140.5170 N   0  0  0  0  0  0  0  0  0  0  0  0
  184.2840  177.9140  138.8500 O   0  0  0  0  0  0  0  0  0  0  0  0
  182.0840  178.6750  140.7230 C   0  0  1  0  0  3  0  0  0  0  0  0
  183.8100  178.0150  142.5420 C   0  0  1  0  0  3  0  0  0  0  0  0
  181.8040  178.9400  143.2790 C   0  0  0  0  0  2  0  0  0  0  0  0
  185.9150  179.0610  141.8650 N   0  0  0  0  0  2  0  0  0  0  0  0
  185.3380  178.0080  142.6910 C   0  0  1  0  0  3  0  0  0  0  0  0
  184.4600  178.1810  140.0700 C   0  0  0  0  0  0  0  0  0  0  0  0
  183.2270  179.2080  143.1470 N   0  0  0  0  0  2  0  0  0  0  0  0
  187.4810  177.8530  145.8380 C   0  0  0  0  0  0  0  0  0  0  0  0
  186.5970  178.3770  146.7870 C   0  0  0  0  0  3  0  0  0  0  0  0
  185.7880  178.1130  144.1170 C   0  0  0  0  0  0  0  0  0  0  0  0
  185.3130  178.7730  146.4030 C   0  0  0  0  0  3  0  0  0  0  0  0
  187.0780  177.7230  144.5060 C   0  0  0  0  0  3  0  0  0  0  0  0
  184.9110  178.6430  145.0700 C   0  0  0  0  0  3  0  0  0  0  0  0
  189.0900  177.3630  146.3170 Cl  0  0  0  0  0  0  0  0  0  0  0  0
  179.9820  180.7330  142.9320 O   0  0  0  0  0  1  0  0  0  0  0  0
  180.3320  180.1800  141.6990 C   0  0  0  0  0  2  0  0  0  0  0  0
  181.3490  177.9870  139.5740 C   0  0  0  0  0  2  0  0  0  0  0  0
  181.4330  175.5850  138.9010 C   0  0  0  0  0  1  0  0  0  0  0  0
  180.9270  176.5720  139.9360 C   0  0  0  0  0  2  0  0  0  0  0  0
  186.8610  178.7560  139.6050 C   0  0  0  0  0  2  0  0  0  0  0  0
  187.9940  177.8720  140.1040 C   0  0  0  0  0  2  0  0  0  0  0  0
  189.2640  178.6760  140.3490 C   0  0  0  0  0  2  0  0  0  0  0  0
  190.2920  177.8510  141.1090 C   0  0  0  0  0  2  0  0  0  0  0  0
  190.7440  177.9940  143.5110 N   0  0  0  0  0  0  0  0  0  0  0  0
  189.7970  177.4970  142.5040 C   0  0  2  0  0  3  0  0  0  0  0  0
  190.8200  179.4200  143.7740 C   0  0  0  0  0  1  0  0  0  0  0  0
  191.5400  175.8030  144.0740 C   0  0  0  0  0  3  0  0  0  0  0  0
  190.4230  175.2270  143.3110 C   0  0  0  0  0  3  0  0  0  0  0  0
  189.5960  176.0050  142.6090 C   0  0  0  0  0  3  0  0  0  0  0  0
  191.6760  177.1240  144.1660 C   0  0  0  0  0  3  0  0  0  0  0  0
  1 20  1  6  0  0  0
  1  7  1  0  0  0  0
  2 10  1  6  0  0  0
  2  6  1  0  0  0  0
  3  8  1  0  0  0  0
  4 10  2  0  0  0  0
  5 21  1  6  0  0  0
  5  2  1  0  0  0  0
  5  1  1  0  0  0  0
  6  9  1  0  0  0  0
  6 11  1  6  0  0  0
  8  9  1  0  0  0  0
  9 14  1  1  0  0  0
 10  3  1  0  0  0  0
 11  7  1  0  0  0  0
 12 18  1  0  0  0  0
 12 13  1  0  0  0  0
 14 16  1  0  0  0  0
 14 17  2  0  0  0  0
 15 13  2  0  0  0  0
 16 12  2  0  0  0  0
 17 15  1  0  0  0  0
 20 19  1  0  0  0  0
 21 23  1  0  0  0  0
 22 23  1  0  0  0  0
 24 25  1  0  0  0  0
 24  3  1  0  0  0  0
 25 26  1  0  0  0  0
 26 27  1  0  0  0  0
 28 30  1  0  0  0  0
 28 34  1  0  0  0  0
 29 27  1  6  0  0  0
 29 33  1  0  0  0  0
 29 28  1  0  0  0  0
 31 34  2  0  0  0  0
 32 31  1  0  0  0  0
 33 32  2  0  0  0  0
M  END
>  <MODEL>
9

>  <REMARK>
 VINA RESULT:      -6.5      3.361      8.265
  Name = 
  9 active torsions:
  status: ('A' for Active; 'I' for Inactive)
    1  A    between atoms: C_1  and  C_19
    2  A    between atoms: C_2  and  C_15
    3  A    between atoms: C_2  and  C_25
    4  A    between atoms: C_3  and  C_13
    5  A    between atoms: C_3  and  C_17
    6  A    between atoms: N_5  and  C_18
    7  A    between atoms: C_12  and  C_28
    8  A    between atoms: C_17  and  C_29
    9  A    between atoms: C_18  and  C_29
                            x       y       z     vdW  Elec       q    Type
                         _______ _______ _______ _____ _____    ______ ____

>  <TORSDO>
F 9

$$$$
