=
 OpenBabel10272415263D

 34 40  0  0  1  0  0  0  0  0999 V2000
  186.9770  178.0440  144.1760 C   0  0  0  0  0  0  0  0  0  0  0  0
  183.3910  178.7520  144.9640 C   0  0  0  0  0  3  0  0  0  0  0  0
  181.3640  179.0400  142.0510 C   0  0  0  0  0  0  0  0  0  0  0  0
  185.2990  178.4380  146.4140 C   0  0  0  0  0  3  0  0  0  0  0  0
  189.7190  177.5340  144.5470 N   0  0  0  0  0  0  0  0  0  0  0  0
  187.8870  177.8310  143.0260 C   0  0  0  0  0  3  0  0  0  0  0  0
  188.8670  177.7340  145.6810 C   0  0  0  0  0  0  0  0  0  0  0  0
  188.5530  177.8760  148.0780 C   0  0  0  0  0  3  0  0  0  0  0  0
  180.2370  179.2370  141.5290 O   0  0  0  0  0  0  0  0  0  0  0  0
  189.3900  177.6780  146.9750 C   0  0  0  0  0  3  0  0  0  0  0  0
  189.1940  177.5890  143.2100 C   0  0  0  0  0  0  0  0  0  0  0  0
  186.6570  178.1860  146.6000 C   0  0  0  0  0  0  0  0  0  0  0  0
  187.4990  177.9880  145.4840 C   0  0  1  0  0  3  0  0  0  0  0  0
  187.1890  178.1290  147.8910 C   0  0  0  0  0  3  0  0  0  0  0  0
  182.8680  178.8090  143.6740 C   0  0  0  0  0  0  0  0  0  0  0  0
  182.7750  178.7420  141.1670 S   0  0  0  0  0  0  0  0  0  0  0  0
  181.5630  179.0480  143.3900 N   0  0  0  0  0  2  0  0  0  0  0  0
  183.6870  178.6160  142.5720 C   0  0  0  0  0  0  0  0  0  0  0  0
  184.7630  178.4970  145.1250 C   0  0  0  0  0  0  0  0  0  0  0  0
  185.0490  178.3610  142.6950 C   0  0  0  0  0  3  0  0  0  0  0  0
  185.6040  178.2980  143.9880 C   0  0  0  0  0  0  0  0  0  0  0  0
  192.3330  177.3420  141.0890 C   0  0  0  0  0  3  0  0  0  0  0  0
  189.5630  177.0090  140.8140 C   0  0  0  0  0  3  0  0  0  0  0  0
  192.0970  176.4030  137.5130 C   0  0  0  0  0  0  0  0  0  0  0  0
  192.6350  176.7720  138.7550 C   0  0  0  0  0  3  0  0  0  0  0  0
  191.7960  176.9750  139.8540 C   0  0  0  0  0  0  0  0  0  0  0  0
  189.8650  176.4380  138.4800 C   0  0  0  0  0  3  0  0  0  0  0  0
  190.4010  176.8060  139.7150 C   0  0  0  0  0  0  0  0  0  0  0  0
  190.7090  176.2380  137.3840 C   0  0  0  0  0  3  0  0  0  0  0  0
  190.0970  177.3780  142.0580 C   0  0  0  0  0  0  0  0  0  0  0  0
  191.4880  177.5430  142.1850 C   0  0  0  0  0  3  0  0  0  0  0  0
  192.9850  176.1910  136.3590 C   0  0  0  0  0  0  0  0  0  0  0  0
  192.5480  175.6540  135.3070 O   0  0  0  0  0  0  0  0  0  0  0  0
  194.3180  176.5830  136.4190 O   0  0  0  0  0  1  0  0  0  0  0  0
  2 19  1  0  0  0  0
  3 17  1  0  0  0  0
  4 12  1  0  0  0  0
  5  7  2  0  0  0  0
  6 11  2  0  0  0  0
  6  1  1  0  0  0  0
  7 10  1  0  0  0  0
  9  3  2  0  0  0  0
 10  8  2  0  0  0  0
 11  5  1  0  0  0  0
 12 14  2  0  0  0  0
 13  1  1  6  0  0  0
 13  7  1  0  0  0  0
 13 12  1  0  0  0  0
 14  8  1  0  0  0  0
 15  2  2  0  0  0  0
 16  3  1  0  0  0  0
 16 18  1  0  0  0  0
 17 15  1  0  0  0  0
 18 20  2  0  0  0  0
 18 15  1  0  0  0  0
 19  4  2  0  0  0  0
 20 21  1  0  0  0  0
 21  1  2  0  0  0  0
 21 19  1  0  0  0  0
 22 31  1  0  0  0  0
 23 30  1  0  0  0  0
 24 25  2  0  0  0  0
 25 26  1  0  0  0  0
 26 22  2  0  0  0  0
 27 28  1  0  0  0  0
 28 26  1  0  0  0  0
 28 23  2  0  0  0  0
 29 24  1  0  0  0  0
 29 27  2  0  0  0  0
 30 31  2  0  0  0  0
 30 11  1  0  0  0  0
 32 34  1  0  0  0  0
 32 24  1  0  0  0  0
 33 32  2  0  0  0  0
M  END
>  <MODEL>
1

>  <REMARK>
 VINA RESULT:     -12.7      0.000      0.000
  Name = 
  2 active torsions:
  status: ('A' for Active; 'I' for Inactive)
    1  A    between atoms: C_7  and  C_11
    2  A    between atoms: C_18  and  C_30
                            x       y       z     vdW  Elec       q    Type
                         _______ _______ _______ _____ _____    ______ ____

>  <TORSDO>
F 2

$$$$
=
 OpenBabel10272415263D

 34 40  0  0  1  0  0  0  0  0999 V2000
  187.0190  177.9210  143.8400 C   0  0  0  0  0  0  0  0  0  0  0  0
  183.6470  178.7390  145.2320 C   0  0  0  0  0  3  0  0  0  0  0  0
  181.1720  179.1650  142.7070 C   0  0  0  0  0  0  0  0  0  0  0  0
  185.7570  178.3240  146.3340 C   0  0  0  0  0  3  0  0  0  0  0  0
  189.7620  177.3060  143.7350 N   0  0  0  0  0  0  0  0  0  0  0  0
  187.7140  177.7030  142.5490 C   0  0  0  0  0  3  0  0  0  0  0  0
  189.1220  177.5100  144.9980 C   0  0  0  0  0  0  0  0  0  0  0  0
  189.2200  177.6080  147.4160 C   0  0  0  0  0  3  0  0  0  0  0  0
  179.9820  179.4140  142.3870 O   0  0  0  0  0  0  0  0  0  0  0  0
  189.8520  177.4060  146.1850 C   0  0  0  0  0  3  0  0  0  0  0  0
  189.0230  177.4100  142.5060 C   0  0  0  0  0  0  0  0  0  0  0  0
  187.1160  178.0190  146.2850 C   0  0  0  0  0  0  0  0  0  0  0  0
  187.7500  177.8170  145.0390 C   0  0  1  0  0  3  0  0  0  0  0  0
  187.8550  177.9130  147.4660 C   0  0  0  0  0  3  0  0  0  0  0  0
  182.9170  178.8430  144.0500 C   0  0  0  0  0  0  0  0  0  0  0  0
  182.4030  178.8370  141.5940 S   0  0  0  0  0  0  0  0  0  0  0  0
  181.5930  179.1350  143.9940 N   0  0  0  0  0  2  0  0  0  0  0  0
  183.5310  178.6470  142.8220 C   0  0  0  0  0  0  0  0  0  0  0  0
  185.0150  178.4310  145.1550 C   0  0  0  0  0  0  0  0  0  0  0  0
  184.8830  178.3410  142.7090 C   0  0  0  0  0  3  0  0  0  0  0  0
  185.6450  178.2290  143.8900 C   0  0  0  0  0  0  0  0  0  0  0  0
  189.6450  176.7990  138.8110 C   0  0  0  0  0  3  0  0  0  0  0  0
  191.1140  177.1790  141.1680 C   0  0  0  0  0  3  0  0  0  0  0  0
  193.1080  176.5670  137.5170 C   0  0  0  0  0  0  0  0  0  0  0  0
  191.7060  176.5810  137.5590 C   0  0  0  0  0  3  0  0  0  0  0  0
  191.0400  176.7840  138.7700 C   0  0  0  0  0  0  0  0  0  0  0  0
  193.1760  176.9620  139.9160 C   0  0  0  0  0  3  0  0  0  0  0  0
  191.7800  176.9760  139.9580 C   0  0  0  0  0  0  0  0  0  0  0  0
  193.8360  176.7580  138.7010 C   0  0  0  0  0  3  0  0  0  0  0  0
  189.7110  177.1940  141.2150 C   0  0  0  0  0  0  0  0  0  0  0  0
  188.9840  177.0020  140.0270 C   0  0  0  0  0  3  0  0  0  0  0  0
  193.8040  176.3530  136.2390 C   0  0  0  0  0  0  0  0  0  0  0  0
  193.3600  175.5250  135.3990 O   0  0  0  0  0  0  0  0  0  0  0  0
  194.9630  177.0630  135.9440 O   0  0  0  0  0  1  0  0  0  0  0  0
  1 21  2  0  0  0  0
  3 17  1  0  0  0  0
  5  7  2  0  0  0  0
  6  1  1  0  0  0  0
  7 13  1  0  0  0  0
  7 10  1  0  0  0  0
  8 14  1  0  0  0  0
  9  3  2  0  0  0  0
 10  8  2  0  0  0  0
 11  6  2  0  0  0  0
 11  5  1  0  0  0  0
 12  4  1  0  0  0  0
 12 14  2  0  0  0  0
 13  1  1  6  0  0  0
 13 12  1  0  0  0  0
 15  2  2  0  0  0  0
 16  3  1  0  0  0  0
 16 18  1  0  0  0  0
 17 15  1  0  0  0  0
 18 15  1  0  0  0  0
 19  2  1  0  0  0  0
 19  4  2  0  0  0  0
 20 18  2  0  0  0  0
 20 21  1  0  0  0  0
 21 19  1  0  0  0  0
 22 31  1  0  0  0  0
 23 30  1  0  0  0  0
 24 25  2  0  0  0  0
 24 29  1  0  0  0  0
 25 26  1  0  0  0  0
 26 22  2  0  0  0  0
 26 28  1  0  0  0  0
 27 28  1  0  0  0  0
 28 23  2  0  0  0  0
 29 27  2  0  0  0  0
 30 11  1  0  0  0  0
 31 30  2  0  0  0  0
 32 24  1  0  0  0  0
 33 32  2  0  0  0  0
 34 32  1  0  0  0  0
M  END
>  <MODEL>
2

>  <REMARK>
 VINA RESULT:     -11.9      0.730      1.435
  Name = 
  2 active torsions:
  status: ('A' for Active; 'I' for Inactive)
    1  A    between atoms: C_7  and  C_11
    2  A    between atoms: C_18  and  C_30
                            x       y       z     vdW  Elec       q    Type
                         _______ _______ _______ _____ _____    ______ ____

>  <TORSDO>
F 2

$$$$
=
 OpenBabel10272415263D

 34 40  0  0  1  0  0  0  0  0999 V2000
  185.1840  178.3410  141.6890 C   0  0  0  0  0  0  0  0  0  0  0  0
  184.6780  178.5160  137.9890 C   0  0  0  0  0  3  0  0  0  0  0  0
  187.6750  177.9460  136.1520 C   0  0  0  0  0  0  0  0  0  0  0  0
  183.1200  178.7960  139.8150 C   0  0  0  0  0  3  0  0  0  0  0  0
  184.6200  178.4000  144.4440 N   0  0  0  0  0  0  0  0  0  0  0  0
  186.2420  178.1060  142.7010 C   0  0  0  0  0  3  0  0  0  0  0  0
  183.5750  178.6310  143.4940 C   0  0  0  0  0  0  0  0  0  0  0  0
  181.2540  179.1110  142.9920 C   0  0  0  0  0  3  0  0  0  0  0  0
  188.2670  177.8480  135.0470 O   0  0  0  0  0  0  0  0  0  0  0  0
  182.2710  178.8860  143.9260 C   0  0  0  0  0  3  0  0  0  0  0  0
  185.9660  178.1360  144.0140 C   0  0  0  0  0  0  0  0  0  0  0  0
  182.8380  178.8260  141.1800 C   0  0  0  0  0  0  0  0  0  0  0  0
  183.8680  178.5990  142.1190 C   0  0  2  0  0  3  0  0  0  0  0  0
  181.5370  179.0810  141.6220 C   0  0  0  0  0  3  0  0  0  0  0  0
  185.9770  178.2620  137.5560 C   0  0  0  0  0  0  0  0  0  0  0  0
  188.4350  177.7630  137.6520 S   0  0  0  0  0  0  0  0  0  0  0  0
  186.3510  178.2120  136.2520 N   0  0  0  0  0  2  0  0  0  0  0  0
  186.9950  178.0380  138.4700 C   0  0  0  0  0  0  0  0  0  0  0  0
  184.4200  178.5420  139.3690 C   0  0  0  0  0  0  0  0  0  0  0  0
  186.7750  178.0560  139.8440 C   0  0  0  0  0  3  0  0  0  0  0  0
  185.4690  178.3100  140.3100 C   0  0  0  0  0  0  0  0  0  0  0  0
  187.7810  177.8330  147.3340 C   0  0  0  0  0  3  0  0  0  0  0  0
  188.3090  177.5190  144.5990 C   0  0  0  0  0  3  0  0  0  0  0  0
  191.3500  176.8460  147.4230 C   0  0  0  0  0  0  0  0  0  0  0  0
  190.0690  177.2280  147.8460 C   0  0  0  0  0  3  0  0  0  0  0  0
  189.0560  177.4530  146.9110 C   0  0  0  0  0  0  0  0  0  0  0  0
  190.5970  176.9130  145.1110 C   0  0  0  0  0  3  0  0  0  0  0  0
  189.3220  177.2940  145.5330 C   0  0  0  0  0  0  0  0  0  0  0  0
  191.6070  176.6900  146.0520 C   0  0  0  0  0  3  0  0  0  0  0  0
  187.0250  177.9020  145.0180 C   0  0  0  0  0  0  0  0  0  0  0  0
  186.7720  178.0570  146.3920 C   0  0  0  0  0  3  0  0  0  0  0  0
  192.4140  176.6100  148.4120 C   0  0  0  0  0  0  0  0  0  0  0  0
  193.0460  175.5200  148.4250 O   0  0  0  0  0  0  0  0  0  0  0  0
  192.7320  177.5910  149.3460 O   0  0  0  0  0  1  0  0  0  0  0  0
  1 13  1  0  0  0  0
  1  6  1  0  0  0  0
  2 19  1  0  0  0  0
  3 17  1  0  0  0  0
  3 16  1  0  0  0  0
  4 12  1  0  0  0  0
  6 11  2  0  0  0  0
  7 10  1  0  0  0  0
  7  5  2  0  0  0  0
  8 10  2  0  0  0  0
  9  3  2  0  0  0  0
 11  5  1  0  0  0  0
 11 30  1  0  0  0  0
 12 14  2  0  0  0  0
 13 12  1  6  0  0  0
 13  7  1  0  0  0  0
 14  8  1  0  0  0  0
 15  2  2  0  0  0  0
 15 18  1  0  0  0  0
 16 18  1  0  0  0  0
 17 15  1  0  0  0  0
 18 20  2  0  0  0  0
 19  4  2  0  0  0  0
 19 21  1  0  0  0  0
 20 21  1  0  0  0  0
 21  1  2  0  0  0  0
 23 30  2  0  0  0  0
 23 28  1  0  0  0  0
 24 25  1  0  0  0  0
 24 32  1  0  0  0  0
 26 22  1  0  0  0  0
 26 25  2  0  0  0  0
 27 28  2  0  0  0  0
 27 29  1  0  0  0  0
 28 26  1  0  0  0  0
 29 24  2  0  0  0  0
 30 31  1  0  0  0  0
 31 22  2  0  0  0  0
 32 33  2  0  0  0  0
 32 34  1  0  0  0  0
M  END
>  <MODEL>
3

>  <REMARK>
 VINA RESULT:     -11.2      4.239      7.534
  Name = 
  2 active torsions:
  status: ('A' for Active; 'I' for Inactive)
    1  A    between atoms: C_7  and  C_11
    2  A    between atoms: C_18  and  C_30
                            x       y       z     vdW  Elec       q    Type
                         _______ _______ _______ _____ _____    ______ ____

>  <TORSDO>
F 2

$$$$
=
 OpenBabel10272415263D

 34 40  0  0  1  0  0  0  0  0999 V2000
  183.5480  178.3320  141.2240 C   0  0  0  0  0  0  0  0  0  0  0  0
  182.4920  178.1360  137.6430 C   0  0  0  0  0  3  0  0  0  0  0  0
  185.0770  176.9520  135.4990 C   0  0  0  0  0  0  0  0  0  0  0  0
  181.2830  178.8370  139.6140 C   0  0  0  0  0  3  0  0  0  0  0  0
  183.4330  178.7930  143.9970 N   0  0  0  0  0  0  0  0  0  0  0  0
  184.7170  178.0770  142.1000 C   0  0  0  0  0  3  0  0  0  0  0  0
  182.2860  179.0490  143.1800 C   0  0  0  0  0  0  0  0  0  0  0  0
  179.9880  179.7770  142.9480 C   0  0  0  0  0  3  0  0  0  0  0  0
  185.4740  176.6440  134.3460 O   0  0  0  0  0  0  0  0  0  0  0  0
  181.1050  179.5270  143.7520 C   0  0  0  0  0  3  0  0  0  0  0  0
  184.6550  178.2990  143.4220 C   0  0  0  0  0  0  0  0  0  0  0  0
  181.2240  179.0670  140.9870 C   0  0  0  0  0  0  0  0  0  0  0  0
  182.3540  178.8150  141.7950 C   0  0  1  0  0  3  0  0  0  0  0  0
  180.0470  179.5470  141.5690 C   0  0  0  0  0  3  0  0  0  0  0  0
  183.6690  177.6580  137.0700 C   0  0  0  0  0  0  0  0  0  0  0  0
  186.0360  176.8460  136.8890 S   0  0  0  0  0  0  0  0  0  0  0  0
  183.8250  177.4050  135.7460 N   0  0  0  0  0  2  0  0  0  0  0  0
  184.7840  177.4090  137.8550 C   0  0  0  0  0  0  0  0  0  0  0  0
  182.4580  178.3590  139.0290 C   0  0  0  0  0  0  0  0  0  0  0  0
  184.7860  177.6180  139.2300 C   0  0  0  0  0  3  0  0  0  0  0  0
  183.6080  178.1000  139.8360 C   0  0  0  0  0  0  0  0  0  0  0  0
  186.8730  178.0160  146.4900 C   0  0  0  0  0  3  0  0  0  0  0  0
  187.0220  177.5790  143.7250 C   0  0  0  0  0  3  0  0  0  0  0  0
  190.3710  176.8430  146.1590 C   0  0  0  0  0  0  0  0  0  0  0  0
  189.1760  177.3080  146.7270 C   0  0  0  0  0  3  0  0  0  0  0  0
  188.0610  177.5540  145.9230 C   0  0  0  0  0  0  0  0  0  0  0  0
  189.3250  176.8690  143.9620 C   0  0  0  0  0  3  0  0  0  0  0  0
  188.1360  177.3330  144.5290 C   0  0  0  0  0  0  0  0  0  0  0  0
  190.4380  176.6260  144.7740 C   0  0  0  0  0  3  0  0  0  0  0  0
  185.8240  178.0440  144.2900 C   0  0  0  0  0  0  0  0  0  0  0  0
  185.7610  178.2600  145.6780 C   0  0  0  0  0  3  0  0  0  0  0  0
  191.5420  176.5850  147.0120 C   0  0  0  0  0  0  0  0  0  0  0  0
  191.7820  177.3200  148.0070 O   0  0  0  0  0  1  0  0  0  0  0  0
  192.3980  175.5270  146.7270 O   0  0  0  0  0  0  0  0  0  0  0  0
  1 13  1  0  0  0  0
  1  6  1  0  0  0  0
  2 19  1  0  0  0  0
  3 17  1  0  0  0  0
  3 16  1  0  0  0  0
  4 12  1  0  0  0  0
  6 11  2  0  0  0  0
  7 10  1  0  0  0  0
  7  5  2  0  0  0  0
  8 10  2  0  0  0  0
  9  3  2  0  0  0  0
 11  5  1  0  0  0  0
 11 30  1  0  0  0  0
 12 14  2  0  0  0  0
 13 12  1  6  0  0  0
 13  7  1  0  0  0  0
 14  8  1  0  0  0  0
 15  2  2  0  0  0  0
 15 18  1  0  0  0  0
 16 18  1  0  0  0  0
 17 15  1  0  0  0  0
 18 20  2  0  0  0  0
 19  4  2  0  0  0  0
 19 21  1  0  0  0  0
 20 21  1  0  0  0  0
 21  1  2  0  0  0  0
 23 30  2  0  0  0  0
 23 28  1  0  0  0  0
 24 25  1  0  0  0  0
 24 32  1  0  0  0  0
 26 22  1  0  0  0  0
 26 25  2  0  0  0  0
 27 28  2  0  0  0  0
 27 29  1  0  0  0  0
 28 26  1  0  0  0  0
 29 24  2  0  0  0  0
 30 31  1  0  0  0  0
 31 22  2  0  0  0  0
 32 33  1  0  0  0  0
 34 32  2  0  0  0  0
M  END
>  <MODEL>
4

>  <REMARK>
 VINA RESULT:     -11.0      4.251      7.457
  Name = 
  2 active torsions:
  status: ('A' for Active; 'I' for Inactive)
    1  A    between atoms: C_7  and  C_11
    2  A    between atoms: C_18  and  C_30
                            x       y       z     vdW  Elec       q    Type
                         _______ _______ _______ _____ _____    ______ ____

>  <TORSDO>
F 2

$$$$
=
 OpenBabel10272415263D

 34 40  0  0  1  0  0  0  0  0999 V2000
  190.4320  176.6810  138.1100 C   0  0  0  0  0  0  0  0  0  0  0  0
  192.4440  175.4620  135.2030 C   0  0  0  0  0  3  0  0  0  0  0  0
  195.5620  174.0420  136.1740 C   0  0  0  0  0  0  0  0  0  0  0  0
  190.2720  176.5170  135.2950 C   0  0  0  0  0  3  0  0  0  0  0  0
  188.3200  177.8240  139.5750 N   0  0  0  0  0  0  0  0  0  0  0  0
  190.4820  176.7820  139.5880 C   0  0  0  0  0  3  0  0  0  0  0  0
  188.2400  177.7410  138.1480 C   0  0  0  0  0  0  0  0  0  0  0  0
  187.0440  178.1420  136.0810 C   0  0  0  0  0  3  0  0  0  0  0  0
  196.6470  173.4910  135.8590 O   0  0  0  0  0  0  0  0  0  0  0  0
  187.1150  178.2250  137.4750 C   0  0  0  0  0  3  0  0  0  0  0  0
  189.4710  177.3290  140.2800 C   0  0  0  0  0  0  0  0  0  0  0  0
  189.2240  177.0850  136.0180 C   0  0  0  0  0  0  0  0  0  0  0  0
  189.3010  177.1680  137.4260 C   0  0  2  0  0  3  0  0  0  0  0  0
  188.0950  177.5720  135.3540 C   0  0  0  0  0  3  0  0  0  0  0  0
  193.5660  174.9790  135.8730 C   0  0  0  0  0  0  0  0  0  0  0  0
  195.1080  174.3970  137.7650 S   0  0  0  0  0  0  0  0  0  0  0  0
  194.6350  174.4110  135.2580 N   0  0  0  0  0  2  0  0  0  0  0  0
  193.6510  175.0560  137.2540 C   0  0  0  0  0  0  0  0  0  0  0  0
  191.4020  176.0290  135.9550 C   0  0  0  0  0  0  0  0  0  0  0  0
  192.6380  175.6110  138.0300 C   0  0  0  0  0  3  0  0  0  0  0  0
  191.4910  176.1070  137.3780 C   0  0  0  0  0  0  0  0  0  0  0  0
  190.7960  177.6400  143.8240 C   0  0  0  0  0  3  0  0  0  0  0  0
  188.3370  177.4040  142.5000 C   0  0  0  0  0  3  0  0  0  0  0  0
  188.4540  177.6830  146.6940 C   0  0  0  0  0  0  0  0  0  0  0  0
  189.6450  177.7070  145.9530 C   0  0  0  0  0  3  0  0  0  0  0  0
  189.6110  177.6150  144.5600 C   0  0  0  0  0  0  0  0  0  0  0  0
  187.1850  177.4720  144.6290 C   0  0  0  0  0  3  0  0  0  0  0  0
  188.3710  177.4960  143.8920 C   0  0  0  0  0  0  0  0  0  0  0  0
  187.2270  177.5650  146.0230 C   0  0  0  0  0  3  0  0  0  0  0  0
  189.5270  177.4280  141.7550 C   0  0  0  0  0  0  0  0  0  0  0  0
  190.7550  177.5470  142.4300 C   0  0  0  0  0  3  0  0  0  0  0  0
  188.4960  177.7800  148.1610 C   0  0  0  0  0  0  0  0  0  0  0  0
  187.5920  177.2530  148.8630 O   0  0  0  0  0  1  0  0  0  0  0  0
  189.5360  178.4570  148.7890 O   0  0  0  0  0  0  0  0  0  0  0  0
  1  6  1  0  0  0  0
  2 15  2  0  0  0  0
  2 19  1  0  0  0  0
  3 16  1  0  0  0  0
  4 19  2  0  0  0  0
  4 12  1  0  0  0  0
  5 11  1  0  0  0  0
  6 11  2  0  0  0  0
  7  5  2  0  0  0  0
  8 10  2  0  0  0  0
  9  3  2  0  0  0  0
 10  7  1  0  0  0  0
 11 30  1  0  0  0  0
 13 12  1  1  0  0  0
 13  1  1  0  0  0  0
 13  7  1  0  0  0  0
 14 12  2  0  0  0  0
 14  8  1  0  0  0  0
 15 18  1  0  0  0  0
 17 15  1  0  0  0  0
 17  3  1  0  0  0  0
 18 16  1  0  0  0  0
 18 20  2  0  0  0  0
 19 21  1  0  0  0  0
 21 20  1  0  0  0  0
 21  1  2  0  0  0  0
 22 26  1  0  0  0  0
 23 28  1  0  0  0  0
 24 32  1  0  0  0  0
 25 24  2  0  0  0  0
 26 25  1  0  0  0  0
 27 29  2  0  0  0  0
 28 26  2  0  0  0  0
 28 27  1  0  0  0  0
 29 24  1  0  0  0  0
 30 31  1  0  0  0  0
 30 23  2  0  0  0  0
 31 22  2  0  0  0  0
 32 34  2  0  0  0  0
 32 33  1  0  0  0  0
M  END
>  <MODEL>
5

>  <REMARK>
 VINA RESULT:     -10.6      4.495     10.397
  Name = 
  2 active torsions:
  status: ('A' for Active; 'I' for Inactive)
    1  A    between atoms: C_7  and  C_11
    2  A    between atoms: C_18  and  C_30
                            x       y       z     vdW  Elec       q    Type
                         _______ _______ _______ _____ _____    ______ ____

>  <TORSDO>
F 2

$$$$
=
 OpenBabel10272415263D

 34 40  0  0  0  0  0  0  0  0999 V2000
  187.3020  178.0430  141.7760 C   0  0  0  0  0  0  0  0  0  0  0  0
  185.6240  178.4330  145.0950 C   0  0  0  0  0  3  0  0  0  0  0  0
  187.7640  177.6450  147.8290 C   0  0  0  0  0  0  0  0  0  0  0  0
  184.7980  178.7860  142.8510 C   0  0  0  0  0  3  0  0  0  0  0  0
  187.6900  178.0370  138.9900 N   0  0  0  0  0  2  0  0  0  0  0  0
  188.6030  177.6590  141.1770 C   0  0  0  0  0  3  0  0  0  0  0  0
  186.4210  178.4130  139.5360 C   0  0  0  0  0  0  0  0  0  0  0  0
  184.1330  179.1460  139.2310 C   0  0  0  0  0  3  0  0  0  0  0  0
  187.9440  177.5370  149.0690 O   0  0  0  0  0  0  0  0  0  0  0  0
  185.3700  178.7800  138.6910 C   0  0  0  0  0  3  0  0  0  0  0  0
  188.7810  177.6590  139.8460 C   0  0  0  0  0  0  0  0  0  0  0  0
  184.9880  178.7840  141.4700 C   0  0  0  0  0  0  0  0  0  0  0  0
  186.2380  178.4130  140.9290 C   0  0  0  0  0  0  0  0  0  0  0  0
  183.9420  179.1480  140.6170 C   0  0  0  0  0  3  0  0  0  0  0  0
  186.6710  178.0680  145.9380 C   0  0  0  0  0  0  0  0  0  0  0  0
  188.9520  177.3200  146.6700 S   0  0  0  0  0  0  0  0  0  0  0  0
  186.5850  178.0380  147.2920 N   0  0  0  0  0  2  0  0  0  0  0  0
  187.9030  177.7020  145.4160 C   0  0  0  0  0  0  0  0  0  0  0  0
  185.8410  178.4220  143.7070 C   0  0  0  0  0  0  0  0  0  0  0  0
  188.1520  177.6800  144.0480 C   0  0  0  0  0  3  0  0  0  0  0  0
  187.1100  178.0450  143.1710 C   0  0  0  0  0  0  0  0  0  0  0  0
  192.4840  176.9220  139.4500 C   0  0  0  0  0  3  0  0  0  0  0  0
  190.1440  176.8890  137.9060 C   0  0  0  0  0  3  0  0  0  0  0  0
  193.8200  175.7900  136.1860 C   0  0  0  0  0  0  0  0  0  0  0  0
  193.7610  176.1740  137.5330 C   0  0  0  0  0  3  0  0  0  0  0  0
  192.5410  176.5400  138.1090 C   0  0  0  0  0  0  0  0  0  0  0  0
  191.4200  176.1400  135.9900 C   0  0  0  0  0  3  0  0  0  0  0  0
  191.3620  176.5230  137.3310 C   0  0  0  0  0  0  0  0  0  0  0  0
  192.6440  175.7750  135.4200 C   0  0  0  0  0  3  0  0  0  0  0  0
  190.0800  177.2740  139.2550 C   0  0  0  0  0  0  0  0  0  0  0  0
  191.2600  177.2870  140.0200 C   0  0  0  0  0  3  0  0  0  0  0  0
  195.1070  175.4050  135.5850 C   0  0  0  0  0  0  0  0  0  0  0  0
  195.1400  174.7630  134.5010 O   0  0  0  0  0  0  0  0  0  0  0  0
  196.3020  175.7470  136.2090 O   0  0  0  0  0  1  0  0  0  0  0  0
  1 21  1  0  0  0  0
  2 15  1  0  0  0  0
  3  9  2  0  0  0  0
  4 19  1  0  0  0  0
  5  7  1  0  0  0  0
  5 11  1  0  0  0  0
  6  1  1  0  0  0  0
  7 13  1  0  0  0  0
  8 14  2  0  0  0  0
 10  8  1  0  0  0  0
 10  7  2  0  0  0  0
 11  6  2  0  0  0  0
 12  4  2  0  0  0  0
 13 12  1  0  0  0  0
 13  1  2  0  0  0  0
 14 12  1  0  0  0  0
 15 17  1  0  0  0  0
 16  3  1  0  0  0  0
 17  3  1  0  0  0  0
 18 15  2  0  0  0  0
 18 16  1  0  0  0  0
 19  2  2  0  0  0  0
 20 18  1  0  0  0  0
 21 19  1  0  0  0  0
 21 20  2  0  0  0  0
 22 31  1  0  0  0  0
 23 30  1  0  0  0  0
 24 25  2  0  0  0  0
 25 26  1  0  0  0  0
 26 22  2  0  0  0  0
 27 28  1  0  0  0  0
 28 23  2  0  0  0  0
 28 26  1  0  0  0  0
 29 27  2  0  0  0  0
 29 24  1  0  0  0  0
 30 11  1  0  0  0  0
 30 31  2  0  0  0  0
 32 24  1  0  0  0  0
 32 34  1  0  0  0  0
 33 32  2  0  0  0  0
M  END
>  <MODEL>
6

>  <REMARK>
 VINA RESULT:     -10.2      3.115      5.062
  Name = 
  2 active torsions:
  status: ('A' for Active; 'I' for Inactive)
    1  A    between atoms: C_7  and  C_11
    2  A    between atoms: C_18  and  C_30
                            x       y       z     vdW  Elec       q    Type
                         _______ _______ _______ _____ _____    ______ ____

>  <TORSDO>
F 2

$$$$
=
 OpenBabel10272415263D

 34 40  0  0  1  0  0  0  0  0999 V2000
  189.4300  176.7560  137.9950 C   0  0  0  0  0  0  0  0  0  0  0  0
  187.3110  176.6400  134.9170 C   0  0  0  0  0  3  0  0  0  0  0  0
  183.8560  177.1760  135.5930 C   0  0  0  0  0  0  0  0  0  0  0  0
  189.6940  176.3680  135.2090 C   0  0  0  0  0  3  0  0  0  0  0  0
  191.7050  176.6710  139.6480 N   0  0  0  0  0  0  0  0  0  0  0  0
  189.3300  176.9560  139.4600 C   0  0  0  0  0  3  0  0  0  0  0  0
  191.8370  176.4740  138.2360 C   0  0  0  0  0  0  0  0  0  0  0  0
  193.2160  176.0470  136.2910 C   0  0  0  0  0  3  0  0  0  0  0  0
  182.6730  177.2770  135.1790 O   0  0  0  0  0  0  0  0  0  0  0  0
  193.0930  176.2390  137.6710 C   0  0  0  0  0  3  0  0  0  0  0  0
  190.4190  176.9140  140.2430 C   0  0  0  0  0  0  0  0  0  0  0  0
  190.8220  176.3250  136.0260 C   0  0  0  0  0  0  0  0  0  0  0  0
  190.6940  176.5190  137.4190 C   0  0  1  0  0  3  0  0  0  0  0  0
  192.0830  176.0900  135.4700 C   0  0  0  0  0  3  0  0  0  0  0  0
  186.0580  176.8750  135.4780 C   0  0  0  0  0  0  0  0  0  0  0  0
  184.3050  177.3240  137.2170 S   0  0  0  0  0  0  0  0  0  0  0  0
  184.9020  176.9340  134.7680 N   0  0  0  0  0  2  0  0  0  0  0  0
  185.9220  177.0660  136.8450 C   0  0  0  0  0  0  0  0  0  0  0  0
  188.4320  176.6020  135.7610 C   0  0  0  0  0  0  0  0  0  0  0  0
  187.0100  177.0340  137.7100 C   0  0  0  0  0  3  0  0  0  0  0  0
  188.2900  176.8000  137.1690 C   0  0  0  0  0  0  0  0  0  0  0  0
  191.3450  177.4910  143.8790 C   0  0  0  0  0  3  0  0  0  0  0  0
  189.0490  177.1140  142.3160 C   0  0  0  0  0  3  0  0  0  0  0  0
  188.7020  177.6760  146.4680 C   0  0  0  0  0  0  0  0  0  0  0  0
  189.9660  177.6770  145.8610 C   0  0  0  0  0  3  0  0  0  0  0  0
  190.0860  177.4900  144.4820 C   0  0  0  0  0  0  0  0  0  0  0  0
  187.6700  177.3000  144.2980 C   0  0  0  0  0  3  0  0  0  0  0  0
  188.9290  177.3000  143.6940 C   0  0  0  0  0  0  0  0  0  0  0  0
  187.5570  177.4870  145.6790 C   0  0  0  0  0  3  0  0  0  0  0  0
  190.3120  177.1140  141.7040 C   0  0  0  0  0  0  0  0  0  0  0  0
  191.4570  177.3040  142.4980 C   0  0  0  0  0  3  0  0  0  0  0  0
  188.5820  177.8730  147.9210 C   0  0  0  0  0  0  0  0  0  0  0  0
  187.5270  177.5430  148.5260 O   0  0  0  0  0  0  0  0  0  0  0  0
  189.6340  178.4270  148.6430 O   0  0  0  0  0  1  0  0  0  0  0  0
  1  6  1  0  0  0  0
  2 15  2  0  0  0  0
  2 19  1  0  0  0  0
  3 16  1  0  0  0  0
  4 19  2  0  0  0  0
  4 12  1  0  0  0  0
  5 11  1  0  0  0  0
  6 11  2  0  0  0  0
  7  5  2  0  0  0  0
  8 10  2  0  0  0  0
  9  3  2  0  0  0  0
 10  7  1  0  0  0  0
 11 30  1  0  0  0  0
 13 12  1  1  0  0  0
 13  1  1  0  0  0  0
 13  7  1  0  0  0  0
 14 12  2  0  0  0  0
 14  8  1  0  0  0  0
 15 18  1  0  0  0  0
 17 15  1  0  0  0  0
 17  3  1  0  0  0  0
 18 16  1  0  0  0  0
 18 20  2  0  0  0  0
 19 21  1  0  0  0  0
 21 20  1  0  0  0  0
 21  1  2  0  0  0  0
 22 26  1  0  0  0  0
 23 28  1  0  0  0  0
 24 32  1  0  0  0  0
 25 24  1  0  0  0  0
 26 25  2  0  0  0  0
 27 29  1  0  0  0  0
 28 27  2  0  0  0  0
 28 26  1  0  0  0  0
 29 24  2  0  0  0  0
 30 23  2  0  0  0  0
 30 31  1  0  0  0  0
 31 22  2  0  0  0  0
 32 33  2  0  0  0  0
 32 34  1  0  0  0  0
M  END
>  <MODEL>
7

>  <REMARK>
 VINA RESULT:     -10.0      4.165      8.540
  Name = 
  2 active torsions:
  status: ('A' for Active; 'I' for Inactive)
    1  A    between atoms: C_7  and  C_11
    2  A    between atoms: C_18  and  C_30
                            x       y       z     vdW  Elec       q    Type
                         _______ _______ _______ _____ _____    ______ ____

>  <TORSDO>
F 2

$$$$
=
 OpenBabel10272415263D

 34 40  0  0  0  0  0  0  0  0999 V2000
  187.8150  177.7920  143.4390 C   0  0  0  0  0  0  0  0  0  0  0  0
  188.3550  177.7740  147.1390 C   0  0  0  0  0  3  0  0  0  0  0  0
  191.6650  176.8320  148.0510 C   0  0  0  0  0  0  0  0  0  0  0  0
  186.3950  178.3020  145.8270 C   0  0  0  0  0  3  0  0  0  0  0  0
  186.5310  178.0770  140.9520 N   0  0  0  0  0  2  0  0  0  0  0  0
  188.5290  177.5340  142.1660 C   0  0  0  0  0  3  0  0  0  0  0  0
  185.8120  178.3350  142.1630 C   0  0  0  0  0  0  0  0  0  0  0  0
  183.7760  178.9780  143.3050 C   0  0  0  0  0  3  0  0  0  0  0  0
  192.5230  176.6130  148.9440 O   0  0  0  0  0  0  0  0  0  0  0  0
  184.4730  178.7290  142.1180 C   0  0  0  0  0  3  0  0  0  0  0  0
  187.9100  177.6720  140.9830 C   0  0  0  0  0  0  0  0  0  0  0  0
  185.7570  178.4430  144.5960 C   0  0  0  0  0  0  0  0  0  0  0  0
  186.4630  178.1890  143.4000 C   0  0  0  0  0  0  0  0  0  0  0  0
  184.4160  178.8360  144.5410 C   0  0  0  0  0  3  0  0  0  0  0  0
  189.6900  177.3810  147.1850 C   0  0  0  0  0  0  0  0  0  0  0  0
  191.9660  176.6800  146.3930 S   0  0  0  0  0  0  0  0  0  0  0  0
  190.3970  177.2160  148.3320 N   0  0  0  0  0  2  0  0  0  0  0  0
  190.3930  177.1300  146.0170 C   0  0  0  0  0  0  0  0  0  0  0  0
  187.7340  177.9090  145.8860 C   0  0  0  0  0  0  0  0  0  0  0  0
  189.8100  177.2540  144.7600 C   0  0  0  0  0  3  0  0  0  0  0  0
  188.4590  177.6500  144.6830 C   0  0  0  0  0  0  0  0  0  0  0  0
  188.7050  177.4040  137.2810 C   0  0  0  0  0  3  0  0  0  0  0  0
  189.9390  176.9130  139.7490 C   0  0  0  0  0  3  0  0  0  0  0  0
  192.0130  176.1600  136.1700 C   0  0  0  0  0  0  0  0  0  0  0  0
  190.7020  176.6570  136.1320 C   0  0  0  0  0  3  0  0  0  0  0  0
  190.0090  176.9090  137.3190 C   0  0  0  0  0  0  0  0  0  0  0  0
  191.9370  176.1670  138.6010 C   0  0  0  0  0  3  0  0  0  0  0  0
  190.6320  176.6620  138.5630 C   0  0  0  0  0  0  0  0  0  0  0  0
  192.6240  175.9170  137.4100 C   0  0  0  0  0  3  0  0  0  0  0  0
  188.6270  177.4120  139.7170 C   0  0  0  0  0  0  0  0  0  0  0  0
  188.0180  177.6540  138.4730 C   0  0  0  0  0  3  0  0  0  0  0  0
  192.7370  175.8960  134.9170 C   0  0  0  0  0  0  0  0  0  0  0  0
  192.6430  174.7760  134.3470 O   0  0  0  0  0  0  0  0  0  0  0  0
  193.5360  176.8830  134.3480 O   0  0  0  0  0  1  0  0  0  0  0  0
  1 21  1  0  0  0  0
  2 15  1  0  0  0  0
  3 17  1  0  0  0  0
  3  9  2  0  0  0  0
  4 19  1  0  0  0  0
  5 11  1  0  0  0  0
  5  7  1  0  0  0  0
  6  1  1  0  0  0  0
  7 13  1  0  0  0  0
  8 14  2  0  0  0  0
 10  7  2  0  0  0  0
 10  8  1  0  0  0  0
 11  6  2  0  0  0  0
 12  4  2  0  0  0  0
 13  1  2  0  0  0  0
 13 12  1  0  0  0  0
 14 12  1  0  0  0  0
 15 17  1  0  0  0  0
 16  3  1  0  0  0  0
 18 16  1  0  0  0  0
 18 15  2  0  0  0  0
 19  2  2  0  0  0  0
 20 18  1  0  0  0  0
 21 20  2  0  0  0  0
 21 19  1  0  0  0  0
 22 26  2  0  0  0  0
 22 31  1  0  0  0  0
 24 29  1  0  0  0  0
 25 24  2  0  0  0  0
 25 26  1  0  0  0  0
 26 28  1  0  0  0  0
 28 27  1  0  0  0  0
 28 23  2  0  0  0  0
 29 27  2  0  0  0  0
 30 23  1  0  0  0  0
 30 11  1  0  0  0  0
 31 30  2  0  0  0  0
 32 24  1  0  0  0  0
 33 32  2  0  0  0  0
 34 32  1  0  0  0  0
M  END
>  <MODEL>
8

>  <REMARK>
 VINA RESULT:      -9.9      3.557      5.593
  Name = 
  2 active torsions:
  status: ('A' for Active; 'I' for Inactive)
    1  A    between atoms: C_7  and  C_11
    2  A    between atoms: C_18  and  C_30
                            x       y       z     vdW  Elec       q    Type
                         _______ _______ _______ _____ _____    ______ ____

>  <TORSDO>
F 2

$$$$
