=
 OpenBabel10272413553D

 30 33  0  0  1  0  0  0  0  0999 V2000
  187.9180  177.4740  143.7500 C   0  0  0  0  0  2  0  0  0  0  0  0
  187.1750  177.6580  146.1300 C   0  0  0  0  0  0  0  0  0  0  0  0
  183.8600  178.4850  142.5870 C   0  0  0  0  0  2  0  0  0  0  0  0
  187.7230  178.1670  142.4050 C   0  0  2  0  0  3  0  0  0  0  0  0
  183.6300  178.3350  141.0760 C   0  0  0  0  0  2  0  0  0  0  0  0
  186.2370  177.9950  147.1070 C   0  0  0  0  0  3  0  0  0  0  0  0
  188.3580  177.1120  146.5100 F   0  0  0  0  0  0  0  0  0  0  0  0
  185.3310  178.7610  142.9540 C   0  0  2  0  0  3  0  0  0  0  0  0
  185.0140  178.5580  146.7420 C   0  0  0  0  0  3  0  0  0  0  0  0
  186.8970  177.8860  144.7730 C   0  0  0  0  0  0  0  0  0  0  0  0
  186.2680  178.0930  141.9390 C   0  0  1  0  0  3  0  0  0  0  0  0
  184.6320  179.1630  140.2720 C   0  0  0  0  0  2  0  0  0  0  0  0
  186.0800  178.7280  140.5510 C   0  0  0  0  0  2  0  0  0  0  0  0
  184.7240  178.7770  145.3940 C   0  0  0  0  0  3  0  0  0  0  0  0
  185.6420  178.4210  144.3950 C   0  0  0  0  0  0  0  0  0  0  0  0
  190.4880  176.2910  140.8590 O   0  0  0  0  0  0  0  0  0  0  0  0
  189.9520  177.0440  141.7180 C   0  0  0  0  0  0  0  0  0  0  0  0
  188.6740  177.6550  141.4130 N   0  0  0  0  0  0  0  0  0  0  0  0
  190.9150  176.2450  143.8630 N   0  0  0  0  0  0  0  0  0  0  0  0
  191.2060  178.4070  143.4060 N   0  0  0  0  0  2  0  0  0  0  0  0
  190.6770  177.2450  142.9930 C   0  0  0  0  0  0  0  0  0  0  0  0
  191.6100  176.8600  144.8410 C   0  0  0  0  0  3  0  0  0  0  0  0
  191.7870  178.1650  144.5680 N   0  0  0  0  0  0  0  0  0  0  0  0
  188.1710  177.5930  140.0470 C   0  0  0  0  0  2  0  0  0  0  0  0
  189.0530  178.4210  139.1270 C   0  0  0  0  0  2  0  0  0  0  0  0
  189.0350  177.8430  137.7240 C   0  0  0  0  0  2  0  0  0  0  0  0
  189.1010  176.3910  137.7820 N   0  0  0  0  0  2  0  0  0  0  0  0
  191.3930  176.3020  137.3440 O   0  0  0  0  0  0  0  0  0  0  0  0
  190.3230  175.6830  137.5800 C   0  0  0  0  0  0  0  0  0  0  0  0
  190.3310  174.2960  137.6460 O   0  0  0  0  0  1  0  0  0  0  0  0
  1 10  1  0  0  0  0
  2  7  1  0  0  0  0
  2  6  1  0  0  0  0
  4 18  1  6  0  0  0
  4  1  1  0  0  0  0
  5  3  1  0  0  0  0
  8  3  1  6  0  0  0
  8 15  1  0  0  0  0
  9  6  2  0  0  0  0
 10  2  2  0  0  0  0
 11 13  1  6  0  0  0
 11  4  1  0  0  0  0
 11  8  1  0  0  0  0
 12 13  1  0  0  0  0
 12  5  1  0  0  0  0
 14  9  1  0  0  0  0
 15 10  1  0  0  0  0
 15 14  2  0  0  0  0
 16 17  2  0  0  0  0
 17 21  1  0  0  0  0
 18 17  1  0  0  0  0
 19 22  1  0  0  0  0
 20 23  1  0  0  0  0
 21 20  1  0  0  0  0
 21 19  2  0  0  0  0
 23 22  2  0  0  0  0
 24 18  1  0  0  0  0
 25 24  1  0  0  0  0
 26 27  1  0  0  0  0
 26 25  1  0  0  0  0
 28 29  2  0  0  0  0
 29 30  1  0  0  0  0
 29 27  1  0  0  0  0
M  END
>  <MODEL>
1

>  <REMARK>
 VINA RESULT:      -9.2      0.000      0.000
  Name = 
  6 active torsions:
  status: ('A' for Active; 'I' for Inactive)
    1  A    between atoms: C_4  and  N_13
    2  A    between atoms: N_7  and  C_16
    3  A    between atoms: C_8  and  C_12
    4  A    between atoms: N_13  and  C_27
    5  A    between atoms: C_16  and  C_30
    6  A    between atoms: C_27  and  C_30
                            x       y       z     vdW  Elec       q    Type
                         _______ _______ _______ _____ _____    ______ ____

>  <TORSDO>
F 6

$$$$
=
 OpenBabel10272413553D

 30 33  0  0  1  0  0  0  0  0999 V2000
  187.2890  178.2040  142.0220 C   0  0  0  0  0  2  0  0  0  0  0  0
  184.9370  178.7510  141.3710 C   0  0  0  0  0  0  0  0  0  0  0  0
  186.0230  178.4810  146.1640 C   0  0  0  0  0  2  0  0  0  0  0  0
  188.0590  177.3810  143.0500 C   0  0  2  0  0  3  0  0  0  0  0  0
  187.2050  178.4110  147.1440 C   0  0  0  0  0  2  0  0  0  0  0  0
  183.5910  178.9580  141.6730 C   0  0  0  0  0  3  0  0  0  0  0  0
  185.3600  178.9080  140.0910 F   0  0  0  0  0  0  0  0  0  0  0  0
  186.3040  177.7810  144.8210 C   0  0  2  0  0  3  0  0  0  0  0  0
  183.1320  178.8010  142.9810 C   0  0  0  0  0  3  0  0  0  0  0  0
  185.8400  178.3800  142.3810 C   0  0  0  0  0  0  0  0  0  0  0  0
  187.7960  177.8720  144.4750 C   0  0  1  0  0  3  0  0  0  0  0  0
  188.0360  177.1470  146.9280 C   0  0  0  0  0  2  0  0  0  0  0  0
  188.6250  177.0900  145.5090 C   0  0  0  0  0  2  0  0  0  0  0  0
  184.0240  178.4450  143.9940 C   0  0  0  0  0  3  0  0  0  0  0  0
  185.3870  178.2580  143.7170 C   0  0  0  0  0  0  0  0  0  0  0  0
  191.2760  177.9960  141.3690 O   0  0  0  0  0  0  0  0  0  0  0  0
  190.0530  177.6910  141.4290 C   0  0  0  0  0  0  0  0  0  0  0  0
  189.4850  177.3280  142.7110 N   0  0  0  0  0  0  0  0  0  0  0  0
  188.9730  176.6300  139.4610 N   0  0  0  0  0  0  0  0  0  0  0  0
  188.7690  178.8450  139.6130 N   0  0  0  0  0  2  0  0  0  0  0  0
  189.2800  177.7340  140.1680 C   0  0  0  0  0  0  0  0  0  0  0  0
  188.2540  177.1250  138.4320 C   0  0  0  0  0  3  0  0  0  0  0  0
  188.1290  178.4620  138.5220 N   0  0  0  0  0  0  0  0  0  0  0  0
  190.3790  177.0780  143.8340 C   0  0  0  0  0  2  0  0  0  0  0  0
  191.2300  175.8480  143.5600 C   0  0  0  0  0  2  0  0  0  0  0  0
  191.8730  175.3590  144.8450 C   0  0  0  0  0  2  0  0  0  0  0  0
  191.9200  176.4370  145.8200 N   0  0  0  0  0  2  0  0  0  0  0  0
  191.8590  175.0070  147.6660 O   0  0  0  0  0  0  0  0  0  0  0  0
  191.9100  176.1850  147.2240 C   0  0  0  0  0  0  0  0  0  0  0  0
  191.9570  177.2510  148.1130 O   0  0  0  0  0  1  0  0  0  0  0  0
  1 10  1  0  0  0  0
  1  4  1  0  0  0  0
  2  6  2  0  0  0  0
  2 10  1  0  0  0  0
  3  5  1  0  0  0  0
  4 18  1  6  0  0  0
  4 11  1  0  0  0  0
  6  9  1  0  0  0  0
  7  2  1  0  0  0  0
  8  3  1  1  0  0  0
  9 14  2  0  0  0  0
 10 15  2  0  0  0  0
 11  8  1  0  0  0  0
 11 13  1  1  0  0  0
 12  5  1  0  0  0  0
 13 12  1  0  0  0  0
 15 14  1  0  0  0  0
 15  8  1  0  0  0  0
 16 17  2  0  0  0  0
 17 18  1  0  0  0  0
 18 24  1  0  0  0  0
 19 21  2  0  0  0  0
 20 21  1  0  0  0  0
 21 17  1  0  0  0  0
 22 23  2  0  0  0  0
 22 19  1  0  0  0  0
 23 20  1  0  0  0  0
 25 24  1  0  0  0  0
 25 26  1  0  0  0  0
 26 27  1  0  0  0  0
 27 29  1  0  0  0  0
 29 28  2  0  0  0  0
 29 30  1  0  0  0  0
M  END
>  <MODEL>
2

>  <REMARK>
 VINA RESULT:      -8.9      2.665      5.785
  Name = 
  6 active torsions:
  status: ('A' for Active; 'I' for Inactive)
    1  A    between atoms: C_4  and  N_13
    2  A    between atoms: N_7  and  C_16
    3  A    between atoms: C_8  and  C_12
    4  A    between atoms: N_13  and  C_27
    5  A    between atoms: C_16  and  C_30
    6  A    between atoms: C_27  and  C_30
                            x       y       z     vdW  Elec       q    Type
                         _______ _______ _______ _____ _____    ______ ____

>  <TORSDO>
F 6

$$$$
=
 OpenBabel10272413553D

 30 33  0  0  1  0  0  0  0  0999 V2000
  186.7270  178.4020  141.2040 C   0  0  0  0  0  2  0  0  0  0  0  0
  184.5030  178.9300  140.1900 C   0  0  0  0  0  0  0  0  0  0  0  0
  184.8550  178.8090  145.0980 C   0  0  0  0  0  2  0  0  0  0  0  0
  187.3300  177.6110  142.3610 C   0  0  2  0  0  3  0  0  0  0  0  0
  185.8750  178.7680  146.2460 C   0  0  0  0  0  2  0  0  0  0  0  0
  183.1270  179.1470  140.2800 C   0  0  0  0  0  3  0  0  0  0  0  0
  185.1140  179.0480  138.9850 F   0  0  0  0  0  0  0  0  0  0  0  0
  185.3300  178.0680  143.8350 C   0  0  2  0  0  3  0  0  0  0  0  0
  182.4760  179.0320  141.5080 C   0  0  0  0  0  3  0  0  0  0  0  0
  185.2420  178.5910  141.3350 C   0  0  0  0  0  0  0  0  0  0  0  0
  186.8580  178.1460  143.7140 C   0  0  1  0  0  3  0  0  0  0  0  0
  186.7230  177.4980  146.1960 C   0  0  0  0  0  2  0  0  0  0  0  0
  187.5180  177.3970  144.8850 C   0  0  0  0  0  2  0  0  0  0  0  0
  183.2040  178.7070  142.6540 C   0  0  0  0  0  3  0  0  0  0  0  0
  184.5920  178.5110  142.5910 C   0  0  0  0  0  0  0  0  0  0  0  0
  190.7600  178.1180  141.1250 O   0  0  0  0  0  0  0  0  0  0  0  0
  189.5420  177.8040  141.0300 C   0  0  0  0  0  0  0  0  0  0  0  0
  188.7900  177.5460  142.2420 N   0  0  0  0  0  0  0  0  0  0  0  0
  188.6660  178.8180  138.9400 N   0  0  0  0  0  0  0  0  0  0  0  0
  188.7100  176.5910  139.0010 N   0  0  0  0  0  2  0  0  0  0  0  0
  188.9640  177.7270  139.6700 C   0  0  0  0  0  0  0  0  0  0  0  0
  188.2040  178.2900  137.7880 C   0  0  0  0  0  3  0  0  0  0  0  0
  188.2300  176.9450  137.8230 N   0  0  0  0  0  0  0  0  0  0  0  0
  189.5080  177.4060  143.5010 C   0  0  0  0  0  2  0  0  0  0  0  0
  190.2450  176.0780  143.5380 C   0  0  0  0  0  2  0  0  0  0  0  0
  191.6190  176.2570  144.1570 C   0  0  0  0  0  2  0  0  0  0  0  0
  191.5030  176.9360  145.4380 N   0  0  0  0  0  2  0  0  0  0  0  0
  192.3780  175.1510  146.6630 O   0  0  0  0  0  0  0  0  0  0  0  0
  191.9050  176.3180  146.6590 C   0  0  0  0  0  0  0  0  0  0  0  0
  191.7730  177.0100  147.8550 O   0  0  0  0  0  1  0  0  0  0  0  0
  1 10  1  0  0  0  0
  1  4  1  0  0  0  0
  2  6  2  0  0  0  0
  2 10  1  0  0  0  0
  3  5  1  0  0  0  0
  4 18  1  1  0  0  0
  4 11  1  0  0  0  0
  6  9  1  0  0  0  0
  7  2  1  0  0  0  0
  8  3  1  1  0  0  0
  9 14  2  0  0  0  0
 10 15  2  0  0  0  0
 11  8  1  0  0  0  0
 11 13  1  1  0  0  0
 12  5  1  0  0  0  0
 13 12  1  0  0  0  0
 15 14  1  0  0  0  0
 15  8  1  0  0  0  0
 17 16  2  0  0  0  0
 17 18  1  0  0  0  0
 18 24  1  0  0  0  0
 19 21  2  0  0  0  0
 20 21  1  0  0  0  0
 21 17  1  0  0  0  0
 22 23  2  0  0  0  0
 22 19  1  0  0  0  0
 23 20  1  0  0  0  0
 24 25  1  0  0  0  0
 25 26  1  0  0  0  0
 26 27  1  0  0  0  0
 27 29  1  0  0  0  0
 29 28  2  0  0  0  0
 29 30  1  0  0  0  0
M  END
>  <MODEL>
3

>  <REMARK>
 VINA RESULT:      -8.6      2.577      5.788
  Name = 
  6 active torsions:
  status: ('A' for Active; 'I' for Inactive)
    1  A    between atoms: C_4  and  N_13
    2  A    between atoms: N_7  and  C_16
    3  A    between atoms: C_8  and  C_12
    4  A    between atoms: N_13  and  C_27
    5  A    between atoms: C_16  and  C_30
    6  A    between atoms: C_27  and  C_30
                            x       y       z     vdW  Elec       q    Type
                         _______ _______ _______ _____ _____    ______ ____

>  <TORSDO>
F 6

$$$$
=
 OpenBabel10272413553D

 30 33  0  0  1  0  0  0  0  0999 V2000
  187.4630  178.4320  140.9810 C   0  0  0  0  0  2  0  0  0  0  0  0
  185.4210  179.0240  142.2970 C   0  0  0  0  0  0  0  0  0  0  0  0
  189.2900  177.1710  144.7100 C   0  0  0  0  0  2  0  0  0  0  0  0
  188.5380  177.3520  140.9080 C   0  0  2  0  0  3  0  0  0  0  0  0
  190.7810  176.8380  144.5490 C   0  0  0  0  0  2  0  0  0  0  0  0
  184.6710  179.0290  143.4740 C   0  0  0  0  0  3  0  0  0  0  0  0
  184.9270  179.6430  141.1960 F   0  0  0  0  0  0  0  0  0  0  0  0
  188.4840  177.0020  143.4090 C   0  0  2  0  0  3  0  0  0  0  0  0
  185.1570  178.3990  144.6200 C   0  0  0  0  0  3  0  0  0  0  0  0
  186.6690  178.3820  142.2560 C   0  0  0  0  0  0  0  0  0  0  0  0
  189.3700  177.2990  142.1910 C   0  0  1  0  0  3  0  0  0  0  0  0
  191.0040  175.7820  143.4670 C   0  0  0  0  0  2  0  0  0  0  0  0
  190.5000  176.2590  142.0950 C   0  0  0  0  0  2  0  0  0  0  0  0
  186.4030  177.7690  144.5920 C   0  0  0  0  0  3  0  0  0  0  0  0
  187.1840  177.7750  143.4270 C   0  0  0  0  0  0  0  0  0  0  0  0
  189.6060  178.2980  137.5140 O   0  0  0  0  0  0  0  0  0  0  0  0
  188.8340  177.7910  138.3740 C   0  0  0  0  0  0  0  0  0  0  0  0
  189.3520  177.5080  139.6980 N   0  0  0  0  0  0  0  0  0  0  0  0
  186.4780  178.4680  137.9810 N   0  0  0  0  0  0  0  0  0  0  0  0
  186.9820  176.3530  137.4920 N   0  0  0  0  0  2  0  0  0  0  0  0
  187.4390  177.5240  137.9620 C   0  0  0  0  0  0  0  0  0  0  0  0
  185.4020  177.8080  137.5080 C   0  0  0  0  0  3  0  0  0  0  0  0
  185.7030  176.5310  137.2120 N   0  0  0  0  0  0  0  0  0  0  0  0
  190.7890  177.5750  139.9230 C   0  0  0  0  0  2  0  0  0  0  0  0
  191.5060  176.5790  139.0270 C   0  0  0  0  0  2  0  0  0  0  0  0
  192.9950  176.8690  139.0050 C   0  0  0  0  0  2  0  0  0  0  0  0
  193.5170  176.6930  137.6590 N   0  0  0  0  0  2  0  0  0  0  0  0
  194.1200  174.4620  137.9940 O   0  0  0  0  0  1  0  0  0  0  0  0
  194.0690  175.4530  137.2190 C   0  0  0  0  0  0  0  0  0  0  0  0
  194.5530  175.3390  135.9230 O   0  0  0  0  0  0  0  0  0  0  0  0
  1 10  1  0  0  0  0
  2  6  1  0  0  0  0
  4 18  1  6  0  0  0
  4  1  1  0  0  0  0
  4 11  1  0  0  0  0
  5  3  1  0  0  0  0
  6  9  2  0  0  0  0
  7  2  1  0  0  0  0
  8 15  1  0  0  0  0
  8  3  1  1  0  0  0
 10  2  2  0  0  0  0
 10 15  1  0  0  0  0
 11 13  1  6  0  0  0
 11  8  1  0  0  0  0
 12  5  1  0  0  0  0
 13 12  1  0  0  0  0
 14  9  1  0  0  0  0
 15 14  2  0  0  0  0
 16 17  2  0  0  0  0
 17 18  1  0  0  0  0
 18 24  1  0  0  0  0
 20 21  1  0  0  0  0
 21 19  2  0  0  0  0
 21 17  1  0  0  0  0
 22 19  1  0  0  0  0
 23 20  1  0  0  0  0
 23 22  2  0  0  0  0
 25 24  1  0  0  0  0
 26 25  1  0  0  0  0
 27 26  1  0  0  0  0
 29 27  1  0  0  0  0
 29 28  1  0  0  0  0
 30 29  2  0  0  0  0
M  END
>  <MODEL>
4

>  <REMARK>
 VINA RESULT:      -8.6      2.604      5.172
  Name = 
  6 active torsions:
  status: ('A' for Active; 'I' for Inactive)
    1  A    between atoms: C_4  and  N_13
    2  A    between atoms: N_7  and  C_16
    3  A    between atoms: C_8  and  C_12
    4  A    between atoms: N_13  and  C_27
    5  A    between atoms: C_16  and  C_30
    6  A    between atoms: C_27  and  C_30
                            x       y       z     vdW  Elec       q    Type
                         _______ _______ _______ _____ _____    ______ ____

>  <TORSDO>
F 6

$$$$
=
 OpenBabel10272413553D

 30 33  0  0  1  0  0  0  0  0999 V2000
  187.5580  178.4250  142.1710 C   0  0  0  0  0  2  0  0  0  0  0  0
  185.5640  178.6660  140.6800 C   0  0  0  0  0  0  0  0  0  0  0  0
  184.8570  178.7840  145.5500 C   0  0  0  0  0  2  0  0  0  0  0  0
  187.9700  177.7520  143.4760 C   0  0  2  0  0  3  0  0  0  0  0  0
  185.6050  178.9010  146.8870 C   0  0  0  0  0  2  0  0  0  0  0  0
  184.1870  178.7360  140.4640 C   0  0  0  0  0  3  0  0  0  0  0  0
  186.4070  178.8000  139.6250 F   0  0  0  0  0  0  0  0  0  0  0  0
  185.6640  178.0480  144.4640 C   0  0  2  0  0  3  0  0  0  0  0  0
  183.3010  178.6010  141.5320 C   0  0  0  0  0  3  0  0  0  0  0  0
  186.0680  178.4560  141.9740 C   0  0  0  0  0  0  0  0  0  0  0  0
  187.1670  178.2870  144.6640 C   0  0  1  0  0  3  0  0  0  0  0  0
  186.5630  177.7290  147.0970 C   0  0  0  0  0  2  0  0  0  0  0  0
  187.6280  177.6620  145.9920 C   0  0  0  0  0  2  0  0  0  0  0  0
  183.7920  178.4040  142.8240 C   0  0  0  0  0  3  0  0  0  0  0  0
  185.1730  178.3570  143.0670 C   0  0  0  0  0  0  0  0  0  0  0  0
  191.5500  178.3470  142.8540 O   0  0  0  0  0  0  0  0  0  0  0  0
  190.4070  177.8690  142.6110 C   0  0  0  0  0  0  0  0  0  0  0  0
  189.4210  177.8420  143.6720 N   0  0  0  0  0  0  0  0  0  0  0  0
  189.5660  178.1210  140.2880 N   0  0  0  0  0  0  0  0  0  0  0  0
  190.5120  176.1630  140.7790 N   0  0  0  0  0  2  0  0  0  0  0  0
  190.1550  177.3730  141.2400 C   0  0  0  0  0  0  0  0  0  0  0  0
  189.5680  177.3000  139.2190 C   0  0  0  0  0  3  0  0  0  0  0  0
  190.1390  176.1170  139.5120 N   0  0  0  0  0  0  0  0  0  0  0  0
  189.8450  178.1220  145.0370 C   0  0  0  0  0  2  0  0  0  0  0  0
  190.8680  177.0940  145.4880 C   0  0  0  0  0  2  0  0  0  0  0  0
  190.4780  176.5230  146.8390 C   0  0  0  0  0  2  0  0  0  0  0  0
  191.4500  176.9200  147.8470 N   0  0  0  0  0  2  0  0  0  0  0  0
  192.8000  175.0390  147.5400 O   0  0  0  0  0  0  0  0  0  0  0  0
  192.5940  176.1230  148.1470 C   0  0  0  0  0  0  0  0  0  0  0  0
  193.4910  176.5470  149.1180 O   0  0  0  0  0  1  0  0  0  0  0  0
  1  4  1  0  0  0  0
  2 10  1  0  0  0  0
  3  5  1  0  0  0  0
  4 18  1  1  0  0  0
  4 11  1  0  0  0  0
  5 12  1  0  0  0  0
  6  2  2  0  0  0  0
  6  9  1  0  0  0  0
  7  2  1  0  0  0  0
  8 11  1  0  0  0  0
  8  3  1  1  0  0  0
  9 14  2  0  0  0  0
 10  1  1  0  0  0  0
 10 15  2  0  0  0  0
 11 13  1  1  0  0  0
 13 12  1  0  0  0  0
 14 15  1  0  0  0  0
 15  8  1  0  0  0  0
 17 16  2  0  0  0  0
 17 18  1  0  0  0  0
 18 24  1  0  0  0  0
 19 21  2  0  0  0  0
 20 21  1  0  0  0  0
 21 17  1  0  0  0  0
 22 23  2  0  0  0  0
 22 19  1  0  0  0  0
 23 20  1  0  0  0  0
 24 25  1  0  0  0  0
 25 26  1  0  0  0  0
 26 27  1  0  0  0  0
 27 29  1  0  0  0  0
 28 29  2  0  0  0  0
 29 30  1  0  0  0  0
M  END
>  <MODEL>
5

>  <REMARK>
 VINA RESULT:      -8.4      2.886      6.033
  Name = 
  6 active torsions:
  status: ('A' for Active; 'I' for Inactive)
    1  A    between atoms: C_4  and  N_13
    2  A    between atoms: N_7  and  C_16
    3  A    between atoms: C_8  and  C_12
    4  A    between atoms: N_13  and  C_27
    5  A    between atoms: C_16  and  C_30
    6  A    between atoms: C_27  and  C_30
                            x       y       z     vdW  Elec       q    Type
                         _______ _______ _______ _____ _____    ______ ____

>  <TORSDO>
F 6

$$$$
=
 OpenBabel10272413553D

 30 33  0  0  1  0  0  0  0  0999 V2000
  186.2410  178.5650  142.1040 C   0  0  0  0  0  2  0  0  0  0  0  0
  184.5630  178.9830  143.9110 C   0  0  0  0  0  0  0  0  0  0  0  0
  189.0710  177.5010  145.2180 C   0  0  0  0  0  2  0  0  0  0  0  0
  187.3520  177.5840  141.7410 C   0  0  2  0  0  3  0  0  0  0  0  0
  190.4930  177.3000  144.6740 C   0  0  0  0  0  2  0  0  0  0  0  0
  184.1450  178.9300  145.2410 C   0  0  0  0  0  3  0  0  0  0  0  0
  183.7500  179.5470  142.9830 F   0  0  0  0  0  0  0  0  0  0  0  0
  187.9750  177.2500  144.1660 C   0  0  2  0  0  3  0  0  0  0  0  0
  184.9630  178.3550  146.2130 C   0  0  0  0  0  3  0  0  0  0  0  0
  185.8110  178.4540  143.5400 C   0  0  0  0  0  0  0  0  0  0  0  0
  188.4880  177.6150  142.7660 C   0  0  1  0  0  3  0  0  0  0  0  0
  190.5220  176.2600  143.5540 C   0  0  0  0  0  2  0  0  0  0  0  0
  189.6420  176.6800  142.3670 C   0  0  0  0  0  2  0  0  0  0  0  0
  186.2100  177.8380  145.8560 C   0  0  0  0  0  3  0  0  0  0  0  0
  186.6610  177.9050  144.5300 C   0  0  0  0  0  0  0  0  0  0  0  0
  187.6230  178.9150  138.3190 O   0  0  0  0  0  0  0  0  0  0  0  0
  187.0250  178.4130  139.3100 C   0  0  0  0  0  0  0  0  0  0  0  0
  187.8100  177.8030  140.3650 N   0  0  0  0  0  0  0  0  0  0  0  0
  184.8790  179.6160  139.6490 N   0  0  0  0  0  0  0  0  0  0  0  0
  184.7170  177.4940  138.9850 N   0  0  0  0  0  2  0  0  0  0  0  0
  185.5470  178.4930  139.3250 C   0  0  0  0  0  0  0  0  0  0  0  0
  183.5900  179.2490  139.5020 C   0  0  0  0  0  3  0  0  0  0  0  0
  183.4890  177.9680  139.1010 N   0  0  0  0  0  0  0  0  0  0  0  0
  189.2270  177.5580  140.1380 C   0  0  0  0  0  2  0  0  0  0  0  0
  189.4110  176.5860  138.9840 C   0  0  0  0  0  2  0  0  0  0  0  0
  190.7500  176.8210  138.3080 C   0  0  0  0  0  2  0  0  0  0  0  0
  191.8000  176.9320  139.3080 N   0  0  0  0  0  2  0  0  0  0  0  0
  193.5380  176.7560  137.7580 O   0  0  0  0  0  0  0  0  0  0  0  0
  193.1820  176.8910  138.9580 C   0  0  0  0  0  0  0  0  0  0  0  0
  194.1460  177.0010  139.9520 O   0  0  0  0  0  1  0  0  0  0  0  0
  1 10  1  0  0  0  0
  2  6  1  0  0  0  0
  4 18  1  6  0  0  0
  4  1  1  0  0  0  0
  4 11  1  0  0  0  0
  5  3  1  0  0  0  0
  6  9  2  0  0  0  0
  7  2  1  0  0  0  0
  8 15  1  0  0  0  0
  8  3  1  1  0  0  0
 10  2  2  0  0  0  0
 10 15  1  0  0  0  0
 11 13  1  6  0  0  0
 11  8  1  0  0  0  0
 12  5  1  0  0  0  0
 13 12  1  0  0  0  0
 14  9  1  0  0  0  0
 15 14  2  0  0  0  0
 16 17  2  0  0  0  0
 17 21  1  0  0  0  0
 17 18  1  0  0  0  0
 20 23  1  0  0  0  0
 20 21  1  0  0  0  0
 21 19  2  0  0  0  0
 22 19  1  0  0  0  0
 23 22  2  0  0  0  0
 24 18  1  0  0  0  0
 25 24  1  0  0  0  0
 26 25  1  0  0  0  0
 26 27  1  0  0  0  0
 28 29  2  0  0  0  0
 29 27  1  0  0  0  0
 29 30  1  0  0  0  0
M  END
>  <MODEL>
6

>  <REMARK>
 VINA RESULT:      -8.3      2.616      4.944
  Name = 
  6 active torsions:
  status: ('A' for Active; 'I' for Inactive)
    1  A    between atoms: C_4  and  N_13
    2  A    between atoms: N_7  and  C_16
    3  A    between atoms: C_8  and  C_12
    4  A    between atoms: N_13  and  C_27
    5  A    between atoms: C_16  and  C_30
    6  A    between atoms: C_27  and  C_30
                            x       y       z     vdW  Elec       q    Type
                         _______ _______ _______ _____ _____    ______ ____

>  <TORSDO>
F 6

$$$$
=
 OpenBabel10272413553D

 30 33  0  0  1  0  0  0  0  0999 V2000
  185.5830  178.7600  142.7290 C   0  0  0  0  0  2  0  0  0  0  0  0
  184.4810  178.9840  144.9630 C   0  0  0  0  0  0  0  0  0  0  0  0
  189.1270  177.3660  144.8110 C   0  0  0  0  0  2  0  0  0  0  0  0
  186.5210  177.8240  141.9740 C   0  0  2  0  0  3  0  0  0  0  0  0
  190.3370  177.2240  143.8760 C   0  0  0  0  0  2  0  0  0  0  0  0
  184.4430  178.7890  146.3440 C   0  0  0  0  0  3  0  0  0  0  0  0
  183.4610  179.6450  144.3600 F   0  0  0  0  0  0  0  0  0  0  0  0
  187.7760  177.2300  144.0830 C   0  0  2  0  0  3  0  0  0  0  0  0
  185.4800  178.1120  146.9870 C   0  0  0  0  0  3  0  0  0  0  0  0
  185.5610  178.4970  144.2090 C   0  0  0  0  0  0  0  0  0  0  0  0
  187.8950  177.7430  142.6420 C   0  0  1  0  0  3  0  0  0  0  0  0
  190.0250  176.3090  142.6920 C   0  0  0  0  0  2  0  0  0  0  0  0
  188.8650  176.8550  141.8440 C   0  0  0  0  0  2  0  0  0  0  0  0
  186.5630  177.6360  146.2480 C   0  0  0  0  0  3  0  0  0  0  0  0
  186.6340  177.8430  144.8620 C   0  0  0  0  0  0  0  0  0  0  0  0
  185.6250  179.1680  138.6650 O   0  0  0  0  0  0  0  0  0  0  0  0
  185.4470  178.4890  139.7140 C   0  0  0  0  0  0  0  0  0  0  0  0
  186.5880  178.1890  140.5550 N   0  0  0  0  0  0  0  0  0  0  0  0
  183.2050  178.7910  140.7380 N   0  0  0  0  0  0  0  0  0  0  0  0
  183.5050  176.9120  139.5770 N   0  0  0  0  0  2  0  0  0  0  0  0
  184.0660  178.0510  140.0140 C   0  0  0  0  0  0  0  0  0  0  0  0
  182.0860  178.0380  140.7330 C   0  0  0  0  0  3  0  0  0  0  0  0
  182.2650  176.9030  140.0320 N   0  0  0  0  0  0  0  0  0  0  0  0
  187.9270  178.4510  140.0460 C   0  0  0  0  0  2  0  0  0  0  0  0
  188.1960  177.5990  138.8170 C   0  0  0  0  0  2  0  0  0  0  0  0
  189.3920  178.1390  138.0550 C   0  0  0  0  0  2  0  0  0  0  0  0
  190.2310  177.0410  137.6010 N   0  0  0  0  0  2  0  0  0  0  0  0
  191.5420  177.0120  139.5340 O   0  0  0  0  0  1  0  0  0  0  0  0
  191.2960  176.5250  138.3990 C   0  0  0  0  0  0  0  0  0  0  0  0
  192.0670  175.4750  137.9190 O   0  0  0  0  0  0  0  0  0  0  0  0
  1 10  1  0  0  0  0
  2  6  1  0  0  0  0
  4 18  1  6  0  0  0
  4 11  1  0  0  0  0
  4  1  1  0  0  0  0
  5  3  1  0  0  0  0
  6  9  2  0  0  0  0
  7  2  1  0  0  0  0
  8  3  1  1  0  0  0
  8 15  1  0  0  0  0
 10 15  1  0  0  0  0
 10  2  2  0  0  0  0
 11 13  1  6  0  0  0
 11  8  1  0  0  0  0
 12  5  1  0  0  0  0
 13 12  1  0  0  0  0
 14  9  1  0  0  0  0
 15 14  2  0  0  0  0
 16 17  2  0  0  0  0
 17 21  1  0  0  0  0
 17 18  1  0  0  0  0
 20 21  1  0  0  0  0
 20 23  1  0  0  0  0
 21 19  2  0  0  0  0
 22 19  1  0  0  0  0
 23 22  2  0  0  0  0
 24 18  1  0  0  0  0
 25 24  1  0  0  0  0
 26 25  1  0  0  0  0
 27 26  1  0  0  0  0
 27 29  1  0  0  0  0
 29 28  1  0  0  0  0
 30 29  2  0  0  0  0
M  END
>  <MODEL>
7

>  <REMARK>
 VINA RESULT:      -8.3      2.635      4.961
  Name = 
  6 active torsions:
  status: ('A' for Active; 'I' for Inactive)
    1  A    between atoms: C_4  and  N_13
    2  A    between atoms: N_7  and  C_16
    3  A    between atoms: C_8  and  C_12
    4  A    between atoms: N_13  and  C_27
    5  A    between atoms: C_16  and  C_30
    6  A    between atoms: C_27  and  C_30
                            x       y       z     vdW  Elec       q    Type
                         _______ _______ _______ _____ _____    ______ ____

>  <TORSDO>
F 6

$$$$
=
 OpenBabel10272413553D

 30 33  0  0  1  0  0  0  0  0999 V2000
  186.8850  178.4970  144.3050 C   0  0  0  0  0  2  0  0  0  0  0  0
  186.7780  178.2170  146.7880 C   0  0  0  0  0  0  0  0  0  0  0  0
  191.0910  177.4510  144.5420 C   0  0  0  0  0  2  0  0  0  0  0  0
  187.5190  177.8490  143.0790 C   0  0  2  0  0  3  0  0  0  0  0  0
  191.8200  177.6490  143.2050 C   0  0  0  0  0  2  0  0  0  0  0  0
  187.3290  177.8290  148.0100 C   0  0  0  0  0  3  0  0  0  0  0  0
  185.5400  178.7720  146.7670 F   0  0  0  0  0  0  0  0  0  0  0  0
  189.5820  177.1900  144.3800 C   0  0  2  0  0  3  0  0  0  0  0  0
  188.6000  177.2560  148.0570 C   0  0  0  0  0  3  0  0  0  0  0  0
  187.4980  178.0310  145.5960 C   0  0  0  0  0  0  0  0  0  0  0  0
  189.0470  177.9120  143.1350 C   0  0  1  0  0  3  0  0  0  0  0  0
  191.1430  176.8690  142.0780 C   0  0  0  0  0  2  0  0  0  0  0  0
  189.6890  177.3210  141.8680 C   0  0  0  0  0  2  0  0  0  0  0  0
  189.3280  177.0780  146.8790 C   0  0  0  0  0  3  0  0  0  0  0  0
  188.8030  177.4860  145.6440 C   0  0  0  0  0  0  0  0  0  0  0  0
  185.5340  179.9130  140.7660 O   0  0  0  0  0  0  0  0  0  0  0  0
  185.7140  179.1410  141.7480 C   0  0  0  0  0  0  0  0  0  0  0  0
  186.9630  178.4130  141.8450 N   0  0  0  0  0  0  0  0  0  0  0  0
  184.5210  179.8710  143.8000 N   0  0  0  0  0  0  0  0  0  0  0  0
  183.6100  178.1630  142.6940 N   0  0  0  0  0  2  0  0  0  0  0  0
  184.6240  179.0420  142.7440 C   0  0  0  0  0  0  0  0  0  0  0  0
  183.3930  179.4460  144.4040 C   0  0  0  0  0  3  0  0  0  0  0  0
  182.8410  178.4150  143.7390 N   0  0  0  0  0  0  0  0  0  0  0  0
  187.8580  178.3910  140.6960 C   0  0  0  0  0  2  0  0  0  0  0  0
  187.0960  177.9770  139.4480 C   0  0  0  0  0  2  0  0  0  0  0  0
  188.0310  177.9290  138.2540 C   0  0  0  0  0  2  0  0  0  0  0  0
  188.5910  176.5940  138.1140 N   0  0  0  0  0  2  0  0  0  0  0  0
  190.7900  177.2860  138.4880 O   0  0  0  0  0  1  0  0  0  0  0  0
  189.9900  176.3450  138.2440 C   0  0  0  0  0  0  0  0  0  0  0  0
  190.4730  175.0510  138.1020 O   0  0  0  0  0  0  0  0  0  0  0  0
  1 10  1  0  0  0  0
  2  6  1  0  0  0  0
  4 18  1  6  0  0  0
  4 11  1  0  0  0  0
  4  1  1  0  0  0  0
  5  3  1  0  0  0  0
  6  9  2  0  0  0  0
  7  2  1  0  0  0  0
  8  3  1  1  0  0  0
  8 15  1  0  0  0  0
 10 15  1  0  0  0  0
 10  2  2  0  0  0  0
 11 13  1  6  0  0  0
 11  8  1  0  0  0  0
 12  5  1  0  0  0  0
 13 12  1  0  0  0  0
 14  9  1  0  0  0  0
 15 14  2  0  0  0  0
 16 17  2  0  0  0  0
 17 18  1  0  0  0  0
 17 21  1  0  0  0  0
 19 22  1  0  0  0  0
 20 21  1  0  0  0  0
 20 23  1  0  0  0  0
 21 19  2  0  0  0  0
 23 22  2  0  0  0  0
 24 18  1  0  0  0  0
 25 24  1  0  0  0  0
 26 25  1  0  0  0  0
 27 29  1  0  0  0  0
 27 26  1  0  0  0  0
 29 28  1  0  0  0  0
 30 29  2  0  0  0  0
M  END
>  <MODEL>
8

>  <REMARK>
 VINA RESULT:      -8.2      2.509      4.775
  Name = 
  6 active torsions:
  status: ('A' for Active; 'I' for Inactive)
    1  A    between atoms: C_4  and  N_13
    2  A    between atoms: N_7  and  C_16
    3  A    between atoms: C_8  and  C_12
    4  A    between atoms: N_13  and  C_27
    5  A    between atoms: C_16  and  C_30
    6  A    between atoms: C_27  and  C_30
                            x       y       z     vdW  Elec       q    Type
                         _______ _______ _______ _____ _____    ______ ____

>  <TORSDO>
F 6

$$$$
=
 OpenBabel10272413553D

 30 33  0  0  1  0  0  0  0  0999 V2000
  188.2880  177.3580  144.4990 C   0  0  0  0  0  2  0  0  0  0  0  0
  189.0040  177.1930  146.8900 C   0  0  0  0  0  0  0  0  0  0  0  0
  184.3850  178.5980  145.9350 C   0  0  0  0  0  2  0  0  0  0  0  0
  187.4530  178.2480  143.5850 C   0  0  2  0  0  3  0  0  0  0  0  0
  183.3460  178.6810  144.8070 C   0  0  0  0  0  2  0  0  0  0  0  0
  188.7980  177.3940  148.2560 C   0  0  0  0  0  3  0  0  0  0  0  0
  190.1400  176.5770  146.4760 F   0  0  0  0  0  0  0  0  0  0  0  0
  185.8320  178.7920  145.4450 C   0  0  2  0  0  3  0  0  0  0  0  0
  187.6390  178.0250  148.7060 C   0  0  0  0  0  3  0  0  0  0  0  0
  188.0470  177.6270  145.9580 C   0  0  0  0  0  0  0  0  0  0  0  0
  185.9830  178.2680  144.0100 C   0  0  1  0  0  3  0  0  0  0  0  0
  183.8130  179.6040  143.6820 C   0  0  0  0  0  2  0  0  0  0  0  0
  185.1240  179.1090  143.0500 C   0  0  0  0  0  2  0  0  0  0  0  0
  186.6770  178.4500  147.7880 C   0  0  0  0  0  3  0  0  0  0  0  0
  186.8520  178.2340  146.4130 C   0  0  0  0  0  0  0  0  0  0  0  0
  188.6780  176.5540  140.5550 O   0  0  0  0  0  0  0  0  0  0  0  0
  188.7930  177.1690  141.6510 C   0  0  0  0  0  0  0  0  0  0  0  0
  187.6430  177.8760  142.1800 N   0  0  0  0  0  0  0  0  0  0  0  0
  190.8530  178.2130  142.5630 N   0  0  0  0  0  0  0  0  0  0  0  0
  190.6860  176.0040  142.8070 N   0  0  0  0  0  2  0  0  0  0  0  0
  190.1080  177.1160  142.3260 C   0  0  0  0  0  0  0  0  0  0  0  0
  191.9260  177.7120  143.2070 C   0  0  0  0  0  3  0  0  0  0  0  0
  191.8280  176.3780  143.3560 N   0  0  0  0  0  0  0  0  0  0  0  0
  186.4810  178.0720  141.3250 C   0  0  0  0  0  2  0  0  0  0  0  0
  186.8980  178.7240  140.0170 C   0  0  0  0  0  2  0  0  0  0  0  0
  185.9380  178.3350  138.9070 C   0  0  0  0  0  2  0  0  0  0  0  0
  184.5760  178.2980  139.4170 N   0  0  0  0  0  2  0  0  0  0  0  0
  184.1590  180.5510  138.9630 O   0  0  0  0  0  0  0  0  0  0  0  0
  183.7380  179.4530  139.4140 C   0  0  0  0  0  0  0  0  0  0  0  0
  182.4450  179.3640  139.9130 O   0  0  0  0  0  1  0  0  0  0  0  0
  1 10  1  0  0  0  0
  2  6  1  0  0  0  0
  4 18  1  6  0  0  0
  4 11  1  0  0  0  0
  4  1  1  0  0  0  0
  5  3  1  0  0  0  0
  6  9  2  0  0  0  0
  7  2  1  0  0  0  0
  8  3  1  1  0  0  0
  8 15  1  0  0  0  0
 10 15  1  0  0  0  0
 10  2  2  0  0  0  0
 11 13  1  6  0  0  0
 11  8  1  0  0  0  0
 12  5  1  0  0  0  0
 13 12  1  0  0  0  0
 14  9  1  0  0  0  0
 15 14  2  0  0  0  0
 16 17  2  0  0  0  0
 17 18  1  0  0  0  0
 17 21  1  0  0  0  0
 19 22  1  0  0  0  0
 20 23  1  0  0  0  0
 21 19  2  0  0  0  0
 21 20  1  0  0  0  0
 22 23  2  0  0  0  0
 24 18  1  0  0  0  0
 25 24  1  0  0  0  0
 26 27  1  0  0  0  0
 26 25  1  0  0  0  0
 28 29  2  0  0  0  0
 29 27  1  0  0  0  0
 29 30  1  0  0  0  0
M  END
>  <MODEL>
9

>  <REMARK>
 VINA RESULT:      -8.1      2.619      3.679
  Name = 
  6 active torsions:
  status: ('A' for Active; 'I' for Inactive)
    1  A    between atoms: C_4  and  N_13
    2  A    between atoms: N_7  and  C_16
    3  A    between atoms: C_8  and  C_12
    4  A    between atoms: N_13  and  C_27
    5  A    between atoms: C_16  and  C_30
    6  A    between atoms: C_27  and  C_30
                            x       y       z     vdW  Elec       q    Type
                         _______ _______ _______ _____ _____    ______ ____

>  <TORSDO>
F 6

$$$$
