=
 OpenBabel10262423443D

 34 37  0  0  1  0  0  0  0  0999 V2000
  186.8050  178.3020  138.9630 N   0  0  1  0  0  0  0  0  0  0  0  0
  187.9680  178.8940  140.9520 O   0  0  0  0  0  0  0  0  0  0  0  0
  185.5280  178.3340  139.7080 C   0  0  1  0  0  3  0  0  0  0  0  0
  186.8090  179.0500  141.6980 C   0  0  0  0  0  3  0  0  0  0  0  0
  185.6250  178.7420  141.1730 C   0  0  0  0  0  0  0  0  0  0  0  0
  187.9800  178.0370  139.8210 C   0  0  2  0  0  3  0  0  0  0  0  0
  187.5220  176.1820  138.0200 O   0  0  0  0  0  0  0  0  0  0  0  0
  186.8650  177.8020  136.4770 C   0  0  1  0  0  3  0  0  0  0  0  0
  188.2180  176.0570  136.8360 C   0  0  0  0  0  0  0  0  0  0  0  0
  187.9090  176.9350  135.9480 N   0  0  0  0  0  0  0  0  0  0  0  0
  186.6240  177.2780  137.9110 C   0  0  2  0  0  3  0  0  0  0  0  0
  189.2560  175.0180  136.6080 C   0  0  0  0  0  1  0  0  0  0  0  0
  187.3040  179.2580  136.3950 C   0  0  0  0  0  1  0  0  0  0  0  0
  183.4160  178.9080  144.2550 C   0  0  0  0  0  0  0  0  0  0  0  0
  182.1400  178.8410  143.6900 C   0  0  0  0  0  3  0  0  0  0  0  0
  184.4170  178.7550  142.0410 C   0  0  0  0  0  0  0  0  0  0  0  0
  181.9950  178.7280  142.3060 C   0  0  0  0  0  3  0  0  0  0  0  0
  184.5460  178.8700  143.4340 C   0  0  0  0  0  3  0  0  0  0  0  0
  183.1270  178.6850  141.4860 C   0  0  0  0  0  3  0  0  0  0  0  0
  183.5570  179.0270  145.5950 F   0  0  0  0  0  0  0  0  0  0  0  0
  183.4370  178.0850  138.1350 C   0  0  0  0  0  1  0  0  0  0  0  0
  184.3850  179.4620  138.8380 S   0  0  0  0  0  0  0  0  0  0  0  0
  189.2760  178.2780  139.0510 C   0  0  0  0  0  2  0  0  0  0  0  0
  191.0010  176.6550  138.7110 F   0  0  0  0  0  0  0  0  0  0  0  0
  190.4540  177.5130  139.6480 C   0  0  2  0  0  3  0  0  0  0  0  0
  190.0650  176.7960  140.7820 O   0  0  0  0  0  0  0  0  0  0  0  0
  190.9540  177.2050  141.7830 C   0  0  0  0  0  2  0  0  0  0  0  0
  191.5170  176.2320  143.9660 C   0  0  0  0  0  1  0  0  0  0  0  0
  190.4060  176.8920  143.1680 C   0  0  0  0  0  0  0  0  0  0  0  0
  189.9970  178.2000  143.8690 C   0  0  0  0  0  2  0  0  0  0  0  0
  187.9160  177.0610  144.8250 C   0  0  0  0  0  2  0  0  0  0  0  0
  187.8900  176.5000  143.4040 C   0  0  0  0  0  2  0  0  0  0  0  0
  189.2440  175.8900  143.0470 C   0  0  0  0  0  2  0  0  0  0  0  0
  189.1430  177.9370  145.1120 C   0  0  0  0  0  2  0  0  0  0  0  0
  1 11  1  6  0  0  0
  1  3  1  0  0  0  0
  1  6  1  0  0  0  0
  2  4  1  0  0  0  0
  3 22  1  6  0  0  0
  3  5  1  0  0  0  0
  5  4  2  0  0  0  0
  5 16  1  0  0  0  0
  6 23  1  6  0  0  0
  6  2  1  0  0  0  0
  8 13  1  1  0  0  0
  8 11  1  0  0  0  0
  9  7  1  0  0  0  0
 10  8  1  0  0  0  0
 10  9  2  0  0  0  0
 11  7  1  1  0  0  0
 12  9  1  0  0  0  0
 14 20  1  0  0  0  0
 15 14  1  0  0  0  0
 16 18  1  0  0  0  0
 17 15  2  0  0  0  0
 18 14  2  0  0  0  0
 19 16  2  0  0  0  0
 19 17  1  0  0  0  0
 21 22  1  0  0  0  0
 23 25  1  0  0  0  0
 25 24  1  6  0  0  0
 25 26  1  0  0  0  0
 26 27  1  0  0  0  0
 27 29  1  0  0  0  0
 29 30  1  0  0  0  0
 29 28  1  0  0  0  0
 30 34  1  0  0  0  0
 31 34  1  0  0  0  0
 32 31  1  0  0  0  0
 33 29  1  0  0  0  0
 33 32  1  0  0  0  0
M  END
>  <MODEL>
1

>  <REMARK>
 VINA RESULT:      -8.4      0.000      0.000
  Name = 
  8 active torsions:
  status: ('A' for Active; 'I' for Inactive)
    1  A    between atoms: C_3  and  C_13
    2  A    between atoms: C_3  and  O_17
    3  A    between atoms: N_4  and  C_15
    4  A    between atoms: C_10  and  C_29
    5  A    between atoms: C_10  and  C_31
    6  A    between atoms: C_12  and  C_28
    7  A    between atoms: O_17  and  C_29
    8  A    between atoms: C_21  and  S_32
                            x       y       z     vdW  Elec       q    Type
                         _______ _______ _______ _____ _____    ______ ____

>  <TORSDO>
F 8

$$$$
=
 OpenBabel10262423443D

 34 37  0  0  1  0  0  0  0  0999 V2000
  190.8680  175.8250  136.5110 N   0  0  1  0  0  0  0  0  0  0  0  0
  192.0460  176.1340  138.5540 O   0  0  0  0  0  0  0  0  0  0  0  0
  192.1520  175.8310  135.7770 C   0  0  1  0  0  3  0  0  0  0  0  0
  193.2950  176.0450  137.9580 C   0  0  0  0  0  3  0  0  0  0  0  0
  193.4050  175.9570  136.6330 C   0  0  0  0  0  0  0  0  0  0  0  0
  190.9220  176.5530  137.7960 C   0  0  2  0  0  3  0  0  0  0  0  0
  189.2870  177.6060  136.0300 O   0  0  0  0  0  0  0  0  0  0  0  0
  188.6560  175.4770  135.3180 C   0  0  1  0  0  3  0  0  0  0  0  0
  187.9170  177.4540  136.0590 C   0  0  0  0  0  0  0  0  0  0  0  0
  187.5070  176.2910  135.6910 N   0  0  0  0  0  0  0  0  0  0  0  0
  189.8740  176.3930  135.5740 C   0  0  2  0  0  3  0  0  0  0  0  0
  186.9890  178.5260  136.5040 C   0  0  0  0  0  1  0  0  0  0  0  0
  188.6560  174.1780  136.1140 C   0  0  0  0  0  1  0  0  0  0  0  0
  196.9670  175.0890  135.6530 C   0  0  0  0  0  0  0  0  0  0  0  0
  197.2800  176.1330  134.7790 C   0  0  0  0  0  3  0  0  0  0  0  0
  194.7510  176.0340  136.0060 C   0  0  0  0  0  0  0  0  0  0  0  0
  196.3380  177.1300  134.5180 C   0  0  0  0  0  3  0  0  0  0  0  0
  195.7090  175.0380  136.2570 C   0  0  0  0  0  3  0  0  0  0  0  0
  195.0810  177.0800  135.1270 C   0  0  0  0  0  3  0  0  0  0  0  0
  197.8760  174.1170  135.8990 F   0  0  0  0  0  0  0  0  0  0  0  0
  192.1840  173.2460  136.2520 C   0  0  0  0  0  1  0  0  0  0  0  0
  192.2490  174.3030  134.7800 S   0  0  0  0  0  0  0  0  0  0  0  0
  189.6640  176.2890  138.6200 C   0  0  0  0  0  2  0  0  0  0  0  0
  189.7100  178.6570  138.9540 F   0  0  0  0  0  0  0  0  0  0  0  0
  189.3080  177.4640  139.5260 C   0  0  2  0  0  3  0  0  0  0  0  0
  189.8900  177.3200  140.7880 O   0  0  0  0  0  0  0  0  0  0  0  0
  188.8930  177.7200  141.6860 C   0  0  0  0  0  2  0  0  0  0  0  0
  190.0210  175.9010  142.8890 C   0  0  0  0  0  1  0  0  0  0  0  0
  189.1110  177.1040  143.0610 C   0  0  0  0  0  0  0  0  0  0  0  0
  189.8030  178.1260  143.9810 C   0  0  0  0  0  2  0  0  0  0  0  0
  188.3290  177.3930  145.9390 C   0  0  0  0  0  2  0  0  0  0  0  0
  187.2850  177.4210  144.8230 C   0  0  0  0  0  2  0  0  0  0  0  0
  187.7660  176.6100  143.6220 C   0  0  0  0  0  2  0  0  0  0  0  0
  189.7510  177.6970  145.4490 C   0  0  0  0  0  2  0  0  0  0  0  0
  1 11  1  6  0  0  0
  1  6  1  0  0  0  0
  3 22  1  1  0  0  0
  3  1  1  0  0  0  0
  3  5  1  0  0  0  0
  4  2  1  0  0  0  0
  5  4  2  0  0  0  0
  6  2  1  0  0  0  0
  6 23  1  1  0  0  0
  7  9  1  0  0  0  0
  8 11  1  0  0  0  0
  8 10  1  0  0  0  0
  8 13  1  1  0  0  0
  9 12  1  0  0  0  0
 10  9  2  0  0  0  0
 11  7  1  1  0  0  0
 14 20  1  0  0  0  0
 14 18  1  0  0  0  0
 15 14  2  0  0  0  0
 16 18  2  0  0  0  0
 16  5  1  0  0  0  0
 17 15  1  0  0  0  0
 17 19  2  0  0  0  0
 19 16  1  0  0  0  0
 22 21  1  0  0  0  0
 23 25  1  0  0  0  0
 25 24  1  6  0  0  0
 25 26  1  0  0  0  0
 26 27  1  0  0  0  0
 27 29  1  0  0  0  0
 28 29  1  0  0  0  0
 29 33  1  0  0  0  0
 29 30  1  0  0  0  0
 30 34  1  0  0  0  0
 32 31  1  0  0  0  0
 33 32  1  0  0  0  0
 34 31  1  0  0  0  0
M  END
>  <MODEL>
2

>  <REMARK>
 VINA RESULT:      -7.6      4.143      8.266
  Name = 
  8 active torsions:
  status: ('A' for Active; 'I' for Inactive)
    1  A    between atoms: C_3  and  C_13
    2  A    between atoms: C_3  and  O_17
    3  A    between atoms: N_4  and  C_15
    4  A    between atoms: C_10  and  C_29
    5  A    between atoms: C_10  and  C_31
    6  A    between atoms: C_12  and  C_28
    7  A    between atoms: O_17  and  C_29
    8  A    between atoms: C_21  and  S_32
                            x       y       z     vdW  Elec       q    Type
                         _______ _______ _______ _____ _____    ______ ____

>  <TORSDO>
F 8

$$$$
=
 OpenBabel10262423443D

 34 37  0  0  1  0  0  0  0  0999 V2000
  186.4990  177.2270  137.2710 N   0  0  1  0  0  0  0  0  0  0  0  0
  186.2300  178.7770  139.0550 O   0  0  0  0  0  0  0  0  0  0  0  0
  185.0630  176.8850  137.3610 C   0  0  1  0  0  3  0  0  0  0  0  0
  184.8580  178.5940  139.1360 C   0  0  0  0  0  3  0  0  0  0  0  0
  184.2580  177.6650  138.3930 C   0  0  0  0  0  0  0  0  0  0  0  0
  187.0590  177.7490  138.5360 C   0  0  2  0  0  3  0  0  0  0  0  0
  188.1880  175.5350  137.6990 O   0  0  0  0  0  0  0  0  0  0  0  0
  187.9090  176.1400  135.4640 C   0  0  1  0  0  3  0  0  0  0  0  0
  189.3720  175.4290  136.9990 C   0  0  0  0  0  0  0  0  0  0  0  0
  189.2840  175.7640  135.7600 N   0  0  0  0  0  0  0  0  0  0  0  0
  187.1720  175.9920  136.8140 C   0  0  2  0  0  3  0  0  0  0  0  0
  190.6480  174.9920  137.6230 C   0  0  0  0  0  1  0  0  0  0  0  0
  187.8660  177.5390  134.8640 C   0  0  0  0  0  1  0  0  0  0  0  0
  181.0820  175.9570  139.5750 C   0  0  0  0  0  0  0  0  0  0  0  0
  180.1000  176.8310  139.1020 C   0  0  0  0  0  3  0  0  0  0  0  0
  182.8180  177.3700  138.6170 C   0  0  0  0  0  0  0  0  0  0  0  0
  180.4680  177.9700  138.3840 C   0  0  0  0  0  3  0  0  0  0  0  0
  182.4320  176.2290  139.3380 C   0  0  0  0  0  3  0  0  0  0  0  0
  181.8190  178.2390  138.1440 C   0  0  0  0  0  3  0  0  0  0  0  0
  180.7270  174.8570  140.2790 F   0  0  0  0  0  0  0  0  0  0  0  0
  183.7240  175.3990  135.6550 C   0  0  0  0  0  1  0  0  0  0  0  0
  184.3150  177.1130  135.7100 S   0  0  0  0  0  0  0  0  0  0  0  0
  188.4540  178.3270  138.3100 C   0  0  0  0  0  2  0  0  0  0  0  0
  190.5790  177.8130  139.2830 F   0  0  0  0  0  0  0  0  0  0  0  0
  189.3100  178.2810  139.5730 C   0  0  2  0  0  3  0  0  0  0  0  0
  188.7190  177.4790  140.5520 O   0  0  0  0  0  0  0  0  0  0  0  0
  188.7450  178.2590  141.7140 C   0  0  0  0  0  2  0  0  0  0  0  0
  189.8870  176.2290  142.4900 C   0  0  0  0  0  1  0  0  0  0  0  0
  189.0460  177.4090  142.9410 C   0  0  0  0  0  0  0  0  0  0  0  0
  189.8500  178.2370  143.9580 C   0  0  0  0  0  2  0  0  0  0  0  0
  188.5050  177.2200  145.8820 C   0  0  0  0  0  2  0  0  0  0  0  0
  187.3780  177.4690  144.8800 C   0  0  0  0  0  2  0  0  0  0  0  0
  187.7280  176.8640  143.5220 C   0  0  0  0  0  2  0  0  0  0  0  0
  189.8960  177.5630  145.3320 C   0  0  0  0  0  2  0  0  0  0  0  0
  1 11  1  1  0  0  0
  1  3  1  0  0  0  0
  1  6  1  0  0  0  0
  2  4  1  0  0  0  0
  3 22  1  6  0  0  0
  3  5  1  0  0  0  0
  5 16  1  0  0  0  0
  5  4  2  0  0  0  0
  6 23  1  6  0  0  0
  6  2  1  0  0  0  0
  8 13  1  1  0  0  0
  8 10  1  0  0  0  0
  8 11  1  0  0  0  0
  9 12  1  0  0  0  0
  9  7  1  0  0  0  0
 10  9  2  0  0  0  0
 11  7  1  1  0  0  0
 14 20  1  0  0  0  0
 15 14  2  0  0  0  0
 16 18  2  0  0  0  0
 17 15  1  0  0  0  0
 18 14  1  0  0  0  0
 19 17  2  0  0  0  0
 19 16  1  0  0  0  0
 21 22  1  0  0  0  0
 23 25  1  0  0  0  0
 25 24  1  6  0  0  0
 25 26  1  0  0  0  0
 26 27  1  0  0  0  0
 27 29  1  0  0  0  0
 28 29  1  0  0  0  0
 29 33  1  0  0  0  0
 29 30  1  0  0  0  0
 30 34  1  0  0  0  0
 32 31  1  0  0  0  0
 33 32  1  0  0  0  0
 34 31  1  0  0  0  0
M  END
>  <MODEL>
3

>  <REMARK>
 VINA RESULT:      -7.5      2.485      3.058
  Name = 
  8 active torsions:
  status: ('A' for Active; 'I' for Inactive)
    1  A    between atoms: C_3  and  C_13
    2  A    between atoms: C_3  and  O_17
    3  A    between atoms: N_4  and  C_15
    4  A    between atoms: C_10  and  C_29
    5  A    between atoms: C_10  and  C_31
    6  A    between atoms: C_12  and  C_28
    7  A    between atoms: O_17  and  C_29
    8  A    between atoms: C_21  and  S_32
                            x       y       z     vdW  Elec       q    Type
                         _______ _______ _______ _____ _____    ______ ____

>  <TORSDO>
F 8

$$$$
=
 OpenBabel10262423443D

 34 37  0  0  1  0  0  0  0  0999 V2000
  183.4390  178.6750  141.0320 N   0  0  1  0  0  0  0  0  0  0  0  0
  185.7340  179.1180  140.5940 O   0  0  0  0  0  0  0  0  0  0  0  0
  183.7570  178.4720  142.4610 C   0  0  1  0  0  3  0  0  0  0  0  0
  186.1010  179.0490  141.9300 C   0  0  0  0  0  3  0  0  0  0  0  0
  185.2130  178.6890  142.8540 C   0  0  0  0  0  0  0  0  0  0  0  0
  184.5850  178.4250  140.1320 C   0  0  2  0  0  3  0  0  0  0  0  0
  182.5690  176.7760  139.7930 O   0  0  0  0  0  0  0  0  0  0  0  0
  181.0610  178.5160  140.1600 C   0  0  1  0  0  3  0  0  0  0  0  0
  181.6580  176.8740  138.7620 C   0  0  0  0  0  0  0  0  0  0  0  0
  180.8070  177.8290  138.9010 N   0  0  0  0  0  0  0  0  0  0  0  0
  182.2890  177.7870  140.7520 C   0  0  2  0  0  3  0  0  0  0  0  0
  181.6700  175.9770  137.5780 C   0  0  0  0  0  1  0  0  0  0  0  0
  181.2620  180.0050  139.9120 C   0  0  0  0  0  1  0  0  0  0  0  0
  187.3130  177.5710  145.8110 C   0  0  0  0  0  0  0  0  0  0  0  0
  186.5700  178.0650  146.8870 C   0  0  0  0  0  3  0  0  0  0  0  0
  185.6670  178.4580  144.2510 C   0  0  0  0  0  0  0  0  0  0  0  0
  185.3760  178.7510  146.6520 C   0  0  0  0  0  3  0  0  0  0  0  0
  186.8660  177.7720  144.5030 C   0  0  0  0  0  3  0  0  0  0  0  0
  184.9280  178.9460  145.3430 C   0  0  0  0  0  3  0  0  0  0  0  0
  188.4750  176.9150  146.0360 F   0  0  0  0  0  0  0  0  0  0  0  0
  181.5820  178.2190  143.9160 C   0  0  0  0  0  1  0  0  0  0  0  0
  182.6900  179.5770  143.4490 S   0  0  0  0  0  0  0  0  0  0  0  0
  184.2740  178.9040  138.7160 C   0  0  0  0  0  2  0  0  0  0  0  0
  185.1060  176.7880  137.9700 F   0  0  0  0  0  0  0  0  0  0  0  0
  185.0640  178.1350  137.6600 C   0  0  2  0  0  3  0  0  0  0  0  0
  186.3630  178.6370  137.5390 O   0  0  0  0  0  0  0  0  0  0  0  0
  187.1560  177.5130  137.2860 C   0  0  0  0  0  2  0  0  0  0  0  0
  188.9840  179.1520  137.3110 C   0  0  0  0  0  1  0  0  0  0  0  0
  188.5950  177.7440  137.7260 C   0  0  0  0  0  0  0  0  0  0  0  0
  188.6920  177.6300  139.2570 C   0  0  0  0  0  2  0  0  0  0  0  0
  190.9180  176.3870  139.0450 C   0  0  0  0  0  2  0  0  0  0  0  0
  190.1340  175.7100  137.9220 C   0  0  0  0  0  2  0  0  0  0  0  0
  189.5210  176.7560  136.9930 C   0  0  0  0  0  2  0  0  0  0  0  0
  190.1440  177.5220  139.7290 C   0  0  0  0  0  2  0  0  0  0  0  0
  1 11  1  6  0  0  0
  1  3  1  0  0  0  0
  2  4  1  0  0  0  0
  3  5  1  0  0  0  0
  3 22  1  1  0  0  0
  4  5  2  0  0  0  0
  5 16  1  0  0  0  0
  6 23  1  6  0  0  0
  6  2  1  0  0  0  0
  6  1  1  0  0  0  0
  8 13  1  6  0  0  0
  8 11  1  0  0  0  0
  9 10  2  0  0  0  0
  9  7  1  0  0  0  0
 10  8  1  0  0  0  0
 11  7  1  6  0  0  0
 12  9  1  0  0  0  0
 14 20  1  0  0  0  0
 14 15  1  0  0  0  0
 16 18  1  0  0  0  0
 16 19  2  0  0  0  0
 17 15  2  0  0  0  0
 18 14  2  0  0  0  0
 19 17  1  0  0  0  0
 22 21  1  0  0  0  0
 25 24  1  1  0  0  0
 25 23  1  0  0  0  0
 26 25  1  0  0  0  0
 27 26  1  0  0  0  0
 27 29  1  0  0  0  0
 28 29  1  0  0  0  0
 29 30  1  0  0  0  0
 30 34  1  0  0  0  0
 31 34  1  0  0  0  0
 32 31  1  0  0  0  0
 33 29  1  0  0  0  0
 33 32  1  0  0  0  0
M  END
>  <MODEL>
4

>  <REMARK>
 VINA RESULT:      -7.4      2.903      5.389
  Name = 
  8 active torsions:
  status: ('A' for Active; 'I' for Inactive)
    1  A    between atoms: C_3  and  C_13
    2  A    between atoms: C_3  and  O_17
    3  A    between atoms: N_4  and  C_15
    4  A    between atoms: C_10  and  C_29
    5  A    between atoms: C_10  and  C_31
    6  A    between atoms: C_12  and  C_28
    7  A    between atoms: O_17  and  C_29
    8  A    between atoms: C_21  and  S_32
                            x       y       z     vdW  Elec       q    Type
                         _______ _______ _______ _____ _____    ______ ____

>  <TORSDO>
F 8

$$$$
=
 OpenBabel10262423443D

 34 37  0  0  1  0  0  0  0  0999 V2000
  183.1960  177.3710  139.1290 N   0  0  1  0  0  0  0  0  0  0  0  0
  185.2120  178.6340  139.1100 O   0  0  0  0  0  0  0  0  0  0  0  0
  183.1430  177.4920  140.6020 C   0  0  1  0  0  3  0  0  0  0  0  0
  185.1810  178.8850  140.4730 C   0  0  0  0  0  3  0  0  0  0  0  0
  184.2510  178.3190  141.2410 C   0  0  0  0  0  0  0  0  0  0  0  0
  184.5630  177.4890  138.5790 C   0  0  2  0  0  3  0  0  0  0  0  0
  183.4490  175.1370  138.2100 O   0  0  0  0  0  0  0  0  0  0  0  0
  181.3960  176.1670  137.8090 C   0  0  1  0  0  3  0  0  0  0  0  0
  182.9100  174.7290  137.0080 C   0  0  0  0  0  0  0  0  0  0  0  0
  181.7810  175.2760  136.7230 N   0  0  0  0  0  0  0  0  0  0  0  0
  182.5630  176.0710  138.8160 C   0  0  2  0  0  3  0  0  0  0  0  0
  183.5840  173.7630  136.1020 C   0  0  0  0  0  1  0  0  0  0  0  0
  181.1330  177.5670  137.2680 C   0  0  0  0  0  1  0  0  0  0  0  0
  185.6170  178.2800  144.7810 C   0  0  0  0  0  0  0  0  0  0  0  0
  184.5370  178.7920  145.5050 C   0  0  0  0  0  3  0  0  0  0  0  0
  184.3380  178.4650  142.7190 C   0  0  0  0  0  0  0  0  0  0  0  0
  183.3570  179.1380  144.8440 C   0  0  0  0  0  3  0  0  0  0  0  0
  185.5180  178.1230  143.3970 C   0  0  0  0  0  3  0  0  0  0  0  0
  183.2580  178.9760  143.4590 C   0  0  0  0  0  3  0  0  0  0  0  0
  186.7650  177.9530  145.4190 F   0  0  0  0  0  0  0  0  0  0  0  0
  181.7360  179.6180  139.9580 C   0  0  0  0  0  1  0  0  0  0  0  0
  181.5200  178.1950  141.0610 S   0  0  0  0  0  0  0  0  0  0  0  0
  184.5230  177.6220  137.0590 C   0  0  0  0  0  2  0  0  0  0  0  0
  186.1080  175.8300  137.0340 F   0  0  0  0  0  0  0  0  0  0  0  0
  185.7470  177.0000  136.3910 C   0  0  2  0  0  3  0  0  0  0  0  0
  186.8230  177.8920  136.3840 O   0  0  0  0  0  0  0  0  0  0  0  0
  187.9540  177.0850  136.5540 C   0  0  0  0  0  2  0  0  0  0  0  0
  188.9820  179.1690  137.3450 C   0  0  0  0  0  1  0  0  0  0  0  0
  188.8990  177.6740  137.5930 C   0  0  0  0  0  0  0  0  0  0  0  0
  188.3320  177.4320  139.0030 C   0  0  0  0  0  2  0  0  0  0  0  0
  190.6780  176.9130  139.8800 C   0  0  0  0  0  2  0  0  0  0  0  0
  190.7250  176.1610  138.5510 C   0  0  0  0  0  2  0  0  0  0  0  0
  190.3060  177.0780  137.4040 C   0  0  0  0  0  2  0  0  0  0  0  0
  189.3760  177.6980  140.0900 C   0  0  0  0  0  2  0  0  0  0  0  0
  1 11  1  1  0  0  0
  1  3  1  0  0  0  0
  2  4  1  0  0  0  0
  3 22  1  6  0  0  0
  3  5  1  0  0  0  0
  4  5  2  0  0  0  0
  5 16  1  0  0  0  0
  6 23  1  6  0  0  0
  6  2  1  0  0  0  0
  6  1  1  0  0  0  0
  8 13  1  6  0  0  0
  8 11  1  0  0  0  0
  9  7  1  0  0  0  0
 10  9  2  0  0  0  0
 10  8  1  0  0  0  0
 11  7  1  6  0  0  0
 12  9  1  0  0  0  0
 14 20  1  0  0  0  0
 14 15  1  0  0  0  0
 16 18  1  0  0  0  0
 16 19  2  0  0  0  0
 17 15  2  0  0  0  0
 18 14  2  0  0  0  0
 19 17  1  0  0  0  0
 21 22  1  0  0  0  0
 25 24  1  1  0  0  0
 25 23  1  0  0  0  0
 26 25  1  0  0  0  0
 26 27  1  0  0  0  0
 27 29  1  0  0  0  0
 28 29  1  0  0  0  0
 29 30  1  0  0  0  0
 30 34  1  0  0  0  0
 31 34  1  0  0  0  0
 32 31  1  0  0  0  0
 33 29  1  0  0  0  0
 33 32  1  0  0  0  0
M  END
>  <MODEL>
5

>  <REMARK>
 VINA RESULT:      -7.4      2.808      4.638
  Name = 
  8 active torsions:
  status: ('A' for Active; 'I' for Inactive)
    1  A    between atoms: C_3  and  C_13
    2  A    between atoms: C_3  and  O_17
    3  A    between atoms: N_4  and  C_15
    4  A    between atoms: C_10  and  C_29
    5  A    between atoms: C_10  and  C_31
    6  A    between atoms: C_12  and  C_28
    7  A    between atoms: O_17  and  C_29
    8  A    between atoms: C_21  and  S_32
                            x       y       z     vdW  Elec       q    Type
                         _______ _______ _______ _____ _____    ______ ____

>  <TORSDO>
F 8

$$$$
=
 OpenBabel10262423443D

 34 37  0  0  1  0  0  0  0  0999 V2000
  189.5460  177.5290  139.4780 N   0  0  1  0  0  0  0  0  0  0  0  0
  191.6850  177.1100  140.4290 O   0  0  0  0  0  0  0  0  0  0  0  0
  188.9630  177.5970  140.8360 C   0  0  1  0  0  3  0  0  0  0  0  0
  191.2420  177.2630  141.7340 C   0  0  0  0  0  3  0  0  0  0  0  0
  189.9460  177.4400  141.9880 C   0  0  0  0  0  0  0  0  0  0  0  0
  190.7810  176.7190  139.4080 C   0  0  2  0  0  3  0  0  0  0  0  0
  188.7840  175.7610  137.9980 O   0  0  0  0  0  0  0  0  0  0  0  0
  188.1230  177.9190  137.4140 C   0  0  1  0  0  3  0  0  0  0  0  0
  188.6600  175.8950  136.6300 C   0  0  0  0  0  0  0  0  0  0  0  0
  188.3120  177.0710  136.2450 N   0  0  0  0  0  0  0  0  0  0  0  0
  188.4680  177.0050  138.6110 C   0  0  2  0  0  3  0  0  0  0  0  0
  188.9320  174.7870  135.6780 C   0  0  0  0  0  1  0  0  0  0  0  0
  188.9840  179.1700  137.2980 C   0  0  0  0  0  1  0  0  0  0  0  0
  187.6710  177.1560  145.0120 C   0  0  0  0  0  0  0  0  0  0  0  0
  188.5720  177.3520  146.0620 C   0  0  0  0  0  3  0  0  0  0  0  0
  189.4720  177.4310  143.3980 C   0  0  0  0  0  0  0  0  0  0  0  0
  189.9200  177.5910  145.7870 C   0  0  0  0  0  3  0  0  0  0  0  0
  188.1200  177.1900  143.6900 C   0  0  0  0  0  3  0  0  0  0  0  0
  190.3670  177.6300  144.4630 C   0  0  0  0  0  3  0  0  0  0  0  0
  186.3660  176.9140  145.2780 F   0  0  0  0  0  0  0  0  0  0  0  0
  186.4570  178.3880  140.9200 C   0  0  0  0  0  1  0  0  0  0  0  0
  188.0820  179.1890  141.0020 S   0  0  0  0  0  0  0  0  0  0  0  0
  191.4710  176.9040  138.0590 C   0  0  0  0  0  2  0  0  0  0  0  0
  191.6090  174.5160  138.0970 F   0  0  0  0  0  0  0  0  0  0  0  0
  192.2340  175.6550  137.6240 C   0  0  2  0  0  3  0  0  0  0  0  0
  193.5580  175.6940  138.0700 O   0  0  0  0  0  0  0  0  0  0  0  0
  194.3270  175.6420  136.9020 C   0  0  0  0  0  2  0  0  0  0  0  0
  196.4880  174.5980  136.3870 C   0  0  0  0  0  1  0  0  0  0  0  0
  195.0510  174.3080  136.7790 C   0  0  0  0  0  0  0  0  0  0  0  0
  195.0390  173.5870  138.1380 C   0  0  0  0  0  2  0  0  0  0  0  0
  194.6180  171.3500  136.9720 C   0  0  0  0  0  2  0  0  0  0  0  0
  193.6690  172.2420  136.1730 C   0  0  0  0  0  2  0  0  0  0  0  0
  194.4060  173.4750  135.6550 C   0  0  0  0  0  2  0  0  0  0  0  0
  195.4500  172.1180  138.0070 C   0  0  0  0  0  2  0  0  0  0  0  0
  1 11  1  6  0  0  0
  1  3  1  0  0  0  0
  2  4  1  0  0  0  0
  3 22  1  1  0  0  0
  3  5  1  0  0  0  0
  4  5  2  0  0  0  0
  5 16  1  0  0  0  0
  6 23  1  6  0  0  0
  6  1  1  0  0  0  0
  6  2  1  0  0  0  0
  8 13  1  6  0  0  0
  8 11  1  0  0  0  0
  9  7  1  0  0  0  0
 10  9  2  0  0  0  0
 10  8  1  0  0  0  0
 11  7  1  6  0  0  0
 12  9  1  0  0  0  0
 14 20  1  0  0  0  0
 14 15  1  0  0  0  0
 16 18  1  0  0  0  0
 16 19  2  0  0  0  0
 17 15  2  0  0  0  0
 18 14  2  0  0  0  0
 19 17  1  0  0  0  0
 21 22  1  0  0  0  0
 25 23  1  0  0  0  0
 25 26  1  0  0  0  0
 25 24  1  1  0  0  0
 27 26  1  0  0  0  0
 28 29  1  0  0  0  0
 29 27  1  0  0  0  0
 29 30  1  0  0  0  0
 31 34  1  0  0  0  0
 32 31  1  0  0  0  0
 33 32  1  0  0  0  0
 33 29  1  0  0  0  0
 34 30  1  0  0  0  0
M  END
>  <MODEL>
6

>  <REMARK>
 VINA RESULT:      -6.9      3.445      5.887
  Name = 
  8 active torsions:
  status: ('A' for Active; 'I' for Inactive)
    1  A    between atoms: C_3  and  C_13
    2  A    between atoms: C_3  and  O_17
    3  A    between atoms: N_4  and  C_15
    4  A    between atoms: C_10  and  C_29
    5  A    between atoms: C_10  and  C_31
    6  A    between atoms: C_12  and  C_28
    7  A    between atoms: O_17  and  C_29
    8  A    between atoms: C_21  and  S_32
                            x       y       z     vdW  Elec       q    Type
                         _______ _______ _______ _____ _____    ______ ____

>  <TORSDO>
F 8

$$$$
=
 OpenBabel10262423443D

 34 37  0  0  1  0  0  0  0  0999 V2000
  190.2170  176.4140  138.2570 N   0  0  1  0  0  0  0  0  0  0  0  0
  192.2900  176.9690  139.2830 O   0  0  0  0  0  0  0  0  0  0  0  0
  189.5310  176.6070  139.5530 C   0  0  1  0  0  3  0  0  0  0  0  0
  191.7130  177.2730  140.5060 C   0  0  0  0  0  3  0  0  0  0  0  0
  190.4130  177.0650  140.7080 C   0  0  0  0  0  0  0  0  0  0  0  0
  191.6480  176.0690  138.3940 C   0  0  2  0  0  3  0  0  0  0  0  0
  190.1740  174.1730  137.3220 O   0  0  0  0  0  0  0  0  0  0  0  0
  188.9750  175.7840  136.1360 C   0  0  1  0  0  3  0  0  0  0  0  0
  190.1660  173.8980  135.9710 C   0  0  0  0  0  0  0  0  0  0  0  0
  189.5310  174.7620  135.2600 N   0  0  0  0  0  0  0  0  0  0  0  0
  189.4420  175.3710  137.5500 C   0  0  2  0  0  3  0  0  0  0  0  0
  190.8530  172.7210  135.3770 C   0  0  0  0  0  1  0  0  0  0  0  0
  189.4390  177.1640  135.6890 C   0  0  0  0  0  1  0  0  0  0  0  0
  189.9040  178.3180  144.2540 C   0  0  0  0  0  0  0  0  0  0  0  0
  188.7600  177.6150  144.6390 C   0  0  0  0  0  3  0  0  0  0  0  0
  189.8500  177.2360  142.0740 C   0  0  0  0  0  0  0  0  0  0  0  0
  188.1590  176.7210  143.7510 C   0  0  0  0  0  3  0  0  0  0  0  0
  190.4410  178.1330  142.9780 C   0  0  0  0  0  3  0  0  0  0  0  0
  188.7010  176.5330  142.4760 C   0  0  0  0  0  3  0  0  0  0  0  0
  190.4810  179.1920  145.1110 F   0  0  0  0  0  0  0  0  0  0  0  0
  189.2650  178.9870  138.4700 C   0  0  0  0  0  1  0  0  0  0  0  0
  188.1750  177.8070  139.3120 S   0  0  0  0  0  0  0  0  0  0  0  0
  192.3530  176.1450  137.0420 C   0  0  0  0  0  2  0  0  0  0  0  0
  193.2370  174.0370  137.7480 F   0  0  0  0  0  0  0  0  0  0  0  0
  193.4730  175.1150  136.9150 C   0  0  2  0  0  3  0  0  0  0  0  0
  194.7150  175.6830  137.2090 O   0  0  0  0  0  0  0  0  0  0  0  0
  195.4290  174.6640  137.8490 C   0  0  0  0  0  2  0  0  0  0  0  0
  196.9080  175.4040  136.0350 C   0  0  0  0  0  1  0  0  0  0  0  0
  196.7180  174.3440  137.1040 C   0  0  0  0  0  0  0  0  0  0  0  0
  197.9060  174.4000  138.0800 C   0  0  0  0  0  2  0  0  0  0  0  0
  198.9420  172.3420  136.9700 C   0  0  0  0  0  2  0  0  0  0  0  0
  197.4790  171.9030  137.0150 C   0  0  0  0  0  2  0  0  0  0  0  0
  196.5820  172.9780  136.4060 C   0  0  0  0  0  2  0  0  0  0  0  0
  199.1660  173.7710  137.4810 C   0  0  0  0  0  2  0  0  0  0  0  0
  1 11  1  1  0  0  0
  1  6  1  0  0  0  0
  1  3  1  0  0  0  0
  2  4  1  0  0  0  0
  3 22  1  6  0  0  0
  3  5  1  0  0  0  0
  4  5  2  0  0  0  0
  5 16  1  0  0  0  0
  6 23  1  6  0  0  0
  6  2  1  0  0  0  0
  8 13  1  6  0  0  0
  8 11  1  0  0  0  0
  9  7  1  0  0  0  0
 10  9  2  0  0  0  0
 10  8  1  0  0  0  0
 11  7  1  6  0  0  0
 12  9  1  0  0  0  0
 14 15  1  0  0  0  0
 14 20  1  0  0  0  0
 16 19  2  0  0  0  0
 16 18  1  0  0  0  0
 17 15  2  0  0  0  0
 18 14  2  0  0  0  0
 19 17  1  0  0  0  0
 21 22  1  0  0  0  0
 25 23  1  0  0  0  0
 25 26  1  0  0  0  0
 25 24  1  1  0  0  0
 26 27  1  0  0  0  0
 28 29  1  0  0  0  0
 29 27  1  0  0  0  0
 29 30  1  0  0  0  0
 31 32  1  0  0  0  0
 31 34  1  0  0  0  0
 33 32  1  0  0  0  0
 33 29  1  0  0  0  0
 34 30  1  0  0  0  0
M  END
>  <MODEL>
7

>  <REMARK>
 VINA RESULT:      -6.6      4.736      6.855
  Name = 
  8 active torsions:
  status: ('A' for Active; 'I' for Inactive)
    1  A    between atoms: C_3  and  C_13
    2  A    between atoms: C_3  and  O_17
    3  A    between atoms: N_4  and  C_15
    4  A    between atoms: C_10  and  C_29
    5  A    between atoms: C_10  and  C_31
    6  A    between atoms: C_12  and  C_28
    7  A    between atoms: O_17  and  C_29
    8  A    between atoms: C_21  and  S_32
                            x       y       z     vdW  Elec       q    Type
                         _______ _______ _______ _____ _____    ______ ____

>  <TORSDO>
F 8

$$$$
=
 OpenBabel10262423443D

 34 37  0  0  1  0  0  0  0  0999 V2000
  184.8230  177.7910  138.6880 N   0  0  1  0  0  0  0  0  0  0  0  0
  186.7690  178.5590  139.8200 O   0  0  0  0  0  0  0  0  0  0  0  0
  185.6690  177.3110  137.5740 C   0  0  1  0  0  3  0  0  0  0  0  0
  187.6410  178.0440  138.8720 C   0  0  0  0  0  3  0  0  0  0  0  0
  187.1700  177.4910  137.7560 C   0  0  0  0  0  0  0  0  0  0  0  0
  185.4380  178.8920  139.4600 C   0  0  2  0  0  3  0  0  0  0  0  0
  183.1270  179.5030  138.3800 O   0  0  0  0  0  0  0  0  0  0  0  0
  182.3370  177.3140  138.5250 C   0  0  1  0  0  3  0  0  0  0  0  0
  181.8720  179.4600  138.9500 C   0  0  0  0  0  0  0  0  0  0  0  0
  181.3880  178.2740  139.0710 N   0  0  0  0  0  0  0  0  0  0  0  0
  183.5350  178.1760  138.0700 C   0  0  2  0  0  3  0  0  0  0  0  0
  181.1470  180.6720  139.4120 C   0  0  0  0  0  1  0  0  0  0  0  0
  182.6720  176.2580  139.5710 C   0  0  0  0  0  1  0  0  0  0  0  0
  190.0670  175.8380  135.9450 C   0  0  0  0  0  0  0  0  0  0  0  0
  189.8870  176.3050  134.6400 C   0  0  0  0  0  3  0  0  0  0  0  0
  188.1200  177.1000  136.6790 C   0  0  0  0  0  0  0  0  0  0  0  0
  188.8300  177.1700  134.3500 C   0  0  0  0  0  3  0  0  0  0  0  0
  189.1860  176.2290  136.9550 C   0  0  0  0  0  3  0  0  0  0  0  0
  187.9520  177.5650  135.3630 C   0  0  0  0  0  3  0  0  0  0  0  0
  191.0850  174.9910  136.2250 F   0  0  0  0  0  0  0  0  0  0  0  0
  184.7040  175.8540  135.6090 C   0  0  0  0  0  1  0  0  0  0  0  0
  185.2990  175.5440  137.2950 S   0  0  0  0  0  0  0  0  0  0  0  0
  184.6480  179.1600  140.7390 C   0  0  0  0  0  2  0  0  0  0  0  0
  183.7920  177.5610  142.2990 F   0  0  0  0  0  0  0  0  0  0  0  0
  184.9580  178.1420  141.8340 C   0  0  2  0  0  3  0  0  0  0  0  0
  185.6510  178.7360  142.8910 O   0  0  0  0  0  0  0  0  0  0  0  0
  186.9840  178.3550  142.7000 C   0  0  0  0  0  2  0  0  0  0  0  0
  187.8570  176.1530  143.3440 C   0  0  0  0  0  1  0  0  0  0  0  0
  187.4940  177.5280  143.8730 C   0  0  0  0  0  0  0  0  0  0  0  0
  188.7550  178.1870  144.4600 C   0  0  0  0  0  2  0  0  0  0  0  0
  187.9600  177.6460  146.8300 C   0  0  0  0  0  2  0  0  0  0  0  0
  186.6410  178.1100  146.2130 C   0  0  0  0  0  2  0  0  0  0  0  0
  186.3690  177.3610  144.9100 C   0  0  0  0  0  2  0  0  0  0  0  0
  189.1200  177.6020  145.8260 C   0  0  0  0  0  2  0  0  0  0  0  0
  1 11  1  6  0  0  0
  1  6  1  0  0  0  0
  3 22  1  1  0  0  0
  3  5  1  0  0  0  0
  3  1  1  0  0  0  0
  4  2  1  0  0  0  0
  5  4  2  0  0  0  0
  6  2  1  0  0  0  0
  6 23  1  1  0  0  0
  7  9  1  0  0  0  0
  8 10  1  0  0  0  0
  8 13  1  1  0  0  0
  9 10  2  0  0  0  0
  9 12  1  0  0  0  0
 11  7  1  1  0  0  0
 11  8  1  0  0  0  0
 14 20  1  0  0  0  0
 14 18  1  0  0  0  0
 15 14  2  0  0  0  0
 16 18  2  0  0  0  0
 16  5  1  0  0  0  0
 17 15  1  0  0  0  0
 17 19  2  0  0  0  0
 19 16  1  0  0  0  0
 21 22  1  0  0  0  0
 23 25  1  0  0  0  0
 25 24  1  1  0  0  0
 25 26  1  0  0  0  0
 27 26  1  0  0  0  0
 27 29  1  0  0  0  0
 28 29  1  0  0  0  0
 29 30  1  0  0  0  0
 29 33  1  0  0  0  0
 30 34  1  0  0  0  0
 32 31  1  0  0  0  0
 33 32  1  0  0  0  0
 34 31  1  0  0  0  0
M  END
>  <MODEL>
8

>  <REMARK>
 VINA RESULT:      -6.6      2.374      6.299
  Name = 
  8 active torsions:
  status: ('A' for Active; 'I' for Inactive)
    1  A    between atoms: C_3  and  C_13
    2  A    between atoms: C_3  and  O_17
    3  A    between atoms: N_4  and  C_15
    4  A    between atoms: C_10  and  C_29
    5  A    between atoms: C_10  and  C_31
    6  A    between atoms: C_12  and  C_28
    7  A    between atoms: O_17  and  C_29
    8  A    between atoms: C_21  and  S_32
                            x       y       z     vdW  Elec       q    Type
                         _______ _______ _______ _____ _____    ______ ____

>  <TORSDO>
F 8

$$$$
=
 OpenBabel10262423443D

 34 37  0  0  1  0  0  0  0  0999 V2000
  185.8430  178.5020  139.2990 N   0  0  1  0  0  0  0  0  0  0  0  0
  188.1210  178.6370  138.6270 O   0  0  0  0  0  0  0  0  0  0  0  0
  186.2760  178.2180  140.6840 C   0  0  1  0  0  3  0  0  0  0  0  0
  188.6100  178.4830  139.9150 C   0  0  0  0  0  3  0  0  0  0  0  0
  187.7800  178.2240  140.9240 C   0  0  0  0  0  0  0  0  0  0  0  0
  186.8450  178.1210  138.2810 C   0  0  2  0  0  3  0  0  0  0  0  0
  184.5290  176.9240  138.0020 O   0  0  0  0  0  0  0  0  0  0  0  0
  183.3460  178.7190  138.9060 C   0  0  1  0  0  3  0  0  0  0  0  0
  183.4650  177.2790  137.1990 C   0  0  0  0  0  0  0  0  0  0  0  0
  182.7810  178.2760  137.6390 N   0  0  0  0  0  0  0  0  0  0  0  0
  184.5590  177.7880  139.1310 C   0  0  2  0  0  3  0  0  0  0  0  0
  183.1460  176.5910  135.9210 C   0  0  0  0  0  1  0  0  0  0  0  0
  183.6860  180.2020  138.8370 C   0  0  0  0  0  1  0  0  0  0  0  0
  190.0400  178.2220  143.9730 C   0  0  0  0  0  0  0  0  0  0  0  0
  189.3750  177.3290  144.8160 C   0  0  0  0  0  3  0  0  0  0  0  0
  188.3390  177.8950  142.2630 C   0  0  0  0  0  0  0  0  0  0  0  0
  188.1960  176.7140  144.3880 C   0  0  0  0  0  3  0  0  0  0  0  0
  189.5220  178.5070  142.7070 C   0  0  0  0  0  3  0  0  0  0  0  0
  187.6810  176.9960  143.1200 C   0  0  0  0  0  3  0  0  0  0  0  0
  191.1770  178.8260  144.3900 F   0  0  0  0  0  0  0  0  0  0  0  0
  184.3870  178.1770  142.5130 C   0  0  0  0  0  1  0  0  0  0  0  0
  185.4800  179.4330  141.7930 S   0  0  0  0  0  0  0  0  0  0  0  0
  186.4600  178.6750  136.9110 C   0  0  0  0  0  2  0  0  0  0  0  0
  186.9020  178.5270  134.5640 F   0  0  0  0  0  0  0  0  0  0  0  0
  187.4070  178.2040  135.8100 C   0  0  2  0  0  3  0  0  0  0  0  0
  187.6290  176.8270  135.8930 O   0  0  0  0  0  0  0  0  0  0  0  0
  189.0000  176.6740  135.6540 C   0  0  0  0  0  2  0  0  0  0  0  0
  188.4590  174.9010  137.2640 C   0  0  0  0  0  1  0  0  0  0  0  0
  189.6030  175.6170  136.5690 C   0  0  0  0  0  0  0  0  0  0  0  0
  190.3940  174.5980  135.7300 C   0  0  0  0  0  2  0  0  0  0  0  0
  192.2250  174.5190  137.5150 C   0  0  0  0  0  2  0  0  0  0  0  0
  191.9570  176.0230  137.4840 C   0  0  0  0  0  2  0  0  0  0  0  0
  190.4640  176.3020  137.6460 C   0  0  0  0  0  2  0  0  0  0  0  0
  191.2890  173.7150  136.6030 C   0  0  0  0  0  2  0  0  0  0  0  0
  1 11  1  6  0  0  0
  1  3  1  0  0  0  0
  2  4  1  0  0  0  0
  3  5  1  0  0  0  0
  3 22  1  1  0  0  0
  4  5  2  0  0  0  0
  5 16  1  0  0  0  0
  6 23  1  6  0  0  0
  6  2  1  0  0  0  0
  6  1  1  0  0  0  0
  8 13  1  6  0  0  0
  8 11  1  0  0  0  0
  9 10  2  0  0  0  0
  9  7  1  0  0  0  0
 10  8  1  0  0  0  0
 11  7  1  6  0  0  0
 12  9  1  0  0  0  0
 14 20  1  0  0  0  0
 14 15  1  0  0  0  0
 16 18  1  0  0  0  0
 16 19  2  0  0  0  0
 17 15  2  0  0  0  0
 18 14  2  0  0  0  0
 19 17  1  0  0  0  0
 22 21  1  0  0  0  0
 25 24  1  6  0  0  0
 25 26  1  0  0  0  0
 25 23  1  0  0  0  0
 27 26  1  0  0  0  0
 27 29  1  0  0  0  0
 29 28  1  0  0  0  0
 29 33  1  0  0  0  0
 30 29  1  0  0  0  0
 30 34  1  0  0  0  0
 32 31  1  0  0  0  0
 32 33  1  0  0  0  0
 34 31  1  0  0  0  0
M  END
>  <MODEL>
9

>  <REMARK>
 VINA RESULT:      -6.5      2.456      5.587
  Name = 
  8 active torsions:
  status: ('A' for Active; 'I' for Inactive)
    1  A    between atoms: C_3  and  C_13
    2  A    between atoms: C_3  and  O_17
    3  A    between atoms: N_4  and  C_15
    4  A    between atoms: C_10  and  C_29
    5  A    between atoms: C_10  and  C_31
    6  A    between atoms: C_12  and  C_28
    7  A    between atoms: O_17  and  C_29
    8  A    between atoms: C_21  and  S_32
                            x       y       z     vdW  Elec       q    Type
                         _______ _______ _______ _____ _____    ______ ____

>  <TORSDO>
F 8

$$$$
