=
 OpenBabel10272413283D

 32 38  0  0  1  0  0  0  0  0999 V2000
  180.4720  178.6570  141.0630 N   0  0  0  0  0  0  0  0  0  0  0  0
  185.1670  178.6200  143.1040 C   0  0  2  0  0  3  0  0  0  0  0  0
  188.0250  177.7580  139.1830 C   0  0  0  0  0  2  0  0  0  0  0  0
  189.0720  178.2500  139.9800 O   0  0  0  0  0  0  0  0  0  0  0  0
  186.1660  178.2040  145.2990 C   0  0  0  0  0  0  0  0  0  0  0  0
  187.3030  177.8810  146.0580 C   0  0  0  0  0  0  0  0  0  0  0  0
  182.7450  178.7850  142.8260 C   0  0  0  0  0  0  0  0  0  0  0  0
  184.1250  178.5330  140.8650 N   0  0  0  0  0  0  0  0  0  0  0  0
  189.5860  177.2420  147.5640 C   0  0  0  0  0  3  0  0  0  0  0  0
  181.7510  178.1620  140.5350 C   0  0  0  0  0  2  0  0  0  0  0  0
  186.7180  178.4290  139.6020 C   0  0  0  0  0  2  0  0  0  0  0  0
  185.3180  178.9220  141.6260 C   0  0  2  0  0  3  0  0  0  0  0  0
  186.5200  178.3260  141.0520 N   0  0  2  0  0  0  0  0  0  0  0  0
  187.5080  178.0410  143.2480 C   0  0  0  0  0  0  0  0  0  0  0  0
  188.3660  177.4730  148.2060 C   0  0  0  0  0  3  0  0  0  0  0  0
  180.3180  178.3300  142.4900 C   0  0  0  0  0  2  0  0  0  0  0  0
  182.9300  178.5550  141.3790 C   0  0  0  0  0  0  0  0  0  0  0  0
  187.2290  177.7920  147.4560 C   0  0  0  0  0  3  0  0  0  0  0  0
  181.3750  179.0060  143.3730 C   0  0  0  0  0  2  0  0  0  0  0  0
  188.9380  177.6320  141.2360 C   0  0  0  0  0  2  0  0  0  0  0  0
  187.6460  178.0480  141.9040 C   0  0  1  0  0  3  0  0  0  0  0  0
  188.6230  177.7230  144.0390 C   0  0  0  0  0  3  0  0  0  0  0  0
  183.7990  178.7970  143.6410 C   0  0  0  0  0  3  0  0  0  0  0  0
  184.9730  178.4350  145.9810 O   0  0  0  0  0  1  0  0  0  0  0  0
  189.6690  177.3280  146.1720 C   0  0  0  0  0  3  0  0  0  0  0  0
  186.2490  178.3060  143.8740 C   0  0  0  0  0  0  0  0  0  0  0  0
  188.5350  177.6470  145.4190 C   0  0  0  0  0  0  0  0  0  0  0  0
  180.3690  180.0980  140.8390 C   0  0  0  0  0  2  0  0  0  0  0  0
  181.3490  181.1750  138.8440 C   0  0  0  0  0  0  0  0  0  0  0  0
  180.1530  180.3830  139.3640 C   0  0  2  0  0  3  0  0  0  0  0  0
  179.9820  181.7850  139.1460 C   0  0  0  0  0  2  0  0  0  0  0  0
  182.5110  181.2600  138.4820 O   0  0  0  0  0  0  0  0  0  0  0  0
  1 16  1  0  0  0  0
  2 23  1  1  0  0  0
  2 26  1  0  0  0  0
  3 11  1  0  0  0  0
  3  4  1  0  0  0  0
  4 20  1  0  0  0  0
  5 24  1  0  0  0  0
  5  6  1  0  0  0  0
  6 18  1  0  0  0  0
  7 19  1  0  0  0  0
  7 23  2  0  0  0  0
  8 17  2  0  0  0  0
  9 15  1  0  0  0  0
 10  1  1  0  0  0  0
 10 17  1  0  0  0  0
 12  8  1  6  0  0  0
 12  2  1  0  0  0  0
 13 11  1  6  0  0  0
 13 12  1  0  0  0  0
 13 21  1  0  0  0  0
 14 26  1  0  0  0  0
 14 22  2  0  0  0  0
 16 19  1  0  0  0  0
 17  7  1  0  0  0  0
 18 15  2  0  0  0  0
 21 20  1  6  0  0  0
 21 14  1  0  0  0  0
 22 27  1  0  0  0  0
 25  9  2  0  0  0  0
 26  5  2  0  0  0  0
 27  6  2  0  0  0  0
 27 25  1  0  0  0  0
 28  1  1  0  0  0  0
 29 31  1  0  0  0  0
 29 30  1  0  0  0  0
 30 28  1  1  0  0  0
 31 30  1  0  0  0  0
 32 29  2  0  0  0  0
M  END
>  <MODEL>
1

>  <REMARK>
 VINA RESULT:     -11.0      0.000      0.000
  Name = 
  2 active torsions:
  status: ('A' for Active; 'I' for Inactive)
    1  A    between atoms: N_2  and  C_24
    2  A    between atoms: C_10  and  C_24
                            x       y       z     vdW  Elec       q    Type
                         _______ _______ _______ _____ _____    ______ ____

>  <TORSDO>
F 2

$$$$
=
 OpenBabel10272413283D

 32 38  0  0  1  0  0  0  0  0999 V2000
  187.6450  178.6880  137.3870 N   0  0  0  0  0  0  0  0  0  0  0  0
  186.8800  177.8920  142.3850 C   0  0  2  0  0  3  0  0  0  0  0  0
  182.1980  179.3080  142.9850 C   0  0  0  0  0  2  0  0  0  0  0  0
  182.2470  178.5720  144.1790 O   0  0  0  0  0  0  0  0  0  0  0  0
  188.2470  177.7490  144.4100 C   0  0  0  0  0  0  0  0  0  0  0  0
  188.3250  177.8070  145.8120 C   0  0  0  0  0  0  0  0  0  0  0  0
  187.9050  177.9980  140.1700 C   0  0  0  0  0  0  0  0  0  0  0  0
  185.5660  178.5360  140.3950 N   0  0  0  0  0  0  0  0  0  0  0  0
  188.4670  177.9160  148.6140 C   0  0  0  0  0  3  0  0  0  0  0  0
  186.5930  179.1710  138.2920 C   0  0  0  0  0  2  0  0  0  0  0  0
  183.1500  178.6790  141.9680 C   0  0  0  0  0  2  0  0  0  0  0  0
  185.5200  177.8950  141.7140 C   0  0  2  0  0  3  0  0  0  0  0  0
  184.4840  178.4920  142.5500 N   0  0  2  0  0  0  0  0  0  0  0  0
  185.8410  178.2230  144.5410 C   0  0  0  0  0  0  0  0  0  0  0  0
  189.6190  177.6610  147.8650 C   0  0  0  0  0  3  0  0  0  0  0  0
  188.9670  178.7200  138.0350 C   0  0  0  0  0  2  0  0  0  0  0  0
  186.6250  178.5100  139.6410 C   0  0  0  0  0  0  0  0  0  0  0  0
  189.5490  177.6060  146.4700 C   0  0  0  0  0  3  0  0  0  0  0  0
  189.0580  177.7850  139.2480 C   0  0  0  0  0  2  0  0  0  0  0  0
  183.4530  178.9220  144.8110 C   0  0  0  0  0  2  0  0  0  0  0  0
  184.6400  178.4870  143.9800 C   0  0  1  0  0  3  0  0  0  0  0  0
  185.9570  178.2710  145.9390 C   0  0  0  0  0  3  0  0  0  0  0  0
  188.0290  177.7240  141.4680 C   0  0  0  0  0  3  0  0  0  0  0  0
  189.4180  177.4840  143.7030 O   0  0  0  0  0  1  0  0  0  0  0  0
  187.2440  178.1170  147.9690 C   0  0  0  0  0  3  0  0  0  0  0  0
  186.9950  177.9430  143.7440 C   0  0  0  0  0  0  0  0  0  0  0  0
  187.1710  178.0630  146.5740 C   0  0  0  0  0  0  0  0  0  0  0  0
  187.3190  177.3410  136.9240 C   0  0  0  0  0  2  0  0  0  0  0  0
  185.0190  176.4470  136.8040 C   0  0  0  0  0  0  0  0  0  0  0  0
  186.0310  177.3630  136.1210 C   0  0  2  0  0  3  0  0  0  0  0  0
  185.7860  176.0830  135.5350 C   0  0  0  0  0  2  0  0  0  0  0  0
  184.2220  176.1930  137.6930 O   0  0  0  0  0  0  0  0  0  0  0  0
  1 16  1  0  0  0  0
  1 10  1  0  0  0  0
  2 23  1  1  0  0  0
  2 26  1  0  0  0  0
  3  4  1  0  0  0  0
  4 20  1  0  0  0  0
  5  6  1  0  0  0  0
  6 18  2  0  0  0  0
  6 27  1  0  0  0  0
  7 23  2  0  0  0  0
 10 17  1  0  0  0  0
 11  3  1  0  0  0  0
 12  8  1  6  0  0  0
 12  2  1  0  0  0  0
 12 13  1  0  0  0  0
 13 11  1  1  0  0  0
 13 21  1  0  0  0  0
 14 22  2  0  0  0  0
 15  9  2  0  0  0  0
 16 19  1  0  0  0  0
 17  7  1  0  0  0  0
 17  8  2  0  0  0  0
 18 15  1  0  0  0  0
 19  7  1  0  0  0  0
 21 14  1  0  0  0  0
 21 20  1  6  0  0  0
 22 27  1  0  0  0  0
 24  5  1  0  0  0  0
 25  9  1  0  0  0  0
 26  5  2  0  0  0  0
 26 14  1  0  0  0  0
 27 25  2  0  0  0  0
 28  1  1  0  0  0  0
 29 32  2  0  0  0  0
 30 29  1  0  0  0  0
 30 28  1  1  0  0  0
 31 30  1  0  0  0  0
 31 29  1  0  0  0  0
M  END
>  <MODEL>
2

>  <REMARK>
 VINA RESULT:      -9.5      2.295      5.284
  Name = 
  2 active torsions:
  status: ('A' for Active; 'I' for Inactive)
    1  A    between atoms: N_2  and  C_24
    2  A    between atoms: C_10  and  C_24
                            x       y       z     vdW  Elec       q    Type
                         _______ _______ _______ _____ _____    ______ ____

>  <TORSDO>
F 2

$$$$
=
 OpenBabel10272413283D

 32 38  0  0  1  0  0  0  0  0999 V2000
  190.1230  178.0120  147.3710 N   0  0  0  0  0  0  0  0  0  0  0  0
  186.2590  177.9220  144.0140 C   0  0  2  0  0  3  0  0  0  0  0  0
  188.5870  178.4230  139.6990 C   0  0  0  0  0  2  0  0  0  0  0  0
  187.4040  177.9230  139.1320 O   0  0  0  0  0  0  0  0  0  0  0  0
  183.8600  178.4060  144.0250 C   0  0  0  0  0  0  0  0  0  0  0  0
  182.6940  178.7110  143.3030 C   0  0  0  0  0  0  0  0  0  0  0  0
  187.5490  177.8650  146.0880 C   0  0  0  0  0  0  0  0  0  0  0  0
  188.7300  177.9400  143.9870 N   0  0  0  0  0  0  0  0  0  0  0  0
  180.3700  179.3140  141.8480 C   0  0  0  0  0  3  0  0  0  0  0  0
  190.0610  178.4120  145.9590 C   0  0  0  0  0  2  0  0  0  0  0  0
  188.7540  177.8420  141.1020 C   0  0  0  0  0  2  0  0  0  0  0  0
  187.5190  177.5330  143.2650 C   0  0  2  0  0  3  0  0  0  0  0  0
  187.5340  178.0340  141.8950 N   0  0  2  0  0  0  0  0  0  0  0  0
  185.1360  178.3880  141.9260 C   0  0  0  0  0  0  0  0  0  0  0  0
  180.3100  179.1810  143.2380 C   0  0  0  0  0  3  0  0  0  0  0  0
  188.9110  178.4230  148.0990 C   0  0  0  0  0  2  0  0  0  0  0  0
  188.7810  178.0060  145.2850 C   0  0  0  0  0  0  0  0  0  0  0  0
  181.4670  178.8800  143.9630 C   0  0  0  0  0  3  0  0  0  0  0  0
  187.6410  177.7440  147.5720 C   0  0  0  0  0  2  0  0  0  0  0  0
  186.3460  178.6140  139.7470 C   0  0  0  0  0  2  0  0  0  0  0  0
  186.2890  178.3010  141.2260 C   0  0  1  0  0  3  0  0  0  0  0  0
  183.9510  178.6920  141.2390 C   0  0  0  0  0  3  0  0  0  0  0  0
  186.3600  177.8430  145.4880 C   0  0  0  0  0  3  0  0  0  0  0  0
  183.7530  178.2730  145.4080 O   0  0  0  0  0  1  0  0  0  0  0  0
  181.5870  179.1490  141.1820 C   0  0  0  0  0  3  0  0  0  0  0  0
  185.1070  178.2220  143.3470 C   0  0  0  0  0  0  0  0  0  0  0  0
  182.7460  178.8470  141.9040 C   0  0  0  0  0  0  0  0  0  0  0  0
  190.3300  176.5680  147.4680 C   0  0  0  0  0  2  0  0  0  0  0  0
  191.9390  175.6340  145.8430 C   0  0  0  0  0  0  0  0  0  0  0  0
  191.7920  176.2340  147.2390 C   0  0  2  0  0  3  0  0  0  0  0  0
  191.9710  174.8200  147.1350 C   0  0  0  0  0  2  0  0  0  0  0  0
  191.9800  175.7290  144.6270 O   0  0  0  0  0  0  0  0  0  0  0  0
  1 28  1  0  0  0  0
  1 16  1  0  0  0  0
  2 23  1  1  0  0  0
  3 11  1  0  0  0  0
  4  3  1  0  0  0  0
  4 20  1  0  0  0  0
  5 24  1  0  0  0  0
  6 18  1  0  0  0  0
  6  5  2  0  0  0  0
  7 19  1  0  0  0  0
  8 17  2  0  0  0  0
  9 15  1  0  0  0  0
 10  1  1  0  0  0  0
 12  8  1  1  0  0  0
 12  2  1  0  0  0  0
 13 11  1  6  0  0  0
 13 12  1  0  0  0  0
 14 26  2  0  0  0  0
 15 18  2  0  0  0  0
 17 10  1  0  0  0  0
 17  7  1  0  0  0  0
 19 16  1  0  0  0  0
 21 20  1  1  0  0  0
 21 13  1  0  0  0  0
 21 14  1  0  0  0  0
 22 27  2  0  0  0  0
 22 14  1  0  0  0  0
 23  7  2  0  0  0  0
 25  9  2  0  0  0  0
 25 27  1  0  0  0  0
 26  2  1  0  0  0  0
 26  5  1  0  0  0  0
 27  6  1  0  0  0  0
 29 31  1  0  0  0  0
 29 30  1  0  0  0  0
 30 28  1  6  0  0  0
 31 30  1  0  0  0  0
 32 29  2  0  0  0  0
M  END
>  <MODEL>
3

>  <REMARK>
 VINA RESULT:      -9.5      2.182      7.937
  Name = 
  2 active torsions:
  status: ('A' for Active; 'I' for Inactive)
    1  A    between atoms: N_2  and  C_24
    2  A    between atoms: C_10  and  C_24
                            x       y       z     vdW  Elec       q    Type
                         _______ _______ _______ _____ _____    ______ ____

>  <TORSDO>
F 2

$$$$
=
 OpenBabel10272413283D

 32 38  0  0  1  0  0  0  0  0999 V2000
  186.6750  178.6060  137.6510 N   0  0  0  0  0  0  0  0  0  0  0  0
  187.5990  177.5210  142.5680 C   0  0  2  0  0  3  0  0  0  0  0  0
  183.6690  179.4410  144.8390 C   0  0  0  0  0  2  0  0  0  0  0  0
  184.0280  178.6130  145.9150 O   0  0  0  0  0  0  0  0  0  0  0  0
  189.5530  177.0580  143.9670 C   0  0  0  0  0  0  0  0  0  0  0  0
  190.1230  176.9960  145.2500 C   0  0  0  0  0  0  0  0  0  0  0  0
  187.7910  177.6750  140.1370 C   0  0  0  0  0  0  0  0  0  0  0  0
  185.7770  178.4720  141.1970 N   0  0  0  0  0  0  0  0  0  0  0  0
  191.2480  176.8690  147.8200 C   0  0  0  0  0  3  0  0  0  0  0  0
  186.0840  179.1400  138.8860 C   0  0  0  0  0  2  0  0  0  0  0  0
  184.1080  178.7820  143.5320 C   0  0  0  0  0  2  0  0  0  0  0  0
  186.1060  177.7400  142.4260 C   0  0  2  0  0  3  0  0  0  0  0  0
  185.5210  178.3910  143.5940 N   0  0  2  0  0  0  0  0  0  0  0  0
  187.4360  177.8070  144.9620 C   0  0  0  0  0  0  0  0  0  0  0  0
  192.0170  176.5370  146.7020 C   0  0  0  0  0  3  0  0  0  0  0  0
  188.1300  178.4270  137.7870 C   0  0  0  0  0  2  0  0  0  0  0  0
  186.4910  178.3770  140.1150 C   0  0  0  0  0  0  0  0  0  0  0  0
  191.4580  176.5990  145.4220 C   0  0  0  0  0  3  0  0  0  0  0  0
  188.5070  177.3970  138.8580 C   0  0  0  0  0  2  0  0  0  0  0  0
  185.4150  178.7650  146.0860 C   0  0  0  0  0  2  0  0  0  0  0  0
  186.1640  178.2560  144.8740 C   0  0  1  0  0  3  0  0  0  0  0  0
  188.0380  177.7320  146.2270 C   0  0  0  0  0  3  0  0  0  0  0  0
  188.3200  177.2880  141.2970 C   0  0  0  0  0  3  0  0  0  0  0  0
  190.3540  176.7090  142.8820 O   0  0  0  0  0  1  0  0  0  0  0  0
  189.9180  177.2670  147.6590 C   0  0  0  0  0  3  0  0  0  0  0  0
  188.1880  177.4520  143.7970 C   0  0  0  0  0  0  0  0  0  0  0  0
  189.3550  177.3300  146.3810 C   0  0  0  0  0  0  0  0  0  0  0  0
  186.0220  177.3480  137.2950 C   0  0  0  0  0  2  0  0  0  0  0  0
  183.8460  176.2020  137.5280 C   0  0  0  0  0  0  0  0  0  0  0  0
  184.5180  177.5410  137.2310 C   0  0  2  0  0  3  0  0  0  0  0  0
  183.9670  176.8110  136.1330 C   0  0  0  0  0  2  0  0  0  0  0  0
  183.4970  175.3170  138.2920 O   0  0  0  0  0  0  0  0  0  0  0  0
  1 16  1  0  0  0  0
  1 10  1  0  0  0  0
  2 23  1  1  0  0  0
  2 26  1  0  0  0  0
  3  4  1  0  0  0  0
  4 20  1  0  0  0  0
  5  6  1  0  0  0  0
  6 18  2  0  0  0  0
  6 27  1  0  0  0  0
  7 23  2  0  0  0  0
 10 17  1  0  0  0  0
 11  3  1  0  0  0  0
 12  8  1  6  0  0  0
 12  2  1  0  0  0  0
 12 13  1  0  0  0  0
 13 11  1  1  0  0  0
 13 21  1  0  0  0  0
 14 22  2  0  0  0  0
 15  9  2  0  0  0  0
 16 19  1  0  0  0  0
 17  7  1  0  0  0  0
 17  8  2  0  0  0  0
 18 15  1  0  0  0  0
 19  7  1  0  0  0  0
 21 14  1  0  0  0  0
 21 20  1  6  0  0  0
 22 27  1  0  0  0  0
 24  5  1  0  0  0  0
 25  9  1  0  0  0  0
 26  5  2  0  0  0  0
 26 14  1  0  0  0  0
 27 25  2  0  0  0  0
 28  1  1  0  0  0  0
 29 32  2  0  0  0  0
 30 28  1  6  0  0  0
 30 29  1  0  0  0  0
 31 30  1  0  0  0  0
 31 29  1  0  0  0  0
M  END
>  <MODEL>
4

>  <REMARK>
 VINA RESULT:      -9.4      2.881      5.121
  Name = 
  2 active torsions:
  status: ('A' for Active; 'I' for Inactive)
    1  A    between atoms: N_2  and  C_24
    2  A    between atoms: C_10  and  C_24
                            x       y       z     vdW  Elec       q    Type
                         _______ _______ _______ _____ _____    ______ ____

>  <TORSDO>
F 2

$$$$
=
 OpenBabel10272413283D

 32 38  0  0  1  0  0  0  0  0999 V2000
  190.9950  175.7210  137.4140 N   0  0  0  0  0  0  0  0  0  0  0  0
  188.6380  177.6070  141.5480 C   0  0  2  0  0  3  0  0  0  0  0  0
  191.6000  176.1640  145.2130 C   0  0  0  0  0  2  0  0  0  0  0  0
  190.9570  177.1560  145.9710 O   0  0  0  0  0  0  0  0  0  0  0  0
  186.3670  178.2690  142.1740 C   0  0  0  0  0  0  0  0  0  0  0  0
  185.4310  178.5380  143.1870 C   0  0  0  0  0  0  0  0  0  0  0  0
  189.2020  177.0410  139.2390 C   0  0  0  0  0  0  0  0  0  0  0  0
  190.7580  176.4670  140.9890 N   0  0  0  0  0  0  0  0  0  0  0  0
  183.5730  179.0800  145.2210 C   0  0  0  0  0  3  0  0  0  0  0  0
  191.1550  175.4130  138.8420 C   0  0  0  0  0  2  0  0  0  0  0  0
  191.6110  176.5840  143.7440 C   0  0  0  0  0  2  0  0  0  0  0  0
  190.0930  177.3910  141.9150 C   0  0  2  0  0  3  0  0  0  0  0  0
  190.2640  176.9580  143.2980 N   0  0  2  0  0  0  0  0  0  0  0  0
  188.0440  177.7340  143.8870 C   0  0  0  0  0  0  0  0  0  0  0  0
  183.1990  179.2060  143.8800 C   0  0  0  0  0  3  0  0  0  0  0  0
  189.5770  175.8960  137.0590 C   0  0  0  0  0  2  0  0  0  0  0  0
  190.4170  176.3670  139.7380 C   0  0  0  0  0  0  0  0  0  0  0  0
  184.1240  178.9370  142.8670 C   0  0  0  0  0  3  0  0  0  0  0  0
  188.9260  177.0870  137.7740 C   0  0  0  0  0  2  0  0  0  0  0  0
  189.5800  177.0130  145.7260 C   0  0  0  0  0  2  0  0  0  0  0  0
  189.2630  177.2970  144.2740 C   0  0  1  0  0  3  0  0  0  0  0  0
  187.0830  178.0120  144.8710 C   0  0  0  0  0  3  0  0  0  0  0  0
  188.3550  177.6110  140.0960 C   0  0  0  0  0  3  0  0  0  0  0  0
  185.9540  178.4160  140.8510 O   0  0  0  0  0  1  0  0  0  0  0  0
  184.8720  178.6830  145.5490 C   0  0  0  0  0  3  0  0  0  0  0  0
  187.7020  177.8740  142.5040 C   0  0  0  0  0  0  0  0  0  0  0  0
  185.7990  178.4130  144.5390 C   0  0  0  0  0  0  0  0  0  0  0  0
  191.7730  176.9110  137.0740 C   0  0  0  0  0  2  0  0  0  0  0  0
  193.6160  176.4050  135.5090 C   0  0  0  0  0  0  0  0  0  0  0  0
  193.2470  176.5620  136.9820 C   0  0  2  0  0  3  0  0  0  0  0  0
  193.4160  175.2370  136.4720 C   0  0  0  0  0  2  0  0  0  0  0  0
  193.8630  176.8620  134.4050 O   0  0  0  0  0  0  0  0  0  0  0  0
  1 10  1  0  0  0  0
  2 23  1  6  0  0  0
  2 12  1  0  0  0  0
  2 26  1  0  0  0  0
  3  4  1  0  0  0  0
  5 26  2  0  0  0  0
  5  6  1  0  0  0  0
  6 27  1  0  0  0  0
  7 17  1  0  0  0  0
  7 23  2  0  0  0  0
  9 25  1  0  0  0  0
 10 17  1  0  0  0  0
 11  3  1  0  0  0  0
 12  8  1  6  0  0  0
 12 13  1  0  0  0  0
 13 11  1  1  0  0  0
 13 21  1  0  0  0  0
 14 21  1  0  0  0  0
 14 22  2  0  0  0  0
 15  9  2  0  0  0  0
 16  1  1  0  0  0  0
 16 19  1  0  0  0  0
 17  8  2  0  0  0  0
 18  6  2  0  0  0  0
 18 15  1  0  0  0  0
 19  7  1  0  0  0  0
 20  4  1  0  0  0  0
 21 20  1  6  0  0  0
 24  5  1  0  0  0  0
 26 14  1  0  0  0  0
 27 22  1  0  0  0  0
 27 25  2  0  0  0  0
 28  1  1  0  0  0  0
 29 31  1  0  0  0  0
 29 30  1  0  0  0  0
 30 28  1  6  0  0  0
 31 30  1  0  0  0  0
 32 29  2  0  0  0  0
M  END
>  <MODEL>
5

>  <REMARK>
 VINA RESULT:      -9.1      3.594      7.945
  Name = 
  2 active torsions:
  status: ('A' for Active; 'I' for Inactive)
    1  A    between atoms: N_2  and  C_24
    2  A    between atoms: C_10  and  C_24
                            x       y       z     vdW  Elec       q    Type
                         _______ _______ _______ _____ _____    ______ ____

>  <TORSDO>
F 2

$$$$
=
 OpenBabel10272413283D

 32 38  0  0  1  0  0  0  0  0999 V2000
  189.2090  177.9580  137.7120 N   0  0  0  0  0  0  0  0  0  0  0  0
  187.6570  177.6040  142.5770 C   0  0  2  0  0  3  0  0  0  0  0  0
  183.0270  179.2770  142.3430 C   0  0  0  0  0  2  0  0  0  0  0  0
  182.8540  178.6380  143.5810 O   0  0  0  0  0  0  0  0  0  0  0  0
  188.6940  177.5630  144.7940 C   0  0  0  0  0  0  0  0  0  0  0  0
  188.5640  177.7300  146.1830 C   0  0  0  0  0  0  0  0  0  0  0  0
  189.0070  177.4840  140.5450 C   0  0  0  0  0  0  0  0  0  0  0  0
  186.6960  178.1450  140.3670 N   0  0  0  0  0  0  0  0  0  0  0  0
  188.2900  178.0580  148.9580 C   0  0  0  0  0  3  0  0  0  0  0  0
  188.0620  178.5600  138.4070 C   0  0  0  0  0  2  0  0  0  0  0  0
  184.0830  178.5250  141.5340 C   0  0  0  0  0  2  0  0  0  0  0  0
  186.4160  177.6150  141.7060 C   0  0  2  0  0  3  0  0  0  0  0  0
  185.3020  178.3240  142.3270 N   0  0  2  0  0  0  0  0  0  0  0  0
  186.3270  178.1550  144.5180 C   0  0  0  0  0  0  0  0  0  0  0  0
  189.5240  177.6910  148.4160 C   0  0  0  0  0  3  0  0  0  0  0  0
  190.4170  177.9810  138.5520 C   0  0  0  0  0  2  0  0  0  0  0  0
  187.8530  178.0090  139.7890 C   0  0  0  0  0  0  0  0  0  0  0  0
  189.6610  177.5270  147.0340 C   0  0  0  0  0  3  0  0  0  0  0  0
  190.2720  177.1450  139.8290 C   0  0  0  0  0  2  0  0  0  0  0  0
  183.9690  178.9820  144.3650 C   0  0  0  0  0  2  0  0  0  0  0  0
  185.2410  178.4280  143.7600 C   0  0  1  0  0  3  0  0  0  0  0  0
  186.2340  178.3110  145.9090 C   0  0  0  0  0  3  0  0  0  0  0  0
  188.9190  177.3100  141.8630 C   0  0  0  0  0  3  0  0  0  0  0  0
  189.9410  177.1880  144.2970 O   0  0  0  0  0  1  0  0  0  0  0  0
  187.1920  178.2630  148.1190 C   0  0  0  0  0  3  0  0  0  0  0  0
  187.5700  177.7590  143.9310 C   0  0  0  0  0  0  0  0  0  0  0  0
  187.3250  178.0990  146.7370 C   0  0  0  0  0  0  0  0  0  0  0  0
  188.8780  176.5940  137.3030 C   0  0  0  0  0  2  0  0  0  0  0  0
  189.0580  175.9650  134.9210 C   0  0  0  0  0  0  0  0  0  0  0  0
  188.1550  176.6100  135.9700 C   0  0  2  0  0  3  0  0  0  0  0  0
  188.8270  177.4690  135.0460 C   0  0  0  0  0  2  0  0  0  0  0  0
  189.5800  174.9940  134.3980 O   0  0  0  0  0  0  0  0  0  0  0  0
  1 10  1  0  0  0  0
  1 16  1  0  0  0  0
  2 23  1  1  0  0  0
  2 26  1  0  0  0  0
  3  4  1  0  0  0  0
  4 20  1  0  0  0  0
  5  6  1  0  0  0  0
  6 27  2  0  0  0  0
  6 18  1  0  0  0  0
  7 23  2  0  0  0  0
 10 17  1  0  0  0  0
 11  3  1  0  0  0  0
 12  8  1  6  0  0  0
 12 13  1  0  0  0  0
 12  2  1  0  0  0  0
 13 11  1  1  0  0  0
 13 21  1  0  0  0  0
 14 22  2  0  0  0  0
 15  9  1  0  0  0  0
 16 19  1  0  0  0  0
 17  8  2  0  0  0  0
 17  7  1  0  0  0  0
 18 15  2  0  0  0  0
 19  7  1  0  0  0  0
 21 20  1  6  0  0  0
 21 14  1  0  0  0  0
 22 27  1  0  0  0  0
 24  5  1  0  0  0  0
 25  9  2  0  0  0  0
 26 14  1  0  0  0  0
 26  5  2  0  0  0  0
 27 25  1  0  0  0  0
 28  1  1  0  0  0  0
 29 31  1  0  0  0  0
 29 30  1  0  0  0  0
 30 28  1  1  0  0  0
 31 30  1  0  0  0  0
 32 29  2  0  0  0  0
M  END
>  <MODEL>
6

>  <REMARK>
 VINA RESULT:      -8.9      2.484      6.132
  Name = 
  2 active torsions:
  status: ('A' for Active; 'I' for Inactive)
    1  A    between atoms: N_2  and  C_24
    2  A    between atoms: C_10  and  C_24
                            x       y       z     vdW  Elec       q    Type
                         _______ _______ _______ _____ _____    ______ ____

>  <TORSDO>
F 2

$$$$
=
 OpenBabel10272413283D

 32 38  0  0  1  0  0  0  0  0999 V2000
  191.1760  176.4810  140.3410 N   0  0  0  0  0  0  0  0  0  0  0  0
  186.9140  178.2380  142.5660 C   0  0  2  0  0  3  0  0  0  0  0  0
  187.8170  177.4720  147.3500 C   0  0  0  0  0  2  0  0  0  0  0  0
  186.7880  178.4010  147.5760 O   0  0  0  0  0  0  0  0  0  0  0  0
  184.5750  178.5900  141.9370 C   0  0  0  0  0  0  0  0  0  0  0  0
  183.2410  178.7760  142.3350 C   0  0  0  0  0  0  0  0  0  0  0  0
  188.5940  177.6260  140.9020 C   0  0  0  0  0  0  0  0  0  0  0  0
  189.1370  177.3950  143.2390 N   0  0  0  0  0  0  0  0  0  0  0  0
  180.5780  179.1550  143.1420 C   0  0  0  0  0  3  0  0  0  0  0  0
  190.6430  176.2860  141.6960 C   0  0  0  0  0  2  0  0  0  0  0  0
  188.5070  177.8020  146.0270 C   0  0  0  0  0  2  0  0  0  0  0  0
  188.0130  178.2640  143.6100 C   0  0  2  0  0  3  0  0  0  0  0  0
  187.5240  177.9430  144.9470 N   0  0  2  0  0  0  0  0  0  0  0  0
  185.2360  178.4140  144.2960 C   0  0  0  0  0  0  0  0  0  0  0  0
  180.9020  179.1440  141.7830 C   0  0  0  0  0  3  0  0  0  0  0  0
  190.1070  176.4220  139.3300 C   0  0  0  0  0  2  0  0  0  0  0  0
  189.4680  177.1710  142.0020 C   0  0  0  0  0  0  0  0  0  0  0  0
  182.2270  178.9560  141.3800 C   0  0  0  0  0  3  0  0  0  0  0  0
  189.0730  177.5430  139.4910 C   0  0  0  0  0  2  0  0  0  0  0  0
  185.7330  178.0400  146.7200 C   0  0  0  0  0  2  0  0  0  0  0  0
  186.1440  178.1870  145.2710 C   0  0  1  0  0  3  0  0  0  0  0  0
  183.8940  178.6040  144.6550 C   0  0  0  0  0  3  0  0  0  0  0  0
  187.3830  178.1130  141.1680 C   0  0  0  0  0  3  0  0  0  0  0  0
  184.8540  178.5950  140.5710 O   0  0  0  0  0  1  0  0  0  0  0  0
  181.5800  178.9760  144.1000 C   0  0  0  0  0  3  0  0  0  0  0  0
  185.6070  178.4190  142.9140 C   0  0  0  0  0  0  0  0  0  0  0  0
  182.9060  178.7880  143.7010 C   0  0  0  0  0  0  0  0  0  0  0  0
  191.8960  177.7510  140.2710 C   0  0  0  0  0  2  0  0  0  0  0  0
  193.1070  176.6890  138.3980 C   0  0  0  0  0  0  0  0  0  0  0  0
  193.2670  177.5410  139.6550 C   0  0  2  0  0  3  0  0  0  0  0  0
  193.6420  176.1640  139.7280 C   0  0  0  0  0  2  0  0  0  0  0  0
  192.7830  176.5380  137.2310 O   0  0  0  0  0  0  0  0  0  0  0  0
  1 10  1  0  0  0  0
  2 23  1  6  0  0  0
  2 26  1  0  0  0  0
  2 12  1  0  0  0  0
  3  4  1  0  0  0  0
  5  6  2  0  0  0  0
  5 26  1  0  0  0  0
  6 27  1  0  0  0  0
  7 23  2  0  0  0  0
  7 17  1  0  0  0  0
  9 25  2  0  0  0  0
 10 17  1  0  0  0  0
 11  3  1  0  0  0  0
 12  8  1  6  0  0  0
 12 13  1  0  0  0  0
 13 21  1  0  0  0  0
 13 11  1  1  0  0  0
 14 22  1  0  0  0  0
 14 21  1  0  0  0  0
 15  9  1  0  0  0  0
 16 19  1  0  0  0  0
 16  1  1  0  0  0  0
 17  8  2  0  0  0  0
 18 15  2  0  0  0  0
 18  6  1  0  0  0  0
 19  7  1  0  0  0  0
 20  4  1  0  0  0  0
 21 20  1  6  0  0  0
 24  5  1  0  0  0  0
 26 14  2  0  0  0  0
 27 25  1  0  0  0  0
 27 22  2  0  0  0  0
 28  1  1  0  0  0  0
 29 30  1  0  0  0  0
 29 31  1  0  0  0  0
 30 31  1  0  0  0  0
 30 28  1  1  0  0  0
 32 29  2  0  0  0  0
M  END
>  <MODEL>
7

>  <REMARK>
 VINA RESULT:      -8.3      2.573      8.087
  Name = 
  2 active torsions:
  status: ('A' for Active; 'I' for Inactive)
    1  A    between atoms: N_2  and  C_24
    2  A    between atoms: C_10  and  C_24
                            x       y       z     vdW  Elec       q    Type
                         _______ _______ _______ _____ _____    ______ ____

>  <TORSDO>
F 2

$$$$
=
 OpenBabel10272413283D

 32 38  0  0  1  0  0  0  0  0999 V2000
  193.2250  175.1160  136.2780 N   0  0  0  0  0  0  0  0  0  0  0  0
  189.6030  177.5430  138.9600 C   0  0  2  0  0  3  0  0  0  0  0  0
  191.2950  177.2120  143.5770 C   0  0  0  0  0  2  0  0  0  0  0  0
  190.4060  178.2630  143.8570 O   0  0  0  0  0  0  0  0  0  0  0  0
  187.2270  178.0690  138.7010 C   0  0  0  0  0  0  0  0  0  0  0  0
  186.0080  178.4370  139.2940 C   0  0  0  0  0  0  0  0  0  0  0  0
  190.8940  176.5800  137.1230 C   0  0  0  0  0  0  0  0  0  0  0  0
  191.8320  176.5500  139.3440 N   0  0  0  0  0  0  0  0  0  0  0  0
  183.5780  179.1800  140.4900 C   0  0  0  0  0  3  0  0  0  0  0  0
  192.9340  175.1270  137.7180 C   0  0  0  0  0  2  0  0  0  0  0  0
  191.7580  177.3210  142.1250 C   0  0  0  0  0  2  0  0  0  0  0  0
  190.8720  177.5660  139.7890 C   0  0  2  0  0  3  0  0  0  0  0  0
  190.6090  177.4470  141.2190 N   0  0  2  0  0  0  0  0  0  0  0  0
  188.2890  178.0820  140.9150 C   0  0  0  0  0  0  0  0  0  0  0  0
  183.6470  178.9870  139.1080 C   0  0  0  0  0  3  0  0  0  0  0  0
  191.9890  175.0590  135.4810 C   0  0  0  0  0  2  0  0  0  0  0  0
  191.9120  176.1580  138.1070 C   0  0  0  0  0  0  0  0  0  0  0  0
  184.8560  178.6170  138.5120 C   0  0  0  0  0  3  0  0  0  0  0  0
  191.0990  176.2930  135.6730 C   0  0  0  0  0  2  0  0  0  0  0  0
  189.1860  177.9240  143.2460 C   0  0  0  0  0  2  0  0  0  0  0  0
  189.3370  177.8680  141.7420 C   0  0  1  0  0  3  0  0  0  0  0  0
  187.0560  178.4500  141.4720 C   0  0  0  0  0  3  0  0  0  0  0  0
  189.7980  177.2180  137.5290 C   0  0  0  0  0  3  0  0  0  0  0  0
  187.2520  177.8960  137.3180 O   0  0  0  0  0  1  0  0  0  0  0  0
  184.7190  179.0020  141.2780 C   0  0  0  0  0  3  0  0  0  0  0  0
  188.4010  177.8970  139.5000 C   0  0  0  0  0  0  0  0  0  0  0  0
  185.9300  178.6330  140.6850 C   0  0  0  0  0  0  0  0  0  0  0  0
  194.0250  176.2880  135.9270 C   0  0  0  0  0  2  0  0  0  0  0  0
  196.4450  176.3160  135.4350 C   0  0  0  0  0  0  0  0  0  0  0  0
  195.0740  175.9140  134.8970 C   0  0  2  0  0  3  0  0  0  0  0  0
  195.6860  177.0870  134.3580 C   0  0  0  0  0  2  0  0  0  0  0  0
  197.4040  176.1560  136.1730 O   0  0  0  0  0  0  0  0  0  0  0  0
  1 10  1  0  0  0  0
  2 23  1  6  0  0  0
  2 26  1  0  0  0  0
  2 12  1  0  0  0  0
  3  4  1  0  0  0  0
  5  6  2  0  0  0  0
  5 26  1  0  0  0  0
  6 27  1  0  0  0  0
  7 23  2  0  0  0  0
  7 17  1  0  0  0  0
  9 25  2  0  0  0  0
 10 17  1  0  0  0  0
 11  3  1  0  0  0  0
 12  8  1  6  0  0  0
 12 13  1  0  0  0  0
 13 21  1  0  0  0  0
 13 11  1  1  0  0  0
 14 22  1  0  0  0  0
 14 21  1  0  0  0  0
 15  9  1  0  0  0  0
 16 19  1  0  0  0  0
 16  1  1  0  0  0  0
 17  8  2  0  0  0  0
 18 15  2  0  0  0  0
 18  6  1  0  0  0  0
 19  7  1  0  0  0  0
 20  4  1  0  0  0  0
 21 20  1  1  0  0  0
 24  5  1  0  0  0  0
 26 14  2  0  0  0  0
 27 25  1  0  0  0  0
 27 22  2  0  0  0  0
 28  1  1  0  0  0  0
 29 32  2  0  0  0  0
 30 29  1  0  0  0  0
 30 28  1  1  0  0  0
 31 30  1  0  0  0  0
 31 29  1  0  0  0  0
M  END
>  <MODEL>
8

>  <REMARK>
 VINA RESULT:      -8.2      4.715      9.830
  Name = 
  2 active torsions:
  status: ('A' for Active; 'I' for Inactive)
    1  A    between atoms: N_2  and  C_24
    2  A    between atoms: C_10  and  C_24
                            x       y       z     vdW  Elec       q    Type
                         _______ _______ _______ _____ _____    ______ ____

>  <TORSDO>
F 2

$$$$
=
 OpenBabel10272413283D

 32 38  0  0  1  0  0  0  0  0999 V2000
  191.4350  177.6640  146.3680 N   0  0  0  0  0  0  0  0  0  0  0  0
  187.2020  177.7300  143.4890 C   0  0  2  0  0  3  0  0  0  0  0  0
  189.0170  178.2790  138.9400 C   0  0  0  0  0  2  0  0  0  0  0  0
  187.7640  177.8170  138.5070 O   0  0  0  0  0  0  0  0  0  0  0  0
  184.8330  178.2630  143.7930 C   0  0  0  0  0  0  0  0  0  0  0  0
  183.5980  178.6090  143.2210 C   0  0  0  0  0  0  0  0  0  0  0  0
  188.7250  177.6000  145.3950 C   0  0  0  0  0  0  0  0  0  0  0  0
  189.6520  177.6970  143.1710 N   0  0  0  0  0  0  0  0  0  0  0  0
  181.1330  179.2930  142.0630 C   0  0  0  0  0  3  0  0  0  0  0  0
  191.2170  178.0970  144.9810 C   0  0  0  0  0  2  0  0  0  0  0  0
  189.3350  177.6640  140.3030 C   0  0  0  0  0  2  0  0  0  0  0  0
  188.3560  177.3310  142.5900 C   0  0  2  0  0  3  0  0  0  0  0  0
  188.2210  177.8630  141.2370 N   0  0  2  0  0  0  0  0  0  0  0  0
  185.8520  178.2660  141.5590 C   0  0  0  0  0  0  0  0  0  0  0  0
  181.2340  179.1300  143.4470 C   0  0  0  0  0  3  0  0  0  0  0  0
  190.3270  178.0840  147.2420 C   0  0  0  0  0  2  0  0  0  0  0  0
  189.8570  177.7330  144.4550 C   0  0  0  0  0  0  0  0  0  0  0  0
  182.4610  178.7890  144.0240 C   0  0  0  0  0  3  0  0  0  0  0  0
  188.9880  177.4430  146.8550 C   0  0  0  0  0  2  0  0  0  0  0  0
  186.8020  178.5160  139.2570 C   0  0  0  0  0  2  0  0  0  0  0  0
  186.9120  178.1710  140.7260 C   0  0  1  0  0  3  0  0  0  0  0  0
  184.6020  178.6100  141.0220 C   0  0  0  0  0  3  0  0  0  0  0  0
  187.4740  177.6160  144.9400 C   0  0  0  0  0  3  0  0  0  0  0  0
  184.8860  178.1010  145.1770 O   0  0  0  0  0  1  0  0  0  0  0  0
  182.2590  179.1170  141.2540 C   0  0  0  0  0  3  0  0  0  0  0  0
  185.9870  178.0690  142.9700 C   0  0  0  0  0  0  0  0  0  0  0  0
  183.4870  178.7760  141.8280 C   0  0  0  0  0  0  0  0  0  0  0  0
  191.6180  176.2150  146.4110 C   0  0  0  0  0  2  0  0  0  0  0  0
  192.6470  176.4270  148.6460 C   0  0  0  0  0  0  0  0  0  0  0  0
  191.5550  175.7230  147.8450 C   0  0  2  0  0  3  0  0  0  0  0  0
  192.7320  174.9790  148.1700 C   0  0  0  0  0  2  0  0  0  0  0  0
  193.1070  177.4040  149.2150 O   0  0  0  0  0  0  0  0  0  0  0  0
  1 28  1  0  0  0  0
  1 16  1  0  0  0  0
  2 23  1  1  0  0  0
  3 11  1  0  0  0  0
  4  3  1  0  0  0  0
  4 20  1  0  0  0  0
  5 24  1  0  0  0  0
  6  5  1  0  0  0  0
  6 18  1  0  0  0  0
  7 19  1  0  0  0  0
  8 17  2  0  0  0  0
  9 15  1  0  0  0  0
 10  1  1  0  0  0  0
 12  8  1  1  0  0  0
 12  2  1  0  0  0  0
 13 11  1  6  0  0  0
 13 12  1  0  0  0  0
 14 26  1  0  0  0  0
 15 18  2  0  0  0  0
 17 10  1  0  0  0  0
 17  7  1  0  0  0  0
 19 16  1  0  0  0  0
 21 20  1  1  0  0  0
 21 13  1  0  0  0  0
 21 14  1  0  0  0  0
 22 14  2  0  0  0  0
 22 27  1  0  0  0  0
 23  7  2  0  0  0  0
 25 27  1  0  0  0  0
 25  9  2  0  0  0  0
 26  2  1  0  0  0  0
 26  5  2  0  0  0  0
 27  6  2  0  0  0  0
 29 32  2  0  0  0  0
 30 28  1  6  0  0  0
 30 31  1  0  0  0  0
 30 29  1  0  0  0  0
 31 29  1  0  0  0  0
M  END
>  <MODEL>
9

>  <REMARK>
 VINA RESULT:      -8.1      2.591      8.346
  Name = 
  2 active torsions:
  status: ('A' for Active; 'I' for Inactive)
    1  A    between atoms: N_2  and  C_24
    2  A    between atoms: C_10  and  C_24
                            x       y       z     vdW  Elec       q    Type
                         _______ _______ _______ _____ _____    ______ ____

>  <TORSDO>
F 2

$$$$
