=
 OpenBabel10272414523D

 37 44  0  0  1  0  0  0  0  0999 V2000
  189.3990  176.7890  141.8190 O   0  0  0  0  0  0  0  0  0  0  0  0
  190.5920  175.9320  146.3280 C   0  0  0  0  0  2  0  0  0  0  0  0
  187.2230  178.3340  145.3520 C   0  0  2  0  0  3  0  0  0  0  0  0
  190.1310  177.3590  140.7590 C   0  0  2  0  0  3  0  0  0  0  0  0
  185.4380  177.9710  142.0320 C   0  0  0  0  0  2  0  0  0  0  0  0
  188.6460  177.4490  146.9650 C   0  0  1  0  0  0  0  0  0  0  0  0
  186.9740  178.4310  144.0680 C   0  0  2  0  0  3  0  0  0  0  0  0
  188.6370  178.3260  145.7100 C   0  0  1  0  0  3  0  0  0  0  0  0
  185.5870  178.3620  143.4860 C   0  0  0  0  0  0  0  0  0  0  0  0
  188.0080  178.1810  148.1320 C   0  0  0  0  0  2  0  0  0  0  0  0
  189.3660  177.2190  139.4340 C   0  0  0  0  0  2  0  0  0  0  0  0
  189.2400  177.8050  144.4150 C   0  0  2  0  0  3  0  0  0  0  0  0
  191.6620  177.2090  144.4540 C   0  0  0  0  0  2  0  0  0  0  0  0
  185.2160  178.5050  146.6280 C   0  0  0  0  0  3  0  0  0  0  0  0
  187.2290  177.0880  147.4110 C   0  0  1  0  0  3  0  0  0  0  0  0
  190.6530  178.3300  144.2410 C   0  0  0  0  0  2  0  0  0  0  0  0
  187.9000  177.6550  139.5770 C   0  0  1  0  0  3  0  0  0  0  0  0
  186.2390  178.8750  141.1050 C   0  0  0  0  0  2  0  0  0  0  0  0
  186.3400  177.6080  146.2720 C   0  0  2  0  0  3  0  0  0  0  0  0
  188.2940  178.3840  143.3450 C   0  0  1  0  0  3  0  0  0  0  0  0
  189.8220  176.6020  147.4530 C   0  0  0  0  0  2  0  0  0  0  0  0
  184.4480  178.6270  144.2100 C   0  0  0  0  0  0  0  0  0  0  0  0
  191.7620  176.8120  145.9190 C   0  0  0  0  0  2  0  0  0  0  0  0
  187.6840  178.3940  140.9020 C   0  0  1  0  0  3  0  0  0  0  0  0
  188.2160  177.5380  142.0770 C   0  0  1  0  0  3  0  0  0  0  0  0
  184.3860  178.9460  145.6740 C   0  0  0  0  0  3  0  0  0  0  0  0
  181.9570  178.6070  144.3170 C   0  0  0  0  0  3  0  0  0  0  0  0
  183.1280  178.6430  143.5480 C   0  0  0  0  0  0  0  0  0  0  0  0
  183.0340  178.6620  142.1470 C   0  0  0  0  0  3  0  0  0  0  0  0
  181.6910  178.6860  140.0420 C   0  0  0  0  0  1  0  0  0  0  0  0
  180.6180  178.6390  142.3000 C   0  0  0  0  0  3  0  0  0  0  0  0
  181.7840  178.6630  141.5250 C   0  0  0  0  0  0  0  0  0  0  0  0
  180.7060  178.6090  143.6950 C   0  0  0  0  0  3  0  0  0  0  0  0
  187.5210  178.5360  138.3960 C   0  0  0  0  0  2  0  0  0  0  0  0
  188.6470  179.2000  137.9110 O   0  0  0  0  0  1  0  0  0  0  0  0
  192.5650  177.4600  140.3360 C   0  0  0  0  0  2  0  0  0  0  0  0
  191.4910  176.7430  140.6660 C   0  0  0  0  0  3  0  0  0  0  0  0
  1 25  1  0  0  0  0
  2 21  1  0  0  0  0
  3  8  1  0  0  0  0
  3 19  1  0  0  0  0
  4  1  1  0  0  0  0
  5  9  1  0  0  0  0
  6 15  1  0  0  0  0
  6 21  1  0  0  0  0
  6 10  1  0  0  0  0
  7  3  1  0  0  0  0
  8  6  1  0  0  0  0
  9  7  1  0  0  0  0
  9 22  2  0  0  0  0
 11 17  1  0  0  0  0
 11  4  1  0  0  0  0
 12  8  1  0  0  0  0
 13 23  1  0  0  0  0
 15 10  1  0  0  0  0
 16 12  1  0  0  0  0
 16 13  1  0  0  0  0
 17 24  1  0  0  0  0
 18  5  1  0  0  0  0
 19 14  1  0  0  0  0
 19 15  1  0  0  0  0
 20  7  1  0  0  0  0
 20 12  1  0  0  0  0
 22 26  1  0  0  0  0
 23  2  1  0  0  0  0
 24 18  1  0  0  0  0
 24 25  1  0  0  0  0
 25 20  1  0  0  0  0
 26 14  2  0  0  0  0
 28 22  1  0  0  0  0
 28 27  2  0  0  0  0
 29 28  1  0  0  0  0
 30 32  1  0  0  0  0
 31 33  2  0  0  0  0
 32 29  2  0  0  0  0
 32 31  1  0  0  0  0
 33 27  1  0  0  0  0
 34 17  1  0  0  0  0
 35 34  1  0  0  0  0
 36 37  2  0  0  0  0
 37  4  1  0  0  0  0
M  END
>  <MODEL>
1

>  <REMARK>
 VINA RESULT:     -11.7      0.000      0.000
  Name = 
  3 active torsions:
  status: ('A' for Active; 'I' for Inactive)
    1  A    between atoms: C_5  and  C_23
    2  A    between atoms: C_6  and  C_31
    3  A    between atoms: C_11  and  C_26
                            x       y       z     vdW  Elec       q    Type
                         _______ _______ _______ _____ _____    ______ ____

>  <TORSDO>
F 3

$$$$
=
 OpenBabel10272414523D

 37 44  0  0  1  0  0  0  0  0999 V2000
  186.8740  177.3040  144.4220 O   0  0  0  0  0  0  0  0  0  0  0  0
  182.7210  178.1070  142.2760 C   0  0  0  0  0  2  0  0  0  0  0  0
  186.4060  178.5870  140.2100 C   0  0  2  0  0  3  0  0  0  0  0  0
  187.4370  177.8600  145.5870 C   0  0  2  0  0  3  0  0  0  0  0  0
  189.5300  176.7450  141.2980 C   0  0  0  0  0  2  0  0  0  0  0  0
  184.0880  178.7810  140.2330 C   0  0  1  0  0  0  0  0  0  0  0  0
  187.4690  178.2670  140.9070 C   0  0  2  0  0  3  0  0  0  0  0  0
  185.3480  179.2520  140.9640 C   0  0  1  0  0  3  0  0  0  0  0  0
  188.6290  177.4920  140.3390 C   0  0  0  0  0  0  0  0  0  0  0  0
  183.9880  179.4320  138.8650 C   0  0  0  0  0  2  0  0  0  0  0  0
  188.7170  177.1070  145.9830 C   0  0  0  0  0  2  0  0  0  0  0  0
  185.6510  178.7400  142.3620 C   0  0  2  0  0  3  0  0  0  0  0  0
  183.9690  179.2330  144.1370 C   0  0  0  0  0  2  0  0  0  0  0  0
  186.7600  178.2030  137.8840 C   0  0  0  0  0  3  0  0  0  0  0  0
  184.4300  177.9790  138.9770 C   0  0  1  0  0  3  0  0  0  0  0  0
  185.2000  179.7480  143.4030 C   0  0  0  0  0  2  0  0  0  0  0  0
  189.6550  176.9140  144.7830 C   0  0  1  0  0  3  0  0  0  0  0  0
  190.1160  177.6540  142.3700 C   0  0  0  0  0  2  0  0  0  0  0  0
  185.9540  177.7980  139.0580 C   0  0  2  0  0  3  0  0  0  0  0  0
  187.1870  178.6050  142.3480 C   0  0  1  0  0  3  0  0  0  0  0  0
  182.6970  178.6400  140.8540 C   0  0  0  0  0  2  0  0  0  0  0  0
  188.9070  177.4220  138.9940 C   0  0  0  0  0  0  0  0  0  0  0  0
  182.7300  179.2700  143.2540 C   0  0  0  0  0  2  0  0  0  0  0  0
  189.2090  177.7850  143.6040 C   0  0  1  0  0  3  0  0  0  0  0  0
  187.7130  177.5300  143.2950 C   0  0  1  0  0  3  0  0  0  0  0  0
  188.0870  178.0210  137.8910 C   0  0  0  0  0  3  0  0  0  0  0  0
  191.3830  177.3050  138.7270 C   0  0  0  0  0  3  0  0  0  0  0  0
  190.1220  176.7320  138.5170 C   0  0  0  0  0  0  0  0  0  0  0  0
  190.0230  175.5160  137.8210 C   0  0  0  0  0  3  0  0  0  0  0  0
  191.0640  173.5860  136.6260 C   0  0  0  0  0  1  0  0  0  0  0  0
  192.4320  175.4470  137.5840 C   0  0  0  0  0  3  0  0  0  0  0  0
  191.1750  174.8740  137.3590 C   0  0  0  0  0  0  0  0  0  0  0  0
  192.5350  176.6620  138.2660 C   0  0  0  0  0  3  0  0  0  0  0  0
  191.0790  177.2520  145.2000 C   0  0  0  0  0  2  0  0  0  0  0  0
  191.3030  176.8460  146.5150 O   0  0  0  0  0  1  0  0  0  0  0  0
  185.8710  178.9870  147.1330 C   0  0  0  0  0  2  0  0  0  0  0  0
  186.4420  177.8620  146.7050 C   0  0  0  0  0  3  0  0  0  0  0  0
  1  4  1  0  0  0  0
  2 23  1  0  0  0  0
  3  7  1  0  0  0  0
  3  8  1  0  0  0  0
  4 11  1  0  0  0  0
  4 37  1  0  0  0  0
  5 18  1  0  0  0  0
  6 21  1  0  0  0  0
  6  8  1  0  0  0  0
  7 20  1  0  0  0  0
  8 12  1  0  0  0  0
  9  7  1  0  0  0  0
  9  5  1  0  0  0  0
 10 15  1  0  0  0  0
 10  6  1  0  0  0  0
 12 16  1  0  0  0  0
 14 26  2  0  0  0  0
 14 19  1  0  0  0  0
 15 19  1  0  0  0  0
 15  6  1  0  0  0  0
 16 13  1  0  0  0  0
 17 34  1  0  0  0  0
 17 11  1  0  0  0  0
 18 24  1  0  0  0  0
 19  3  1  0  0  0  0
 20 12  1  0  0  0  0
 20 25  1  0  0  0  0
 21  2  1  0  0  0  0
 22  9  2  0  0  0  0
 23 13  1  0  0  0  0
 24 17  1  0  0  0  0
 25 24  1  0  0  0  0
 25  1  1  0  0  0  0
 26 22  1  0  0  0  0
 28 27  1  0  0  0  0
 28 22  1  0  0  0  0
 29 28  2  0  0  0  0
 30 32  1  0  0  0  0
 31 33  1  0  0  0  0
 32 31  2  0  0  0  0
 32 29  1  0  0  0  0
 33 27  2  0  0  0  0
 34 35  1  0  0  0  0
 37 36  2  0  0  0  0
M  END
>  <MODEL>
2

>  <REMARK>
 VINA RESULT:     -11.2      2.025      7.933
  Name = 
  3 active torsions:
  status: ('A' for Active; 'I' for Inactive)
    1  A    between atoms: C_5  and  C_23
    2  A    between atoms: C_6  and  C_31
    3  A    between atoms: C_11  and  C_26
                            x       y       z     vdW  Elec       q    Type
                         _______ _______ _______ _____ _____    ______ ____

>  <TORSDO>
F 3

$$$$
=
 OpenBabel10272414523D

 37 44  0  0  1  0  0  0  0  0999 V2000
  184.2700  177.6340  141.3480 O   0  0  0  0  0  0  0  0  0  0  0  0
  186.3820  176.4670  137.2650 C   0  0  0  0  0  2  0  0  0  0  0  0
  188.6180  177.9320  140.5710 C   0  0  2  0  0  3  0  0  0  0  0  0
  183.2330  178.5450  141.6280 C   0  0  2  0  0  3  0  0  0  0  0  0
  187.3430  177.5910  144.1200 C   0  0  0  0  0  2  0  0  0  0  0  0
  188.5520  177.2500  138.3480 C   0  0  1  0  0  0  0  0  0  0  0  0
  187.9140  178.1500  141.6550 C   0  0  2  0  0  3  0  0  0  0  0  0
  187.9520  178.2710  139.3190 C   0  0  1  0  0  3  0  0  0  0  0  0
  188.3820  177.7800  143.0370 C   0  0  0  0  0  0  0  0  0  0  0  0
  190.0050  177.5810  138.0560 C   0  0  0  0  0  2  0  0  0  0  0  0
  182.7590  178.3990  143.0820 C   0  0  0  0  0  2  0  0  0  0  0  0
  186.4980  178.1490  139.7460 C   0  0  2  0  0  3  0  0  0  0  0  0
  184.7760  178.2690  137.9450 C   0  0  0  0  0  2  0  0  0  0  0  0
  190.8590  177.3250  141.1160 C   0  0  0  0  0  3  0  0  0  0  0  0
  189.6680  176.4360  139.0030 C   0  0  1  0  0  3  0  0  0  0  0  0
  185.6250  179.0750  138.9180 C   0  0  0  0  0  2  0  0  0  0  0  0
  183.9400  178.3730  144.0620 C   0  0  1  0  0  3  0  0  0  0  0  0
  186.4570  178.8180  144.2910 C   0  0  0  0  0  2  0  0  0  0  0  0
  189.6080  176.8510  140.4810 C   0  0  2  0  0  3  0  0  0  0  0  0
  186.5400  178.5930  141.2210 C   0  0  1  0  0  3  0  0  0  0  0  0
  187.8710  176.7080  137.0900 C   0  0  0  0  0  2  0  0  0  0  0  0
  189.7050  177.5950  143.3630 C   0  0  0  0  0  0  0  0  0  0  0  0
  185.6110  177.6950  136.8100 C   0  0  0  0  0  2  0  0  0  0  0  0
  185.2320  178.8060  143.3620 C   0  0  1  0  0  3  0  0  0  0  0  0
  185.4450  177.9650  142.0790 C   0  0  1  0  0  3  0  0  0  0  0  0
  190.8650  177.6540  142.4150 C   0  0  0  0  0  3  0  0  0  0  0  0
  191.2850  176.6400  145.0390 C   0  0  0  0  0  3  0  0  0  0  0  0
  190.1010  177.3370  144.7630 C   0  0  0  0  0  0  0  0  0  0  0  0
  189.2830  177.7580  145.8230 C   0  0  0  0  0  3  0  0  0  0  0  0
  188.7860  177.9480  148.2630 C   0  0  0  0  0  1  0  0  0  0  0  0
  190.8440  176.8120  147.4140 C   0  0  0  0  0  3  0  0  0  0  0  0
  189.6540  177.4980  147.1440 C   0  0  0  0  0  0  0  0  0  0  0  0
  191.6570  176.3820  146.3610 C   0  0  0  0  0  3  0  0  0  0  0  0
  183.6320  179.2800  145.2440 C   0  0  0  0  0  2  0  0  0  0  0  0
  184.1470  178.7310  146.4180 O   0  0  0  0  0  1  0  0  0  0  0  0
  181.9100  177.2170  140.0140 C   0  0  0  0  0  2  0  0  0  0  0  0
  182.0980  178.3630  140.6680 C   0  0  0  0  0  3  0  0  0  0  0  0
  1  4  1  0  0  0  0
  1 25  1  0  0  0  0
  3  7  1  0  0  0  0
  4 11  1  0  0  0  0
  5 18  1  0  0  0  0
  6 15  1  0  0  0  0
  6  8  1  0  0  0  0
  7  9  1  0  0  0  0
  8 12  1  0  0  0  0
  8  3  1  0  0  0  0
  9 22  2  0  0  0  0
  9  5  1  0  0  0  0
 10  6  1  0  0  0  0
 10 15  1  0  0  0  0
 11 17  1  0  0  0  0
 12 20  1  0  0  0  0
 13 16  1  0  0  0  0
 14 26  2  0  0  0  0
 15 19  1  0  0  0  0
 16 12  1  0  0  0  0
 17 34  1  0  0  0  0
 19  3  1  0  0  0  0
 19 14  1  0  0  0  0
 20  7  1  0  0  0  0
 20 25  1  0  0  0  0
 21  2  1  0  0  0  0
 21  6  1  0  0  0  0
 22 28  1  0  0  0  0
 23  2  1  0  0  0  0
 23 13  1  0  0  0  0
 24 17  1  0  0  0  0
 24 18  1  0  0  0  0
 25 24  1  0  0  0  0
 26 22  1  0  0  0  0
 27 33  1  0  0  0  0
 28 27  2  0  0  0  0
 28 29  1  0  0  0  0
 29 32  2  0  0  0  0
 32 31  1  0  0  0  0
 32 30  1  0  0  0  0
 33 31  2  0  0  0  0
 34 35  1  0  0  0  0
 36 37  2  0  0  0  0
 37  4  1  0  0  0  0
M  END
>  <MODEL>
3

>  <REMARK>
 VINA RESULT:     -11.1      1.939      7.870
  Name = 
  3 active torsions:
  status: ('A' for Active; 'I' for Inactive)
    1  A    between atoms: C_5  and  C_23
    2  A    between atoms: C_6  and  C_31
    3  A    between atoms: C_11  and  C_26
                            x       y       z     vdW  Elec       q    Type
                         _______ _______ _______ _____ _____    ______ ____

>  <TORSDO>
F 3

$$$$
=
 OpenBabel10272414523D

 37 44  0  0  1  0  0  0  0  0999 V2000
  183.2010  177.7730  141.1990 O   0  0  0  0  0  0  0  0  0  0  0  0
  183.8680  176.5530  136.6650 C   0  0  0  0  0  2  0  0  0  0  0  0
  187.0280  178.1660  139.0070 C   0  0  2  0  0  3  0  0  0  0  0  0
  182.2860  178.6630  141.7940 C   0  0  2  0  0  3  0  0  0  0  0  0
  187.0230  177.8870  142.7840 C   0  0  0  0  0  2  0  0  0  0  0  0
  186.2460  177.4230  136.9460 C   0  0  1  0  0  0  0  0  0  0  0  0
  186.7180  178.3950  140.2600 C   0  0  2  0  0  3  0  0  0  0  0  0
  185.9700  178.4540  138.0450 C   0  0  1  0  0  3  0  0  0  0  0  0
  187.6340  178.0740  141.4120 C   0  0  0  0  0  0  0  0  0  0  0  0
  187.5070  177.7850  136.1790 C   0  0  0  0  0  2  0  0  0  0  0  0
  182.3300  178.5440  143.3250 C   0  0  0  0  0  2  0  0  0  0  0  0
  184.7480  178.3040  138.9350 C   0  0  2  0  0  3  0  0  0  0  0  0
  182.5200  178.3290  137.8120 C   0  0  0  0  0  2  0  0  0  0  0  0
  189.3420  177.6350  138.7810 C   0  0  0  0  0  3  0  0  0  0  0  0
  187.5440  176.6570  137.2030 C   0  0  1  0  0  3  0  0  0  0  0  0
  183.6170  179.1830  138.4330 C   0  0  0  0  0  2  0  0  0  0  0  0
  183.7720  178.5750  143.8540 C   0  0  1  0  0  3  0  0  0  0  0  0
  186.2030  179.0940  143.2210 C   0  0  0  0  0  2  0  0  0  0  0  0
  187.9670  177.1100  138.6100 C   0  0  2  0  0  3  0  0  0  0  0  0
  185.2650  178.7890  140.3040 C   0  0  1  0  0  3  0  0  0  0  0  0
  185.2040  176.8300  135.9970 C   0  0  0  0  0  2  0  0  0  0  0  0
  188.9950  177.9340  141.2800 C   0  0  0  0  0  0  0  0  0  0  0  0
  182.9480  177.7480  136.4730 C   0  0  0  0  0  2  0  0  0  0  0  0
  184.7400  179.0240  142.7550 C   0  0  1  0  0  3  0  0  0  0  0  0
  184.5410  178.1550  141.4890 C   0  0  1  0  0  3  0  0  0  0  0  0
  189.7700  177.9980  139.9970 C   0  0  0  0  0  3  0  0  0  0  0  0
  190.1010  178.7890  143.3450 C   0  0  0  0  0  3  0  0  0  0  0  0
  189.8440  177.7240  142.4700 C   0  0  0  0  0  0  0  0  0  0  0  0
  190.4260  176.4700  142.7180 C   0  0  0  0  0  3  0  0  0  0  0  0
  191.8500  174.9510  144.0960 C   0  0  0  0  0  1  0  0  0  0  0  0
  191.4820  177.3450  144.7130 C   0  0  0  0  0  3  0  0  0  0  0  0
  191.2390  176.2810  143.8370 C   0  0  0  0  0  0  0  0  0  0  0  0
  190.9150  178.5990  144.4650 C   0  0  0  0  0  3  0  0  0  0  0  0
  183.8450  179.5050  145.0560 C   0  0  0  0  0  2  0  0  0  0  0  0
  184.2090  178.7890  146.1960 O   0  0  0  0  0  1  0  0  0  0  0  0
  180.5660  177.2810  140.6770 C   0  0  0  0  0  2  0  0  0  0  0  0
  180.9040  178.4250  141.2720 C   0  0  0  0  0  3  0  0  0  0  0  0
  1 25  1  0  0  0  0
  1  4  1  0  0  0  0
  3  7  1  0  0  0  0
  4 11  1  0  0  0  0
  5 18  1  0  0  0  0
  6 15  1  0  0  0  0
  6  8  1  0  0  0  0
  7 20  1  0  0  0  0
  7  9  1  0  0  0  0
  8 12  1  0  0  0  0
  8  3  1  0  0  0  0
  9  5  1  0  0  0  0
 10  6  1  0  0  0  0
 10 15  1  0  0  0  0
 11 17  1  0  0  0  0
 12 20  1  0  0  0  0
 13 16  1  0  0  0  0
 14 26  2  0  0  0  0
 15 19  1  0  0  0  0
 16 12  1  0  0  0  0
 17 34  1  0  0  0  0
 19 14  1  0  0  0  0
 19  3  1  0  0  0  0
 20 25  1  0  0  0  0
 21  2  1  0  0  0  0
 21  6  1  0  0  0  0
 22  9  2  0  0  0  0
 22 28  1  0  0  0  0
 23  2  1  0  0  0  0
 23 13  1  0  0  0  0
 24 18  1  0  0  0  0
 24 17  1  0  0  0  0
 25 24  1  0  0  0  0
 26 22  1  0  0  0  0
 27 33  1  0  0  0  0
 28 29  1  0  0  0  0
 28 27  2  0  0  0  0
 29 32  2  0  0  0  0
 32 30  1  0  0  0  0
 32 31  1  0  0  0  0
 33 31  2  0  0  0  0
 34 35  1  0  0  0  0
 36 37  2  0  0  0  0
 37  4  1  0  0  0  0
M  END
>  <MODEL>
4

>  <REMARK>
 VINA RESULT:     -10.4      2.471      8.611
  Name = 
  3 active torsions:
  status: ('A' for Active; 'I' for Inactive)
    1  A    between atoms: C_5  and  C_23
    2  A    between atoms: C_6  and  C_31
    3  A    between atoms: C_11  and  C_26
                            x       y       z     vdW  Elec       q    Type
                         _______ _______ _______ _____ _____    ______ ____

>  <TORSDO>
F 3

$$$$
=
 OpenBabel10272414523D

 37 44  0  0  1  0  0  0  0  0999 V2000
  186.1720  178.9540  144.9310 O   0  0  0  0  0  0  0  0  0  0  0  0
  190.4780  178.0110  146.6790 C   0  0  0  0  0  2  0  0  0  0  0  0
  189.3690  176.7930  142.7600 C   0  0  2  0  0  3  0  0  0  0  0  0
  184.8870  178.6330  145.4100 C   0  0  2  0  0  3  0  0  0  0  0  0
  186.6440  178.5860  140.8360 C   0  0  0  0  0  2  0  0  0  0  0  0
  190.9260  176.7900  144.4880 C   0  0  1  0  0  0  0  0  0  0  0  0
  188.1730  177.1790  142.3850 C   0  0  2  0  0  3  0  0  0  0  0  0
  189.4820  176.3990  144.1600 C   0  0  1  0  0  3  0  0  0  0  0  0
  187.8680  177.7130  141.0110 C   0  0  0  0  0  0  0  0  0  0  0  0
  191.9030  175.8560  143.7950 C   0  0  0  0  0  2  0  0  0  0  0  0
  183.8060  179.3540  144.5900 C   0  0  0  0  0  2  0  0  0  0  0  0
  188.3280  177.1890  144.7560 C   0  0  2  0  0  3  0  0  0  0  0  0
  188.1600  177.2400  147.2450 C   0  0  0  0  0  2  0  0  0  0  0  0
  190.8350  176.6140  140.8880 C   0  0  0  0  0  3  0  0  0  0  0  0
  191.6810  177.2590  143.2430 C   0  0  1  0  0  3  0  0  0  0  0  0
  187.7810  176.4800  145.9820 C   0  0  0  0  0  2  0  0  0  0  0  0
  184.0410  179.1980  143.0810 C   0  0  1  0  0  3  0  0  0  0  0  0
  185.3710  177.8990  141.3130 C   0  0  0  0  0  2  0  0  0  0  0  0
  190.5940  177.3340  142.1600 C   0  0  2  0  0  3  0  0  0  0  0  0
  187.2970  177.1980  143.6110 C   0  0  1  0  0  3  0  0  0  0  0  0
  191.4540  177.1740  145.8700 C   0  0  0  0  0  2  0  0  0  0  0  0
  188.6490  177.4560  139.9090 C   0  0  0  0  0  0  0  0  0  0  0  0
  189.6410  177.1010  147.5640 C   0  0  0  0  0  2  0  0  0  0  0  0
  185.0960  178.1210  142.8090 C   0  0  1  0  0  3  0  0  0  0  0  0
  186.3760  178.4150  143.6300 C   0  0  1  0  0  3  0  0  0  0  0  0
  189.9370  176.6890  139.8980 C   0  0  0  0  0  3  0  0  0  0  0  0
  188.9600  178.9300  137.9210 C   0  0  0  0  0  3  0  0  0  0  0  0
  188.2310  177.9250  138.5710 C   0  0  0  0  0  0  0  0  0  0  0  0
  187.0870  177.3920  137.9550 C   0  0  0  0  0  3  0  0  0  0  0  0
  185.4790  177.2800  136.0480 C   0  0  0  0  0  1  0  0  0  0  0  0
  187.4280  178.8450  136.0490 C   0  0  0  0  0  3  0  0  0  0  0  0
  186.6890  177.8490  136.6970 C   0  0  0  0  0  0  0  0  0  0  0  0
  188.5620  179.3860  136.6620 C   0  0  0  0  0  3  0  0  0  0  0  0
  182.7250  178.8540  142.4010 C   0  0  0  0  0  2  0  0  0  0  0  0
  181.6540  179.2140  143.2180 O   0  0  0  0  0  1  0  0  0  0  0  0
  185.7840  179.4930  147.5490 C   0  0  0  0  0  2  0  0  0  0  0  0
  184.7700  178.9600  146.8660 C   0  0  0  0  0  3  0  0  0  0  0  0
  1  4  1  0  0  0  0
  2 23  1  0  0  0  0
  3  8  1  0  0  0  0
  4 37  1  0  0  0  0
  5  9  1  0  0  0  0
  5 18  1  0  0  0  0
  6 21  1  0  0  0  0
  7  3  1  0  0  0  0
  7 20  1  0  0  0  0
  8  6  1  0  0  0  0
  8 12  1  0  0  0  0
  9  7  1  0  0  0  0
 10  6  1  0  0  0  0
 11  4  1  0  0  0  0
 12 16  1  0  0  0  0
 13 23  1  0  0  0  0
 14 19  1  0  0  0  0
 15 10  1  0  0  0  0
 15  6  1  0  0  0  0
 16 13  1  0  0  0  0
 17 11  1  0  0  0  0
 18 24  1  0  0  0  0
 19  3  1  0  0  0  0
 19 15  1  0  0  0  0
 20 25  1  0  0  0  0
 20 12  1  0  0  0  0
 21  2  1  0  0  0  0
 22  9  2  0  0  0  0
 24 17  1  0  0  0  0
 24 25  1  0  0  0  0
 25  1  1  0  0  0  0
 26 22  1  0  0  0  0
 26 14  2  0  0  0  0
 27 28  1  0  0  0  0
 28 22  1  0  0  0  0
 29 28  2  0  0  0  0
 30 32  1  0  0  0  0
 31 33  1  0  0  0  0
 31 32  2  0  0  0  0
 32 29  1  0  0  0  0
 33 27  2  0  0  0  0
 34 17  1  0  0  0  0
 34 35  1  0  0  0  0
 37 36  2  0  0  0  0
M  END
>  <MODEL>
5

>  <REMARK>
 VINA RESULT:     -10.0      2.045      6.024
  Name = 
  3 active torsions:
  status: ('A' for Active; 'I' for Inactive)
    1  A    between atoms: C_5  and  C_23
    2  A    between atoms: C_6  and  C_31
    3  A    between atoms: C_11  and  C_26
                            x       y       z     vdW  Elec       q    Type
                         _______ _______ _______ _____ _____    ______ ____

>  <TORSDO>
F 3

$$$$
=
 OpenBabel10272414523D

 37 44  0  0  1  0  0  0  0  0999 V2000
  187.6260  177.2300  143.1240 O   0  0  0  0  0  0  0  0  0  0  0  0
  183.5370  177.5200  140.7400 C   0  0  0  0  0  2  0  0  0  0  0  0
  187.2800  177.9220  138.7640 C   0  0  2  0  0  3  0  0  0  0  0  0
  188.1110  177.9630  144.2240 C   0  0  2  0  0  3  0  0  0  0  0  0
  190.4400  176.4090  140.2010 C   0  0  0  0  0  2  0  0  0  0  0  0
  184.9560  177.9920  138.6770 C   0  0  1  0  0  0  0  0  0  0  0  0
  188.3260  177.7540  139.5360 C   0  0  2  0  0  3  0  0  0  0  0  0
  186.1600  178.6230  139.3830 C   0  0  1  0  0  3  0  0  0  0  0  0
  189.5460  176.9750  139.1190 C   0  0  0  0  0  0  0  0  0  0  0  0
  184.8840  178.4530  137.2320 C   0  0  0  0  0  2  0  0  0  0  0  0
  189.4070  177.3390  144.7630 C   0  0  0  0  0  2  0  0  0  0  0  0
  186.4260  178.3160  140.8480 C   0  0  2  0  0  3  0  0  0  0  0  0
  184.6460  178.9460  142.4780 C   0  0  0  0  0  2  0  0  0  0  0  0
  187.7520  177.2560  136.5240 C   0  0  0  0  0  3  0  0  0  0  0  0
  185.3910  177.0520  137.5520 C   0  0  1  0  0  3  0  0  0  0  0  0
  185.8810  179.4260  141.7280 C   0  0  0  0  0  2  0  0  0  0  0  0
  190.4050  177.0410  143.6350 C   0  0  1  0  0  3  0  0  0  0  0  0
  190.9330  177.4820  141.1630 C   0  0  0  0  0  2  0  0  0  0  0  0
  186.9160  176.9660  137.7120 C   0  0  2  0  0  3  0  0  0  0  0  0
  187.9650  178.2620  140.9080 C   0  0  1  0  0  3  0  0  0  0  0  0
  183.5490  177.8600  139.2590 C   0  0  0  0  0  2  0  0  0  0  0  0
  189.8840  176.7450  137.8070 C   0  0  0  0  0  0  0  0  0  0  0  0
  183.4470  178.8000  141.5540 C   0  0  0  0  0  2  0  0  0  0  0  0
  189.9680  177.7240  142.3350 C   0  0  1  0  0  3  0  0  0  0  0  0
  188.5020  177.3510  142.0080 C   0  0  1  0  0  3  0  0  0  0  0  0
  189.0850  177.1490  136.6040 C   0  0  0  0  0  3  0  0  0  0  0  0
  192.3720  176.7340  137.6300 C   0  0  0  0  0  3  0  0  0  0  0  0
  191.1510  176.0640  137.4700 C   0  0  0  0  0  0  0  0  0  0  0  0
  191.1430  174.7570  136.9580 C   0  0  0  0  0  3  0  0  0  0  0  0
  192.3270  172.7370  136.0880 C   0  0  0  0  0  1  0  0  0  0  0  0
  193.5580  174.7930  136.8010 C   0  0  0  0  0  3  0  0  0  0  0  0
  192.3420  174.1220  136.6270 C   0  0  0  0  0  0  0  0  0  0  0  0
  193.5720  176.0990  137.3000 C   0  0  0  0  0  3  0  0  0  0  0  0
  191.7910  177.5070  144.0550 C   0  0  0  0  0  2  0  0  0  0  0  0
  191.7870  178.8820  144.2840 O   0  0  0  0  0  1  0  0  0  0  0  0
  186.0100  177.2490  145.3170 C   0  0  0  0  0  2  0  0  0  0  0  0
  187.0700  178.0580  145.2950 C   0  0  0  0  0  3  0  0  0  0  0  0
  1  4  1  0  0  0  0
  2 23  1  0  0  0  0
  3  8  1  0  0  0  0
  3  7  1  0  0  0  0
  4 11  1  0  0  0  0
  4 37  1  0  0  0  0
  5 18  1  0  0  0  0
  6 21  1  0  0  0  0
  6  8  1  0  0  0  0
  7 20  1  0  0  0  0
  8 12  1  0  0  0  0
  9  7  1  0  0  0  0
  9  5  1  0  0  0  0
 10 15  1  0  0  0  0
 10  6  1  0  0  0  0
 12 20  1  0  0  0  0
 12 16  1  0  0  0  0
 14 26  2  0  0  0  0
 14 19  1  0  0  0  0
 15 19  1  0  0  0  0
 15  6  1  0  0  0  0
 16 13  1  0  0  0  0
 17 34  1  0  0  0  0
 17 11  1  0  0  0  0
 18 24  1  0  0  0  0
 19  3  1  0  0  0  0
 20 25  1  0  0  0  0
 21  2  1  0  0  0  0
 22  9  2  0  0  0  0
 23 13  1  0  0  0  0
 24 17  1  0  0  0  0
 25 24  1  0  0  0  0
 25  1  1  0  0  0  0
 26 22  1  0  0  0  0
 28 27  1  0  0  0  0
 28 22  1  0  0  0  0
 29 28  2  0  0  0  0
 30 32  1  0  0  0  0
 31 33  1  0  0  0  0
 32 31  2  0  0  0  0
 32 29  1  0  0  0  0
 33 27  2  0  0  0  0
 34 35  1  0  0  0  0
 37 36  2  0  0  0  0
M  END
>  <MODEL>
6

>  <REMARK>
 VINA RESULT:      -9.7      2.408      8.527
  Name = 
  3 active torsions:
  status: ('A' for Active; 'I' for Inactive)
    1  A    between atoms: C_5  and  C_23
    2  A    between atoms: C_6  and  C_31
    3  A    between atoms: C_11  and  C_26
                            x       y       z     vdW  Elec       q    Type
                         _______ _______ _______ _____ _____    ______ ____

>  <TORSDO>
F 3

$$$$
=
 OpenBabel10272414523D

 37 44  0  0  1  0  0  0  0  0999 V2000
  186.8220  178.8730  139.5260 O   0  0  0  0  0  0  0  0  0  0  0  0
  182.2930  180.2790  139.5710 C   0  0  0  0  0  2  0  0  0  0  0  0
  183.9890  178.1830  142.8580 C   0  0  2  0  0  3  0  0  0  0  0  0
  187.5300  178.0580  138.6220 C   0  0  2  0  0  3  0  0  0  0  0  0
  187.7180  178.2350  143.5160 C   0  0  0  0  0  2  0  0  0  0  0  0
  182.1250  179.1310  141.8390 C   0  0  1  0  0  0  0  0  0  0  0  0
  185.2670  177.9170  142.7360 C   0  0  2  0  0  3  0  0  0  0  0  0
  183.2130  178.0750  141.6280 C   0  0  1  0  0  3  0  0  0  0  0  0
  186.2550  178.0630  143.8630 C   0  0  0  0  0  0  0  0  0  0  0  0
  181.1380  178.6760  142.9010 C   0  0  0  0  0  2  0  0  0  0  0  0
  189.0340  178.0800  138.9350 C   0  0  0  0  0  2  0  0  0  0  0  0
  184.3060  178.3080  140.5980 C   0  0  2  0  0  3  0  0  0  0  0  0
  183.5840  178.6000  138.2280 C   0  0  0  0  0  2  0  0  0  0  0  0
  183.3890  178.4630  145.1490 C   0  0  0  0  0  3  0  0  0  0  0  0
  182.1850  179.7290  143.2450 C   0  0  1  0  0  3  0  0  0  0  0  0
  183.9720  177.5930  139.3010 C   0  0  0  0  0  2  0  0  0  0  0  0
  189.3050  177.8540  140.4290 C   0  0  1  0  0  3  0  0  0  0  0  0
  188.2420  177.1040  142.6400 C   0  0  0  0  0  2  0  0  0  0  0  0
  183.4780  179.1480  143.8380 C   0  0  2  0  0  3  0  0  0  0  0  0
  185.5450  177.6870  141.2730 C   0  0  1  0  0  3  0  0  0  0  0  0
  181.3940  179.8940  140.7340 C   0  0  0  0  0  2  0  0  0  0  0  0
  185.8960  178.0560  145.1900 C   0  0  0  0  0  0  0  0  0  0  0  0
  182.2160  179.2090  138.4930 C   0  0  0  0  0  2  0  0  0  0  0  0
  188.0380  177.3660  141.1390 C   0  0  1  0  0  3  0  0  0  0  0  0
  186.8610  178.3260  140.8390 C   0  0  1  0  0  3  0  0  0  0  0  0
  184.4970  177.9820  145.7260 C   0  0  0  0  0  3  0  0  0  0  0  0
  186.6720  178.7580  147.4530 C   0  0  0  0  0  3  0  0  0  0  0  0
  186.9290  178.0970  146.2440 C   0  0  0  0  0  0  0  0  0  0  0  0
  188.1850  177.5060  146.0340 C   0  0  0  0  0  3  0  0  0  0  0  0
  190.4910  176.9300  146.8010 C   0  0  0  0  0  1  0  0  0  0  0  0
  188.8960  178.2110  148.2380 C   0  0  0  0  0  3  0  0  0  0  0  0
  189.1640  177.5600  147.0280 C   0  0  0  0  0  0  0  0  0  0  0  0
  187.6510  178.8110  148.4490 C   0  0  0  0  0  3  0  0  0  0  0  0
  190.4380  176.8520  140.5880 C   0  0  0  0  0  2  0  0  0  0  0  0
  190.5440  176.0610  139.4450 O   0  0  0  0  0  1  0  0  0  0  0  0
  186.6640  177.6730  136.3370 C   0  0  0  0  0  2  0  0  0  0  0  0
  187.2650  178.4810  137.2110 C   0  0  0  0  0  3  0  0  0  0  0  0
  1 25  1  0  0  0  0
  2 21  1  0  0  0  0
  3 19  1  0  0  0  0
  4 11  1  0  0  0  0
  4  1  1  0  0  0  0
  5  9  1  0  0  0  0
  6 10  1  0  0  0  0
  6 15  1  0  0  0  0
  7  3  1  0  0  0  0
  7  9  1  0  0  0  0
  8  6  1  0  0  0  0
  8  3  1  0  0  0  0
  9 22  2  0  0  0  0
 10 15  1  0  0  0  0
 11 17  1  0  0  0  0
 12 20  1  0  0  0  0
 12  8  1  0  0  0  0
 13 23  1  0  0  0  0
 13 16  1  0  0  0  0
 14 26  2  0  0  0  0
 15 19  1  0  0  0  0
 16 12  1  0  0  0  0
 17 34  1  0  0  0  0
 17 24  1  0  0  0  0
 18  5  1  0  0  0  0
 19 14  1  0  0  0  0
 20  7  1  0  0  0  0
 21  6  1  0  0  0  0
 22 26  1  0  0  0  0
 22 28  1  0  0  0  0
 23  2  1  0  0  0  0
 24 18  1  0  0  0  0
 25 24  1  0  0  0  0
 25 20  1  0  0  0  0
 27 33  1  0  0  0  0
 28 27  2  0  0  0  0
 29 28  1  0  0  0  0
 29 32  2  0  0  0  0
 30 32  1  0  0  0  0
 31 33  2  0  0  0  0
 32 31  1  0  0  0  0
 35 34  1  0  0  0  0
 36 37  2  0  0  0  0
 37  4  1  0  0  0  0
M  END
>  <MODEL>
7

>  <REMARK>
 VINA RESULT:      -9.6      1.374      6.544
  Name = 
  3 active torsions:
  status: ('A' for Active; 'I' for Inactive)
    1  A    between atoms: C_5  and  C_23
    2  A    between atoms: C_6  and  C_31
    3  A    between atoms: C_11  and  C_26
                            x       y       z     vdW  Elec       q    Type
                         _______ _______ _______ _____ _____    ______ ____

>  <TORSDO>
F 3

$$$$
=
 OpenBabel10272414523D

 37 44  0  0  1  0  0  0  0  0999 V2000
  188.3330  178.4300  144.7260 O   0  0  0  0  0  0  0  0  0  0  0  0
  191.9760  177.9400  141.7300 C   0  0  0  0  0  2  0  0  0  0  0  0
  187.9600  177.4540  140.4240 C   0  0  2  0  0  3  0  0  0  0  0  0
  188.0340  177.7750  145.9360 C   0  0  2  0  0  3  0  0  0  0  0  0
  185.0790  179.0920  142.2550 C   0  0  0  0  0  2  0  0  0  0  0  0
  190.2380  177.3520  139.9620 C   0  0  1  0  0  0  0  0  0  0  0  0
  187.0540  177.6840  141.3430 C   0  0  2  0  0  3  0  0  0  0  0  0
  189.1660  176.7820  140.8960 C   0  0  1  0  0  3  0  0  0  0  0  0
  185.7830  178.4470  141.0810 C   0  0  0  0  0  0  0  0  0  0  0  0
  190.0720  176.7980  138.5580 C   0  0  0  0  0  2  0  0  0  0  0  0
  186.8440  178.4470  146.6380 C   0  0  0  0  0  2  0  0  0  0  0  0
  189.1430  177.1860  142.3610 C   0  0  2  0  0  3  0  0  0  0  0  0
  191.1660  176.6420  143.7160 C   0  0  0  0  0  2  0  0  0  0  0  0
  187.1270  177.9790  138.2520 C   0  0  0  0  0  3  0  0  0  0  0  0
  189.6250  178.2220  138.8640 C   0  0  1  0  0  3  0  0  0  0  0  0
  189.8240  176.1290  143.2110 C   0  0  0  0  0  2  0  0  0  0  0  0
  185.6750  178.6830  145.6710 C   0  0  1  0  0  3  0  0  0  0  0  0
  184.7490  178.0900  143.3530 C   0  0  0  0  0  2  0  0  0  0  0  0
  188.1460  178.3360  139.2660 C   0  0  2  0  0  3  0  0  0  0  0  0
  187.6340  177.2610  142.6680 C   0  0  1  0  0  3  0  0  0  0  0  0
  191.7220  177.5060  140.2970 C   0  0  0  0  0  2  0  0  0  0  0  0
  185.2340  178.5970  139.8290 C   0  0  0  0  0  0  0  0  0  0  0  0
  192.1970  176.7140  142.6010 C   0  0  0  0  0  2  0  0  0  0  0  0
  185.8920  177.9120  144.3650 C   0  0  1  0  0  3  0  0  0  0  0  0
  187.2860  178.2470  143.7790 C   0  0  1  0  0  3  0  0  0  0  0  0
  185.8260  178.1070  138.5410 C   0  0  0  0  0  3  0  0  0  0  0  0
  183.8320  180.4240  138.8730 C   0  0  0  0  0  3  0  0  0  0  0  0
  183.9300  179.2690  139.6600 C   0  0  0  0  0  0  0  0  0  0  0  0
  182.7860  178.7770  140.3100 C   0  0  0  0  0  3  0  0  0  0  0  0
  180.3500  178.8980  140.8470 C   0  0  0  0  0  1  0  0  0  0  0  0
  181.4660  180.5710  139.3610 C   0  0  0  0  0  3  0  0  0  0  0  0
  181.5580  179.4240  140.1590 C   0  0  0  0  0  0  0  0  0  0  0  0
  182.6030  181.0700  138.7200 C   0  0  0  0  0  3  0  0  0  0  0  0
  184.3760  178.2610  146.3410 C   0  0  0  0  0  2  0  0  0  0  0  0
  183.3320  179.0870  145.9280 O   0  0  0  0  0  1  0  0  0  0  0  0
  189.1570  178.0280  148.1250 C   0  0  0  0  0  2  0  0  0  0  0  0
  189.2360  177.7370  146.8270 C   0  0  0  0  0  3  0  0  0  0  0  0
  1  4  1  0  0  0  0
  2 23  1  0  0  0  0
  3  8  1  0  0  0  0
  3  7  1  0  0  0  0
  4 11  1  0  0  0  0
  4 37  1  0  0  0  0
  5 18  1  0  0  0  0
  6 21  1  0  0  0  0
  6  8  1  0  0  0  0
  7 20  1  0  0  0  0
  8 12  1  0  0  0  0
  9  7  1  0  0  0  0
  9  5  1  0  0  0  0
 10 15  1  0  0  0  0
 10  6  1  0  0  0  0
 12 20  1  0  0  0  0
 12 16  1  0  0  0  0
 14 26  2  0  0  0  0
 14 19  1  0  0  0  0
 15 19  1  0  0  0  0
 15  6  1  0  0  0  0
 16 13  1  0  0  0  0
 17 34  1  0  0  0  0
 17 11  1  0  0  0  0
 18 24  1  0  0  0  0
 19  3  1  0  0  0  0
 20 25  1  0  0  0  0
 21  2  1  0  0  0  0
 22  9  2  0  0  0  0
 23 13  1  0  0  0  0
 24 17  1  0  0  0  0
 25 24  1  0  0  0  0
 25  1  1  0  0  0  0
 26 22  1  0  0  0  0
 27 28  1  0  0  0  0
 28 22  1  0  0  0  0
 28 29  2  0  0  0  0
 31 32  2  0  0  0  0
 32 29  1  0  0  0  0
 32 30  1  0  0  0  0
 33 27  2  0  0  0  0
 33 31  1  0  0  0  0
 35 34  1  0  0  0  0
 37 36  2  0  0  0  0
M  END
>  <MODEL>
8

>  <REMARK>
 VINA RESULT:      -9.6      1.945      5.623
  Name = 
  3 active torsions:
  status: ('A' for Active; 'I' for Inactive)
    1  A    between atoms: C_5  and  C_23
    2  A    between atoms: C_6  and  C_31
    3  A    between atoms: C_11  and  C_26
                            x       y       z     vdW  Elec       q    Type
                         _______ _______ _______ _____ _____    ______ ____

>  <TORSDO>
F 3

$$$$
=
 OpenBabel10272414523D

 37 44  0  0  1  0  0  0  0  0999 V2000
  189.7200  176.4940  139.0130 O   0  0  0  0  0  0  0  0  0  0  0  0
  190.4300  175.7750  143.6460 C   0  0  0  0  0  2  0  0  0  0  0  0
  187.3410  178.3440  142.2560 C   0  0  2  0  0  3  0  0  0  0  0  0
  190.5840  176.9640  138.0050 C   0  0  2  0  0  3  0  0  0  0  0  0
  185.8480  177.9410  138.8000 C   0  0  0  0  0  2  0  0  0  0  0  0
  188.5440  177.4440  144.0320 C   0  0  1  0  0  0  0  0  0  0  0  0
  187.2180  178.3960  140.9520 C   0  0  2  0  0  3  0  0  0  0  0  0
  188.7120  178.2600  142.7470 C   0  0  1  0  0  3  0  0  0  0  0  0
  185.8890  178.3900  140.2440 C   0  0  0  0  0  0  0  0  0  0  0  0
  187.8530  178.2710  145.1030 C   0  0  0  0  0  2  0  0  0  0  0  0
  189.9370  176.8120  136.6200 C   0  0  0  0  0  2  0  0  0  0  0  0
  189.3940  177.6390  141.5380 C   0  0  2  0  0  3  0  0  0  0  0  0
  191.7550  176.8890  141.8320 C   0  0  0  0  0  2  0  0  0  0  0  0
  185.2420  178.7060  143.3280 C   0  0  0  0  0  3  0  0  0  0  0  0
  187.0700  177.1980  144.3560 C   0  0  1  0  0  3  0  0  0  0  0  0
  190.8500  178.0620  141.4780 C   0  0  0  0  0  2  0  0  0  0  0  0
  188.4990  177.3490  136.6050 C   0  0  1  0  0  3  0  0  0  0  0  0
  186.7920  178.7460  137.9160 C   0  0  0  0  0  2  0  0  0  0  0  0
  186.3280  177.7210  143.1170 C   0  0  2  0  0  3  0  0  0  0  0  0
  188.5940  178.2280  140.3600 C   0  0  1  0  0  3  0  0  0  0  0  0
  189.6080  176.5460  144.6640 C   0  0  0  0  0  2  0  0  0  0  0  0
  184.7100  178.7640  140.8450 C   0  0  0  0  0  0  0  0  0  0  0  0
  191.6920  176.5550  143.3150 C   0  0  0  0  0  2  0  0  0  0  0  0
  188.2140  178.1620  137.8720 C   0  0  1  0  0  3  0  0  0  0  0  0
  188.5730  177.3300  139.1260 C   0  0  1  0  0  3  0  0  0  0  0  0
  184.5360  179.1550  142.2820 C   0  0  0  0  0  3  0  0  0  0  0  0
  183.2320  179.9200  139.2030 C   0  0  0  0  0  3  0  0  0  0  0  0
  183.4610  178.8350  140.0600 C   0  0  0  0  0  0  0  0  0  0  0  0
  182.4810  177.8380  140.1890 C   0  0  0  0  0  3  0  0  0  0  0  0
  180.2630  176.8570  139.5940 C   0  0  0  0  0  1  0  0  0  0  0  0
  181.0790  178.9970  138.5920 C   0  0  0  0  0  3  0  0  0  0  0  0
  181.2950  177.9170  139.4550 C   0  0  0  0  0  0  0  0  0  0  0  0
  182.0460  179.9990  138.4680 C   0  0  0  0  0  3  0  0  0  0  0  0
  188.2920  178.1960  135.3580 C   0  0  0  0  0  2  0  0  0  0  0  0
  187.2590  177.6670  134.5850 O   0  0  0  0  0  1  0  0  0  0  0  0
  192.0250  174.9730  137.7250 C   0  0  0  0  0  2  0  0  0  0  0  0
  191.9020  176.2560  138.0670 C   0  0  0  0  0  3  0  0  0  0  0  0
  1 25  1  0  0  0  0
  2 21  1  0  0  0  0
  3  8  1  0  0  0  0
  3 19  1  0  0  0  0
  4 37  1  0  0  0  0
  4  1  1  0  0  0  0
  5  9  1  0  0  0  0
  6 15  1  0  0  0  0
  6 21  1  0  0  0  0
  6 10  1  0  0  0  0
  7  3  1  0  0  0  0
  8  6  1  0  0  0  0
  9 22  2  0  0  0  0
  9  7  1  0  0  0  0
 11  4  1  0  0  0  0
 12  8  1  0  0  0  0
 13 23  1  0  0  0  0
 15 10  1  0  0  0  0
 16 12  1  0  0  0  0
 16 13  1  0  0  0  0
 17 11  1  0  0  0  0
 17 24  1  0  0  0  0
 18  5  1  0  0  0  0
 19 14  1  0  0  0  0
 19 15  1  0  0  0  0
 20  7  1  0  0  0  0
 20 12  1  0  0  0  0
 22 26  1  0  0  0  0
 23  2  1  0  0  0  0
 24 18  1  0  0  0  0
 24 25  1  0  0  0  0
 25 20  1  0  0  0  0
 26 14  2  0  0  0  0
 27 28  1  0  0  0  0
 28 29  2  0  0  0  0
 28 22  1  0  0  0  0
 31 32  2  0  0  0  0
 32 30  1  0  0  0  0
 32 29  1  0  0  0  0
 33 31  1  0  0  0  0
 33 27  2  0  0  0  0
 34 17  1  0  0  0  0
 35 34  1  0  0  0  0
 36 37  2  0  0  0  0
M  END
>  <MODEL>
9

>  <REMARK>
 VINA RESULT:      -9.5      1.999      3.227
  Name = 
  3 active torsions:
  status: ('A' for Active; 'I' for Inactive)
    1  A    between atoms: C_5  and  C_23
    2  A    between atoms: C_6  and  C_31
    3  A    between atoms: C_11  and  C_26
                            x       y       z     vdW  Elec       q    Type
                         _______ _______ _______ _____ _____    ______ ____

>  <TORSDO>
F 3

$$$$
