=
 OpenBabel10272413223D

 32 36  0  0  1  0  0  0  0  0999 V2000
  190.8080  176.7900  146.9420 C   0  0  0  0  0  0  0  0  0  0  0  0
  187.5950  177.2880  143.0270 C   0  0  1  0  0  3  0  0  0  0  0  0
  190.1200  177.0900  138.8820 C   0  0  0  0  0  3  0  0  0  0  0  0
  189.0540  177.6590  138.1780 C   0  0  0  0  0  3  0  0  0  0  0  0
  185.2360  178.4600  142.9770 C   0  0  2  0  0  3  0  0  0  0  0  0
  184.1150  178.8350  141.9970 C   0  0  2  0  0  3  0  0  0  0  0  0
  188.6140  177.2920  145.2610 C   0  0  0  0  0  0  0  0  0  0  0  0
  190.0460  176.8520  143.2150 C   0  0  0  0  0  2  0  0  0  0  0  0
  190.9540  176.7060  145.5510 C   0  0  0  0  0  3  0  0  0  0  0  0
  190.1130  177.0770  140.2800 C   0  0  0  0  0  3  0  0  0  0  0  0
  188.9840  177.6830  142.4920 C   0  0  1  0  0  3  0  0  0  0  0  0
  189.0300  177.6270  140.9820 C   0  0  0  0  0  0  0  0  0  0  0  0
  186.8420  178.8180  141.0670 C   0  0  1  0  0  3  0  0  0  0  0  0
  189.5600  177.1320  147.4840 C   0  0  0  0  0  3  0  0  0  0  0  0
  189.8710  176.9650  144.7070 C   0  0  0  0  0  0  0  0  0  0  0  0
  182.9620  177.9880  142.2490 N   0  0  0  0  0  1  0  0  0  0  0  0
  188.4680  177.3820  146.6470 C   0  0  0  0  0  3  0  0  0  0  0  0
  187.9780  178.2220  138.8700 C   0  0  0  0  0  3  0  0  0  0  0  0
  187.9630  178.2080  140.2700 C   0  0  0  0  0  0  0  0  0  0  0  0
  185.7880  179.3520  140.2720 O   0  0  0  0  0  0  0  0  0  0  0  0
  187.5190  177.5490  144.4280 O   0  0  0  0  0  0  0  0  0  0  0  0
  185.6300  179.5990  143.6830 O   0  0  0  0  0  1  0  0  0  0  0  0
  186.4190  177.8750  142.2130 C   0  0  1  0  0  3  0  0  0  0  0  0
  184.5550  178.7030  140.5190 C   0  0  2  0  0  3  0  0  0  0  0  0
  192.6430  175.4730  147.6670 O   0  0  0  0  0  0  0  0  0  0  0  0
  192.2920  177.4450  148.8650 N   0  0  0  0  0  2  0  0  0  0  0  0
  191.9560  176.5210  147.8270 C   0  0  0  0  0  0  0  0  0  0  0  0
  193.3710  177.2310  149.7350 C   0  0  0  0  0  0  0  0  0  0  0  0
  194.2610  177.0530  150.4530 N   0  0  0  0  0  0  0  0  0  0  0  0
  183.5110  179.2470  139.6000 C   0  0  0  0  0  0  0  0  0  0  0  0
  183.5870  180.4390  139.2050 O   0  0  0  0  0  0  0  0  0  0  0  0
  182.4370  178.4220  139.1590 N   0  0  0  0  0  1  0  0  0  0  0  0
  1 14  1  0  0  0  0
  1 27  1  0  0  0  0
  2 21  1  1  0  0  0
  3 10  1  0  0  0  0
  4 18  1  0  0  0  0
  4  3  2  0  0  0  0
  5 22  1  6  0  0  0
  6 16  1  6  0  0  0
  6  5  1  0  0  0  0
  7 17  1  0  0  0  0
  8 15  1  0  0  0  0
  9  1  2  0  0  0  0
 10 12  2  0  0  0  0
 11  2  1  0  0  0  0
 11  8  1  1  0  0  0
 12 11  1  0  0  0  0
 13 19  1  6  0  0  0
 13 23  1  0  0  0  0
 15  7  2  0  0  0  0
 15  9  1  0  0  0  0
 17 14  2  0  0  0  0
 18 19  2  0  0  0  0
 19 12  1  0  0  0  0
 20 24  1  0  0  0  0
 20 13  1  0  0  0  0
 21  7  1  0  0  0  0
 23  5  1  0  0  0  0
 23  2  1  0  0  0  0
 24  6  1  0  0  0  0
 25 27  2  0  0  0  0
 26 28  1  0  0  0  0
 27 26  1  0  0  0  0
 28 29  3  0  0  0  0
 30 24  1  0  0  0  0
 31 30  2  0  0  0  0
 32 30  1  0  0  0  0
M  END
>  <MODEL>
1

>  <REMARK>
 VINA RESULT:      -9.6      0.000      0.000
  Name = 
  3 active torsions:
  status: ('A' for Active; 'I' for Inactive)
    1  A    between atoms: C_1  and  N_20
    2  A    between atoms: C_2  and  C_24
    3  A    between atoms: C_11  and  C_32
                            x       y       z     vdW  Elec       q    Type
                         _______ _______ _______ _____ _____    ______ ____

>  <TORSDO>
F 3

$$$$
=
 OpenBabel10272413223D

 32 36  0  0  1  0  0  0  0  0999 V2000
  188.5940  177.5730  146.5530 C   0  0  0  0  0  0  0  0  0  0  0  0
  185.2520  177.8010  142.7220 C   0  0  1  0  0  3  0  0  0  0  0  0
  187.6790  177.8620  138.5150 C   0  0  0  0  0  3  0  0  0  0  0  0
  186.5490  178.3360  137.8430 C   0  0  0  0  0  3  0  0  0  0  0  0
  182.7950  178.7530  142.7400 C   0  0  2  0  0  3  0  0  0  0  0  0
  181.6200  179.0300  141.7900 C   0  0  2  0  0  3  0  0  0  0  0  0
  186.3210  177.8830  144.9300 C   0  0  0  0  0  0  0  0  0  0  0  0
  187.7360  177.5900  142.8460 C   0  0  0  0  0  2  0  0  0  0  0  0
  188.7120  177.5120  145.1580 C   0  0  0  0  0  3  0  0  0  0  0  0
  187.7080  177.8400  139.9120 C   0  0  0  0  0  3  0  0  0  0  0  0
  186.5850  178.3250  142.1570 C   0  0  1  0  0  3  0  0  0  0  0  0
  186.5970  178.2830  140.6450 C   0  0  0  0  0  0  0  0  0  0  0  0
  184.3130  179.2690  140.7940 C   0  0  1  0  0  3  0  0  0  0  0  0
  187.3340  177.7960  147.1280 C   0  0  0  0  0  3  0  0  0  0  0  0
  187.5890  177.6760  144.3430 C   0  0  0  0  0  0  0  0  0  0  0  0
  180.5560  178.0800  142.0630 N   0  0  0  0  0  1  0  0  0  0  0  0
  186.2030  177.9500  146.3200 C   0  0  0  0  0  3  0  0  0  0  0  0
  185.4430  178.7940  138.5650 C   0  0  0  0  0  3  0  0  0  0  0  0
  185.4640  178.7690  139.9650 C   0  0  0  0  0  0  0  0  0  0  0  0
  183.1950  179.7100  140.0300 O   0  0  0  0  0  0  0  0  0  0  0  0
  185.1870  178.0450  144.1260 O   0  0  0  0  0  0  0  0  0  0  0  0
  183.1010  179.9180  143.4460 O   0  0  0  0  0  1  0  0  0  0  0  0
  184.0070  178.2840  141.9420 C   0  0  1  0  0  3  0  0  0  0  0  0
  182.0330  178.9490  140.3020 C   0  0  2  0  0  3  0  0  0  0  0  0
  189.8690  178.0320  148.5000 O   0  0  0  0  0  0  0  0  0  0  0  0
  190.8380  176.5280  147.0010 N   0  0  0  0  0  2  0  0  0  0  0  0
  189.7830  177.4040  147.4070 C   0  0  0  0  0  0  0  0  0  0  0  0
  191.9900  176.3370  147.7760 C   0  0  0  0  0  0  0  0  0  0  0  0
  192.9420  176.1790  148.4150 N   0  0  0  0  0  0  0  0  0  0  0  0
  180.9220  179.4020  139.4120 C   0  0  0  0  0  0  0  0  0  0  0  0
  180.5140  178.6510  138.4890 O   0  0  0  0  0  0  0  0  0  0  0  0
  180.3130  180.6750  139.6100 N   0  0  0  0  0  1  0  0  0  0  0  0
  1 14  1  0  0  0  0
  1 27  1  0  0  0  0
  2 21  1  1  0  0  0
  3 10  1  0  0  0  0
  4  3  2  0  0  0  0
  4 18  1  0  0  0  0
  5 22  1  6  0  0  0
  6 16  1  6  0  0  0
  6  5  1  0  0  0  0
  7 17  1  0  0  0  0
  8 15  1  0  0  0  0
  9  1  2  0  0  0  0
 10 12  2  0  0  0  0
 11  2  1  0  0  0  0
 11  8  1  1  0  0  0
 12 11  1  0  0  0  0
 13 19  1  6  0  0  0
 13 23  1  0  0  0  0
 15  7  2  0  0  0  0
 15  9  1  0  0  0  0
 17 14  2  0  0  0  0
 18 19  2  0  0  0  0
 19 12  1  0  0  0  0
 20 24  1  0  0  0  0
 20 13  1  0  0  0  0
 21  7  1  0  0  0  0
 23  2  1  0  0  0  0
 23  5  1  0  0  0  0
 24  6  1  0  0  0  0
 26 27  1  0  0  0  0
 26 28  1  0  0  0  0
 27 25  2  0  0  0  0
 28 29  3  0  0  0  0
 30 32  1  0  0  0  0
 30 24  1  0  0  0  0
 31 30  2  0  0  0  0
M  END
>  <MODEL>
2

>  <REMARK>
 VINA RESULT:      -9.3      1.835      2.616
  Name = 
  3 active torsions:
  status: ('A' for Active; 'I' for Inactive)
    1  A    between atoms: C_1  and  N_20
    2  A    between atoms: C_2  and  C_24
    3  A    between atoms: C_11  and  C_32
                            x       y       z     vdW  Elec       q    Type
                         _______ _______ _______ _____ _____    ______ ____

>  <TORSDO>
F 3

$$$$
=
 OpenBabel10272413223D

 32 36  0  0  1  0  0  0  0  0999 V2000
  190.9430  177.2050  139.2200 C   0  0  0  0  0  0  0  0  0  0  0  0
  186.3690  178.8260  140.7530 C   0  0  1  0  0  3  0  0  0  0  0  0
  186.1050  178.4510  145.5890 C   0  0  0  0  0  3  0  0  0  0  0  0
  184.7110  178.5480  145.5440 C   0  0  0  0  0  3  0  0  0  0  0  0
  184.1110  178.8920  139.3980 C   0  0  2  0  0  3  0  0  0  0  0  0
  182.6230  179.2250  139.5820 C   0  0  2  0  0  3  0  0  0  0  0  0
  188.2620  178.0240  139.4110 C   0  0  0  0  0  0  0  0  0  0  0  0
  188.4240  178.0530  141.9420 C   0  0  0  0  0  2  0  0  0  0  0  0
  190.3600  177.4180  140.4770 C   0  0  0  0  0  3  0  0  0  0  0  0
  186.8350  178.2590  144.4130 C   0  0  0  0  0  3  0  0  0  0  0  0
  186.9010  177.9210  141.8800 C   0  0  1  0  0  3  0  0  0  0  0  0
  186.1710  178.1730  143.1800 C   0  0  0  0  0  0  0  0  0  0  0  0
  184.0970  178.1230  141.7990 C   0  0  1  0  0  3  0  0  0  0  0  0
  190.1740  177.4000  138.0630 C   0  0  0  0  0  3  0  0  0  0  0  0
  189.0250  177.8140  140.5820 C   0  0  0  0  0  0  0  0  0  0  0  0
  182.3230  180.4600  138.8780 N   0  0  0  0  0  1  0  0  0  0  0  0
  188.8400  177.8070  138.1580 C   0  0  0  0  0  3  0  0  0  0  0  0
  184.0400  178.4480  144.3220 C   0  0  0  0  0  3  0  0  0  0  0  0
  184.7660  178.2600  143.1390 C   0  0  0  0  0  0  0  0  0  0  0  0
  182.6800  178.2580  141.8410 O   0  0  0  0  0  0  0  0  0  0  0  0
  186.9240  178.4260  139.5010 O   0  0  0  0  0  0  0  0  0  0  0  0
  184.2330  177.6100  138.8590 O   0  0  0  0  0  1  0  0  0  0  0  0
  184.8300  178.9740  140.7410 C   0  0  1  0  0  3  0  0  0  0  0  0
  182.2280  179.3570  141.0720 C   0  0  2  0  0  3  0  0  0  0  0  0
  193.2170  177.2790  139.8900 O   0  0  0  0  0  0  0  0  0  0  0  0
  192.7370  175.8100  138.1400 N   0  0  0  0  0  2  0  0  0  0  0  0
  192.3510  176.7820  139.1160 C   0  0  0  0  0  0  0  0  0  0  0  0
  194.0630  175.3790  138.0000 C   0  0  0  0  0  0  0  0  0  0  0  0
  195.1580  175.0220  137.8830 N   0  0  0  0  0  0  0  0  0  0  0  0
  180.7490  179.4970  141.2240 C   0  0  0  0  0  0  0  0  0  0  0  0
  179.9820  178.6830  140.6480 O   0  0  0  0  0  0  0  0  0  0  0  0
  180.2010  180.5400  142.0240 N   0  0  0  0  0  1  0  0  0  0  0  0
  1  9  1  0  0  0  0
  2 21  1  6  0  0  0
  2 11  1  0  0  0  0
  4  3  1  0  0  0  0
  5 22  1  1  0  0  0
  5  6  1  0  0  0  0
  5 23  1  0  0  0  0
  6 16  1  6  0  0  0
  6 24  1  0  0  0  0
  7 21  1  0  0  0  0
  7 15  1  0  0  0  0
  9 15  2  0  0  0  0
 10  3  2  0  0  0  0
 11  8  1  1  0  0  0
 11 12  1  0  0  0  0
 12 10  1  0  0  0  0
 13 20  1  1  0  0  0
 13 19  1  0  0  0  0
 14 17  1  0  0  0  0
 14  1  2  0  0  0  0
 15  8  1  0  0  0  0
 17  7  2  0  0  0  0
 18  4  2  0  0  0  0
 19 12  2  0  0  0  0
 19 18  1  0  0  0  0
 23  2  1  0  0  0  0
 23 13  1  0  0  0  0
 24 30  1  0  0  0  0
 24 20  1  0  0  0  0
 26 27  1  0  0  0  0
 27  1  1  0  0  0  0
 27 25  2  0  0  0  0
 28 26  1  0  0  0  0
 29 28  3  0  0  0  0
 30 32  1  0  0  0  0
 31 30  2  0  0  0  0
M  END
>  <MODEL>
3

>  <REMARK>
 VINA RESULT:      -9.2      4.395      6.378
  Name = 
  3 active torsions:
  status: ('A' for Active; 'I' for Inactive)
    1  A    between atoms: C_1  and  N_20
    2  A    between atoms: C_2  and  C_24
    3  A    between atoms: C_11  and  C_32
                            x       y       z     vdW  Elec       q    Type
                         _______ _______ _______ _____ _____    ______ ____

>  <TORSDO>
F 3

$$$$
=
 OpenBabel10272413223D

 32 36  0  0  1  0  0  0  0  0999 V2000
  191.2380  176.7170  137.9240 C   0  0  0  0  0  0  0  0  0  0  0  0
  188.8790  178.0940  142.2180 C   0  0  1  0  0  3  0  0  0  0  0  0
  191.5650  176.6870  146.0130 C   0  0  0  0  0  3  0  0  0  0  0  0
  190.4700  176.8300  146.8700 C   0  0  0  0  0  3  0  0  0  0  0  0
  186.3090  178.5150  142.6170 C   0  0  2  0  0  3  0  0  0  0  0  0
  185.3190  178.8410  143.7440 C   0  0  2  0  0  3  0  0  0  0  0  0
  189.4030  177.5490  139.8820 C   0  0  0  0  0  0  0  0  0  0  0  0
  191.0770  177.0240  141.7130 C   0  0  0  0  0  2  0  0  0  0  0  0
  191.5870  176.6680  139.2810 C   0  0  0  0  0  3  0  0  0  0  0  0
  191.3840  176.7340  144.6270 C   0  0  0  0  0  3  0  0  0  0  0  0
  189.8360  176.9510  142.6050 C   0  0  1  0  0  3  0  0  0  0  0  0
  190.1020  176.9350  144.0930 C   0  0  0  0  0  0  0  0  0  0  0  0
  187.6420  177.2440  144.3390 C   0  0  1  0  0  3  0  0  0  0  0  0
  189.9660  177.1790  137.5570 C   0  0  0  0  0  3  0  0  0  0  0  0
  190.6760  177.0690  140.2620 C   0  0  0  0  0  0  0  0  0  0  0  0
  184.8500  180.2070  143.5830 N   0  0  0  0  0  1  0  0  0  0  0  0
  189.0530  177.5930  138.5300 C   0  0  0  0  0  3  0  0  0  0  0  0
  189.1880  177.0160  146.3460 C   0  0  0  0  0  3  0  0  0  0  0  0
  189.0010  177.0690  144.9590 C   0  0  0  0  0  0  0  0  0  0  0  0
  186.5880  177.4060  145.2840 O   0  0  0  0  0  0  0  0  0  0  0  0
  188.4820  177.9590  140.8540 O   0  0  0  0  0  0  0  0  0  0  0  0
  185.8720  177.3770  141.9360 O   0  0  0  0  0  1  0  0  0  0  0  0
  187.6990  178.2830  143.2000 C   0  0  1  0  0  3  0  0  0  0  0  0
  185.9420  178.6580  145.1490 C   0  0  2  0  0  3  0  0  0  0  0  0
  191.7880  175.7330  135.8370 O   0  0  0  0  0  0  0  0  0  0  0  0
  193.6020  176.5000  137.0910 N   0  0  0  0  0  2  0  0  0  0  0  0
  192.2020  176.2870  136.8940 C   0  0  0  0  0  0  0  0  0  0  0  0
  194.5570  176.1050  136.1430 C   0  0  0  0  0  0  0  0  0  0  0  0
  195.3460  175.7810  135.3610 N   0  0  0  0  0  0  0  0  0  0  0  0
  184.9070  178.8030  146.2160 C   0  0  0  0  0  0  0  0  0  0  0  0
  185.2610  178.9070  147.4190 O   0  0  0  0  0  0  0  0  0  0  0  0
  183.5230  178.8330  145.8800 N   0  0  0  0  0  1  0  0  0  0  0  0
  1  9  1  0  0  0  0
  2 21  1  6  0  0  0
  2 11  1  0  0  0  0
  2 23  1  0  0  0  0
  3  4  1  0  0  0  0
  5 22  1  1  0  0  0
  5 23  1  0  0  0  0
  5  6  1  0  0  0  0
  6 16  1  6  0  0  0
  6 24  1  0  0  0  0
  7 15  1  0  0  0  0
  7 21  1  0  0  0  0
  9 15  2  0  0  0  0
 10  3  2  0  0  0  0
 11  8  1  6  0  0  0
 11 12  1  0  0  0  0
 12 10  1  0  0  0  0
 12 19  2  0  0  0  0
 13 19  1  1  0  0  0
 13 20  1  0  0  0  0
 14  1  2  0  0  0  0
 14 17  1  0  0  0  0
 15  8  1  0  0  0  0
 17  7  2  0  0  0  0
 18  4  2  0  0  0  0
 19 18  1  0  0  0  0
 23 13  1  0  0  0  0
 24 20  1  0  0  0  0
 24 30  1  0  0  0  0
 25 27  2  0  0  0  0
 27 26  1  0  0  0  0
 27  1  1  0  0  0  0
 28 26  1  0  0  0  0
 29 28  3  0  0  0  0
 30 31  2  0  0  0  0
 32 30  1  0  0  0  0
M  END
>  <MODEL>
4

>  <REMARK>
 VINA RESULT:      -9.2      4.023      7.251
  Name = 
  3 active torsions:
  status: ('A' for Active; 'I' for Inactive)
    1  A    between atoms: C_1  and  N_20
    2  A    between atoms: C_2  and  C_24
    3  A    between atoms: C_11  and  C_32
                            x       y       z     vdW  Elec       q    Type
                         _______ _______ _______ _____ _____    ______ ____

>  <TORSDO>
F 3

$$$$
=
 OpenBabel10272413223D

 32 36  0  0  1  0  0  0  0  0999 V2000
  182.8010  178.8130  142.0880 C   0  0  0  0  0  0  0  0  0  0  0  0
  187.3860  178.3470  144.2470 C   0  0  1  0  0  3  0  0  0  0  0  0
  190.6730  177.4440  140.7870 C   0  0  0  0  0  3  0  0  0  0  0  0
  191.5860  176.9860  141.7420 C   0  0  0  0  0  3  0  0  0  0  0  0
  187.9740  177.6450  146.7180 C   0  0  2  0  0  3  0  0  0  0  0  0
  189.1860  177.3460  147.6120 C   0  0  2  0  0  3  0  0  0  0  0  0
  184.9670  178.4870  143.8470 C   0  0  0  0  0  0  0  0  0  0  0  0
  186.5710  178.3370  141.8880 C   0  0  0  0  0  2  0  0  0  0  0  0
  184.1000  178.6590  141.5840 C   0  0  0  0  0  3  0  0  0  0  0  0
  189.3390  177.6670  141.1410 C   0  0  0  0  0  3  0  0  0  0  0  0
  187.4770  177.6230  142.8920 C   0  0  1  0  0  3  0  0  0  0  0  0
  188.9150  177.4420  142.4590 C   0  0  0  0  0  0  0  0  0  0  0  0
  189.3250  176.7100  144.8060 C   0  0  1  0  0  3  0  0  0  0  0  0
  182.5960  178.7970  143.4750 C   0  0  0  0  0  3  0  0  0  0  0  0
  185.1820  178.4850  142.4510 C   0  0  0  0  0  0  0  0  0  0  0  0
  189.3420  178.4230  148.5750 N   0  0  0  0  0  1  0  0  0  0  0  0
  183.6730  178.6340  144.3510 C   0  0  0  0  0  3  0  0  0  0  0  0
  191.1690  176.7460  143.0530 C   0  0  0  0  0  3  0  0  0  0  0  0
  189.8350  176.9720  143.4150 C   0  0  0  0  0  0  0  0  0  0  0  0
  190.3260  176.2700  145.7190 O   0  0  0  0  0  0  0  0  0  0  0  0
  186.0430  178.3180  144.7280 O   0  0  0  0  0  0  0  0  0  0  0  0
  187.0830  176.5720  146.7750 O   0  0  0  0  0  1  0  0  0  0  0  0
  188.4340  177.8760  145.2820 C   0  0  1  0  0  3  0  0  0  0  0  0
  190.4910  177.1700  146.7990 C   0  0  2  0  0  3  0  0  0  0  0  0
  180.4830  178.9850  141.6170 O   0  0  0  0  0  0  0  0  0  0  0  0
  181.8960  179.1720  139.7690 N   0  0  0  0  0  2  0  0  0  0  0  0
  181.6630  178.9910  141.1680 C   0  0  0  0  0  0  0  0  0  0  0  0
  180.8470  179.3410  138.8540 C   0  0  0  0  0  0  0  0  0  0  0  0
  179.9820  179.4810  138.0970 N   0  0  0  0  0  0  0  0  0  0  0  0
  191.6070  176.7000  147.6730 C   0  0  0  0  0  0  0  0  0  0  0  0
  192.0330  177.4410  148.5950 O   0  0  0  0  0  0  0  0  0  0  0  0
  192.1850  175.4130  147.4740 N   0  0  0  0  0  1  0  0  0  0  0  0
  1 14  1  0  0  0  0
  2 21  1  1  0  0  0
  2 23  1  0  0  0  0
  3 10  2  0  0  0  0
  3  4  1  0  0  0  0
  4 18  2  0  0  0  0
  5 22  1  6  0  0  0
  5  6  1  0  0  0  0
  6 16  1  1  0  0  0
  7 17  1  0  0  0  0
  7 21  1  0  0  0  0
  8 15  1  0  0  0  0
  9  1  2  0  0  0  0
  9 15  1  0  0  0  0
 10 12  1  0  0  0  0
 11  8  1  6  0  0  0
 11  2  1  0  0  0  0
 12 11  1  0  0  0  0
 12 19  2  0  0  0  0
 13 19  1  6  0  0  0
 13 23  1  0  0  0  0
 13 20  1  0  0  0  0
 14 17  2  0  0  0  0
 15  7  2  0  0  0  0
 18 19  1  0  0  0  0
 20 24  1  0  0  0  0
 23  5  1  0  0  0  0
 24  6  1  0  0  0  0
 24 30  1  0  0  0  0
 26 27  1  0  0  0  0
 27 25  2  0  0  0  0
 27  1  1  0  0  0  0
 28 26  1  0  0  0  0
 29 28  3  0  0  0  0
 30 31  2  0  0  0  0
 32 30  1  0  0  0  0
M  END
>  <MODEL>
5

>  <REMARK>
 VINA RESULT:      -9.0      1.974      8.704
  Name = 
  3 active torsions:
  status: ('A' for Active; 'I' for Inactive)
    1  A    between atoms: C_1  and  N_20
    2  A    between atoms: C_2  and  C_24
    3  A    between atoms: C_11  and  C_32
                            x       y       z     vdW  Elec       q    Type
                         _______ _______ _______ _____ _____    ______ ____

>  <TORSDO>
F 3

$$$$
=
 OpenBabel10272413223D

 32 36  0  0  1  0  0  0  0  0999 V2000
  187.6490  177.9090  138.3670 C   0  0  0  0  0  0  0  0  0  0  0  0
  188.9660  176.7280  143.1390 C   0  0  1  0  0  3  0  0  0  0  0  0
  185.5570  178.3920  146.1730 C   0  0  0  0  0  3  0  0  0  0  0  0
  186.4330  178.2770  147.2570 C   0  0  0  0  0  3  0  0  0  0  0  0
  191.3720  176.2820  144.1150 C   0  0  2  0  0  3  0  0  0  0  0  0
  192.0810  176.0000  145.4490 C   0  0  2  0  0  3  0  0  0  0  0  0
  188.9840  177.1520  140.7200 C   0  0  0  0  0  0  0  0  0  0  0  0
  186.9660  177.8090  142.1090 C   0  0  0  0  0  2  0  0  0  0  0  0
  187.0130  178.0390  139.6100 C   0  0  0  0  0  3  0  0  0  0  0  0
  186.0360  178.2650  144.8650 C   0  0  0  0  0  3  0  0  0  0  0  0
  187.9830  177.9080  143.2480 C   0  0  1  0  0  3  0  0  0  0  0  0
  187.3970  178.0110  144.6380 C   0  0  0  0  0  0  0  0  0  0  0  0
  189.7340  177.6700  145.4350 C   0  0  1  0  0  3  0  0  0  0  0  0
  188.9560  177.4040  138.3130 C   0  0  0  0  0  3  0  0  0  0  0  0
  187.6740  177.6760  140.7860 C   0  0  0  0  0  0  0  0  0  0  0  0
  192.5320  174.6190  145.4630 N   0  0  0  0  0  1  0  0  0  0  0  0
  189.6210  177.0280  139.4840 C   0  0  0  0  0  3  0  0  0  0  0  0
  187.7920  178.0380  147.0380 C   0  0  0  0  0  3  0  0  0  0  0  0
  188.2780  177.9050  145.7310 C   0  0  0  0  0  0  0  0  0  0  0  0
  190.5490  177.5410  146.5960 O   0  0  0  0  0  0  0  0  0  0  0  0
  189.6570  176.7800  141.8910 O   0  0  0  0  0  0  0  0  0  0  0  0
  191.9820  177.3720  143.4920 O   0  0  0  0  0  1  0  0  0  0  0  0
  189.8960  176.5710  144.3650 C   0  0  1  0  0  3  0  0  0  0  0  0
  191.1710  176.2720  146.6700 C   0  0  2  0  0  3  0  0  0  0  0  0
  187.1360  179.4460  136.6350 O   0  0  0  0  0  0  0  0  0  0  0  0
  186.0600  177.3790  136.4910 N   0  0  0  0  0  2  0  0  0  0  0  0
  186.9490  178.2990  137.1300 C   0  0  0  0  0  0  0  0  0  0  0  0
  185.3680  177.7050  135.3160 C   0  0  0  0  0  0  0  0  0  0  0  0
  184.7950  177.9730  134.3460 N   0  0  0  0  0  0  0  0  0  0  0  0
  191.9410  176.1670  147.9450 C   0  0  0  0  0  0  0  0  0  0  0  0
  192.3220  175.0410  148.3550 O   0  0  0  0  0  0  0  0  0  0  0  0
  192.2560  177.3370  148.6960 N   0  0  0  0  0  1  0  0  0  0  0  0
  1  9  1  0  0  0  0
  2 21  1  6  0  0  0
  2 11  1  0  0  0  0
  2 23  1  0  0  0  0
  3  4  1  0  0  0  0
  5 22  1  1  0  0  0
  5 23  1  0  0  0  0
  5  6  1  0  0  0  0
  6 16  1  6  0  0  0
  6 24  1  0  0  0  0
  7 15  1  0  0  0  0
  7 21  1  0  0  0  0
  9 15  2  0  0  0  0
 10  3  2  0  0  0  0
 11  8  1  6  0  0  0
 11 12  1  0  0  0  0
 12 10  1  0  0  0  0
 12 19  2  0  0  0  0
 13 19  1  1  0  0  0
 13 20  1  0  0  0  0
 14  1  2  0  0  0  0
 14 17  1  0  0  0  0
 15  8  1  0  0  0  0
 17  7  2  0  0  0  0
 18  4  2  0  0  0  0
 19 18  1  0  0  0  0
 20 24  1  0  0  0  0
 23 13  1  0  0  0  0
 24 30  1  0  0  0  0
 25 27  2  0  0  0  0
 26 27  1  0  0  0  0
 27  1  1  0  0  0  0
 28 26  1  0  0  0  0
 29 28  3  0  0  0  0
 30 31  2  0  0  0  0
 30 32  1  0  0  0  0
M  END
>  <MODEL>
6

>  <REMARK>
 VINA RESULT:      -8.1      2.525      9.353
  Name = 
  3 active torsions:
  status: ('A' for Active; 'I' for Inactive)
    1  A    between atoms: C_1  and  N_20
    2  A    between atoms: C_2  and  C_24
    3  A    between atoms: C_11  and  C_32
                            x       y       z     vdW  Elec       q    Type
                         _______ _______ _______ _____ _____    ______ ____

>  <TORSDO>
F 3

$$$$
=
 OpenBabel10272413223D

 32 36  0  0  1  0  0  0  0  0999 V2000
  183.4900  179.3800  139.1970 C   0  0  0  0  0  0  0  0  0  0  0  0
  186.6960  177.5560  142.7030 C   0  0  1  0  0  3  0  0  0  0  0  0
  184.8130  178.3310  147.1140 C   0  0  0  0  0  3  0  0  0  0  0  0
  186.0620  178.1250  147.7080 C   0  0  0  0  0  3  0  0  0  0  0  0
  189.3000  177.2000  142.5210 C   0  0  2  0  0  3  0  0  0  0  0  0
  190.5040  176.7730  143.3730 C   0  0  2  0  0  3  0  0  0  0  0  0
  185.6990  178.3790  140.6160 C   0  0  0  0  0  0  0  0  0  0  0  0
  184.4230  178.5840  142.7980 C   0  0  0  0  0  2  0  0  0  0  0  0
  183.4240  179.2340  140.5890 C   0  0  0  0  0  3  0  0  0  0  0  0
  184.7100  178.4740  145.7270 C   0  0  0  0  0  3  0  0  0  0  0  0
  185.8180  178.5940  143.4260 C   0  0  1  0  0  3  0  0  0  0  0  0
  185.8590  178.4020  144.9260 C   0  0  0  0  0  0  0  0  0  0  0  0
  188.3240  178.1730  144.6320 C   0  0  1  0  0  3  0  0  0  0  0  0
  184.6690  179.0270  138.5230 C   0  0  0  0  0  3  0  0  0  0  0  0
  184.5220  178.7480  141.3040 C   0  0  0  0  0  0  0  0  0  0  0  0
  190.9530  175.4620  142.9350 N   0  0  0  0  0  1  0  0  0  0  0  0
  185.7680  178.5290  139.2290 C   0  0  0  0  0  3  0  0  0  0  0  0
  187.2140  178.0670  146.9190 C   0  0  0  0  0  3  0  0  0  0  0  0
  187.1160  178.2050  145.5290 C   0  0  0  0  0  0  0  0  0  0  0  0
  189.5500  177.9350  145.3170 O   0  0  0  0  0  0  0  0  0  0  0  0
  186.8050  177.8870  141.3190 O   0  0  0  0  0  0  0  0  0  0  0  0
  189.5700  178.4360  141.9300 O   0  0  0  0  0  1  0  0  0  0  0  0
  188.0530  177.2910  143.3950 C   0  0  1  0  0  3  0  0  0  0  0  0
  190.1760  176.7420  144.8850 C   0  0  2  0  0  3  0  0  0  0  0  0
  181.6350  179.1140  137.7430 O   0  0  0  0  0  0  0  0  0  0  0  0
  181.9930  181.2850  138.5210 N   0  0  0  0  0  2  0  0  0  0  0  0
  182.3300  179.8980  138.4480 C   0  0  0  0  0  0  0  0  0  0  0  0
  180.9030  181.8260  137.8250 C   0  0  0  0  0  0  0  0  0  0  0  0
  180.0030  182.2730  137.2500 N   0  0  0  0  0  0  0  0  0  0  0  0
  191.4080  176.5040  145.6950 C   0  0  0  0  0  0  0  0  0  0  0  0
  191.9260  177.4530  146.3370 O   0  0  0  0  0  0  0  0  0  0  0  0
  191.9940  175.2070  145.7530 N   0  0  0  0  0  1  0  0  0  0  0  0
  1  9  1  0  0  0  0
  2 21  1  6  0  0  0
  2 23  1  0  0  0  0
  2 11  1  0  0  0  0
  3  4  1  0  0  0  0
  5 22  1  1  0  0  0
  5  6  1  0  0  0  0
  5 23  1  0  0  0  0
  6 16  1  6  0  0  0
  6 24  1  0  0  0  0
  7 15  1  0  0  0  0
  7 21  1  0  0  0  0
  9 15  2  0  0  0  0
 10  3  2  0  0  0  0
 11  8  1  6  0  0  0
 11 12  1  0  0  0  0
 12 19  2  0  0  0  0
 12 10  1  0  0  0  0
 13 20  1  1  0  0  0
 13 19  1  0  0  0  0
 14  1  2  0  0  0  0
 14 17  1  0  0  0  0
 15  8  1  0  0  0  0
 17  7  2  0  0  0  0
 18  4  2  0  0  0  0
 19 18  1  0  0  0  0
 23 13  1  0  0  0  0
 24 20  1  0  0  0  0
 24 30  1  0  0  0  0
 25 27  2  0  0  0  0
 27 26  1  0  0  0  0
 27  1  1  0  0  0  0
 28 26  1  0  0  0  0
 29 28  3  0  0  0  0
 30 32  1  0  0  0  0
 30 31  2  0  0  0  0
M  END
>  <MODEL>
7

>  <REMARK>
 VINA RESULT:      -8.0      2.509      9.552
  Name = 
  3 active torsions:
  status: ('A' for Active; 'I' for Inactive)
    1  A    between atoms: C_1  and  N_20
    2  A    between atoms: C_2  and  C_24
    3  A    between atoms: C_11  and  C_32
                            x       y       z     vdW  Elec       q    Type
                         _______ _______ _______ _____ _____    ______ ____

>  <TORSDO>
F 3

$$$$
=
 OpenBabel10272413223D

 32 36  0  0  1  0  0  0  0  0999 V2000
  181.7900  178.9550  139.7610 C   0  0  0  0  0  0  0  0  0  0  0  0
  185.4120  178.9770  143.3360 C   0  0  1  0  0  3  0  0  0  0  0  0
  189.6060  177.5540  141.3400 C   0  0  0  0  0  3  0  0  0  0  0  0
  190.1440  177.2920  142.6030 C   0  0  0  0  0  3  0  0  0  0  0  0
  185.1450  178.7330  145.9460 C   0  0  2  0  0  3  0  0  0  0  0  0
  185.9910  178.6220  147.2230 C   0  0  2  0  0  3  0  0  0  0  0  0
  183.2590  178.9910  142.1560 C   0  0  0  0  0  0  0  0  0  0  0  0
  185.4030  178.5360  140.8790 C   0  0  0  0  0  2  0  0  0  0  0  0
  183.1760  178.7440  139.7400 C   0  0  0  0  0  3  0  0  0  0  0  0
  188.2380  177.8060  141.1980 C   0  0  0  0  0  3  0  0  0  0  0  0
  185.9100  178.0290  142.2310 C   0  0  1  0  0  3  0  0  0  0  0  0
  187.4030  177.8070  142.3250 C   0  0  0  0  0  0  0  0  0  0  0  0
  187.0060  177.5070  144.7670 C   0  0  1  0  0  3  0  0  0  0  0  0
  181.1470  179.1780  140.9880 C   0  0  0  0  0  3  0  0  0  0  0  0
  183.9130  178.7490  140.9270 C   0  0  0  0  0  0  0  0  0  0  0  0
  185.8670  179.8540  147.9830 N   0  0  0  0  0  1  0  0  0  0  0  0
  181.8780  179.1960  142.1790 C   0  0  0  0  0  3  0  0  0  0  0  0
  189.3180  177.2760  143.7300 C   0  0  0  0  0  3  0  0  0  0  0  0
  187.9470  177.5330  143.5940 C   0  0  0  0  0  0  0  0  0  0  0  0
  187.6420  177.2570  146.0170 O   0  0  0  0  0  0  0  0  0  0  0  0
  183.9850  179.0030  143.3530 O   0  0  0  0  0  0  0  0  0  0  0  0
  184.2450  177.6670  145.8960 O   0  0  0  0  0  1  0  0  0  0  0  0
  186.0520  178.7190  144.7200 C   0  0  1  0  0  3  0  0  0  0  0  0
  187.4810  178.3360  146.9200 C   0  0  2  0  0  3  0  0  0  0  0  0
  179.9870  178.2200  138.4060 O   0  0  0  0  0  0  0  0  0  0  0  0
  181.4340  179.7530  137.4020 N   0  0  0  0  0  2  0  0  0  0  0  0
  181.0180  178.9440  138.5060 C   0  0  0  0  0  0  0  0  0  0  0  0
  180.7350  179.7730  136.1870 C   0  0  0  0  0  0  0  0  0  0  0  0
  180.1590  179.7910  135.1830 N   0  0  0  0  0  0  0  0  0  0  0  0
  188.2380  178.0510  148.1760 C   0  0  0  0  0  0  0  0  0  0  0  0
  187.7130  177.3470  149.0760 O   0  0  0  0  0  0  0  0  0  0  0  0
  189.5550  178.5640  148.3560 N   0  0  0  0  0  1  0  0  0  0  0  0
  1 14  1  0  0  0  0
  2 21  1  1  0  0  0
  2 23  1  0  0  0  0
  3  4  1  0  0  0  0
  4 18  2  0  0  0  0
  5 22  1  6  0  0  0
  5  6  1  0  0  0  0
  6 16  1  6  0  0  0
  7 17  1  0  0  0  0
  7 21  1  0  0  0  0
  8 15  1  0  0  0  0
  9  1  2  0  0  0  0
  9 15  1  0  0  0  0
 10  3  2  0  0  0  0
 10 12  1  0  0  0  0
 11  8  1  6  0  0  0
 11 12  1  0  0  0  0
 11  2  1  0  0  0  0
 12 19  2  0  0  0  0
 13 19  1  6  0  0  0
 13 20  1  0  0  0  0
 14 17  2  0  0  0  0
 15  7  2  0  0  0  0
 19 18  1  0  0  0  0
 20 24  1  0  0  0  0
 23 13  1  0  0  0  0
 23  5  1  0  0  0  0
 24  6  1  0  0  0  0
 24 30  1  0  0  0  0
 25 27  2  0  0  0  0
 26 27  1  0  0  0  0
 27  1  1  0  0  0  0
 28 26  1  0  0  0  0
 29 28  3  0  0  0  0
 30 32  1  0  0  0  0
 30 31  2  0  0  0  0
M  END
>  <MODEL>
8

>  <REMARK>
 VINA RESULT:      -7.5      2.756      9.230
  Name = 
  3 active torsions:
  status: ('A' for Active; 'I' for Inactive)
    1  A    between atoms: C_1  and  N_20
    2  A    between atoms: C_2  and  C_24
    3  A    between atoms: C_11  and  C_32
                            x       y       z     vdW  Elec       q    Type
                         _______ _______ _______ _____ _____    ______ ____

>  <TORSDO>
F 3

$$$$
=
 OpenBabel10272413223D

 32 36  0  0  1  0  0  0  0  0999 V2000
  191.9700  176.5610  138.0260 C   0  0  0  0  0  0  0  0  0  0  0  0
  187.9020  178.3140  140.5320 C   0  0  1  0  0  3  0  0  0  0  0  0
  188.5860  177.6650  145.2970 C   0  0  0  0  0  3  0  0  0  0  0  0
  187.2190  177.8330  145.5390 C   0  0  0  0  0  3  0  0  0  0  0  0
  185.4270  178.5730  139.6670 C   0  0  2  0  0  3  0  0  0  0  0  0
  184.0290  178.9680  140.1650 C   0  0  2  0  0  3  0  0  0  0  0  0
  189.4370  177.5000  138.7960 C   0  0  0  0  0  0  0  0  0  0  0  0
  190.1020  177.3690  141.2400 C   0  0  0  0  0  2  0  0  0  0  0  0
  191.6640  176.7270  139.3840 C   0  0  0  0  0  3  0  0  0  0  0  0
  189.0540  177.5070  143.9890 C   0  0  0  0  0  3  0  0  0  0  0  0
  188.5920  177.3180  141.4820 C   0  0  1  0  0  3  0  0  0  0  0  0
  188.1530  177.5270  142.9140 C   0  0  0  0  0  0  0  0  0  0  0  0
  185.8460  177.6640  141.9810 C   0  0  1  0  0  3  0  0  0  0  0  0
  190.9990  176.8620  137.0600 C   0  0  0  0  0  3  0  0  0  0  0  0
  190.4030  177.1820  139.7770 C   0  0  0  0  0  0  0  0  0  0  0  0
  183.6700  180.2560  139.5960 N   0  0  0  0  0  1  0  0  0  0  0  0
  189.7380  177.3290  137.4430 C   0  0  0  0  0  3  0  0  0  0  0  0
  186.3140  177.8390  144.4760 C   0  0  0  0  0  3  0  0  0  0  0  0
  186.7760  177.6870  143.1620 C   0  0  0  0  0  0  0  0  0  0  0  0
  184.4760  177.8660  142.3160 O   0  0  0  0  0  0  0  0  0  0  0  0
  188.1700  177.9610  139.1750 O   0  0  0  0  0  0  0  0  0  0  0  0
  185.3610  177.3210  139.0530 O   0  0  0  0  0  1  0  0  0  0  0  0
  186.4030  178.5380  140.8380 C   0  0  1  0  0  3  0  0  0  0  0  0
  183.9480  179.0310  141.7080 C   0  0  2  0  0  3  0  0  0  0  0  0
  193.8930  175.2010  138.3130 O   0  0  0  0  0  0  0  0  0  0  0  0
  193.9210  176.5920  136.4380 N   0  0  0  0  0  2  0  0  0  0  0  0
  193.3010  176.0750  137.6190 C   0  0  0  0  0  0  0  0  0  0  0  0
  195.1870  176.1650  136.0120 C   0  0  0  0  0  0  0  0  0  0  0  0
  196.2310  175.8120  135.6590 N   0  0  0  0  0  0  0  0  0  0  0  0
  182.5400  179.2350  142.1630 C   0  0  0  0  0  0  0  0  0  0  0  0
  182.3150  179.7620  143.2820 O   0  0  0  0  0  0  0  0  0  0  0  0
  181.4500  178.8440  141.3320 N   0  0  0  0  0  1  0  0  0  0  0  0
  1  9  1  0  0  0  0
  2 21  1  6  0  0  0
  2 23  1  0  0  0  0
  2 11  1  0  0  0  0
  3  4  1  0  0  0  0
  5 22  1  1  0  0  0
  5  6  1  0  0  0  0
  5 23  1  0  0  0  0
  6 16  1  6  0  0  0
  6 24  1  0  0  0  0
  7 21  1  0  0  0  0
  7 15  1  0  0  0  0
  9 15  2  0  0  0  0
 10  3  2  0  0  0  0
 11  8  1  1  0  0  0
 11 12  1  0  0  0  0
 12 19  2  0  0  0  0
 12 10  1  0  0  0  0
 13 20  1  1  0  0  0
 13 19  1  0  0  0  0
 14 17  1  0  0  0  0
 14  1  2  0  0  0  0
 15  8  1  0  0  0  0
 17  7  2  0  0  0  0
 18  4  2  0  0  0  0
 19 18  1  0  0  0  0
 23 13  1  0  0  0  0
 24 30  1  0  0  0  0
 24 20  1  0  0  0  0
 26 27  1  0  0  0  0
 27  1  1  0  0  0  0
 27 25  2  0  0  0  0
 28 26  1  0  0  0  0
 29 28  3  0  0  0  0
 30 31  2  0  0  0  0
 32 30  1  0  0  0  0
M  END
>  <MODEL>
9

>  <REMARK>
 VINA RESULT:      -7.3      4.293      6.758
  Name = 
  3 active torsions:
  status: ('A' for Active; 'I' for Inactive)
    1  A    between atoms: C_1  and  N_20
    2  A    between atoms: C_2  and  C_24
    3  A    between atoms: C_11  and  C_32
                            x       y       z     vdW  Elec       q    Type
                         _______ _______ _______ _____ _____    ______ ____

>  <TORSDO>
F 3

$$$$
