=
 OpenBabel10272401123D

 27 32  0  0  1  0  0  0  0  0999 V2000
  187.6810  177.6780  143.8440 C   0  0  2  0  0  3  0  0  0  0  0  0
  187.4800  177.3910  142.3520 C   0  0  1  0  0  3  0  0  0  0  0  0
  189.7310  176.7580  142.9570 C   0  0  2  0  0  0  0  0  0  0  0  0
  188.6960  178.5610  138.6160 N   0  0  0  0  0  0  0  0  0  0  0  0
  189.8120  176.9540  137.1660 C   0  0  0  0  0  1  0  0  0  0  0  0
  186.7590  178.4880  141.5980 C   0  0  0  0  0  3  0  0  0  0  0  0
  190.7410  177.2060  139.7410 S   0  0  0  0  0  0  0  0  0  0  0  0
  191.2540  178.0700  145.0300 C   0  0  2  0  0  3  0  0  0  0  0  0
  190.4480  175.4370  142.8440 C   0  0  0  0  0  2  0  0  0  0  0  0
  191.4520  179.2910  144.3830 O   0  0  0  0  0  1  0  0  0  0  0  0
  189.1790  177.4240  140.5640 C   0  0  2  0  0  3  0  0  0  0  0  0
  189.9940  177.9960  138.2530 C   0  0  2  0  0  3  0  0  0  0  0  0
  188.2700  178.2210  139.7810 C   0  0  0  0  0  0  0  0  0  0  0  0
  188.9900  176.9820  144.2710 C   0  0  1  0  0  3  0  0  0  0  0  0
  188.8510  177.1180  141.8240 C   0  0  2  0  0  3  0  0  0  0  0  0
  191.8970  176.9320  144.2350 C   0  0  0  0  0  2  0  0  0  0  0  0
  187.1140  178.8160  140.3860 N   0  0  0  0  0  0  0  0  0  0  0  0
  189.2390  178.2980  146.2210 O   0  0  0  0  0  0  0  0  0  0  0  0
  189.7850  177.8280  145.2360 C   0  0  0  0  0  0  0  0  0  0  0  0
  191.2500  176.7430  142.8640 C   0  0  2  0  0  3  0  0  0  0  0  0
  186.4820  177.2390  144.6910 C   0  0  0  0  0  2  0  0  0  0  0  0
  182.8690  179.3940  143.8190 C   0  0  0  0  0  3  0  0  0  0  0  0
  185.2290  177.9990  144.3840 C   0  0  0  0  0  0  0  0  0  0  0  0
  184.6990  177.9850  143.0880 C   0  0  0  0  0  3  0  0  0  0  0  0
  183.5200  178.6820  142.8070 C   0  0  0  0  0  3  0  0  0  0  0  0
  183.3970  179.4080  145.1130 C   0  0  0  0  0  3  0  0  0  0  0  0
  184.5750  178.7120  145.3960 C   0  0  0  0  0  3  0  0  0  0  0  0
  1 14  1  0  0  0  0
  1 21  1  1  0  0  0
  2  6  1  6  0  0  0
  2  1  1  0  0  0  0
  3  9  1  6  0  0  0
  3 14  1  0  0  0  0
  4 13  2  0  0  0  0
  8 10  1  6  0  0  0
  8 19  1  0  0  0  0
  9 20  1  0  0  0  0
 11  7  1  1  0  0  0
 11 15  1  0  0  0  0
 12  5  1  6  0  0  0
 12  4  1  0  0  0  0
 12  7  1  0  0  0  0
 13 17  1  0  0  0  0
 13 11  1  0  0  0  0
 14 19  1  1  0  0  0
 15  2  1  0  0  0  0
 15  3  1  0  0  0  0
 16  8  1  0  0  0  0
 17  6  2  0  0  0  0
 19 18  2  0  0  0  0
 20  3  1  0  0  0  0
 20 16  1  0  0  0  0
 22 26  1  0  0  0  0
 23 21  1  0  0  0  0
 23 27  1  0  0  0  0
 24 23  2  0  0  0  0
 25 24  1  0  0  0  0
 25 22  2  0  0  0  0
 26 27  2  0  0  0  0
M  END
>  <MODEL>
1

>  <REMARK>
 VINA RESULT:      -9.5      0.000      0.000
  Name = 
  2 active torsions:
  status: ('A' for Active; 'I' for Inactive)
    1  A    between atoms: C_1  and  C_15
    2  A    between atoms: C_9  and  C_15
                            x       y       z     vdW  Elec       q    Type
                         _______ _______ _______ _____ _____    ______ ____

>  <TORSDO>
F 2

$$$$
=
 OpenBabel10272401123D

 27 32  0  0  1  0  0  0  0  0999 V2000
  187.7710  177.6540  143.7490 C   0  0  2  0  0  3  0  0  0  0  0  0
  187.3580  177.3720  142.3000 C   0  0  1  0  0  3  0  0  0  0  0  0
  189.7410  177.0290  142.4990 C   0  0  2  0  0  0  0  0  0  0  0  0
  187.7690  178.7660  138.4660 N   0  0  0  0  0  0  0  0  0  0  0  0
  188.8180  177.3480  136.7870 C   0  0  0  0  0  1  0  0  0  0  0  0
  186.3890  178.3800  141.7210 C   0  0  0  0  0  3  0  0  0  0  0  0
  190.1290  177.6690  139.1820 S   0  0  0  0  0  0  0  0  0  0  0  0
  191.4140  178.4880  144.3450 C   0  0  2  0  0  3  0  0  0  0  0  0
  190.5890  175.8160  142.2140 C   0  0  0  0  0  2  0  0  0  0  0  0
  191.3450  179.7370  143.7260 O   0  0  0  0  0  1  0  0  0  0  0  0
  188.7140  177.6640  140.2590 C   0  0  2  0  0  3  0  0  0  0  0  0
  189.0480  178.3830  137.8710 C   0  0  2  0  0  3  0  0  0  0  0  0
  187.5920  178.3500  139.6700 C   0  0  0  0  0  0  0  0  0  0  0  0
  189.2110  177.1270  143.9250 C   0  0  1  0  0  3  0  0  0  0  0  0
  188.6440  177.2920  141.5420 C   0  0  2  0  0  3  0  0  0  0  0  0
  192.0520  177.4600  143.4080 C   0  0  0  0  0  2  0  0  0  0  0  0
  186.4890  178.7760  140.4820 N   0  0  0  0  0  0  0  0  0  0  0  0
  189.6170  178.4260  145.8600 O   0  0  0  0  0  0  0  0  0  0  0  0
  190.0440  178.0510  144.7800 C   0  0  0  0  0  0  0  0  0  0  0  0
  191.2120  177.2150  142.1560 C   0  0  2  0  0  3  0  0  0  0  0  0
  186.7970  177.0440  144.7630 C   0  0  0  0  0  2  0  0  0  0  0  0
  186.8030  179.1060  148.5320 C   0  0  0  0  0  3  0  0  0  0  0  0
  186.7910  177.7560  146.0810 C   0  0  0  0  0  0  0  0  0  0  0  0
  187.5220  177.2450  147.1590 C   0  0  0  0  0  3  0  0  0  0  0  0
  187.5290  177.9200  148.3830 C   0  0  0  0  0  3  0  0  0  0  0  0
  186.0720  179.6180  147.4560 C   0  0  0  0  0  3  0  0  0  0  0  0
  186.0660  178.9440  146.2310 C   0  0  0  0  0  3  0  0  0  0  0  0
  1 14  1  0  0  0  0
  1 21  1  1  0  0  0
  2  6  1  6  0  0  0
  2  1  1  0  0  0  0
  3  9  1  6  0  0  0
  3 14  1  0  0  0  0
  4 13  2  0  0  0  0
  8 10  1  6  0  0  0
  8 19  1  0  0  0  0
 11  7  1  1  0  0  0
 11 15  1  0  0  0  0
 12  5  1  6  0  0  0
 12  4  1  0  0  0  0
 12  7  1  0  0  0  0
 13 11  1  0  0  0  0
 13 17  1  0  0  0  0
 14 19  1  1  0  0  0
 15  2  1  0  0  0  0
 15  3  1  0  0  0  0
 16  8  1  0  0  0  0
 17  6  2  0  0  0  0
 19 18  2  0  0  0  0
 20  9  1  0  0  0  0
 20  3  1  0  0  0  0
 20 16  1  0  0  0  0
 21 23  1  0  0  0  0
 23 27  2  0  0  0  0
 23 24  1  0  0  0  0
 24 25  2  0  0  0  0
 25 22  1  0  0  0  0
 26 22  2  0  0  0  0
 27 26  1  0  0  0  0
M  END
>  <MODEL>
2

>  <REMARK>
 VINA RESULT:      -9.1      1.496      2.296
  Name = 
  2 active torsions:
  status: ('A' for Active; 'I' for Inactive)
    1  A    between atoms: C_1  and  C_15
    2  A    between atoms: C_9  and  C_15
                            x       y       z     vdW  Elec       q    Type
                         _______ _______ _______ _____ _____    ______ ____

>  <TORSDO>
F 2

$$$$
=
 OpenBabel10272401123D

 27 32  0  0  1  0  0  0  0  0999 V2000
  188.5370  177.9010  140.9700 C   0  0  2  0  0  3  0  0  0  0  0  0
  187.5440  178.5780  141.9210 C   0  0  1  0  0  3  0  0  0  0  0  0
  189.5520  178.0520  143.1560 C   0  0  2  0  0  0  0  0  0  0  0  0
  185.2050  177.8890  145.2170 N   0  0  0  0  0  0  0  0  0  0  0  0
  185.6070  179.1630  147.2530 C   0  0  0  0  0  1  0  0  0  0  0  0
  186.1180  178.0870  141.7860 C   0  0  0  0  0  3  0  0  0  0  0  0
  187.7710  177.9670  146.0510 S   0  0  0  0  0  0  0  0  0  0  0  0
  191.2430  175.7890  142.5620 C   0  0  2  0  0  3  0  0  0  0  0  0
  190.4920  178.9390  143.9320 C   0  0  0  0  0  2  0  0  0  0  0  0
  190.3700  174.7800  142.9710 O   0  0  0  0  0  1  0  0  0  0  0  0
  187.3150  178.2420  144.3550 C   0  0  2  0  0  3  0  0  0  0  0  0
  185.9740  177.9240  146.4600 C   0  0  2  0  0  3  0  0  0  0  0  0
  185.8960  178.1010  144.1530 C   0  0  0  0  0  0  0  0  0  0  0  0
  189.9040  177.8670  141.6840 C   0  0  1  0  0  3  0  0  0  0  0  0
  188.1110  178.3630  143.2860 C   0  0  2  0  0  3  0  0  0  0  0  0
  191.5980  176.7000  143.7380 C   0  0  0  0  0  2  0  0  0  0  0  0
  185.3600  177.9260  142.8350 N   0  0  0  0  0  0  0  0  0  0  0  0
  190.7670  176.1630  140.2900 O   0  0  0  0  0  0  0  0  0  0  0  0
  190.6350  176.5710  141.4320 C   0  0  0  0  0  0  0  0  0  0  0  0
  190.3820  177.4500  144.2800 C   0  0  2  0  0  3  0  0  0  0  0  0
  188.6070  178.5980  139.6060 C   0  0  0  0  0  2  0  0  0  0  0  0
  186.6570  176.3710  136.4920 C   0  0  0  0  0  3  0  0  0  0  0  0
  187.9320  177.8290  138.5130 C   0  0  0  0  0  0  0  0  0  0  0  0
  188.6120  176.7960  137.8570 C   0  0  0  0  0  3  0  0  0  0  0  0
  187.9750  176.0680  136.8470 C   0  0  0  0  0  3  0  0  0  0  0  0
  185.9760  177.4010  137.1460 C   0  0  0  0  0  3  0  0  0  0  0  0
  186.6120  178.1300  138.1560 C   0  0  0  0  0  3  0  0  0  0  0  0
  1 21  1  6  0  0  0
  1 14  1  0  0  0  0
  1  2  1  0  0  0  0
  2  6  1  1  0  0  0
  2 15  1  0  0  0  0
  3 15  1  0  0  0  0
  3  9  1  1  0  0  0
  3 20  1  0  0  0  0
  4 12  1  0  0  0  0
  6 17  2  0  0  0  0
  7 12  1  0  0  0  0
  8 10  1  1  0  0  0
  8 16  1  0  0  0  0
  9 20  1  0  0  0  0
 11 13  1  6  0  0  0
 11  7  1  0  0  0  0
 12  5  1  6  0  0  0
 13  4  2  0  0  0  0
 14 19  1  1  0  0  0
 14  3  1  0  0  0  0
 15 11  1  0  0  0  0
 16 20  1  0  0  0  0
 17 13  1  0  0  0  0
 18 19  2  0  0  0  0
 19  8  1  0  0  0  0
 22 25  2  0  0  0  0
 22 26  1  0  0  0  0
 23 21  1  0  0  0  0
 24 23  2  0  0  0  0
 25 24  1  0  0  0  0
 26 27  2  0  0  0  0
 27 23  1  0  0  0  0
M  END
>  <MODEL>
3

>  <REMARK>
 VINA RESULT:      -8.9      2.712      5.745
  Name = 
  2 active torsions:
  status: ('A' for Active; 'I' for Inactive)
    1  A    between atoms: C_1  and  C_15
    2  A    between atoms: C_9  and  C_15
                            x       y       z     vdW  Elec       q    Type
                         _______ _______ _______ _____ _____    ______ ____

>  <TORSDO>
F 2

$$$$
=
 OpenBabel10272401123D

 27 32  0  0  1  0  0  0  0  0999 V2000
  185.5770  178.4030  139.3780 C   0  0  2  0  0  3  0  0  0  0  0  0
  186.5250  178.7230  140.5390 C   0  0  1  0  0  3  0  0  0  0  0  0
  187.8450  178.0250  138.6400 C   0  0  2  0  0  0  0  0  0  0  0  0
  189.1730  177.0010  143.1530 N   0  0  0  0  0  0  0  0  0  0  0  0
  191.5060  177.6990  143.1210 C   0  0  0  0  0  1  0  0  0  0  0  0
  186.0710  178.1880  141.8800 C   0  0  0  0  0  3  0  0  0  0  0  0
  190.3440  177.0300  140.7200 S   0  0  0  0  0  0  0  0  0  0  0  0
  186.9200  176.1340  136.6650 C   0  0  2  0  0  3  0  0  0  0  0  0
  188.9470  178.7310  137.8930 C   0  0  0  0  0  2  0  0  0  0  0  0
  186.9280  174.9920  137.4680 O   0  0  0  0  0  1  0  0  0  0  0  0
  188.7310  177.7230  141.0070 C   0  0  2  0  0  3  0  0  0  0  0  0
  190.4750  176.7510  142.5380 C   0  0  2  0  0  3  0  0  0  0  0  0
  188.3070  177.5430  142.3710 C   0  0  0  0  0  0  0  0  0  0  0  0
  186.4390  178.2720  138.1060 C   0  0  1  0  0  3  0  0  0  0  0  0
  187.8520  178.1860  140.1110 C   0  0  2  0  0  3  0  0  0  0  0  0
  188.3310  176.7130  136.5430 C   0  0  0  0  0  2  0  0  0  0  0  0
  186.9270  177.6950  142.7320 N   0  0  0  0  0  0  0  0  0  0  0  0
  184.7810  177.0760  136.9150 O   0  0  0  0  0  0  0  0  0  0  0  0
  185.9600  177.1480  137.2190 C   0  0  0  0  0  0  0  0  0  0  0  0
  188.8760  177.1990  137.8850 C   0  0  2  0  0  3  0  0  0  0  0  0
  184.4640  179.4470  139.2270 C   0  0  0  0  0  2  0  0  0  0  0  0
  180.5290  177.8300  139.8240 C   0  0  0  0  0  3  0  0  0  0  0  0
  183.0930  178.8880  139.4460 C   0  0  0  0  0  0  0  0  0  0  0  0
  181.9650  179.6840  139.2190 C   0  0  0  0  0  3  0  0  0  0  0  0
  180.6840  179.1560  139.4080 C   0  0  0  0  0  3  0  0  0  0  0  0
  181.6550  177.0330  140.0510 C   0  0  0  0  0  3  0  0  0  0  0  0
  182.9360  177.5600  139.8620 C   0  0  0  0  0  3  0  0  0  0  0  0
  1 21  1  6  0  0  0
  1  2  1  0  0  0  0
  2  6  1  1  0  0  0
  3  9  1  6  0  0  0
  3 15  1  0  0  0  0
  6 17  2  0  0  0  0
  7 12  1  0  0  0  0
  8 19  1  0  0  0  0
  8 10  1  1  0  0  0
 11  7  1  6  0  0  0
 11 13  1  0  0  0  0
 12  5  1  1  0  0  0
 12  4  1  0  0  0  0
 13 17  1  0  0  0  0
 13  4  2  0  0  0  0
 14 19  1  6  0  0  0
 14  3  1  0  0  0  0
 14  1  1  0  0  0  0
 15  2  1  0  0  0  0
 15 11  1  0  0  0  0
 16  8  1  0  0  0  0
 16 20  1  0  0  0  0
 18 19  2  0  0  0  0
 20  9  1  0  0  0  0
 20  3  1  0  0  0  0
 21 23  1  0  0  0  0
 22 26  1  0  0  0  0
 23 27  1  0  0  0  0
 24 25  1  0  0  0  0
 24 23  2  0  0  0  0
 25 22  2  0  0  0  0
 27 26  2  0  0  0  0
M  END
>  <MODEL>
4

>  <REMARK>
 VINA RESULT:      -8.8      3.674      5.830
  Name = 
  2 active torsions:
  status: ('A' for Active; 'I' for Inactive)
    1  A    between atoms: C_1  and  C_15
    2  A    between atoms: C_9  and  C_15
                            x       y       z     vdW  Elec       q    Type
                         _______ _______ _______ _____ _____    ______ ____

>  <TORSDO>
F 2

$$$$
=
 OpenBabel10272401123D

 27 32  0  0  1  0  0  0  0  0999 V2000
  189.8060  176.9510  146.4030 C   0  0  2  0  0  3  0  0  0  0  0  0
  188.2850  176.9280  146.5920 C   0  0  1  0  0  3  0  0  0  0  0  0
  188.7620  177.1960  144.2390 C   0  0  2  0  0  0  0  0  0  0  0  0
  184.9280  179.2630  146.2880 N   0  0  0  0  0  0  0  0  0  0  0  0
  183.1680  178.6260  144.7320 C   0  0  0  0  0  1  0  0  0  0  0  0
  187.7890  177.7500  147.7630 C   0  0  0  0  0  3  0  0  0  0  0  0
  185.7460  178.6970  143.7790 S   0  0  0  0  0  0  0  0  0  0  0  0
  191.0990  178.5580  143.2300 C   0  0  2  0  0  3  0  0  0  0  0  0
  188.3620  176.3590  143.0510 C   0  0  0  0  0  2  0  0  0  0  0  0
  190.7490  179.8540  143.6120 O   0  0  0  0  0  1  0  0  0  0  0  0
  186.5750  178.0550  145.2160 C   0  0  2  0  0  3  0  0  0  0  0  0
  184.4650  179.3910  144.9080 C   0  0  2  0  0  3  0  0  0  0  0  0
  185.9800  178.5380  146.4350 C   0  0  0  0  0  0  0  0  0  0  0  0
  190.0820  176.8020  144.8930 C   0  0  1  0  0  3  0  0  0  0  0  0
  187.7280  177.3800  145.2810 C   0  0  2  0  0  3  0  0  0  0  0  0
  190.0760  177.9960  142.2420 C   0  0  0  0  0  2  0  0  0  0  0  0
  186.6880  178.4440  147.6790 N   0  0  0  0  0  0  0  0  0  0  0  0
  192.2830  177.6550  145.0500 O   0  0  0  0  0  0  0  0  0  0  0  0
  191.2240  177.6800  144.4430 C   0  0  0  0  0  0  0  0  0  0  0  0
  188.6880  177.8450  142.8650 C   0  0  2  0  0  3  0  0  0  0  0  0
  190.5140  175.8780  147.2370 C   0  0  0  0  0  2  0  0  0  0  0  0
  193.5200  177.4520  149.8720 C   0  0  0  0  0  3  0  0  0  0  0  0
  191.5660  176.4330  148.1460 C   0  0  0  0  0  0  0  0  0  0  0  0
  191.3730  177.6700  148.7720 C   0  0  0  0  0  3  0  0  0  0  0  0
  192.3490  178.1790  149.6340 C   0  0  0  0  0  3  0  0  0  0  0  0
  193.7140  176.2160  149.2480 C   0  0  0  0  0  3  0  0  0  0  0  0
  192.7390  175.7060  148.3870 C   0  0  0  0  0  3  0  0  0  0  0  0
  1  2  1  0  0  0  0
  1 21  1  1  0  0  0
  2  6  1  1  0  0  0
  3  9  1  6  0  0  0
  3 14  1  0  0  0  0
  3 15  1  0  0  0  0
  4 13  2  0  0  0  0
  7 12  1  0  0  0  0
  8 10  1  1  0  0  0
  8 19  1  0  0  0  0
 11  7  1  6  0  0  0
 11 15  1  0  0  0  0
 11 13  1  0  0  0  0
 12  5  1  1  0  0  0
 12  4  1  0  0  0  0
 13 17  1  0  0  0  0
 14 19  1  6  0  0  0
 14  1  1  0  0  0  0
 15  2  1  0  0  0  0
 16 20  1  0  0  0  0
 16  8  1  0  0  0  0
 17  6  2  0  0  0  0
 19 18  2  0  0  0  0
 20  9  1  0  0  0  0
 20  3  1  0  0  0  0
 21 23  1  0  0  0  0
 23 27  2  0  0  0  0
 23 24  1  0  0  0  0
 24 25  2  0  0  0  0
 25 22  1  0  0  0  0
 26 22  2  0  0  0  0
 27 26  1  0  0  0  0
M  END
>  <MODEL>
5

>  <REMARK>
 VINA RESULT:      -8.6      3.393      6.703
  Name = 
  2 active torsions:
  status: ('A' for Active; 'I' for Inactive)
    1  A    between atoms: C_1  and  C_15
    2  A    between atoms: C_9  and  C_15
                            x       y       z     vdW  Elec       q    Type
                         _______ _______ _______ _____ _____    ______ ____

>  <TORSDO>
F 2

$$$$
=
 OpenBabel10272401123D

 27 32  0  0  1  0  0  0  0  0999 V2000
  185.2670  178.7120  141.9000 C   0  0  2  0  0  3  0  0  0  0  0  0
  186.5620  178.8580  141.0940 C   0  0  1  0  0  3  0  0  0  0  0  0
  184.7040  178.7850  139.5530 C   0  0  2  0  0  0  0  0  0  0  0  0
  188.9860  176.8890  138.4370 N   0  0  0  0  0  0  0  0  0  0  0  0
  189.3550  177.8410  136.2270 C   0  0  0  0  0  1  0  0  0  0  0  0
  187.6950  177.9730  141.5690 C   0  0  0  0  0  3  0  0  0  0  0  0
  186.7580  177.6260  137.1030 S   0  0  0  0  0  0  0  0  0  0  0  0
  182.2690  177.3180  140.0580 C   0  0  2  0  0  3  0  0  0  0  0  0
  184.2530  179.7700  138.5050 C   0  0  0  0  0  2  0  0  0  0  0  0
  182.7930  176.0290  139.9540 O   0  0  0  0  0  1  0  0  0  0  0  0
  187.0220  178.0400  138.8120 C   0  0  2  0  0  3  0  0  0  0  0  0
  188.4700  176.9440  137.0710 C   0  0  2  0  0  3  0  0  0  0  0  0
  188.2600  177.4950  139.3090 C   0  0  0  0  0  0  0  0  0  0  0  0
  184.0950  178.9860  140.9360 C   0  0  1  0  0  3  0  0  0  0  0  0
  186.1660  178.5950  139.6780 C   0  0  2  0  0  3  0  0  0  0  0  0
  182.4290  178.0700  138.7360 C   0  0  0  0  0  2  0  0  0  0  0  0
  188.4990  177.3960  140.7190 N   0  0  0  0  0  0  0  0  0  0  0  0
  182.5000  177.9200  142.3200 O   0  0  0  0  0  0  0  0  0  0  0  0
  182.9340  178.0550  141.1870 C   0  0  0  0  0  0  0  0  0  0  0  0
  183.8950  178.2860  138.3640 C   0  0  2  0  0  3  0  0  0  0  0  0
  185.2380  179.6260  143.1310 C   0  0  0  0  0  2  0  0  0  0  0  0
  185.9600  177.5620  146.8290 C   0  0  0  0  0  3  0  0  0  0  0  0
  185.4840  178.8970  144.4150 C   0  0  0  0  0  0  0  0  0  0  0  0
  186.5870  178.0450  144.5400 C   0  0  0  0  0  3  0  0  0  0  0  0
  186.8250  177.3780  145.7460 C   0  0  0  0  0  3  0  0  0  0  0  0
  184.8580  178.4130  146.7060 C   0  0  0  0  0  3  0  0  0  0  0  0
  184.6190  179.0810  145.5020 C   0  0  0  0  0  3  0  0  0  0  0  0
  1 21  1  1  0  0  0
  2  6  1  1  0  0  0
  2  1  1  0  0  0  0
  3  9  1  6  0  0  0
  3 15  1  0  0  0  0
  3 14  1  0  0  0  0
  4 13  2  0  0  0  0
  8 10  1  6  0  0  0
  8 19  1  0  0  0  0
 11  7  1  1  0  0  0
 11 13  1  0  0  0  0
 11 15  1  0  0  0  0
 12  5  1  6  0  0  0
 12  7  1  0  0  0  0
 12  4  1  0  0  0  0
 13 17  1  0  0  0  0
 14 19  1  1  0  0  0
 14  1  1  0  0  0  0
 15  2  1  0  0  0  0
 16  8  1  0  0  0  0
 17  6  2  0  0  0  0
 19 18  2  0  0  0  0
 20  9  1  0  0  0  0
 20 16  1  0  0  0  0
 20  3  1  0  0  0  0
 21 23  1  0  0  0  0
 23 24  2  0  0  0  0
 23 27  1  0  0  0  0
 24 25  1  0  0  0  0
 25 22  2  0  0  0  0
 26 22  1  0  0  0  0
 27 26  2  0  0  0  0
M  END
>  <MODEL>
6

>  <REMARK>
 VINA RESULT:      -8.5      3.380      5.546
  Name = 
  2 active torsions:
  status: ('A' for Active; 'I' for Inactive)
    1  A    between atoms: C_1  and  C_15
    2  A    between atoms: C_9  and  C_15
                            x       y       z     vdW  Elec       q    Type
                         _______ _______ _______ _____ _____    ______ ____

>  <TORSDO>
F 2

$$$$
=
 OpenBabel10272401123D

 27 32  0  0  1  0  0  0  0  0999 V2000
  186.3170  178.3210  140.1690 C   0  0  2  0  0  3  0  0  0  0  0  0
  187.8450  178.3070  140.0490 C   0  0  1  0  0  3  0  0  0  0  0  0
  186.9000  177.9620  137.8530 C   0  0  2  0  0  0  0  0  0  0  0  0
  191.0220  175.8630  139.1850 N   0  0  0  0  0  0  0  0  0  0  0  0
  192.4470  176.3860  137.2820 C   0  0  0  0  0  1  0  0  0  0  0  0
  188.5480  177.5180  141.1330 C   0  0  0  0  0  3  0  0  0  0  0  0
  189.7290  176.3540  136.8670 S   0  0  0  0  0  0  0  0  0  0  0  0
  184.3790  176.6310  137.3930 C   0  0  2  0  0  3  0  0  0  0  0  0
  187.0710  178.7390  136.5730 C   0  0  0  0  0  2  0  0  0  0  0  0
  184.7710  175.3410  137.7540 O   0  0  0  0  0  1  0  0  0  0  0  0
  189.2200  177.0770  138.4100 C   0  0  2  0  0  3  0  0  0  0  0  0
  191.1960  175.6670  137.7480 C   0  0  2  0  0  3  0  0  0  0  0  0
  190.0370  176.6250  139.5070 C   0  0  0  0  0  0  0  0  0  0  0  0
  185.7470  178.4200  138.7390 C   0  0  1  0  0  3  0  0  0  0  0  0
  188.1180  177.7880  138.6740 C   0  0  2  0  0  3  0  0  0  0  0  0
  185.1950  177.1230  136.1960 C   0  0  0  0  0  2  0  0  0  0  0  0
  189.5950  176.7880  140.8620 N   0  0  0  0  0  0  0  0  0  0  0  0
  183.6050  177.6390  139.3710 O   0  0  0  0  0  0  0  0  0  0  0  0
  184.5190  177.5590  138.5660 C   0  0  0  0  0  0  0  0  0  0  0  0
  186.6820  177.2570  136.5220 C   0  0  2  0  0  3  0  0  0  0  0  0
  185.8130  179.4470  141.0790 C   0  0  0  0  0  2  0  0  0  0  0  0
  184.5710  178.1040  144.9660 C   0  0  0  0  0  3  0  0  0  0  0  0
  185.3790  178.9690  142.4290 C   0  0  0  0  0  0  0  0  0  0  0  0
  186.3040  178.3730  143.2950 C   0  0  0  0  0  3  0  0  0  0  0  0
  185.9000  177.9410  144.5620 C   0  0  0  0  0  3  0  0  0  0  0  0
  183.6470  178.7000  144.1030 C   0  0  0  0  0  3  0  0  0  0  0  0
  184.0490  179.1320  142.8360 C   0  0  0  0  0  3  0  0  0  0  0  0
  1 21  1  1  0  0  0
  2  1  1  0  0  0  0
  2  6  1  1  0  0  0
  3  9  1  6  0  0  0
  3 15  1  0  0  0  0
  3 14  1  0  0  0  0
  4 13  2  0  0  0  0
  7 12  1  0  0  0  0
  8 10  1  1  0  0  0
  8 19  1  0  0  0  0
 11  7  1  1  0  0  0
 11 15  1  0  0  0  0
 11 13  1  0  0  0  0
 12  5  1  6  0  0  0
 12  4  1  0  0  0  0
 13 17  1  0  0  0  0
 14 19  1  1  0  0  0
 14  1  1  0  0  0  0
 15  2  1  0  0  0  0
 16 20  1  0  0  0  0
 16  8  1  0  0  0  0
 17  6  2  0  0  0  0
 19 18  2  0  0  0  0
 20  9  1  0  0  0  0
 20  3  1  0  0  0  0
 21 23  1  0  0  0  0
 23 27  2  0  0  0  0
 23 24  1  0  0  0  0
 24 25  2  0  0  0  0
 25 22  1  0  0  0  0
 26 22  2  0  0  0  0
 27 26  1  0  0  0  0
M  END
>  <MODEL>
7

>  <REMARK>
 VINA RESULT:      -8.4      3.526      5.511
  Name = 
  2 active torsions:
  status: ('A' for Active; 'I' for Inactive)
    1  A    between atoms: C_1  and  C_15
    2  A    between atoms: C_9  and  C_15
                            x       y       z     vdW  Elec       q    Type
                         _______ _______ _______ _____ _____    ______ ____

>  <TORSDO>
F 2

$$$$
=
 OpenBabel10272401123D

 27 32  0  0  1  0  0  0  0  0999 V2000
  187.2720  178.3530  142.1650 C   0  0  2  0  0  3  0  0  0  0  0  0
  186.9730  178.6920  143.6300 C   0  0  1  0  0  3  0  0  0  0  0  0
  189.3490  178.3220  143.3970 C   0  0  2  0  0  0  0  0  0  0  0  0
  186.9860  177.1030  147.4100 N   0  0  0  0  0  0  0  0  0  0  0  0
  188.4220  178.0860  149.1120 C   0  0  0  0  0  1  0  0  0  0  0  0
  185.7540  177.9960  144.1950 C   0  0  0  0  0  3  0  0  0  0  0  0
  189.5590  177.4780  146.6840 S   0  0  0  0  0  0  0  0  0  0  0  0
  190.4980  176.5000  141.4750 C   0  0  2  0  0  3  0  0  0  0  0  0
  190.5210  179.2190  143.7040 C   0  0  0  0  0  2  0  0  0  0  0  0
  190.0670  175.3060  142.0550 O   0  0  0  0  0  1  0  0  0  0  0  0
  188.1990  177.9390  145.6350 C   0  0  2  0  0  3  0  0  0  0  0  0
  188.3260  177.0690  147.9920 C   0  0  2  0  0  3  0  0  0  0  0  0
  186.9300  177.5950  146.2230 C   0  0  0  0  0  0  0  0  0  0  0  0
  188.8000  178.4360  141.9790 C   0  0  1  0  0  3  0  0  0  0  0  0
  188.2310  178.3610  144.3650 C   0  0  2  0  0  3  0  0  0  0  0  0
  191.4200  177.2590  142.4310 C   0  0  0  0  0  2  0  0  0  0  0  0
  185.7430  177.5440  145.4190 N   0  0  0  0  0  0  0  0  0  0  0  0
  188.7870  177.1450  139.9960 O   0  0  0  0  0  0  0  0  0  0  0  0
  189.3150  177.3380  141.0800 C   0  0  0  0  0  0  0  0  0  0  0  0
  190.7010  177.6970  143.7060 C   0  0  2  0  0  3  0  0  0  0  0  0
  186.5130  179.2590  141.1890 C   0  0  0  0  0  2  0  0  0  0  0  0
  183.2920  177.2840  139.1430 C   0  0  0  0  0  3  0  0  0  0  0  0
  185.3950  178.5600  140.4790 C   0  0  0  0  0  0  0  0  0  0  0  0
  184.2500  178.1700  141.1840 C   0  0  0  0  0  3  0  0  0  0  0  0
  183.2000  177.5320  140.5160 C   0  0  0  0  0  3  0  0  0  0  0  0
  184.4340  177.6740  138.4380 C   0  0  0  0  0  3  0  0  0  0  0  0
  185.4850  178.3120  139.1040 C   0  0  0  0  0  3  0  0  0  0  0  0
  1 21  1  6  0  0  0
  1  2  1  0  0  0  0
  2  6  1  1  0  0  0
  2 15  1  0  0  0  0
  3  9  1  1  0  0  0
  3 20  1  0  0  0  0
  3 15  1  0  0  0  0
  4 12  1  0  0  0  0
  6 17  2  0  0  0  0
  7 12  1  0  0  0  0
  8 10  1  1  0  0  0
  8 16  1  0  0  0  0
  9 20  1  0  0  0  0
 11 13  1  6  0  0  0
 11  7  1  0  0  0  0
 12  5  1  1  0  0  0
 13  4  2  0  0  0  0
 14 19  1  6  0  0  0
 14  1  1  0  0  0  0
 14  3  1  0  0  0  0
 15 11  1  0  0  0  0
 16 20  1  0  0  0  0
 17 13  1  0  0  0  0
 18 19  2  0  0  0  0
 19  8  1  0  0  0  0
 22 25  1  0  0  0  0
 23 24  1  0  0  0  0
 23 21  1  0  0  0  0
 25 24  2  0  0  0  0
 26 27  1  0  0  0  0
 26 22  2  0  0  0  0
 27 23  2  0  0  0  0
M  END
>  <MODEL>
8

>  <REMARK>
 VINA RESULT:      -8.3      3.265      5.392
  Name = 
  2 active torsions:
  status: ('A' for Active; 'I' for Inactive)
    1  A    between atoms: C_1  and  C_15
    2  A    between atoms: C_9  and  C_15
                            x       y       z     vdW  Elec       q    Type
                         _______ _______ _______ _____ _____    ______ ____

>  <TORSDO>
F 2

$$$$
=
 OpenBabel10272401123D

 27 32  0  0  1  0  0  0  0  0999 V2000
  186.0500  177.8860  138.7760 C   0  0  2  0  0  3  0  0  0  0  0  0
  187.5650  178.1160  138.8270 C   0  0  1  0  0  3  0  0  0  0  0  0
  187.0380  176.9190  136.7970 C   0  0  2  0  0  0  0  0  0  0  0  0
  191.1470  176.1530  139.1840 N   0  0  0  0  0  0  0  0  0  0  0  0
  192.7700  176.2930  137.3750 C   0  0  0  0  0  1  0  0  0  0  0  0
  188.1890  177.8580  140.1820 C   0  0  0  0  0  3  0  0  0  0  0  0
  190.1840  175.6300  136.7170 S   0  0  0  0  0  0  0  0  0  0  0  0
  184.8320  175.0710  136.5610 C   0  0  2  0  0  3  0  0  0  0  0  0
  187.3010  177.2630  135.3530 C   0  0  0  0  0  2  0  0  0  0  0  0
  185.3370  174.0590  137.3800 O   0  0  0  0  0  1  0  0  0  0  0  0
  189.3400  176.7010  137.8590 C   0  0  2  0  0  3  0  0  0  0  0  0
  191.5730  175.5430  137.9260 C   0  0  2  0  0  3  0  0  0  0  0  0
  190.0270  176.7820  139.1230 C   0  0  0  0  0  0  0  0  0  0  0  0
  185.7070  177.4160  137.3480 C   0  0  1  0  0  3  0  0  0  0  0  0
  188.1220  177.2440  137.7490 C   0  0  2  0  0  3  0  0  0  0  0  0
  185.7510  175.2960  135.3590 C   0  0  0  0  0  2  0  0  0  0  0  0
  189.3570  177.2850  140.2860 N   0  0  0  0  0  0  0  0  0  0  0  0
  183.6200  176.4980  137.9840 O   0  0  0  0  0  0  0  0  0  0  0  0
  184.6530  176.3340  137.3540 C   0  0  0  0  0  0  0  0  0  0  0  0
  187.1340  175.7980  135.7710 C   0  0  2  0  0  3  0  0  0  0  0  0
  185.2570  179.1310  139.1890 C   0  0  0  0  0  2  0  0  0  0  0  0
  183.3960  178.7970  143.0470 C   0  0  0  0  0  3  0  0  0  0  0  0
  184.6120  179.0030  140.5350 C   0  0  0  0  0  0  0  0  0  0  0  0
  185.3690  179.1850  141.6970 C   0  0  0  0  0  3  0  0  0  0  0  0
  184.7620  179.0820  142.9530 C   0  0  0  0  0  3  0  0  0  0  0  0
  182.6380  178.6150  141.8870 C   0  0  0  0  0  3  0  0  0  0  0  0
  183.2440  178.7190  140.6320 C   0  0  0  0  0  3  0  0  0  0  0  0
  1  2  1  0  0  0  0
  1 21  1  6  0  0  0
  2  6  1  1  0  0  0
  3  9  1  6  0  0  0
  3 14  1  0  0  0  0
  3 15  1  0  0  0  0
  6 17  2  0  0  0  0
  7 12  1  0  0  0  0
  8 19  1  0  0  0  0
  8 10  1  1  0  0  0
  9 20  1  0  0  0  0
 11  7  1  1  0  0  0
 11 13  1  0  0  0  0
 12  5  1  6  0  0  0
 12  4  1  0  0  0  0
 13  4  2  0  0  0  0
 13 17  1  0  0  0  0
 14 19  1  1  0  0  0
 14  1  1  0  0  0  0
 15 11  1  0  0  0  0
 15  2  1  0  0  0  0
 16 20  1  0  0  0  0
 16  8  1  0  0  0  0
 19 18  2  0  0  0  0
 20  3  1  0  0  0  0
 21 23  1  0  0  0  0
 23 27  2  0  0  0  0
 23 24  1  0  0  0  0
 24 25  2  0  0  0  0
 25 22  1  0  0  0  0
 26 22  2  0  0  0  0
 27 26  1  0  0  0  0
M  END
>  <MODEL>
9

>  <REMARK>
 VINA RESULT:      -8.2      4.046      6.116
  Name = 
  2 active torsions:
  status: ('A' for Active; 'I' for Inactive)
    1  A    between atoms: C_1  and  C_15
    2  A    between atoms: C_9  and  C_15
                            x       y       z     vdW  Elec       q    Type
                         _______ _______ _______ _____ _____    ______ ____

>  <TORSDO>
F 2

$$$$
