=
 OpenBabel10262423503D

 34 39  0  0  1  0  0  0  0  0999 V2000
  188.9110  177.1920  145.8050 C   0  0  0  0  0  0  0  0  0  0  0  0
  190.8290  176.7300  144.2360 C   0  0  2  0  0  3  0  0  0  0  0  0
  188.5720  177.6370  143.4220 C   0  0  0  0  0  0  0  0  0  0  0  0
  188.1270  178.0960  141.0350 C   0  0  0  0  0  0  0  0  0  0  0  0
  191.1080  176.7810  146.6870 C   0  0  0  0  0  3  0  0  0  0  0  0
  191.6710  176.7280  145.4800 C   0  0  0  0  0  3  0  0  0  0  0  0
  190.2600  177.3550  141.5460 N   0  0  0  0  0  0  0  0  0  0  0  0
  189.4210  177.2320  144.4850 C   0  0  0  0  0  0  0  0  0  0  0  0
  191.4370  176.8590  139.5530 N   0  0  0  0  0  2  0  0  0  0  0  0
  188.8150  177.9600  139.3990 S   0  0  0  0  0  0  0  0  0  0  0  0
  189.6900  176.9450  146.8180 N   0  0  0  0  0  0  0  0  0  0  0  0
  187.2020  177.9180  143.6790 C   0  0  0  0  0  0  0  0  0  0  0  0
  187.5680  177.4700  146.0440 C   0  0  0  0  0  3  0  0  0  0  0  0
  190.7600  175.0600  143.6060 Cl  0  0  0  0  0  0  0  0  0  0  0  0
  186.8690  178.2650  141.2900 N   0  0  0  0  0  0  0  0  0  0  0  0
  186.3680  178.2390  142.6430 C   0  0  0  0  0  0  0  0  0  0  0  0
  190.3010  177.3720  140.2520 C   0  0  0  0  0  0  0  0  0  0  0  0
  189.0330  177.7700  142.0630 N   0  0  0  0  0  0  0  0  0  0  0  0
  186.7220  177.8170  144.9940 C   0  0  0  0  0  3  0  0  0  0  0  0
  182.6430  178.5980  141.9490 C   0  0  0  0  0  0  0  0  0  0  0  0
  182.1680  178.9230  143.2240 C   0  0  0  0  0  3  0  0  0  0  0  0
  184.9140  178.4880  142.8190 C   0  0  0  0  0  0  0  0  0  0  0  0
  183.0570  179.0060  144.2980 C   0  0  0  0  0  3  0  0  0  0  0  0
  184.0100  178.3810  141.7470 C   0  0  0  0  0  3  0  0  0  0  0  0
  184.4220  178.7850  144.0980 C   0  0  0  0  0  3  0  0  0  0  0  0
  181.7790  178.5000  140.9090 F   0  0  0  0  0  0  0  0  0  0  0  0
  191.4680  176.7920  138.1510 N   0  0  0  0  0  2  0  0  0  0  0  0
  194.0920  176.0050  137.2890 O   0  0  0  0  0  1  0  0  0  0  0  0
  191.8010  175.4200  137.7770 C   0  0  2  0  0  3  0  0  0  0  0  0
  192.9470  175.4050  136.7570 C   0  0  1  0  0  3  0  0  0  0  0  0
  191.0670  176.0530  135.1310 C   0  0  0  0  0  2  0  0  0  0  0  0
  190.4100  174.7950  135.6890 C   0  0  0  0  0  2  0  0  0  0  0  0
  190.5530  174.7100  137.2220 C   0  0  0  0  0  2  0  0  0  0  0  0
  192.5730  176.0750  135.4240 C   0  0  0  0  0  2  0  0  0  0  0  0
  1 13  1  0  0  0  0
  1 11  2  0  0  0  0
  2 14  1  1  0  0  0
  2  8  1  0  0  0  0
  2  6  1  0  0  0  0
  3 12  1  0  0  0  0
  3  8  2  0  0  0  0
  4 15  2  0  0  0  0
  4 18  1  0  0  0  0
  5 11  1  0  0  0  0
  6  5  2  0  0  0  0
  7 18  1  0  0  0  0
  8  1  1  0  0  0  0
  9 17  1  0  0  0  0
 10 17  1  0  0  0  0
 10  4  1  0  0  0  0
 12 19  1  0  0  0  0
 15 16  1  0  0  0  0
 16 22  1  0  0  0  0
 16 12  2  0  0  0  0
 17  7  2  0  0  0  0
 18  3  1  0  0  0  0
 19 13  2  0  0  0  0
 20 21  1  0  0  0  0
 21 23  2  0  0  0  0
 22 25  2  0  0  0  0
 24 20  2  0  0  0  0
 24 22  1  0  0  0  0
 25 23  1  0  0  0  0
 26 20  1  0  0  0  0
 27  9  1  0  0  0  0
 29 27  1  6  0  0  0
 30 28  1  1  0  0  0
 30 29  1  0  0  0  0
 31 34  1  0  0  0  0
 31 32  1  0  0  0  0
 32 33  1  0  0  0  0
 33 29  1  0  0  0  0
 34 30  1  0  0  0  0
M  END
>  <MODEL>
1

>  <REMARK>
 VINA RESULT:     -11.2      0.000      0.000
  Name = 
  3 active torsions:
  status: ('A' for Active; 'I' for Inactive)
    1  A    between atoms: N_3  and  C_13
    2  A    between atoms: N_3  and  N_17
    3  A    between atoms: C_12  and  C_28
                            x       y       z     vdW  Elec       q    Type
                         _______ _______ _______ _____ _____    ______ ____

>  <TORSDO>
F 3

$$$$
=
 OpenBabel10262423503D

 34 39  0  0  1  0  0  0  0  0999 V2000
  188.9370  177.1910  145.6770 C   0  0  0  0  0  0  0  0  0  0  0  0
  190.9000  176.7600  144.1560 C   0  0  2  0  0  3  0  0  0  0  0  0
  188.6470  177.6210  143.2860 C   0  0  0  0  0  0  0  0  0  0  0  0
  188.2490  178.0630  140.8870 C   0  0  0  0  0  0  0  0  0  0  0  0
  191.1200  176.8250  146.6120 C   0  0  0  0  0  3  0  0  0  0  0  0
  191.7130  176.7790  145.4190 C   0  0  0  0  0  3  0  0  0  0  0  0
  190.3830  177.3650  141.4510 N   0  0  0  0  0  0  0  0  0  0  0  0
  189.4780  177.2360  144.3700 C   0  0  0  0  0  0  0  0  0  0  0  0
  191.6160  176.8850  139.4880 N   0  0  0  0  0  2  0  0  0  0  0  0
  188.9780  177.9340  139.2690 S   0  0  0  0  0  0  0  0  0  0  0  0
  189.6970  176.9630  146.7090 N   0  0  0  0  0  0  0  0  0  0  0  0
  187.2650  177.8770  143.5090 C   0  0  0  0  0  0  0  0  0  0  0  0
  187.5840  177.4440  145.8840 C   0  0  0  0  0  3  0  0  0  0  0  0
  190.8780  175.0870  143.5310 Cl  0  0  0  0  0  0  0  0  0  0  0  0
  186.9830  178.2090  141.1110 N   0  0  0  0  0  0  0  0  0  0  0  0
  186.4500  178.1780  142.4520 C   0  0  0  0  0  0  0  0  0  0  0  0
  190.4550  177.3790  140.1590 C   0  0  0  0  0  0  0  0  0  0  0  0
  189.1360  177.7590  141.9380 N   0  0  0  0  0  0  0  0  0  0  0  0
  186.7570  177.7710  144.8130 C   0  0  0  0  0  3  0  0  0  0  0  0
  183.0240  178.9250  143.9310 C   0  0  0  0  0  0  0  0  0  0  0  0
  182.2230  178.8610  142.7860 C   0  0  0  0  0  3  0  0  0  0  0  0
  184.9880  178.4000  142.5930 C   0  0  0  0  0  0  0  0  0  0  0  0
  182.8040  178.5930  141.5440 C   0  0  0  0  0  3  0  0  0  0  0  0
  184.4000  178.6960  143.8350 C   0  0  0  0  0  3  0  0  0  0  0  0
  184.1800  178.3690  141.4470 C   0  0  0  0  0  3  0  0  0  0  0  0
  182.4640  179.2020  145.1340 F   0  0  0  0  0  0  0  0  0  0  0  0
  191.6810  176.8130  138.0880 N   0  0  0  0  0  2  0  0  0  0  0  0
  194.2500  176.2450  136.9350 O   0  0  0  0  0  1  0  0  0  0  0  0
  192.1080  175.4630  137.7290 C   0  0  2  0  0  3  0  0  0  0  0  0
  193.1180  175.5090  136.5740 C   0  0  1  0  0  3  0  0  0  0  0  0
  190.9980  175.8840  135.1730 C   0  0  0  0  0  2  0  0  0  0  0  0
  190.5470  174.5970  135.8580 C   0  0  0  0  0  2  0  0  0  0  0  0
  190.8820  174.6060  137.3620 C   0  0  0  0  0  2  0  0  0  0  0  0
  192.5190  176.0680  135.2740 C   0  0  0  0  0  2  0  0  0  0  0  0
  1 13  1  0  0  0  0
  1 11  2  0  0  0  0
  2 14  1  1  0  0  0
  2  8  1  0  0  0  0
  2  6  1  0  0  0  0
  3 12  1  0  0  0  0
  3  8  2  0  0  0  0
  4 15  2  0  0  0  0
  4 18  1  0  0  0  0
  5 11  1  0  0  0  0
  6  5  2  0  0  0  0
  7 18  1  0  0  0  0
  8  1  1  0  0  0  0
  9 17  1  0  0  0  0
 10 17  1  0  0  0  0
 10  4  1  0  0  0  0
 12 19  1  0  0  0  0
 15 16  1  0  0  0  0
 16 22  1  0  0  0  0
 16 12  2  0  0  0  0
 17  7  2  0  0  0  0
 18  3  1  0  0  0  0
 19 13  2  0  0  0  0
 20 26  1  0  0  0  0
 21 20  2  0  0  0  0
 22 24  2  0  0  0  0
 23 21  1  0  0  0  0
 24 20  1  0  0  0  0
 25 23  2  0  0  0  0
 25 22  1  0  0  0  0
 27  9  1  0  0  0  0
 29 27  1  6  0  0  0
 30 28  1  1  0  0  0
 30 29  1  0  0  0  0
 31 34  1  0  0  0  0
 31 32  1  0  0  0  0
 32 33  1  0  0  0  0
 33 29  1  0  0  0  0
 34 30  1  0  0  0  0
M  END
>  <MODEL>
2

>  <REMARK>
 VINA RESULT:     -11.0      0.783      1.140
  Name = 
  3 active torsions:
  status: ('A' for Active; 'I' for Inactive)
    1  A    between atoms: N_3  and  C_13
    2  A    between atoms: N_3  and  N_17
    3  A    between atoms: C_12  and  C_28
                            x       y       z     vdW  Elec       q    Type
                         _______ _______ _______ _____ _____    ______ ____

>  <TORSDO>
F 3

$$$$
=
 OpenBabel10262423503D

 34 39  0  0  1  0  0  0  0  0999 V2000
  187.5200  177.7420  144.5550 C   0  0  0  0  0  0  0  0  0  0  0  0
  189.7870  177.1500  143.6240 C   0  0  2  0  0  3  0  0  0  0  0  0
  187.8680  177.9940  142.1460 C   0  0  0  0  0  0  0  0  0  0  0  0
  188.1150  178.2600  139.7010 C   0  0  0  0  0  0  0  0  0  0  0  0
  189.3750  177.3990  146.0440 C   0  0  0  0  0  3  0  0  0  0  0  0
  190.2500  177.2480  145.0500 C   0  0  0  0  0  3  0  0  0  0  0  0
  190.0040  177.5580  140.8430 N   0  0  0  0  0  0  0  0  0  0  0  0
  188.3780  177.6740  143.4310 C   0  0  0  0  0  0  0  0  0  0  0  0
  191.6750  176.9010  139.3000 N   0  0  0  0  0  2  0  0  0  0  0  0
  189.2270  177.9910  138.3380 S   0  0  0  0  0  0  0  0  0  0  0  0
  187.9810  177.5760  145.7610 N   0  0  0  0  0  0  0  0  0  0  0  0
  186.4880  178.2980  141.9870 C   0  0  0  0  0  0  0  0  0  0  0  0
  186.1710  178.0410  144.3880 C   0  0  0  0  0  3  0  0  0  0  0  0
  189.8550  175.4350  143.1300 Cl  0  0  0  0  0  0  0  0  0  0  0  0
  186.8410  178.4520  139.5810 N   0  0  0  0  0  0  0  0  0  0  0  0
  185.9830  178.5360  140.7390 C   0  0  0  0  0  0  0  0  0  0  0  0
  190.4030  177.4710  139.6140 C   0  0  0  0  0  0  0  0  0  0  0  0
  188.6910  178.0160  140.9630 N   0  0  0  0  0  0  0  0  0  0  0  0
  185.6590  178.3040  143.1210 C   0  0  0  0  0  3  0  0  0  0  0  0
  182.7550  179.7900  139.1610 C   0  0  0  0  0  0  0  0  0  0  0  0
  181.8060  179.2280  140.0190 C   0  0  0  0  0  3  0  0  0  0  0  0
  184.5440  178.8020  140.4820 C   0  0  0  0  0  0  0  0  0  0  0  0
  182.2210  178.4340  141.0920 C   0  0  0  0  0  3  0  0  0  0  0  0
  184.1180  179.5780  139.3900 C   0  0  0  0  0  3  0  0  0  0  0  0
  183.5820  178.2180  141.3190 C   0  0  0  0  0  3  0  0  0  0  0  0
  182.3530  180.5470  138.1100 F   0  0  0  0  0  0  0  0  0  0  0  0
  192.0930  176.7200  137.9730 N   0  0  0  0  0  2  0  0  0  0  0  0
  194.6280  175.4640  138.4670 O   0  0  0  0  0  1  0  0  0  0  0  0
  192.3230  175.2930  137.7670 C   0  0  2  0  0  3  0  0  0  0  0  0
  193.7970  175.0310  137.4300 C   0  0  1  0  0  3  0  0  0  0  0  0
  193.0770  175.8840  135.1160 C   0  0  0  0  0  2  0  0  0  0  0  0
  192.0260  174.7860  135.2490 C   0  0  0  0  0  2  0  0  0  0  0  0
  191.3960  174.7680  136.6560 C   0  0  0  0  0  2  0  0  0  0  0  0
  194.2340  175.6740  136.1030 C   0  0  0  0  0  2  0  0  0  0  0  0
  1 11  2  0  0  0  0
  2 14  1  1  0  0  0
  2  6  1  0  0  0  0
  3  8  2  0  0  0  0
  4 18  1  0  0  0  0
  6  5  2  0  0  0  0
  7 18  1  0  0  0  0
  8  2  1  0  0  0  0
  8  1  1  0  0  0  0
  9 17  1  0  0  0  0
 10 17  1  0  0  0  0
 10  4  1  0  0  0  0
 11  5  1  0  0  0  0
 12  3  1  0  0  0  0
 12 19  1  0  0  0  0
 13  1  1  0  0  0  0
 15  4  2  0  0  0  0
 15 16  1  0  0  0  0
 16 12  2  0  0  0  0
 17  7  2  0  0  0  0
 18  3  1  0  0  0  0
 19 13  2  0  0  0  0
 20 24  2  0  0  0  0
 20 21  1  0  0  0  0
 21 23  2  0  0  0  0
 22 16  1  0  0  0  0
 22 25  2  0  0  0  0
 23 25  1  0  0  0  0
 24 22  1  0  0  0  0
 26 20  1  0  0  0  0
 27  9  1  0  0  0  0
 29 27  1  6  0  0  0
 30 29  1  0  0  0  0
 30 28  1  1  0  0  0
 31 32  1  0  0  0  0
 31 34  1  0  0  0  0
 32 33  1  0  0  0  0
 33 29  1  0  0  0  0
 34 30  1  0  0  0  0
M  END
>  <MODEL>
3

>  <REMARK>
 VINA RESULT:     -10.3      1.442      1.940
  Name = 
  3 active torsions:
  status: ('A' for Active; 'I' for Inactive)
    1  A    between atoms: N_3  and  C_13
    2  A    between atoms: N_3  and  N_17
    3  A    between atoms: C_12  and  C_28
                            x       y       z     vdW  Elec       q    Type
                         _______ _______ _______ _____ _____    ______ ____

>  <TORSDO>
F 3

$$$$
=
 OpenBabel10262423503D

 34 39  0  0  1  0  0  0  0  0999 V2000
  190.0400  177.0180  138.0120 C   0  0  0  0  0  0  0  0  0  0  0  0
  187.7470  177.7190  137.2320 C   0  0  2  0  0  3  0  0  0  0  0  0
  188.4500  177.8090  139.6960 C   0  0  0  0  0  0  0  0  0  0  0  0
  186.9100  178.5710  141.4730 C   0  0  0  0  0  0  0  0  0  0  0  0
  189.6160  177.3310  135.6680 C   0  0  0  0  0  3  0  0  0  0  0  0
  188.3750  177.7760  135.8680 C   0  0  0  0  0  3  0  0  0  0  0  0
  186.0840  178.6460  139.3110 N   0  0  0  0  0  0  0  0  0  0  0  0
  188.7700  177.5500  138.3380 C   0  0  0  0  0  0  0  0  0  0  0  0
  183.7640  179.1160  139.3540 N   0  0  0  0  0  2  0  0  0  0  0  0
  185.2370  179.0870  141.7910 S   0  0  0  0  0  0  0  0  0  0  0  0
  190.4120  176.8840  136.7720 N   0  0  0  0  0  0  0  0  0  0  0  0
  189.3740  177.4580  140.7200 C   0  0  0  0  0  0  0  0  0  0  0  0
  190.9360  176.6790  139.0210 C   0  0  0  0  0  3  0  0  0  0  0  0
  186.6060  176.3440  137.2640 Cl  0  0  0  0  0  0  0  0  0  0  0  0
  187.7380  178.1640  142.3810 N   0  0  0  0  0  0  0  0  0  0  0  0
  189.0370  177.6410  142.0330 C   0  0  0  0  0  0  0  0  0  0  0  0
  185.0330  178.9660  139.9950 C   0  0  0  0  0  0  0  0  0  0  0  0
  187.2080  178.4130  140.1050 N   0  0  0  0  0  0  0  0  0  0  0  0
  190.6030  176.8840  140.3570 C   0  0  0  0  0  3  0  0  0  0  0  0
  191.5760  175.7730  144.1630 C   0  0  0  0  0  0  0  0  0  0  0  0
  191.6050  176.5780  145.3060 C   0  0  0  0  0  3  0  0  0  0  0  0
  189.9190  177.2460  143.1600 C   0  0  0  0  0  0  0  0  0  0  0  0
  190.8130  177.7270  145.3680 C   0  0  0  0  0  3  0  0  0  0  0  0
  190.7380  176.1050  143.0950 C   0  0  0  0  0  3  0  0  0  0  0  0
  189.9790  178.0630  144.2980 C   0  0  0  0  0  3  0  0  0  0  0  0
  192.3570  174.6660  144.0950 F   0  0  0  0  0  0  0  0  0  0  0  0
  182.5970  179.3790  140.0870 N   0  0  0  0  0  2  0  0  0  0  0  0
  179.9860  180.3420  140.7970 O   0  0  0  0  0  1  0  0  0  0  0  0
  181.4760  179.3930  139.1510 C   0  0  2  0  0  3  0  0  0  0  0  0
  180.1450  179.2760  139.9070 C   0  0  1  0  0  3  0  0  0  0  0  0
  180.8150  176.8000  140.0370 C   0  0  0  0  0  2  0  0  0  0  0  0
  180.9230  176.9460  138.5230 C   0  0  0  0  0  2  0  0  0  0  0  0
  181.6340  178.2550  138.1260 C   0  0  0  0  0  2  0  0  0  0  0  0
  179.9920  177.9400  140.6530 C   0  0  0  0  0  2  0  0  0  0  0  0
  1  8  1  0  0  0  0
  1 13  1  0  0  0  0
  2 14  1  6  0  0  0
  2  8  1  0  0  0  0
  3 18  1  0  0  0  0
  3 12  1  0  0  0  0
  4 10  1  0  0  0  0
  4 15  2  0  0  0  0
  5  6  2  0  0  0  0
  5 11  1  0  0  0  0
  6  2  1  0  0  0  0
  7 17  2  0  0  0  0
  7 18  1  0  0  0  0
  8  3  2  0  0  0  0
  9 17  1  0  0  0  0
  9 27  1  0  0  0  0
 11  1  2  0  0  0  0
 12 16  2  0  0  0  0
 13 19  2  0  0  0  0
 16 15  1  0  0  0  0
 16 22  1  0  0  0  0
 17 10  1  0  0  0  0
 18  4  1  0  0  0  0
 19 12  1  0  0  0  0
 20 21  1  0  0  0  0
 21 23  2  0  0  0  0
 22 25  2  0  0  0  0
 24 22  1  0  0  0  0
 24 20  2  0  0  0  0
 25 23  1  0  0  0  0
 26 20  1  0  0  0  0
 29 30  1  0  0  0  0
 29 27  1  1  0  0  0
 30 34  1  0  0  0  0
 30 28  1  1  0  0  0
 31 34  1  0  0  0  0
 32 31  1  0  0  0  0
 33 32  1  0  0  0  0
 33 29  1  0  0  0  0
M  END
>  <MODEL>
4

>  <REMARK>
 VINA RESULT:      -9.7      4.352      8.542
  Name = 
  3 active torsions:
  status: ('A' for Active; 'I' for Inactive)
    1  A    between atoms: N_3  and  C_13
    2  A    between atoms: N_3  and  N_17
    3  A    between atoms: C_12  and  C_28
                            x       y       z     vdW  Elec       q    Type
                         _______ _______ _______ _____ _____    ______ ____

>  <TORSDO>
F 3

$$$$
=
 OpenBabel10262423503D

 34 39  0  0  1  0  0  0  0  0999 V2000
  190.6150  176.8570  140.0380 C   0  0  0  0  0  0  0  0  0  0  0  0
  188.8460  177.3810  138.3200 C   0  0  2  0  0  3  0  0  0  0  0  0
  188.4780  177.7480  140.8320 C   0  0  0  0  0  0  0  0  0  0  0  0
  186.3500  178.6220  141.7330 C   0  0  0  0  0  0  0  0  0  0  0  0
  191.1890  176.9140  137.7060 C   0  0  0  0  0  3  0  0  0  0  0  0
  189.9770  177.3260  137.3340 C   0  0  0  0  0  3  0  0  0  0  0  0
  186.4810  178.4450  139.4280 N   0  0  0  0  0  0  0  0  0  0  0  0
  189.3250  177.3670  139.7580 C   0  0  0  0  0  0  0  0  0  0  0  0
  184.3490  178.8220  138.4710 N   0  0  0  0  0  2  0  0  0  0  0  0
  184.6950  179.0980  141.2830 S   0  0  0  0  0  0  0  0  0  0  0  0
  191.4620  176.6130  139.0800 N   0  0  0  0  0  0  0  0  0  0  0  0
  188.9010  177.5390  142.1750 C   0  0  0  0  0  0  0  0  0  0  0  0
  191.0180  176.6580  141.3550 C   0  0  0  0  0  3  0  0  0  0  0  0
  187.7860  175.9720  138.0340 Cl  0  0  0  0  0  0  0  0  0  0  0  0
  186.7310  178.3430  142.9380 N   0  0  0  0  0  0  0  0  0  0  0  0
  188.0570  177.8410  143.2080 C   0  0  0  0  0  0  0  0  0  0  0  0
  185.2430  178.7880  139.5850 C   0  0  0  0  0  0  0  0  0  0  0  0
  187.1800  178.3390  140.6310 N   0  0  0  0  0  0  0  0  0  0  0  0
  190.1680  176.9830  142.4090 C   0  0  0  0  0  3  0  0  0  0  0  0
  190.0140  177.1570  146.3980 C   0  0  0  0  0  0  0  0  0  0  0  0
  188.9900  177.1950  147.3490 C   0  0  0  0  0  3  0  0  0  0  0  0
  188.3980  177.5980  144.6320 C   0  0  0  0  0  0  0  0  0  0  0  0
  187.6770  177.4580  146.9490 C   0  0  0  0  0  3  0  0  0  0  0  0
  189.7210  177.3580  145.0460 C   0  0  0  0  0  3  0  0  0  0  0  0
  187.3840  177.6630  145.5980 C   0  0  0  0  0  3  0  0  0  0  0  0
  191.2910  176.9190  146.7880 F   0  0  0  0  0  0  0  0  0  0  0  0
  182.9850  179.1090  138.6310 N   0  0  0  0  0  2  0  0  0  0  0  0
  180.1170  178.9460  138.6370 O   0  0  0  0  0  1  0  0  0  0  0  0
  182.2380  178.2640  137.7040 C   0  0  2  0  0  3  0  0  0  0  0  0
  180.9040  177.8320  138.3280 C   0  0  1  0  0  3  0  0  0  0  0  0
  182.4100  176.1830  139.5960 C   0  0  0  0  0  2  0  0  0  0  0  0
  182.8530  175.8000  138.1880 C   0  0  0  0  0  2  0  0  0  0  0  0
  183.0870  177.0430  137.3070 C   0  0  0  0  0  2  0  0  0  0  0  0
  181.0810  176.9510  139.5750 C   0  0  0  0  0  2  0  0  0  0  0  0
  1 13  1  0  0  0  0
  2 14  1  1  0  0  0
  2  8  1  0  0  0  0
  3 12  1  0  0  0  0
  4 15  2  0  0  0  0
  5 11  1  0  0  0  0
  6  5  2  0  0  0  0
  6  2  1  0  0  0  0
  7 17  2  0  0  0  0
  7 18  1  0  0  0  0
  8  1  1  0  0  0  0
  8  3  2  0  0  0  0
  9 27  1  0  0  0  0
  9 17  1  0  0  0  0
 10  4  1  0  0  0  0
 11  1  2  0  0  0  0
 12 19  1  0  0  0  0
 12 16  2  0  0  0  0
 13 19  2  0  0  0  0
 15 16  1  0  0  0  0
 16 22  1  0  0  0  0
 17 10  1  0  0  0  0
 18  3  1  0  0  0  0
 18  4  1  0  0  0  0
 20 26  1  0  0  0  0
 20 21  1  0  0  0  0
 22 24  1  0  0  0  0
 22 25  2  0  0  0  0
 23 21  2  0  0  0  0
 24 20  2  0  0  0  0
 25 23  1  0  0  0  0
 29 30  1  0  0  0  0
 29 27  1  1  0  0  0
 30 28  1  1  0  0  0
 30 34  1  0  0  0  0
 32 31  1  0  0  0  0
 33 29  1  0  0  0  0
 33 32  1  0  0  0  0
 34 31  1  0  0  0  0
M  END
>  <MODEL>
5

>  <REMARK>
 VINA RESULT:      -9.7      4.131      7.356
  Name = 
  3 active torsions:
  status: ('A' for Active; 'I' for Inactive)
    1  A    between atoms: N_3  and  C_13
    2  A    between atoms: N_3  and  N_17
    3  A    between atoms: C_12  and  C_28
                            x       y       z     vdW  Elec       q    Type
                         _______ _______ _______ _____ _____    ______ ____

>  <TORSDO>
F 3

$$$$
=
 OpenBabel10262423503D

 34 39  0  0  1  0  0  0  0  0999 V2000
  185.6090  178.2980  146.0190 C   0  0  0  0  0  0  0  0  0  0  0  0
  185.0540  178.7300  143.5980 C   0  0  2  0  0  3  0  0  0  0  0  0
  187.3020  177.7450  144.3410 C   0  0  0  0  0  0  0  0  0  0  0  0
  189.0830  177.1760  142.7250 C   0  0  0  0  0  0  0  0  0  0  0  0
  183.3460  178.7880  145.3780 C   0  0  0  0  0  3  0  0  0  0  0  0
  183.6310  178.8010  144.0760 C   0  0  0  0  0  3  0  0  0  0  0  0
  187.1090  177.9800  141.8200 N   0  0  0  0  0  0  0  0  0  0  0  0
  186.0010  178.2110  144.6620 C   0  0  0  0  0  0  0  0  0  0  0  0
  187.4020  178.4130  139.5110 N   0  0  0  0  0  2  0  0  0  0  0  0
  189.5320  177.2560  141.0050 S   0  0  0  0  0  0  0  0  0  0  0  0
  184.3860  178.6020  146.3460 N   0  0  0  0  0  0  0  0  0  0  0  0
  188.2240  177.4480  145.3830 C   0  0  0  0  0  0  0  0  0  0  0  0
  186.5190  178.0030  147.0300 C   0  0  0  0  0  3  0  0  0  0  0  0
  185.5590  180.3700  143.1030 Cl  0  0  0  0  0  0  0  0  0  0  0  0
  189.9210  176.9930  143.6940 N   0  0  0  0  0  0  0  0  0  0  0  0
  189.5010  177.0670  145.0730 C   0  0  0  0  0  0  0  0  0  0  0  0
  187.8590  177.9080  140.7680 C   0  0  0  0  0  0  0  0  0  0  0  0
  187.7540  177.5630  142.9850 N   0  0  0  0  0  0  0  0  0  0  0  0
  187.8130  177.5960  146.7170 C   0  0  0  0  0  3  0  0  0  0  0  0
  191.6190  177.2800  148.2270 C   0  0  0  0  0  0  0  0  0  0  0  0
  192.4930  176.2060  148.0310 C   0  0  0  0  0  3  0  0  0  0  0  0
  190.5390  176.7970  146.1000 C   0  0  0  0  0  0  0  0  0  0  0  0
  192.3760  175.4130  146.8860 C   0  0  0  0  0  3  0  0  0  0  0  0
  190.6460  177.5740  147.2670 C   0  0  0  0  0  3  0  0  0  0  0  0
  191.4010  175.7040  145.9280 C   0  0  0  0  0  3  0  0  0  0  0  0
  191.7210  178.0380  149.3460 F   0  0  0  0  0  0  0  0  0  0  0  0
  188.2290  178.4220  138.3780 N   0  0  0  0  0  2  0  0  0  0  0  0
  190.5850  177.2710  137.2050 O   0  0  0  0  0  1  0  0  0  0  0  0
  188.2640  177.0650  137.8400 C   0  0  2  0  0  3  0  0  0  0  0  0
  189.3110  176.9580  136.7220 C   0  0  1  0  0  3  0  0  0  0  0  0
  187.4820  178.1240  135.3470 C   0  0  0  0  0  2  0  0  0  0  0  0
  186.6350  176.9520  135.8350 C   0  0  0  0  0  2  0  0  0  0  0  0
  186.8660  176.6660  137.3320 C   0  0  0  0  0  2  0  0  0  0  0  0
  188.9810  177.8340  135.5030 C   0  0  0  0  0  2  0  0  0  0  0  0
  1 11  2  0  0  0  0
  1 13  1  0  0  0  0
  2 14  1  1  0  0  0
  2  6  1  0  0  0  0
  2  8  1  0  0  0  0
  3  8  2  0  0  0  0
  3 12  1  0  0  0  0
  4 18  1  0  0  0  0
  4 15  2  0  0  0  0
  5 11  1  0  0  0  0
  6  5  2  0  0  0  0
  7 18  1  0  0  0  0
  8  1  1  0  0  0  0
  9 17  1  0  0  0  0
 10  4  1  0  0  0  0
 12 19  1  0  0  0  0
 15 16  1  0  0  0  0
 16 12  2  0  0  0  0
 16 22  1  0  0  0  0
 17 10  1  0  0  0  0
 17  7  2  0  0  0  0
 18  3  1  0  0  0  0
 19 13  2  0  0  0  0
 20 26  1  0  0  0  0
 21 20  1  0  0  0  0
 22 24  1  0  0  0  0
 23 21  2  0  0  0  0
 24 20  2  0  0  0  0
 25 22  2  0  0  0  0
 25 23  1  0  0  0  0
 27  9  1  0  0  0  0
 29 27  1  6  0  0  0
 30 28  1  1  0  0  0
 30 29  1  0  0  0  0
 31 34  1  0  0  0  0
 31 32  1  0  0  0  0
 32 33  1  0  0  0  0
 33 29  1  0  0  0  0
 34 30  1  0  0  0  0
M  END
>  <MODEL>
6

>  <REMARK>
 VINA RESULT:      -9.6      3.420      6.001
  Name = 
  3 active torsions:
  status: ('A' for Active; 'I' for Inactive)
    1  A    between atoms: N_3  and  C_13
    2  A    between atoms: N_3  and  N_17
    3  A    between atoms: C_12  and  C_28
                            x       y       z     vdW  Elec       q    Type
                         _______ _______ _______ _____ _____    ______ ____

>  <TORSDO>
F 3

$$$$
=
 OpenBabel10262423503D

 34 39  0  0  1  0  0  0  0  0999 V2000
  190.7260  176.7690  139.1080 C   0  0  0  0  0  0  0  0  0  0  0  0
  188.6940  177.3230  137.7220 C   0  0  2  0  0  3  0  0  0  0  0  0
  188.7740  177.6940  140.2580 C   0  0  0  0  0  0  0  0  0  0  0  0
  186.8480  178.6020  141.5120 C   0  0  0  0  0  0  0  0  0  0  0  0
  190.8880  176.8180  136.7110 C   0  0  0  0  0  3  0  0  0  0  0  0
  189.6370  177.2500  136.5540 C   0  0  0  0  0  3  0  0  0  0  0  0
  186.5750  178.4250  139.2200 N   0  0  0  0  0  0  0  0  0  0  0  0
  189.4160  177.3010  139.0550 C   0  0  0  0  0  0  0  0  0  0  0  0
  184.3160  178.8360  138.6460 N   0  0  0  0  0  2  0  0  0  0  0  0
  185.1480  179.1050  141.3560 S   0  0  0  0  0  0  0  0  0  0  0  0
  191.3900  176.5130  138.0180 N   0  0  0  0  0  0  0  0  0  0  0  0
  189.4200  177.4780  141.5080 C   0  0  0  0  0  0  0  0  0  0  0  0
  191.3480  176.5630  140.3360 C   0  0  0  0  0  3  0  0  0  0  0  0
  187.5790  175.9310  137.6270 Cl  0  0  0  0  0  0  0  0  0  0  0  0
  187.4280  178.3160  142.6340 N   0  0  0  0  0  0  0  0  0  0  0  0
  188.7720  177.7930  142.6710 C   0  0  0  0  0  0  0  0  0  0  0  0
  185.3890  178.7880  139.5880 C   0  0  0  0  0  0  0  0  0  0  0  0
  187.4700  178.3060  140.2840 N   0  0  0  0  0  0  0  0  0  0  0  0
  190.7000  176.9020  141.5200 C   0  0  0  0  0  3  0  0  0  0  0  0
  189.1180  177.0160  146.3800 C   0  0  0  0  0  0  0  0  0  0  0  0
  190.5090  177.0290  146.5230 C   0  0  0  0  0  3  0  0  0  0  0  0
  189.3520  177.5430  144.0150 C   0  0  0  0  0  0  0  0  0  0  0  0
  191.3220  177.2740  145.4130 C   0  0  0  0  0  3  0  0  0  0  0  0
  188.5420  177.2710  145.1320 C   0  0  0  0  0  3  0  0  0  0  0  0
  190.7460  177.5240  144.1650 C   0  0  0  0  0  3  0  0  0  0  0  0
  188.3300  176.7620  147.4530 F   0  0  0  0  0  0  0  0  0  0  0  0
  183.0050  179.1460  139.0400 N   0  0  0  0  0  2  0  0  0  0  0  0
  181.1770  179.0390  136.8260 O   0  0  0  0  0  1  0  0  0  0  0  0
  182.1670  177.9830  138.7590 C   0  0  2  0  0  3  0  0  0  0  0  0
  180.8810  178.4100  138.0390 C   0  0  1  0  0  3  0  0  0  0  0  0
  180.1830  179.1210  140.4060 C   0  0  0  0  0  2  0  0  0  0  0  0
  180.5320  177.6740  140.7380 C   0  0  0  0  0  2  0  0  0  0  0  0
  181.8500  177.2380  140.0680 C   0  0  0  0  0  2  0  0  0  0  0  0
  179.9840  179.3170  138.8970 C   0  0  0  0  0  2  0  0  0  0  0  0
  1 13  1  0  0  0  0
  2 14  1  1  0  0  0
  2  8  1  0  0  0  0
  3 18  1  0  0  0  0
  3 12  1  0  0  0  0
  4 15  2  0  0  0  0
  5 11  1  0  0  0  0
  6  5  2  0  0  0  0
  6  2  1  0  0  0  0
  7 17  2  0  0  0  0
  7 18  1  0  0  0  0
  8  1  1  0  0  0  0
  8  3  2  0  0  0  0
  9 27  1  0  0  0  0
  9 17  1  0  0  0  0
 10  4  1  0  0  0  0
 11  1  2  0  0  0  0
 12 19  1  0  0  0  0
 12 16  2  0  0  0  0
 13 19  2  0  0  0  0
 15 16  1  0  0  0  0
 16 22  1  0  0  0  0
 17 10  1  0  0  0  0
 18  4  1  0  0  0  0
 20 21  1  0  0  0  0
 20 26  1  0  0  0  0
 22 25  2  0  0  0  0
 22 24  1  0  0  0  0
 23 21  2  0  0  0  0
 24 20  2  0  0  0  0
 25 23  1  0  0  0  0
 29 27  1  1  0  0  0
 29 33  1  0  0  0  0
 30 28  1  6  0  0  0
 30 29  1  0  0  0  0
 30 34  1  0  0  0  0
 31 32  1  0  0  0  0
 33 32  1  0  0  0  0
 34 31  1  0  0  0  0
M  END
>  <MODEL>
7

>  <REMARK>
 VINA RESULT:      -9.3      3.762      7.942
  Name = 
  3 active torsions:
  status: ('A' for Active; 'I' for Inactive)
    1  A    between atoms: N_3  and  C_13
    2  A    between atoms: N_3  and  N_17
    3  A    between atoms: C_12  and  C_28
                            x       y       z     vdW  Elec       q    Type
                         _______ _______ _______ _____ _____    ______ ____

>  <TORSDO>
F 3

$$$$
=
 OpenBabel10262423503D

 34 39  0  0  1  0  0  0  0  0999 V2000
  190.8070  177.4220  141.8790 C   0  0  0  0  0  0  0  0  0  0  0  0
  190.3900  177.3240  139.3940 C   0  0  2  0  0  3  0  0  0  0  0  0
  188.5510  177.9280  141.0760 C   0  0  0  0  0  0  0  0  0  0  0  0
  186.2380  178.4320  140.3660 C   0  0  0  0  0  0  0  0  0  0  0  0
  192.6620  177.2970  140.3570 C   0  0  0  0  0  3  0  0  0  0  0  0
  191.8860  177.3860  139.2760 C   0  0  0  0  0  3  0  0  0  0  0  0
  187.7480  177.9890  138.6680 N   0  0  0  0  0  0  0  0  0  0  0  0
  189.9050  177.6020  140.8030 C   0  0  0  0  0  0  0  0  0  0  0  0
  186.6000  177.7690  136.6090 N   0  0  0  0  0  2  0  0  0  0  0  0
  185.1520  178.4780  138.9560 S   0  0  0  0  0  0  0  0  0  0  0  0
  192.0780  177.2440  141.6650 N   0  0  0  0  0  0  0  0  0  0  0  0
  188.0960  177.9920  142.4230 C   0  0  0  0  0  0  0  0  0  0  0  0
  190.3510  177.4890  143.1920 C   0  0  0  0  0  3  0  0  0  0  0  0
  189.8570  175.6950  138.8930 Cl  0  0  0  0  0  0  0  0  0  0  0  0
  185.8400  178.4020  141.5970 N   0  0  0  0  0  0  0  0  0  0  0  0
  186.7760  178.2370  142.6840 C   0  0  0  0  0  0  0  0  0  0  0  0
  186.6400  178.0750  138.0040 C   0  0  0  0  0  0  0  0  0  0  0  0
  187.5870  178.1940  140.0390 N   0  0  0  0  0  0  0  0  0  0  0  0
  189.0120  177.7580  143.4600 C   0  0  0  0  0  3  0  0  0  0  0  0
  186.4110  177.9140  146.4580 C   0  0  0  0  0  0  0  0  0  0  0  0
  185.1050  178.3780  146.6370 C   0  0  0  0  0  3  0  0  0  0  0  0
  186.2110  178.2610  144.0570 C   0  0  0  0  0  0  0  0  0  0  0  0
  184.3600  178.8060  145.5350 C   0  0  0  0  0  3  0  0  0  0  0  0
  186.9630  177.8560  145.1740 C   0  0  0  0  0  3  0  0  0  0  0  0
  184.9130  178.7530  144.2530 C   0  0  0  0  0  3  0  0  0  0  0  0
  187.1400  177.5140  147.5290 F   0  0  0  0  0  0  0  0  0  0  0  0
  185.3950  177.7750  135.8900 N   0  0  0  0  0  2  0  0  0  0  0  0
  183.1050  176.9630  134.3580 O   0  0  0  0  0  1  0  0  0  0  0  0
  185.4180  176.6400  134.9710 C   0  0  2  0  0  3  0  0  0  0  0  0
  184.0180  176.0230  134.8450 C   0  0  1  0  0  3  0  0  0  0  0  0
  184.6280  174.9950  137.1180 C   0  0  0  0  0  2  0  0  0  0  0  0
  185.8490  174.4960  136.3510 C   0  0  0  0  0  2  0  0  0  0  0  0
  186.4440  175.5970  135.4510 C   0  0  0  0  0  2  0  0  0  0  0  0
  183.5050  175.4250  136.1640 C   0  0  0  0  0  2  0  0  0  0  0  0
  1 13  1  0  0  0  0
  2 14  1  1  0  0  0
  2  8  1  0  0  0  0
  3 12  1  0  0  0  0
  4 15  2  0  0  0  0
  5 11  1  0  0  0  0
  6  2  1  0  0  0  0
  6  5  2  0  0  0  0
  7 18  1  0  0  0  0
  8  3  2  0  0  0  0
  8  1  1  0  0  0  0
  9 17  1  0  0  0  0
 10  4  1  0  0  0  0
 11  1  2  0  0  0  0
 12 16  2  0  0  0  0
 12 19  1  0  0  0  0
 13 19  2  0  0  0  0
 15 16  1  0  0  0  0
 16 22  1  0  0  0  0
 17  7  2  0  0  0  0
 17 10  1  0  0  0  0
 18  4  1  0  0  0  0
 18  3  1  0  0  0  0
 20 21  1  0  0  0  0
 20 26  1  0  0  0  0
 22 25  2  0  0  0  0
 22 24  1  0  0  0  0
 23 21  2  0  0  0  0
 24 20  2  0  0  0  0
 25 23  1  0  0  0  0
 27  9  1  0  0  0  0
 29 33  1  0  0  0  0
 29 27  1  1  0  0  0
 30 28  1  1  0  0  0
 30 29  1  0  0  0  0
 30 34  1  0  0  0  0
 32 31  1  0  0  0  0
 33 32  1  0  0  0  0
 34 31  1  0  0  0  0
M  END
>  <MODEL>
8

>  <REMARK>
 VINA RESULT:      -8.5      3.970      5.297
  Name = 
  3 active torsions:
  status: ('A' for Active; 'I' for Inactive)
    1  A    between atoms: N_3  and  C_13
    2  A    between atoms: N_3  and  N_17
    3  A    between atoms: C_12  and  C_28
                            x       y       z     vdW  Elec       q    Type
                         _______ _______ _______ _____ _____    ______ ____

>  <TORSDO>
F 3

$$$$
=
 OpenBabel10262423503D

 34 39  0  0  1  0  0  0  0  0999 V2000
  185.7080  178.1820  144.9080 C   0  0  0  0  0  0  0  0  0  0  0  0
  185.4480  178.4920  142.4190 C   0  0  2  0  0  3  0  0  0  0  0  0
  187.5850  177.5440  143.4730 C   0  0  0  0  0  0  0  0  0  0  0  0
  189.5410  176.8920  142.1110 C   0  0  0  0  0  0  0  0  0  0  0  0
  183.5410  178.6420  143.9770 C   0  0  0  0  0  3  0  0  0  0  0  0
  183.9790  178.5880  142.7200 C   0  0  0  0  0  3  0  0  0  0  0  0
  187.6950  177.6510  140.9390 N   0  0  0  0  0  0  0  0  0  0  0  0
  186.2580  178.0270  143.6130 C   0  0  0  0  0  0  0  0  0  0  0  0
  188.2640  177.9660  138.6630 N   0  0  0  0  0  2  0  0  0  0  0  0
  190.1930  176.8850  140.4550 S   0  0  0  0  0  0  0  0  0  0  0  0
  184.4570  178.5040  145.0700 N   0  0  0  0  0  0  0  0  0  0  0  0
  188.3740  177.2990  144.6310 C   0  0  0  0  0  0  0  0  0  0  0  0
  186.4890  177.9390  146.0330 C   0  0  0  0  0  3  0  0  0  0  0  0
  186.0200  180.1050  141.9060 Cl  0  0  0  0  0  0  0  0  0  0  0  0
  190.2570  176.7580  143.1820 N   0  0  0  0  0  0  0  0  0  0  0  0
  189.6760  176.9020  144.4950 C   0  0  0  0  0  0  0  0  0  0  0  0
  188.5640  177.5250  139.9880 C   0  0  0  0  0  0  0  0  0  0  0  0
  188.1940  177.2930  142.1920 N   0  0  0  0  0  0  0  0  0  0  0  0
  187.8080  177.5150  145.8970 C   0  0  0  0  0  3  0  0  0  0  0  0
  191.3270  177.1940  147.9110 C   0  0  0  0  0  0  0  0  0  0  0  0
  192.2950  176.1890  147.8230 C   0  0  0  0  0  3  0  0  0  0  0  0
  190.5830  176.6830  145.6510 C   0  0  0  0  0  0  0  0  0  0  0  0
  192.3920  175.4150  146.6630 C   0  0  0  0  0  3  0  0  0  0  0  0
  190.4750  177.4410  146.8310 C   0  0  0  0  0  3  0  0  0  0  0  0
  191.5370  175.6580  145.5860 C   0  0  0  0  0  3  0  0  0  0  0  0
  191.2210  177.9340  149.0430 F   0  0  0  0  0  0  0  0  0  0  0  0
  189.2200  177.9170  137.6370 N   0  0  0  0  0  2  0  0  0  0  0  0
  187.6990  175.4820  137.7160 O   0  0  0  0  0  1  0  0  0  0  0  0
  188.5790  177.3440  136.4560 C   0  0  2  0  0  3  0  0  0  0  0  0
  188.4630  175.8200  136.5960 C   0  0  1  0  0  3  0  0  0  0  0  0
  190.9530  175.9040  135.9720 C   0  0  0  0  0  2  0  0  0  0  0  0
  190.4310  176.6910  134.7740 C   0  0  0  0  0  2  0  0  0  0  0  0
  189.3700  177.7280  135.1920 C   0  0  0  0  0  2  0  0  0  0  0  0
  189.8280  175.1160  136.6580 C   0  0  0  0  0  2  0  0  0  0  0  0
  1 11  2  0  0  0  0
  1 13  1  0  0  0  0
  2 14  1  1  0  0  0
  2  6  1  0  0  0  0
  2  8  1  0  0  0  0
  3  8  2  0  0  0  0
  3 12  1  0  0  0  0
  4 18  1  0  0  0  0
  4 15  2  0  0  0  0
  5 11  1  0  0  0  0
  6  5  2  0  0  0  0
  7 18  1  0  0  0  0
  8  1  1  0  0  0  0
  9 17  1  0  0  0  0
 10  4  1  0  0  0  0
 12 19  1  0  0  0  0
 15 16  1  0  0  0  0
 16 12  2  0  0  0  0
 16 22  1  0  0  0  0
 17 10  1  0  0  0  0
 17  7  2  0  0  0  0
 18  3  1  0  0  0  0
 19 13  2  0  0  0  0
 20 26  1  0  0  0  0
 21 20  1  0  0  0  0
 22 24  1  0  0  0  0
 23 21  2  0  0  0  0
 24 20  2  0  0  0  0
 25 22  2  0  0  0  0
 25 23  1  0  0  0  0
 27  9  1  0  0  0  0
 29 30  1  0  0  0  0
 29 27  1  1  0  0  0
 30 34  1  0  0  0  0
 30 28  1  1  0  0  0
 31 34  1  0  0  0  0
 32 33  1  0  0  0  0
 32 31  1  0  0  0  0
 33 29  1  0  0  0  0
M  END
>  <MODEL>
9

>  <REMARK>
 VINA RESULT:      -8.5      3.160      5.808
  Name = 
  3 active torsions:
  status: ('A' for Active; 'I' for Inactive)
    1  A    between atoms: N_3  and  C_13
    2  A    between atoms: N_3  and  N_17
    3  A    between atoms: C_12  and  C_28
                            x       y       z     vdW  Elec       q    Type
                         _______ _______ _______ _____ _____    ______ ____

>  <TORSDO>
F 3

$$$$
