=
 OpenBabel10272413403D

 32 34  0  0  1  0  0  0  0  0999 V2000
  188.6370  176.6800  142.6030 C   0  0  2  0  0  3  0  0  0  0  0  0
  190.4010  176.2190  142.5360 S   0  0  0  0  0  0  0  0  0  0  0  0
  188.1990  177.2700  141.4000 O   0  0  0  0  0  0  0  0  0  0  0  0
  189.3200  177.8520  140.7970 C   0  0  1  0  0  3  0  0  0  0  0  0
  190.4720  176.8860  140.8720 C   0  0  0  0  0  2  0  0  0  0  0  0
  186.8270  177.5730  144.1540 C   0  0  0  0  0  2  0  0  0  0  0  0
  187.3190  177.6390  146.5030 O   0  0  0  0  0  0  0  0  0  0  0  0
  188.6870  177.8710  146.2680 C   0  0  2  0  0  3  0  0  0  0  0  0
  188.3220  177.5510  143.8210 C   0  0  1  0  0  3  0  0  0  0  0  0
  189.1450  177.0970  145.0280 C   0  0  0  0  0  2  0  0  0  0  0  0
  186.6170  178.3020  145.4800 C   0  0  2  0  0  3  0  0  0  0  0  0
  189.4020  178.1960  148.6290 O   0  0  0  0  0  1  0  0  0  0  0  0
  190.2490  176.4590  147.4000 O   0  0  0  0  0  0  0  0  0  0  0  0
  189.4870  177.4610  147.4560 C   0  0  0  0  0  0  0  0  0  0  0  0
  185.1340  178.3400  145.8060 C   0  0  0  0  0  2  0  0  0  0  0  0
  184.3810  179.2070  144.8100 C   0  0  0  0  0  2  0  0  0  0  0  0
  183.4290  178.4410  144.1340 O   0  0  0  0  0  0  0  0  0  0  0  0
  183.3670  179.0040  142.8590 C   0  0  0  0  0  2  0  0  0  0  0  0
  184.1470  178.1450  141.8870 C   0  0  0  0  0  2  0  0  0  0  0  0
  185.1160  179.0110  141.1120 C   0  0  0  0  0  1  0  0  0  0  0  0
  189.0110  178.2040  139.3480 C   0  0  0  0  0  2  0  0  0  0  0  0
  188.8830  177.3580  135.9860 C   0  0  0  0  0  0  0  0  0  0  0  0
  186.6990  177.7370  137.1630 C   0  0  2  0  0  3  0  0  0  0  0  0
  188.6970  176.9740  138.4860 C   0  0  1  0  0  3  0  0  0  0  0  0
  187.0590  178.4490  134.9150 O   0  0  0  0  0  1  0  0  0  0  0  0
  189.6200  177.5560  134.9810 O   0  0  0  0  0  0  0  0  0  0  0  0
  187.1960  176.7880  138.2450 C   0  0  0  0  0  2  0  0  0  0  0  0
  185.3190  177.5920  137.0210 O   0  0  0  0  0  1  0  0  0  0  0  0
  189.4690  176.9530  137.2390 N   0  0  0  0  0  0  0  0  0  0  0  0
  187.3890  177.4500  135.8330 C   0  0  1  0  0  3  0  0  0  0  0  0
  190.8920  176.6460  137.3240 C   0  0  0  0  0  2  0  0  0  0  0  0
  191.0950  175.1590  137.5410 C   0  0  0  0  0  1  0  0  0  0  0  0
  1  3  1  6  0  0  0
  1  9  1  0  0  0  0
  2  1  1  0  0  0  0
  4 21  1  6  0  0  0
  4  5  1  0  0  0  0
  4  3  1  0  0  0  0
  5  2  1  0  0  0  0
  6 11  1  0  0  0  0
  8  7  1  0  0  0  0
  8 14  1  1  0  0  0
  9  6  1  1  0  0  0
  9 10  1  0  0  0  0
 10  8  1  0  0  0  0
 11 15  1  1  0  0  0
 11  7  1  0  0  0  0
 13 14  2  0  0  0  0
 14 12  1  0  0  0  0
 16 15  1  0  0  0  0
 17 16  1  0  0  0  0
 18 17  1  0  0  0  0
 19 18  1  0  0  0  0
 20 19  1  0  0  0  0
 22 29  1  0  0  0  0
 23 28  1  6  0  0  0
 23 27  1  0  0  0  0
 24 21  1  6  0  0  0
 26 22  2  0  0  0  0
 27 24  1  0  0  0  0
 29 31  1  0  0  0  0
 29 24  1  0  0  0  0
 30 25  1  6  0  0  0
 30 22  1  0  0  0  0
 30 23  1  0  0  0  0
 31 32  1  0  0  0  0
M  END
>  <MODEL>
1

>  <REMARK>
 VINA RESULT:      -7.4      0.000      0.000
  Name = 
  10 active torsions:
  status: ('A' for Active; 'I' for Inactive)
    1  A    between atoms: C_1  and  C_20
    2  A    between atoms: C_4  and  C_12
    3  A    between atoms: C_6  and  N_31
    4  A    between atoms: C_9  and  C_28
    5  A    between atoms: C_10  and  C_19
    6  A    between atoms: C_10  and  C_23
    7  A    between atoms: C_15  and  C_26
    8  A    between atoms: C_16  and  C_26
    9  A    between atoms: C_19  and  O_24
   10  A    between atoms: C_20  and  O_24
                            x       y       z     vdW  Elec       q    Type
                         _______ _______ _______ _____ _____    ______ ____

>  <TORSDO>
F 10

$$$$
=
 OpenBabel10272413403D

 32 34  0  0  1  0  0  0  0  0999 V2000
  186.0420  177.6890  144.3920 C   0  0  2  0  0  3  0  0  0  0  0  0
  185.2120  178.7440  145.6290 S   0  0  0  0  0  0  0  0  0  0  0  0
  187.1900  177.0630  144.9170 O   0  0  0  0  0  0  0  0  0  0  0  0
  187.6610  177.8750  145.9560 C   0  0  1  0  0  3  0  0  0  0  0  0
  186.4950  178.3070  146.8040 C   0  0  0  0  0  2  0  0  0  0  0  0
  187.5270  177.8630  142.3320 C   0  0  0  0  0  2  0  0  0  0  0  0
  186.4600  178.3620  140.2400 O   0  0  0  0  0  0  0  0  0  0  0  0
  185.4660  179.1360  140.8670 C   0  0  2  0  0  3  0  0  0  0  0  0
  186.3410  178.4540  143.1010 C   0  0  1  0  0  3  0  0  0  0  0  0
  185.0940  178.5180  142.2170 C   0  0  0  0  0  2  0  0  0  0  0  0
  187.6440  178.5550  140.9760 C   0  0  2  0  0  3  0  0  0  0  0  0
  183.2690  178.2640  140.0870 O   0  0  0  0  0  1  0  0  0  0  0  0
  184.1460  180.1650  139.1600 O   0  0  0  0  0  0  0  0  0  0  0  0
  184.2630  179.2270  139.9930 C   0  0  0  0  0  0  0  0  0  0  0  0
  188.8290  177.9840  140.2160 C   0  0  0  0  0  2  0  0  0  0  0  0
  189.5910  176.9840  141.0710 C   0  0  0  0  0  2  0  0  0  0  0  0
  190.4440  176.2220  140.2700 O   0  0  0  0  0  0  0  0  0  0  0  0
  190.6270  176.9920  139.1220 C   0  0  0  0  0  2  0  0  0  0  0  0
  191.8550  176.5120  138.3790 C   0  0  0  0  0  2  0  0  0  0  0  0
  191.5730  175.1600  137.7570 C   0  0  0  0  0  1  0  0  0  0  0  0
  188.6780  177.1130  146.7950 C   0  0  0  0  0  2  0  0  0  0  0  0
  191.5330  176.4720  144.9300 C   0  0  0  0  0  0  0  0  0  0  0  0
  191.5130  175.6860  147.3150 C   0  0  2  0  0  3  0  0  0  0  0  0
  190.1040  177.6620  146.6550 C   0  0  1  0  0  3  0  0  0  0  0  0
  192.5040  174.3950  145.5700 O   0  0  0  0  0  1  0  0  0  0  0  0
  191.7780  176.2360  143.7150 O   0  0  0  0  0  0  0  0  0  0  0  0
  191.0640  177.0890  147.7000 C   0  0  0  0  0  2  0  0  0  0  0  0
  192.3260  175.1680  148.3220 O   0  0  0  0  0  1  0  0  0  0  0  0
  190.6230  177.5300  145.2900 N   0  0  0  0  0  0  0  0  0  0  0  0
  192.2740  175.7060  145.9940 C   0  0  1  0  0  3  0  0  0  0  0  0
  190.0800  178.4160  144.2670 C   0  0  0  0  0  2  0  0  0  0  0  0
  191.0380  179.5610  144.0020 C   0  0  0  0  0  1  0  0  0  0  0  0
  1  3  1  1  0  0  0
  1  2  1  0  0  0  0
  2  5  1  0  0  0  0
  3  4  1  0  0  0  0
  4 21  1  1  0  0  0
  4  5  1  0  0  0  0
  6  9  1  0  0  0  0
  7  8  1  0  0  0  0
  7 11  1  0  0  0  0
  8 14  1  6  0  0  0
  8 10  1  0  0  0  0
  9 10  1  6  0  0  0
  9  1  1  0  0  0  0
 11 15  1  6  0  0  0
 11  6  1  0  0  0  0
 13 14  2  0  0  0  0
 14 12  1  0  0  0  0
 15 16  1  0  0  0  0
 17 16  1  0  0  0  0
 18 17  1  0  0  0  0
 19 18  1  0  0  0  0
 20 19  1  0  0  0  0
 22 29  1  0  0  0  0
 22 30  1  0  0  0  0
 23 27  1  0  0  0  0
 23 28  1  1  0  0  0
 24 21  1  6  0  0  0
 24 27  1  0  0  0  0
 26 22  2  0  0  0  0
 29 24  1  0  0  0  0
 30 25  1  6  0  0  0
 30 23  1  0  0  0  0
 31 29  1  0  0  0  0
 32 31  1  0  0  0  0
M  END
>  <MODEL>
2

>  <REMARK>
 VINA RESULT:      -7.2      3.169      8.216
  Name = 
  10 active torsions:
  status: ('A' for Active; 'I' for Inactive)
    1  A    between atoms: C_1  and  C_20
    2  A    between atoms: C_4  and  C_12
    3  A    between atoms: C_6  and  N_31
    4  A    between atoms: C_9  and  C_28
    5  A    between atoms: C_10  and  C_19
    6  A    between atoms: C_10  and  C_23
    7  A    between atoms: C_15  and  C_26
    8  A    between atoms: C_16  and  C_26
    9  A    between atoms: C_19  and  O_24
   10  A    between atoms: C_20  and  O_24
                            x       y       z     vdW  Elec       q    Type
                         _______ _______ _______ _____ _____    ______ ____

>  <TORSDO>
F 10

$$$$
=
 OpenBabel10272413403D

 32 34  0  0  1  0  0  0  0  0999 V2000
  185.3630  178.2360  146.3340 C   0  0  2  0  0  3  0  0  0  0  0  0
  185.8200  179.4110  147.6540 S   0  0  0  0  0  0  0  0  0  0  0  0
  186.3890  177.3040  146.0770 O   0  0  0  0  0  0  0  0  0  0  0  0
  187.5960  177.9130  146.4440 C   0  0  1  0  0  3  0  0  0  0  0  0
  187.4140  178.5960  147.7730 C   0  0  0  0  0  2  0  0  0  0  0  0
  185.7180  178.5440  143.8320 C   0  0  0  0  0  2  0  0  0  0  0  0
  183.7610  178.7000  142.4500 O   0  0  0  0  0  0  0  0  0  0  0  0
  183.0180  179.3180  143.4740 C   0  0  2  0  0  3  0  0  0  0  0  0
  184.9050  178.9560  145.0640 C   0  0  1  0  0  3  0  0  0  0  0  0
  183.4100  178.7320  144.8330 C   0  0  0  0  0  2  0  0  0  0  0  0
  185.0860  179.1550  142.5840 C   0  0  2  0  0  3  0  0  0  0  0  0
  180.7800  178.4980  144.1890 O   0  0  0  0  0  1  0  0  0  0  0  0
  181.0330  179.5290  142.1600 O   0  0  0  0  0  0  0  0  0  0  0  0
  181.5600  179.1300  143.2320 C   0  0  0  0  0  0  0  0  0  0  0  0
  185.8970  178.7620  141.3610 C   0  0  0  0  0  2  0  0  0  0  0  0
  187.2740  178.2580  141.7630 C   0  0  0  0  0  2  0  0  0  0  0  0
  188.2530  178.8480  140.9610 O   0  0  0  0  0  0  0  0  0  0  0  0
  188.2470  178.0920  139.7890 C   0  0  0  0  0  2  0  0  0  0  0  0
  189.6620  177.9540  139.2680 C   0  0  0  0  0  2  0  0  0  0  0  0
  190.4860  177.1490  140.2510 C   0  0  0  0  0  1  0  0  0  0  0  0
  188.7030  176.8700  146.5260 C   0  0  0  0  0  2  0  0  0  0  0  0
  191.6190  176.2020  144.7690 C   0  0  0  0  0  0  0  0  0  0  0  0
  191.5870  175.6240  147.2120 C   0  0  2  0  0  3  0  0  0  0  0  0
  190.1050  177.4700  146.3620 C   0  0  1  0  0  3  0  0  0  0  0  0
  192.6680  174.2340  145.6010 O   0  0  0  0  0  1  0  0  0  0  0  0
  191.8970  175.8740  143.5830 O   0  0  0  0  0  0  0  0  0  0  0  0
  191.0700  177.0330  147.4670 C   0  0  0  0  0  2  0  0  0  0  0  0
  192.4020  175.2320  148.2730 O   0  0  0  0  0  1  0  0  0  0  0  0
  190.6560  177.2440  145.0210 N   0  0  0  0  0  0  0  0  0  0  0  0
  192.3720  175.5650  145.9060 C   0  0  1  0  0  3  0  0  0  0  0  0
  190.0940  178.0140  143.9170 C   0  0  0  0  0  2  0  0  0  0  0  0
  190.9040  179.2770  143.6930 C   0  0  0  0  0  1  0  0  0  0  0  0
  1  3  1  6  0  0  0
  1  2  1  0  0  0  0
  2  5  1  0  0  0  0
  3  4  1  0  0  0  0
  4 21  1  1  0  0  0
  4  5  1  0  0  0  0
  7 11  1  0  0  0  0
  7  8  1  0  0  0  0
  8 14  1  6  0  0  0
  8 10  1  0  0  0  0
  9  6  1  6  0  0  0
  9  1  1  0  0  0  0
 10  9  1  0  0  0  0
 11 15  1  6  0  0  0
 11  6  1  0  0  0  0
 13 14  2  0  0  0  0
 14 12  1  0  0  0  0
 15 16  1  0  0  0  0
 17 16  1  0  0  0  0
 18 17  1  0  0  0  0
 19 18  1  0  0  0  0
 19 20  1  0  0  0  0
 22 29  1  0  0  0  0
 22 30  1  0  0  0  0
 23 27  1  0  0  0  0
 23 28  1  1  0  0  0
 24 21  1  6  0  0  0
 24 27  1  0  0  0  0
 26 22  2  0  0  0  0
 29 24  1  0  0  0  0
 30 25  1  6  0  0  0
 30 23  1  0  0  0  0
 31 29  1  0  0  0  0
 32 31  1  0  0  0  0
M  END
>  <MODEL>
3

>  <REMARK>
 VINA RESULT:      -7.0      3.271      7.848
  Name = 
  10 active torsions:
  status: ('A' for Active; 'I' for Inactive)
    1  A    between atoms: C_1  and  C_20
    2  A    between atoms: C_4  and  C_12
    3  A    between atoms: C_6  and  N_31
    4  A    between atoms: C_9  and  C_28
    5  A    between atoms: C_10  and  C_19
    6  A    between atoms: C_10  and  C_23
    7  A    between atoms: C_15  and  C_26
    8  A    between atoms: C_16  and  C_26
    9  A    between atoms: C_19  and  O_24
   10  A    between atoms: C_20  and  O_24
                            x       y       z     vdW  Elec       q    Type
                         _______ _______ _______ _____ _____    ______ ____

>  <TORSDO>
F 10

$$$$
=
 OpenBabel10272413403D

 32 34  0  0  1  0  0  0  0  0999 V2000
  188.9610  177.9770  140.2780 C   0  0  2  0  0  3  0  0  0  0  0  0
  190.5790  177.1880  139.9780 S   0  0  0  0  0  0  0  0  0  0  0  0
  188.4860  177.7290  141.5820 O   0  0  0  0  0  0  0  0  0  0  0  0
  189.0590  176.5240  142.0040 C   0  0  1  0  0  3  0  0  0  0  0  0
  190.5200  176.5240  141.6430 C   0  0  0  0  0  2  0  0  0  0  0  0
  186.6020  178.3280  139.3870 C   0  0  0  0  0  2  0  0  0  0  0  0
  186.3320  178.4860  137.0070 O   0  0  0  0  0  0  0  0  0  0  0  0
  187.4080  177.6100  136.7700 C   0  0  2  0  0  3  0  0  0  0  0  0
  187.9360  177.5950  139.2080 C   0  0  1  0  0  3  0  0  0  0  0  0
  188.5080  177.8360  137.8100 C   0  0  0  0  0  2  0  0  0  0  0  0
  185.7050  178.0430  138.1860 C   0  0  2  0  0  3  0  0  0  0  0  0
  189.3060  177.6900  135.1630 O   0  0  0  0  0  1  0  0  0  0  0  0
  187.1750  178.1270  134.4480 O   0  0  0  0  0  0  0  0  0  0  0  0
  187.9450  177.8200  135.3960 C   0  0  0  0  0  0  0  0  0  0  0  0
  184.3750  178.7550  138.3670 C   0  0  0  0  0  2  0  0  0  0  0  0
  183.6100  178.1840  139.5510 C   0  0  0  0  0  2  0  0  0  0  0  0
  183.6350  179.0870  140.6160 O   0  0  0  0  0  0  0  0  0  0  0  0
  183.3910  178.3050  141.7440 C   0  0  0  0  0  2  0  0  0  0  0  0
  184.4090  178.6290  142.8160 C   0  0  0  0  0  2  0  0  0  0  0  0
  183.6940  179.0130  144.0930 C   0  0  0  0  0  1  0  0  0  0  0  0
  188.8790  176.3590  143.5080 C   0  0  0  0  0  2  0  0  0  0  0  0
  189.6710  177.4670  146.6990 C   0  0  0  0  0  0  0  0  0  0  0  0
  187.2400  177.3880  146.0750 C   0  0  2  0  0  3  0  0  0  0  0  0
  188.9670  177.6860  144.2720 C   0  0  1  0  0  3  0  0  0  0  0  0
  188.0020  176.7960  148.2580 O   0  0  0  0  0  1  0  0  0  0  0  0
  190.5820  177.2190  147.5360 O   0  0  0  0  0  0  0  0  0  0  0  0
  187.6110  178.1500  144.8110 C   0  0  0  0  0  2  0  0  0  0  0  0
  185.9700  177.7830  146.4960 O   0  0  0  0  0  1  0  0  0  0  0  0
  190.0020  177.6660  145.3110 N   0  0  0  0  0  0  0  0  0  0  0  0
  188.2570  177.6500  147.1820 C   0  0  1  0  0  3  0  0  0  0  0  0
  191.3960  177.7120  144.8830 C   0  0  0  0  0  2  0  0  0  0  0  0
  191.6650  178.9860  144.1050 C   0  0  0  0  0  1  0  0  0  0  0  0
  1  2  1  6  0  0  0
  1  3  1  0  0  0  0
  2  5  1  0  0  0  0
  3  4  1  0  0  0  0
  4 21  1  1  0  0  0
  5  4  1  0  0  0  0
  7 11  1  0  0  0  0
  8 14  1  6  0  0  0
  8  7  1  0  0  0  0
  8 10  1  0  0  0  0
  9 10  1  6  0  0  0
  9  6  1  0  0  0  0
  9  1  1  0  0  0  0
 11 15  1  1  0  0  0
 11  6  1  0  0  0  0
 12 14  1  0  0  0  0
 13 14  2  0  0  0  0
 15 16  1  0  0  0  0
 16 17  1  0  0  0  0
 17 18  1  0  0  0  0
 18 19  1  0  0  0  0
 19 20  1  0  0  0  0
 22 30  1  0  0  0  0
 22 26  2  0  0  0  0
 23 28  1  1  0  0  0
 23 30  1  0  0  0  0
 24 21  1  1  0  0  0
 24 27  1  0  0  0  0
 24 29  1  0  0  0  0
 27 23  1  0  0  0  0
 29 22  1  0  0  0  0
 30 25  1  1  0  0  0
 31 29  1  0  0  0  0
 32 31  1  0  0  0  0
M  END
>  <MODEL>
4

>  <REMARK>
 VINA RESULT:      -6.8      2.136      7.934
  Name = 
  10 active torsions:
  status: ('A' for Active; 'I' for Inactive)
    1  A    between atoms: C_1  and  C_20
    2  A    between atoms: C_4  and  C_12
    3  A    between atoms: C_6  and  N_31
    4  A    between atoms: C_9  and  C_28
    5  A    between atoms: C_10  and  C_19
    6  A    between atoms: C_10  and  C_23
    7  A    between atoms: C_15  and  C_26
    8  A    between atoms: C_16  and  C_26
    9  A    between atoms: C_19  and  O_24
   10  A    between atoms: C_20  and  O_24
                            x       y       z     vdW  Elec       q    Type
                         _______ _______ _______ _____ _____    ______ ____

>  <TORSDO>
F 10

$$$$
=
 OpenBabel10272413403D

 32 34  0  0  1  0  0  0  0  0999 V2000
  189.9640  176.6130  142.9000 C   0  0  2  0  0  3  0  0  0  0  0  0
  191.6030  177.2540  142.4170 S   0  0  0  0  0  0  0  0  0  0  0  0
  189.1120  176.4500  141.7880 O   0  0  0  0  0  0  0  0  0  0  0  0
  189.5380  177.3570  140.8100 C   0  0  1  0  0  3  0  0  0  0  0  0
  191.0390  177.3030  140.7150 C   0  0  0  0  0  2  0  0  0  0  0  0
  187.8050  177.2650  144.0810 C   0  0  0  0  0  2  0  0  0  0  0  0
  187.8750  177.4760  146.4710 O   0  0  0  0  0  0  0  0  0  0  0  0
  189.2140  177.9070  146.4510 C   0  0  2  0  0  3  0  0  0  0  0  0
  189.3230  177.4620  143.9990 C   0  0  1  0  0  3  0  0  0  0  0  0
  189.9840  177.1760  145.3480 C   0  0  0  0  0  2  0  0  0  0  0  0
  187.2690  177.9930  145.3110 C   0  0  2  0  0  3  0  0  0  0  0  0
  191.0460  176.9600  147.8440 O   0  0  0  0  0  0  0  0  0  0  0  0
  189.3050  178.0710  148.8340 O   0  0  0  0  0  1  0  0  0  0  0  0
  189.8510  177.6600  147.7750 C   0  0  0  0  0  0  0  0  0  0  0  0
  185.7620  177.8140  145.3870 C   0  0  0  0  0  2  0  0  0  0  0  0
  185.0510  179.1550  145.3040 C   0  0  0  0  0  2  0  0  0  0  0  0
  183.7360  179.0290  145.7580 O   0  0  0  0  0  0  0  0  0  0  0  0
  182.9900  178.7900  144.6040 C   0  0  0  0  0  2  0  0  0  0  0  0
  183.7180  179.3530  143.4030 C   0  0  0  0  0  2  0  0  0  0  0  0
  183.1140  178.7880  142.1350 C   0  0  0  0  0  1  0  0  0  0  0  0
  188.9050  177.0130  139.4680 C   0  0  0  0  0  2  0  0  0  0  0  0
  186.2860  177.6760  137.2910 C   0  0  0  0  0  0  0  0  0  0  0  0
  188.6100  177.7000  136.3410 C   0  0  2  0  0  3  0  0  0  0  0  0
  188.2680  178.2250  138.7760 C   0  0  1  0  0  3  0  0  0  0  0  0
  186.7580  176.8150  135.1230 O   0  0  0  0  0  1  0  0  0  0  0  0
  185.0820  177.3110  137.1970 O   0  0  0  0  0  0  0  0  0  0  0  0
  188.9950  178.6220  137.4890 C   0  0  0  0  0  2  0  0  0  0  0  0
  189.3430  178.0440  135.2060 O   0  0  0  0  0  1  0  0  0  0  0  0
  186.8250  178.0580  138.5720 N   0  0  0  0  0  0  0  0  0  0  0  0
  187.1170  177.8030  136.0430 C   0  0  1  0  0  3  0  0  0  0  0  0
  185.9580  178.1490  139.7410 C   0  0  0  0  0  2  0  0  0  0  0  0
  186.6730  178.8670  140.8700 C   0  0  0  0  0  1  0  0  0  0  0  0
  1  3  1  6  0  0  0
  1  9  1  0  0  0  0
  2  1  1  0  0  0  0
  4 21  1  6  0  0  0
  4  3  1  0  0  0  0
  5  4  1  0  0  0  0
  5  2  1  0  0  0  0
  6 11  1  0  0  0  0
  8  7  1  0  0  0  0
  8 14  1  1  0  0  0
  9  6  1  1  0  0  0
  9 10  1  0  0  0  0
 10  8  1  0  0  0  0
 11 15  1  1  0  0  0
 11  7  1  0  0  0  0
 14 12  2  0  0  0  0
 14 13  1  0  0  0  0
 16 15  1  0  0  0  0
 16 17  1  0  0  0  0
 18 17  1  0  0  0  0
 19 18  1  0  0  0  0
 20 19  1  0  0  0  0
 22 29  1  0  0  0  0
 23 28  1  6  0  0  0
 23 27  1  0  0  0  0
 24 21  1  6  0  0  0
 26 22  2  0  0  0  0
 27 24  1  0  0  0  0
 29 24  1  0  0  0  0
 29 31  1  0  0  0  0
 30 25  1  6  0  0  0
 30 23  1  0  0  0  0
 30 22  1  0  0  0  0
 31 32  1  0  0  0  0
M  END
>  <MODEL>
5

>  <REMARK>
 VINA RESULT:      -6.7      1.354      2.481
  Name = 
  10 active torsions:
  status: ('A' for Active; 'I' for Inactive)
    1  A    between atoms: C_1  and  C_20
    2  A    between atoms: C_4  and  C_12
    3  A    between atoms: C_6  and  N_31
    4  A    between atoms: C_9  and  C_28
    5  A    between atoms: C_10  and  C_19
    6  A    between atoms: C_10  and  C_23
    7  A    between atoms: C_15  and  C_26
    8  A    between atoms: C_16  and  C_26
    9  A    between atoms: C_19  and  O_24
   10  A    between atoms: C_20  and  O_24
                            x       y       z     vdW  Elec       q    Type
                         _______ _______ _______ _____ _____    ______ ____

>  <TORSDO>
F 10

$$$$
=
 OpenBabel10272413403D

 32 34  0  0  1  0  0  0  0  0999 V2000
  184.9850  179.1350  143.9810 C   0  0  2  0  0  3  0  0  0  0  0  0
  183.3810  179.1340  144.8510 S   0  0  0  0  0  0  0  0  0  0  0  0
  184.8260  179.1270  142.5800 O   0  0  0  0  0  0  0  0  0  0  0  0
  183.5890  178.5280  142.3120 C   0  0  1  0  0  3  0  0  0  0  0  0
  182.5610  179.0880  143.2570 C   0  0  0  0  0  2  0  0  0  0  0  0
  186.9210  177.5850  143.4060 C   0  0  0  0  0  2  0  0  0  0  0  0
  188.5690  177.1980  145.1080 O   0  0  0  0  0  0  0  0  0  0  0  0
  187.6180  177.3280  146.1380 C   0  0  2  0  0  3  0  0  0  0  0  0
  185.8970  178.0050  144.4650 C   0  0  1  0  0  3  0  0  0  0  0  0
  186.5900  178.4010  145.7690 C   0  0  0  0  0  2  0  0  0  0  0  0
  187.9060  176.5950  144.0230 C   0  0  2  0  0  3  0  0  0  0  0  0
  187.5570  178.2190  148.4610 O   0  0  0  0  0  1  0  0  0  0  0  0
  189.5350  177.5050  147.5550 O   0  0  0  0  0  0  0  0  0  0  0  0
  188.2950  177.6810  147.4180 C   0  0  0  0  0  0  0  0  0  0  0  0
  188.9150  176.1630  142.9720 C   0  0  0  0  0  2  0  0  0  0  0  0
  189.0560  177.2200  141.8890 C   0  0  0  0  0  2  0  0  0  0  0  0
  189.9110  178.2360  142.3200 O   0  0  0  0  0  0  0  0  0  0  0  0
  191.1370  177.6010  142.5180 C   0  0  0  0  0  2  0  0  0  0  0  0
  191.7970  178.1510  143.7650 C   0  0  0  0  0  2  0  0  0  0  0  0
  191.2050  179.5040  144.0950 C   0  0  0  0  0  1  0  0  0  0  0  0
  183.1850  178.7870  140.8670 C   0  0  0  0  0  2  0  0  0  0  0  0
  181.1590  178.0880  138.1390 C   0  0  0  0  0  0  0  0  0  0  0  0
  180.9900  180.3830  139.1420 C   0  0  2  0  0  3  0  0  0  0  0  0
  181.7130  178.4560  140.5860 C   0  0  1  0  0  3  0  0  0  0  0  0
  180.8750  180.0250  136.7860 O   0  0  0  0  0  1  0  0  0  0  0  0
  181.2540  177.3600  137.1130 O   0  0  0  0  0  0  0  0  0  0  0  0
  180.8320  179.7040  140.4950 C   0  0  0  0  0  2  0  0  0  0  0  0
  180.2310  181.5530  139.1210 O   0  0  0  0  0  1  0  0  0  0  0  0
  181.5500  177.5730  139.4260 N   0  0  0  0  0  0  0  0  0  0  0  0
  180.5420  179.4560  138.0170 C   0  0  1  0  0  3  0  0  0  0  0  0
  181.9350  176.1740  139.5770 C   0  0  0  0  0  2  0  0  0  0  0  0
  180.7290  175.3370  139.9570 C   0  0  0  0  0  1  0  0  0  0  0  0
  1  3  1  6  0  0  0
  1  9  1  0  0  0  0
  1  2  1  0  0  0  0
  4 21  1  6  0  0  0
  4  3  1  0  0  0  0
  4  5  1  0  0  0  0
  5  2  1  0  0  0  0
  6 11  1  0  0  0  0
  7  8  1  0  0  0  0
  8 14  1  1  0  0  0
  9  6  1  6  0  0  0
  9 10  1  0  0  0  0
 10  8  1  0  0  0  0
 11 15  1  6  0  0  0
 11  7  1  0  0  0  0
 14 13  2  0  0  0  0
 14 12  1  0  0  0  0
 16 17  1  0  0  0  0
 16 15  1  0  0  0  0
 17 18  1  0  0  0  0
 18 19  1  0  0  0  0
 19 20  1  0  0  0  0
 22 29  1  0  0  0  0
 23 28  1  1  0  0  0
 23 27  1  0  0  0  0
 24 21  1  6  0  0  0
 26 22  2  0  0  0  0
 27 24  1  0  0  0  0
 29 31  1  0  0  0  0
 29 24  1  0  0  0  0
 30 25  1  6  0  0  0
 30 22  1  0  0  0  0
 30 23  1  0  0  0  0
 31 32  1  0  0  0  0
M  END
>  <MODEL>
6

>  <REMARK>
 VINA RESULT:      -6.6      3.828      6.282
  Name = 
  10 active torsions:
  status: ('A' for Active; 'I' for Inactive)
    1  A    between atoms: C_1  and  C_20
    2  A    between atoms: C_4  and  C_12
    3  A    between atoms: C_6  and  N_31
    4  A    between atoms: C_9  and  C_28
    5  A    between atoms: C_10  and  C_19
    6  A    between atoms: C_10  and  C_23
    7  A    between atoms: C_15  and  C_26
    8  A    between atoms: C_16  and  C_26
    9  A    between atoms: C_19  and  O_24
   10  A    between atoms: C_20  and  O_24
                            x       y       z     vdW  Elec       q    Type
                         _______ _______ _______ _____ _____    ______ ____

>  <TORSDO>
F 10

$$$$
=
 OpenBabel10272413403D

 32 34  0  0  1  0  0  0  0  0999 V2000
  189.5810  178.1130  140.3790 C   0  0  2  0  0  3  0  0  0  0  0  0
  190.9190  176.8850  140.2020 S   0  0  0  0  0  0  0  0  0  0  0  0
  188.8920  177.9720  141.6010 O   0  0  0  0  0  0  0  0  0  0  0  0
  189.0260  176.6350  141.9940 C   0  0  1  0  0  3  0  0  0  0  0  0
  190.4560  176.2090  141.7970 C   0  0  0  0  0  2  0  0  0  0  0  0
  188.6440  176.7570  138.4390 C   0  0  0  0  0  2  0  0  0  0  0  0
  186.2940  176.9470  137.9910 O   0  0  0  0  0  0  0  0  0  0  0  0
  186.2600  178.2840  138.4300 C   0  0  2  0  0  3  0  0  0  0  0  0
  188.6330  178.0990  139.1770 C   0  0  1  0  0  3  0  0  0  0  0  0
  187.2150  178.4720  139.6130 C   0  0  0  0  0  2  0  0  0  0  0  0
  187.5460  176.7560  137.3790 C   0  0  2  0  0  3  0  0  0  0  0  0
  183.7950  177.9880  138.2640 O   0  0  0  0  0  0  0  0  0  0  0  0
  184.6710  179.5890  139.6480 O   0  0  0  0  0  1  0  0  0  0  0  0
  184.8730  178.6590  138.8220 C   0  0  0  0  0  0  0  0  0  0  0  0
  187.5630  175.4320  136.6330 C   0  0  0  0  0  2  0  0  0  0  0  0
  186.2350  174.7080  136.7800 C   0  0  0  0  0  2  0  0  0  0  0  0
  186.4290  173.4740  137.4030 O   0  0  0  0  0  0  0  0  0  0  0  0
  185.1440  173.0370  137.7230 C   0  0  0  0  0  2  0  0  0  0  0  0
  184.6620  172.0650  136.6670 C   0  0  0  0  0  2  0  0  0  0  0  0
  183.2370  171.6530  136.9720 C   0  0  0  0  0  1  0  0  0  0  0  0
  188.6170  176.4760  143.4520 C   0  0  0  0  0  2  0  0  0  0  0  0
  189.5230  177.4260  146.6640 C   0  0  0  0  0  0  0  0  0  0  0  0
  187.0780  177.4680  146.0960 C   0  0  2  0  0  3  0  0  0  0  0  0
  188.7750  177.7680  144.2650 C   0  0  1  0  0  3  0  0  0  0  0  0
  187.8640  176.7610  148.2350 O   0  0  0  0  0  1  0  0  0  0  0  0
  190.4420  177.1090  147.4680 O   0  0  0  0  0  0  0  0  0  0  0  0
  187.4510  178.2630  144.8530 C   0  0  0  0  0  2  0  0  0  0  0  0
  185.8350  177.8950  146.5620 O   0  0  0  0  0  1  0  0  0  0  0  0
  189.8320  177.6660  145.2770 N   0  0  0  0  0  0  0  0  0  0  0  0
  188.1290  177.6450  147.1870 C   0  0  1  0  0  3  0  0  0  0  0  0
  191.2160  177.6730  144.8180 C   0  0  0  0  0  2  0  0  0  0  0  0
  191.5210  178.9690  144.0910 C   0  0  0  0  0  1  0  0  0  0  0  0
  1  2  1  6  0  0  0
  1  3  1  0  0  0  0
  2  5  1  0  0  0  0
  3  4  1  0  0  0  0
  4 21  1  1  0  0  0
  5  4  1  0  0  0  0
  7  8  1  0  0  0  0
  8 14  1  1  0  0  0
  8 10  1  0  0  0  0
  9  6  1  1  0  0  0
  9 10  1  0  0  0  0
  9  1  1  0  0  0  0
 11 15  1  1  0  0  0
 11  7  1  0  0  0  0
 11  6  1  0  0  0  0
 12 14  2  0  0  0  0
 14 13  1  0  0  0  0
 15 16  1  0  0  0  0
 16 17  1  0  0  0  0
 17 18  1  0  0  0  0
 19 20  1  0  0  0  0
 19 18  1  0  0  0  0
 22 30  1  0  0  0  0
 22 26  2  0  0  0  0
 23 28  1  1  0  0  0
 23 30  1  0  0  0  0
 24 21  1  1  0  0  0
 24 27  1  0  0  0  0
 24 29  1  0  0  0  0
 27 23  1  0  0  0  0
 29 22  1  0  0  0  0
 30 25  1  1  0  0  0
 31 29  1  0  0  0  0
 32 31  1  0  0  0  0
M  END
>  <MODEL>
7

>  <REMARK>
 VINA RESULT:      -6.6      2.822      8.223
  Name = 
  10 active torsions:
  status: ('A' for Active; 'I' for Inactive)
    1  A    between atoms: C_1  and  C_20
    2  A    between atoms: C_4  and  C_12
    3  A    between atoms: C_6  and  N_31
    4  A    between atoms: C_9  and  C_28
    5  A    between atoms: C_10  and  C_19
    6  A    between atoms: C_10  and  C_23
    7  A    between atoms: C_15  and  C_26
    8  A    between atoms: C_16  and  C_26
    9  A    between atoms: C_19  and  O_24
   10  A    between atoms: C_20  and  O_24
                            x       y       z     vdW  Elec       q    Type
                         _______ _______ _______ _____ _____    ______ ____

>  <TORSDO>
F 10

$$$$
=
 OpenBabel10272413403D

 32 34  0  0  1  0  0  0  0  0999 V2000
  185.0070  178.9920  143.2600 C   0  0  2  0  0  3  0  0  0  0  0  0
  183.4700  179.2130  144.2200 S   0  0  0  0  0  0  0  0  0  0  0  0
  184.7480  178.7800  141.8910 O   0  0  0  0  0  0  0  0  0  0  0  0
  183.4700  178.2170  141.7970 C   0  0  1  0  0  3  0  0  0  0  0  0
  182.5370  178.9710  142.7070 C   0  0  0  0  0  2  0  0  0  0  0  0
  187.0720  177.5380  142.9400 C   0  0  0  0  0  2  0  0  0  0  0  0
  188.4960  177.2090  144.8430 O   0  0  0  0  0  0  0  0  0  0  0  0
  187.4130  177.2840  145.7390 C   0  0  2  0  0  3  0  0  0  0  0  0
  185.8980  177.9000  143.8550 C   0  0  1  0  0  3  0  0  0  0  0  0
  186.3930  178.3130  145.2420 C   0  0  0  0  0  2  0  0  0  0  0  0
  188.0120  176.5880  143.6770 C   0  0  2  0  0  3  0  0  0  0  0  0
  189.1190  177.1710  147.5470 O   0  0  0  0  0  0  0  0  0  0  0  0
  187.2020  178.3880  147.8480 O   0  0  0  0  0  1  0  0  0  0  0  0
  187.8980  177.6530  147.0980 C   0  0  0  0  0  0  0  0  0  0  0  0
  189.1700  176.2140  142.7670 C   0  0  0  0  0  2  0  0  0  0  0  0
  190.3820  177.0880  143.0440 C   0  0  0  0  0  2  0  0  0  0  0  0
  190.8250  177.6810  141.8600 O   0  0  0  0  0  0  0  0  0  0  0  0
  190.3480  176.8450  140.8500 C   0  0  0  0  0  2  0  0  0  0  0  0
  190.1060  177.6530  139.5940 C   0  0  0  0  0  2  0  0  0  0  0  0
  188.7260  178.2730  139.6480 C   0  0  0  0  0  1  0  0  0  0  0  0
  182.9760  178.2770  140.3580 C   0  0  0  0  0  2  0  0  0  0  0  0
  182.7730  177.1710  137.0760 C   0  0  0  0  0  0  0  0  0  0  0  0
  181.1220  176.2270  138.7150 C   0  0  2  0  0  3  0  0  0  0  0  0
  183.3560  177.0350  139.5410 C   0  0  1  0  0  3  0  0  0  0  0  0
  180.5100  176.7530  136.4700 O   0  0  0  0  0  1  0  0  0  0  0  0
  183.0060  177.6740  135.9430 O   0  0  0  0  0  0  0  0  0  0  0  0
  182.3040  175.9260  139.6260 C   0  0  0  0  0  2  0  0  0  0  0  0
  180.1540  175.2360  138.8720 O   0  0  0  0  0  1  0  0  0  0  0  0
  183.7080  177.3640  138.1560 N   0  0  0  0  0  0  0  0  0  0  0  0
  181.5660  176.2900  137.2570 C   0  0  1  0  0  3  0  0  0  0  0  0
  184.9850  178.0270  137.9170 C   0  0  0  0  0  2  0  0  0  0  0  0
  185.9910  177.0410  137.3540 C   0  0  0  0  0  1  0  0  0  0  0  0
  1  3  1  6  0  0  0
  1  9  1  0  0  0  0
  1  2  1  0  0  0  0
  4 21  1  6  0  0  0
  4  3  1  0  0  0  0
  4  5  1  0  0  0  0
  5  2  1  0  0  0  0
  6 11  1  0  0  0  0
  7  8  1  0  0  0  0
  8 14  1  1  0  0  0
  9  6  1  6  0  0  0
  9 10  1  0  0  0  0
 10  8  1  0  0  0  0
 11 15  1  6  0  0  0
 11  7  1  0  0  0  0
 14 12  2  0  0  0  0
 14 13  1  0  0  0  0
 15 16  1  0  0  0  0
 17 16  1  0  0  0  0
 18 17  1  0  0  0  0
 19 20  1  0  0  0  0
 19 18  1  0  0  0  0
 22 30  1  0  0  0  0
 22 29  1  0  0  0  0
 23 28  1  6  0  0  0
 23 27  1  0  0  0  0
 24 27  1  0  0  0  0
 24 21  1  6  0  0  0
 26 22  2  0  0  0  0
 29 24  1  0  0  0  0
 30 25  1  6  0  0  0
 30 23  1  0  0  0  0
 31 29  1  0  0  0  0
 32 31  1  0  0  0  0
M  END
>  <MODEL>
8

>  <REMARK>
 VINA RESULT:      -6.5      3.040      5.396
  Name = 
  10 active torsions:
  status: ('A' for Active; 'I' for Inactive)
    1  A    between atoms: C_1  and  C_20
    2  A    between atoms: C_4  and  C_12
    3  A    between atoms: C_6  and  N_31
    4  A    between atoms: C_9  and  C_28
    5  A    between atoms: C_10  and  C_19
    6  A    between atoms: C_10  and  C_23
    7  A    between atoms: C_15  and  C_26
    8  A    between atoms: C_16  and  C_26
    9  A    between atoms: C_19  and  O_24
   10  A    between atoms: C_20  and  O_24
                            x       y       z     vdW  Elec       q    Type
                         _______ _______ _______ _____ _____    ______ ____

>  <TORSDO>
F 10

$$$$
=
 OpenBabel10272413403D

 32 34  0  0  1  0  0  0  0  0999 V2000
  184.5690  179.0220  142.9780 C   0  0  2  0  0  3  0  0  0  0  0  0
  183.1740  179.2140  144.1390 S   0  0  0  0  0  0  0  0  0  0  0  0
  184.1320  178.7190  141.6720 O   0  0  0  0  0  0  0  0  0  0  0  0
  182.8900  178.0840  141.7930 C   0  0  1  0  0  3  0  0  0  0  0  0
  182.0520  178.8360  142.7920 C   0  0  0  0  0  2  0  0  0  0  0  0
  186.8630  177.9790  142.6220 C   0  0  0  0  0  2  0  0  0  0  0  0
  188.2270  177.6200  144.5650 O   0  0  0  0  0  0  0  0  0  0  0  0
  187.1030  177.3940  145.3820 C   0  0  2  0  0  3  0  0  0  0  0  0
  185.6010  178.0150  143.4900 C   0  0  1  0  0  3  0  0  0  0  0  0
  185.9500  178.3050  144.9500 C   0  0  0  0  0  2  0  0  0  0  0  0
  187.9130  177.0990  143.2970 C   0  0  2  0  0  3  0  0  0  0  0  0
  188.5090  176.9590  147.3890 O   0  0  0  0  0  0  0  0  0  0  0  0
  186.7820  178.4600  147.4970 O   0  0  0  0  0  1  0  0  0  0  0  0
  187.4500  177.6430  146.8090 C   0  0  0  0  0  0  0  0  0  0  0  0
  189.1610  177.0470  142.4320 C   0  0  0  0  0  2  0  0  0  0  0  0
  190.0960  175.9410  142.8940 C   0  0  0  0  0  2  0  0  0  0  0  0
  191.3430  176.4760  143.2240 O   0  0  0  0  0  0  0  0  0  0  0  0
  191.6760  175.8680  144.4340 C   0  0  0  0  0  2  0  0  0  0  0  0
  191.5660  176.8780  145.5560 C   0  0  0  0  0  2  0  0  0  0  0  0
  191.7350  176.1760  146.8870 C   0  0  0  0  0  1  0  0  0  0  0  0
  182.1940  178.0350  140.4400 C   0  0  0  0  0  2  0  0  0  0  0  0
  182.2420  177.3430  137.0400 C   0  0  0  0  0  0  0  0  0  0  0  0
  180.7610  175.9220  138.4860 C   0  0  2  0  0  3  0  0  0  0  0  0
  182.8010  176.9940  139.4900 C   0  0  1  0  0  3  0  0  0  0  0  0
  180.0980  176.6180  136.3020 O   0  0  0  0  0  1  0  0  0  0  0  0
  182.3980  178.0210  135.9880 O   0  0  0  0  0  0  0  0  0  0  0  0
  181.9630  175.7170  139.3960 C   0  0  0  0  0  2  0  0  0  0  0  0
  179.9820  174.7650  138.4820 O   0  0  0  0  0  1  0  0  0  0  0  0
  183.1110  177.5560  138.1700 N   0  0  0  0  0  0  0  0  0  0  0  0
  181.2080  176.2490  137.0650 C   0  0  1  0  0  3  0  0  0  0  0  0
  184.2520  178.4570  138.0650 C   0  0  0  0  0  2  0  0  0  0  0  0
  185.5020  177.6800  137.6970 C   0  0  0  0  0  1  0  0  0  0  0  0
  1  3  1  6  0  0  0
  1  9  1  0  0  0  0
  1  2  1  0  0  0  0
  3  4  1  0  0  0  0
  4 21  1  6  0  0  0
  4  5  1  0  0  0  0
  5  2  1  0  0  0  0
  6 11  1  0  0  0  0
  7  8  1  0  0  0  0
  8 14  1  1  0  0  0
  9  6  1  6  0  0  0
  9 10  1  0  0  0  0
 10  8  1  0  0  0  0
 11 15  1  6  0  0  0
 11  7  1  0  0  0  0
 14 12  2  0  0  0  0
 14 13  1  0  0  0  0
 15 16  1  0  0  0  0
 16 17  1  0  0  0  0
 17 18  1  0  0  0  0
 18 19  1  0  0  0  0
 19 20  1  0  0  0  0
 22 30  1  0  0  0  0
 22 29  1  0  0  0  0
 23 28  1  6  0  0  0
 23 27  1  0  0  0  0
 24 21  1  1  0  0  0
 26 22  2  0  0  0  0
 27 24  1  0  0  0  0
 29 24  1  0  0  0  0
 30 25  1  6  0  0  0
 30 23  1  0  0  0  0
 31 29  1  0  0  0  0
 32 31  1  0  0  0  0
M  END
>  <MODEL>
9

>  <REMARK>
 VINA RESULT:      -6.5      3.409      6.075
  Name = 
  10 active torsions:
  status: ('A' for Active; 'I' for Inactive)
    1  A    between atoms: C_1  and  C_20
    2  A    between atoms: C_4  and  C_12
    3  A    between atoms: C_6  and  N_31
    4  A    between atoms: C_9  and  C_28
    5  A    between atoms: C_10  and  C_19
    6  A    between atoms: C_10  and  C_23
    7  A    between atoms: C_15  and  C_26
    8  A    between atoms: C_16  and  C_26
    9  A    between atoms: C_19  and  O_24
   10  A    between atoms: C_20  and  O_24
                            x       y       z     vdW  Elec       q    Type
                         _______ _______ _______ _____ _____    ______ ____

>  <TORSDO>
F 10

$$$$
