=
 OpenBabel10272414543D

 37 41  0  0  1  0  0  0  0  0999 V2000
  192.7050  174.9320  134.7950 C   0  0  2  0  0  3  0  0  0  0  0  0
  192.1190  172.5570  135.4670 C   0  0  0  0  0  3  0  0  0  0  0  0
  190.6320  175.1710  136.3030 C   0  0  1  0  0  3  0  0  0  0  0  0
  189.9990  173.7850  136.0290 C   0  0  1  0  0  3  0  0  0  0  0  0
  191.0160  172.6940  136.2110 C   0  0  0  0  0  3  0  0  0  0  0  0
  191.4160  175.6930  135.0970 C   0  0  0  0  0  2  0  0  0  0  0  0
  192.4850  173.4820  134.3460 C   0  0  0  0  0  2  0  0  0  0  0  0
  188.5490  178.2180  140.6490 O   0  0  0  0  0  0  0  0  0  0  0  0
  189.6990  176.2880  136.8460 C   0  0  1  0  0  3  0  0  0  0  0  0
  189.4010  178.4160  138.4210 C   0  0  1  0  0  3  0  0  0  0  0  0
  190.1680  177.1250  138.0770 C   0  0  2  0  0  0  0  0  0  0  0  0
  188.9860  179.1680  137.1610 C   0  0  0  0  0  2  0  0  0  0  0  0
  191.6440  177.1680  138.4220 C   0  0  0  0  0  2  0  0  0  0  0  0
  190.5460  176.8990  140.6340 C   0  0  0  0  0  2  0  0  0  0  0  0
  188.2150  176.1510  134.5490 Cl  0  0  0  0  0  0  0  0  0  0  0  0
  188.2220  178.2560  136.2130 C   0  0  0  0  0  2  0  0  0  0  0  0
  190.7140  176.2900  139.2460 C   0  0  1  0  0  3  0  0  0  0  0  0
  189.1340  177.1510  135.7020 C   0  0  1  0  0  3  0  0  0  0  0  0
  188.1870  178.1220  139.2990 C   0  0  0  0  0  2  0  0  0  0  0  0
  189.0710  176.9690  141.0090 C   0  0  0  0  0  2  0  0  0  0  0  0
  193.8550  175.2160  135.7770 C   0  0  1  0  0  3  0  0  0  0  0  0
  194.3180  176.6720  135.8160 C   0  0  0  0  0  2  0  0  0  0  0  0
  196.2500  177.9870  135.3060 O   0  0  0  0  0  1  0  0  0  0  0  0
  195.4940  176.8950  134.8800 C   0  0  0  0  0  2  0  0  0  0  0  0
  193.6300  174.6010  137.1640 C   0  0  0  0  0  2  0  0  0  0  0  0
  195.7080  173.4590  136.4520 C   0  0  0  0  0  1  0  0  0  0  0  0
  194.7370  173.6470  137.5970 C   0  0  0  0  0  3  0  0  0  0  0  0
  195.4830  174.2090  138.7910 C   0  0  0  0  0  1  0  0  0  0  0  0
  188.8250  173.4720  136.9470 C   0  0  0  0  0  2  0  0  0  0  0  0
  187.6980  172.8190  136.1690 C   0  0  0  0  0  2  0  0  0  0  0  0
  185.3140  172.4800  136.8430 C   0  0  0  0  0  3  0  0  0  0  0  0
  186.3900  173.3510  136.6370 C   0  0  0  0  0  0  0  0  0  0  0  0
  186.2220  174.7270  136.8320 C   0  0  0  0  0  3  0  0  0  0  0  0
  184.8230  176.5600  137.4380 F   0  0  0  0  0  0  0  0  0  0  0  0
  183.9120  174.3570  137.4580 C   0  0  0  0  0  3  0  0  0  0  0  0
  184.9840  175.2290  137.2450 C   0  0  0  0  0  0  0  0  0  0  0  0
  184.0770  172.9830  137.2560 C   0  0  0  0  0  3  0  0  0  0  0  0
  1  6  1  0  0  0  0
  1 21  1  1  0  0  0
  2  5  2  0  0  0  0
  3  6  1  6  0  0  0
  4  5  1  0  0  0  0
  4  3  1  0  0  0  0
  4 29  1  1  0  0  0
  7  1  1  0  0  0  0
  7  2  1  0  0  0  0
  8 20  1  0  0  0  0
  9  3  1  6  0  0  0
  9 11  1  0  0  0  0
 10 12  1  6  0  0  0
 10 19  1  0  0  0  0
 11 10  1  0  0  0  0
 11 13  1  6  0  0  0
 11 17  1  0  0  0  0
 14 20  1  0  0  0  0
 16 12  1  0  0  0  0
 17 13  1  6  0  0  0
 17 14  1  0  0  0  0
 18 15  1  6  0  0  0
 18 16  1  0  0  0  0
 18  9  1  0  0  0  0
 19  8  1  0  0  0  0
 21 22  1  1  0  0  0
 21 25  1  0  0  0  0
 24 23  1  0  0  0  0
 24 22  1  0  0  0  0
 25 27  1  0  0  0  0
 26 27  1  0  0  0  0
 27 28  1  0  0  0  0
 30 32  1  0  0  0  0
 30 29  1  0  0  0  0
 31 37  1  0  0  0  0
 32 33  1  0  0  0  0
 32 31  2  0  0  0  0
 33 36  2  0  0  0  0
 36 34  1  0  0  0  0
 36 35  1  0  0  0  0
 37 35  2  0  0  0  0
M  END
>  <MODEL>
1

>  <REMARK>
 VINA RESULT:      -5.6      0.000      0.000
  Name = 
  9 active torsions:
  status: ('A' for Active; 'I' for Inactive)
    1  A    between atoms: C_1  and  C_33
    2  A    between atoms: C_4  and  C_10
    3  A    between atoms: C_5  and  C_23
    4  A    between atoms: C_5  and  C_33
    5  A    between atoms: C_6  and  C_31
    6  A    between atoms: C_14  and  C_37
    7  A    between atoms: C_17  and  C_26
    8  A    between atoms: C_17  and  C_33
    9  A    between atoms: C_31  and  C_37
                            x       y       z     vdW  Elec       q    Type
                         _______ _______ _______ _____ _____    ______ ____

>  <TORSDO>
F 9

$$$$
=
 OpenBabel10272414543D

 37 41  0  0  1  0  0  0  0  0999 V2000
  192.9050  175.2590  134.9680 C   0  0  2  0  0  3  0  0  0  0  0  0
  192.4410  172.8430  135.5850 C   0  0  0  0  0  3  0  0  0  0  0  0
  190.7970  175.3530  136.4430 C   0  0  1  0  0  3  0  0  0  0  0  0
  190.2470  173.9400  136.1320 C   0  0  1  0  0  3  0  0  0  0  0  0
  191.3200  172.9030  136.3110 C   0  0  0  0  0  3  0  0  0  0  0  0
  191.5710  175.9410  135.2610 C   0  0  0  0  0  2  0  0  0  0  0  0
  192.7730  173.8080  134.4880 C   0  0  0  0  0  2  0  0  0  0  0  0
  188.4570  178.1760  140.8090 O   0  0  0  0  0  0  0  0  0  0  0  0
  189.7940  176.4060  136.9890 C   0  0  1  0  0  3  0  0  0  0  0  0
  189.3490  178.4750  138.6080 C   0  0  1  0  0  3  0  0  0  0  0  0
  190.1900  177.2340  138.2520 C   0  0  2  0  0  0  0  0  0  0  0  0
  188.9230  179.2360  137.3570 C   0  0  0  0  0  2  0  0  0  0  0  0
  191.6540  177.3460  138.6330 C   0  0  0  0  0  2  0  0  0  0  0  0
  190.5210  176.9640  140.8110 C   0  0  0  0  0  2  0  0  0  0  0  0
  188.3720  176.2500  134.6550 Cl  0  0  0  0  0  0  0  0  0  0  0  0
  188.2300  178.3100  136.3690 C   0  0  0  0  0  2  0  0  0  0  0  0
  190.7520  176.4000  139.4130 C   0  0  1  0  0  3  0  0  0  0  0  0
  189.2110  177.2670  135.8540 C   0  0  1  0  0  3  0  0  0  0  0  0
  188.1320  178.0950  139.4500 C   0  0  0  0  0  2  0  0  0  0  0  0
  189.0360  176.9470  141.1520 C   0  0  0  0  0  2  0  0  0  0  0  0
  194.0210  175.5870  135.9750 C   0  0  1  0  0  3  0  0  0  0  0  0
  193.7420  175.1350  137.4080 C   0  0  0  0  0  2  0  0  0  0  0  0
  194.7770  173.1750  138.3080 O   0  0  0  0  0  1  0  0  0  0  0  0
  194.9830  174.5280  138.0400 C   0  0  0  0  0  2  0  0  0  0  0  0
  195.4190  175.2150  135.4690 C   0  0  0  0  0  2  0  0  0  0  0  0
  195.6510  177.6080  134.8790 C   0  0  0  0  0  1  0  0  0  0  0  0
  195.9820  176.1960  134.4470 C   0  0  0  0  0  3  0  0  0  0  0  0
  197.4870  176.0500  134.3460 C   0  0  0  0  0  1  0  0  0  0  0  0
  189.0770  173.5450  137.0230 C   0  0  0  0  0  2  0  0  0  0  0  0
  188.0830  172.6960  136.2530 C   0  0  0  0  0  2  0  0  0  0  0  0
  186.4020  174.4270  136.9110 C   0  0  0  0  0  3  0  0  0  0  0  0
  186.6960  173.0900  136.6210 C   0  0  0  0  0  0  0  0  0  0  0  0
  185.6930  172.1180  136.7180 C   0  0  0  0  0  3  0  0  0  0  0  0
  183.4260  171.5450  137.1790 F   0  0  0  0  0  0  0  0  0  0  0  0
  184.1030  173.8230  137.3730 C   0  0  0  0  0  3  0  0  0  0  0  0
  184.3970  172.4850  137.0900 C   0  0  0  0  0  0  0  0  0  0  0  0
  185.1060  174.7940  137.2840 C   0  0  0  0  0  3  0  0  0  0  0  0
  1  6  1  0  0  0  0
  1 21  1  1  0  0  0
  2  5  2  0  0  0  0
  3  6  1  6  0  0  0
  4  5  1  0  0  0  0
  4  3  1  0  0  0  0
  4 29  1  1  0  0  0
  7  1  1  0  0  0  0
  7  2  1  0  0  0  0
  8 20  1  0  0  0  0
  9  3  1  6  0  0  0
  9 11  1  0  0  0  0
 10 12  1  6  0  0  0
 10 19  1  0  0  0  0
 11 10  1  0  0  0  0
 11 13  1  6  0  0  0
 11 17  1  0  0  0  0
 14 20  1  0  0  0  0
 16 12  1  0  0  0  0
 17 13  1  6  0  0  0
 17 14  1  0  0  0  0
 18 15  1  6  0  0  0
 18 16  1  0  0  0  0
 18  9  1  0  0  0  0
 19  8  1  0  0  0  0
 21 25  1  6  0  0  0
 21 22  1  0  0  0  0
 22 24  1  0  0  0  0
 24 23  1  0  0  0  0
 27 26  1  0  0  0  0
 27 25  1  0  0  0  0
 28 27  1  0  0  0  0
 30 32  1  0  0  0  0
 30 29  1  0  0  0  0
 31 37  1  0  0  0  0
 32 33  1  0  0  0  0
 32 31  2  0  0  0  0
 33 36  2  0  0  0  0
 36 34  1  0  0  0  0
 36 35  1  0  0  0  0
 37 35  2  0  0  0  0
M  END
>  <MODEL>
2

>  <REMARK>
 VINA RESULT:      -5.4      1.426      2.210
  Name = 
  9 active torsions:
  status: ('A' for Active; 'I' for Inactive)
    1  A    between atoms: C_1  and  C_33
    2  A    between atoms: C_4  and  C_10
    3  A    between atoms: C_5  and  C_23
    4  A    between atoms: C_5  and  C_33
    5  A    between atoms: C_6  and  C_31
    6  A    between atoms: C_14  and  C_37
    7  A    between atoms: C_17  and  C_26
    8  A    between atoms: C_17  and  C_33
    9  A    between atoms: C_31  and  C_37
                            x       y       z     vdW  Elec       q    Type
                         _______ _______ _______ _____ _____    ______ ____

>  <TORSDO>
F 9

$$$$
=
 OpenBabel10272414543D

 37 41  0  0  1  0  0  0  0  0999 V2000
  185.9480  179.1100  141.5340 C   0  0  2  0  0  3  0  0  0  0  0  0
  187.7670  178.0920  140.0880 C   0  0  0  0  0  3  0  0  0  0  0  0
  184.7430  178.3910  139.3760 C   0  0  1  0  0  3  0  0  0  0  0  0
  185.9450  178.5000  138.4050 C   0  0  1  0  0  3  0  0  0  0  0  0
  187.1360  177.7670  138.9550 C   0  0  0  0  0  3  0  0  0  0  0  0
  184.8400  179.3970  140.5240 C   0  0  0  0  0  2  0  0  0  0  0  0
  187.3650  179.2410  140.9620 C   0  0  0  0  0  2  0  0  0  0  0  0
  180.4310  175.8320  136.6610 O   0  0  0  0  0  0  0  0  0  0  0  0
  183.3200  178.4370  138.7560 C   0  0  1  0  0  3  0  0  0  0  0  0
  180.9310  177.2850  138.4970 C   0  0  1  0  0  3  0  0  0  0  0  0
  182.4310  177.1550  138.8250 C   0  0  2  0  0  0  0  0  0  0  0  0
  180.3530  178.5860  139.0420 C   0  0  0  0  0  2  0  0  0  0  0  0
  182.7520  176.0880  139.8540 C   0  0  0  0  0  2  0  0  0  0  0  0
  182.2500  174.7770  137.8040 C   0  0  0  0  0  2  0  0  0  0  0  0
  183.4670  181.1680  138.6390 Cl  0  0  0  0  0  0  0  0  0  0  0  0
  181.1710  179.7800  138.5720 C   0  0  0  0  0  2  0  0  0  0  0  0
  183.1420  175.8610  138.4000 C   0  0  1  0  0  3  0  0  0  0  0  0
  182.5720  179.7190  139.1640 C   0  0  1  0  0  3  0  0  0  0  0  0
  180.6810  177.1700  136.9950 C   0  0  0  0  0  2  0  0  0  0  0  0
  181.6820  175.2330  136.4650 C   0  0  0  0  0  2  0  0  0  0  0  0
  185.6580  177.9280  142.4760 C   0  0  1  0  0  3  0  0  0  0  0  0
  186.6210  177.7990  143.6550 C   0  0  0  0  0  2  0  0  0  0  0  0
  188.6680  176.7330  144.2860 O   0  0  0  0  0  1  0  0  0  0  0  0
  187.5340  176.5970  143.4850 C   0  0  0  0  0  2  0  0  0  0  0  0
  184.1790  177.8180  142.8680 C   0  0  0  0  0  2  0  0  0  0  0  0
  182.1790  179.2290  143.2410 C   0  0  0  0  0  1  0  0  0  0  0  0
  183.6420  179.0530  143.5830 C   0  0  0  0  0  3  0  0  0  0  0  0
  183.7830  178.8980  145.0850 C   0  0  0  0  0  1  0  0  0  0  0  0
  185.6530  177.9260  137.0250 C   0  0  0  0  0  2  0  0  0  0  0  0
  186.7350  176.9450  136.6160 C   0  0  0  0  0  2  0  0  0  0  0  0
  185.4350  175.4950  135.0460 C   0  0  0  0  0  3  0  0  0  0  0  0
  186.1200  175.6380  136.2590 C   0  0  0  0  0  0  0  0  0  0  0  0
  186.1880  174.5630  137.1530 C   0  0  0  0  0  3  0  0  0  0  0  0
  185.6560  172.3030  137.6920 F   0  0  0  0  0  0  0  0  0  0  0  0
  184.9080  173.2010  135.6140 C   0  0  0  0  0  3  0  0  0  0  0  0
  185.5860  173.3440  136.8290 C   0  0  0  0  0  0  0  0  0  0  0  0
  184.8320  174.2760  134.7230 C   0  0  0  0  0  3  0  0  0  0  0  0
  1 21  1  6  0  0  0
  2  7  1  0  0  0  0
  3  6  1  1  0  0  0
  4 29  1  6  0  0  0
  4  5  1  0  0  0  0
  4  3  1  0  0  0  0
  5  2  2  0  0  0  0
  6  1  1  0  0  0  0
  7  1  1  0  0  0  0
  8 19  1  0  0  0  0
  9 11  1  0  0  0  0
  9 18  1  0  0  0  0
  9  3  1  1  0  0  0
 10 19  1  6  0  0  0
 10 11  1  0  0  0  0
 10 12  1  0  0  0  0
 11 13  1  1  0  0  0
 16 12  1  0  0  0  0
 16 18  1  0  0  0  0
 17 14  1  6  0  0  0
 17 11  1  0  0  0  0
 17 13  1  0  0  0  0
 18 15  1  6  0  0  0
 20  8  1  0  0  0  0
 20 14  1  0  0  0  0
 21 25  1  1  0  0  0
 21 22  1  0  0  0  0
 24 22  1  0  0  0  0
 24 23  1  0  0  0  0
 25 27  1  0  0  0  0
 26 27  1  0  0  0  0
 27 28  1  0  0  0  0
 30 29  1  0  0  0  0
 31 32  1  0  0  0  0
 32 30  1  0  0  0  0
 32 33  2  0  0  0  0
 35 36  2  0  0  0  0
 36 33  1  0  0  0  0
 36 34  1  0  0  0  0
 37 31  2  0  0  0  0
 37 35  1  0  0  0  0
M  END
>  <MODEL>
3

>  <REMARK>
 VINA RESULT:      -5.4      5.356      8.721
  Name = 
  9 active torsions:
  status: ('A' for Active; 'I' for Inactive)
    1  A    between atoms: C_1  and  C_33
    2  A    between atoms: C_4  and  C_10
    3  A    between atoms: C_5  and  C_23
    4  A    between atoms: C_5  and  C_33
    5  A    between atoms: C_6  and  C_31
    6  A    between atoms: C_14  and  C_37
    7  A    between atoms: C_17  and  C_26
    8  A    between atoms: C_17  and  C_33
    9  A    between atoms: C_31  and  C_37
                            x       y       z     vdW  Elec       q    Type
                         _______ _______ _______ _____ _____    ______ ____

>  <TORSDO>
F 9

$$$$
=
 OpenBabel10272414543D

 37 41  0  0  1  0  0  0  0  0999 V2000
  184.4720  178.4720  138.5670 C   0  0  2  0  0  3  0  0  0  0  0  0
  185.3860  178.6130  140.9290 C   0  0  0  0  0  3  0  0  0  0  0  0
  186.8890  177.6050  138.3870 C   0  0  1  0  0  3  0  0  0  0  0  0
  187.4940  178.3860  139.5790 C   0  0  1  0  0  3  0  0  0  0  0  0
  186.6530  178.2030  140.8120 C   0  0  0  0  0  3  0  0  0  0  0  0
  185.7410  178.3670  137.7240 C   0  0  0  0  0  2  0  0  0  0  0  0
  184.6350  179.3140  139.8390 C   0  0  0  0  0  2  0  0  0  0  0  0
  189.4380  173.3010  135.6490 O   0  0  0  0  0  0  0  0  0  0  0  0
  187.8730  177.0870  137.3020 C   0  0  1  0  0  3  0  0  0  0  0  0
  188.3350  175.3960  135.2950 C   0  0  1  0  0  3  0  0  0  0  0  0
  187.5420  175.7490  136.5680 C   0  0  2  0  0  0  0  0  0  0  0  0
  188.6000  176.6330  134.4440 C   0  0  0  0  0  2  0  0  0  0  0  0
  186.1150  175.2370  136.5720 C   0  0  0  0  0  2  0  0  0  0  0  0
  187.4600  173.1910  136.9930 C   0  0  0  0  0  2  0  0  0  0  0  0
  189.0850  179.5410  137.2420 Cl  0  0  0  0  0  0  0  0  0  0  0  0
  189.2560  177.7290  135.2700 C   0  0  0  0  0  2  0  0  0  0  0  0
  187.1380  174.5940  137.4970 C   0  0  1  0  0  3  0  0  0  0  0  0
  188.2970  178.2170  136.3460 C   0  0  1  0  0  3  0  0  0  0  0  0
  189.6440  174.6860  135.6380 C   0  0  0  0  0  2  0  0  0  0  0  0
  188.9680  172.9810  136.9300 C   0  0  0  0  0  2  0  0  0  0  0  0
  183.6660  177.1650  138.6650 C   0  0  1  0  0  3  0  0  0  0  0  0
  182.6340  177.1340  139.7920 C   0  0  0  0  0  2  0  0  0  0  0  0
  180.4700  176.2200  140.2440 O   0  0  0  0  0  1  0  0  0  0  0  0
  181.6980  175.9470  139.6430 C   0  0  0  0  0  2  0  0  0  0  0  0
  183.1210  176.6890  137.3130 C   0  0  0  0  0  2  0  0  0  0  0  0
  182.8520  177.4170  134.9620 C   0  0  0  0  0  1  0  0  0  0  0  0
  182.6560  177.8230  136.4070 C   0  0  0  0  0  3  0  0  0  0  0  0
  181.1880  178.1210  136.6410 C   0  0  0  0  0  1  0  0  0  0  0  0
  188.9100  177.9480  139.9250 C   0  0  0  0  0  2  0  0  0  0  0  0
  188.8860  176.7630  140.8730 C   0  0  0  0  0  2  0  0  0  0  0  0
  189.8650  178.3340  142.5550 C   0  0  0  0  0  3  0  0  0  0  0  0
  189.7670  177.0360  142.0400 C   0  0  0  0  0  0  0  0  0  0  0  0
  190.5320  176.0050  142.5980 C   0  0  0  0  0  3  0  0  0  0  0  0
  192.1170  175.2690  144.2190 F   0  0  0  0  0  0  0  0  0  0  0  0
  191.4720  177.5640  144.1950 C   0  0  0  0  0  3  0  0  0  0  0  0
  191.3810  176.2680  143.6770 C   0  0  0  0  0  0  0  0  0  0  0  0
  190.7140  178.5970  143.6330 C   0  0  0  0  0  3  0  0  0  0  0  0
  1 21  1  1  0  0  0
  1  7  1  0  0  0  0
  3  6  1  6  0  0  0
  3  4  1  0  0  0  0
  4 29  1  1  0  0  0
  4  5  1  0  0  0  0
  5  2  2  0  0  0  0
  6  1  1  0  0  0  0
  7  2  1  0  0  0  0
  8 20  1  0  0  0  0
  9  3  1  6  0  0  0
 10 12  1  1  0  0  0
 10 19  1  0  0  0  0
 10 11  1  0  0  0  0
 11 13  1  6  0  0  0
 11  9  1  0  0  0  0
 11 17  1  0  0  0  0
 12 16  1  0  0  0  0
 14 17  1  0  0  0  0
 16 18  1  0  0  0  0
 17 13  1  6  0  0  0
 18 15  1  1  0  0  0
 18  9  1  0  0  0  0
 19  8  1  0  0  0  0
 20 14  1  0  0  0  0
 21 25  1  6  0  0  0
 21 22  1  0  0  0  0
 24 22  1  0  0  0  0
 24 23  1  0  0  0  0
 26 27  1  0  0  0  0
 27 28  1  0  0  0  0
 27 25  1  0  0  0  0
 29 30  1  0  0  0  0
 30 32  1  0  0  0  0
 31 37  1  0  0  0  0
 32 31  2  0  0  0  0
 32 33  1  0  0  0  0
 33 36  2  0  0  0  0
 36 35  1  0  0  0  0
 36 34  1  0  0  0  0
 37 35  2  0  0  0  0
M  END
>  <MODEL>
4

>  <REMARK>
 VINA RESULT:      -5.4      3.880      8.871
  Name = 
  9 active torsions:
  status: ('A' for Active; 'I' for Inactive)
    1  A    between atoms: C_1  and  C_33
    2  A    between atoms: C_4  and  C_10
    3  A    between atoms: C_5  and  C_23
    4  A    between atoms: C_5  and  C_33
    5  A    between atoms: C_6  and  C_31
    6  A    between atoms: C_14  and  C_37
    7  A    between atoms: C_17  and  C_26
    8  A    between atoms: C_17  and  C_33
    9  A    between atoms: C_31  and  C_37
                            x       y       z     vdW  Elec       q    Type
                         _______ _______ _______ _____ _____    ______ ____

>  <TORSDO>
F 9

$$$$
=
 OpenBabel10272414543D

 37 41  0  0  1  0  0  0  0  0999 V2000
  190.7770  173.9920  134.6990 C   0  0  2  0  0  3  0  0  0  0  0  0
  189.5050  171.9660  135.5430 C   0  0  0  0  0  3  0  0  0  0  0  0
  189.1140  174.9350  136.4230 C   0  0  1  0  0  3  0  0  0  0  0  0
  188.0170  173.8500  136.2880 C   0  0  1  0  0  3  0  0  0  0  0  0
  188.6160  172.4760  136.4020 C   0  0  0  0  0  3  0  0  0  0  0  0
  189.8730  175.1500  135.1120 C   0  0  0  0  0  2  0  0  0  0  0  0
  190.0220  172.7040  134.3460 C   0  0  0  0  0  2  0  0  0  0  0  0
  188.9330  178.6110  140.7780 O   0  0  0  0  0  0  0  0  0  0  0  0
  188.6910  176.3060  137.0170 C   0  0  1  0  0  3  0  0  0  0  0  0
  189.3690  178.4620  138.4280 C   0  0  1  0  0  3  0  0  0  0  0  0
  189.6200  176.9840  138.0740 C   0  0  2  0  0  0  0  0  0  0  0  0
  188.9770  179.2710  137.1970 C   0  0  0  0  0  2  0  0  0  0  0  0
  191.0740  176.5620  138.1580 C   0  0  0  0  0  2  0  0  0  0  0  0
  190.3840  176.7220  140.5390 C   0  0  0  0  0  2  0  0  0  0  0  0
  186.8330  176.5860  135.0260 Cl  0  0  0  0  0  0  0  0  0  0  0  0
  187.8040  178.6250  136.4760 C   0  0  0  0  0  2  0  0  0  0  0  0
  190.0900  176.0520  139.2000 C   0  0  1  0  0  3  0  0  0  0  0  0
  188.2170  177.2720  135.9150 C   0  0  1  0  0  3  0  0  0  0  0  0
  188.3120  178.5970  139.5230 C   0  0  0  0  0  2  0  0  0  0  0  0
  189.1010  177.2700  141.1510 C   0  0  0  0  0  2  0  0  0  0  0  0
  192.0670  173.8670  135.5280 C   0  0  1  0  0  3  0  0  0  0  0  0
  192.4070  172.4450  135.9720 C   0  0  0  0  0  2  0  0  0  0  0  0
  194.3250  171.1150  136.5000 O   0  0  0  0  0  1  0  0  0  0  0  0
  193.8460  172.0960  135.6320 C   0  0  0  0  0  2  0  0  0  0  0  0
  193.2520  174.6260  134.9180 C   0  0  0  0  0  2  0  0  0  0  0  0
  194.3290  175.4010  137.0090 C   0  0  0  0  0  1  0  0  0  0  0  0
  193.6730  175.8510  135.7210 C   0  0  0  0  0  3  0  0  0  0  0  0
  194.6580  176.6890  134.9310 C   0  0  0  0  0  1  0  0  0  0  0  0
  186.9310  173.9630  137.3480 C   0  0  0  0  0  2  0  0  0  0  0  0
  186.1590  172.6620  137.4630 C   0  0  0  0  0  2  0  0  0  0  0  0
  184.1580  174.1500  137.6440 C   0  0  0  0  0  3  0  0  0  0  0  0
  184.7070  172.9200  137.2660 C   0  0  0  0  0  0  0  0  0  0  0  0
  183.8810  171.9180  136.7420 C   0  0  0  0  0  3  0  0  0  0  0  0
  181.7140  171.1840  136.0730 F   0  0  0  0  0  0  0  0  0  0  0  0
  181.9660  173.3850  136.9560 C   0  0  0  0  0  3  0  0  0  0  0  0
  182.5120  172.1520  136.5840 C   0  0  0  0  0  0  0  0  0  0  0  0
  182.7890  174.3830  137.4860 C   0  0  0  0  0  3  0  0  0  0  0  0
  1  6  1  0  0  0  0
  1 21  1  1  0  0  0
  2  5  2  0  0  0  0
  3  6  1  6  0  0  0
  4  5  1  0  0  0  0
  4  3  1  0  0  0  0
  4 29  1  1  0  0  0
  7  1  1  0  0  0  0
  7  2  1  0  0  0  0
  8 20  1  0  0  0  0
  9  3  1  6  0  0  0
  9 11  1  0  0  0  0
 10 12  1  6  0  0  0
 10 19  1  0  0  0  0
 11 13  1  6  0  0  0
 11 10  1  0  0  0  0
 11 17  1  0  0  0  0
 14 20  1  0  0  0  0
 16 12  1  0  0  0  0
 17 13  1  6  0  0  0
 17 14  1  0  0  0  0
 18 15  1  1  0  0  0
 18 16  1  0  0  0  0
 18  9  1  0  0  0  0
 19  8  1  0  0  0  0
 21 25  1  6  0  0  0
 21 22  1  0  0  0  0
 24 22  1  0  0  0  0
 24 23  1  0  0  0  0
 25 27  1  0  0  0  0
 27 26  1  0  0  0  0
 28 27  1  0  0  0  0
 29 30  1  0  0  0  0
 32 30  1  0  0  0  0
 32 31  2  0  0  0  0
 33 32  1  0  0  0  0
 34 36  1  0  0  0  0
 35 37  2  0  0  0  0
 36 33  2  0  0  0  0
 36 35  1  0  0  0  0
 37 31  1  0  0  0  0
M  END
>  <MODEL>
5

>  <REMARK>
 VINA RESULT:      -4.7      1.932      2.765
  Name = 
  9 active torsions:
  status: ('A' for Active; 'I' for Inactive)
    1  A    between atoms: C_1  and  C_33
    2  A    between atoms: C_4  and  C_10
    3  A    between atoms: C_5  and  C_23
    4  A    between atoms: C_5  and  C_33
    5  A    between atoms: C_6  and  C_31
    6  A    between atoms: C_14  and  C_37
    7  A    between atoms: C_17  and  C_26
    8  A    between atoms: C_17  and  C_33
    9  A    between atoms: C_31  and  C_37
                            x       y       z     vdW  Elec       q    Type
                         _______ _______ _______ _____ _____    ______ ____

>  <TORSDO>
F 9

$$$$
=
 OpenBabel10272414543D

 37 41  0  0  1  0  0  0  0  0999 V2000
  184.1620  178.8880  137.9110 C   0  0  2  0  0  3  0  0  0  0  0  0
  184.6710  178.8450  140.3960 C   0  0  0  0  0  3  0  0  0  0  0  0
  186.4030  177.6370  138.0980 C   0  0  1  0  0  3  0  0  0  0  0  0
  186.9140  178.2920  139.4050 C   0  0  1  0  0  3  0  0  0  0  0  0
  185.8580  178.2340  140.4730 C   0  0  0  0  0  3  0  0  0  0  0  0
  185.5210  178.5870  137.2860 C   0  0  0  0  0  2  0  0  0  0  0  0
  184.2390  179.6750  139.2260 C   0  0  0  0  0  2  0  0  0  0  0  0
  188.8310  172.9900  135.8570 O   0  0  0  0  0  0  0  0  0  0  0  0
  187.4610  176.9790  137.1700 C   0  0  1  0  0  3  0  0  0  0  0  0
  188.0040  175.1650  135.2960 C   0  0  1  0  0  3  0  0  0  0  0  0
  187.0920  175.6480  136.4390 C   0  0  2  0  0  0  0  0  0  0  0  0
  188.5020  176.3310  134.4500 C   0  0  0  0  0  2  0  0  0  0  0  0
  185.6320  175.2790  136.2690 C   0  0  0  0  0  2  0  0  0  0  0  0
  186.6950  173.1320  136.9280 C   0  0  0  0  0  2  0  0  0  0  0  0
  188.9150  179.2980  137.1970 Cl  0  0  0  0  0  0  0  0  0  0  0  0
  189.1540  177.3930  135.3220 C   0  0  0  0  0  2  0  0  0  0  0  0
  186.4560  174.5810  137.3410 C   0  0  1  0  0  3  0  0  0  0  0  0
  188.1190  178.0190  136.2450 C   0  0  1  0  0  3  0  0  0  0  0  0
  189.1770  174.3460  135.8310 C   0  0  0  0  0  2  0  0  0  0  0  0
  188.1690  172.7740  137.0730 C   0  0  0  0  0  2  0  0  0  0  0  0
  183.1510  177.7310  137.8220 C   0  0  1  0  0  3  0  0  0  0  0  0
  182.7540  177.3390  136.4000 C   0  0  0  0  0  2  0  0  0  0  0  0
  180.9110  178.7730  136.9220 O   0  0  0  0  0  1  0  0  0  0  0  0
  181.3070  177.7060  136.1150 C   0  0  0  0  0  2  0  0  0  0  0  0
  183.5180  176.5400  138.7140 C   0  0  0  0  0  2  0  0  0  0  0  0
  181.5100  177.1830  140.0130 C   0  0  0  0  0  1  0  0  0  0  0  0
  182.3520  176.0160  139.5450 C   0  0  0  0  0  3  0  0  0  0  0  0
  181.4890  175.0840  138.7190 C   0  0  0  0  0  1  0  0  0  0  0  0
  188.1630  177.6220  139.9610 C   0  0  0  0  0  2  0  0  0  0  0  0
  188.9400  178.5870  140.8370 C   0  0  0  0  0  2  0  0  0  0  0  0
  190.7760  177.3080  141.9550 C   0  0  0  0  0  3  0  0  0  0  0  0
  189.4920  177.8630  142.0140 C   0  0  0  0  0  0  0  0  0  0  0  0
  188.7130  177.7000  143.1650 C   0  0  0  0  0  3  0  0  0  0  0  0
  188.4690  176.8410  145.3760 F   0  0  0  0  0  0  0  0  0  0  0  0
  190.5070  176.4470  144.2030 C   0  0  0  0  0  3  0  0  0  0  0  0
  189.2220  176.9950  144.2610 C   0  0  0  0  0  0  0  0  0  0  0  0
  191.2840  176.6030  143.0510 C   0  0  0  0  0  3  0  0  0  0  0  0
  1 21  1  1  0  0  0
  1  7  1  0  0  0  0
  2  5  2  0  0  0  0
  3  6  1  6  0  0  0
  3  4  1  0  0  0  0
  4 29  1  1  0  0  0
  4  5  1  0  0  0  0
  6  1  1  0  0  0  0
  7  2  1  0  0  0  0
  8 20  1  0  0  0  0
  9  3  1  6  0  0  0
 10 12  1  1  0  0  0
 10 19  1  0  0  0  0
 10 11  1  0  0  0  0
 11 13  1  6  0  0  0
 11  9  1  0  0  0  0
 11 17  1  0  0  0  0
 12 16  1  0  0  0  0
 14 20  1  0  0  0  0
 14 17  1  0  0  0  0
 16 18  1  0  0  0  0
 17 13  1  6  0  0  0
 18  9  1  0  0  0  0
 18 15  1  1  0  0  0
 19  8  1  0  0  0  0
 21 22  1  6  0  0  0
 21 25  1  0  0  0  0
 24 22  1  0  0  0  0
 24 23  1  0  0  0  0
 25 27  1  0  0  0  0
 27 26  1  0  0  0  0
 28 27  1  0  0  0  0
 29 30  1  0  0  0  0
 30 32  1  0  0  0  0
 31 32  2  0  0  0  0
 31 37  1  0  0  0  0
 32 33  1  0  0  0  0
 33 36  2  0  0  0  0
 35 36  1  0  0  0  0
 36 34  1  0  0  0  0
 37 35  2  0  0  0  0
M  END
>  <MODEL>
6

>  <REMARK>
 VINA RESULT:      -4.7      3.953      8.785
  Name = 
  9 active torsions:
  status: ('A' for Active; 'I' for Inactive)
    1  A    between atoms: C_1  and  C_33
    2  A    between atoms: C_4  and  C_10
    3  A    between atoms: C_5  and  C_23
    4  A    between atoms: C_5  and  C_33
    5  A    between atoms: C_6  and  C_31
    6  A    between atoms: C_14  and  C_37
    7  A    between atoms: C_17  and  C_26
    8  A    between atoms: C_17  and  C_33
    9  A    between atoms: C_31  and  C_37
                            x       y       z     vdW  Elec       q    Type
                         _______ _______ _______ _____ _____    ______ ____

>  <TORSDO>
F 9

$$$$
=
 OpenBabel10272414543D

 37 41  0  0  1  0  0  0  0  0999 V2000
  183.4130  178.3140  138.8510 C   0  0  2  0  0  3  0  0  0  0  0  0
  185.9000  178.8110  138.8980 C   0  0  0  0  0  3  0  0  0  0  0  0
  184.4310  176.7220  137.1030 C   0  0  1  0  0  3  0  0  0  0  0  0
  185.6670  177.5740  136.7220 C   0  0  1  0  0  3  0  0  0  0  0  0
  186.4080  178.0110  137.9540 C   0  0  0  0  0  3  0  0  0  0  0  0
  183.2410  177.5900  137.5180 C   0  0  0  0  0  2  0  0  0  0  0  0
  184.5150  179.3800  138.8460 C   0  0  0  0  0  2  0  0  0  0  0  0
  185.0830  171.6280  134.6260 O   0  0  0  0  0  0  0  0  0  0  0  0
  183.9660  175.6450  136.0840 C   0  0  1  0  0  3  0  0  0  0  0  0
  183.4430  173.0800  135.5920 C   0  0  1  0  0  3  0  0  0  0  0  0
  184.1710  174.1390  136.4410 C   0  0  2  0  0  0  0  0  0  0  0  0
  182.0400  173.5400  135.2110 C   0  0  0  0  0  2  0  0  0  0  0  0
  184.3710  173.7430  137.8910 C   0  0  0  0  0  2  0  0  0  0  0  0
  186.0530  172.3690  136.6850 C   0  0  0  0  0  2  0  0  0  0  0  0
  182.5270  177.5480  134.7420 Cl  0  0  0  0  0  0  0  0  0  0  0  0
  182.0810  174.9090  134.5480 C   0  0  0  0  0  2  0  0  0  0  0  0
  185.5740  173.7910  136.9610 C   0  0  1  0  0  3  0  0  0  0  0  0
  182.5590  175.9570  135.5430 C   0  0  1  0  0  3  0  0  0  0  0  0
  184.2500  172.7180  134.3460 C   0  0  0  0  0  2  0  0  0  0  0  0
  186.2520  172.1570  135.1890 C   0  0  0  0  0  2  0  0  0  0  0  0
  183.2940  177.4040  140.0870 C   0  0  1  0  0  3  0  0  0  0  0  0
  183.1050  178.1450  141.4100 C   0  0  0  0  0  2  0  0  0  0  0  0
  185.1460  179.1620  142.1340 O   0  0  0  0  0  1  0  0  0  0  0  0
  184.3430  178.0310  142.2820 C   0  0  0  0  0  2  0  0  0  0  0  0
  182.3210  176.2360  139.8860 C   0  0  0  0  0  2  0  0  0  0  0  0
  180.4050  175.6840  138.4180 C   0  0  0  0  0  1  0  0  0  0  0  0
  180.9290  176.6690  139.4410 C   0  0  0  0  0  3  0  0  0  0  0  0
  179.9820  176.7040  140.6240 C   0  0  0  0  0  1  0  0  0  0  0  0
  186.6550  176.8300  135.8350 C   0  0  0  0  0  2  0  0  0  0  0  0
  188.0270  177.4750  135.9080 C   0  0  0  0  0  2  0  0  0  0  0  0
  190.0370  176.9340  137.2940 C   0  0  0  0  0  3  0  0  0  0  0  0
  189.0130  176.4980  136.4450 C   0  0  0  0  0  0  0  0  0  0  0  0
  188.9420  175.1520  136.0700 C   0  0  0  0  0  3  0  0  0  0  0  0
  189.8140  172.9360  136.1940 F   0  0  0  0  0  0  0  0  0  0  0  0
  190.9040  174.6750  137.4080 C   0  0  0  0  0  3  0  0  0  0  0  0
  189.8850  174.2400  136.5540 C   0  0  0  0  0  0  0  0  0  0  0  0
  190.9800  176.0220  137.7770 C   0  0  0  0  0  3  0  0  0  0  0  0
  1 21  1  1  0  0  0
  3  6  1  6  0  0  0
  4 29  1  6  0  0  0
  4  3  1  0  0  0  0
  4  5  1  0  0  0  0
  5  2  2  0  0  0  0
  6  1  1  0  0  0  0
  7  1  1  0  0  0  0
  7  2  1  0  0  0  0
  8 20  1  0  0  0  0
  9 11  1  0  0  0  0
  9  3  1  1  0  0  0
 10 19  1  6  0  0  0
 10 11  1  0  0  0  0
 11 17  1  0  0  0  0
 11 13  1  1  0  0  0
 12 10  1  0  0  0  0
 16 12  1  0  0  0  0
 16 18  1  0  0  0  0
 17 14  1  6  0  0  0
 17 13  1  0  0  0  0
 18 15  1  6  0  0  0
 18  9  1  0  0  0  0
 19  8  1  0  0  0  0
 20 14  1  0  0  0  0
 21 25  1  6  0  0  0
 21 22  1  0  0  0  0
 22 24  1  0  0  0  0
 23 24  1  0  0  0  0
 26 27  1  0  0  0  0
 27 25  1  0  0  0  0
 27 28  1  0  0  0  0
 29 30  1  0  0  0  0
 30 32  1  0  0  0  0
 31 37  1  0  0  0  0
 32 31  2  0  0  0  0
 33 32  1  0  0  0  0
 33 36  2  0  0  0  0
 34 36  1  0  0  0  0
 35 37  2  0  0  0  0
 36 35  1  0  0  0  0
M  END
>  <MODEL>
7

>  <REMARK>
 VINA RESULT:      -4.7      3.618      9.059
  Name = 
  9 active torsions:
  status: ('A' for Active; 'I' for Inactive)
    1  A    between atoms: C_1  and  C_33
    2  A    between atoms: C_4  and  C_10
    3  A    between atoms: C_5  and  C_23
    4  A    between atoms: C_5  and  C_33
    5  A    between atoms: C_6  and  C_31
    6  A    between atoms: C_14  and  C_37
    7  A    between atoms: C_17  and  C_26
    8  A    between atoms: C_17  and  C_33
    9  A    between atoms: C_31  and  C_37
                            x       y       z     vdW  Elec       q    Type
                         _______ _______ _______ _____ _____    ______ ____

>  <TORSDO>
F 9

$$$$
=
 OpenBabel10272414543D

 37 41  0  0  1  0  0  0  0  0999 V2000
  184.7280  176.1000  136.1790 C   0  0  2  0  0  3  0  0  0  0  0  0
  183.1720  176.9660  134.3740 C   0  0  0  0  0  3  0  0  0  0  0  0
  182.7450  177.1230  137.4610 C   0  0  1  0  0  3  0  0  0  0  0  0
  182.3180  178.1730  136.4060 C   0  0  1  0  0  3  0  0  0  0  0  0
  182.1710  177.5340  135.0540 C   0  0  0  0  0  3  0  0  0  0  0  0
  184.2490  176.8470  137.4210 C   0  0  0  0  0  2  0  0  0  0  0  0
  184.5820  176.8940  134.8760 C   0  0  0  0  0  2  0  0  0  0  0  0
  183.9100  178.6970  142.8160 O   0  0  0  0  0  0  0  0  0  0  0  0
  182.2930  177.3620  138.9280 C   0  0  1  0  0  3  0  0  0  0  0  0
  182.3010  178.9560  141.0630 C   0  0  1  0  0  3  0  0  0  0  0  0
  182.9540  178.5230  139.7360 C   0  0  2  0  0  0  0  0  0  0  0  0
  180.7800  178.9240  140.9710 C   0  0  0  0  0  2  0  0  0  0  0  0
  183.6420  179.6470  138.9860 C   0  0  0  0  0  2  0  0  0  0  0  0
  185.2040  179.1660  140.8570 C   0  0  0  0  0  2  0  0  0  0  0  0
  180.1140  175.7580  138.5100 Cl  0  0  0  0  0  0  0  0  0  0  0  0
  180.2960  177.5660  140.4850 C   0  0  0  0  0  2  0  0  0  0  0  0
  184.4870  178.5690  139.6500 C   0  0  1  0  0  3  0  0  0  0  0  0
  180.7590  177.3270  139.0550 C   0  0  1  0  0  3  0  0  0  0  0  0
  182.7910  178.0970  142.2270 C   0  0  0  0  0  2  0  0  0  0  0  0
  185.0230  178.2710  142.0780 C   0  0  0  0  0  2  0  0  0  0  0  0
  184.3640  174.6050  136.1580 C   0  0  1  0  0  3  0  0  0  0  0  0
  185.5310  173.6660  135.8550 C   0  0  0  0  0  2  0  0  0  0  0  0
  186.8190  172.4260  137.4450 O   0  0  0  0  0  1  0  0  0  0  0  0
  186.5690  173.7110  136.9640 C   0  0  0  0  0  2  0  0  0  0  0  0
  183.5170  174.1730  137.3610 C   0  0  0  0  0  2  0  0  0  0  0  0
  181.8130  173.8350  135.5970 C   0  0  0  0  0  1  0  0  0  0  0  0
  182.2560  173.4060  136.9790 C   0  0  0  0  0  3  0  0  0  0  0  0
  182.5250  171.9150  136.9710 C   0  0  0  0  0  1  0  0  0  0  0  0
  180.9950  178.8500  136.7380 C   0  0  0  0  0  2  0  0  0  0  0  0
  180.5900  179.8020  135.6280 C   0  0  0  0  0  2  0  0  0  0  0  0
  180.8610  181.4800  137.4620 C   0  0  0  0  0  3  0  0  0  0  0  0
  180.7300  181.2070  136.0960 C   0  0  0  0  0  0  0  0  0  0  0  0
  180.6880  182.2610  135.1750 C   0  0  0  0  0  3  0  0  0  0  0  0
  180.7550  184.6010  134.7270 F   0  0  0  0  0  0  0  0  0  0  0  0
  180.9290  183.8530  136.9840 C   0  0  0  0  0  3  0  0  0  0  0  0
  180.7910  183.5820  135.6180 C   0  0  0  0  0  0  0  0  0  0  0  0
  180.9640  182.8020  137.9060 C   0  0  0  0  0  3  0  0  0  0  0  0
  1 21  1  6  0  0  0
  1  6  1  0  0  0  0
  2  7  1  0  0  0  0
  2  5  2  0  0  0  0
  3  6  1  1  0  0  0
  4 29  1  1  0  0  0
  4  3  1  0  0  0  0
  5  4  1  0  0  0  0
  7  1  1  0  0  0  0
  9  3  1  6  0  0  0
  9 18  1  0  0  0  0
  9 11  1  0  0  0  0
 10 12  1  6  0  0  0
 10 19  1  0  0  0  0
 11 13  1  6  0  0  0
 11 10  1  0  0  0  0
 14 20  1  0  0  0  0
 16 12  1  0  0  0  0
 17 13  1  6  0  0  0
 17 11  1  0  0  0  0
 17 14  1  0  0  0  0
 18 15  1  1  0  0  0
 18 16  1  0  0  0  0
 19  8  1  0  0  0  0
 20  8  1  0  0  0  0
 21 22  1  1  0  0  0
 21 25  1  0  0  0  0
 22 24  1  0  0  0  0
 24 23  1  0  0  0  0
 26 27  1  0  0  0  0
 27 25  1  0  0  0  0
 28 27  1  0  0  0  0
 30 32  1  0  0  0  0
 30 29  1  0  0  0  0
 31 37  1  0  0  0  0
 32 31  2  0  0  0  0
 33 36  2  0  0  0  0
 33 32  1  0  0  0  0
 34 36  1  0  0  0  0
 35 37  2  0  0  0  0
 36 35  1  0  0  0  0
M  END
>  <MODEL>
8

>  <REMARK>
 VINA RESULT:      -4.6      5.952      9.250
  Name = 
  9 active torsions:
  status: ('A' for Active; 'I' for Inactive)
    1  A    between atoms: C_1  and  C_33
    2  A    between atoms: C_4  and  C_10
    3  A    between atoms: C_5  and  C_23
    4  A    between atoms: C_5  and  C_33
    5  A    between atoms: C_6  and  C_31
    6  A    between atoms: C_14  and  C_37
    7  A    between atoms: C_17  and  C_26
    8  A    between atoms: C_17  and  C_33
    9  A    between atoms: C_31  and  C_37
                            x       y       z     vdW  Elec       q    Type
                         _______ _______ _______ _____ _____    ______ ____

>  <TORSDO>
F 9

$$$$
=
 OpenBabel10272414543D

 37 41  0  0  1  0  0  0  0  0999 V2000
  182.8800  178.4800  138.7740 C   0  0  2  0  0  3  0  0  0  0  0  0
  185.2850  179.1430  139.2320 C   0  0  0  0  0  3  0  0  0  0  0  0
  184.2810  176.9580  137.2430 C   0  0  1  0  0  3  0  0  0  0  0  0
  185.5050  177.8900  137.0650 C   0  0  1  0  0  3  0  0  0  0  0  0
  185.9970  178.3780  138.3990 C   0  0  0  0  0  3  0  0  0  0  0  0
  182.9840  177.7440  137.4410 C   0  0  0  0  0  2  0  0  0  0  0  0
  183.8940  179.6190  138.9410 C   0  0  0  0  0  2  0  0  0  0  0  0
  185.6600  171.9030  134.9940 O   0  0  0  0  0  0  0  0  0  0  0  0
  184.0670  175.8500  136.1760 C   0  0  1  0  0  3  0  0  0  0  0  0
  183.7920  173.2550  135.6380 C   0  0  1  0  0  3  0  0  0  0  0  0
  184.2960  174.3600  136.5850 C   0  0  2  0  0  0  0  0  0  0  0  0
  182.4530  173.6260  135.0110 C   0  0  0  0  0  2  0  0  0  0  0  0
  184.2630  173.9840  138.0540 C   0  0  0  0  0  2  0  0  0  0  0  0
  186.2090  172.7110  137.1790 C   0  0  0  0  0  2  0  0  0  0  0  0
  182.7730  177.6550  134.5750 Cl  0  0  0  0  0  0  0  0  0  0  0  0
  182.5270  174.9920  134.3460 C   0  0  0  0  0  2  0  0  0  0  0  0
  185.6050  174.1020  137.3470 C   0  0  1  0  0  3  0  0  0  0  0  0
  182.7600  176.0720  135.3930 C   0  0  1  0  0  3  0  0  0  0  0  0
  184.8250  172.9390  134.5570 C   0  0  0  0  0  2  0  0  0  0  0  0
  186.6790  172.5050  135.7440 C   0  0  0  0  0  2  0  0  0  0  0  0
  182.6140  177.5680  139.9840 C   0  0  1  0  0  3  0  0  0  0  0  0
  182.2860  176.1180  139.6320 C   0  0  0  0  0  2  0  0  0  0  0  0
  179.9930  176.5570  139.1090 O   0  0  0  0  0  1  0  0  0  0  0  0
  180.8300  175.8000  139.9280 C   0  0  0  0  0  2  0  0  0  0  0  0
  183.6650  177.7130  141.0920 C   0  0  0  0  0  2  0  0  0  0  0  0
  181.8240  178.7820  142.3560 C   0  0  0  0  0  1  0  0  0  0  0  0
  183.3200  178.7760  142.1280 C   0  0  0  0  0  3  0  0  0  0  0  0
  184.0190  178.4830  143.4400 C   0  0  0  0  0  1  0  0  0  0  0  0
  186.6760  177.2110  136.3670 C   0  0  0  0  0  2  0  0  0  0  0  0
  187.9760  177.9210  136.6960 C   0  0  0  0  0  2  0  0  0  0  0  0
  188.8700  175.5860  136.6370 C   0  0  0  0  0  3  0  0  0  0  0  0
  189.0230  176.9200  137.0350 C   0  0  0  0  0  0  0  0  0  0  0  0
  190.1400  177.3000  137.7870 C   0  0  0  0  0  3  0  0  0  0  0  0
  192.1920  176.7220  138.8530 F   0  0  0  0  0  0  0  0  0  0  0  0
  190.9590  175.0220  137.7250 C   0  0  0  0  0  3  0  0  0  0  0  0
  191.1090  176.3530  138.1290 C   0  0  0  0  0  0  0  0  0  0  0  0
  189.8400  174.6390  136.9790 C   0  0  0  0  0  3  0  0  0  0  0  0
  1  7  1  0  0  0  0
  1 21  1  1  0  0  0
  3  6  1  6  0  0  0
  4 29  1  1  0  0  0
  4  3  1  0  0  0  0
  4  5  1  0  0  0  0
  5  2  2  0  0  0  0
  6  1  1  0  0  0  0
  7  2  1  0  0  0  0
  8 20  1  0  0  0  0
  9 11  1  0  0  0  0
  9  3  1  1  0  0  0
 10 19  1  6  0  0  0
 10 11  1  0  0  0  0
 11 17  1  0  0  0  0
 11 13  1  1  0  0  0
 12 10  1  0  0  0  0
 16 12  1  0  0  0  0
 16 18  1  0  0  0  0
 17 14  1  6  0  0  0
 17 13  1  0  0  0  0
 18 15  1  6  0  0  0
 18  9  1  0  0  0  0
 19  8  1  0  0  0  0
 20 14  1  0  0  0  0
 21 22  1  6  0  0  0
 21 25  1  0  0  0  0
 22 24  1  0  0  0  0
 23 24  1  0  0  0  0
 25 27  1  0  0  0  0
 27 26  1  0  0  0  0
 27 28  1  0  0  0  0
 29 30  1  0  0  0  0
 30 32  1  0  0  0  0
 31 37  2  0  0  0  0
 31 32  1  0  0  0  0
 32 33  2  0  0  0  0
 33 36  1  0  0  0  0
 35 36  2  0  0  0  0
 36 34  1  0  0  0  0
 37 35  1  0  0  0  0
M  END
>  <MODEL>
9

>  <REMARK>
 VINA RESULT:      -4.6      3.887      9.188
  Name = 
  9 active torsions:
  status: ('A' for Active; 'I' for Inactive)
    1  A    between atoms: C_1  and  C_33
    2  A    between atoms: C_4  and  C_10
    3  A    between atoms: C_5  and  C_23
    4  A    between atoms: C_5  and  C_33
    5  A    between atoms: C_6  and  C_31
    6  A    between atoms: C_14  and  C_37
    7  A    between atoms: C_17  and  C_26
    8  A    between atoms: C_17  and  C_33
    9  A    between atoms: C_31  and  C_37
                            x       y       z     vdW  Elec       q    Type
                         _______ _______ _______ _____ _____    ______ ____

>  <TORSDO>
F 9

$$$$
