=
 OpenBabel10272414233D

 43 47  0  0  1  0  0  0  0  0999 V2000
  187.9150  177.4220  147.1950 C   0  0  0  0  0  0  0  0  0  0  0  0
  188.6310  177.6710  142.1920 C   0  0  0  0  0  0  0  0  0  0  0  0
  186.2240  178.5960  141.1450 C   0  0  0  0  0  0  0  0  0  0  0  0
  188.8680  177.3250  144.9700 C   0  0  0  0  0  0  0  0  0  0  0  0
  186.7020  177.8660  146.6620 C   0  0  0  0  0  3  0  0  0  0  0  0
  188.0460  177.2480  148.5660 O   0  0  0  0  0  1  0  0  0  0  0  0
  187.6430  177.7770  144.4230 C   0  0  0  0  0  0  0  0  0  0  0  0
  188.9970  177.1520  146.3510 C   0  0  0  0  0  3  0  0  0  0  0  0
  186.5650  178.0440  145.2820 C   0  0  0  0  0  3  0  0  0  0  0  0
  186.3610  178.4040  142.4840 N   0  0  0  0  0  0  0  0  0  0  0  0
  187.5260  177.9540  143.0320 C   0  0  0  0  0  0  0  0  0  0  0  0
  189.8350  177.2250  142.7540 C   0  0  0  0  0  3  0  0  0  0  0  0
  188.4950  177.8510  140.8030 C   0  0  0  0  0  0  0  0  0  0  0  0
  187.2850  178.3180  140.2850 C   0  0  0  0  0  3  0  0  0  0  0  0
  189.9530  177.0530  144.1340 C   0  0  0  0  0  3  0  0  0  0  0  0
  184.9320  179.0820  140.5930 C   0  0  0  0  0  2  0  0  0  0  0  0
  183.8380  178.0450  140.8270 C   0  0  0  0  0  2  0  0  0  0  0  0
  181.3480  178.0270  140.6330 C   0  0  0  0  0  1  0  0  0  0  0  0
  182.6540  178.1950  139.8700 C   0  0  0  0  0  0  0  0  0  0  0  0
  182.6930  179.5720  139.2180 C   0  0  0  0  0  1  0  0  0  0  0  0
  182.7840  177.0980  138.8070 C   0  0  0  0  0  2  0  0  0  0  0  0
  183.4240  177.5650  137.5020 C   0  0  2  0  0  3  0  0  0  0  0  0
  183.9240  176.1800  134.8590 C   0  0  0  0  0  2  0  0  0  0  0  0
  184.4280  175.6130  136.2050 C   0  0  2  0  0  3  0  0  0  0  0  0
  182.3810  177.4900  136.3800 C   0  0  0  0  0  2  0  0  0  0  0  0
  184.6940  176.7510  137.2070 C   0  0  1  0  0  3  0  0  0  0  0  0
  185.6880  177.5910  136.7340 F   0  0  0  0  0  0  0  0  0  0  0  0
  183.0540  177.4340  135.0090 C   0  0  0  0  0  2  0  0  0  0  0  0
  185.6140  174.7570  136.0220 N   0  0  0  0  0  0  0  0  0  0  0  0
  185.0080  173.0120  137.6860 C   0  0  0  0  0  2  0  0  0  0  0  0
  184.4110  172.6350  135.5490 C   0  0  0  0  0  2  0  0  0  0  0  0
  184.9800  172.0310  136.6820 O   0  0  0  0  0  0  0  0  0  0  0  0
  185.3530  173.7170  135.0080 C   0  0  0  0  0  2  0  0  0  0  0  0
  185.9920  174.1210  137.2980 C   0  0  0  0  0  2  0  0  0  0  0  0
  189.8390  177.5170  139.6610 S   0  0  0  0  0  0  0  0  0  0  0  0
  188.7760  177.7390  138.1970 C   0  0  1  0  0  3  0  0  0  0  0  0
  189.1260  179.0320  137.4820 C   0  0  0  0  0  1  0  0  0  0  0  0
  188.8450  176.5300  137.2610 C   0  0  0  0  0  2  0  0  0  0  0  0
  189.9380  176.6530  136.2000 C   0  0  2  0  0  3  0  0  0  0  0  0
  189.3830  176.6230  134.9170 O   0  0  0  0  0  1  0  0  0  0  0  0
  192.2470  176.0420  137.0550 C   0  0  0  0  0  1  0  0  0  0  0  0
  190.3950  174.3940  137.1620 C   0  0  0  0  0  1  0  0  0  0  0  0
  190.9800  175.5480  136.3730 C   0  0  0  0  0  3  0  0  0  0  0  0
  1  6  1  0  0  0  0
  2 12  1  0  0  0  0
  2 11  1  0  0  0  0
  3 10  1  0  0  0  0
  4  8  1  0  0  0  0
  5  1  1  0  0  0  0
  7  4  2  0  0  0  0
  7  9  1  0  0  0  0
  8  1  2  0  0  0  0
  9  5  2  0  0  0  0
 10 11  2  0  0  0  0
 11  7  1  0  0  0  0
 12 15  2  0  0  0  0
 13  2  2  0  0  0  0
 14 13  1  0  0  0  0
 14  3  2  0  0  0  0
 15  4  1  0  0  0  0
 16 17  1  0  0  0  0
 16  3  1  0  0  0  0
 19 18  1  0  0  0  0
 19 17  1  0  0  0  0
 20 19  1  0  0  0  0
 21 19  1  0  0  0  0
 22 21  1  1  0  0  0
 23 28  1  0  0  0  0
 24 23  1  6  0  0  0
 24 26  1  0  0  0  0
 25 22  1  0  0  0  0
 26 27  1  6  0  0  0
 26 22  1  0  0  0  0
 28 25  1  0  0  0  0
 29 24  1  0  0  0  0
 29 34  1  0  0  0  0
 31 32  1  0  0  0  0
 32 30  1  0  0  0  0
 33 31  1  0  0  0  0
 33 29  1  0  0  0  0
 34 30  1  0  0  0  0
 35 13  1  0  0  0  0
 36 37  1  6  0  0  0
 36 35  1  0  0  0  0
 38 36  1  0  0  0  0
 39 40  1  6  0  0  0
 39 43  1  0  0  0  0
 39 38  1  0  0  0  0
 43 41  1  0  0  0  0
 43 42  1  0  0  0  0
M  END
>  <MODEL>
1

>  <REMARK>
 VINA RESULT:      -8.2      0.000      0.000
  Name = 
  11 active torsions:
  status: ('A' for Active; 'I' for Inactive)
    1  A    between atoms: C_1  and  C_9
    2  A    between atoms: C_1  and  S_35
    3  A    between atoms: C_2  and  C_6
    4  A    between atoms: C_2  and  C_13
    5  A    between atoms: C_3  and  C_4
    6  A    between atoms: C_3  and  C_12
    7  A    between atoms: C_6  and  C_12
    8  A    between atoms: C_9  and  C_32
    9  A    between atoms: N_11  and  C_14
   10  A    between atoms: C_32  and  C_37
   11  A    between atoms: C_34  and  S_35
                            x       y       z     vdW  Elec       q    Type
                         _______ _______ _______ _____ _____    ______ ____

>  <TORSDO>
F 11

$$$$
=
 OpenBabel10272414233D

 43 47  0  0  1  0  0  0  0  0999 V2000
  190.5560  176.9520  146.7370 C   0  0  0  0  0  0  0  0  0  0  0  0
  186.6560  177.9850  143.6810 C   0  0  0  0  0  0  0  0  0  0  0  0
  187.7640  178.2920  141.1470 C   0  0  0  0  0  0  0  0  0  0  0  0
  188.3450  177.3800  145.8440 C   0  0  0  0  0  0  0  0  0  0  0  0
  191.1090  177.1280  145.4650 C   0  0  0  0  0  3  0  0  0  0  0  0
  191.3790  176.6520  147.8130 O   0  0  0  0  0  1  0  0  0  0  0  0
  188.8980  177.5580  144.5530 C   0  0  0  0  0  0  0  0  0  0  0  0
  189.1770  177.0770  146.9270 C   0  0  0  0  0  3  0  0  0  0  0  0
  190.2850  177.4290  144.3770 C   0  0  0  0  0  3  0  0  0  0  0  0
  188.5600  178.0150  142.2140 N   0  0  0  0  0  0  0  0  0  0  0  0
  188.0510  177.8560  143.4690 C   0  0  0  0  0  0  0  0  0  0  0  0
  186.1300  177.8050  144.9680 C   0  0  0  0  0  3  0  0  0  0  0  0
  185.8250  178.2860  142.5870 C   0  0  0  0  0  0  0  0  0  0  0  0
  186.3880  178.4360  141.3180 C   0  0  0  0  0  3  0  0  0  0  0  0
  186.9690  177.5040  146.0420 C   0  0  0  0  0  3  0  0  0  0  0  0
  188.3640  178.4630  139.7980 C   0  0  0  0  0  2  0  0  0  0  0  0
  187.3920  177.9820  138.7250 C   0  0  0  0  0  2  0  0  0  0  0  0
  187.0420  177.2380  136.3670 C   0  0  0  0  0  1  0  0  0  0  0  0
  188.0850  177.5900  137.4190 C   0  0  0  0  0  0  0  0  0  0  0  0
  188.9410  178.7500  136.9250 C   0  0  0  0  0  1  0  0  0  0  0  0
  188.9620  176.3690  137.7160 C   0  0  0  0  0  2  0  0  0  0  0  0
  189.2410  175.4900  136.5000 C   0  0  2  0  0  3  0  0  0  0  0  0
  191.2500  173.2870  135.9850 C   0  0  0  0  0  2  0  0  0  0  0  0
  191.6650  174.6990  136.4580 C   0  0  2  0  0  3  0  0  0  0  0  0
  188.9980  174.0240  136.8760 C   0  0  0  0  0  2  0  0  0  0  0  0
  190.6580  175.7520  135.9630 C   0  0  1  0  0  3  0  0  0  0  0  0
  190.6340  175.7890  134.5790 F   0  0  0  0  0  0  0  0  0  0  0  0
  189.7320  173.0840  135.9200 C   0  0  0  0  0  2  0  0  0  0  0  0
  193.0430  175.0230  136.0480 N   0  0  0  0  0  0  0  0  0  0  0  0
  193.7600  176.1040  138.1690 C   0  0  0  0  0  2  0  0  0  0  0  0
  194.2120  173.9120  137.9370 C   0  0  0  0  0  2  0  0  0  0  0  0
  194.7610  175.1360  138.3500 O   0  0  0  0  0  0  0  0  0  0  0  0
  193.9670  173.9370  136.4230 C   0  0  0  0  0  2  0  0  0  0  0  0
  193.4810  176.2860  136.6730 C   0  0  0  0  0  2  0  0  0  0  0  0
  184.0480  178.4680  142.7590 S   0  0  0  0  0  0  0  0  0  0  0  0
  183.7610  178.2890  140.9680 C   0  0  1  0  0  3  0  0  0  0  0  0
  183.0640  176.9720  140.6760 C   0  0  0  0  0  1  0  0  0  0  0  0
  182.9920  179.4820  140.3970 C   0  0  0  0  0  2  0  0  0  0  0  0
  183.3010  179.7490  138.9240 C   0  0  2  0  0  3  0  0  0  0  0  0
  184.2690  180.7500  138.7990 O   0  0  0  0  0  1  0  0  0  0  0  0
  180.9100  179.1060  138.3720 C   0  0  0  0  0  1  0  0  0  0  0  0
  181.5480  181.4950  138.5870 C   0  0  0  0  0  1  0  0  0  0  0  0
  182.0270  180.1200  138.1680 C   0  0  0  0  0  3  0  0  0  0  0  0
  1  8  1  0  0  0  0
  1  6  1  0  0  0  0
  2 12  1  0  0  0  0
  3 14  2  0  0  0  0
  3 10  1  0  0  0  0
  4 15  1  0  0  0  0
  4  8  2  0  0  0  0
  5  1  2  0  0  0  0
  7  4  1  0  0  0  0
  9  7  2  0  0  0  0
  9  5  1  0  0  0  0
 10 11  2  0  0  0  0
 11  2  1  0  0  0  0
 11  7  1  0  0  0  0
 12 15  2  0  0  0  0
 13 35  1  0  0  0  0
 13  2  2  0  0  0  0
 14 13  1  0  0  0  0
 16  3  1  0  0  0  0
 17 16  1  0  0  0  0
 18 19  1  0  0  0  0
 19 21  1  0  0  0  0
 19 17  1  0  0  0  0
 20 19  1  0  0  0  0
 22 25  1  0  0  0  0
 22 21  1  1  0  0  0
 24 23  1  6  0  0  0
 26 27  1  6  0  0  0
 26 24  1  0  0  0  0
 26 22  1  0  0  0  0
 28 23  1  0  0  0  0
 28 25  1  0  0  0  0
 29 33  1  0  0  0  0
 29 24  1  0  0  0  0
 29 34  1  0  0  0  0
 30 32  1  0  0  0  0
 31 32  1  0  0  0  0
 33 31  1  0  0  0  0
 34 30  1  0  0  0  0
 36 37  1  1  0  0  0
 36 35  1  0  0  0  0
 38 36  1  0  0  0  0
 39 40  1  1  0  0  0
 39 38  1  0  0  0  0
 43 41  1  0  0  0  0
 43 42  1  0  0  0  0
 43 39  1  0  0  0  0
M  END
>  <MODEL>
2

>  <REMARK>
 VINA RESULT:      -8.1      3.181      6.526
  Name = 
  11 active torsions:
  status: ('A' for Active; 'I' for Inactive)
    1  A    between atoms: C_1  and  C_9
    2  A    between atoms: C_1  and  S_35
    3  A    between atoms: C_2  and  C_6
    4  A    between atoms: C_2  and  C_13
    5  A    between atoms: C_3  and  C_4
    6  A    between atoms: C_3  and  C_12
    7  A    between atoms: C_6  and  C_12
    8  A    between atoms: C_9  and  C_32
    9  A    between atoms: N_11  and  C_14
   10  A    between atoms: C_32  and  C_37
   11  A    between atoms: C_34  and  S_35
                            x       y       z     vdW  Elec       q    Type
                         _______ _______ _______ _____ _____    ______ ____

>  <TORSDO>
F 11

$$$$
=
 OpenBabel10272414233D

 43 47  0  0  1  0  0  0  0  0999 V2000
  191.0180  176.8520  146.6020 C   0  0  0  0  0  0  0  0  0  0  0  0
  186.9530  177.8420  143.7550 C   0  0  0  0  0  0  0  0  0  0  0  0
  187.9260  178.1810  141.1700 C   0  0  0  0  0  0  0  0  0  0  0  0
  188.7580  177.2510  145.8260 C   0  0  0  0  0  0  0  0  0  0  0  0
  191.5020  177.0440  145.3050 C   0  0  0  0  0  3  0  0  0  0  0  0
  191.8980  176.5590  147.6340 O   0  0  0  0  0  1  0  0  0  0  0  0
  189.2420  177.4450  144.5090 C   0  0  0  0  0  0  0  0  0  0  0  0
  189.6480  176.9550  146.8620 C   0  0  0  0  0  3  0  0  0  0  0  0
  190.6200  177.3390  144.2620 C   0  0  0  0  0  3  0  0  0  0  0  0
  188.7790  177.9110  142.1930 N   0  0  0  0  0  0  0  0  0  0  0  0
  188.3370  177.7360  143.4710 C   0  0  0  0  0  0  0  0  0  0  0  0
  186.4950  177.6470  145.0650 C   0  0  0  0  0  3  0  0  0  0  0  0
  186.0630  178.1360  142.7060 C   0  0  0  0  0  0  0  0  0  0  0  0
  186.5580  178.3030  141.4110 C   0  0  0  0  0  3  0  0  0  0  0  0
  187.3920  177.3530  146.0930 C   0  0  0  0  0  3  0  0  0  0  0  0
  188.4540  178.3690  139.7930 C   0  0  0  0  0  2  0  0  0  0  0  0
  189.3830  177.2170  139.4240 C   0  0  0  0  0  2  0  0  0  0  0  0
  189.7080  177.9370  137.0550 C   0  0  0  0  0  1  0  0  0  0  0  0
  189.2630  176.7950  137.9590 C   0  0  0  0  0  0  0  0  0  0  0  0
  190.1330  175.5700  137.7050 C   0  0  0  0  0  1  0  0  0  0  0  0
  187.7890  176.4650  137.6970 C   0  0  0  0  0  2  0  0  0  0  0  0
  187.3790  176.5580  136.2300 C   0  0  2  0  0  3  0  0  0  0  0  0
  184.7700  176.0150  134.7960 C   0  0  0  0  0  2  0  0  0  0  0  0
  185.4610  174.9650  135.6950 C   0  0  2  0  0  3  0  0  0  0  0  0
  186.2630  177.6000  136.0880 C   0  0  0  0  0  2  0  0  0  0  0  0
  186.9870  175.1710  135.6950 C   0  0  1  0  0  3  0  0  0  0  0  0
  187.4990  175.0000  134.4200 F   0  0  0  0  0  0  0  0  0  0  0  0
  185.4680  177.3800  134.8010 C   0  0  0  0  0  2  0  0  0  0  0  0
  185.0950  173.5920  135.3030 N   0  0  0  0  0  0  0  0  0  0  0  0
  184.9710  172.6300  137.5920 C   0  0  0  0  0  2  0  0  0  0  0  0
  183.0510  173.3920  136.7010 C   0  0  0  0  0  2  0  0  0  0  0  0
  183.6130  172.3210  137.4140 O   0  0  0  0  0  0  0  0  0  0  0  0
  183.6290  173.4310  135.2810 C   0  0  0  0  0  2  0  0  0  0  0  0
  185.6870  172.6150  136.2370 C   0  0  0  0  0  2  0  0  0  0  0  0
  184.2940  178.2910  142.9690 S   0  0  0  0  0  0  0  0  0  0  0  0
  183.9250  178.1900  141.1870 C   0  0  1  0  0  3  0  0  0  0  0  0
  183.0170  177.0060  140.9030 C   0  0  0  0  0  1  0  0  0  0  0  0
  183.3390  179.5000  140.6570 C   0  0  0  0  0  2  0  0  0  0  0  0
  183.4730  179.6500  139.1410 C   0  0  2  0  0  3  0  0  0  0  0  0
  184.4190  180.6290  138.8260 O   0  0  0  0  0  1  0  0  0  0  0  0
  181.7930  179.0750  137.3290 C   0  0  0  0  0  1  0  0  0  0  0  0
  181.0180  179.8650  139.5510 C   0  0  0  0  0  1  0  0  0  0  0  0
  182.1180  179.9740  138.5130 C   0  0  0  0  0  3  0  0  0  0  0  0
  1  8  1  0  0  0  0
  1  6  1  0  0  0  0
  2 12  1  0  0  0  0
  3 14  2  0  0  0  0
  3 10  1  0  0  0  0
  4 15  1  0  0  0  0
  4  8  2  0  0  0  0
  5  1  2  0  0  0  0
  7  4  1  0  0  0  0
  9  7  2  0  0  0  0
  9  5  1  0  0  0  0
 10 11  2  0  0  0  0
 11  2  1  0  0  0  0
 11  7  1  0  0  0  0
 12 15  2  0  0  0  0
 13 35  1  0  0  0  0
 13  2  2  0  0  0  0
 14 13  1  0  0  0  0
 16  3  1  0  0  0  0
 17 16  1  0  0  0  0
 18 19  1  0  0  0  0
 19 17  1  0  0  0  0
 20 19  1  0  0  0  0
 21 19  1  0  0  0  0
 22 21  1  1  0  0  0
 23 28  1  0  0  0  0
 24 23  1  6  0  0  0
 25 22  1  0  0  0  0
 26 27  1  6  0  0  0
 26 24  1  0  0  0  0
 26 22  1  0  0  0  0
 28 25  1  0  0  0  0
 29 24  1  0  0  0  0
 29 34  1  0  0  0  0
 31 32  1  0  0  0  0
 32 30  1  0  0  0  0
 33 29  1  0  0  0  0
 33 31  1  0  0  0  0
 34 30  1  0  0  0  0
 36 37  1  1  0  0  0
 36 35  1  0  0  0  0
 38 36  1  0  0  0  0
 39 40  1  1  0  0  0
 39 38  1  0  0  0  0
 41 43  1  0  0  0  0
 43 39  1  0  0  0  0
 43 42  1  0  0  0  0
M  END
>  <MODEL>
3

>  <REMARK>
 VINA RESULT:      -8.0      2.210      5.124
  Name = 
  11 active torsions:
  status: ('A' for Active; 'I' for Inactive)
    1  A    between atoms: C_1  and  C_9
    2  A    between atoms: C_1  and  S_35
    3  A    between atoms: C_2  and  C_6
    4  A    between atoms: C_2  and  C_13
    5  A    between atoms: C_3  and  C_4
    6  A    between atoms: C_3  and  C_12
    7  A    between atoms: C_6  and  C_12
    8  A    between atoms: C_9  and  C_32
    9  A    between atoms: N_11  and  C_14
   10  A    between atoms: C_32  and  C_37
   11  A    between atoms: C_34  and  S_35
                            x       y       z     vdW  Elec       q    Type
                         _______ _______ _______ _____ _____    ______ ____

>  <TORSDO>
F 11

$$$$
=
 OpenBabel10272414233D

 43 47  0  0  1  0  0  0  0  0999 V2000
  190.8860  176.8730  146.6260 C   0  0  0  0  0  0  0  0  0  0  0  0
  189.5160  177.6880  141.8230 C   0  0  0  0  0  0  0  0  0  0  0  0
  186.8160  178.3580  141.9270 C   0  0  0  0  0  0  0  0  0  0  0  0
  190.8750  177.1210  144.2160 C   0  0  0  0  0  0  0  0  0  0  0  0
  189.5250  177.1900  146.6690 C   0  0  0  0  0  3  0  0  0  0  0  0
  191.5690  176.5930  147.8000 O   0  0  0  0  0  1  0  0  0  0  0  0
  189.4970  177.4440  144.2530 C   0  0  0  0  0  0  0  0  0  0  0  0
  191.5600  176.8390  145.4010 C   0  0  0  0  0  3  0  0  0  0  0  0
  188.8320  177.4750  145.4900 C   0  0  0  0  0  3  0  0  0  0  0  0
  187.4940  178.0620  143.0680 N   0  0  0  0  0  0  0  0  0  0  0  0
  188.8170  177.7330  143.0550 C   0  0  0  0  0  0  0  0  0  0  0  0
  190.8790  177.3660  141.8090 C   0  0  0  0  0  3  0  0  0  0  0  0
  188.8200  177.9770  140.6340 C   0  0  0  0  0  0  0  0  0  0  0  0
  187.4670  178.3140  140.6950 C   0  0  0  0  0  3  0  0  0  0  0  0
  191.5540  177.0840  142.9970 C   0  0  0  0  0  3  0  0  0  0  0  0
  185.3730  178.7060  141.9900 C   0  0  0  0  0  2  0  0  0  0  0  0
  184.7920  178.7940  140.5820 C   0  0  0  0  0  2  0  0  0  0  0  0
  182.6940  178.5820  141.9210 C   0  0  0  0  0  1  0  0  0  0  0  0
  183.2990  178.4670  140.5280 C   0  0  0  0  0  0  0  0  0  0  0  0
  182.5960  179.4340  139.5830 C   0  0  0  0  0  1  0  0  0  0  0  0
  183.1640  177.0290  140.0160 C   0  0  0  0  0  2  0  0  0  0  0  0
  182.0380  176.8280  139.0060 C   0  0  2  0  0  3  0  0  0  0  0  0
  180.9710  174.3760  137.5900 C   0  0  0  0  0  2  0  0  0  0  0  0
  182.4590  174.7910  137.5320 C   0  0  2  0  0  3  0  0  0  0  0  0
  180.9810  175.8980  139.6130 C   0  0  0  0  0  2  0  0  0  0  0  0
  182.6010  176.3170  137.6700 C   0  0  1  0  0  3  0  0  0  0  0  0
  181.9690  176.9610  136.6180 F   0  0  0  0  0  0  0  0  0  0  0  0
  180.1270  175.2530  138.5230 C   0  0  0  0  0  2  0  0  0  0  0  0
  183.1130  174.2880  136.3100 N   0  0  0  0  0  0  0  0  0  0  0  0
  185.3230  173.7690  137.3230 C   0  0  0  0  0  2  0  0  0  0  0  0
  183.8320  172.0880  137.2110 C   0  0  0  0  0  2  0  0  0  0  0  0
  185.1810  172.4110  136.9940 O   0  0  0  0  0  0  0  0  0  0  0  0
  182.9500  172.8260  136.1970 C   0  0  0  0  0  2  0  0  0  0  0  0
  184.5480  174.6290  136.3180 C   0  0  0  0  0  2  0  0  0  0  0  0
  189.6200  177.9440  139.0280 S   0  0  0  0  0  0  0  0  0  0  0  0
  188.0810  177.4870  138.1660 C   0  0  1  0  0  3  0  0  0  0  0  0
  187.7370  178.5270  137.1140 C   0  0  0  0  0  1  0  0  0  0  0  0
  188.1630  176.0790  137.5720 C   0  0  0  0  0  2  0  0  0  0  0  0
  188.6940  176.0600  136.1390 C   0  0  2  0  0  3  0  0  0  0  0  0
  187.6980  175.6420  135.2520 O   0  0  0  0  0  1  0  0  0  0  0  0
  191.2160  175.9100  136.3680 C   0  0  0  0  0  1  0  0  0  0  0  0
  189.7870  173.9650  136.9490 C   0  0  0  0  0  1  0  0  0  0  0  0
  189.9300  175.1670  136.0360 C   0  0  0  0  0  3  0  0  0  0  0  0
  1  5  1  0  0  0  0
  1  6  1  0  0  0  0
  2 11  1  0  0  0  0
  3 16  1  0  0  0  0
  3 10  1  0  0  0  0
  4  7  2  0  0  0  0
  4  8  1  0  0  0  0
  7  9  1  0  0  0  0
  8  1  2  0  0  0  0
  9  5  2  0  0  0  0
 11 10  2  0  0  0  0
 11  7  1  0  0  0  0
 12  2  1  0  0  0  0
 12 15  2  0  0  0  0
 13 14  1  0  0  0  0
 13  2  2  0  0  0  0
 14  3  2  0  0  0  0
 15  4  1  0  0  0  0
 17 16  1  0  0  0  0
 19 17  1  0  0  0  0
 19 18  1  0  0  0  0
 20 19  1  0  0  0  0
 21 19  1  0  0  0  0
 22 25  1  0  0  0  0
 22 21  1  1  0  0  0
 23 28  1  0  0  0  0
 24 29  1  6  0  0  0
 24 23  1  0  0  0  0
 24 26  1  0  0  0  0
 26 27  1  6  0  0  0
 26 22  1  0  0  0  0
 28 25  1  0  0  0  0
 29 34  1  0  0  0  0
 32 31  1  0  0  0  0
 32 30  1  0  0  0  0
 33 29  1  0  0  0  0
 33 31  1  0  0  0  0
 34 30  1  0  0  0  0
 35 13  1  0  0  0  0
 36 37  1  6  0  0  0
 36 35  1  0  0  0  0
 38 36  1  0  0  0  0
 39 40  1  6  0  0  0
 39 38  1  0  0  0  0
 43 39  1  0  0  0  0
 43 41  1  0  0  0  0
 43 42  1  0  0  0  0
M  END
>  <MODEL>
4

>  <REMARK>
 VINA RESULT:      -7.9      1.645      2.159
  Name = 
  11 active torsions:
  status: ('A' for Active; 'I' for Inactive)
    1  A    between atoms: C_1  and  C_9
    2  A    between atoms: C_1  and  S_35
    3  A    between atoms: C_2  and  C_6
    4  A    between atoms: C_2  and  C_13
    5  A    between atoms: C_3  and  C_4
    6  A    between atoms: C_3  and  C_12
    7  A    between atoms: C_6  and  C_12
    8  A    between atoms: C_9  and  C_32
    9  A    between atoms: N_11  and  C_14
   10  A    between atoms: C_32  and  C_37
   11  A    between atoms: C_34  and  S_35
                            x       y       z     vdW  Elec       q    Type
                         _______ _______ _______ _____ _____    ______ ____

>  <TORSDO>
F 11

$$$$
=
 OpenBabel10272414233D

 43 47  0  0  1  0  0  0  0  0999 V2000
  190.8540  176.7950  146.7140 C   0  0  0  0  0  0  0  0  0  0  0  0
  187.1200  178.0650  143.5420 C   0  0  0  0  0  0  0  0  0  0  0  0
  188.2830  178.1150  141.0140 C   0  0  0  0  0  0  0  0  0  0  0  0
  188.7110  177.4050  145.7620 C   0  0  0  0  0  0  0  0  0  0  0  0
  191.4360  176.8420  145.4440 C   0  0  0  0  0  3  0  0  0  0  0  0
  191.6280  176.4690  147.8180 O   0  0  0  0  0  1  0  0  0  0  0  0
  189.2940  177.4530  144.4730 C   0  0  0  0  0  0  0  0  0  0  0  0
  189.4930  177.0750  146.8730 C   0  0  0  0  0  3  0  0  0  0  0  0
  190.6620  177.1690  144.3280 C   0  0  0  0  0  3  0  0  0  0  0  0
  189.0330  177.8150  142.1080 N   0  0  0  0  0  0  0  0  0  0  0  0
  188.4960  177.7790  143.3610 C   0  0  0  0  0  0  0  0  0  0  0  0
  186.5640  178.0120  144.8270 C   0  0  0  0  0  3  0  0  0  0  0  0
  186.3380  178.3920  142.4190 C   0  0  0  0  0  0  0  0  0  0  0  0
  186.9280  178.4130  141.1540 C   0  0  0  0  0  3  0  0  0  0  0  0
  187.3530  177.6840  145.9300 C   0  0  0  0  0  3  0  0  0  0  0  0
  188.9130  178.1490  139.6680 C   0  0  0  0  0  2  0  0  0  0  0  0
  189.6870  176.8590  139.4180 C   0  0  0  0  0  2  0  0  0  0  0  0
  188.4240  175.6290  137.6490 C   0  0  0  0  0  1  0  0  0  0  0  0
  189.6830  176.4310  137.9500 C   0  0  0  0  0  0  0  0  0  0  0  0
  189.7310  177.6650  137.0560 C   0  0  0  0  0  1  0  0  0  0  0  0
  190.9240  175.5610  137.7240 C   0  0  0  0  0  2  0  0  0  0  0  0
  191.8870  176.1060  136.6730 C   0  0  2  0  0  3  0  0  0  0  0  0
  194.2850  174.9030  135.2730 C   0  0  0  0  0  2  0  0  0  0  0  0
  194.1640  174.9670  136.8130 C   0  0  2  0  0  3  0  0  0  0  0  0
  191.7800  175.2510  135.4050 C   0  0  0  0  0  2  0  0  0  0  0  0
  193.3140  176.1780  137.2390 C   0  0  1  0  0  3  0  0  0  0  0  0
  193.9170  177.3590  136.8410 F   0  0  0  0  0  0  0  0  0  0  0  0
  193.0320  175.3950  134.5390 C   0  0  0  0  0  2  0  0  0  0  0  0
  195.4880  174.9730  137.4600 N   0  0  0  0  0  0  0  0  0  0  0  0
  195.3570  172.7060  138.4720 C   0  0  0  0  0  2  0  0  0  0  0  0
  196.3460  172.8680  136.4570 C   0  0  0  0  0  2  0  0  0  0  0  0
  196.4710  172.2840  137.7280 O   0  0  0  0  0  0  0  0  0  0  0  0
  196.5060  174.3890  136.5660 C   0  0  0  0  0  2  0  0  0  0  0  0
  195.4450  174.2150  138.7250 C   0  0  0  0  0  2  0  0  0  0  0  0
  184.5890  178.7700  142.5520 S   0  0  0  0  0  0  0  0  0  0  0  0
  184.2500  178.2450  140.8390 C   0  0  1  0  0  3  0  0  0  0  0  0
  183.0690  177.2900  140.8050 C   0  0  0  0  0  1  0  0  0  0  0  0
  184.0430  179.4440  139.9110 C   0  0  0  0  0  2  0  0  0  0  0  0
  184.0160  179.0630  138.4310 C   0  0  2  0  0  3  0  0  0  0  0  0
  182.7170  178.7350  138.0330 O   0  0  0  0  0  1  0  0  0  0  0  0
  184.3350  176.7830  137.3650 C   0  0  0  0  0  1  0  0  0  0  0  0
  186.2050  178.4130  137.4190 C   0  0  0  0  0  1  0  0  0  0  0  0
  184.9810  177.9100  138.1580 C   0  0  0  0  0  3  0  0  0  0  0  0
  1  8  1  0  0  0  0
  1  6  1  0  0  0  0
  2 12  1  0  0  0  0
  3 14  2  0  0  0  0
  3 10  1  0  0  0  0
  4 15  1  0  0  0  0
  4  8  2  0  0  0  0
  5  1  2  0  0  0  0
  7  4  1  0  0  0  0
  9  7  2  0  0  0  0
  9  5  1  0  0  0  0
 10 11  2  0  0  0  0
 11  2  1  0  0  0  0
 11  7  1  0  0  0  0
 12 15  2  0  0  0  0
 13 35  1  0  0  0  0
 13  2  2  0  0  0  0
 14 13  1  0  0  0  0
 16  3  1  0  0  0  0
 17 16  1  0  0  0  0
 18 19  1  0  0  0  0
 19 17  1  0  0  0  0
 20 19  1  0  0  0  0
 21 19  1  0  0  0  0
 22 26  1  0  0  0  0
 22 21  1  1  0  0  0
 24 23  1  6  0  0  0
 24 26  1  0  0  0  0
 24 29  1  0  0  0  0
 25 22  1  0  0  0  0
 26 27  1  6  0  0  0
 28 23  1  0  0  0  0
 28 25  1  0  0  0  0
 29 34  1  0  0  0  0
 30 34  1  0  0  0  0
 31 33  1  0  0  0  0
 31 32  1  0  0  0  0
 32 30  1  0  0  0  0
 33 29  1  0  0  0  0
 36 37  1  1  0  0  0
 36 35  1  0  0  0  0
 38 36  1  0  0  0  0
 39 40  1  1  0  0  0
 39 38  1  0  0  0  0
 41 43  1  0  0  0  0
 42 43  1  0  0  0  0
 43 39  1  0  0  0  0
M  END
>  <MODEL>
5

>  <REMARK>
 VINA RESULT:      -7.7      3.428      7.070
  Name = 
  11 active torsions:
  status: ('A' for Active; 'I' for Inactive)
    1  A    between atoms: C_1  and  C_9
    2  A    between atoms: C_1  and  S_35
    3  A    between atoms: C_2  and  C_6
    4  A    between atoms: C_2  and  C_13
    5  A    between atoms: C_3  and  C_4
    6  A    between atoms: C_3  and  C_12
    7  A    between atoms: C_6  and  C_12
    8  A    between atoms: C_9  and  C_32
    9  A    between atoms: N_11  and  C_14
   10  A    between atoms: C_32  and  C_37
   11  A    between atoms: C_34  and  S_35
                            x       y       z     vdW  Elec       q    Type
                         _______ _______ _______ _____ _____    ______ ____

>  <TORSDO>
F 11

$$$$
=
 OpenBabel10272414233D

 43 47  0  0  1  0  0  0  0  0999 V2000
  181.2900  178.8640  143.1970 C   0  0  0  0  0  0  0  0  0  0  0  0
  186.2400  178.5450  142.1930 C   0  0  0  0  0  0  0  0  0  0  0  0
  186.4250  178.4130  139.4200 C   0  0  0  0  0  0  0  0  0  0  0  0
  183.7030  178.7480  143.3840 C   0  0  0  0  0  0  0  0  0  0  0  0
  181.3880  178.7760  141.8050 C   0  0  0  0  0  3  0  0  0  0  0  0
  180.0430  178.9660  143.7970 O   0  0  0  0  0  1  0  0  0  0  0  0
  183.8100  178.6600  141.9750 C   0  0  0  0  0  0  0  0  0  0  0  0
  182.4440  178.8510  143.9850 C   0  0  0  0  0  3  0  0  0  0  0  0
  182.6410  178.6750  141.1950 C   0  0  0  0  0  3  0  0  0  0  0  0
  185.2090  178.4950  140.0230 N   0  0  0  0  0  0  0  0  0  0  0  0
  185.0810  178.5640  141.3780 C   0  0  0  0  0  0  0  0  0  0  0  0
  186.1110  178.6330  143.5860 C   0  0  0  0  0  3  0  0  0  0  0  0
  187.5020  178.4460  141.5810 C   0  0  0  0  0  0  0  0  0  0  0  0
  187.5870  178.3820  140.1880 C   0  0  0  0  0  3  0  0  0  0  0  0
  184.8510  178.7340  144.1770 C   0  0  0  0  0  3  0  0  0  0  0  0
  186.5150  178.3340  137.9380 C   0  0  0  0  0  2  0  0  0  0  0  0
  187.9630  178.1150  137.5110 C   0  0  0  0  0  2  0  0  0  0  0  0
  188.8970  177.5980  135.2530 C   0  0  0  0  0  1  0  0  0  0  0  0
  188.1150  177.0400  136.4340 C   0  0  0  0  0  0  0  0  0  0  0  0
  188.8490  175.8360  137.0120 C   0  0  0  0  0  1  0  0  0  0  0  0
  186.7050  176.6390  135.9860 C   0  0  0  0  0  2  0  0  0  0  0  0
  186.4490  175.1350  135.9970 C   0  0  2  0  0  3  0  0  0  0  0  0
  183.9970  173.4710  135.3850 C   0  0  0  0  0  2  0  0  0  0  0  0
  183.9920  174.6100  136.4300 C   0  0  2  0  0  3  0  0  0  0  0  0
  186.0710  174.6810  134.5820 C   0  0  0  0  0  2  0  0  0  0  0  0
  185.3900  174.7790  137.0520 C   0  0  1  0  0  3  0  0  0  0  0  0
  185.7660  173.6270  137.7230 F   0  0  0  0  0  0  0  0  0  0  0  0
  185.3180  173.3520  134.6150 C   0  0  0  0  0  2  0  0  0  0  0  0
  182.9580  174.3950  137.4580 N   0  0  0  0  0  0  0  0  0  0  0  0
  182.4640  176.7890  137.9160 C   0  0  0  0  0  2  0  0  0  0  0  0
  181.1650  175.7510  136.3990 C   0  0  0  0  0  2  0  0  0  0  0  0
  181.1320  176.6170  137.5050 O   0  0  0  0  0  0  0  0  0  0  0  0
  181.6160  174.3550  136.8460 C   0  0  0  0  0  2  0  0  0  0  0  0
  183.0090  175.4680  138.4700 C   0  0  0  0  0  2  0  0  0  0  0  0
  189.0250  178.4150  142.5310 S   0  0  0  0  0  0  0  0  0  0  0  0
  188.7630  176.6930  143.0710 C   0  0  1  0  0  3  0  0  0  0  0  0
  189.9060  175.8130  142.5980 C   0  0  0  0  0  1  0  0  0  0  0  0
  188.5580  176.6020  144.5850 C   0  0  0  0  0  2  0  0  0  0  0  0
  189.3880  177.6200  145.3670 C   0  0  2  0  0  3  0  0  0  0  0  0
  190.6530  177.1010  145.6580 O   0  0  0  0  0  1  0  0  0  0  0  0
  187.2310  177.5160  146.6980 C   0  0  0  0  0  1  0  0  0  0  0  0
  189.4210  177.5630  147.8640 C   0  0  0  0  0  1  0  0  0  0  0  0
  188.6590  178.0380  146.6430 C   0  0  0  0  0  3  0  0  0  0  0  0
  1  6  1  0  0  0  0
  1  8  1  0  0  0  0
  2 12  1  0  0  0  0
  3 10  2  0  0  0  0
  3 14  1  0  0  0  0
  4  8  2  0  0  0  0
  4 15  1  0  0  0  0
  5  1  2  0  0  0  0
  7  4  1  0  0  0  0
  9  5  1  0  0  0  0
  9  7  2  0  0  0  0
 10 11  1  0  0  0  0
 11  7  1  0  0  0  0
 11  2  2  0  0  0  0
 12 15  2  0  0  0  0
 13  2  1  0  0  0  0
 13 35  1  0  0  0  0
 14 13  2  0  0  0  0
 16  3  1  0  0  0  0
 17 16  1  0  0  0  0
 18 19  1  0  0  0  0
 19 20  1  0  0  0  0
 19 17  1  0  0  0  0
 21 19  1  0  0  0  0
 22 21  1  6  0  0  0
 22 26  1  0  0  0  0
 24 23  1  6  0  0  0
 24 26  1  0  0  0  0
 24 29  1  0  0  0  0
 25 28  1  0  0  0  0
 25 22  1  0  0  0  0
 26 27  1  6  0  0  0
 28 23  1  0  0  0  0
 29 34  1  0  0  0  0
 30 34  1  0  0  0  0
 31 33  1  0  0  0  0
 31 32  1  0  0  0  0
 32 30  1  0  0  0  0
 33 29  1  0  0  0  0
 35 36  1  0  0  0  0
 36 37  1  1  0  0  0
 36 38  1  0  0  0  0
 38 39  1  0  0  0  0
 39 40  1  1  0  0  0
 39 43  1  0  0  0  0
 43 41  1  0  0  0  0
 43 42  1  0  0  0  0
M  END
>  <MODEL>
6

>  <REMARK>
 VINA RESULT:      -7.6      2.561      6.031
  Name = 
  11 active torsions:
  status: ('A' for Active; 'I' for Inactive)
    1  A    between atoms: C_1  and  C_9
    2  A    between atoms: C_1  and  S_35
    3  A    between atoms: C_2  and  C_6
    4  A    between atoms: C_2  and  C_13
    5  A    between atoms: C_3  and  C_4
    6  A    between atoms: C_3  and  C_12
    7  A    between atoms: C_6  and  C_12
    8  A    between atoms: C_9  and  C_32
    9  A    between atoms: N_11  and  C_14
   10  A    between atoms: C_32  and  C_37
   11  A    between atoms: C_34  and  S_35
                            x       y       z     vdW  Elec       q    Type
                         _______ _______ _______ _____ _____    ______ ____

>  <TORSDO>
F 11

$$$$
=
 OpenBabel10272414233D

 43 47  0  0  1  0  0  0  0  0999 V2000
  189.3260  176.3020  135.9800 C   0  0  0  0  0  0  0  0  0  0  0  0
  189.5570  177.8070  140.8060 C   0  0  0  0  0  0  0  0  0  0  0  0
  186.9960  178.7060  141.4240 C   0  0  0  0  0  0  0  0  0  0  0  0
  190.0710  176.8190  138.2270 C   0  0  0  0  0  0  0  0  0  0  0  0
  188.0470  176.7750  136.2900 C   0  0  0  0  0  3  0  0  0  0  0  0
  189.5930  175.8100  134.7100 O   0  0  0  0  0  1  0  0  0  0  0  0
  188.7780  177.2970  138.5480 C   0  0  0  0  0  0  0  0  0  0  0  0
  190.3360  176.3240  136.9460 C   0  0  0  0  0  3  0  0  0  0  0  0
  187.7720  177.2700  137.5670 C   0  0  0  0  0  3  0  0  0  0  0  0
  187.2770  178.2380  140.1780 N   0  0  0  0  0  0  0  0  0  0  0  0
  188.5190  177.7880  139.8410 C   0  0  0  0  0  0  0  0  0  0  0  0
  190.8300  177.3290  140.4660 C   0  0  0  0  0  3  0  0  0  0  0  0
  189.2810  178.3030  142.0930 C   0  0  0  0  0  0  0  0  0  0  0  0
  187.9940  178.7500  142.3970 C   0  0  0  0  0  3  0  0  0  0  0  0
  191.0850  176.8380  139.1850 C   0  0  0  0  0  3  0  0  0  0  0  0
  185.6280  179.1920  141.7430 C   0  0  0  0  0  2  0  0  0  0  0  0
  184.6330  178.0380  141.6830 C   0  0  0  0  0  2  0  0  0  0  0  0
  182.2540  178.7920  141.5740 C   0  0  0  0  0  1  0  0  0  0  0  0
  183.4480  178.3160  140.7570 C   0  0  0  0  0  0  0  0  0  0  0  0
  183.8310  179.3830  139.7390 C   0  0  0  0  0  1  0  0  0  0  0  0
  183.1050  177.0010  140.0480 C   0  0  0  0  0  2  0  0  0  0  0  0
  182.3170  177.1770  138.7530 C   0  0  2  0  0  3  0  0  0  0  0  0
  181.0460  175.2010  136.8460 C   0  0  0  0  0  2  0  0  0  0  0  0
  182.5390  175.1350  137.2410 C   0  0  2  0  0  3  0  0  0  0  0  0
  180.9050  176.6090  138.9450 C   0  0  0  0  0  2  0  0  0  0  0  0
  183.0720  176.5400  137.5750 C   0  0  1  0  0  3  0  0  0  0  0  0
  182.9920  177.3660  136.4660 F   0  0  0  0  0  0  0  0  0  0  0  0
  180.2590  176.2800  137.6000 C   0  0  0  0  0  2  0  0  0  0  0  0
  183.3460  174.4770  136.1990 N   0  0  0  0  0  0  0  0  0  0  0  0
  184.8920  173.2580  137.7160 C   0  0  0  0  0  2  0  0  0  0  0  0
  183.0720  172.1430  137.0050 C   0  0  0  0  0  2  0  0  0  0  0  0
  184.4560  172.0240  137.2070 O   0  0  0  0  0  0  0  0  0  0  0  0
  182.7960  173.1460  135.8780 C   0  0  0  0  0  2  0  0  0  0  0  0
  184.7460  174.3410  136.6420 C   0  0  0  0  0  2  0  0  0  0  0  0
  190.5320  178.3670  143.3790 S   0  0  0  0  0  0  0  0  0  0  0  0
  190.2520  176.6340  143.8690 C   0  0  1  0  0  3  0  0  0  0  0  0
  191.5770  175.9390  144.1270 C   0  0  0  0  0  1  0  0  0  0  0  0
  189.3090  176.5320  145.0700 C   0  0  0  0  0  2  0  0  0  0  0  0
  189.5580  177.6100  146.1250 C   0  0  2  0  0  3  0  0  0  0  0  0
  190.4680  177.1570  147.0850 O   0  0  0  0  0  1  0  0  0  0  0  0
  187.0290  177.6670  145.9350 C   0  0  0  0  0  1  0  0  0  0  0  0
  188.1140  177.4280  148.1540 C   0  0  0  0  0  1  0  0  0  0  0  0
  188.2430  178.0400  146.7740 C   0  0  0  0  0  3  0  0  0  0  0  0
  1  5  2  0  0  0  0
  1  8  1  0  0  0  0
  2 13  1  0  0  0  0
  3 16  1  0  0  0  0
  3 14  1  0  0  0  0
  4  7  1  0  0  0  0
  4 15  1  0  0  0  0
  5  9  1  0  0  0  0
  6  1  1  0  0  0  0
  7 11  1  0  0  0  0
  8  4  2  0  0  0  0
  9  7  2  0  0  0  0
 10  3  2  0  0  0  0
 11 10  1  0  0  0  0
 11  2  2  0  0  0  0
 12  2  1  0  0  0  0
 13 14  2  0  0  0  0
 13 35  1  0  0  0  0
 15 12  2  0  0  0  0
 17 16  1  0  0  0  0
 19 18  1  0  0  0  0
 19 17  1  0  0  0  0
 20 19  1  0  0  0  0
 21 19  1  0  0  0  0
 22 25  1  0  0  0  0
 22 21  1  1  0  0  0
 23 24  1  0  0  0  0
 23 28  1  0  0  0  0
 24 29  1  6  0  0  0
 24 26  1  0  0  0  0
 26 27  1  6  0  0  0
 26 22  1  0  0  0  0
 28 25  1  0  0  0  0
 29 34  1  0  0  0  0
 31 32  1  0  0  0  0
 32 30  1  0  0  0  0
 33 29  1  0  0  0  0
 33 31  1  0  0  0  0
 34 30  1  0  0  0  0
 35 36  1  0  0  0  0
 36 37  1  1  0  0  0
 36 38  1  0  0  0  0
 38 39  1  0  0  0  0
 39 43  1  0  0  0  0
 39 40  1  1  0  0  0
 41 43  1  0  0  0  0
 43 42  1  0  0  0  0
M  END
>  <MODEL>
7

>  <REMARK>
 VINA RESULT:      -7.5      1.656      6.110
  Name = 
  11 active torsions:
  status: ('A' for Active; 'I' for Inactive)
    1  A    between atoms: C_1  and  C_9
    2  A    between atoms: C_1  and  S_35
    3  A    between atoms: C_2  and  C_6
    4  A    between atoms: C_2  and  C_13
    5  A    between atoms: C_3  and  C_4
    6  A    between atoms: C_3  and  C_12
    7  A    between atoms: C_6  and  C_12
    8  A    between atoms: C_9  and  C_32
    9  A    between atoms: N_11  and  C_14
   10  A    between atoms: C_32  and  C_37
   11  A    between atoms: C_34  and  S_35
                            x       y       z     vdW  Elec       q    Type
                         _______ _______ _______ _____ _____    ______ ____

>  <TORSDO>
F 11

$$$$
=
 OpenBabel10272414233D

 43 47  0  0  1  0  0  0  0  0999 V2000
  188.4910  177.4570  146.6180 C   0  0  0  0  0  0  0  0  0  0  0  0
  184.5640  178.5320  143.6120 C   0  0  0  0  0  0  0  0  0  0  0  0
  185.5760  178.4600  141.0200 C   0  0  0  0  0  0  0  0  0  0  0  0
  186.2890  178.0000  145.7650 C   0  0  0  0  0  0  0  0  0  0  0  0
  188.9980  177.4430  145.3150 C   0  0  0  0  0  3  0  0  0  0  0  0
  189.3320  177.1950  147.6900 O   0  0  0  0  0  1  0  0  0  0  0  0
  186.7950  177.9850  144.4430 C   0  0  0  0  0  0  0  0  0  0  0  0
  187.1400  177.7340  146.8430 C   0  0  0  0  0  3  0  0  0  0  0  0
  188.1550  177.7060  144.2310 C   0  0  0  0  0  3  0  0  0  0  0  0
  186.3920  178.2230  142.0820 N   0  0  0  0  0  0  0  0  0  0  0  0
  185.9300  178.2470  143.3640 C   0  0  0  0  0  0  0  0  0  0  0  0
  184.0850  178.5410  144.9290 C   0  0  0  0  0  3  0  0  0  0  0  0
  183.7140  178.7930  142.5220 C   0  0  0  0  0  0  0  0  0  0  0  0
  184.2280  178.7530  141.2250 C   0  0  0  0  0  3  0  0  0  0  0  0
  184.9410  178.2760  145.9980 C   0  0  0  0  0  3  0  0  0  0  0  0
  186.1250  178.4290  139.6390 C   0  0  0  0  0  2  0  0  0  0  0  0
  187.6500  178.4020  139.6810 C   0  0  0  0  0  2  0  0  0  0  0  0
  188.9790  178.9910  137.6510 C   0  0  0  0  0  1  0  0  0  0  0  0
  188.2760  177.8630  138.3940 C   0  0  0  0  0  0  0  0  0  0  0  0
  189.2800  176.7680  138.7310 C   0  0  0  0  0  1  0  0  0  0  0  0
  187.1400  177.2990  137.5340 C   0  0  0  0  0  2  0  0  0  0  0  0
  187.4510  175.9490  136.8950 C   0  0  2  0  0  3  0  0  0  0  0  0
  186.0920  174.3570  134.7100 C   0  0  0  0  0  2  0  0  0  0  0  0
  185.3460  174.8460  135.9720 C   0  0  2  0  0  3  0  0  0  0  0  0
  187.7340  176.1550  135.4020 C   0  0  0  0  0  2  0  0  0  0  0  0
  186.3120  174.9520  137.1650 C   0  0  1  0  0  3  0  0  0  0  0  0
  186.8400  173.7100  137.4750 F   0  0  0  0  0  0  0  0  0  0  0  0
  187.5400  174.8550  134.6220 C   0  0  0  0  0  2  0  0  0  0  0  0
  184.1870  173.9890  136.2810 N   0  0  0  0  0  0  0  0  0  0  0  0
  182.7460  175.7510  137.2800 C   0  0  0  0  0  2  0  0  0  0  0  0
  182.4680  175.3280  135.0880 C   0  0  0  0  0  2  0  0  0  0  0  0
  181.7730  175.5520  136.2870 O   0  0  0  0  0  0  0  0  0  0  0  0
  183.2230  173.9950  135.1650 C   0  0  0  0  0  2  0  0  0  0  0  0
  183.5210  174.4500  137.5140 C   0  0  0  0  0  2  0  0  0  0  0  0
  181.9720  179.1640  142.7380 S   0  0  0  0  0  0  0  0  0  0  0  0
  181.5640  178.7040  141.0220 C   0  0  1  0  0  3  0  0  0  0  0  0
  180.7430  177.4270  141.0000 C   0  0  0  0  0  1  0  0  0  0  0  0
  180.8660  179.8470  140.2820 C   0  0  0  0  0  2  0  0  0  0  0  0
  181.0330  179.7720  138.7640 C   0  0  2  0  0  3  0  0  0  0  0  0
  182.3010  179.2870  138.4340 O   0  0  0  0  0  1  0  0  0  0  0  0
  181.8750  182.1480  138.4730 C   0  0  0  0  0  1  0  0  0  0  0  0
  180.6720  181.0090  136.6240 C   0  0  0  0  0  1  0  0  0  0  0  0
  180.7870  181.1410  138.1300 C   0  0  0  0  0  3  0  0  0  0  0  0
  1  8  1  0  0  0  0
  1  6  1  0  0  0  0
  2 12  1  0  0  0  0
  3 14  2  0  0  0  0
  3 10  1  0  0  0  0
  4 15  1  0  0  0  0
  4  8  2  0  0  0  0
  5  1  2  0  0  0  0
  7  4  1  0  0  0  0
  9  7  2  0  0  0  0
  9  5  1  0  0  0  0
 10 11  2  0  0  0  0
 11  2  1  0  0  0  0
 11  7  1  0  0  0  0
 12 15  2  0  0  0  0
 13 35  1  0  0  0  0
 13  2  2  0  0  0  0
 14 13  1  0  0  0  0
 16 17  1  0  0  0  0
 16  3  1  0  0  0  0
 18 19  1  0  0  0  0
 19 20  1  0  0  0  0
 19 17  1  0  0  0  0
 21 19  1  0  0  0  0
 22 26  1  0  0  0  0
 22 21  1  6  0  0  0
 24 23  1  6  0  0  0
 24 29  1  0  0  0  0
 24 26  1  0  0  0  0
 25 22  1  0  0  0  0
 26 27  1  6  0  0  0
 28 23  1  0  0  0  0
 28 25  1  0  0  0  0
 29 34  1  0  0  0  0
 30 34  1  0  0  0  0
 31 33  1  0  0  0  0
 31 32  1  0  0  0  0
 32 30  1  0  0  0  0
 33 29  1  0  0  0  0
 36 37  1  1  0  0  0
 36 35  1  0  0  0  0
 38 36  1  0  0  0  0
 39 40  1  1  0  0  0
 39 38  1  0  0  0  0
 42 43  1  0  0  0  0
 43 41  1  0  0  0  0
 43 39  1  0  0  0  0
M  END
>  <MODEL>
8

>  <REMARK>
 VINA RESULT:      -7.4      2.566      5.731
  Name = 
  11 active torsions:
  status: ('A' for Active; 'I' for Inactive)
    1  A    between atoms: C_1  and  C_9
    2  A    between atoms: C_1  and  S_35
    3  A    between atoms: C_2  and  C_6
    4  A    between atoms: C_2  and  C_13
    5  A    between atoms: C_3  and  C_4
    6  A    between atoms: C_3  and  C_12
    7  A    between atoms: C_6  and  C_12
    8  A    between atoms: C_9  and  C_32
    9  A    between atoms: N_11  and  C_14
   10  A    between atoms: C_32  and  C_37
   11  A    between atoms: C_34  and  S_35
                            x       y       z     vdW  Elec       q    Type
                         _______ _______ _______ _____ _____    ______ ____

>  <TORSDO>
F 11

$$$$
=
 OpenBabel10272414233D

 43 47  0  0  1  0  0  0  0  0999 V2000
  181.4700  179.1610  141.5790 C   0  0  0  0  0  0  0  0  0  0  0  0
  185.3860  178.2210  144.6430 C   0  0  0  0  0  0  0  0  0  0  0  0
  187.5510  177.7620  142.9550 C   0  0  0  0  0  0  0  0  0  0  0  0
  182.8810  178.8170  143.5170 C   0  0  0  0  0  0  0  0  0  0  0  0
  182.5560  178.9090  140.7360 C   0  0  0  0  0  3  0  0  0  0  0  0
  180.2270  179.4580  141.0360 O   0  0  0  0  0  1  0  0  0  0  0  0
  183.9870  178.5620  142.6700 C   0  0  0  0  0  0  0  0  0  0  0  0
  181.6310  179.1160  142.9670 C   0  0  0  0  0  3  0  0  0  0  0  0
  183.8100  178.6110  141.2770 C   0  0  0  0  0  3  0  0  0  0  0  0
  186.3240  178.0360  142.4370 N   0  0  0  0  0  0  0  0  0  0  0  0
  185.2420  178.2680  143.2330 C   0  0  0  0  0  0  0  0  0  0  0  0
  184.2790  178.4760  145.4620 C   0  0  0  0  0  3  0  0  0  0  0  0
  186.6480  177.9240  145.1890 C   0  0  0  0  0  0  0  0  0  0  0  0
  187.7300  177.6970  144.3360 C   0  0  0  0  0  3  0  0  0  0  0  0
  183.0350  178.7720  144.9040 C   0  0  0  0  0  3  0  0  0  0  0  0
  188.7010  177.5090  142.0470 C   0  0  0  0  0  2  0  0  0  0  0  0
  188.6210  178.4250  140.8300 C   0  0  0  0  0  2  0  0  0  0  0  0
  189.4530  178.8080  138.5070 C   0  0  0  0  0  1  0  0  0  0  0  0
  189.0870  177.7500  139.5390 C   0  0  0  0  0  0  0  0  0  0  0  0
  190.3000  176.8740  139.8280 C   0  0  0  0  0  1  0  0  0  0  0  0
  187.9230  176.8970  139.0240 C   0  0  0  0  0  2  0  0  0  0  0  0
  187.0820  177.5720  137.9440 C   0  0  2  0  0  3  0  0  0  0  0  0
  184.2470  177.1340  136.9850 C   0  0  0  0  0  2  0  0  0  0  0  0
  185.2950  175.9990  137.0320 C   0  0  2  0  0  3  0  0  0  0  0  0
  185.8610  178.2290  138.5990 C   0  0  0  0  0  2  0  0  0  0  0  0
  186.7140  176.5650  136.8430 C   0  0  1  0  0  3  0  0  0  0  0  0
  186.8360  177.1640  135.6010 F   0  0  0  0  0  0  0  0  0  0  0  0
  184.7480  178.4570  137.5770 C   0  0  0  0  0  2  0  0  0  0  0  0
  184.9930  174.9420  136.0520 N   0  0  0  0  0  0  0  0  0  0  0  0
  186.5370  173.2160  136.9580 C   0  0  0  0  0  2  0  0  0  0  0  0
  184.4050  173.1550  137.6750 C   0  0  0  0  0  2  0  0  0  0  0  0
  185.4600  172.3520  137.2110 O   0  0  0  0  0  0  0  0  0  0  0  0
  183.9110  174.0680  136.5460 C   0  0  0  0  0  2  0  0  0  0  0  0
  186.1970  174.1340  135.7780 C   0  0  0  0  0  2  0  0  0  0  0  0
  186.9260  177.8410  146.9600 S   0  0  0  0  0  0  0  0  0  0  0  0
  188.7260  178.0680  146.7830 C   0  0  1  0  0  3  0  0  0  0  0  0
  189.3400  178.4640  148.1140 C   0  0  0  0  0  1  0  0  0  0  0  0
  189.3960  176.8250  146.1910 C   0  0  0  0  0  2  0  0  0  0  0  0
  190.9210  176.9150  146.1720 C   0  0  2  0  0  3  0  0  0  0  0  0
  191.3870  177.0830  144.8650 O   0  0  0  0  0  1  0  0  0  0  0  0
  192.3850  174.8690  145.8460 C   0  0  0  0  0  1  0  0  0  0  0  0
  192.3810  176.0740  148.0160 C   0  0  0  0  0  1  0  0  0  0  0  0
  191.5390  175.6770  146.8200 C   0  0  0  0  0  3  0  0  0  0  0  0
  1  8  1  0  0  0  0
  2 13  1  0  0  0  0
  2 12  1  0  0  0  0
  3 14  1  0  0  0  0
  4 15  1  0  0  0  0
  5  9  1  0  0  0  0
  5  1  2  0  0  0  0
  6  1  1  0  0  0  0
  7 11  1  0  0  0  0
  7  4  1  0  0  0  0
  8  4  2  0  0  0  0
  9  7  2  0  0  0  0
 10  3  2  0  0  0  0
 10 11  1  0  0  0  0
 11  2  2  0  0  0  0
 13 35  1  0  0  0  0
 14 13  2  0  0  0  0
 15 12  2  0  0  0  0
 16  3  1  0  0  0  0
 17 16  1  0  0  0  0
 18 19  1  0  0  0  0
 19 20  1  0  0  0  0
 19 17  1  0  0  0  0
 21 19  1  0  0  0  0
 22 25  1  0  0  0  0
 22 21  1  1  0  0  0
 23 24  1  0  0  0  0
 23 28  1  0  0  0  0
 24 29  1  6  0  0  0
 26 27  1  6  0  0  0
 26 24  1  0  0  0  0
 26 22  1  0  0  0  0
 28 25  1  0  0  0  0
 29 33  1  0  0  0  0
 30 32  1  0  0  0  0
 32 31  1  0  0  0  0
 33 31  1  0  0  0  0
 34 29  1  0  0  0  0
 34 30  1  0  0  0  0
 36 35  1  0  0  0  0
 36 37  1  1  0  0  0
 38 36  1  0  0  0  0
 39 40  1  6  0  0  0
 39 38  1  0  0  0  0
 39 43  1  0  0  0  0
 41 43  1  0  0  0  0
 43 42  1  0  0  0  0
M  END
>  <MODEL>
9

>  <REMARK>
 VINA RESULT:      -7.4      2.711      6.334
  Name = 
  11 active torsions:
  status: ('A' for Active; 'I' for Inactive)
    1  A    between atoms: C_1  and  C_9
    2  A    between atoms: C_1  and  S_35
    3  A    between atoms: C_2  and  C_6
    4  A    between atoms: C_2  and  C_13
    5  A    between atoms: C_3  and  C_4
    6  A    between atoms: C_3  and  C_12
    7  A    between atoms: C_6  and  C_12
    8  A    between atoms: C_9  and  C_32
    9  A    between atoms: N_11  and  C_14
   10  A    between atoms: C_32  and  C_37
   11  A    between atoms: C_34  and  S_35
                            x       y       z     vdW  Elec       q    Type
                         _______ _______ _______ _____ _____    ______ ____

>  <TORSDO>
F 11

$$$$
