=
 OpenBabel10272413153D

 32 34  0  0  1  0  0  0  0  0999 V2000
  186.9280  178.1060  142.0050 C   0  0  0  0  0  3  0  0  0  0  0  0
  186.9570  178.3970  140.6400 C   0  0  0  0  0  0  0  0  0  0  0  0
  185.7400  178.2350  142.7320 C   0  0  0  0  0  0  0  0  0  0  0  0
  184.5670  178.6710  142.0640 C   0  0  0  0  0  0  0  0  0  0  0  0
  184.6500  178.9620  140.7000 C   0  0  0  0  0  3  0  0  0  0  0  0
  185.8200  178.8210  140.0250 N   0  0  0  0  0  0  0  0  0  0  0  0
  185.7750  177.9490  144.2030 C   0  0  2  0  0  3  0  0  0  0  0  0
  185.3550  179.1770  145.0180 C   0  0  0  0  0  2  0  0  0  0  0  0
  189.3200  177.1890  147.5040 C   0  0  0  0  0  3  0  0  0  0  0  0
  187.1010  177.4620  144.6010 N   0  0  0  0  0  0  0  0  0  0  0  0
  187.2690  178.3990  148.0840 C   0  0  0  0  0  3  0  0  0  0  0  0
  186.7750  178.2930  146.8470 C   0  0  0  0  0  0  0  0  0  0  0  0
  185.4300  178.8580  146.5100 C   0  0  0  0  0  2  0  0  0  0  0  0
  187.5510  177.5720  145.8140 C   0  0  0  0  0  0  0  0  0  0  0  0
  188.5900  177.8290  148.4260 C   0  0  0  0  0  3  0  0  0  0  0  0
  188.8330  177.0420  146.1620 N   0  0  0  0  0  2  0  0  0  0  0  0
  188.2050  178.2670  139.8680 C   0  0  0  0  0  0  0  0  0  0  0  0
  188.6600  179.2610  139.2410 O   0  0  0  0  0  0  0  0  0  0  0  0
  188.9340  176.9610  139.7840 C   0  0  0  0  0  2  0  0  0  0  0  0
  191.4410  177.0920  139.7420 C   0  0  0  0  0  0  0  0  0  0  0  0
  191.4700  176.7070  138.5420 O   0  0  0  0  0  0  0  0  0  0  0  0
  190.2100  177.0480  140.4840 N   0  0  0  0  0  0  0  0  0  0  0  0
  192.6850  177.6460  140.3510 C   0  0  0  0  0  2  0  0  0  0  0  0
  193.8940  176.9120  139.8030 C   0  0  0  0  0  1  0  0  0  0  0  0
  190.1900  177.2210  141.9330 C   0  0  0  0  0  2  0  0  0  0  0  0
  189.0330  175.5330  143.1270 F   0  0  0  0  0  0  0  0  0  0  0  0
  191.1870  175.9450  143.6920 O   0  0  0  0  0  1  0  0  0  0  0  0
  190.2790  175.8750  142.6350 C   0  0  2  0  0  3  0  0  0  0  0  0
  183.3180  178.8510  142.6820 O   0  0  0  0  0  0  0  0  0  0  0  0
  182.0550  178.7780  142.0290 C   0  0  0  0  0  2  0  0  0  0  0  0
  180.5150  178.4880  143.9630 C   0  0  0  0  0  1  0  0  0  0  0  0
  180.9770  179.4360  142.8740 C   0  0  0  0  0  2  0  0  0  0  0  0
  1  3  1  0  0  0  0
  2  1  2  0  0  0  0
  4 29  1  0  0  0  0
  4  3  2  0  0  0  0
  5  4  1  0  0  0  0
  6  2  1  0  0  0  0
  6  5  2  0  0  0  0
  7  3  1  6  0  0  0
  7 10  1  0  0  0  0
  7  8  1  0  0  0  0
  8 13  1  0  0  0  0
  9 15  2  0  0  0  0
 10 14  2  0  0  0  0
 11 15  1  0  0  0  0
 12 11  2  0  0  0  0
 13 12  1  0  0  0  0
 14 16  1  0  0  0  0
 14 12  1  0  0  0  0
 16  9  1  0  0  0  0
 17  2  1  0  0  0  0
 18 17  2  0  0  0  0
 19 17  1  0  0  0  0
 19 22  1  0  0  0  0
 20 23  1  0  0  0  0
 20 22  1  0  0  0  0
 21 20  2  0  0  0  0
 22 25  1  0  0  0  0
 24 23  1  0  0  0  0
 25 28  1  0  0  0  0
 28 26  1  1  0  0  0
 28 27  1  0  0  0  0
 30 29  1  0  0  0  0
 30 32  1  0  0  0  0
 32 31  1  0  0  0  0
M  END
>  <MODEL>
1

>  <REMARK>
 VINA RESULT:      -8.3      0.000      0.000
  Name = 
  10 active torsions:
  status: ('A' for Active; 'I' for Inactive)
    1  A    between atoms: C_2  and  C_5
    2  A    between atoms: C_3  and  C_22
    3  A    between atoms: C_4  and  C_24
    4  A    between atoms: C_13  and  O_18
    5  A    between atoms: C_13  and  C_29
    6  A    between atoms: C_14  and  O_18
    7  A    between atoms: C_15  and  N_20
    8  A    between atoms: C_15  and  C_26
    9  A    between atoms: C_16  and  N_20
   10  A    between atoms: C_16  and  C_24
                            x       y       z     vdW  Elec       q    Type
                         _______ _______ _______ _____ _____    ______ ____

>  <TORSDO>
F 10

$$$$
=
 OpenBabel10272413153D

 32 34  0  0  1  0  0  0  0  0999 V2000
  186.9630  177.9020  144.6000 C   0  0  0  0  0  3  0  0  0  0  0  0
  186.0270  178.3520  145.5340 C   0  0  0  0  0  0  0  0  0  0  0  0
  188.1530  177.3000  145.0240 C   0  0  0  0  0  0  0  0  0  0  0  0
  188.3970  177.1580  146.4140 C   0  0  0  0  0  0  0  0  0  0  0  0
  187.4350  177.6350  147.3080 C   0  0  0  0  0  3  0  0  0  0  0  0
  186.2890  178.2110  146.8610 N   0  0  0  0  0  0  0  0  0  0  0  0
  189.1410  176.8740  143.9810 C   0  0  2  0  0  3  0  0  0  0  0  0
  190.4360  177.6880  144.0760 C   0  0  0  0  0  2  0  0  0  0  0  0
  189.4380  177.3000  139.1050 C   0  0  0  0  0  3  0  0  0  0  0  0
  188.5450  176.9570  142.6430 N   0  0  0  0  0  0  0  0  0  0  0  0
  191.4320  177.4250  140.5260 C   0  0  0  0  0  3  0  0  0  0  0  0
  190.7250  177.2760  141.6490 C   0  0  0  0  0  0  0  0  0  0  0  0
  191.4060  177.2450  142.9820 C   0  0  0  0  0  2  0  0  0  0  0  0
  189.2590  177.0960  141.5660 C   0  0  0  0  0  0  0  0  0  0  0  0
  190.7660  177.4410  139.2050 C   0  0  0  0  0  3  0  0  0  0  0  0
  188.6340  177.1290  140.2810 N   0  0  0  0  0  2  0  0  0  0  0  0
  184.7730  178.9900  145.0960 C   0  0  0  0  0  0  0  0  0  0  0  0
  183.7520  178.9350  145.8320 O   0  0  0  0  0  0  0  0  0  0  0  0
  184.6750  179.6820  143.7710 C   0  0  0  0  0  2  0  0  0  0  0  0
  182.5490  178.9750  142.6370 C   0  0  0  0  0  0  0  0  0  0  0  0
  181.8540  179.5380  143.5260 O   0  0  0  0  0  0  0  0  0  0  0  0
  183.9700  178.8400  142.8110 N   0  0  0  0  0  0  0  0  0  0  0  0
  181.8810  178.5110  141.3870 C   0  0  0  0  0  2  0  0  0  0  0  0
  180.3800  178.4740  141.5920 C   0  0  0  0  0  1  0  0  0  0  0  0
  184.7610  177.9660  141.9510 C   0  0  0  0  0  2  0  0  0  0  0  0
  186.5600  179.4970  141.7620 F   0  0  0  0  0  0  0  0  0  0  0  0
  184.8570  179.6730  140.2800 O   0  0  0  0  0  1  0  0  0  0  0  0
  185.6390  178.7840  141.0170 C   0  0  2  0  0  3  0  0  0  0  0  0
  189.5540  176.5840  146.9660 O   0  0  0  0  0  0  0  0  0  0  0  0
  190.5930  177.2940  147.6300 C   0  0  0  0  0  2  0  0  0  0  0  0
  192.0870  175.6710  146.4760 C   0  0  0  0  0  1  0  0  0  0  0  0
  191.8320  176.4250  147.7670 C   0  0  0  0  0  2  0  0  0  0  0  0
  1  3  2  0  0  0  0
  1  2  1  0  0  0  0
  2  6  2  0  0  0  0
  3  4  1  0  0  0  0
  4 29  1  0  0  0  0
  4  5  2  0  0  0  0
  6  5  1  0  0  0  0
  7  8  1  0  0  0  0
  7  3  1  1  0  0  0
  9 15  2  0  0  0  0
  9 16  1  0  0  0  0
 10  7  1  0  0  0  0
 11 12  2  0  0  0  0
 12 13  1  0  0  0  0
 13  8  1  0  0  0  0
 14 12  1  0  0  0  0
 14 10  2  0  0  0  0
 15 11  1  0  0  0  0
 16 14  1  0  0  0  0
 17  2  1  0  0  0  0
 17 18  2  0  0  0  0
 19 17  1  0  0  0  0
 20 22  1  0  0  0  0
 20 21  2  0  0  0  0
 22 19  1  0  0  0  0
 23 24  1  0  0  0  0
 23 20  1  0  0  0  0
 25 22  1  0  0  0  0
 28 27  1  1  0  0  0
 28 26  1  0  0  0  0
 28 25  1  0  0  0  0
 29 30  1  0  0  0  0
 30 32  1  0  0  0  0
 31 32  1  0  0  0  0
M  END
>  <MODEL>
2

>  <REMARK>
 VINA RESULT:      -8.3      2.404      7.812
  Name = 
  10 active torsions:
  status: ('A' for Active; 'I' for Inactive)
    1  A    between atoms: C_2  and  C_5
    2  A    between atoms: C_3  and  C_22
    3  A    between atoms: C_4  and  C_24
    4  A    between atoms: C_13  and  O_18
    5  A    between atoms: C_13  and  C_29
    6  A    between atoms: C_14  and  O_18
    7  A    between atoms: C_15  and  N_20
    8  A    between atoms: C_15  and  C_26
    9  A    between atoms: C_16  and  N_20
   10  A    between atoms: C_16  and  C_24
                            x       y       z     vdW  Elec       q    Type
                         _______ _______ _______ _____ _____    ______ ____

>  <TORSDO>
F 10

$$$$
=
 OpenBabel10272413153D

 32 34  0  0  1  0  0  0  0  0999 V2000
  186.6530  178.2250  141.9920 C   0  0  0  0  0  3  0  0  0  0  0  0
  186.5830  178.5390  140.6330 C   0  0  0  0  0  0  0  0  0  0  0  0
  185.5020  178.2610  142.7870 C   0  0  0  0  0  0  0  0  0  0  0  0
  184.2670  178.6280  142.1960 C   0  0  0  0  0  0  0  0  0  0  0  0
  184.2500  178.9460  140.8350 C   0  0  0  0  0  3  0  0  0  0  0  0
  185.3860  178.8950  140.0920 N   0  0  0  0  0  0  0  0  0  0  0  0
  185.6410  177.9550  144.2480 C   0  0  2  0  0  3  0  0  0  0  0  0
  185.2750  179.1690  145.1070 C   0  0  0  0  0  2  0  0  0  0  0  0
  189.4120  177.1650  147.2810 C   0  0  0  0  0  3  0  0  0  0  0  0
  186.9940  177.4680  144.5440 N   0  0  0  0  0  0  0  0  0  0  0  0
  187.4010  178.3560  148.0200 C   0  0  0  0  0  3  0  0  0  0  0  0
  186.8230  178.2660  146.8190 C   0  0  0  0  0  0  0  0  0  0  0  0
  185.4560  178.8290  146.5860 C   0  0  0  0  0  2  0  0  0  0  0  0
  187.5280  177.5630  145.7250 C   0  0  0  0  0  0  0  0  0  0  0  0
  188.7450  177.7880  148.2610 C   0  0  0  0  0  3  0  0  0  0  0  0
  188.8330  177.0350  145.9750 N   0  0  0  0  0  2  0  0  0  0  0  0
  187.7900  178.5070  139.7890 C   0  0  0  0  0  0  0  0  0  0  0  0
  187.6920  178.2160  138.5670 O   0  0  0  0  0  0  0  0  0  0  0  0
  189.1460  178.7820  140.3620 C   0  0  0  0  0  2  0  0  0  0  0  0
  190.0140  177.3220  142.2110 C   0  0  0  0  0  0  0  0  0  0  0  0
  190.0360  178.2960  143.0100 O   0  0  0  0  0  0  0  0  0  0  0  0
  189.7680  177.5420  140.8110 N   0  0  0  0  0  0  0  0  0  0  0  0
  190.1890  175.9430  142.7520 C   0  0  0  0  0  2  0  0  0  0  0  0
  191.4070  175.8970  143.6530 C   0  0  0  0  0  1  0  0  0  0  0  0
  190.0040  176.4940  139.8240 C   0  0  0  0  0  2  0  0  0  0  0  0
  192.1190  177.5540  139.9620 F   0  0  0  0  0  0  0  0  0  0  0  0
  191.3600  176.9630  137.9120 O   0  0  0  0  0  1  0  0  0  0  0  0
  191.4120  176.5980  139.2570 C   0  0  2  0  0  3  0  0  0  0  0  0
  183.0460  178.7130  142.8860 O   0  0  0  0  0  0  0  0  0  0  0  0
  181.7620  178.8370  142.2830 C   0  0  0  0  0  2  0  0  0  0  0  0
  180.0670  178.2800  144.0200 C   0  0  0  0  0  1  0  0  0  0  0  0
  180.7590  179.4040  143.2740 C   0  0  0  0  0  2  0  0  0  0  0  0
  1  3  1  0  0  0  0
  2  1  2  0  0  0  0
  4  3  2  0  0  0  0
  4 29  1  0  0  0  0
  5  4  1  0  0  0  0
  6  2  1  0  0  0  0
  6  5  2  0  0  0  0
  7  3  1  6  0  0  0
  7 10  1  0  0  0  0
  7  8  1  0  0  0  0
  8 13  1  0  0  0  0
  9 15  2  0  0  0  0
 10 14  2  0  0  0  0
 11 15  1  0  0  0  0
 12 11  2  0  0  0  0
 13 12  1  0  0  0  0
 14 16  1  0  0  0  0
 14 12  1  0  0  0  0
 16  9  1  0  0  0  0
 17 19  1  0  0  0  0
 17  2  1  0  0  0  0
 18 17  2  0  0  0  0
 19 22  1  0  0  0  0
 20 23  1  0  0  0  0
 20 21  2  0  0  0  0
 22 20  1  0  0  0  0
 23 24  1  0  0  0  0
 25 22  1  0  0  0  0
 28 27  1  6  0  0  0
 28 25  1  0  0  0  0
 28 26  1  0  0  0  0
 30 29  1  0  0  0  0
 30 32  1  0  0  0  0
 32 31  1  0  0  0  0
M  END
>  <MODEL>
3

>  <REMARK>
 VINA RESULT:      -8.2      1.237      2.199
  Name = 
  10 active torsions:
  status: ('A' for Active; 'I' for Inactive)
    1  A    between atoms: C_2  and  C_5
    2  A    between atoms: C_3  and  C_22
    3  A    between atoms: C_4  and  C_24
    4  A    between atoms: C_13  and  O_18
    5  A    between atoms: C_13  and  C_29
    6  A    between atoms: C_14  and  O_18
    7  A    between atoms: C_15  and  N_20
    8  A    between atoms: C_15  and  C_26
    9  A    between atoms: C_16  and  N_20
   10  A    between atoms: C_16  and  C_24
                            x       y       z     vdW  Elec       q    Type
                         _______ _______ _______ _____ _____    ______ ____

>  <TORSDO>
F 10

$$$$
=
 OpenBabel10272413153D

 32 34  0  0  1  0  0  0  0  0999 V2000
  187.7050  178.3840  141.6270 C   0  0  0  0  0  3  0  0  0  0  0  0
  186.7450  178.5090  140.6190 C   0  0  0  0  0  0  0  0  0  0  0  0
  189.0360  178.0960  141.3050 C   0  0  0  0  0  0  0  0  0  0  0  0
  189.3950  177.9280  139.9430 C   0  0  0  0  0  0  0  0  0  0  0  0
  188.3970  178.0510  138.9730 C   0  0  0  0  0  3  0  0  0  0  0  0
  187.1160  178.3360  139.3220 N   0  0  0  0  0  0  0  0  0  0  0  0
  190.0160  177.9300  142.4270 C   0  0  2  0  0  3  0  0  0  0  0  0
  190.6620  176.5420  142.4000 C   0  0  0  0  0  2  0  0  0  0  0  0
  189.6660  177.4820  147.2970 C   0  0  0  0  0  3  0  0  0  0  0  0
  189.3710  178.2040  143.7170 N   0  0  0  0  0  0  0  0  0  0  0  0
  191.3710  176.2700  146.0190 C   0  0  0  0  0  3  0  0  0  0  0  0
  190.9450  176.7640  144.8530 C   0  0  0  0  0  0  0  0  0  0  0  0
  191.6310  176.4000  143.5730 C   0  0  0  0  0  2  0  0  0  0  0  0
  189.8120  177.7150  144.8370 C   0  0  0  0  0  0  0  0  0  0  0  0
  190.7060  176.6390  147.2880 C   0  0  0  0  0  3  0  0  0  0  0  0
  189.1750  178.0460  146.0730 N   0  0  0  0  0  2  0  0  0  0  0  0
  185.3410  178.8090  140.9500 C   0  0  0  0  0  0  0  0  0  0  0  0
  184.7470  179.7500  140.3600 O   0  0  0  0  0  0  0  0  0  0  0  0
  184.6080  178.0330  142.0010 C   0  0  0  0  0  2  0  0  0  0  0  0
  182.3100  178.9070  142.5090 C   0  0  0  0  0  0  0  0  0  0  0  0
  181.8590  178.4300  141.4330 O   0  0  0  0  0  0  0  0  0  0  0  0
  183.7260  178.9150  142.7570 N   0  0  0  0  0  0  0  0  0  0  0  0
  181.3480  179.4030  143.5350 C   0  0  0  0  0  2  0  0  0  0  0  0
  180.3730  178.3000  143.8990 C   0  0  0  0  0  1  0  0  0  0  0  0
  184.3020  179.6940  143.8480 C   0  0  0  0  0  2  0  0  0  0  0  0
  183.6300  178.4970  145.7790 F   0  0  0  0  0  0  0  0  0  0  0  0
  185.7000  179.4140  145.7670 O   0  0  0  0  0  1  0  0  0  0  0  0
  184.7280  178.7840  144.9900 C   0  0  2  0  0  3  0  0  0  0  0  0
  190.6910  177.6260  139.4920 O   0  0  0  0  0  0  0  0  0  0  0  0
  191.0460  176.5090  138.6840 C   0  0  0  0  0  2  0  0  0  0  0  0
  193.2710  177.0790  139.6440 C   0  0  0  0  0  1  0  0  0  0  0  0
  192.5480  176.4670  138.4600 C   0  0  0  0  0  2  0  0  0  0  0  0
  2 17  1  0  0  0  0
  2  1  2  0  0  0  0
  3  1  1  0  0  0  0
  4  3  2  0  0  0  0
  5  6  2  0  0  0  0
  5  4  1  0  0  0  0
  6  2  1  0  0  0  0
  7  3  1  6  0  0  0
  7 10  1  0  0  0  0
  8  7  1  0  0  0  0
  8 13  1  0  0  0  0
 10 14  2  0  0  0  0
 11 15  1  0  0  0  0
 12 11  2  0  0  0  0
 13 12  1  0  0  0  0
 14 12  1  0  0  0  0
 14 16  1  0  0  0  0
 15  9  2  0  0  0  0
 16  9  1  0  0  0  0
 17 19  1  0  0  0  0
 18 17  2  0  0  0  0
 19 22  1  0  0  0  0
 20 22  1  0  0  0  0
 20 23  1  0  0  0  0
 21 20  2  0  0  0  0
 22 25  1  0  0  0  0
 23 24  1  0  0  0  0
 25 28  1  0  0  0  0
 28 27  1  1  0  0  0
 28 26  1  0  0  0  0
 29  4  1  0  0  0  0
 30 29  1  0  0  0  0
 32 30  1  0  0  0  0
 32 31  1  0  0  0  0
M  END
>  <MODEL>
4

>  <REMARK>
 VINA RESULT:      -8.2      2.110      7.031
  Name = 
  10 active torsions:
  status: ('A' for Active; 'I' for Inactive)
    1  A    between atoms: C_2  and  C_5
    2  A    between atoms: C_3  and  C_22
    3  A    between atoms: C_4  and  C_24
    4  A    between atoms: C_13  and  O_18
    5  A    between atoms: C_13  and  C_29
    6  A    between atoms: C_14  and  O_18
    7  A    between atoms: C_15  and  N_20
    8  A    between atoms: C_15  and  C_26
    9  A    between atoms: C_16  and  N_20
   10  A    between atoms: C_16  and  C_24
                            x       y       z     vdW  Elec       q    Type
                         _______ _______ _______ _____ _____    ______ ____

>  <TORSDO>
F 10

$$$$
=
 OpenBabel10272413153D

 32 34  0  0  1  0  0  0  0  0999 V2000
  186.9440  177.8340  144.8180 C   0  0  0  0  0  3  0  0  0  0  0  0
  186.1480  178.3250  145.8550 C   0  0  0  0  0  0  0  0  0  0  0  0
  188.1880  177.2550  145.0930 C   0  0  0  0  0  0  0  0  0  0  0  0
  188.6310  177.1790  146.4380 C   0  0  0  0  0  0  0  0  0  0  0  0
  187.8040  177.6950  147.4390 C   0  0  0  0  0  3  0  0  0  0  0  0
  186.6000  178.2460  147.1360 N   0  0  0  0  0  0  0  0  0  0  0  0
  189.0190  176.7820  143.9390 C   0  0  2  0  0  3  0  0  0  0  0  0
  190.4460  177.3340  144.0190 C   0  0  0  0  0  2  0  0  0  0  0  0
  189.1170  177.7120  139.1250 C   0  0  0  0  0  3  0  0  0  0  0  0
  188.3750  177.1260  142.6660 N   0  0  0  0  0  0  0  0  0  0  0  0
  191.1750  177.3120  140.3950 C   0  0  0  0  0  3  0  0  0  0  0  0
  190.5170  177.1620  141.5470 C   0  0  0  0  0  0  0  0  0  0  0  0
  191.2540  176.8560  142.8140 C   0  0  0  0  0  2  0  0  0  0  0  0
  189.0410  177.2590  141.5580 C   0  0  0  0  0  0  0  0  0  0  0  0
  190.4510  177.6000  139.1380 C   0  0  0  0  0  3  0  0  0  0  0  0
  188.3620  177.5530  140.3350 N   0  0  0  0  0  2  0  0  0  0  0  0
  184.8380  178.9390  145.5740 C   0  0  0  0  0  0  0  0  0  0  0  0
  183.8680  178.7250  146.3490 O   0  0  0  0  0  0  0  0  0  0  0  0
  184.6250  179.7920  144.3620 C   0  0  0  0  0  2  0  0  0  0  0  0
  184.5990  178.8050  142.0530 C   0  0  0  0  0  0  0  0  0  0  0  0
  185.5630  179.5360  141.6990 O   0  0  0  0  0  0  0  0  0  0  0  0
  183.9510  179.0290  143.3180 N   0  0  0  0  0  0  0  0  0  0  0  0
  184.1870  177.6770  141.1690 C   0  0  0  0  0  2  0  0  0  0  0  0
  183.5530  178.2230  139.9050 C   0  0  0  0  0  1  0  0  0  0  0  0
  182.6770  178.3960  143.6410 C   0  0  0  0  0  2  0  0  0  0  0  0
  180.5840  179.3810  144.1530 F   0  0  0  0  0  0  0  0  0  0  0  0
  180.9140  178.6290  142.0430 O   0  0  0  0  0  1  0  0  0  0  0  0
  181.5160  179.2420  143.1420 C   0  0  2  0  0  3  0  0  0  0  0  0
  189.8600  176.6330  146.8430 O   0  0  0  0  0  0  0  0  0  0  0  0
  190.7750  177.2400  147.7500 C   0  0  0  0  0  2  0  0  0  0  0  0
  192.1290  175.4340  146.7000 C   0  0  0  0  0  1  0  0  0  0  0  0
  192.0520  176.4220  147.8470 C   0  0  0  0  0  2  0  0  0  0  0  0
  1  3  2  0  0  0  0
  1  2  1  0  0  0  0
  2  6  2  0  0  0  0
  3  4  1  0  0  0  0
  4 29  1  0  0  0  0
  4  5  2  0  0  0  0
  6  5  1  0  0  0  0
  7  8  1  0  0  0  0
  7  3  1  1  0  0  0
  9 15  2  0  0  0  0
  9 16  1  0  0  0  0
 10  7  1  0  0  0  0
 11 12  2  0  0  0  0
 12 14  1  0  0  0  0
 12 13  1  0  0  0  0
 13  8  1  0  0  0  0
 14 10  2  0  0  0  0
 15 11  1  0  0  0  0
 16 14  1  0  0  0  0
 17  2  1  0  0  0  0
 17 18  2  0  0  0  0
 19 17  1  0  0  0  0
 20 22  1  0  0  0  0
 21 20  2  0  0  0  0
 22 25  1  0  0  0  0
 22 19  1  0  0  0  0
 23 20  1  0  0  0  0
 24 23  1  0  0  0  0
 28 27  1  6  0  0  0
 28 25  1  0  0  0  0
 28 26  1  0  0  0  0
 29 30  1  0  0  0  0
 30 32  1  0  0  0  0
 31 32  1  0  0  0  0
M  END
>  <MODEL>
5

>  <REMARK>
 VINA RESULT:      -7.8      2.769      7.847
  Name = 
  10 active torsions:
  status: ('A' for Active; 'I' for Inactive)
    1  A    between atoms: C_2  and  C_5
    2  A    between atoms: C_3  and  C_22
    3  A    between atoms: C_4  and  C_24
    4  A    between atoms: C_13  and  O_18
    5  A    between atoms: C_13  and  C_29
    6  A    between atoms: C_14  and  O_18
    7  A    between atoms: C_15  and  N_20
    8  A    between atoms: C_15  and  C_26
    9  A    between atoms: C_16  and  N_20
   10  A    between atoms: C_16  and  C_24
                            x       y       z     vdW  Elec       q    Type
                         _______ _______ _______ _____ _____    ______ ____

>  <TORSDO>
F 10

$$$$
=
 OpenBabel10272413153D

 32 34  0  0  1  0  0  0  0  0999 V2000
  188.6650  177.5120  141.8900 C   0  0  0  0  0  3  0  0  0  0  0  0
  189.9260  176.9520  141.6760 C   0  0  0  0  0  0  0  0  0  0  0  0
  187.9960  178.1700  140.8520 C   0  0  0  0  0  0  0  0  0  0  0  0
  188.6180  178.2630  139.5810 C   0  0  0  0  0  0  0  0  0  0  0  0
  189.8860  177.6980  139.4190 C   0  0  0  0  0  3  0  0  0  0  0  0
  190.5040  177.0630  140.4490 N   0  0  0  0  0  0  0  0  0  0  0  0
  186.6630  178.7890  141.1490 C   0  0  2  0  0  3  0  0  0  0  0  0
  185.9900  178.1100  142.3460 C   0  0  0  0  0  2  0  0  0  0  0  0
  182.2880  178.8290  138.9340 C   0  0  0  0  0  3  0  0  0  0  0  0
  185.8070  178.7610  139.9570 N   0  0  0  0  0  0  0  0  0  0  0  0
  182.4870  178.7890  141.3770 C   0  0  0  0  0  3  0  0  0  0  0  0
  183.8220  178.7630  141.3370 C   0  0  0  0  0  0  0  0  0  0  0  0
  184.6250  178.7470  142.6000 C   0  0  0  0  0  2  0  0  0  0  0  0
  184.5100  178.7940  140.0270 C   0  0  0  0  0  0  0  0  0  0  0  0
  181.6900  178.8200  140.1320 C   0  0  0  0  0  3  0  0  0  0  0  0
  183.7200  178.8090  138.8360 N   0  0  0  0  0  2  0  0  0  0  0  0
  190.6390  176.2610  142.7640 C   0  0  0  0  0  0  0  0  0  0  0  0
  190.4210  175.0390  142.9780 O   0  0  0  0  0  0  0  0  0  0  0  0
  191.6020  176.9920  143.6480 C   0  0  0  0  0  2  0  0  0  0  0  0
  191.6940  176.1440  146.0100 C   0  0  0  0  0  0  0  0  0  0  0  0
  192.3570  175.1340  145.6520 O   0  0  0  0  0  0  0  0  0  0  0  0
  191.1120  177.0120  145.0220 N   0  0  0  0  0  0  0  0  0  0  0  0
  191.5770  176.4500  147.4650 C   0  0  0  0  0  2  0  0  0  0  0  0
  192.7130  175.7880  148.2200 C   0  0  0  0  0  1  0  0  0  0  0  0
  190.1220  178.0200  145.3860 C   0  0  0  0  0  2  0  0  0  0  0  0
  187.7980  178.1820  144.9550 F   0  0  0  0  0  0  0  0  0  0  0  0
  188.4510  177.2650  146.9200 O   0  0  0  0  0  1  0  0  0  0  0  0
  188.7510  177.3870  145.5630 C   0  0  2  0  0  3  0  0  0  0  0  0
  188.0570  178.9050  138.4640 O   0  0  0  0  0  0  0  0  0  0  0  0
  188.5040  178.7640  137.1200 C   0  0  0  0  0  2  0  0  0  0  0  0
  186.3470  177.6610  136.5480 C   0  0  0  0  0  1  0  0  0  0  0  0
  187.8570  177.5540  136.4660 C   0  0  0  0  0  2  0  0  0  0  0  0
  2  1  1  0  0  0  0
  2 17  1  0  0  0  0
  3  1  2  0  0  0  0
  4  3  1  0  0  0  0
  5  4  2  0  0  0  0
  5  6  1  0  0  0  0
  6  2  2  0  0  0  0
  7  3  1  6  0  0  0
  7  8  1  0  0  0  0
  8 13  1  0  0  0  0
  9 15  2  0  0  0  0
 10 14  2  0  0  0  0
 10  7  1  0  0  0  0
 12 11  2  0  0  0  0
 12 13  1  0  0  0  0
 14 12  1  0  0  0  0
 15 11  1  0  0  0  0
 16  9  1  0  0  0  0
 16 14  1  0  0  0  0
 17 18  2  0  0  0  0
 17 19  1  0  0  0  0
 19 22  1  0  0  0  0
 20 23  1  0  0  0  0
 21 20  2  0  0  0  0
 22 25  1  0  0  0  0
 22 20  1  0  0  0  0
 23 24  1  0  0  0  0
 25 28  1  0  0  0  0
 28 26  1  6  0  0  0
 28 27  1  0  0  0  0
 29  4  1  0  0  0  0
 30 29  1  0  0  0  0
 32 31  1  0  0  0  0
 32 30  1  0  0  0  0
M  END
>  <MODEL>
6

>  <REMARK>
 VINA RESULT:      -7.8      2.490      6.380
  Name = 
  10 active torsions:
  status: ('A' for Active; 'I' for Inactive)
    1  A    between atoms: C_2  and  C_5
    2  A    between atoms: C_3  and  C_22
    3  A    between atoms: C_4  and  C_24
    4  A    between atoms: C_13  and  O_18
    5  A    between atoms: C_13  and  C_29
    6  A    between atoms: C_14  and  O_18
    7  A    between atoms: C_15  and  N_20
    8  A    between atoms: C_15  and  C_26
    9  A    between atoms: C_16  and  N_20
   10  A    between atoms: C_16  and  C_24
                            x       y       z     vdW  Elec       q    Type
                         _______ _______ _______ _____ _____    ______ ____

>  <TORSDO>
F 10

$$$$
=
 OpenBabel10272413153D

 32 34  0  0  1  0  0  0  0  0999 V2000
  187.4340  178.0600  142.0960 C   0  0  0  0  0  3  0  0  0  0  0  0
  187.5670  178.3640  140.7400 C   0  0  0  0  0  0  0  0  0  0  0  0
  186.1860  178.1450  142.7230 C   0  0  0  0  0  0  0  0  0  0  0  0
  185.0600  178.5500  141.9620 C   0  0  0  0  0  0  0  0  0  0  0  0
  185.2460  178.8550  140.6110 C   0  0  0  0  0  3  0  0  0  0  0  0
  186.4720  178.7570  140.0350 N   0  0  0  0  0  0  0  0  0  0  0  0
  186.1080  177.8480  144.1900 C   0  0  2  0  0  3  0  0  0  0  0  0
  185.4550  179.0030  144.9570 C   0  0  0  0  0  2  0  0  0  0  0  0
  189.3690  177.5030  147.8360 C   0  0  0  0  0  3  0  0  0  0  0  0
  187.4380  177.5280  144.7210 N   0  0  0  0  0  0  0  0  0  0  0  0
  187.1320  178.4350  148.2020 C   0  0  0  0  0  3  0  0  0  0  0  0
  186.7840  178.2830  146.9210 C   0  0  0  0  0  0  0  0  0  0  0  0
  185.4190  178.6770  146.4490 C   0  0  0  0  0  2  0  0  0  0  0  0
  187.7460  177.6790  145.9740 C   0  0  0  0  0  0  0  0  0  0  0  0
  188.4730  178.0340  148.6780 C   0  0  0  0  0  3  0  0  0  0  0  0
  189.0430  177.3120  146.4520 N   0  0  0  0  0  2  0  0  0  0  0  0
  188.8780  178.2790  140.0730 C   0  0  0  0  0  0  0  0  0  0  0  0
  189.8620  177.7850  140.6870 O   0  0  0  0  0  0  0  0  0  0  0  0
  189.0780  178.8000  138.6840 C   0  0  0  0  0  2  0  0  0  0  0  0
  187.7990  178.3410  136.5720 C   0  0  0  0  0  0  0  0  0  0  0  0
  187.3060  179.5010  136.5840 O   0  0  0  0  0  0  0  0  0  0  0  0
  188.5390  177.8600  137.7080 N   0  0  0  0  0  0  0  0  0  0  0  0
  187.6500  177.5080  135.3440 C   0  0  0  0  0  2  0  0  0  0  0  0
  186.2190  177.5770  134.8480 C   0  0  0  0  0  1  0  0  0  0  0  0
  188.8840  176.4490  137.8470 C   0  0  0  0  0  2  0  0  0  0  0  0
  190.7310  176.4560  136.3630 F   0  0  0  0  0  0  0  0  0  0  0  0
  190.7310  174.9450  138.0500 O   0  0  0  0  0  1  0  0  0  0  0  0
  190.3820  176.2450  137.6840 C   0  0  2  0  0  3  0  0  0  0  0  0
  183.7580  178.6860  142.4750 O   0  0  0  0  0  0  0  0  0  0  0  0
  182.5710  178.7930  141.6970 C   0  0  0  0  0  2  0  0  0  0  0  0
  181.5760  178.8140  143.9790 C   0  0  0  0  0  1  0  0  0  0  0  0
  181.3520  178.4300  142.5290 C   0  0  0  0  0  2  0  0  0  0  0  0
  1  3  1  0  0  0  0
  2  1  2  0  0  0  0
  4 29  1  0  0  0  0
  4  3  2  0  0  0  0
  5  4  1  0  0  0  0
  6  5  2  0  0  0  0
  6  2  1  0  0  0  0
  7  3  1  6  0  0  0
  7 10  1  0  0  0  0
  7  8  1  0  0  0  0
  8 13  1  0  0  0  0
  9 15  2  0  0  0  0
 10 14  2  0  0  0  0
 11 15  1  0  0  0  0
 12 11  2  0  0  0  0
 13 12  1  0  0  0  0
 14 16  1  0  0  0  0
 14 12  1  0  0  0  0
 16  9  1  0  0  0  0
 17 18  2  0  0  0  0
 17  2  1  0  0  0  0
 19 17  1  0  0  0  0
 20 21  2  0  0  0  0
 20 22  1  0  0  0  0
 22 25  1  0  0  0  0
 22 19  1  0  0  0  0
 23 20  1  0  0  0  0
 24 23  1  0  0  0  0
 28 26  1  6  0  0  0
 28 25  1  0  0  0  0
 28 27  1  0  0  0  0
 30 29  1  0  0  0  0
 30 32  1  0  0  0  0
 32 31  1  0  0  0  0
M  END
>  <MODEL>
7

>  <REMARK>
 VINA RESULT:      -7.8      2.235      3.271
  Name = 
  10 active torsions:
  status: ('A' for Active; 'I' for Inactive)
    1  A    between atoms: C_2  and  C_5
    2  A    between atoms: C_3  and  C_22
    3  A    between atoms: C_4  and  C_24
    4  A    between atoms: C_13  and  O_18
    5  A    between atoms: C_13  and  C_29
    6  A    between atoms: C_14  and  O_18
    7  A    between atoms: C_15  and  N_20
    8  A    between atoms: C_15  and  C_26
    9  A    between atoms: C_16  and  N_20
   10  A    between atoms: C_16  and  C_24
                            x       y       z     vdW  Elec       q    Type
                         _______ _______ _______ _____ _____    ______ ____

>  <TORSDO>
F 10

$$$$
=
 OpenBabel10272413153D

 32 34  0  0  1  0  0  0  0  0999 V2000
  187.9090  178.3280  141.9220 C   0  0  0  0  0  3  0  0  0  0  0  0
  186.9270  178.5210  140.9470 C   0  0  0  0  0  0  0  0  0  0  0  0
  189.2250  178.0300  141.5530 C   0  0  0  0  0  0  0  0  0  0  0  0
  189.5470  177.9200  140.1760 C   0  0  0  0  0  0  0  0  0  0  0  0
  188.5280  178.1090  139.2390 C   0  0  0  0  0  3  0  0  0  0  0  0
  187.2610  178.4020  139.6330 N   0  0  0  0  0  0  0  0  0  0  0  0
  190.2290  177.7930  142.6400 C   0  0  2  0  0  3  0  0  0  0  0  0
  190.7760  176.3630  142.5890 C   0  0  0  0  0  2  0  0  0  0  0  0
  190.0150  177.3480  147.5190 C   0  0  0  0  0  3  0  0  0  0  0  0
  189.6490  178.1050  143.9520 N   0  0  0  0  0  0  0  0  0  0  0  0
  191.5870  176.0270  146.1800 C   0  0  0  0  0  3  0  0  0  0  0  0
  191.1580  176.5540  145.0300 C   0  0  0  0  0  0  0  0  0  0  0  0
  191.7730  176.1490  143.7270 C   0  0  0  0  0  2  0  0  0  0  0  0
  190.0930  177.5810  145.0550 C   0  0  0  0  0  0  0  0  0  0  0  0
  190.9940  176.4350  147.4710 C   0  0  0  0  0  3  0  0  0  0  0  0
  189.5230  177.9500  146.3130 N   0  0  0  0  0  2  0  0  0  0  0  0
  185.5380  178.8320  141.3270 C   0  0  0  0  0  0  0  0  0  0  0  0
  184.9770  179.8580  140.8600 O   0  0  0  0  0  0  0  0  0  0  0  0
  184.7840  177.9650  142.2870 C   0  0  0  0  0  2  0  0  0  0  0  0
  185.4780  178.3600  144.6680 C   0  0  0  0  0  0  0  0  0  0  0  0
  186.1450  177.2900  144.6810 O   0  0  0  0  0  0  0  0  0  0  0  0
  184.6090  178.6540  143.5610 N   0  0  0  0  0  0  0  0  0  0  0  0
  185.6540  179.3320  145.7850 C   0  0  0  0  0  2  0  0  0  0  0  0
  185.9770  178.5870  147.0660 C   0  0  0  0  0  1  0  0  0  0  0  0
  183.6260  179.7300  143.6320 C   0  0  0  0  0  2  0  0  0  0  0  0
  182.1960  178.0380  144.4710 F   0  0  0  0  0  0  0  0  0  0  0  0
  181.7990  178.8240  142.3860 O   0  0  0  0  0  1  0  0  0  0  0  0
  182.2140  179.1650  143.6720 C   0  0  2  0  0  3  0  0  0  0  0  0
  190.8250  177.6150  139.6780 O   0  0  0  0  0  0  0  0  0  0  0  0
  191.1160  176.6160  138.7060 C   0  0  0  0  0  2  0  0  0  0  0  0
  192.8770  176.1340  137.0140 C   0  0  0  0  0  1  0  0  0  0  0  0
  192.6120  176.5380  138.4510 C   0  0  0  0  0  2  0  0  0  0  0  0
  2 17  1  0  0  0  0
  2  1  2  0  0  0  0
  3  1  1  0  0  0  0
  4  3  2  0  0  0  0
  5  6  2  0  0  0  0
  5  4  1  0  0  0  0
  6  2  1  0  0  0  0
  7  3  1  6  0  0  0
  7 10  1  0  0  0  0
  8  7  1  0  0  0  0
  8 13  1  0  0  0  0
 10 14  2  0  0  0  0
 11 15  1  0  0  0  0
 12 14  1  0  0  0  0
 12 11  2  0  0  0  0
 13 12  1  0  0  0  0
 14 16  1  0  0  0  0
 15  9  2  0  0  0  0
 16  9  1  0  0  0  0
 17 19  1  0  0  0  0
 18 17  2  0  0  0  0
 19 22  1  0  0  0  0
 20 21  2  0  0  0  0
 20 23  1  0  0  0  0
 22 25  1  0  0  0  0
 22 20  1  0  0  0  0
 23 24  1  0  0  0  0
 25 28  1  0  0  0  0
 28 27  1  6  0  0  0
 28 26  1  0  0  0  0
 29  4  1  0  0  0  0
 30 29  1  0  0  0  0
 31 32  1  0  0  0  0
 32 30  1  0  0  0  0
M  END
>  <MODEL>
8

>  <REMARK>
 VINA RESULT:      -7.8      2.239      6.851
  Name = 
  10 active torsions:
  status: ('A' for Active; 'I' for Inactive)
    1  A    between atoms: C_2  and  C_5
    2  A    between atoms: C_3  and  C_22
    3  A    between atoms: C_4  and  C_24
    4  A    between atoms: C_13  and  O_18
    5  A    between atoms: C_13  and  C_29
    6  A    between atoms: C_14  and  O_18
    7  A    between atoms: C_15  and  N_20
    8  A    between atoms: C_15  and  C_26
    9  A    between atoms: C_16  and  N_20
   10  A    between atoms: C_16  and  C_24
                            x       y       z     vdW  Elec       q    Type
                         _______ _______ _______ _____ _____    ______ ____

>  <TORSDO>
F 10

$$$$
=
 OpenBabel10272413153D

 32 34  0  0  1  0  0  0  0  0999 V2000
  188.2310  177.7990  141.5410 C   0  0  0  0  0  3  0  0  0  0  0  0
  187.9600  178.3130  140.2720 C   0  0  0  0  0  0  0  0  0  0  0  0
  187.2300  177.7600  142.5190 C   0  0  0  0  0  0  0  0  0  0  0  0
  185.9400  178.2560  142.2030 C   0  0  0  0  0  0  0  0  0  0  0  0
  185.7210  178.7720  140.9230 C   0  0  0  0  0  3  0  0  0  0  0  0
  186.7160  178.7890  139.9980 N   0  0  0  0  0  0  0  0  0  0  0  0
  187.5860  177.2360  143.8770 C   0  0  2  0  0  3  0  0  0  0  0  0
  187.1680  178.2160  144.9780 C   0  0  0  0  0  2  0  0  0  0  0  0
  191.7700  176.5350  146.3350 C   0  0  0  0  0  3  0  0  0  0  0  0
  189.0180  176.9210  143.9470 N   0  0  0  0  0  0  0  0  0  0  0  0
  189.7230  177.2590  147.4720 C   0  0  0  0  0  3  0  0  0  0  0  0
  189.0200  177.2860  146.3360 C   0  0  0  0  0  0  0  0  0  0  0  0
  187.5720  177.6630  146.3430 C   0  0  0  0  0  2  0  0  0  0  0  0
  189.6740  176.8960  145.0680 C   0  0  0  0  0  0  0  0  0  0  0  0
  191.1510  176.8730  147.4730 C   0  0  0  0  0  3  0  0  0  0  0  0
  191.0590  176.5400  145.0890 N   0  0  0  0  0  2  0  0  0  0  0  0
  189.0090  178.3600  139.2380 C   0  0  0  0  0  0  0  0  0  0  0  0
  188.9810  179.2620  138.3580 O   0  0  0  0  0  0  0  0  0  0  0  0
  190.1000  177.3350  139.1910 C   0  0  0  0  0  2  0  0  0  0  0  0
  191.0690  175.9650  137.3230 C   0  0  0  0  0  0  0  0  0  0  0  0
  192.1850  176.5390  137.4430 O   0  0  0  0  0  0  0  0  0  0  0  0
  189.9230  176.4610  138.0370 N   0  0  0  0  0  0  0  0  0  0  0  0
  190.9760  174.7390  136.4790 C   0  0  0  0  0  2  0  0  0  0  0  0
  192.1500  173.8260  136.7720 C   0  0  0  0  0  1  0  0  0  0  0  0
  188.5740  176.0050  137.7180 C   0  0  0  0  0  2  0  0  0  0  0  0
  186.9840  177.4330  136.6960 F   0  0  0  0  0  0  0  0  0  0  0  0
  187.7230  175.6510  135.5130 O   0  0  0  0  0  1  0  0  0  0  0  0
  188.0840  176.6400  136.4270 C   0  0  2  0  0  3  0  0  0  0  0  0
  184.8560  178.2840  143.0960 O   0  0  0  0  0  0  0  0  0  0  0  0
  183.5030  178.5560  142.7460 C   0  0  0  0  0  2  0  0  0  0  0  0
  183.5330  178.7880  145.2240 C   0  0  0  0  0  1  0  0  0  0  0  0
  182.7140  179.0000  143.9670 C   0  0  0  0  0  2  0  0  0  0  0  0
  1  3  1  0  0  0  0
  2  1  2  0  0  0  0
  4  3  2  0  0  0  0
  4 29  1  0  0  0  0
  5  4  1  0  0  0  0
  6  2  1  0  0  0  0
  6  5  2  0  0  0  0
  7  3  1  6  0  0  0
  7 10  1  0  0  0  0
  7  8  1  0  0  0  0
  8 13  1  0  0  0  0
  9 15  2  0  0  0  0
 10 14  2  0  0  0  0
 11 15  1  0  0  0  0
 12 13  1  0  0  0  0
 12 11  2  0  0  0  0
 14 16  1  0  0  0  0
 14 12  1  0  0  0  0
 16  9  1  0  0  0  0
 17  2  1  0  0  0  0
 18 17  2  0  0  0  0
 19 17  1  0  0  0  0
 20 21  2  0  0  0  0
 20 22  1  0  0  0  0
 22 19  1  0  0  0  0
 23 24  1  0  0  0  0
 23 20  1  0  0  0  0
 25 22  1  0  0  0  0
 28 27  1  6  0  0  0
 28 26  1  0  0  0  0
 28 25  1  0  0  0  0
 30 29  1  0  0  0  0
 30 32  1  0  0  0  0
 32 31  1  0  0  0  0
M  END
>  <MODEL>
9

>  <REMARK>
 VINA RESULT:      -7.7      2.490      3.318
  Name = 
  10 active torsions:
  status: ('A' for Active; 'I' for Inactive)
    1  A    between atoms: C_2  and  C_5
    2  A    between atoms: C_3  and  C_22
    3  A    between atoms: C_4  and  C_24
    4  A    between atoms: C_13  and  O_18
    5  A    between atoms: C_13  and  C_29
    6  A    between atoms: C_14  and  O_18
    7  A    between atoms: C_15  and  N_20
    8  A    between atoms: C_15  and  C_26
    9  A    between atoms: C_16  and  N_20
   10  A    between atoms: C_16  and  C_24
                            x       y       z     vdW  Elec       q    Type
                         _______ _______ _______ _____ _____    ______ ____

>  <TORSDO>
F 10

$$$$
