=
 OpenBabel10272401083D

 27 31  0  0  0  0  0  0  0  0999 V2000
  187.2940  178.5070  141.4770 N   0  0  0  0  0  0  0  0  0  0  0  0
  187.6520  177.7330  143.7830 C   0  0  0  0  0  0  0  0  0  0  0  0
  189.5130  176.7670  142.3860 N   0  0  0  0  0  0  0  0  0  0  0  0
  189.9800  177.0680  147.1510 C   0  0  0  0  0  3  0  0  0  0  0  0
  192.1210  176.4870  148.2450 O   0  0  0  0  0  1  0  0  0  0  0  0
  187.1790  177.8880  145.1010 C   0  0  0  0  0  3  0  0  0  0  0  0
  191.2040  176.5260  144.6030 C   0  0  0  0  0  2  0  0  0  0  0  0
  189.5760  176.7120  138.7540 N   0  0  0  0  0  0  0  0  0  0  0  0
  191.9580  176.3960  145.8990 C   0  0  0  0  0  3  0  0  0  0  0  0
  190.5550  176.1840  137.8220 C   0  0  0  0  0  1  0  0  0  0  0  0
  189.7870  177.0460  144.7670 C   0  0  0  0  0  0  0  0  0  0  0  0
  186.8210  178.0800  142.7630 C   0  0  0  0  0  0  0  0  0  0  0  0
  191.3850  176.6370  147.0770 C   0  0  0  0  0  0  0  0  0  0  0  0
  189.2490  177.2610  146.0500 C   0  0  0  0  0  0  0  0  0  0  0  0
  188.3220  178.1580  140.7760 C   0  0  0  0  0  0  0  0  0  0  0  0
  188.9870  177.2650  143.6240 C   0  0  0  0  0  0  0  0  0  0  0  0
  190.0720  176.4110  140.0950 C   0  0  0  0  0  2  0  0  0  0  0  0
  187.9630  177.6570  146.1800 N   0  0  0  0  0  0  0  0  0  0  0  0
  189.5840  178.1610  138.5960 C   0  0  0  0  0  2  0  0  0  0  0  0
  188.4420  178.7680  139.4060 C   0  0  0  0  0  2  0  0  0  0  0  0
  189.2300  177.0620  141.1600 C   0  0  0  0  0  0  0  0  0  0  0  0
  182.6500  178.8640  143.4350 C   0  0  0  0  0  3  0  0  0  0  0  0
  185.3700  178.3170  142.9950 C   0  0  0  0  0  0  0  0  0  0  0  0
  184.4450  178.2350  141.9390 C   0  0  0  0  0  3  0  0  0  0  0  0
  183.0910  178.5010  142.1610 C   0  0  0  0  0  3  0  0  0  0  0  0
  183.5620  178.9660  144.4880 C   0  0  0  0  0  3  0  0  0  0  0  0
  184.9170  178.7000  144.2670 C   0  0  0  0  0  3  0  0  0  0  0  0
  1 12  1  0  0  0  0
  2  6  1  0  0  0  0
  3 16  1  0  0  0  0
  6 18  2  0  0  0  0
  7 11  1  0  0  0  0
  7  9  1  0  0  0  0
  8 17  1  0  0  0  0
  9 13  2  0  0  0  0
 10  8  1  0  0  0  0
 11 14  1  0  0  0  0
 12 23  1  0  0  0  0
 12  2  2  0  0  0  0
 13  4  1  0  0  0  0
 13  5  1  0  0  0  0
 14 18  1  0  0  0  0
 14  4  2  0  0  0  0
 15 21  1  0  0  0  0
 15  1  2  0  0  0  0
 16  2  1  0  0  0  0
 16 11  2  0  0  0  0
 17 21  1  0  0  0  0
 19  8  1  0  0  0  0
 19 20  1  0  0  0  0
 20 15  1  0  0  0  0
 21  3  2  0  0  0  0
 22 26  1  0  0  0  0
 23 27  1  0  0  0  0
 24 25  1  0  0  0  0
 24 23  2  0  0  0  0
 25 22  2  0  0  0  0
 27 26  2  0  0  0  0
M  END
>  <MODEL>
1

>  <REMARK>
 VINA RESULT:     -11.0      0.000      0.000
  Name = 
  1 active torsions:
  status: ('A' for Active; 'I' for Inactive)
    1  A    between atoms: C_9  and  C_15
                            x       y       z     vdW  Elec       q    Type
                         _______ _______ _______ _____ _____    ______ ____

>  <TORSDO>
F 1

$$$$
=
 OpenBabel10272401083D

 27 31  0  0  0  0  0  0  0  0999 V2000
  188.3950  177.0500  143.8720 N   0  0  0  0  0  0  0  0  0  0  0  0
  186.2600  178.0900  144.5110 C   0  0  0  0  0  0  0  0  0  0  0  0
  186.5480  178.4630  142.0360 N   0  0  0  0  0  0  0  0  0  0  0  0
  182.2050  178.8190  144.0410 C   0  0  0  0  0  3  0  0  0  0  0  0
  180.1940  179.1520  142.6390 O   0  0  0  0  0  1  0  0  0  0  0  0
  185.3630  178.2310  145.5880 C   0  0  0  0  0  3  0  0  0  0  0  0
  183.7900  178.7230  141.6410 C   0  0  0  0  0  2  0  0  0  0  0  0
  189.6380  177.9450  140.1980 N   0  0  0  0  0  0  0  0  0  0  0  0
  182.2960  178.9090  141.6090 C   0  0  0  0  0  3  0  0  0  0  0  0
  189.9600  178.1300  138.7950 C   0  0  0  0  0  1  0  0  0  0  0  0
  184.3520  178.5080  143.0340 C   0  0  0  0  0  0  0  0  0  0  0  0
  187.5480  177.7510  144.7940 C   0  0  0  0  0  0  0  0  0  0  0  0
  181.5680  178.9630  142.7230 C   0  0  0  0  0  0  0  0  0  0  0  0
  183.5160  178.5990  144.1640 C   0  0  0  0  0  0  0  0  0  0  0  0
  188.4860  177.0870  142.5830 C   0  0  0  0  0  0  0  0  0  0  0  0
  185.7330  178.2690  143.2010 C   0  0  0  0  0  0  0  0  0  0  0  0
  188.2440  178.3510  140.3640 C   0  0  0  0  0  2  0  0  0  0  0  0
  184.0450  178.4750  145.4020 N   0  0  0  0  0  0  0  0  0  0  0  0
  189.7140  176.5130  140.4610 C   0  0  0  0  0  2  0  0  0  0  0  0
  189.5780  176.2620  141.9600 C   0  0  0  0  0  2  0  0  0  0  0  0
  187.7340  178.0410  141.7460 C   0  0  0  0  0  0  0  0  0  0  0  0
  189.1360  178.0580  148.7750 C   0  0  0  0  0  3  0  0  0  0  0  0
  188.0800  177.8280  146.1820 C   0  0  0  0  0  0  0  0  0  0  0  0
  187.2910  178.3280  147.2330 C   0  0  0  0  0  3  0  0  0  0  0  0
  187.8150  178.4360  148.5240 C   0  0  0  0  0  3  0  0  0  0  0  0
  189.9350  177.5760  147.7350 C   0  0  0  0  0  3  0  0  0  0  0  0
  189.4110  177.4680  146.4430 C   0  0  0  0  0  3  0  0  0  0  0  0
  1 12  1  0  0  0  0
  2 12  2  0  0  0  0
  2  6  1  0  0  0  0
  3 16  1  0  0  0  0
  4 14  2  0  0  0  0
  5 13  1  0  0  0  0
  7 11  1  0  0  0  0
  8 17  1  0  0  0  0
  8 19  1  0  0  0  0
  9  7  1  0  0  0  0
  9 13  2  0  0  0  0
 10  8  1  0  0  0  0
 11 16  2  0  0  0  0
 11 14  1  0  0  0  0
 12 23  1  0  0  0  0
 13  4  1  0  0  0  0
 14 18  1  0  0  0  0
 15  1  2  0  0  0  0
 16  2  1  0  0  0  0
 17 21  1  0  0  0  0
 18  6  2  0  0  0  0
 19 20  1  0  0  0  0
 20 15  1  0  0  0  0
 21  3  2  0  0  0  0
 21 15  1  0  0  0  0
 23 27  2  0  0  0  0
 23 24  1  0  0  0  0
 24 25  2  0  0  0  0
 25 22  1  0  0  0  0
 26 22  2  0  0  0  0
 27 26  1  0  0  0  0
M  END
>  <MODEL>
2

>  <REMARK>
 VINA RESULT:     -10.4      2.978      6.104
  Name = 
  1 active torsions:
  status: ('A' for Active; 'I' for Inactive)
    1  A    between atoms: C_9  and  C_15
                            x       y       z     vdW  Elec       q    Type
                         _______ _______ _______ _____ _____    ______ ____

>  <TORSDO>
F 1

$$$$
=
 OpenBabel10272401083D

 27 31  0  0  0  0  0  0  0  0999 V2000
  186.8770  178.7170  140.2070 N   0  0  0  0  0  0  0  0  0  0  0  0
  186.1040  178.2450  142.4940 C   0  0  0  0  0  0  0  0  0  0  0  0
  188.3650  177.1610  142.2430 N   0  0  0  0  0  0  0  0  0  0  0  0
  186.5920  178.0640  146.6080 C   0  0  0  0  0  3  0  0  0  0  0  0
  187.9640  177.6780  148.6290 O   0  0  0  0  0  1  0  0  0  0  0  0
  185.0830  178.5510  143.4140 C   0  0  0  0  0  3  0  0  0  0  0  0
  188.8330  177.2410  145.0020 C   0  0  0  0  0  2  0  0  0  0  0  0
  190.0940  176.6570  139.0880 N   0  0  0  0  0  0  0  0  0  0  0  0
  188.8990  177.2920  146.5040 C   0  0  0  0  0  3  0  0  0  0  0  0
  191.3730  176.0430  138.7860 C   0  0  0  0  0  1  0  0  0  0  0  0
  187.5200  177.7410  144.4280 C   0  0  0  0  0  0  0  0  0  0  0  0
  185.8500  178.4420  141.1710 C   0  0  0  0  0  0  0  0  0  0  0  0
  187.8560  177.6630  147.2450 C   0  0  0  0  0  0  0  0  0  0  0  0
  186.4580  178.1000  145.2800 C   0  0  0  0  0  0  0  0  0  0  0  0
  188.1000  178.3110  140.1090 C   0  0  0  0  0  0  0  0  0  0  0  0
  187.3450  177.7960  143.0280 C   0  0  0  0  0  0  0  0  0  0  0  0
  189.9040  176.5380  140.5330 C   0  0  0  0  0  2  0  0  0  0  0  0
  185.2720  178.4760  144.7530 N   0  0  0  0  0  0  0  0  0  0  0  0
  190.2250  178.0750  138.7770 C   0  0  0  0  0  2  0  0  0  0  0  0
  188.8600  178.7490  138.8870 C   0  0  0  0  0  2  0  0  0  0  0  0
  188.6900  177.2940  141.0000 C   0  0  0  0  0  0  0  0  0  0  0  0
  181.8720  179.0380  139.6600 C   0  0  0  0  0  3  0  0  0  0  0  0
  184.4650  178.6680  140.6760 C   0  0  0  0  0  0  0  0  0  0  0  0
  183.3770  177.9660  141.2230 C   0  0  0  0  0  3  0  0  0  0  0  0
  182.0860  178.1550  140.7210 C   0  0  0  0  0  3  0  0  0  0  0  0
  182.9480  179.7280  139.0960 C   0  0  0  0  0  3  0  0  0  0  0  0
  184.2390  179.5380  139.5980 C   0  0  0  0  0  3  0  0  0  0  0  0
  1 12  1  0  0  0  0
  2 16  1  0  0  0  0
  2  6  1  0  0  0  0
  3 16  1  0  0  0  0
  4 13  1  0  0  0  0
  6 18  2  0  0  0  0
  7  9  1  0  0  0  0
  8 17  1  0  0  0  0
  9 13  2  0  0  0  0
 10  8  1  0  0  0  0
 11  7  1  0  0  0  0
 11 14  1  0  0  0  0
 12  2  2  0  0  0  0
 13  5  1  0  0  0  0
 14  4  2  0  0  0  0
 15  1  2  0  0  0  0
 15 21  1  0  0  0  0
 16 11  2  0  0  0  0
 17 21  1  0  0  0  0
 18 14  1  0  0  0  0
 19 20  1  0  0  0  0
 19  8  1  0  0  0  0
 20 15  1  0  0  0  0
 21  3  2  0  0  0  0
 22 25  1  0  0  0  0
 23 12  1  0  0  0  0
 23 24  1  0  0  0  0
 25 24  2  0  0  0  0
 26 27  1  0  0  0  0
 26 22  2  0  0  0  0
 27 23  2  0  0  0  0
M  END
>  <MODEL>
3

>  <REMARK>
 VINA RESULT:     -10.3      1.732      2.668
  Name = 
  1 active torsions:
  status: ('A' for Active; 'I' for Inactive)
    1  A    between atoms: C_9  and  C_15
                            x       y       z     vdW  Elec       q    Type
                         _______ _______ _______ _____ _____    ______ ____

>  <TORSDO>
F 1

$$$$
=
 OpenBabel10272401083D

 27 31  0  0  0  0  0  0  0  0999 V2000
  189.8990  178.2180  141.9400 N   0  0  0  0  0  0  0  0  0  0  0  0
  187.4810  178.1260  141.4990 C   0  0  0  0  0  0  0  0  0  0  0  0
  187.8080  177.5560  143.9310 N   0  0  0  0  0  0  0  0  0  0  0  0
  183.5220  179.0190  142.3500 C   0  0  0  0  0  2  0  0  0  0  0  0
  181.6690  179.4340  143.9350 O   0  0  0  0  0  1  0  0  0  0  0  0
  186.5140  178.3970  140.5120 C   0  0  0  0  0  3  0  0  0  0  0  0
  185.2140  178.3770  144.5870 C   0  0  0  0  0  3  0  0  0  0  0  0
  190.9960  176.7400  145.4690 N   0  0  0  0  0  0  0  0  0  0  0  0
  183.7760  178.7880  144.7600 C   0  0  0  0  0  3  0  0  0  0  0  0
  191.3360  176.3790  146.8330 C   0  0  0  0  0  1  0  0  0  0  0  0
  185.6950  178.4190  143.1480 C   0  0  0  0  0  0  0  0  0  0  0  0
  188.7700  177.9480  141.0970 C   0  0  0  0  0  0  0  0  0  0  0  0
  182.9930  179.0740  143.7220 C   0  0  0  0  0  0  0  0  0  0  0  0
  184.7990  178.7140  142.1040 C   0  0  0  0  0  0  0  0  0  0  0  0
  190.0770  178.0880  143.2140 C   0  0  0  0  0  0  0  0  0  0  0  0
  187.0390  178.1060  142.8520 C   0  0  0  0  0  0  0  0  0  0  0  0
  189.5460  176.9190  145.4340 C   0  0  0  0  0  2  0  0  0  0  0  0
  185.2260  178.6790  140.8220 N   0  0  0  0  0  0  0  0  0  0  0  0
  191.6060  178.0380  145.2140 C   0  0  0  0  0  2  0  0  0  0  0  0
  191.4540  178.3920  143.7370 C   0  0  0  0  0  2  0  0  0  0  0  0
  189.0840  177.4670  144.1110 C   0  0  0  0  0  0  0  0  0  0  0  0
  189.8350  177.3810  136.9730 C   0  0  0  0  0  3  0  0  0  0  0  0
  189.1090  177.7330  139.6630 C   0  0  0  0  0  0  0  0  0  0  0  0
  189.6270  176.5040  139.2190 C   0  0  0  0  0  3  0  0  0  0  0  0
  189.9830  176.3290  137.8790 C   0  0  0  0  0  3  0  0  0  0  0  0
  189.3370  178.6120  137.4070 C   0  0  0  0  0  3  0  0  0  0  0  0
  188.9820  178.7890  138.7480 C   0  0  0  0  0  3  0  0  0  0  0  0
  1 15  1  0  0  0  0
  2 16  1  0  0  0  0
  3 21  1  0  0  0  0
  4 13  1  0  0  0  0
  6 18  1  0  0  0  0
  6  2  2  0  0  0  0
  7  9  1  0  0  0  0
  8 10  1  0  0  0  0
 11  7  2  0  0  0  0
 12  2  1  0  0  0  0
 12  1  2  0  0  0  0
 13  5  1  0  0  0  0
 13  9  2  0  0  0  0
 14  4  1  0  0  0  0
 14 11  1  0  0  0  0
 15 20  1  0  0  0  0
 15 21  2  0  0  0  0
 16 11  1  0  0  0  0
 16  3  2  0  0  0  0
 17  8  1  0  0  0  0
 18 14  2  0  0  0  0
 19  8  1  0  0  0  0
 20 19  1  0  0  0  0
 21 17  1  0  0  0  0
 22 26  2  0  0  0  0
 22 25  1  0  0  0  0
 23 12  1  0  0  0  0
 24 23  1  0  0  0  0
 25 24  2  0  0  0  0
 26 27  1  0  0  0  0
 27 23  2  0  0  0  0
M  END
>  <MODEL>
4

>  <REMARK>
 VINA RESULT:      -9.7      2.611      6.569
  Name = 
  1 active torsions:
  status: ('A' for Active; 'I' for Inactive)
    1  A    between atoms: C_9  and  C_15
                            x       y       z     vdW  Elec       q    Type
                         _______ _______ _______ _____ _____    ______ ____

>  <TORSDO>
F 1

$$$$
=
 OpenBabel10272401083D

 27 31  0  0  0  0  0  0  0  0999 V2000
  189.0170  178.4940  141.3680 N   0  0  0  0  0  0  0  0  0  0  0  0
  186.6010  178.3020  140.9490 C   0  0  0  0  0  0  0  0  0  0  0  0
  186.9740  177.7330  143.3750 N   0  0  0  0  0  0  0  0  0  0  0  0
  182.6150  179.0210  141.8410 C   0  0  0  0  0  2  0  0  0  0  0  0
  180.7620  179.3480  143.4450 O   0  0  0  0  0  1  0  0  0  0  0  0
  185.6140  178.5360  139.9720 C   0  0  0  0  0  3  0  0  0  0  0  0
  184.3540  178.4390  144.0590 C   0  0  0  0  0  3  0  0  0  0  0  0
  190.2090  177.0450  144.8790 N   0  0  0  0  0  0  0  0  0  0  0  0
  182.9020  178.7890  144.2480 C   0  0  0  0  0  3  0  0  0  0  0  0
  190.5770  176.6920  146.2370 C   0  0  0  0  0  1  0  0  0  0  0  0
  184.8190  178.5100  142.6160 C   0  0  0  0  0  0  0  0  0  0  0  0
  187.8920  178.1800  140.5340 C   0  0  0  0  0  0  0  0  0  0  0  0
  182.0980  179.0470  143.2180 C   0  0  0  0  0  0  0  0  0  0  0  0
  183.9020  178.7720  141.5810 C   0  0  0  0  0  0  0  0  0  0  0  0
  189.2120  178.3660  142.6390 C   0  0  0  0  0  0  0  0  0  0  0  0
  186.1730  178.2560  142.3060 C   0  0  0  0  0  0  0  0  0  0  0  0
  188.7520  177.1630  144.8570 C   0  0  0  0  0  2  0  0  0  0  0  0
  184.3190  178.7610  140.2950 N   0  0  0  0  0  0  0  0  0  0  0  0
  190.7610  178.3700  144.6250 C   0  0  0  0  0  2  0  0  0  0  0  0
  190.5800  178.7250  143.1510 C   0  0  0  0  0  2  0  0  0  0  0  0
  188.2550  177.6980  143.5420 C   0  0  0  0  0  0  0  0  0  0  0  0
  188.9570  177.6210  136.4090 C   0  0  0  0  0  3  0  0  0  0  0  0
  188.2270  177.9880  139.0960 C   0  0  0  0  0  0  0  0  0  0  0  0
  188.0740  176.7330  138.4800 C   0  0  0  0  0  3  0  0  0  0  0  0
  188.4320  176.5540  137.1410 C   0  0  0  0  0  3  0  0  0  0  0  0
  189.1290  178.8680  137.0160 C   0  0  0  0  0  3  0  0  0  0  0  0
  188.7720  179.0480  138.3550 C   0  0  0  0  0  3  0  0  0  0  0  0
  1 15  1  0  0  0  0
  2 16  1  0  0  0  0
  3 21  1  0  0  0  0
  4 13  1  0  0  0  0
  6 18  1  0  0  0  0
  6  2  2  0  0  0  0
  7  9  1  0  0  0  0
  8 10  1  0  0  0  0
 11  7  2  0  0  0  0
 12  2  1  0  0  0  0
 12  1  2  0  0  0  0
 13  5  1  0  0  0  0
 13  9  2  0  0  0  0
 14  4  1  0  0  0  0
 14 11  1  0  0  0  0
 15 20  1  0  0  0  0
 15 21  2  0  0  0  0
 16 11  1  0  0  0  0
 16  3  2  0  0  0  0
 17  8  1  0  0  0  0
 18 14  2  0  0  0  0
 19  8  1  0  0  0  0
 20 19  1  0  0  0  0
 21 17  1  0  0  0  0
 22 26  2  0  0  0  0
 22 25  1  0  0  0  0
 23 12  1  0  0  0  0
 24 23  1  0  0  0  0
 25 24  2  0  0  0  0
 26 27  1  0  0  0  0
 27 23  2  0  0  0  0
M  END
>  <MODEL>
5

>  <REMARK>
 VINA RESULT:      -9.2      2.918      6.751
  Name = 
  1 active torsions:
  status: ('A' for Active; 'I' for Inactive)
    1  A    between atoms: C_9  and  C_15
                            x       y       z     vdW  Elec       q    Type
                         _______ _______ _______ _____ _____    ______ ____

>  <TORSDO>
F 1

$$$$
=
 OpenBabel10272401083D

 27 31  0  0  0  0  0  0  0  0999 V2000
  189.2450  177.0160  141.0070 N   0  0  0  0  0  0  0  0  0  0  0  0
  187.4380  177.9840  142.3670 C   0  0  0  0  0  0  0  0  0  0  0  0
  186.8660  178.4360  139.9550 N   0  0  0  0  0  0  0  0  0  0  0  0
  183.4540  178.6270  143.3220 C   0  0  0  0  0  3  0  0  0  0  0  0
  181.0830  178.9500  142.6950 O   0  0  0  0  0  1  0  0  0  0  0  0
  186.9580  178.0720  143.6880 C   0  0  0  0  0  3  0  0  0  0  0  0
  184.1330  178.6390  140.5260 C   0  0  0  0  0  2  0  0  0  0  0  0
  189.1570  178.0470  137.1630 N   0  0  0  0  0  0  0  0  0  0  0  0
  182.7150  178.7880  141.0070 C   0  0  0  0  0  3  0  0  0  0  0  0
  188.9820  178.2810  135.7420 C   0  0  0  0  0  1  0  0  0  0  0  0
  185.1370  178.3980  141.6380 C   0  0  0  0  0  0  0  0  0  0  0  0
  188.7500  177.6690  142.1850 C   0  0  0  0  0  0  0  0  0  0  0  0
  182.4060  178.7930  142.3030 C   0  0  0  0  0  0  0  0  0  0  0  0
  184.7330  178.4360  142.9860 C   0  0  0  0  0  0  0  0  0  0  0  0
  188.8930  177.0930  139.7660 C   0  0  0  0  0  0  0  0  0  0  0  0
  186.4960  178.1890  141.3190 C   0  0  0  0  0  0  0  0  0  0  0  0
  187.8970  178.4130  137.8050 C   0  0  0  0  0  2  0  0  0  0  0  0
  185.6510  178.2890  143.9670 N   0  0  0  0  0  0  0  0  0  0  0  0
  189.3370  176.6110  137.3340 C   0  0  0  0  0  2  0  0  0  0  0  0
  189.7200  176.3130  138.7810 C   0  0  0  0  0  2  0  0  0  0  0  0
  187.8890  178.0520  139.2660 C   0  0  0  0  0  0  0  0  0  0  0  0
  191.6070  177.7440  145.3950 C   0  0  0  0  0  3  0  0  0  0  0  0
  189.7200  177.7200  143.3140 C   0  0  0  0  0  0  0  0  0  0  0  0
  190.6420  178.7740  143.4290 C   0  0  0  0  0  3  0  0  0  0  0  0
  191.5770  178.7880  144.4680 C   0  0  0  0  0  3  0  0  0  0  0  0
  190.7070  176.6820  145.2800 C   0  0  0  0  0  3  0  0  0  0  0  0
  189.7720  176.6670  144.2410 C   0  0  0  0  0  3  0  0  0  0  0  0
  1 12  1  0  0  0  0
  2  6  1  0  0  0  0
  3 16  1  0  0  0  0
  6 18  2  0  0  0  0
  7  9  1  0  0  0  0
  7 11  1  0  0  0  0
  8 19  1  0  0  0  0
  8 17  1  0  0  0  0
  9 13  2  0  0  0  0
 10  8  1  0  0  0  0
 11 14  1  0  0  0  0
 12  2  2  0  0  0  0
 12 23  1  0  0  0  0
 13  5  1  0  0  0  0
 13  4  1  0  0  0  0
 14  4  2  0  0  0  0
 14 18  1  0  0  0  0
 15  1  2  0  0  0  0
 16 11  2  0  0  0  0
 16  2  1  0  0  0  0
 17 21  1  0  0  0  0
 19 20  1  0  0  0  0
 20 15  1  0  0  0  0
 21 15  1  0  0  0  0
 21  3  2  0  0  0  0
 23 24  2  0  0  0  0
 23 27  1  0  0  0  0
 24 25  1  0  0  0  0
 25 22  2  0  0  0  0
 26 22  1  0  0  0  0
 27 26  2  0  0  0  0
M  END
>  <MODEL>
6

>  <REMARK>
 VINA RESULT:      -8.9      2.855      6.051
  Name = 
  1 active torsions:
  status: ('A' for Active; 'I' for Inactive)
    1  A    between atoms: C_9  and  C_15
                            x       y       z     vdW  Elec       q    Type
                         _______ _______ _______ _____ _____    ______ ____

>  <TORSDO>
F 1

$$$$
=
 OpenBabel10272401083D

 27 31  0  0  0  0  0  0  0  0999 V2000
  190.2000  178.0200  142.6020 N   0  0  0  0  0  0  0  0  0  0  0  0
  188.4240  177.9100  140.9050 C   0  0  0  0  0  0  0  0  0  0  0  0
  187.3190  177.5980  143.1470 N   0  0  0  0  0  0  0  0  0  0  0  0
  184.7220  178.9340  139.3420 C   0  0  0  0  0  2  0  0  0  0  0  0
  182.3370  179.5370  139.5940 O   0  0  0  0  0  1  0  0  0  0  0  0
  188.1810  178.0850  139.5290 C   0  0  0  0  0  3  0  0  0  0  0  0
  184.8550  178.5140  142.1850 C   0  0  0  0  0  3  0  0  0  0  0  0
  189.0710  176.9130  146.2550 N   0  0  0  0  0  0  0  0  0  0  0  0
  183.5920  178.9590  141.4980 C   0  0  0  0  0  3  0  0  0  0  0  0
  188.5790  176.6960  147.6030 C   0  0  0  0  0  1  0  0  0  0  0  0
  186.0500  178.3980  141.2560 C   0  0  0  0  0  0  0  0  0  0  0  0
  189.7050  177.6750  141.3010 C   0  0  0  0  0  0  0  0  0  0  0  0
  183.5310  179.1410  140.1810 C   0  0  0  0  0  0  0  0  0  0  0  0
  185.8990  178.5900  139.8700 C   0  0  0  0  0  0  0  0  0  0  0  0
  189.6390  178.0250  143.7660 C   0  0  0  0  0  0  0  0  0  0  0  0
  187.3110  178.0390  141.7820 C   0  0  0  0  0  0  0  0  0  0  0  0
  187.8960  177.1050  145.4070 C   0  0  0  0  0  2  0  0  0  0  0  0
  186.9580  178.4130  139.0490 N   0  0  0  0  0  0  0  0  0  0  0  0
  189.8080  178.1710  146.2750 C   0  0  0  0  0  2  0  0  0  0  0  0
  190.5180  178.3660  144.9380 C   0  0  0  0  0  2  0  0  0  0  0  0
  188.2770  177.5140  144.0110 C   0  0  0  0  0  0  0  0  0  0  0  0
  192.7860  176.5340  138.5310 C   0  0  0  0  0  3  0  0  0  0  0  0
  190.7620  177.3050  140.3180 C   0  0  0  0  0  0  0  0  0  0  0  0
  190.4560  176.5330  139.1840 C   0  0  0  0  0  3  0  0  0  0  0  0
  191.4640  176.1550  138.2920 C   0  0  0  0  0  3  0  0  0  0  0  0
  193.1040  177.2850  139.6650 C   0  0  0  0  0  3  0  0  0  0  0  0
  192.0970  177.6630  140.5570 C   0  0  0  0  0  3  0  0  0  0  0  0
  1 15  1  0  0  0  0
  2 12  1  0  0  0  0
  2 16  1  0  0  0  0
  3 21  1  0  0  0  0
  4 14  1  0  0  0  0
  4 13  1  0  0  0  0
  5 13  1  0  0  0  0
  6  2  2  0  0  0  0
  8 19  1  0  0  0  0
  8 10  1  0  0  0  0
  9  7  1  0  0  0  0
 11 16  1  0  0  0  0
 11  7  2  0  0  0  0
 12  1  2  0  0  0  0
 13  9  2  0  0  0  0
 14 11  1  0  0  0  0
 15 21  2  0  0  0  0
 15 20  1  0  0  0  0
 16  3  2  0  0  0  0
 17  8  1  0  0  0  0
 18  6  1  0  0  0  0
 18 14  2  0  0  0  0
 20 19  1  0  0  0  0
 21 17  1  0  0  0  0
 22 26  1  0  0  0  0
 23 27  1  0  0  0  0
 23 12  1  0  0  0  0
 24 23  2  0  0  0  0
 25 22  2  0  0  0  0
 25 24  1  0  0  0  0
 26 27  2  0  0  0  0
M  END
>  <MODEL>
7

>  <REMARK>
 VINA RESULT:      -8.8      3.055      7.537
  Name = 
  1 active torsions:
  status: ('A' for Active; 'I' for Inactive)
    1  A    between atoms: C_9  and  C_15
                            x       y       z     vdW  Elec       q    Type
                         _______ _______ _______ _____ _____    ______ ____

>  <TORSDO>
F 1

$$$$
=
 OpenBabel10272401083D

 27 31  0  0  0  0  0  0  0  0999 V2000
  186.6280  177.6160  143.0800 N   0  0  0  0  0  0  0  0  0  0  0  0
  186.2300  178.3310  140.7610 C   0  0  0  0  0  0  0  0  0  0  0  0
  188.7210  178.3920  141.1320 N   0  0  0  0  0  0  0  0  0  0  0  0
  186.9480  178.2350  136.6770 C   0  0  0  0  0  2  0  0  0  0  0  0
  188.4530  177.9920  134.7300 O   0  0  0  0  0  1  0  0  0  0  0  0
  185.2190  178.4590  139.7890 C   0  0  0  0  0  3  0  0  0  0  0  0
  189.2470  178.0860  138.4000 C   0  0  0  0  0  3  0  0  0  0  0  0
  190.3490  178.1870  144.3730 N   0  0  0  0  0  0  0  0  0  0  0  0
  189.3600  177.9900  136.9020 C   0  0  0  0  0  3  0  0  0  0  0  0
  191.7510  178.2250  144.7430 C   0  0  0  0  0  1  0  0  0  0  0  0
  187.8190  178.1790  138.9040 C   0  0  0  0  0  0  0  0  0  0  0  0
  185.8540  178.2750  142.0680 C   0  0  0  0  0  0  0  0  0  0  0  0
  188.2940  178.0700  136.1080 C   0  0  0  0  0  0  0  0  0  0  0  0
  186.7460  178.2770  137.9970 C   0  0  0  0  0  0  0  0  0  0  0  0
  187.9030  177.4850  143.2430 C   0  0  0  0  0  0  0  0  0  0  0  0
  187.5700  178.2220  140.2930 C   0  0  0  0  0  0  0  0  0  0  0  0
  190.2950  178.3520  142.9220 C   0  0  0  0  0  2  0  0  0  0  0  0
  185.4860  178.4300  138.4620 N   0  0  0  0  0  0  0  0  0  0  0  0
  189.8690  176.8450  144.6810 C   0  0  0  0  0  2  0  0  0  0  0  0
  188.3550  176.7910  144.4990 C   0  0  0  0  0  2  0  0  0  0  0  0
  188.9020  178.1560  142.3890 C   0  0  0  0  0  0  0  0  0  0  0  0
  181.8520  179.2470  143.2980 C   0  0  0  0  0  3  0  0  0  0  0  0
  184.4750  178.6470  142.4910 C   0  0  0  0  0  0  0  0  0  0  0  0
  184.2130  179.0810  143.8020 C   0  0  0  0  0  3  0  0  0  0  0  0
  182.9090  179.3850  144.2010 C   0  0  0  0  0  3  0  0  0  0  0  0
  182.0980  178.7980  141.9980 C   0  0  0  0  0  3  0  0  0  0  0  0
  183.4030  178.4940  141.5990 C   0  0  0  0  0  3  0  0  0  0  0  0
  1 15  1  0  0  0  0
  2 12  1  0  0  0  0
  3 21  1  0  0  0  0
  4 14  1  0  0  0  0
  5 13  1  0  0  0  0
  6  2  2  0  0  0  0
  7 11  2  0  0  0  0
  8 19  1  0  0  0  0
  8 10  1  0  0  0  0
  9  7  1  0  0  0  0
 11 16  1  0  0  0  0
 12 23  1  0  0  0  0
 12  1  2  0  0  0  0
 13  4  1  0  0  0  0
 13  9  2  0  0  0  0
 14 18  2  0  0  0  0
 14 11  1  0  0  0  0
 15 20  1  0  0  0  0
 16  2  1  0  0  0  0
 16  3  2  0  0  0  0
 17  8  1  0  0  0  0
 18  6  1  0  0  0  0
 20 19  1  0  0  0  0
 21 17  1  0  0  0  0
 21 15  2  0  0  0  0
 22 25  1  0  0  0  0
 23 24  1  0  0  0  0
 24 25  2  0  0  0  0
 26 22  2  0  0  0  0
 27 26  1  0  0  0  0
 27 23  2  0  0  0  0
M  END
>  <MODEL>
8

>  <REMARK>
 VINA RESULT:      -8.6      3.203      6.202
  Name = 
  1 active torsions:
  status: ('A' for Active; 'I' for Inactive)
    1  A    between atoms: C_9  and  C_15
                            x       y       z     vdW  Elec       q    Type
                         _______ _______ _______ _____ _____    ______ ____

>  <TORSDO>
F 1

$$$$
=
 OpenBabel10272401083D

 27 31  0  0  0  0  0  0  0  0999 V2000
  187.3240  178.5200  144.7640 N   0  0  0  0  0  0  0  0  0  0  0  0
  188.6990  177.6610  142.9140 C   0  0  0  0  0  0  0  0  0  0  0  0
  186.3530  177.9130  142.0310 N   0  0  0  0  0  0  0  0  0  0  0  0
  190.0600  177.6620  138.9970 C   0  0  0  0  0  2  0  0  0  0  0  0
  189.7260  177.9960  136.5690 O   0  0  0  0  0  1  0  0  0  0  0  0
  190.0290  177.3710  142.5510 C   0  0  0  0  0  3  0  0  0  0  0  0
  187.2540  178.1580  139.3920 C   0  0  0  0  0  3  0  0  0  0  0  0
  183.4030  178.4530  144.0810 N   0  0  0  0  0  0  0  0  0  0  0  0
  187.8920  178.2010  138.0300 C   0  0  0  0  0  3  0  0  0  0  0  0
  182.0040  178.5980  143.7240 C   0  0  0  0  0  1  0  0  0  0  0  0
  188.2370  177.9190  140.5230 C   0  0  0  0  0  0  0  0  0  0  0  0
  188.4010  177.7290  144.2410 C   0  0  0  0  0  0  0  0  0  0  0  0
  189.1890  177.9600  137.8500 C   0  0  0  0  0  0  0  0  0  0  0  0
  189.5920  177.6540  140.2480 C   0  0  0  0  0  0  0  0  0  0  0  0
  186.1560  178.8090  144.2900 C   0  0  0  0  0  0  0  0  0  0  0  0
  187.7770  177.9080  141.8580 C   0  0  0  0  0  0  0  0  0  0  0  0
  184.1290  178.2190  142.8340 C   0  0  0  0  0  2  0  0  0  0  0  0
  190.4410  177.3730  141.2620 N   0  0  0  0  0  0  0  0  0  0  0  0
  183.8380  179.7400  144.6080 C   0  0  0  0  0  2  0  0  0  0  0  0
  185.2450  179.6060  145.1840 C   0  0  0  0  0  2  0  0  0  0  0  0
  185.6190  178.2240  143.0470 C   0  0  0  0  0  0  0  0  0  0  0  0
  191.1690  176.3400  147.2200 C   0  0  0  0  0  3  0  0  0  0  0  0
  189.3450  177.2160  145.2720 C   0  0  0  0  0  0  0  0  0  0  0  0
  188.9450  177.0740  146.6120 C   0  0  0  0  0  3  0  0  0  0  0  0
  189.8520  176.6320  147.5790 C   0  0  0  0  0  3  0  0  0  0  0  0
  191.5830  176.4950  145.8940 C   0  0  0  0  0  3  0  0  0  0  0  0
  190.6760  176.9370  144.9260 C   0  0  0  0  0  3  0  0  0  0  0  0
  2 12  1  0  0  0  0
  3 21  1  0  0  0  0
  4 14  1  0  0  0  0
  5 13  1  0  0  0  0
  6  2  2  0  0  0  0
  7 11  2  0  0  0  0
  8 19  1  0  0  0  0
  9  7  1  0  0  0  0
 10  8  1  0  0  0  0
 11 16  1  0  0  0  0
 12  1  2  0  0  0  0
 12 23  1  0  0  0  0
 13  9  2  0  0  0  0
 13  4  1  0  0  0  0
 14 11  1  0  0  0  0
 14 18  2  0  0  0  0
 15  1  1  0  0  0  0
 15 20  1  0  0  0  0
 16  3  2  0  0  0  0
 16  2  1  0  0  0  0
 17 21  1  0  0  0  0
 17  8  1  0  0  0  0
 18  6  1  0  0  0  0
 19 20  1  0  0  0  0
 21 15  2  0  0  0  0
 22 25  1  0  0  0  0
 23 24  1  0  0  0  0
 24 25  2  0  0  0  0
 26 22  2  0  0  0  0
 27 23  2  0  0  0  0
 27 26  1  0  0  0  0
M  END
>  <MODEL>
9

>  <REMARK>
 VINA RESULT:      -8.6      2.678      6.917
  Name = 
  1 active torsions:
  status: ('A' for Active; 'I' for Inactive)
    1  A    between atoms: C_9  and  C_15
                            x       y       z     vdW  Elec       q    Type
                         _______ _______ _______ _____ _____    ______ ____

>  <TORSDO>
F 1

$$$$
