=
 OpenBabel10272413403D

 32 37  0  0  1  0  0  0  0  0999 V2000
  189.2600  177.7850  143.5440 C   0  0  2  0  0  3  0  0  0  0  0  0
  190.4980  177.9950  139.3010 C   0  0  1  0  0  3  0  0  0  0  0  0
  187.7570  177.7350  136.4800 C   0  0  0  0  0  2  0  0  0  0  0  0
  192.7600  176.8000  139.2640 C   0  0  1  0  0  3  0  0  0  0  0  0
  193.5380  175.6960  138.6110 C   0  0  0  0  0  0  0  0  0  0  0  0
  189.9620  176.1460  140.9930 C   0  0  0  0  0  2  0  0  0  0  0  0
  187.8170  178.4020  139.7400 S   0  0  0  0  0  0  0  0  0  0  0  0
  195.0670  174.2940  138.1320 C   0  0  0  0  0  0  0  0  0  0  0  0
  188.2590  177.9820  142.4140 C   0  0  0  0  0  2  0  0  0  0  0  0
  189.1900  178.0140  136.0500 C   0  0  0  0  0  2  0  0  0  0  0  0
  189.2040  178.3490  138.5570 C   0  0  2  0  0  3  0  0  0  0  0  0
  188.9090  177.3930  137.3990 C   0  0  0  0  0  0  0  0  0  0  0  0
  190.7310  175.7370  138.0980 C   0  0  1  0  0  3  0  0  0  0  0  0
  196.3840  173.6050  138.1190 C   0  0  0  0  0  1  0  0  0  0  0  0
  189.9020  176.4190  143.5150 C   0  0  0  0  0  3  0  0  0  0  0  0
  188.9650  178.4550  141.1430 C   0  0  1  0  0  3  0  0  0  0  0  0
  194.8120  175.3770  138.8950 N   0  0  0  0  0  2  0  0  0  0  0  0
  190.2460  175.7310  142.4120 C   0  0  0  0  0  3  0  0  0  0  0  0
  189.3400  175.9270  137.4720 C   0  0  1  0  0  3  0  0  0  0  0  0
  191.6140  174.9060  137.1620 C   0  0  0  0  0  2  0  0  0  0  0  0
  190.2020  177.6410  140.7630 C   0  0  2  0  0  3  0  0  0  0  0  0
  193.5210  177.9690  139.2820 O   0  0  0  0  0  1  0  0  0  0  0  0
  193.9760  173.8990  137.3710 C   0  0  0  0  0  3  0  0  0  0  0  0
  191.4360  177.0530  138.5180 C   0  0  1  0  0  3  0  0  0  0  0  0
  192.9980  174.8050  137.7170 C   0  0  0  0  0  0  0  0  0  0  0  0
  187.8340  174.3170  137.2720 C   0  0  0  0  0  1  0  0  0  0  0  0
  188.3990  175.1930  138.1990 O   0  0  0  0  0  0  0  0  0  0  0  0
  188.5960  177.9810  144.8210 N   0  0  0  0  0  2  0  0  0  0  0  0
  187.2320  177.5020  144.6710 C   0  0  0  0  0  2  0  0  0  0  0  0
  186.3680  178.0880  145.7370 C   0  0  0  0  0  0  0  0  0  0  0  0
  186.7050  178.0180  146.9080 O   0  0  0  0  0  0  0  0  0  0  0  0
  185.1030  178.7790  145.3670 C   0  0  0  0  0  1  0  0  0  0  0  0
  1 28  1  1  0  0  0
  2 21  1  0  0  0  0
  3 12  1  0  0  0  0
  4 22  1  0  0  0  0
  5 17  1  0  0  0  0
  5  4  1  0  0  0  0
  6 18  1  0  0  0  0
  7 16  1  0  0  0  0
  8 17  1  0  0  0  0
  9  1  1  0  0  0  0
 10  3  1  0  0  0  0
 10 12  1  0  0  0  0
 11  2  1  0  0  0  0
 11  7  1  0  0  0  0
 12 19  1  0  0  0  0
 12 11  1  0  0  0  0
 13 24  1  0  0  0  0
 14  8  1  0  0  0  0
 15  1  1  0  0  0  0
 16  9  1  0  0  0  0
 18 15  2  0  0  0  0
 19 13  1  0  0  0  0
 19 27  1  0  0  0  0
 20 25  1  0  0  0  0
 20 13  1  0  0  0  0
 21  6  1  0  0  0  0
 21 16  1  0  0  0  0
 23 25  1  0  0  0  0
 23  8  2  0  0  0  0
 24  4  1  0  0  0  0
 24  2  1  0  0  0  0
 25  5  2  0  0  0  0
 26 27  1  0  0  0  0
 29 28  1  0  0  0  0
 29 30  1  0  0  0  0
 30 31  2  0  0  0  0
 32 30  1  0  0  0  0
M  END
>  <MODEL>
1

>  <REMARK>
 VINA RESULT:      -5.9      0.000      0.000
  Name = 
  4 active torsions:
  status: ('A' for Active; 'I' for Inactive)
    1  A    between atoms: C_1  and  C_10
    2  A    between atoms: C_2  and  N_24
    3  A    between atoms: C_10  and  N_24
    4  A    between atoms: O_25  and  C_26
                            x       y       z     vdW  Elec       q    Type
                         _______ _______ _______ _____ _____    ______ ____

>  <TORSDO>
F 4

$$$$
=
 OpenBabel10272413403D

 32 37  0  0  1  0  0  0  0  0999 V2000
  189.2050  178.0810  142.6520 C   0  0  2  0  0  3  0  0  0  0  0  0
  190.5760  177.7250  138.4600 C   0  0  1  0  0  3  0  0  0  0  0  0
  187.9260  177.0650  135.6170 C   0  0  0  0  0  2  0  0  0  0  0  0
  192.8420  176.5520  138.6560 C   0  0  1  0  0  3  0  0  0  0  0  0
  193.6430  175.3760  138.1820 C   0  0  0  0  0  0  0  0  0  0  0  0
  189.9930  176.1180  140.3710 C   0  0  0  0  0  2  0  0  0  0  0  0
  187.8810  178.1670  138.7570 S   0  0  0  0  0  0  0  0  0  0  0  0
  195.1910  173.9330  137.9450 C   0  0  0  0  0  0  0  0  0  0  0  0
  188.2400  178.1170  141.4760 C   0  0  0  0  0  2  0  0  0  0  0  0
  189.3710  177.2930  135.1980 C   0  0  0  0  0  2  0  0  0  0  0  0
  189.3050  177.9650  137.6360 C   0  0  2  0  0  3  0  0  0  0  0  0
  189.0500  176.8590  136.6100 C   0  0  0  0  0  0  0  0  0  0  0  0
  190.8540  175.3260  137.5820 C   0  0  1  0  0  3  0  0  0  0  0  0
  196.5100  173.2580  138.0670 C   0  0  0  0  0  1  0  0  0  0  0  0
  189.8520  176.7290  142.8290 C   0  0  0  0  0  3  0  0  0  0  0  0
  188.9840  178.4180  140.1740 C   0  0  1  0  0  3  0  0  0  0  0  0
  194.9090  175.1080  138.5460 N   0  0  0  0  0  2  0  0  0  0  0  0
  190.2340  175.9010  141.8410 C   0  0  0  0  0  3  0  0  0  0  0  0
  189.4830  175.4190  136.8940 C   0  0  1  0  0  3  0  0  0  0  0  0
  191.7690  174.3820  136.7950 C   0  0  0  0  0  2  0  0  0  0  0  0
  190.2350  177.5700  139.9470 C   0  0  2  0  0  3  0  0  0  0  0  0
  193.5980  177.7180  138.5380 O   0  0  0  0  0  1  0  0  0  0  0  0
  194.1260  173.4300  137.2110 C   0  0  0  0  0  3  0  0  0  0  0  0
  191.5410  176.6920  137.8420 C   0  0  1  0  0  3  0  0  0  0  0  0
  193.1350  174.3680  137.4010 C   0  0  0  0  0  0  0  0  0  0  0  0
  188.1110  173.6810  136.9330 C   0  0  0  0  0  1  0  0  0  0  0  0
  188.5220  174.7830  137.6850 O   0  0  0  0  0  0  0  0  0  0  0  0
  188.5010  178.4450  143.8700 N   0  0  0  0  0  2  0  0  0  0  0  0
  189.3190  177.9970  144.9850 C   0  0  0  0  0  2  0  0  0  0  0  0
  188.4470  177.4650  146.0720 C   0  0  0  0  0  0  0  0  0  0  0  0
  188.9390  176.8700  147.0180 O   0  0  0  0  0  0  0  0  0  0  0  0
  186.9750  177.6790  146.0120 C   0  0  0  0  0  1  0  0  0  0  0  0
  1 15  1  0  0  0  0
  1 28  1  1  0  0  0
  2 21  1  0  0  0  0
  3 12  1  0  0  0  0
  5 17  1  0  0  0  0
  5  4  1  0  0  0  0
  6 18  1  0  0  0  0
  7 16  1  0  0  0  0
  8 14  1  0  0  0  0
  8 17  1  0  0  0  0
  9  1  1  0  0  0  0
 10  3  1  0  0  0  0
 10 12  1  0  0  0  0
 11  2  1  0  0  0  0
 11  7  1  0  0  0  0
 12 19  1  0  0  0  0
 12 11  1  0  0  0  0
 13 24  1  0  0  0  0
 16  9  1  0  0  0  0
 18 15  2  0  0  0  0
 19 13  1  0  0  0  0
 19 27  1  0  0  0  0
 20 25  1  0  0  0  0
 20 13  1  0  0  0  0
 21 16  1  0  0  0  0
 21  6  1  0  0  0  0
 22  4  1  0  0  0  0
 23 25  1  0  0  0  0
 23  8  2  0  0  0  0
 24  2  1  0  0  0  0
 24  4  1  0  0  0  0
 25  5  2  0  0  0  0
 26 27  1  0  0  0  0
 28 29  1  0  0  0  0
 29 30  1  0  0  0  0
 30 31  2  0  0  0  0
 32 30  1  0  0  0  0
M  END
>  <MODEL>
2

>  <REMARK>
 VINA RESULT:      -5.9      0.983      1.099
  Name = 
  4 active torsions:
  status: ('A' for Active; 'I' for Inactive)
    1  A    between atoms: C_1  and  C_10
    2  A    between atoms: C_2  and  N_24
    3  A    between atoms: C_10  and  N_24
    4  A    between atoms: O_25  and  C_26
                            x       y       z     vdW  Elec       q    Type
                         _______ _______ _______ _____ _____    ______ ____

>  <TORSDO>
F 4

$$$$
=
 OpenBabel10272413403D

 32 37  0  0  1  0  0  0  0  0999 V2000
  187.4640  176.0750  136.3300 C   0  0  2  0  0  3  0  0  0  0  0  0
  183.4710  176.2240  138.2310 C   0  0  1  0  0  3  0  0  0  0  0  0
  180.8410  173.4050  137.4070 C   0  0  0  0  0  2  0  0  0  0  0  0
  182.9490  178.7250  138.3620 C   0  0  1  0  0  3  0  0  0  0  0  0
  181.9390  179.7740  138.0010 C   0  0  0  0  0  0  0  0  0  0  0  0
  184.4920  176.9290  135.9870 C   0  0  0  0  0  2  0  0  0  0  0  0
  184.1340  173.7940  137.1330 S   0  0  0  0  0  0  0  0  0  0  0  0
  180.9630  181.6450  137.7160 C   0  0  0  0  0  0  0  0  0  0  0  0
  186.5050  174.8940  136.2990 C   0  0  0  0  0  2  0  0  0  0  0  0
  180.4630  174.4400  138.4570 C   0  0  0  0  0  2  0  0  0  0  0  0
  182.9400  174.7920  138.0830 C   0  0  2  0  0  3  0  0  0  0  0  0
  181.5480  174.7420  137.4490 C   0  0  0  0  0  0  0  0  0  0  0  0
  181.5900  177.2140  136.7870 C   0  0  1  0  0  3  0  0  0  0  0  0
  180.6700  183.1000  137.7960 C   0  0  0  0  0  1  0  0  0  0  0  0
  186.9650  177.2480  135.5210 C   0  0  0  0  0  3  0  0  0  0  0  0
  185.4270  175.0440  137.3730 C   0  0  1  0  0  3  0  0  0  0  0  0
  182.0480  181.0820  138.2880 N   0  0  0  0  0  2  0  0  0  0  0  0
  185.6840  177.6430  135.4100 C   0  0  0  0  0  3  0  0  0  0  0  0
  181.1210  175.7960  136.4250 C   0  0  1  0  0  3  0  0  0  0  0  0
  180.3970  178.1750  136.7790 C   0  0  0  0  0  2  0  0  0  0  0  0
  184.7500  176.4140  137.4070 C   0  0  2  0  0  3  0  0  0  0  0  0
  183.3120  178.8600  139.7020 O   0  0  0  0  0  1  0  0  0  0  0  0
  180.1640  180.7260  137.0510 C   0  0  0  0  0  3  0  0  0  0  0  0
  182.3840  177.3120  138.1160 C   0  0  1  0  0  3  0  0  0  0  0  0
  180.8280  179.5330  137.2310 C   0  0  0  0  0  0  0  0  0  0  0  0
  180.4800  175.3860  134.3460 C   0  0  0  0  0  1  0  0  0  0  0  0
  181.6100  175.4540  135.1620 O   0  0  0  0  0  0  0  0  0  0  0  0
  188.7630  175.6600  135.8310 N   0  0  0  0  0  2  0  0  0  0  0  0
  189.7510  176.5490  136.4200 C   0  0  0  0  0  2  0  0  0  0  0  0
  190.0120  176.1530  137.8340 C   0  0  0  0  0  0  0  0  0  0  0  0
  190.4800  175.0550  138.0880 O   0  0  0  0  0  0  0  0  0  0  0  0
  189.7190  177.1090  138.9370 C   0  0  0  0  0  1  0  0  0  0  0  0
  1 28  1  6  0  0  0
  3 12  1  0  0  0  0
  3 10  1  0  0  0  0
  4 22  1  0  0  0  0
  5 17  1  0  0  0  0
  5  4  1  0  0  0  0
  6 21  1  0  0  0  0
  7 16  1  0  0  0  0
  7 11  1  0  0  0  0
  8 14  1  0  0  0  0
  8 17  1  0  0  0  0
  9  1  1  0  0  0  0
  9 16  1  0  0  0  0
 11  2  1  0  0  0  0
 12 11  1  0  0  0  0
 12 10  1  0  0  0  0
 13 24  1  0  0  0  0
 15  1  1  0  0  0  0
 16 21  1  0  0  0  0
 18 15  2  0  0  0  0
 18  6  1  0  0  0  0
 19 13  1  0  0  0  0
 19 12  1  0  0  0  0
 20 13  1  0  0  0  0
 20 25  1  0  0  0  0
 21  2  1  0  0  0  0
 23 25  1  0  0  0  0
 23  8  2  0  0  0  0
 24  2  1  0  0  0  0
 24  4  1  0  0  0  0
 25  5  2  0  0  0  0
 26 27  1  0  0  0  0
 27 19  1  0  0  0  0
 28 29  1  0  0  0  0
 29 30  1  0  0  0  0
 30 31  2  0  0  0  0
 30 32  1  0  0  0  0
M  END
>  <MODEL>
3

>  <REMARK>
 VINA RESULT:      -4.6      5.837     10.024
  Name = 
  4 active torsions:
  status: ('A' for Active; 'I' for Inactive)
    1  A    between atoms: C_1  and  C_10
    2  A    between atoms: C_2  and  N_24
    3  A    between atoms: C_10  and  N_24
    4  A    between atoms: O_25  and  C_26
                            x       y       z     vdW  Elec       q    Type
                         _______ _______ _______ _____ _____    ______ ____

>  <TORSDO>
F 4

$$$$
=
 OpenBabel10272413403D

 32 37  0  0  1  0  0  0  0  0999 V2000
  189.6330  177.2950  141.4000 C   0  0  2  0  0  3  0  0  0  0  0  0
  189.1740  175.2100  137.5240 C   0  0  1  0  0  3  0  0  0  0  0  0
  191.6290  176.0830  134.5650 C   0  0  0  0  0  2  0  0  0  0  0  0
  186.6450  174.9040  137.2900 C   0  0  1  0  0  3  0  0  0  0  0  0
  185.4710  175.1540  136.3910 C   0  0  0  0  0  0  0  0  0  0  0  0
  188.4400  177.4500  138.5300 C   0  0  0  0  0  2  0  0  0  0  0  0
  191.5850  176.4820  137.8690 S   0  0  0  0  0  0  0  0  0  0  0  0
  183.4900  175.2800  135.6200 C   0  0  0  0  0  0  0  0  0  0  0  0
  190.6980  177.3540  140.3140 C   0  0  0  0  0  2  0  0  0  0  0  0
  190.6300  174.9560  134.3460 C   0  0  0  0  0  2  0  0  0  0  0  0
  190.5270  175.4210  136.8300 C   0  0  2  0  0  3  0  0  0  0  0  0
  190.3830  175.9920  135.4190 C   0  0  0  0  0  0  0  0  0  0  0  0
  187.8920  176.5030  135.7110 C   0  0  1  0  0  3  0  0  0  0  0  0
  182.0200  175.0980  135.4950 C   0  0  0  0  0  1  0  0  0  0  0  0
  188.3630  178.0080  141.0040 C   0  0  0  0  0  3  0  0  0  0  0  0
  190.5020  176.2250  139.3010 C   0  0  1  0  0  3  0  0  0  0  0  0
  184.2040  174.7930  136.6560 N   0  0  0  0  0  2  0  0  0  0  0  0
  187.8240  178.0370  139.7720 C   0  0  0  0  0  3  0  0  0  0  0  0
  189.2240  176.9300  135.0730 C   0  0  1  0  0  3  0  0  0  0  0  0
  186.8080  176.3990  134.6340 C   0  0  0  0  0  2  0  0  0  0  0  0
  189.0720  176.0780  138.7840 C   0  0  2  0  0  3  0  0  0  0  0  0
  186.6390  173.5760  137.7180 O   0  0  0  0  0  1  0  0  0  0  0  0
  184.2710  175.9620  134.6980 C   0  0  0  0  0  3  0  0  0  0  0  0
  187.9690  175.2080  136.5620 C   0  0  1  0  0  3  0  0  0  0  0  0
  185.5390  175.8860  135.2310 C   0  0  0  0  0  0  0  0  0  0  0  0
  188.3160  178.7840  135.8730 C   0  0  0  0  0  1  0  0  0  0  0  0
  189.5340  178.2320  135.4720 O   0  0  0  0  0  0  0  0  0  0  0  0
  190.1540  177.8770  142.6240 N   0  0  0  0  0  2  0  0  0  0  0  0
  191.5050  177.3690  142.7970 C   0  0  0  0  0  2  0  0  0  0  0  0
  191.5900  176.5700  144.0530 C   0  0  0  0  0  0  0  0  0  0  0  0
  191.9820  175.4140  144.0210 O   0  0  0  0  0  0  0  0  0  0  0  0
  191.2160  177.1910  145.3530 C   0  0  0  0  0  1  0  0  0  0  0  0
  1 28  1  1  0  0  0
  2 21  1  0  0  0  0
  3 12  1  0  0  0  0
  4 22  1  0  0  0  0
  5 17  1  0  0  0  0
  5  4  1  0  0  0  0
  6 21  1  0  0  0  0
  6 18  1  0  0  0  0
  7 16  1  0  0  0  0
  8 17  1  0  0  0  0
  9  1  1  0  0  0  0
 10  3  1  0  0  0  0
 10 12  1  0  0  0  0
 11  2  1  0  0  0  0
 11  7  1  0  0  0  0
 12 11  1  0  0  0  0
 13 24  1  0  0  0  0
 14  8  1  0  0  0  0
 15  1  1  0  0  0  0
 16  9  1  0  0  0  0
 18 15  2  0  0  0  0
 19 12  1  0  0  0  0
 19 27  1  0  0  0  0
 19 13  1  0  0  0  0
 20 25  1  0  0  0  0
 20 13  1  0  0  0  0
 21 16  1  0  0  0  0
 23 25  1  0  0  0  0
 23  8  2  0  0  0  0
 24  4  1  0  0  0  0
 24  2  1  0  0  0  0
 25  5  2  0  0  0  0
 27 26  1  0  0  0  0
 28 29  1  0  0  0  0
 29 30  1  0  0  0  0
 30 32  1  0  0  0  0
 31 30  2  0  0  0  0
M  END
>  <MODEL>
4

>  <REMARK>
 VINA RESULT:      -4.6      3.313      6.247
  Name = 
  4 active torsions:
  status: ('A' for Active; 'I' for Inactive)
    1  A    between atoms: C_1  and  C_10
    2  A    between atoms: C_2  and  N_24
    3  A    between atoms: C_10  and  N_24
    4  A    between atoms: O_25  and  C_26
                            x       y       z     vdW  Elec       q    Type
                         _______ _______ _______ _____ _____    ______ ____

>  <TORSDO>
F 4

$$$$
=
 OpenBabel10272413403D

 32 37  0  0  1  0  0  0  0  0999 V2000
  184.2330  179.4260  143.4780 C   0  0  2  0  0  3  0  0  0  0  0  0
  183.5020  179.0060  139.1330 C   0  0  1  0  0  3  0  0  0  0  0  0
  179.9820  177.7450  137.8860 C   0  0  0  0  0  2  0  0  0  0  0  0
  185.7550  178.2220  138.2080 C   0  0  1  0  0  3  0  0  0  0  0  0
  186.4260  177.1580  137.3910 C   0  0  0  0  0  0  0  0  0  0  0  0
  184.1740  177.4610  141.0650 C   0  0  0  0  0  2  0  0  0  0  0  0
  181.2350  179.0370  140.6850 S   0  0  0  0  0  0  0  0  0  0  0  0
  187.9000  175.9640  136.4230 C   0  0  0  0  0  0  0  0  0  0  0  0
  182.8370  179.2290  142.9030 C   0  0  0  0  0  2  0  0  0  0  0  0
  180.9940  178.1700  136.8330 C   0  0  0  0  0  2  0  0  0  0  0  0
  181.9720  178.9860  139.0180 C   0  0  2  0  0  3  0  0  0  0  0  0
  181.4570  177.7870  138.2200 C   0  0  0  0  0  0  0  0  0  0  0  0
  183.7380  176.6270  138.1920 C   0  0  1  0  0  3  0  0  0  0  0  0
  189.2130  175.5170  135.8900 C   0  0  0  0  0  1  0  0  0  0  0  0
  185.1070  178.2080  143.3040 C   0  0  0  0  0  3  0  0  0  0  0  0
  182.8150  179.5550  141.4100 C   0  0  1  0  0  3  0  0  0  0  0  0
  187.7380  177.1180  137.1040 N   0  0  0  0  0  2  0  0  0  0  0  0
  185.1120  177.3840  142.2400 C   0  0  0  0  0  3  0  0  0  0  0  0
  182.2120  176.4560  138.2410 C   0  0  1  0  0  3  0  0  0  0  0  0
  184.3200  175.7890  137.0490 C   0  0  0  0  0  2  0  0  0  0  0  0
  183.9350  178.9010  140.6010 C   0  0  2  0  0  3  0  0  0  0  0  0
  186.1540  179.4820  137.7620 O   0  0  0  0  0  1  0  0  0  0  0  0
  186.7180  175.2510  136.2770 C   0  0  0  0  0  3  0  0  0  0  0  0
  184.2220  178.1000  138.1140 C   0  0  1  0  0  3  0  0  0  0  0  0
  185.7900  176.0320  136.9310 C   0  0  0  0  0  0  0  0  0  0  0  0
  181.0360  174.7070  138.9200 C   0  0  0  0  0  1  0  0  0  0  0  0
  181.8630  175.7320  139.3840 O   0  0  0  0  0  0  0  0  0  0  0  0
  184.1360  179.7550  144.8890 N   0  0  0  0  0  2  0  0  0  0  0  0
  184.4590  178.5480  145.6320 C   0  0  0  0  0  2  0  0  0  0  0  0
  185.6440  178.7900  146.5040 C   0  0  0  0  0  0  0  0  0  0  0  0
  185.6120  179.6660  147.3540 O   0  0  0  0  0  0  0  0  0  0  0  0
  186.8610  177.9480  146.3510 C   0  0  0  0  0  1  0  0  0  0  0  0
  1 28  1  1  0  0  0
  2 21  1  0  0  0  0
  3 12  1  0  0  0  0
  5  4  1  0  0  0  0
  6 18  1  0  0  0  0
  7 16  1  0  0  0  0
  8 17  1  0  0  0  0
  9  1  1  0  0  0  0
 10  3  1  0  0  0  0
 10 12  1  0  0  0  0
 11  2  1  0  0  0  0
 11  7  1  0  0  0  0
 12 19  1  0  0  0  0
 12 11  1  0  0  0  0
 13 19  1  0  0  0  0
 14  8  1  0  0  0  0
 15  1  1  0  0  0  0
 16  9  1  0  0  0  0
 17  5  1  0  0  0  0
 18 15  2  0  0  0  0
 19 27  1  0  0  0  0
 20 13  1  0  0  0  0
 21  6  1  0  0  0  0
 21 16  1  0  0  0  0
 22  4  1  0  0  0  0
 23  8  2  0  0  0  0
 23 25  1  0  0  0  0
 24 13  1  0  0  0  0
 24  4  1  0  0  0  0
 24  2  1  0  0  0  0
 25 20  1  0  0  0  0
 25  5  2  0  0  0  0
 26 27  1  0  0  0  0
 28 29  1  0  0  0  0
 29 30  1  0  0  0  0
 30 31  2  0  0  0  0
 32 30  1  0  0  0  0
M  END
>  <MODEL>
5

>  <REMARK>
 VINA RESULT:      -4.1      4.587      6.514
  Name = 
  4 active torsions:
  status: ('A' for Active; 'I' for Inactive)
    1  A    between atoms: C_1  and  C_10
    2  A    between atoms: C_2  and  N_24
    3  A    between atoms: C_10  and  N_24
    4  A    between atoms: O_25  and  C_26
                            x       y       z     vdW  Elec       q    Type
                         _______ _______ _______ _____ _____    ______ ____

>  <TORSDO>
F 4

$$$$
=
 OpenBabel10272413403D

 32 37  0  0  1  0  0  0  0  0999 V2000
  182.6660  179.5390  139.9540 C   0  0  2  0  0  3  0  0  0  0  0  0
  184.7600  177.5300  136.6130 C   0  0  1  0  0  3  0  0  0  0  0  0
  183.2010  174.2640  135.0500 C   0  0  0  0  0  2  0  0  0  0  0  0
  187.2370  177.8580  137.1590 C   0  0  1  0  0  3  0  0  0  0  0  0
  188.5400  177.1420  137.3570 C   0  0  0  0  0  0  0  0  0  0  0  0
  184.6140  177.2480  139.1560 C   0  0  0  0  0  2  0  0  0  0  0  0
  182.1350  176.7860  136.9410 S   0  0  0  0  0  0  0  0  0  0  0  0
  190.5780  176.7130  137.8040 C   0  0  0  0  0  0  0  0  0  0  0  0
  182.0030  178.4600  139.1110 C   0  0  0  0  0  2  0  0  0  0  0  0
  184.4490  174.8350  134.3940 C   0  0  0  0  0  2  0  0  0  0  0  0
  183.6750  176.6530  135.9740 C   0  0  2  0  0  3  0  0  0  0  0  0
  184.1100  175.1940  135.8230 C   0  0  0  0  0  0  0  0  0  0  0  0
  186.2030  175.5060  137.2630 C   0  0  1  0  0  3  0  0  0  0  0  0
  192.0160  176.9140  138.1230 C   0  0  0  0  0  1  0  0  0  0  0  0
  183.7970  179.0020  140.7970 C   0  0  0  0  0  3  0  0  0  0  0  0
  182.7540  178.2630  137.7940 C   0  0  1  0  0  3  0  0  0  0  0  0
  189.7120  177.7350  137.6430 N   0  0  0  0  0  2  0  0  0  0  0  0
  184.6660  178.0420  140.4340 C   0  0  0  0  0  3  0  0  0  0  0  0
  185.0710  174.5610  136.8310 C   0  0  1  0  0  3  0  0  0  0  0  0
  187.5590  174.8230  137.0590 C   0  0  0  0  0  2  0  0  0  0  0  0
  184.2680  178.1150  137.9420 C   0  0  2  0  0  3  0  0  0  0  0  0
  187.4170  178.9340  136.2900 O   0  0  0  0  0  1  0  0  0  0  0  0
  189.9840  175.4690  137.6430 C   0  0  0  0  0  3  0  0  0  0  0  0
  186.1690  176.9040  136.5900 C   0  0  1  0  0  3  0  0  0  0  0  0
  188.6660  175.7750  137.3790 C   0  0  0  0  0  0  0  0  0  0  0  0
  184.6790  172.7860  138.0960 C   0  0  0  0  0  1  0  0  0  0  0  0
  184.3630  174.1390  137.9600 O   0  0  0  0  0  0  0  0  0  0  0  0
  181.6750  180.1630  140.8130 N   0  0  0  0  0  2  0  0  0  0  0  0
  180.9320  179.0920  141.4550 C   0  0  0  0  0  2  0  0  0  0  0  0
  180.5780  179.4850  142.8500 C   0  0  0  0  0  0  0  0  0  0  0  0
  180.0280  180.5520  143.0660 O   0  0  0  0  0  0  0  0  0  0  0  0
  180.8790  178.5610  143.9780 C   0  0  0  0  0  1  0  0  0  0  0  0
  1 15  1  0  0  0  0
  1 28  1  1  0  0  0
  2 21  1  0  0  0  0
  3 12  1  0  0  0  0
  4  5  1  0  0  0  0
  5 25  2  0  0  0  0
  5 17  1  0  0  0  0
  6 18  1  0  0  0  0
  7 16  1  0  0  0  0
  8 14  1  0  0  0  0
  9  1  1  0  0  0  0
 10  3  1  0  0  0  0
 10 12  1  0  0  0  0
 11  2  1  0  0  0  0
 11  7  1  0  0  0  0
 12 11  1  0  0  0  0
 12 19  1  0  0  0  0
 16 21  1  0  0  0  0
 16  9  1  0  0  0  0
 17  8  1  0  0  0  0
 18 15  2  0  0  0  0
 19 13  1  0  0  0  0
 19 27  1  0  0  0  0
 20 13  1  0  0  0  0
 20 25  1  0  0  0  0
 21  6  1  0  0  0  0
 22  4  1  0  0  0  0
 23  8  2  0  0  0  0
 24  2  1  0  0  0  0
 24  4  1  0  0  0  0
 24 13  1  0  0  0  0
 25 23  1  0  0  0  0
 27 26  1  0  0  0  0
 28 29  1  0  0  0  0
 29 30  1  0  0  0  0
 30 31  2  0  0  0  0
 30 32  1  0  0  0  0
M  END
>  <MODEL>
6

>  <REMARK>
 VINA RESULT:      -3.8      4.414      6.026
  Name = 
  4 active torsions:
  status: ('A' for Active; 'I' for Inactive)
    1  A    between atoms: C_1  and  C_10
    2  A    between atoms: C_2  and  N_24
    3  A    between atoms: C_10  and  N_24
    4  A    between atoms: O_25  and  C_26
                            x       y       z     vdW  Elec       q    Type
                         _______ _______ _______ _____ _____    ______ ____

>  <TORSDO>
F 4

$$$$
=
 OpenBabel10272413403D

 32 37  0  0  1  0  0  0  0  0999 V2000
  185.9470  179.3750  141.4400 C   0  0  2  0  0  3  0  0  0  0  0  0
  186.7300  178.0370  137.2960 C   0  0  1  0  0  3  0  0  0  0  0  0
  184.0800  175.7560  135.4760 C   0  0  0  0  0  2  0  0  0  0  0  0
  189.2620  177.6770  137.2380 C   0  0  1  0  0  3  0  0  0  0  0  0
  190.3390  176.6840  136.9160 C   0  0  0  0  0  0  0  0  0  0  0  0
  187.0160  177.0650  139.6500 C   0  0  0  0  0  2  0  0  0  0  0  0
  184.1200  177.7840  138.1140 S   0  0  0  0  0  0  0  0  0  0  0  0
  192.2340  175.7360  136.7040 C   0  0  0  0  0  0  0  0  0  0  0  0
  184.8670  178.7460  140.5710 C   0  0  0  0  0  2  0  0  0  0  0  0
  185.2820  176.2240  134.6690 C   0  0  0  0  0  2  0  0  0  0  0  0
  185.3470  177.6240  136.7750 C   0  0  2  0  0  3  0  0  0  0  0  0
  185.3380  176.2150  136.1800 C   0  0  0  0  0  0  0  0  0  0  0  0
  187.6780  175.6610  137.0560 C   0  0  1  0  0  3  0  0  0  0  0  0
  193.7070  175.5360  136.6750 C   0  0  0  0  0  1  0  0  0  0  0  0
  187.0350  178.3970  141.8100 C   0  0  0  0  0  3  0  0  0  0  0  0
  185.2660  178.7900  139.0960 C   0  0  1  0  0  3  0  0  0  0  0  0
  191.6590  176.9160  137.0170 N   0  0  0  0  0  2  0  0  0  0  0  0
  187.5280  177.4270  141.0190 C   0  0  0  0  0  3  0  0  0  0  0  0
  186.2730  175.1330  136.7260 C   0  0  1  0  0  3  0  0  0  0  0  0
  188.7350  174.8030  136.3520 C   0  0  0  0  0  2  0  0  0  0  0  0
  186.6830  178.2990  138.8060 C   0  0  2  0  0  3  0  0  0  0  0  0
  189.5490  178.8990  136.6280 O   0  0  0  0  0  1  0  0  0  0  0  0
  191.3090  174.7420  136.4180 C   0  0  0  0  0  3  0  0  0  0  0  0
  187.8880  177.1700  136.7610 C   0  0  1  0  0  3  0  0  0  0  0  0
  190.0970  175.3730  136.5850 C   0  0  0  0  0  0  0  0  0  0  0  0
  185.6390  173.1930  137.5840 C   0  0  0  0  0  1  0  0  0  0  0  0
  185.7130  174.5570  137.8690 O   0  0  0  0  0  0  0  0  0  0  0  0
  185.3470  179.9120  142.6490 N   0  0  0  0  0  2  0  0  0  0  0  0
  184.3630  178.9440  143.1040 C   0  0  0  0  0  2  0  0  0  0  0  0
  184.3740  178.8700  144.5930 C   0  0  0  0  0  0  0  0  0  0  0  0
  183.3750  179.1650  145.2300 O   0  0  0  0  0  0  0  0  0  0  0  0
  185.6010  178.4150  145.3030 C   0  0  0  0  0  1  0  0  0  0  0  0
  1 15  1  0  0  0  0
  1 28  1  1  0  0  0
  2 21  1  0  0  0  0
  3 12  1  0  0  0  0
  5 17  1  0  0  0  0
  5  4  1  0  0  0  0
  6 18  1  0  0  0  0
  7 16  1  0  0  0  0
  8 17  1  0  0  0  0
  9  1  1  0  0  0  0
 10  3  1  0  0  0  0
 10 12  1  0  0  0  0
 11  2  1  0  0  0  0
 11  7  1  0  0  0  0
 12 19  1  0  0  0  0
 12 11  1  0  0  0  0
 14  8  1  0  0  0  0
 16  9  1  0  0  0  0
 18 15  2  0  0  0  0
 19 13  1  0  0  0  0
 19 27  1  0  0  0  0
 20 25  1  0  0  0  0
 20 13  1  0  0  0  0
 21 16  1  0  0  0  0
 21  6  1  0  0  0  0
 22  4  1  0  0  0  0
 23 25  1  0  0  0  0
 23  8  2  0  0  0  0
 24 13  1  0  0  0  0
 24  4  1  0  0  0  0
 24  2  1  0  0  0  0
 25  5  2  0  0  0  0
 26 27  1  0  0  0  0
 28 29  1  0  0  0  0
 29 30  1  0  0  0  0
 30 31  2  0  0  0  0
 30 32  1  0  0  0  0
M  END
>  <MODEL>
7

>  <REMARK>
 VINA RESULT:      -3.8      2.644      3.716
  Name = 
  4 active torsions:
  status: ('A' for Active; 'I' for Inactive)
    1  A    between atoms: C_1  and  C_10
    2  A    between atoms: C_2  and  N_24
    3  A    between atoms: C_10  and  N_24
    4  A    between atoms: O_25  and  C_26
                            x       y       z     vdW  Elec       q    Type
                         _______ _______ _______ _____ _____    ______ ____

>  <TORSDO>
F 4

$$$$
=
 OpenBabel10272413403D

 32 37  0  0  1  0  0  0  0  0999 V2000
  188.9080  172.4010  134.9590 C   0  0  2  0  0  3  0  0  0  0  0  0
  187.0610  176.4070  135.3130 C   0  0  1  0  0  3  0  0  0  0  0  0
  189.0760  179.3080  137.0620 C   0  0  0  0  0  2  0  0  0  0  0  0
  184.5820  175.9060  135.6930 C   0  0  1  0  0  3  0  0  0  0  0  0
  183.4180  176.1640  136.6040 C   0  0  0  0  0  0  0  0  0  0  0  0
  187.3310  174.3440  136.8100 C   0  0  0  0  0  2  0  0  0  0  0  0
  189.7800  176.3530  135.7030 S   0  0  0  0  0  0  0  0  0  0  0  0
  181.4920  176.1030  137.5100 C   0  0  0  0  0  0  0  0  0  0  0  0
  189.7100  173.6340  135.3510 C   0  0  0  0  0  2  0  0  0  0  0  0
  187.7320  179.6570  136.4410 C   0  0  0  0  0  2  0  0  0  0  0  0
  188.2530  177.3400  135.5690 C   0  0  2  0  0  3  0  0  0  0  0  0
  188.0540  178.2240  136.8010 C   0  0  0  0  0  0  0  0  0  0  0  0
  185.9840  176.9380  137.5840 C   0  0  1  0  0  3  0  0  0  0  0  0
  180.0510  175.8040  137.7220 C   0  0  0  0  0  1  0  0  0  0  0  0
  187.9060  172.0030  136.0160 C   0  0  0  0  0  3  0  0  0  0  0  0
  188.9590  174.9110  134.9720 C   0  0  1  0  0  3  0  0  0  0  0  0
  182.1760  175.6830  136.4250 N   0  0  0  0  0  0  0  0  0  0  0  0
  187.1910  172.8450  136.7840 C   0  0  0  0  0  3  0  0  0  0  0  0
  187.2400  177.7230  137.9960 C   0  0  1  0  0  3  0  0  0  0  0  0
  184.7510  177.5290  138.2730 C   0  0  0  0  0  2  0  0  0  0  0  0
  187.4940  174.9390  135.4080 C   0  0  2  0  0  3  0  0  0  0  0  0
  184.2040  176.1270  134.3690 O   0  0  0  0  0  1  0  0  0  0  0  0
  182.2730  176.8330  138.3940 C   0  0  0  0  0  3  0  0  0  0  0  0
  185.7720  176.8170  136.0520 C   0  0  1  0  0  3  0  0  0  0  0  0
  183.5150  176.8370  137.7970 C   0  0  1  0  0  3  0  0  0  0  0  0
  188.2170  177.6620  139.9820 C   0  0  0  0  0  1  0  0  0  0  0  0
  188.0420  176.9210  138.8120 O   0  0  0  0  0  0  0  0  0  0  0  0
  189.8120  171.2930  134.7070 N   0  0  0  0  0  2  0  0  0  0  0  0
  191.1650  171.8190  134.7850 C   0  0  0  0  0  2  0  0  0  0  0  0
  192.1420  170.6960  134.8710 C   0  0  0  0  0  0  0  0  0  0  0  0
  193.3230  170.9250  135.0790 O   0  0  0  0  0  0  0  0  0  0  0  0
  191.6710  169.2920  134.7230 C   0  0  0  0  0  1  0  0  0  0  0  0
  1 28  1  1  0  0  0
  1  9  1  0  0  0  0
  1 15  1  0  0  0  0
  2 21  1  0  0  0  0
  2 11  1  0  0  0  0
  2 24  1  0  0  0  0
  4 24  1  0  0  0  0
  4  5  1  0  0  0  0
  5 25  1  0  0  0  0
  8 14  1  0  0  0  0
  8 23  2  0  0  0  0
 10 12  1  0  0  0  0
 10  3  1  0  0  0  0
 11  7  1  0  0  0  0
 11 12  1  0  0  0  0
 12  3  1  0  0  0  0
 12 19  1  0  0  0  0
 13 19  1  0  0  0  0
 13 20  1  0  0  0  0
 15 18  2  0  0  0  0
 16  9  1  0  0  0  0
 16 21  1  0  0  0  0
 16  7  1  0  0  0  0
 17  5  2  0  0  0  0
 17  8  1  0  0  0  0
 18  6  1  0  0  0  0
 19 27  1  0  0  0  0
 21  6  1  0  0  0  0
 22  4  1  0  0  0  0
 24 13  1  0  0  0  0
 25 20  1  0  0  0  0
 25 23  1  0  0  0  0
 27 26  1  0  0  0  0
 28 29  1  0  0  0  0
 29 30  1  0  0  0  0
 30 31  2  0  0  0  0
 32 30  1  0  0  0  0
M  END
>  <MODEL>
8

>  <REMARK>
 VINA RESULT:      -3.6      4.606      9.349
  Name = 
  4 active torsions:
  status: ('A' for Active; 'I' for Inactive)
    1  A    between atoms: C_1  and  C_10
    2  A    between atoms: C_2  and  N_24
    3  A    between atoms: C_10  and  N_24
    4  A    between atoms: O_25  and  C_26
                            x       y       z     vdW  Elec       q    Type
                         _______ _______ _______ _____ _____    ______ ____

>  <TORSDO>
F 4

$$$$
=
 OpenBabel10272413403D

 32 37  0  0  1  0  0  0  0  0999 V2000
  184.6560  178.5290  144.0830 C   0  0  2  0  0  3  0  0  0  0  0  0
  188.5880  176.5360  144.4670 C   0  0  1  0  0  3  0  0  0  0  0  0
  190.9230  177.4540  147.5070 C   0  0  0  0  0  2  0  0  0  0  0  0
  189.3710  176.2580  142.0470 C   0  0  1  0  0  3  0  0  0  0  0  0
  190.4970  176.5380  141.0970 C   0  0  0  0  0  0  0  0  0  0  0  0
  187.7120  178.7600  143.5400 C   0  0  0  0  0  2  0  0  0  0  0  0
  187.6990  177.7790  146.7500 S   0  0  0  0  0  0  0  0  0  0  0  0
  191.6750  176.6990  139.3300 C   0  0  0  0  0  0  0  0  0  0  0  0
  185.4840  178.6040  145.3580 C   0  0  0  0  0  2  0  0  0  0  0  0
  191.3810  176.3410  146.5760 C   0  0  0  0  0  2  0  0  0  0  0  0
  188.9670  176.7510  145.9380 C   0  0  2  0  0  3  0  0  0  0  0  0
  190.3620  177.3550  146.1060 C   0  0  0  0  0  0  0  0  0  0  0  0
  190.6040  177.8820  143.6130 C   0  0  1  0  0  3  0  0  0  0  0  0
  192.1200  176.5330  137.9210 C   0  0  0  0  0  1  0  0  0  0  0  0
  185.3000  179.2620  142.9310 C   0  0  0  0  0  3  0  0  0  0  0  0
  186.5420  177.5000  145.3820 C   0  0  1  0  0  3  0  0  0  0  0  0
  190.5210  176.1820  139.8010 N   0  0  0  0  0  0  0  0  0  0  0  0
  186.6190  179.3240  142.6720 C   0  0  0  0  0  3  0  0  0  0  0  0
  190.9280  178.3100  145.0530 C   0  0  1  0  0  3  0  0  0  0  0  0
  191.8930  177.8110  142.7870 C   0  0  0  0  0  2  0  0  0  0  0  0
  187.3600  177.3770  144.0970 C   0  0  2  0  0  3  0  0  0  0  0  0
  188.9870  174.9200  141.9440 O   0  0  0  0  0  1  0  0  0  0  0  0
  192.3900  177.3950  140.2940 C   0  0  0  0  0  3  0  0  0  0  0  0
  189.7880  176.5670  143.4980 C   0  0  1  0  0  3  0  0  0  0  0  0
  191.5970  177.2950  141.4160 C   0  0  1  0  0  3  0  0  0  0  0  0
  191.2310  180.4250  144.4710 C   0  0  0  0  0  1  0  0  0  0  0  0
  190.4400  179.6010  145.2730 O   0  0  0  0  0  0  0  0  0  0  0  0
  183.3340  179.0790  144.3280 N   0  0  0  0  0  2  0  0  0  0  0  0
  182.5640  178.8990  143.1090 C   0  0  0  0  0  2  0  0  0  0  0  0
  181.1340  179.2420  143.3560 C   0  0  0  0  0  0  0  0  0  0  0  0
  180.6700  180.2880  142.9310 O   0  0  0  0  0  0  0  0  0  0  0  0
  180.2650  178.2940  144.1070 C   0  0  0  0  0  1  0  0  0  0  0  0
  1 28  1  1  0  0  0
  1  9  1  0  0  0  0
  2 11  1  0  0  0  0
  4 24  1  0  0  0  0
  5 25  1  0  0  0  0
  5  4  1  0  0  0  0
  6 21  1  0  0  0  0
  8 17  1  0  0  0  0
  8 23  2  0  0  0  0
  9 16  1  0  0  0  0
 10  3  1  0  0  0  0
 11 12  1  0  0  0  0
 11  7  1  0  0  0  0
 12 10  1  0  0  0  0
 12  3  1  0  0  0  0
 13 19  1  0  0  0  0
 14  8  1  0  0  0  0
 15  1  1  0  0  0  0
 16  7  1  0  0  0  0
 17  5  2  0  0  0  0
 18 15  2  0  0  0  0
 18  6  1  0  0  0  0
 19 27  1  0  0  0  0
 19 12  1  0  0  0  0
 20 13  1  0  0  0  0
 21  2  1  0  0  0  0
 21 16  1  0  0  0  0
 22  4  1  0  0  0  0
 23 25  1  0  0  0  0
 24 13  1  0  0  0  0
 24  2  1  0  0  0  0
 25 20  1  0  0  0  0
 26 27  1  0  0  0  0
 29 30  1  0  0  0  0
 29 28  1  0  0  0  0
 30 32  1  0  0  0  0
 31 30  2  0  0  0  0
M  END
>  <MODEL>
9

>  <REMARK>
 VINA RESULT:      -3.4      3.269      6.429
  Name = 
  4 active torsions:
  status: ('A' for Active; 'I' for Inactive)
    1  A    between atoms: C_1  and  C_10
    2  A    between atoms: C_2  and  N_24
    3  A    between atoms: C_10  and  N_24
    4  A    between atoms: O_25  and  C_26
                            x       y       z     vdW  Elec       q    Type
                         _______ _______ _______ _____ _____    ______ ____

>  <TORSDO>
F 4

$$$$
