=
 OpenBabel10262423453D

 34 38  0  0  1  0  0  0  0  0999 V2000
  183.2730  178.3390  138.6610 C   0  0  0  0  0  0  0  0  0  0  0  0
  184.8830  178.5990  140.5140 C   0  0  0  0  0  0  0  0  0  0  0  0
  185.6670  178.0480  138.2480 C   0  0  0  0  0  0  0  0  0  0  0  0
  188.0440  178.8650  136.5780 C   0  0  0  0  0  2  0  0  0  0  0  0
  181.7650  178.0300  136.8350 F   0  0  0  0  0  0  0  0  0  0  0  0
  183.8750  178.8390  141.4410 O   0  0  0  0  0  1  0  0  0  0  0  0
  187.2440  178.4090  140.0770 C   0  0  0  0  0  3  0  0  0  0  0  0
  184.5970  178.3370  139.1540 C   0  0  0  0  0  0  0  0  0  0  0  0
  188.1370  178.1330  137.8290 N   0  0  0  0  0  0  0  0  0  0  0  0
  182.2950  178.6230  139.4050 O   0  0  0  0  0  0  0  0  0  0  0  0
  185.3660  177.6560  136.9550 N   0  0  0  0  0  0  0  0  0  0  0  0
  183.0300  178.0280  137.3270 C   0  0  0  0  0  0  0  0  0  0  0  0
  186.1990  178.6140  140.9620 C   0  0  0  0  0  3  0  0  0  0  0  0
  187.3870  178.0240  135.4960 C   0  0  0  0  0  2  0  0  0  0  0  0
  186.3230  177.0520  136.0170 C   0  0  1  0  0  3  0  0  0  0  0  0
  187.0090  178.1490  138.7230 C   0  0  0  0  0  0  0  0  0  0  0  0
  184.0840  177.6620  136.5040 C   0  0  0  0  0  3  0  0  0  0  0  0
  186.5230  173.5260  137.4870 C   0  0  0  0  0  0  0  0  0  0  0  0
  187.8240  173.1580  137.1370 C   0  0  0  0  0  3  0  0  0  0  0  0
  186.8500  175.7020  136.4500 C   0  0  0  0  0  0  0  0  0  0  0  0
  188.6350  174.0500  136.4310 C   0  0  0  0  0  3  0  0  0  0  0  0
  186.0350  174.7870  137.1380 C   0  0  0  0  0  3  0  0  0  0  0  0
  188.1480  175.3120  136.0820 C   0  0  0  0  0  3  0  0  0  0  0  0
  185.7300  172.6570  138.1600 F   0  0  0  0  0  0  0  0  0  0  0  0
  189.4660  177.7710  138.3050 C   0  0  0  0  0  2  0  0  0  0  0  0
  189.3600  176.6910  139.3650 C   0  0  0  0  0  2  0  0  0  0  0  0
  190.6060  176.6740  140.2340 C   0  0  0  0  0  2  0  0  0  0  0  0
  190.1990  175.3320  142.6780 O   0  0  0  0  0  1  0  0  0  0  0  0
  190.3580  177.3780  141.4870 N   0  0  0  0  0  0  0  0  0  0  0  0
  189.5430  176.5320  142.3770 C   0  0  2  0  0  3  0  0  0  0  0  0
  190.0670  178.5070  143.9000 C   0  0  0  0  0  2  0  0  0  0  0  0
  191.5210  178.2210  143.5320 C   0  0  0  0  0  2  0  0  0  0  0  0
  191.6580  177.6740  142.1000 C   0  0  0  0  0  2  0  0  0  0  0  0
  189.1950  177.2690  143.6760 C   0  0  0  0  0  2  0  0  0  0  0  0
  1  8  1  0  0  0  0
  1 10  2  0  0  0  0
  2 13  1  0  0  0  0
  2  6  1  0  0  0  0
  3 16  2  0  0  0  0
  3  8  1  0  0  0  0
  4  9  1  0  0  0  0
  5 12  1  0  0  0  0
  7 13  2  0  0  0  0
  8  2  2  0  0  0  0
  9 25  1  0  0  0  0
  9 16  1  0  0  0  0
 11  3  1  0  0  0  0
 12  1  1  0  0  0  0
 14 15  1  0  0  0  0
 14  4  1  0  0  0  0
 15 20  1  1  0  0  0
 15 11  1  0  0  0  0
 16  7  1  0  0  0  0
 17 11  1  0  0  0  0
 17 12  2  0  0  0  0
 18 24  1  0  0  0  0
 19 18  2  0  0  0  0
 20 22  2  0  0  0  0
 21 19  1  0  0  0  0
 22 18  1  0  0  0  0
 23 21  2  0  0  0  0
 23 20  1  0  0  0  0
 25 26  1  0  0  0  0
 26 27  1  0  0  0  0
 27 29  1  0  0  0  0
 29 33  1  0  0  0  0
 29 30  1  0  0  0  0
 30 28  1  1  0  0  0
 30 34  1  0  0  0  0
 32 31  1  0  0  0  0
 33 32  1  0  0  0  0
 34 31  1  0  0  0  0
M  END
>  <MODEL>
1

>  <REMARK>
 VINA RESULT:      -6.9      0.000      0.000
  Name = 
  5 active torsions:
  status: ('A' for Active; 'I' for Inactive)
    1  A    between atoms: C_3  and  N_13
    2  A    between atoms: C_3  and  C_17
    3  A    between atoms: C_12  and  C_28
    4  A    between atoms: C_17  and  C_29
    5  A    between atoms: N_18  and  C_29
                            x       y       z     vdW  Elec       q    Type
                         _______ _______ _______ _____ _____    ______ ____

>  <TORSDO>
F 5

$$$$
=
 OpenBabel10262423453D

 34 38  0  0  1  0  0  0  0  0999 V2000
  192.2010  174.6660  136.6530 C   0  0  0  0  0  0  0  0  0  0  0  0
  190.1060  173.3810  136.4250 C   0  0  0  0  0  0  0  0  0  0  0  0
  190.0590  175.7200  137.1860 C   0  0  0  0  0  0  0  0  0  0  0  0
  188.2240  178.0650  136.6960 C   0  0  0  0  0  2  0  0  0  0  0  0
  194.1950  175.9490  136.9370 F   0  0  0  0  0  0  0  0  0  0  0  0
  190.7790  172.2280  136.0360 O   0  0  0  0  0  1  0  0  0  0  0  0
  187.9950  174.4580  136.8570 C   0  0  0  0  0  3  0  0  0  0  0  0
  190.7950  174.5740  136.7450 C   0  0  0  0  0  0  0  0  0  0  0  0
  187.8200  176.8340  137.3540 N   0  0  0  0  0  0  0  0  0  0  0  0
  192.8970  173.7000  136.2340 O   0  0  0  0  0  0  0  0  0  0  0  0
  190.7510  176.8330  137.6300 N   0  0  0  0  0  0  0  0  0  0  0  0
  192.8450  175.8420  137.0230 C   0  0  0  0  0  0  0  0  0  0  0  0
  188.7190  173.3310  136.5010 C   0  0  0  0  0  3  0  0  0  0  0  0
  189.2250  178.8360  137.5400 C   0  0  0  0  0  2  0  0  0  0  0  0
  190.1550  177.9510  138.3760 C   0  0  1  0  0  3  0  0  0  0  0  0
  188.6330  175.6600  137.1790 C   0  0  0  0  0  0  0  0  0  0  0  0
  192.1060  176.8970  137.5350 C   0  0  0  0  0  3  0  0  0  0  0  0
  189.8020  176.3360  141.8260 C   0  0  0  0  0  0  0  0  0  0  0  0
  188.6600  176.9760  142.3120 C   0  0  0  0  0  3  0  0  0  0  0  0
  189.6180  177.5710  139.7390 C   0  0  0  0  0  0  0  0  0  0  0  0
  188.0030  177.9240  141.5230 C   0  0  0  0  0  3  0  0  0  0  0  0
  190.2840  176.6380  140.5510 C   0  0  0  0  0  3  0  0  0  0  0  0
  188.4850  178.2260  140.2470 C   0  0  0  0  0  3  0  0  0  0  0  0
  190.4480  175.4260  142.5950 F   0  0  0  0  0  0  0  0  0  0  0  0
  186.4380  176.7300  137.8040 C   0  0  0  0  0  2  0  0  0  0  0  0
  185.6680  177.9760  137.4080 C   0  0  0  0  0  2  0  0  0  0  0  0
  184.2090  177.8520  137.8130 C   0  0  0  0  0  2  0  0  0  0  0  0
  184.3600  180.2880  139.2210 O   0  0  0  0  0  1  0  0  0  0  0  0
  184.0790  177.9320  139.2630 N   0  0  0  0  0  0  0  0  0  0  0  0
  184.8400  179.0890  139.7650 C   0  0  2  0  0  3  0  0  0  0  0  0
  183.6870  178.2840  141.8900 C   0  0  0  0  0  2  0  0  0  0  0  0
  182.4070  178.3870  141.0630 C   0  0  0  0  0  2  0  0  0  0  0  0
  182.6520  178.0730  139.5780 C   0  0  0  0  0  2  0  0  0  0  0  0
  184.7900  179.1620  141.2960 C   0  0  0  0  0  2  0  0  0  0  0  0
  1  8  1  0  0  0  0
  1 12  1  0  0  0  0
  2 13  2  0  0  0  0
  2  8  1  0  0  0  0
  3 11  1  0  0  0  0
  4  9  1  0  0  0  0
  4 14  1  0  0  0  0
  5 12  1  0  0  0  0
  6  2  1  0  0  0  0
  7 16  2  0  0  0  0
  8  3  2  0  0  0  0
  9 25  1  0  0  0  0
 10  1  2  0  0  0  0
 11 15  1  0  0  0  0
 12 17  2  0  0  0  0
 13  7  1  0  0  0  0
 14 15  1  0  0  0  0
 15 20  1  1  0  0  0
 16  3  1  0  0  0  0
 16  9  1  0  0  0  0
 17 11  1  0  0  0  0
 18 19  1  0  0  0  0
 18 24  1  0  0  0  0
 20 23  2  0  0  0  0
 20 22  1  0  0  0  0
 21 19  2  0  0  0  0
 22 18  2  0  0  0  0
 23 21  1  0  0  0  0
 26 25  1  0  0  0  0
 26 27  1  0  0  0  0
 27 29  1  0  0  0  0
 29 33  1  0  0  0  0
 29 30  1  0  0  0  0
 30 28  1  6  0  0  0
 30 34  1  0  0  0  0
 32 31  1  0  0  0  0
 33 32  1  0  0  0  0
 34 31  1  0  0  0  0
M  END
>  <MODEL>
2

>  <REMARK>
 VINA RESULT:      -6.9      3.184      7.134
  Name = 
  5 active torsions:
  status: ('A' for Active; 'I' for Inactive)
    1  A    between atoms: C_3  and  N_13
    2  A    between atoms: C_3  and  C_17
    3  A    between atoms: C_12  and  C_28
    4  A    between atoms: C_17  and  C_29
    5  A    between atoms: N_18  and  C_29
                            x       y       z     vdW  Elec       q    Type
                         _______ _______ _______ _____ _____    ______ ____

>  <TORSDO>
F 5

$$$$
=
 OpenBabel10262423453D

 34 38  0  0  1  0  0  0  0  0999 V2000
  181.9140  178.5090  137.4870 C   0  0  0  0  0  0  0  0  0  0  0  0
  183.2260  178.8370  139.5520 C   0  0  0  0  0  0  0  0  0  0  0  0
  184.2800  177.8890  137.5410 C   0  0  0  0  0  0  0  0  0  0  0  0
  186.9830  178.1870  136.2330 C   0  0  0  0  0  2  0  0  0  0  0  0
  180.6900  178.1240  135.4720 F   0  0  0  0  0  0  0  0  0  0  0  0
  182.1250  179.3190  140.2510 O   0  0  0  0  0  1  0  0  0  0  0  0
  185.5780  178.3170  139.5650 C   0  0  0  0  0  3  0  0  0  0  0  0
  183.1280  178.4220  138.2030 C   0  0  0  0  0  0  0  0  0  0  0  0
  186.7730  177.6290  137.5580 N   0  0  0  0  0  0  0  0  0  0  0  0
  180.8780  179.0050  138.0070 O   0  0  0  0  0  0  0  0  0  0  0  0
  184.1390  177.3580  136.2710 N   0  0  0  0  0  0  0  0  0  0  0  0
  181.8470  178.0460  136.1770 C   0  0  0  0  0  0  0  0  0  0  0  0
  184.4420  178.7630  140.2210 C   0  0  0  0  0  3  0  0  0  0  0  0
  186.3990  177.2840  135.1590 C   0  0  0  0  0  2  0  0  0  0  0  0
  185.1420  176.5230  135.5940 C   0  0  1  0  0  3  0  0  0  0  0  0
  185.5300  177.9000  138.2300 C   0  0  0  0  0  0  0  0  0  0  0  0
  182.9590  177.4500  135.6020 C   0  0  0  0  0  3  0  0  0  0  0  0
  186.8810  173.3420  136.8140 C   0  0  0  0  0  0  0  0  0  0  0  0
  185.8940  172.7870  137.6310 C   0  0  0  0  0  3  0  0  0  0  0  0
  185.4030  175.1950  136.2690 C   0  0  0  0  0  0  0  0  0  0  0  0
  184.6670  173.4390  137.7820 C   0  0  0  0  0  3  0  0  0  0  0  0
  186.6410  174.5430  136.1440 C   0  0  0  0  0  3  0  0  0  0  0  0
  184.4260  174.6400  137.1120 C   0  0  0  0  0  3  0  0  0  0  0  0
  188.0770  172.7180  136.6760 F   0  0  0  0  0  0  0  0  0  0  0  0
  187.9460  177.1870  138.3010 C   0  0  0  0  0  2  0  0  0  0  0  0
  188.7780  178.3860  138.7170 C   0  0  0  0  0  2  0  0  0  0  0  0
  189.8680  177.9660  139.6890 C   0  0  0  0  0  2  0  0  0  0  0  0
  191.2640  177.6460  142.1150 O   0  0  0  0  0  1  0  0  0  0  0  0
  189.2830  177.3110  140.8530 N   0  0  0  0  0  0  0  0  0  0  0  0
  190.3490  176.6890  141.6580 C   0  0  2  0  0  3  0  0  0  0  0  0
  188.3080  176.2980  143.1340 C   0  0  0  0  0  2  0  0  0  0  0  0
  188.0990  177.8050  142.9970 C   0  0  0  0  0  2  0  0  0  0  0  0
  188.5730  178.3320  141.6320 C   0  0  0  0  0  2  0  0  0  0  0  0
  189.7650  175.9240  142.8520 C   0  0  0  0  0  2  0  0  0  0  0  0
  1 10  2  0  0  0  0
  1  8  1  0  0  0  0
  2 13  1  0  0  0  0
  2  6  1  0  0  0  0
  3  8  1  0  0  0  0
  3 16  2  0  0  0  0
  4  9  1  0  0  0  0
  5 12  1  0  0  0  0
  7 13  2  0  0  0  0
  8  2  2  0  0  0  0
  9 16  1  0  0  0  0
  9 25  1  0  0  0  0
 11  3  1  0  0  0  0
 12  1  1  0  0  0  0
 14 15  1  0  0  0  0
 14  4  1  0  0  0  0
 15 20  1  1  0  0  0
 15 11  1  0  0  0  0
 16  7  1  0  0  0  0
 17 12  2  0  0  0  0
 17 11  1  0  0  0  0
 18 19  1  0  0  0  0
 19 21  2  0  0  0  0
 20 23  2  0  0  0  0
 22 20  1  0  0  0  0
 22 18  2  0  0  0  0
 23 21  1  0  0  0  0
 24 18  1  0  0  0  0
 25 26  1  0  0  0  0
 26 27  1  0  0  0  0
 27 29  1  0  0  0  0
 29 33  1  0  0  0  0
 29 30  1  0  0  0  0
 30 28  1  1  0  0  0
 30 34  1  0  0  0  0
 32 31  1  0  0  0  0
 33 32  1  0  0  0  0
 34 31  1  0  0  0  0
M  END
>  <MODEL>
3

>  <REMARK>
 VINA RESULT:      -6.7      1.513      2.096
  Name = 
  5 active torsions:
  status: ('A' for Active; 'I' for Inactive)
    1  A    between atoms: C_3  and  N_13
    2  A    between atoms: C_3  and  C_17
    3  A    between atoms: C_12  and  C_28
    4  A    between atoms: C_17  and  C_29
    5  A    between atoms: N_18  and  C_29
                            x       y       z     vdW  Elec       q    Type
                         _______ _______ _______ _____ _____    ______ ____

>  <TORSDO>
F 5

$$$$
=
 OpenBabel10262423453D

 34 38  0  0  1  0  0  0  0  0999 V2000
  182.6100  178.7850  143.7870 C   0  0  0  0  0  0  0  0  0  0  0  0
  184.9300  178.5670  142.9690 C   0  0  0  0  0  0  0  0  0  0  0  0
  183.0780  178.9260  141.3900 C   0  0  0  0  0  0  0  0  0  0  0  0
  182.7430  180.5330  138.8580 C   0  0  0  0  0  2  0  0  0  0  0  0
  180.3410  178.9580  144.5080 F   0  0  0  0  0  0  0  0  0  0  0  0
  185.4290  178.3570  144.2500 O   0  0  0  0  0  1  0  0  0  0  0  0
  185.3920  178.8070  140.6180 C   0  0  0  0  0  3  0  0  0  0  0  0
  183.5490  178.7610  142.7310 C   0  0  0  0  0  0  0  0  0  0  0  0
  183.6750  179.4290  139.0080 N   0  0  0  0  0  0  0  0  0  0  0  0
  182.9730  178.6820  144.9910 O   0  0  0  0  0  0  0  0  0  0  0  0
  181.7150  178.9750  141.1570 N   0  0  0  0  0  0  0  0  0  0  0  0
  181.2560  178.9300  143.5070 C   0  0  0  0  0  0  0  0  0  0  0  0
  185.8310  178.5750  141.9110 C   0  0  0  0  0  3  0  0  0  0  0  0
  181.3030  180.0500  138.9160 C   0  0  0  0  0  2  0  0  0  0  0  0
  181.0830  178.8450  139.8360 C   0  0  1  0  0  3  0  0  0  0  0  0
  184.0360  179.0080  140.3350 C   0  0  0  0  0  0  0  0  0  0  0  0
  180.8300  178.9920  142.1890 C   0  0  0  0  0  3  0  0  0  0  0  0
  181.2490  176.0610  137.2160 C   0  0  0  0  0  0  0  0  0  0  0  0
  181.7860  175.0130  137.9660 C   0  0  0  0  0  3  0  0  0  0  0  0
  181.2870  177.4960  139.1800 C   0  0  0  0  0  0  0  0  0  0  0  0
  182.0880  175.2040  139.3170 C   0  0  0  0  0  3  0  0  0  0  0  0
  181.0090  177.2990  137.8170 C   0  0  0  0  0  3  0  0  0  0  0  0
  181.8480  176.4420  139.9180 C   0  0  0  0  0  3  0  0  0  0  0  0
  180.9670  175.8810  135.9030 F   0  0  0  0  0  0  0  0  0  0  0  0
  184.4990  179.0770  137.8580 C   0  0  0  0  0  2  0  0  0  0  0  0
  184.5350  177.5700  137.6900 C   0  0  0  0  0  2  0  0  0  0  0  0
  185.8000  177.1460  136.9610 C   0  0  0  0  0  2  0  0  0  0  0  0
  188.2810  175.8140  137.0330 O   0  0  0  0  0  1  0  0  0  0  0  0
  186.9740  177.7060  137.6180 N   0  0  0  0  0  0  0  0  0  0  0  0
  187.8420  176.6150  138.0950 C   0  0  2  0  0  3  0  0  0  0  0  0
  189.2690  178.6590  138.6210 C   0  0  0  0  0  2  0  0  0  0  0  0
  189.0540  179.0090  137.1500 C   0  0  0  0  0  2  0  0  0  0  0  0
  187.6810  178.5410  136.6390 C   0  0  0  0  0  2  0  0  0  0  0  0
  189.0520  177.1630  138.8610 C   0  0  0  0  0  2  0  0  0  0  0  0
  1 10  2  0  0  0  0
  2  6  1  0  0  0  0
  3  8  2  0  0  0  0
  4 14  1  0  0  0  0
  4  9  1  0  0  0  0
  7 13  1  0  0  0  0
  8  2  1  0  0  0  0
  8  1  1  0  0  0  0
  9 16  1  0  0  0  0
 11  3  1  0  0  0  0
 11 17  1  0  0  0  0
 12  1  1  0  0  0  0
 12  5  1  0  0  0  0
 13  2  2  0  0  0  0
 14 15  1  0  0  0  0
 15 20  1  6  0  0  0
 15 11  1  0  0  0  0
 16  7  2  0  0  0  0
 16  3  1  0  0  0  0
 17 12  2  0  0  0  0
 18 22  2  0  0  0  0
 18 19  1  0  0  0  0
 19 21  2  0  0  0  0
 20 23  2  0  0  0  0
 21 23  1  0  0  0  0
 22 20  1  0  0  0  0
 24 18  1  0  0  0  0
 25  9  1  0  0  0  0
 26 25  1  0  0  0  0
 27 29  1  0  0  0  0
 27 26  1  0  0  0  0
 29 30  1  0  0  0  0
 30 28  1  6  0  0  0
 30 34  1  0  0  0  0
 31 34  1  0  0  0  0
 32 31  1  0  0  0  0
 33 32  1  0  0  0  0
 33 29  1  0  0  0  0
M  END
>  <MODEL>
4

>  <REMARK>
 VINA RESULT:      -6.7      3.103      5.619
  Name = 
  5 active torsions:
  status: ('A' for Active; 'I' for Inactive)
    1  A    between atoms: C_3  and  N_13
    2  A    between atoms: C_3  and  C_17
    3  A    between atoms: C_12  and  C_28
    4  A    between atoms: C_17  and  C_29
    5  A    between atoms: N_18  and  C_29
                            x       y       z     vdW  Elec       q    Type
                         _______ _______ _______ _____ _____    ______ ____

>  <TORSDO>
F 5

$$$$
=
 OpenBabel10262423453D

 34 38  0  0  1  0  0  0  0  0999 V2000
  186.2060  178.6440  139.7890 C   0  0  0  0  0  0  0  0  0  0  0  0
  188.1610  177.9430  141.1240 C   0  0  0  0  0  0  0  0  0  0  0  0
  188.0750  177.4970  138.7060 C   0  0  0  0  0  0  0  0  0  0  0  0
  190.1050  177.5610  136.4730 C   0  0  0  0  0  2  0  0  0  0  0  0
  184.3250  179.2550  138.4500 F   0  0  0  0  0  0  0  0  0  0  0  0
  187.6020  178.4110  142.3070 O   0  0  0  0  0  1  0  0  0  0  0  0
  190.0390  176.9040  140.0300 C   0  0  0  0  0  3  0  0  0  0  0  0
  187.4780  178.0370  139.8880 C   0  0  0  0  0  0  0  0  0  0  0  0
  190.1700  176.6610  137.6110 N   0  0  0  0  0  0  0  0  0  0  0  0
  185.6490  179.1700  140.7910 O   0  0  0  0  0  0  0  0  0  0  0  0
  187.3400  177.4700  137.5330 N   0  0  0  0  0  0  0  0  0  0  0  0
  185.5460  178.6730  138.5650 C   0  0  0  0  0  0  0  0  0  0  0  0
  189.4230  177.3630  141.1830 C   0  0  0  0  0  3  0  0  0  0  0  0
  188.9170  177.2350  135.5820 C   0  0  0  0  0  2  0  0  0  0  0  0
  187.6980  176.6950  136.3360 C   0  0  1  0  0  3  0  0  0  0  0  0
  189.4040  176.9800  138.7860 C   0  0  0  0  0  0  0  0  0  0  0  0
  186.1160  178.0560  137.4630 C   0  0  0  0  0  3  0  0  0  0  0  0
  186.6350  173.1750  137.3940 C   0  0  0  0  0  0  0  0  0  0  0  0
  187.6330  172.3990  136.8010 C   0  0  0  0  0  3  0  0  0  0  0  0
  187.6860  175.1950  136.5400 C   0  0  0  0  0  0  0  0  0  0  0  0
  188.6490  173.0130  136.0650 C   0  0  0  0  0  3  0  0  0  0  0  0
  186.6560  174.5650  137.2570 C   0  0  0  0  0  3  0  0  0  0  0  0
  188.6710  174.4040  135.9280 C   0  0  0  0  0  3  0  0  0  0  0  0
  185.6400  172.5800  138.0970 F   0  0  0  0  0  0  0  0  0  0  0  0
  191.2900  175.7310  137.6760 C   0  0  0  0  0  2  0  0  0  0  0  0
  192.6010  176.4920  137.6000 C   0  0  0  0  0  2  0  0  0  0  0  0
  193.5340  175.8460  136.5900 C   0  0  0  0  0  2  0  0  0  0  0  0
  194.0090  173.1640  137.3120 O   0  0  0  0  0  1  0  0  0  0  0  0
  194.7640  175.4130  137.2420 N   0  0  0  0  0  0  0  0  0  0  0  0
  194.4900  174.2330  138.0800 C   0  0  2  0  0  3  0  0  0  0  0  0
  197.0240  174.4160  138.2810 C   0  0  0  0  0  2  0  0  0  0  0  0
  197.0010  174.4130  136.7540 C   0  0  0  0  0  2  0  0  0  0  0  0
  195.7380  175.0900  136.1940 C   0  0  0  0  0  2  0  0  0  0  0  0
  195.7450  173.7930  138.8450 C   0  0  0  0  0  2  0  0  0  0  0  0
  1  8  1  0  0  0  0
  1 10  2  0  0  0  0
  2 13  1  0  0  0  0
  2  6  1  0  0  0  0
  3 16  2  0  0  0  0
  3  8  1  0  0  0  0
  4  9  1  0  0  0  0
  5 12  1  0  0  0  0
  7 13  2  0  0  0  0
  8  2  2  0  0  0  0
  9 25  1  0  0  0  0
  9 16  1  0  0  0  0
 11  3  1  0  0  0  0
 12  1  1  0  0  0  0
 14 15  1  0  0  0  0
 14  4  1  0  0  0  0
 15 20  1  1  0  0  0
 15 11  1  0  0  0  0
 16  7  1  0  0  0  0
 17 11  1  0  0  0  0
 17 12  2  0  0  0  0
 18 24  1  0  0  0  0
 19 18  2  0  0  0  0
 20 22  2  0  0  0  0
 21 19  1  0  0  0  0
 22 18  1  0  0  0  0
 23 21  2  0  0  0  0
 23 20  1  0  0  0  0
 26 25  1  0  0  0  0
 27 29  1  0  0  0  0
 27 26  1  0  0  0  0
 29 30  1  0  0  0  0
 30 28  1  6  0  0  0
 30 34  1  0  0  0  0
 31 34  1  0  0  0  0
 32 31  1  0  0  0  0
 33 32  1  0  0  0  0
 33 29  1  0  0  0  0
M  END
>  <MODEL>
5

>  <REMARK>
 VINA RESULT:      -6.5      3.447      4.372
  Name = 
  5 active torsions:
  status: ('A' for Active; 'I' for Inactive)
    1  A    between atoms: C_3  and  N_13
    2  A    between atoms: C_3  and  C_17
    3  A    between atoms: C_12  and  C_28
    4  A    between atoms: C_17  and  C_29
    5  A    between atoms: N_18  and  C_29
                            x       y       z     vdW  Elec       q    Type
                         _______ _______ _______ _____ _____    ______ ____

>  <TORSDO>
F 5

$$$$
=
 OpenBabel10262423453D

 34 38  0  0  1  0  0  0  0  0999 V2000
  186.8910  178.3940  139.4280 C   0  0  0  0  0  0  0  0  0  0  0  0
  189.0180  177.5560  140.3580 C   0  0  0  0  0  0  0  0  0  0  0  0
  188.4380  177.1440  138.0030 C   0  0  0  0  0  0  0  0  0  0  0  0
  189.9970  177.1050  135.4190 C   0  0  0  0  0  2  0  0  0  0  0  0
  184.8300  179.1370  138.4780 F   0  0  0  0  0  0  0  0  0  0  0  0
  188.7300  178.0460  141.6270 O   0  0  0  0  0  1  0  0  0  0  0  0
  190.5790  176.4140  138.9230 C   0  0  0  0  0  3  0  0  0  0  0  0
  188.1160  177.7080  139.2790 C   0  0  0  0  0  0  0  0  0  0  0  0
  190.2240  176.1900  136.5250 N   0  0  0  0  0  0  0  0  0  0  0  0
  186.5730  178.9430  140.5180 O   0  0  0  0  0  0  0  0  0  0  0  0
  187.4890  177.1760  136.9960 N   0  0  0  0  0  0  0  0  0  0  0  0
  186.0090  178.4790  138.3550 C   0  0  0  0  0  0  0  0  0  0  0  0
  190.2280  176.8980  140.1730 C   0  0  0  0  0  3  0  0  0  0  0  0
  188.6410  176.8640  134.7760 C   0  0  0  0  0  2  0  0  0  0  0  0
  187.5580  176.3930  135.7530 C   0  0  1  0  0  3  0  0  0  0  0  0
  189.7210  176.5430  137.8260 C   0  0  0  0  0  0  0  0  0  0  0  0
  186.3150  177.8390  137.1630 C   0  0  0  0  0  3  0  0  0  0  0  0
  186.6020  172.9460  137.1090 C   0  0  0  0  0  0  0  0  0  0  0  0
  187.2960  172.1070  136.2350 C   0  0  0  0  0  3  0  0  0  0  0  0
  187.4910  174.8960  135.9580 C   0  0  0  0  0  0  0  0  0  0  0  0
  188.0760  172.6550  135.2130 C   0  0  0  0  0  3  0  0  0  0  0  0
  186.6910  174.3330  136.9660 C   0  0  0  0  0  3  0  0  0  0  0  0
  188.1650  174.0420  135.0700 C   0  0  0  0  0  3  0  0  0  0  0  0
  185.8360  172.4160  138.0930 F   0  0  0  0  0  0  0  0  0  0  0  0
  191.2730  175.1910  136.3720 C   0  0  0  0  0  2  0  0  0  0  0  0
  192.4690  175.7990  135.6630 C   0  0  0  0  0  2  0  0  0  0  0  0
  193.5760  176.1090  136.6570 C   0  0  0  0  0  2  0  0  0  0  0  0
  196.3480  175.7940  136.2650 O   0  0  0  0  0  1  0  0  0  0  0  0
  194.2880  174.8880  137.0170 N   0  0  0  0  0  0  0  0  0  0  0  0
  195.4580  174.7200  136.1370 C   0  0  2  0  0  3  0  0  0  0  0  0
  195.7810  172.7960  137.7760 C   0  0  0  0  0  2  0  0  0  0  0  0
  195.6560  173.8780  138.8470 C   0  0  0  0  0  2  0  0  0  0  0  0
  194.7060  175.0090  138.4180 C   0  0  0  0  0  2  0  0  0  0  0  0
  196.1900  173.4060  136.4330 C   0  0  0  0  0  2  0  0  0  0  0  0
  1 10  2  0  0  0  0
  2  6  1  0  0  0  0
  3  8  1  0  0  0  0
  4  9  1  0  0  0  0
  7 13  2  0  0  0  0
  8  1  1  0  0  0  0
  8  2  2  0  0  0  0
  9 16  1  0  0  0  0
 11 17  1  0  0  0  0
 11  3  1  0  0  0  0
 12  5  1  0  0  0  0
 12  1  1  0  0  0  0
 13  2  1  0  0  0  0
 14  4  1  0  0  0  0
 14 15  1  0  0  0  0
 15 20  1  1  0  0  0
 15 11  1  0  0  0  0
 16  3  2  0  0  0  0
 16  7  1  0  0  0  0
 17 12  2  0  0  0  0
 18 24  1  0  0  0  0
 19 18  2  0  0  0  0
 20 22  2  0  0  0  0
 21 19  1  0  0  0  0
 22 18  1  0  0  0  0
 23 21  2  0  0  0  0
 23 20  1  0  0  0  0
 25  9  1  0  0  0  0
 26 25  1  0  0  0  0
 26 27  1  0  0  0  0
 27 29  1  0  0  0  0
 29 33  1  0  0  0  0
 30 28  1  1  0  0  0
 30 34  1  0  0  0  0
 30 29  1  0  0  0  0
 31 32  1  0  0  0  0
 33 32  1  0  0  0  0
 34 31  1  0  0  0  0
M  END
>  <MODEL>
6

>  <REMARK>
 VINA RESULT:      -6.5      3.650      4.781
  Name = 
  5 active torsions:
  status: ('A' for Active; 'I' for Inactive)
    1  A    between atoms: C_3  and  N_13
    2  A    between atoms: C_3  and  C_17
    3  A    between atoms: C_12  and  C_28
    4  A    between atoms: C_17  and  C_29
    5  A    between atoms: N_18  and  C_29
                            x       y       z     vdW  Elec       q    Type
                         _______ _______ _______ _____ _____    ______ ____

>  <TORSDO>
F 5

$$$$
=
 OpenBabel10262423453D

 34 38  0  0  1  0  0  0  0  0999 V2000
  182.5560  178.7880  143.7270 C   0  0  0  0  0  0  0  0  0  0  0  0
  184.9430  178.5440  143.1460 C   0  0  0  0  0  0  0  0  0  0  0  0
  183.2660  178.9340  141.3900 C   0  0  0  0  0  0  0  0  0  0  0  0
  183.2080  180.5560  138.8460 C   0  0  0  0  0  2  0  0  0  0  0  0
  180.2270  178.9870  144.2150 F   0  0  0  0  0  0  0  0  0  0  0  0
  185.3080  178.3220  144.4690 O   0  0  0  0  0  1  0  0  0  0  0  0
  185.6440  178.7890  140.8550 C   0  0  0  0  0  3  0  0  0  0  0  0
  183.5960  178.7570  142.7710 C   0  0  0  0  0  0  0  0  0  0  0  0
  184.1060  179.4390  139.0830 N   0  0  0  0  0  0  0  0  0  0  0  0
  182.7930  178.6750  144.9600 O   0  0  0  0  0  0  0  0  0  0  0  0
  181.9330  179.0010  141.0200 N   0  0  0  0  0  0  0  0  0  0  0  0
  181.2380  178.9510  143.3120 C   0  0  0  0  0  0  0  0  0  0  0  0
  185.9460  178.5450  142.1850 C   0  0  0  0  0  3  0  0  0  0  0  0
  181.7640  180.0910  138.7560 C   0  0  0  0  0  2  0  0  0  0  0  0
  181.4370  178.8850  139.6410 C   0  0  1  0  0  3  0  0  0  0  0  0
  184.3260  179.0070  140.4370 C   0  0  0  0  0  0  0  0  0  0  0  0
  180.9490  179.0250  141.9580 C   0  0  0  0  0  3  0  0  0  0  0  0
  181.9140  176.1290  137.0310 C   0  0  0  0  0  0  0  0  0  0  0  0
  182.2770  175.0480  137.8380 C   0  0  0  0  0  3  0  0  0  0  0  0
  181.6890  177.5370  139.0020 C   0  0  0  0  0  0  0  0  0  0  0  0
  182.3630  175.2100  139.2230 C   0  0  0  0  0  3  0  0  0  0  0  0
  181.6300  177.3680  137.6080 C   0  0  0  0  0  3  0  0  0  0  0  0
  182.0790  176.4500  139.8010 C   0  0  0  0  0  3  0  0  0  0  0  0
  181.8430  175.9770  135.6860 F   0  0  0  0  0  0  0  0  0  0  0  0
  185.0380  179.0820  138.0210 C   0  0  0  0  0  2  0  0  0  0  0  0
  185.2090  177.5750  137.9670 C   0  0  0  0  0  2  0  0  0  0  0  0
  185.5430  177.1270  136.5540 C   0  0  0  0  0  2  0  0  0  0  0  0
  187.8480  178.0280  135.2070 O   0  0  0  0  0  1  0  0  0  0  0  0
  186.7930  176.3760  136.5440 N   0  0  0  0  0  0  0  0  0  0  0  0
  187.5340  176.6660  135.3050 C   0  0  2  0  0  3  0  0  0  0  0  0
  189.2100  175.2190  136.5680 C   0  0  0  0  0  2  0  0  0  0  0  0
  189.0010  176.2200  137.7020 C   0  0  0  0  0  2  0  0  0  0  0  0
  187.5690  176.7820  137.7210 C   0  0  0  0  0  2  0  0  0  0  0  0
  188.8200  175.8340  135.2220 C   0  0  0  0  0  2  0  0  0  0  0  0
  1 10  2  0  0  0  0
  2  6  1  0  0  0  0
  3  8  2  0  0  0  0
  4  9  1  0  0  0  0
  7 13  1  0  0  0  0
  8  2  1  0  0  0  0
  8  1  1  0  0  0  0
  9 16  1  0  0  0  0
 11  3  1  0  0  0  0
 11 17  1  0  0  0  0
 12  1  1  0  0  0  0
 12  5  1  0  0  0  0
 13  2  2  0  0  0  0
 14  4  1  0  0  0  0
 14 15  1  0  0  0  0
 15 20  1  6  0  0  0
 15 11  1  0  0  0  0
 16  7  2  0  0  0  0
 16  3  1  0  0  0  0
 17 12  2  0  0  0  0
 18 22  2  0  0  0  0
 18 19  1  0  0  0  0
 19 21  2  0  0  0  0
 20 23  2  0  0  0  0
 21 23  1  0  0  0  0
 22 20  1  0  0  0  0
 24 18  1  0  0  0  0
 25  9  1  0  0  0  0
 26 25  1  0  0  0  0
 27 26  1  0  0  0  0
 29 27  1  0  0  0  0
 29 33  1  0  0  0  0
 30 28  1  1  0  0  0
 30 29  1  0  0  0  0
 31 32  1  0  0  0  0
 32 33  1  0  0  0  0
 34 30  1  0  0  0  0
 34 31  1  0  0  0  0
M  END
>  <MODEL>
7

>  <REMARK>
 VINA RESULT:      -6.0      3.204      5.814
  Name = 
  5 active torsions:
  status: ('A' for Active; 'I' for Inactive)
    1  A    between atoms: C_3  and  N_13
    2  A    between atoms: C_3  and  C_17
    3  A    between atoms: C_12  and  C_28
    4  A    between atoms: C_17  and  C_29
    5  A    between atoms: N_18  and  C_29
                            x       y       z     vdW  Elec       q    Type
                         _______ _______ _______ _____ _____    ______ ____

>  <TORSDO>
F 5

$$$$
=
 OpenBabel10262423453D

 34 38  0  0  1  0  0  0  0  0999 V2000
  182.6640  178.8300  143.7490 C   0  0  0  0  0  0  0  0  0  0  0  0
  185.0390  178.4670  143.1840 C   0  0  0  0  0  0  0  0  0  0  0  0
  183.3840  178.8840  141.4120 C   0  0  0  0  0  0  0  0  0  0  0  0
  183.4030  180.4400  138.8260 C   0  0  0  0  0  2  0  0  0  0  0  0
  180.3450  179.1420  144.2250 F   0  0  0  0  0  0  0  0  0  0  0  0
  185.3910  178.2640  144.5130 O   0  0  0  0  0  1  0  0  0  0  0  0
  185.7550  178.6220  140.8890 C   0  0  0  0  0  3  0  0  0  0  0  0
  183.7030  178.7290  142.7980 C   0  0  0  0  0  0  0  0  0  0  0  0
  184.2510  179.2920  139.0950 N   0  0  0  0  0  0  0  0  0  0  0  0
  182.8930  178.7390  144.9860 O   0  0  0  0  0  0  0  0  0  0  0  0
  182.0570  178.9980  141.0370 N   0  0  0  0  0  0  0  0  0  0  0  0
  181.3550  179.0390  143.3260 C   0  0  0  0  0  0  0  0  0  0  0  0
  186.0440  178.4000  142.2260 C   0  0  0  0  0  3  0  0  0  0  0  0
  181.9400  180.0360  138.7430 C   0  0  0  0  0  2  0  0  0  0  0  0
  181.5590  178.8680  139.6590 C   0  0  1  0  0  3  0  0  0  0  0  0
  184.4490  178.8860  140.4620 C   0  0  0  0  0  0  0  0  0  0  0  0
  181.0730  179.0900  141.9700 C   0  0  0  0  0  3  0  0  0  0  0  0
  181.9430  176.0300  137.1230 C   0  0  0  0  0  0  0  0  0  0  0  0
  182.2350  174.9520  137.9610 C   0  0  0  0  0  3  0  0  0  0  0  0
  181.7540  177.4940  139.0560 C   0  0  0  0  0  0  0  0  0  0  0  0
  182.3020  175.1420  139.3440 C   0  0  0  0  0  3  0  0  0  0  0  0
  181.7130  177.2960  137.6660 C   0  0  0  0  0  3  0  0  0  0  0  0
  182.0710  176.4090  139.8880 C   0  0  0  0  0  3  0  0  0  0  0  0
  181.8910  175.8500  135.7810 F   0  0  0  0  0  0  0  0  0  0  0  0
  185.1690  178.8670  138.0460 C   0  0  0  0  0  2  0  0  0  0  0  0
  185.2510  177.3520  138.0130 C   0  0  0  0  0  2  0  0  0  0  0  0
  186.0040  176.8870  136.7780 C   0  0  0  0  0  2  0  0  0  0  0  0
  185.8540  175.4710  134.3460 O   0  0  0  0  0  1  0  0  0  0  0  0
  186.0190  175.4300  136.7130 N   0  0  0  0  0  0  0  0  0  0  0  0
  185.2750  174.9800  135.5240 C   0  0  2  0  0  3  0  0  0  0  0  0
  186.2100  172.7760  136.3970 C   0  0  0  0  0  2  0  0  0  0  0  0
  187.5570  173.4940  136.3500 C   0  0  0  0  0  2  0  0  0  0  0  0
  187.4200  174.9980  136.6430 C   0  0  0  0  0  2  0  0  0  0  0  0
  185.2020  173.4500  135.4620 C   0  0  0  0  0  2  0  0  0  0  0  0
  1 10  2  0  0  0  0
  2  6  1  0  0  0  0
  3  8  2  0  0  0  0
  4  9  1  0  0  0  0
  7 13  1  0  0  0  0
  8  2  1  0  0  0  0
  8  1  1  0  0  0  0
  9 16  1  0  0  0  0
 11  3  1  0  0  0  0
 11 17  1  0  0  0  0
 12  1  1  0  0  0  0
 12  5  1  0  0  0  0
 13  2  2  0  0  0  0
 14  4  1  0  0  0  0
 14 15  1  0  0  0  0
 15 20  1  6  0  0  0
 15 11  1  0  0  0  0
 16  7  2  0  0  0  0
 16  3  1  0  0  0  0
 17 12  2  0  0  0  0
 18 22  2  0  0  0  0
 18 19  1  0  0  0  0
 19 21  2  0  0  0  0
 20 23  2  0  0  0  0
 21 23  1  0  0  0  0
 22 20  1  0  0  0  0
 24 18  1  0  0  0  0
 25  9  1  0  0  0  0
 26 25  1  0  0  0  0
 27 26  1  0  0  0  0
 29 27  1  0  0  0  0
 30 28  1  6  0  0  0
 30 29  1  0  0  0  0
 32 31  1  0  0  0  0
 32 33  1  0  0  0  0
 33 29  1  0  0  0  0
 34 30  1  0  0  0  0
 34 31  1  0  0  0  0
M  END
>  <MODEL>
8

>  <REMARK>
 VINA RESULT:      -5.9      3.372      6.177
  Name = 
  5 active torsions:
  status: ('A' for Active; 'I' for Inactive)
    1  A    between atoms: C_3  and  N_13
    2  A    between atoms: C_3  and  C_17
    3  A    between atoms: C_12  and  C_28
    4  A    between atoms: C_17  and  C_29
    5  A    between atoms: N_18  and  C_29
                            x       y       z     vdW  Elec       q    Type
                         _______ _______ _______ _____ _____    ______ ____

>  <TORSDO>
F 5

$$$$
=
 OpenBabel10262423453D

 34 38  0  0  1  0  0  0  0  0999 V2000
  184.7400  178.4280  139.4610 C   0  0  0  0  0  0  0  0  0  0  0  0
  187.2040  178.4340  139.6100 C   0  0  0  0  0  0  0  0  0  0  0  0
  186.0820  177.7960  137.5160 C   0  0  0  0  0  0  0  0  0  0  0  0
  186.6400  178.2750  134.5890 C   0  0  0  0  0  2  0  0  0  0  0  0
  182.3610  178.3560  139.2650 F   0  0  0  0  0  0  0  0  0  0  0  0
  187.1860  178.8100  140.9480 O   0  0  0  0  0  1  0  0  0  0  0  0
  188.5170  177.9080  137.6600 C   0  0  0  0  0  3  0  0  0  0  0  0
  186.0110  178.2290  138.8780 C   0  0  0  0  0  0  0  0  0  0  0  0
  187.5130  177.5250  135.4760 N   0  0  0  0  0  0  0  0  0  0  0  0
  184.6180  178.8440  140.6450 O   0  0  0  0  0  0  0  0  0  0  0  0
  184.9130  177.4630  136.8540 N   0  0  0  0  0  0  0  0  0  0  0  0
  183.5900  178.1670  138.7230 C   0  0  0  0  0  0  0  0  0  0  0  0
  188.4400  178.2550  138.9990 C   0  0  0  0  0  3  0  0  0  0  0  0
  185.3240  177.5470  134.3700 C   0  0  0  0  0  2  0  0  0  0  0  0
  184.8480  176.7350  135.5790 C   0  0  1  0  0  3  0  0  0  0  0  0
  187.3640  177.6970  136.8960 C   0  0  0  0  0  0  0  0  0  0  0  0
  183.7010  177.6600  137.4370 C   0  0  0  0  0  3  0  0  0  0  0  0
  185.9150  173.3080  136.9020 C   0  0  0  0  0  0  0  0  0  0  0  0
  186.2500  172.6500  135.7160 C   0  0  0  0  0  3  0  0  0  0  0  0
  185.3760  175.3190  135.6440 C   0  0  0  0  0  0  0  0  0  0  0  0
  186.1350  173.3150  134.4930 C   0  0  0  0  0  3  0  0  0  0  0  0
  185.4720  174.6320  136.8650 C   0  0  0  0  0  3  0  0  0  0  0  0
  185.6920  174.6400  134.4560 C   0  0  0  0  0  3  0  0  0  0  0  0
  186.0130  172.6600  138.0880 F   0  0  0  0  0  0  0  0  0  0  0  0
  188.7370  176.9710  134.9110 C   0  0  0  0  0  2  0  0  0  0  0  0
  189.0370  175.6260  135.5480 C   0  0  0  0  0  2  0  0  0  0  0  0
  190.4300  175.1550  135.1650 C   0  0  0  0  0  2  0  0  0  0  0  0
  190.9180  173.9810  137.6800 O   0  0  0  0  0  1  0  0  0  0  0  0
  191.4170  175.6810  136.1010 N   0  0  0  0  0  0  0  0  0  0  0  0
  191.0070  175.3650  137.4810 C   0  0  2  0  0  3  0  0  0  0  0  0
  193.3030  176.4040  137.8620 C   0  0  0  0  0  2  0  0  0  0  0  0
  193.7810  175.3690  136.8460 C   0  0  0  0  0  2  0  0  0  0  0  0
  192.7090  175.0600  135.7880 C   0  0  0  0  0  2  0  0  0  0  0  0
  191.9810  175.9700  138.4990 C   0  0  0  0  0  2  0  0  0  0  0  0
  1 10  2  0  0  0  0
  2  6  1  0  0  0  0
  3  8  1  0  0  0  0
  4  9  1  0  0  0  0
  7 13  2  0  0  0  0
  8  1  1  0  0  0  0
  8  2  2  0  0  0  0
  9 16  1  0  0  0  0
 11 17  1  0  0  0  0
 11  3  1  0  0  0  0
 12  5  1  0  0  0  0
 12  1  1  0  0  0  0
 13  2  1  0  0  0  0
 14  4  1  0  0  0  0
 14 15  1  0  0  0  0
 15 20  1  1  0  0  0
 15 11  1  0  0  0  0
 16  3  2  0  0  0  0
 16  7  1  0  0  0  0
 17 12  2  0  0  0  0
 18 24  1  0  0  0  0
 19 18  2  0  0  0  0
 20 22  2  0  0  0  0
 21 19  1  0  0  0  0
 22 18  1  0  0  0  0
 23 21  2  0  0  0  0
 23 20  1  0  0  0  0
 25  9  1  0  0  0  0
 25 26  1  0  0  0  0
 27 26  1  0  0  0  0
 27 29  1  0  0  0  0
 29 30  1  0  0  0  0
 30 28  1  6  0  0  0
 30 34  1  0  0  0  0
 31 34  1  0  0  0  0
 32 31  1  0  0  0  0
 33 29  1  0  0  0  0
 33 32  1  0  0  0  0
M  END
>  <MODEL>
9

>  <REMARK>
 VINA RESULT:      -5.9      2.568      3.628
  Name = 
  5 active torsions:
  status: ('A' for Active; 'I' for Inactive)
    1  A    between atoms: C_3  and  N_13
    2  A    between atoms: C_3  and  C_17
    3  A    between atoms: C_12  and  C_28
    4  A    between atoms: C_17  and  C_29
    5  A    between atoms: N_18  and  C_29
                            x       y       z     vdW  Elec       q    Type
                         _______ _______ _______ _____ _____    ______ ____

>  <TORSDO>
F 5

$$$$
