=
 OpenBabel10272414453D

 37 43  0  0  1  0  0  0  0  0999 V2000
  186.6220  178.1440  138.4950 C   0  0  0  0  0  0  0  0  0  0  0  0
  187.8450  178.0390  142.2290 C   0  0  0  0  0  2  0  0  0  0  0  0
  186.5290  178.0970  136.0340 C   0  0  2  0  0  3  0  0  0  0  0  0
  187.3830  178.4190  139.7440 C   0  0  1  0  0  3  0  0  0  0  0  0
  187.2570  178.1840  137.3440 C   0  0  0  0  0  0  0  0  0  0  0  0
  186.7890  177.9830  141.1470 C   0  0  2  0  0  3  0  0  0  0  0  0
  185.2470  177.2280  136.2020 C   0  0  0  0  0  3  0  0  0  0  0  0
  188.8670  178.7560  137.5640 S   0  0  0  0  0  0  0  0  0  0  0  0
  188.9430  180.2370  137.3570 O   0  0  0  0  0  0  0  0  0  0  0  0
  184.3050  178.2100  139.4100 C   0  0  0  0  0  3  0  0  0  0  0  0
  184.6750  177.0820  137.4170 C   0  0  0  0  0  3  0  0  0  0  0  0
  189.8900  178.0620  136.7320 O   0  0  0  0  0  0  0  0  0  0  0  0
  188.6340  176.7650  142.0710 C   0  0  0  0  0  2  0  0  0  0  0  0
  185.1910  177.7840  138.5640 C   0  0  0  0  0  0  0  0  0  0  0  0
  188.8900  178.3850  139.3230 C   0  0  2  0  0  3  0  0  0  0  0  0
  185.6740  178.9510  141.4800 C   0  0  1  0  0  3  0  0  0  0  0  0
  189.8070  177.2420  141.0920 C   0  0  2  0  0  3  0  0  0  0  0  0
  189.5730  177.0720  139.7030 N   0  0  0  0  0  0  0  0  0  0  0  0
  184.5770  179.0160  140.5740 O   0  0  0  0  0  0  0  0  0  0  0  0
  185.9530  178.8460  144.0720 C   0  0  0  0  0  3  0  0  0  0  0  0
  185.1530  178.8720  142.9080 C   0  0  0  0  0  0  0  0  0  0  0  0
  183.7920  178.8210  143.0000 C   0  0  0  0  0  3  0  0  0  0  0  0
  181.8100  178.7810  144.4160 F   0  0  0  0  0  0  0  0  0  0  0  0
  183.9040  178.8600  145.4340 C   0  0  0  0  0  3  0  0  0  0  0  0
  183.1560  178.7860  144.2450 C   0  0  0  0  0  0  0  0  0  0  0  0
  185.3040  178.8620  145.3270 C   0  0  0  0  0  3  0  0  0  0  0  0
  191.5460  177.9350  142.8430 C   0  0  0  0  0  2  0  0  0  0  0  0
  191.1900  177.0310  141.7030 C   0  0  1  0  0  3  0  0  0  0  0  0
  191.1220  176.6170  143.0090 O   0  0  0  0  0  0  0  0  0  0  0  0
  190.8290  177.0480  139.1030 O   0  0  0  0  0  0  0  0  0  0  0  0
  191.0000  175.9680  138.2320 C   0  0  1  0  0  3  0  0  0  0  0  0
  191.9430  174.0340  137.1600 C   0  0  0  0  0  1  0  0  0  0  0  0
  192.2190  176.2470  137.2950 C   0  0  0  0  0  2  0  0  0  0  0  0
  192.1930  175.0600  138.2000 C   0  0  1  0  0  3  0  0  0  0  0  0
  187.3710  177.6070  134.8580 C   0  0  0  0  0  2  0  0  0  0  0  0
  187.7650  176.2050  134.9630 C   0  0  0  0  0  0  0  0  0  0  0  0
  188.1080  175.0660  135.0850 C   0  0  0  0  0  3  0  0  0  0  0  0
  1 14  1  0  0  0  0
  3 35  1  6  0  0  0
  3  7  1  0  0  0  0
  3  5  1  0  0  0  0
  4  1  1  6  0  0  0
  4  6  1  0  0  0  0
  5  8  1  0  0  0  0
  5  1  2  0  0  0  0
  6 16  1  0  0  0  0
  6  2  1  1  0  0  0
  7 11  2  0  0  0  0
  8 15  1  0  0  0  0
  9  8  2  0  0  0  0
 10 19  1  0  0  0  0
 11 14  1  0  0  0  0
 12  8  2  0  0  0  0
 13  2  1  0  0  0  0
 14 10  2  0  0  0  0
 15 18  1  6  0  0  0
 15  4  1  0  0  0  0
 16 21  1  1  0  0  0
 17 28  1  0  0  0  0
 17 13  1  1  0  0  0
 18 17  1  0  0  0  0
 19 16  1  0  0  0  0
 20 26  1  0  0  0  0
 21 22  1  0  0  0  0
 21 20  2  0  0  0  0
 22 25  2  0  0  0  0
 25 23  1  0  0  0  0
 25 24  1  0  0  0  0
 26 24  2  0  0  0  0
 27 29  1  0  0  0  0
 28 27  1  1  0  0  0
 28 29  1  0  0  0  0
 30 18  1  0  0  0  0
 31 30  1  1  0  0  0
 33 34  1  0  0  0  0
 33 31  1  0  0  0  0
 34 32  1  6  0  0  0
 34 31  1  0  0  0  0
 35 36  1  0  0  0  0
 36 37  3  0  0  0  0
M  END
>  <MODEL>
1

>  <REMARK>
 VINA RESULT:      -8.3      0.000      0.000
  Name = 
  6 active torsions:
  status: ('A' for Active; 'I' for Inactive)
    1  A    between atoms: O_1  and  C_5
    2  A    between atoms: O_1  and  N_36
    3  A    between atoms: C_3  and  C_30
    4  A    between atoms: C_6  and  C_31
    5  A    between atoms: C_9  and  C_30
    6  A    between atoms: C_26  and  C_33
                            x       y       z     vdW  Elec       q    Type
                         _______ _______ _______ _____ _____    ______ ____

>  <TORSDO>
F 6

$$$$
=
 OpenBabel10272414453D

 37 43  0  0  1  0  0  0  0  0999 V2000
  189.6380  177.2920  139.3540 C   0  0  0  0  0  0  0  0  0  0  0  0
  191.0830  174.9370  136.5590 C   0  0  0  0  0  2  0  0  0  0  0  0
  188.1340  178.6090  140.7940 C   0  0  2  0  0  3  0  0  0  0  0  0
  189.9390  176.6880  138.0280 C   0  0  1  0  0  3  0  0  0  0  0  0
  188.4520  177.8240  139.5540 C   0  0  0  0  0  0  0  0  0  0  0  0
  191.1580  175.6880  137.8700 C   0  0  2  0  0  3  0  0  0  0  0  0
  188.9690  178.0620  141.9900 C   0  0  0  0  0  3  0  0  0  0  0  0
  187.5510  177.8540  138.0870 S   0  0  0  0  0  0  0  0  0  0  0  0
  187.7250  179.1600  137.3750 O   0  0  0  0  0  0  0  0  0  0  0  0
  191.9350  177.3070  140.3220 C   0  0  0  0  0  3  0  0  0  0  0  0
  190.1230  177.3960  141.7690 C   0  0  0  0  0  3  0  0  0  0  0  0
  186.1020  177.5370  138.2430 O   0  0  0  0  0  0  0  0  0  0  0  0
  190.0930  173.8270  136.8000 C   0  0  0  0  0  2  0  0  0  0  0  0
  190.6440  177.2440  140.4350 C   0  0  0  0  0  0  0  0  0  0  0  0
  188.5580  176.5910  137.2980 C   0  0  2  0  0  3  0  0  0  0  0  0
  192.4240  176.5170  137.9050 C   0  0  1  0  0  3  0  0  0  0  0  0
  188.7280  174.5160  136.3270 C   0  0  2  0  0  3  0  0  0  0  0  0
  187.9770  175.1780  137.3320 N   0  0  0  0  0  0  0  0  0  0  0  0
  192.6690  177.2790  139.0830 O   0  0  0  0  0  0  0  0  0  0  0  0
  194.2980  175.8330  136.2240 C   0  0  0  0  0  3  0  0  0  0  0  0
  193.6930  175.7800  137.4990 C   0  0  0  0  0  0  0  0  0  0  0  0
  194.2350  175.0210  138.4950 C   0  0  0  0  0  3  0  0  0  0  0  0
  196.0480  173.5760  139.2460 F   0  0  0  0  0  0  0  0  0  0  0  0
  196.1190  174.4130  137.0730 C   0  0  0  0  0  3  0  0  0  0  0  0
  195.4240  174.3130  138.2920 C   0  0  0  0  0  0  0  0  0  0  0  0
  195.5260  175.1580  136.0410 C   0  0  0  0  0  3  0  0  0  0  0  0
  188.9510  172.8980  134.3520 C   0  0  0  0  0  2  0  0  0  0  0  0
  188.0490  173.7380  135.2020 C   0  0  1  0  0  3  0  0  0  0  0  0
  188.1550  172.3810  135.3730 O   0  0  0  0  0  0  0  0  0  0  0  0
  186.6690  175.2360  136.8580 O   0  0  0  0  0  0  0  0  0  0  0  0
  185.8750  174.1780  137.3100 C   0  0  1  0  0  3  0  0  0  0  0  0
  184.2690  172.3900  137.3450 C   0  0  0  0  0  1  0  0  0  0  0  0
  184.3770  174.6220  137.3170 C   0  0  0  0  0  2  0  0  0  0  0  0
  184.8380  173.4630  136.4960 C   0  0  1  0  0  3  0  0  0  0  0  0
  186.6510  178.6810  141.1500 C   0  0  0  0  0  2  0  0  0  0  0  0
  186.3600  178.2920  142.5270 C   0  0  0  0  0  0  0  0  0  0  0  0
  186.0840  177.9910  143.6520 C   0  0  0  0  0  3  0  0  0  0  0  0
  1  5  2  0  0  0  0
  1 14  1  0  0  0  0
  2 13  1  0  0  0  0
  3 35  1  1  0  0  0
  3  7  1  0  0  0  0
  4  1  1  1  0  0  0
  5  3  1  0  0  0  0
  6  2  1  6  0  0  0
  6 16  1  0  0  0  0
  6  4  1  0  0  0  0
  8 12  2  0  0  0  0
  8  5  1  0  0  0  0
  9  8  2  0  0  0  0
 10 14  2  0  0  0  0
 11  7  2  0  0  0  0
 14 11  1  0  0  0  0
 15 18  1  1  0  0  0
 15  4  1  0  0  0  0
 15  8  1  0  0  0  0
 16 21  1  1  0  0  0
 16 19  1  0  0  0  0
 17 13  1  1  0  0  0
 17 18  1  0  0  0  0
 19 10  1  0  0  0  0
 20 21  1  0  0  0  0
 21 22  2  0  0  0  0
 24 25  2  0  0  0  0
 25 22  1  0  0  0  0
 25 23  1  0  0  0  0
 26 20  2  0  0  0  0
 26 24  1  0  0  0  0
 27 29  1  0  0  0  0
 28 27  1  6  0  0  0
 28 29  1  0  0  0  0
 28 17  1  0  0  0  0
 30 18  1  0  0  0  0
 31 30  1  6  0  0  0
 31 33  1  0  0  0  0
 34 31  1  0  0  0  0
 34 33  1  0  0  0  0
 34 32  1  1  0  0  0
 35 36  1  0  0  0  0
 36 37  3  0  0  0  0
M  END
>  <MODEL>
2

>  <REMARK>
 VINA RESULT:      -7.7      3.617      8.326
  Name = 
  6 active torsions:
  status: ('A' for Active; 'I' for Inactive)
    1  A    between atoms: O_1  and  C_5
    2  A    between atoms: O_1  and  N_36
    3  A    between atoms: C_3  and  C_30
    4  A    between atoms: C_6  and  C_31
    5  A    between atoms: C_9  and  C_30
    6  A    between atoms: C_26  and  C_33
                            x       y       z     vdW  Elec       q    Type
                         _______ _______ _______ _____ _____    ______ ____

>  <TORSDO>
F 6

$$$$
=
 OpenBabel10272414453D

 37 43  0  0  1  0  0  0  0  0999 V2000
  186.3940  178.3130  139.9310 C   0  0  0  0  0  0  0  0  0  0  0  0
  186.6020  176.6900  136.3570 C   0  0  0  0  0  2  0  0  0  0  0  0
  185.5830  179.2540  142.0580 C   0  0  2  0  0  3  0  0  0  0  0  0
  186.1770  178.0440  138.4830 C   0  0  1  0  0  3  0  0  0  0  0  0
  185.3950  178.7890  140.6430 C   0  0  0  0  0  0  0  0  0  0  0  0
  187.1780  177.1030  137.6930 C   0  0  2  0  0  3  0  0  0  0  0  0
  186.7180  178.4300  142.7360 C   0  0  0  0  0  3  0  0  0  0  0  0
  184.0610  179.1760  139.6260 S   0  0  0  0  0  0  0  0  0  0  0  0
  184.1020  180.6140  139.2090 O   0  0  0  0  0  0  0  0  0  0  0  0
  188.8730  178.0800  140.0200 C   0  0  0  0  0  3  0  0  0  0  0  0
  187.6670  177.8290  141.9860 C   0  0  0  0  0  3  0  0  0  0  0  0
  182.7270  178.8400  140.2000 O   0  0  0  0  0  0  0  0  0  0  0  0
  185.6550  175.5620  136.6730 C   0  0  0  0  0  2  0  0  0  0  0  0
  187.6950  178.0000  140.5560 C   0  0  0  0  0  0  0  0  0  0  0  0
  184.6290  178.1340  138.2760 C   0  0  2  0  0  3  0  0  0  0  0  0
  188.4520  177.8910  137.4710 C   0  0  1  0  0  3  0  0  0  0  0  0
  184.2780  176.3520  136.8690 C   0  0  2  0  0  3  0  0  0  0  0  0
  183.9700  176.7580  138.1930 N   0  0  0  0  0  0  0  0  0  0  0  0
  189.1450  178.3460  138.6300 O   0  0  0  0  0  0  0  0  0  0  0  0
  189.4690  177.4920  135.1030 C   0  0  0  0  0  3  0  0  0  0  0  0
  189.4400  177.2660  136.4970 C   0  0  0  0  0  0  0  0  0  0  0  0
  190.3400  176.4250  137.0840 C   0  0  0  0  0  3  0  0  0  0  0  0
  192.2960  174.9920  136.8490 F   0  0  0  0  0  0  0  0  0  0  0  0
  191.4740  176.0720  134.9560 C   0  0  0  0  0  3  0  0  0  0  0  0
  191.3390  175.8020  136.3290 C   0  0  0  0  0  0  0  0  0  0  0  0
  190.5120  176.9010  134.3540 C   0  0  0  0  0  3  0  0  0  0  0  0
  182.9230  176.7620  134.7310 C   0  0  0  0  0  2  0  0  0  0  0  0
  183.1950  175.8730  135.9050 C   0  0  1  0  0  3  0  0  0  0  0  0
  183.6940  175.6030  134.6560 O   0  0  0  0  0  0  0  0  0  0  0  0
  182.5890  176.9360  138.2280 O   0  0  0  0  0  0  0  0  0  0  0  0
  181.9280  175.9560  138.9740 C   0  0  1  0  0  3  0  0  0  0  0  0
  180.3360  174.2780  139.6260 C   0  0  0  0  0  1  0  0  0  0  0  0
  180.5260  176.4930  139.4060 C   0  0  0  0  0  2  0  0  0  0  0  0
  180.6610  175.2650  138.5690 C   0  0  1  0  0  3  0  0  0  0  0  0
  184.3180  179.2480  142.9130 C   0  0  0  0  0  2  0  0  0  0  0  0
  184.5680  178.9750  144.3260 C   0  0  0  0  0  0  0  0  0  0  0  0
  184.7490  178.7850  145.4930 C   0  0  0  0  0  3  0  0  0  0  0  0
  1 14  1  0  0  0  0
  1  5  2  0  0  0  0
  2 13  1  0  0  0  0
  3  7  1  0  0  0  0
  3 35  1  1  0  0  0
  4  1  1  1  0  0  0
  5  3  1  0  0  0  0
  6  2  1  6  0  0  0
  6  4  1  0  0  0  0
  8 12  2  0  0  0  0
  8  5  1  0  0  0  0
  9  8  2  0  0  0  0
 10 14  2  0  0  0  0
 11  7  2  0  0  0  0
 14 11  1  0  0  0  0
 15 18  1  1  0  0  0
 15  4  1  0  0  0  0
 15  8  1  0  0  0  0
 16 21  1  1  0  0  0
 16  6  1  0  0  0  0
 16 19  1  0  0  0  0
 17 13  1  1  0  0  0
 17 18  1  0  0  0  0
 18 30  1  0  0  0  0
 19 10  1  0  0  0  0
 20 21  1  0  0  0  0
 21 22  2  0  0  0  0
 24 25  2  0  0  0  0
 25 23  1  0  0  0  0
 25 22  1  0  0  0  0
 26 24  1  0  0  0  0
 26 20  2  0  0  0  0
 28 27  1  6  0  0  0
 28 17  1  0  0  0  0
 29 27  1  0  0  0  0
 29 28  1  0  0  0  0
 31 30  1  6  0  0  0
 31 33  1  0  0  0  0
 34 31  1  0  0  0  0
 34 33  1  0  0  0  0
 34 32  1  1  0  0  0
 35 36  1  0  0  0  0
 36 37  3  0  0  0  0
M  END
>  <MODEL>
3

>  <REMARK>
 VINA RESULT:      -7.6      3.516      8.484
  Name = 
  6 active torsions:
  status: ('A' for Active; 'I' for Inactive)
    1  A    between atoms: O_1  and  C_5
    2  A    between atoms: O_1  and  N_36
    3  A    between atoms: C_3  and  C_30
    4  A    between atoms: C_6  and  C_31
    5  A    between atoms: C_9  and  C_30
    6  A    between atoms: C_26  and  C_33
                            x       y       z     vdW  Elec       q    Type
                         _______ _______ _______ _____ _____    ______ ____

>  <TORSDO>
F 6

$$$$
=
 OpenBabel10272414453D

 37 43  0  0  1  0  0  0  0  0999 V2000
  190.5880  176.9090  140.1630 C   0  0  0  0  0  0  0  0  0  0  0  0
  187.1350  177.8460  141.7890 C   0  0  0  0  0  2  0  0  0  0  0  0
  192.3950  176.4270  138.5590 C   0  0  2  0  0  3  0  0  0  0  0  0
  189.1370  176.9300  140.4900 C   0  0  1  0  0  3  0  0  0  0  0  0
  190.9560  176.6430  138.9270 C   0  0  0  0  0  0  0  0  0  0  0  0
  188.6330  177.6380  141.8150 C   0  0  2  0  0  3  0  0  0  0  0  0
  193.3100  177.2740  139.4920 C   0  0  0  0  0  3  0  0  0  0  0  0
  189.5940  176.1780  137.9820 S   0  0  0  0  0  0  0  0  0  0  0  0
  189.4280  174.6900  137.9730 O   0  0  0  0  0  0  0  0  0  0  0  0
  191.5260  176.9720  142.4710 C   0  0  0  0  0  3  0  0  0  0  0  0
  192.8720  177.6590  140.7110 C   0  0  0  0  0  3  0  0  0  0  0  0
  189.5980  176.7080  136.5880 O   0  0  0  0  0  0  0  0  0  0  0  0
  186.9270  179.0790  140.9480 C   0  0  0  0  0  2  0  0  0  0  0  0
  191.5870  177.2330  141.2010 C   0  0  0  0  0  0  0  0  0  0  0  0
  188.4040  176.9170  139.1080 C   0  0  2  0  0  3  0  0  0  0  0  0
  188.9960  176.7320  142.9720 C   0  0  1  0  0  3  0  0  0  0  0  0
  186.7270  178.4380  139.4950 C   0  0  2  0  0  3  0  0  0  0  0  0
  187.8950  178.3010  138.7040 N   0  0  0  0  0  0  0  0  0  0  0  0
  190.3780  176.4420  143.1620 O   0  0  0  0  0  0  0  0  0  0  0  0
  186.9760  177.2230  144.5480 C   0  0  0  0  0  3  0  0  0  0  0  0
  188.3620  177.0990  144.3070 C   0  0  0  0  0  0  0  0  0  0  0  0
  189.2640  177.3160  145.3080 C   0  0  0  0  0  3  0  0  0  0  0  0
  189.6720  177.8060  147.6590 F   0  0  0  0  0  0  0  0  0  0  0  0
  187.4680  177.6600  146.9190 C   0  0  0  0  0  3  0  0  0  0  0  0
  188.8390  177.6230  146.6040 C   0  0  0  0  0  0  0  0  0  0  0  0
  186.5510  177.4830  145.8700 C   0  0  0  0  0  3  0  0  0  0  0  0
  184.1750  178.5380  139.7220 C   0  0  0  0  0  2  0  0  0  0  0  0
  185.3820  178.8160  138.8790 C   0  0  1  0  0  3  0  0  0  0  0  0
  184.7450  179.8040  139.5880 O   0  0  0  0  0  0  0  0  0  0  0  0
  187.4590  178.2320  137.3830 O   0  0  0  0  0  0  0  0  0  0  0  0
  186.3720  177.3700  137.2100 C   0  0  1  0  0  3  0  0  0  0  0  0
  185.0380  175.5020  136.4950 C   0  0  0  0  0  1  0  0  0  0  0  0
  185.9230  177.3990  135.7130 C   0  0  0  0  0  2  0  0  0  0  0  0
  186.3730  176.1330  136.3630 C   0  0  1  0  0  3  0  0  0  0  0  0
  192.7300  176.6780  137.0900 C   0  0  0  0  0  2  0  0  0  0  0  0
  193.8660  175.8970  136.6080 C   0  0  0  0  0  0  0  0  0  0  0  0
  194.8220  175.2880  136.2260 C   0  0  0  0  0  3  0  0  0  0  0  0
  1 14  1  0  0  0  0
  3 35  1  6  0  0  0
  3  5  1  0  0  0  0
  3  7  1  0  0  0  0
  4  1  1  6  0  0  0
  4  6  1  0  0  0  0
  5  1  2  0  0  0  0
  6  2  1  6  0  0  0
  6 16  1  0  0  0  0
  7 11  2  0  0  0  0
  8  5  1  0  0  0  0
  8 15  1  0  0  0  0
  9  8  2  0  0  0  0
 10 19  1  0  0  0  0
 11 14  1  0  0  0  0
 12  8  2  0  0  0  0
 13  2  1  0  0  0  0
 14 10  2  0  0  0  0
 15 18  1  6  0  0  0
 15  4  1  0  0  0  0
 16 19  1  0  0  0  0
 16 21  1  1  0  0  0
 17 13  1  1  0  0  0
 18 17  1  0  0  0  0
 20 26  1  0  0  0  0
 21 20  2  0  0  0  0
 21 22  1  0  0  0  0
 22 25  2  0  0  0  0
 25 24  1  0  0  0  0
 25 23  1  0  0  0  0
 26 24  2  0  0  0  0
 28 17  1  0  0  0  0
 28 29  1  0  0  0  0
 28 27  1  1  0  0  0
 29 27  1  0  0  0  0
 30 18  1  0  0  0  0
 31 30  1  6  0  0  0
 33 34  1  0  0  0  0
 33 31  1  0  0  0  0
 34 32  1  1  0  0  0
 34 31  1  0  0  0  0
 36 35  1  0  0  0  0
 37 36  3  0  0  0  0
M  END
>  <MODEL>
4

>  <REMARK>
 VINA RESULT:      -7.4      2.321      5.573
  Name = 
  6 active torsions:
  status: ('A' for Active; 'I' for Inactive)
    1  A    between atoms: O_1  and  C_5
    2  A    between atoms: O_1  and  N_36
    3  A    between atoms: C_3  and  C_30
    4  A    between atoms: C_6  and  C_31
    5  A    between atoms: C_9  and  C_30
    6  A    between atoms: C_26  and  C_33
                            x       y       z     vdW  Elec       q    Type
                         _______ _______ _______ _____ _____    ______ ____

>  <TORSDO>
F 6

$$$$
=
 OpenBabel10272414453D

 37 43  0  0  1  0  0  0  0  0999 V2000
  190.7380  176.9090  140.2360 C   0  0  0  0  0  0  0  0  0  0  0  0
  187.3220  177.8460  141.9390 C   0  0  0  0  0  2  0  0  0  0  0  0
  192.5070  176.4220  138.5920 C   0  0  2  0  0  3  0  0  0  0  0  0
  189.2950  176.9270  140.5980 C   0  0  1  0  0  3  0  0  0  0  0  0
  191.0770  176.6360  138.9940 C   0  0  0  0  0  0  0  0  0  0  0  0
  188.8210  177.6430  141.9300 C   0  0  2  0  0  3  0  0  0  0  0  0
  193.4410  177.2780  139.4970 C   0  0  0  0  0  3  0  0  0  0  0  0
  189.6940  176.1610  138.0840 S   0  0  0  0  0  0  0  0  0  0  0  0
  189.5330  174.6720  138.0890 O   0  0  0  0  0  0  0  0  0  0  0  0
  191.7310  176.9900  142.5200 C   0  0  0  0  0  3  0  0  0  0  0  0
  193.0320  177.6700  140.7240 C   0  0  0  0  0  3  0  0  0  0  0  0
  189.6620  176.6820  136.6880 O   0  0  0  0  0  0  0  0  0  0  0  0
  187.0900  179.0720  141.0960 C   0  0  0  0  0  2  0  0  0  0  0  0
  191.7600  177.2430  141.2480 C   0  0  0  0  0  0  0  0  0  0  0  0
  188.5290  176.9040  139.2340 C   0  0  2  0  0  3  0  0  0  0  0  0
  189.2150  176.7460  143.0840 C   0  0  1  0  0  3  0  0  0  0  0  0
  186.8560  178.4220  139.6520 C   0  0  2  0  0  3  0  0  0  0  0  0
  188.0060  178.2830  138.8330 N   0  0  0  0  0  0  0  0  0  0  0  0
  190.6020  176.4620  143.2430 O   0  0  0  0  0  0  0  0  0  0  0  0
  189.3350  177.2890  145.6330 C   0  0  0  0  0  3  0  0  0  0  0  0
  188.6120  177.1190  144.4310 C   0  0  0  0  0  0  0  0  0  0  0  0
  187.2570  177.2830  144.4050 C   0  0  0  0  0  3  0  0  0  0  0  0
  185.2210  177.8930  145.5960 F   0  0  0  0  0  0  0  0  0  0  0  0
  187.2430  177.9460  146.7510 C   0  0  0  0  0  3  0  0  0  0  0  0
  186.5580  177.6650  145.5550 C   0  0  0  0  0  0  0  0  0  0  0  0
  188.6310  177.7260  146.7770 C   0  0  0  0  0  3  0  0  0  0  0  0
  184.3080  178.4780  139.9240 C   0  0  0  0  0  2  0  0  0  0  0  0
  185.4960  178.7910  139.0660 C   0  0  1  0  0  3  0  0  0  0  0  0
  184.8570  179.7550  139.8050 O   0  0  0  0  0  0  0  0  0  0  0  0
  187.5380  178.2040  137.5250 O   0  0  0  0  0  0  0  0  0  0  0  0
  186.4890  177.2930  137.3720 C   0  0  1  0  0  3  0  0  0  0  0  0
  185.2060  175.4010  136.6270 C   0  0  0  0  0  1  0  0  0  0  0  0
  185.9220  177.3960  135.9190 C   0  0  0  0  0  2  0  0  0  0  0  0
  186.4900  176.1180  136.4400 C   0  0  1  0  0  3  0  0  0  0  0  0
  192.8060  176.6640  137.1140 C   0  0  0  0  0  2  0  0  0  0  0  0
  193.8910  175.8380  136.5930 C   0  0  0  0  0  0  0  0  0  0  0  0
  194.7870  175.1470  136.2040 C   0  0  0  0  0  3  0  0  0  0  0  0
  1 14  1  0  0  0  0
  3 35  1  6  0  0  0
  3  5  1  0  0  0  0
  3  7  1  0  0  0  0
  4  1  1  6  0  0  0
  4  6  1  0  0  0  0
  5  1  2  0  0  0  0
  6  2  1  6  0  0  0
  6 16  1  0  0  0  0
  7 11  2  0  0  0  0
  8  9  2  0  0  0  0
  8  5  1  0  0  0  0
  8 15  1  0  0  0  0
 10 19  1  0  0  0  0
 11 14  1  0  0  0  0
 12  8  2  0  0  0  0
 13  2  1  0  0  0  0
 14 10  2  0  0  0  0
 15 18  1  6  0  0  0
 15  4  1  0  0  0  0
 16 19  1  0  0  0  0
 16 21  1  1  0  0  0
 17 13  1  1  0  0  0
 18 17  1  0  0  0  0
 20 26  1  0  0  0  0
 21 20  2  0  0  0  0
 22 21  1  0  0  0  0
 22 25  2  0  0  0  0
 24 26  2  0  0  0  0
 25 23  1  0  0  0  0
 25 24  1  0  0  0  0
 28 17  1  0  0  0  0
 28 29  1  0  0  0  0
 28 27  1  1  0  0  0
 29 27  1  0  0  0  0
 30 18  1  0  0  0  0
 31 30  1  6  0  0  0
 33 34  1  0  0  0  0
 33 31  1  0  0  0  0
 34 32  1  1  0  0  0
 34 31  1  0  0  0  0
 36 35  1  0  0  0  0
 37 36  3  0  0  0  0
M  END
>  <MODEL>
5

>  <REMARK>
 VINA RESULT:      -7.0      1.943      5.376
  Name = 
  6 active torsions:
  status: ('A' for Active; 'I' for Inactive)
    1  A    between atoms: O_1  and  C_5
    2  A    between atoms: O_1  and  N_36
    3  A    between atoms: C_3  and  C_30
    4  A    between atoms: C_6  and  C_31
    5  A    between atoms: C_9  and  C_30
    6  A    between atoms: C_26  and  C_33
                            x       y       z     vdW  Elec       q    Type
                         _______ _______ _______ _____ _____    ______ ____

>  <TORSDO>
F 6

$$$$
=
 OpenBabel10272414453D

 37 43  0  0  1  0  0  0  0  0999 V2000
  188.9710  178.1380  142.2250 C   0  0  0  0  0  0  0  0  0  0  0  0
  186.3560  178.1120  145.1600 C   0  0  0  0  0  2  0  0  0  0  0  0
  191.0500  178.0350  140.9080 C   0  0  2  0  0  3  0  0  0  0  0  0
  188.2800  178.4380  143.5080 C   0  0  1  0  0  3  0  0  0  0  0  0
  190.2860  178.1490  142.1950 C   0  0  0  0  0  0  0  0  0  0  0  0
  186.7600  178.0360  143.7040 C   0  0  2  0  0  3  0  0  0  0  0  0
  190.2420  177.1750  139.8920 C   0  0  0  0  0  3  0  0  0  0  0  0
  190.9170  178.7200  143.6920 S   0  0  0  0  0  0  0  0  0  0  0  0
  191.1660  180.1960  143.6420 O   0  0  0  0  0  0  0  0  0  0  0  0
  187.0170  178.2320  140.6810 C   0  0  0  0  0  3  0  0  0  0  0  0
  188.9010  177.0580  140.0090 C   0  0  0  0  0  3  0  0  0  0  0  0
  192.1360  178.0040  144.1640 O   0  0  0  0  0  0  0  0  0  0  0  0
  186.8630  176.8320  145.7730 C   0  0  0  0  0  2  0  0  0  0  0  0
  188.1840  177.7840  141.0260 C   0  0  0  0  0  0  0  0  0  0  0  0
  189.4010  178.3890  144.5990 C   0  0  2  0  0  3  0  0  0  0  0  0
  185.9310  179.0140  142.8990 C   0  0  1  0  0  3  0  0  0  0  0  0
  188.3090  177.2830  146.2910 C   0  0  2  0  0  3  0  0  0  0  0  0
  189.3880  177.0820  145.3920 N   0  0  0  0  0  0  0  0  0  0  0  0
  186.1650  179.0630  141.4950 O   0  0  0  0  0  0  0  0  0  0  0  0
  183.8220  179.1450  144.4280 C   0  0  0  0  0  3  0  0  0  0  0  0
  184.4340  178.9690  143.1670 C   0  0  0  0  0  0  0  0  0  0  0  0
  183.6790  178.7310  142.0550 C   0  0  0  0  0  3  0  0  0  0  0  0
  181.4650  178.5150  141.0610 F   0  0  0  0  0  0  0  0  0  0  0  0
  181.6210  178.9690  143.3400 C   0  0  0  0  0  3  0  0  0  0  0  0
  182.2820  178.6990  142.1280 C   0  0  0  0  0  0  0  0  0  0  0  0
  182.4100  179.1630  144.4860 C   0  0  0  0  0  3  0  0  0  0  0  0
  188.7310  178.3190  148.5970 C   0  0  0  0  0  2  0  0  0  0  0  0
  188.4710  177.0800  147.7950 C   0  0  1  0  0  3  0  0  0  0  0  0
  187.4820  177.7050  148.5130 O   0  0  0  0  0  0  0  0  0  0  0  0
  190.5370  177.0410  146.1760 O   0  0  0  0  0  0  0  0  0  0  0  0
  191.5070  176.1640  145.6810 C   0  0  1  0  0  3  0  0  0  0  0  0
  192.7320  174.1470  145.2210 C   0  0  0  0  0  1  0  0  0  0  0  0
  192.3570  175.6090  146.8690 C   0  0  0  0  0  2  0  0  0  0  0  0
  191.5820  174.6960  145.9780 C   0  0  1  0  0  3  0  0  0  0  0  0
  192.4790  177.5160  141.0490 C   0  0  0  0  0  2  0  0  0  0  0  0
  193.0470  177.0180  139.7990 C   0  0  0  0  0  0  0  0  0  0  0  0
  193.4820  176.5800  138.7740 C   0  0  0  0  0  3  0  0  0  0  0  0
  2 13  1  0  0  0  0
  3 35  1  1  0  0  0
  3  5  1  0  0  0  0
  4  1  1  6  0  0  0
  4  6  1  0  0  0  0
  4 15  1  0  0  0  0
  5  1  2  0  0  0  0
  5  8  1  0  0  0  0
  6  2  1  1  0  0  0
  7 11  2  0  0  0  0
  7  3  1  0  0  0  0
  8 12  2  0  0  0  0
  8 15  1  0  0  0  0
  9  8  2  0  0  0  0
 10 14  2  0  0  0  0
 10 19  1  0  0  0  0
 11 14  1  0  0  0  0
 14  1  1  0  0  0  0
 15 18  1  6  0  0  0
 16 21  1  6  0  0  0
 16  6  1  0  0  0  0
 17 13  1  6  0  0  0
 17 28  1  0  0  0  0
 18 30  1  0  0  0  0
 18 17  1  0  0  0  0
 19 16  1  0  0  0  0
 20 26  1  0  0  0  0
 21 20  2  0  0  0  0
 22 25  2  0  0  0  0
 22 21  1  0  0  0  0
 23 25  1  0  0  0  0
 24 26  2  0  0  0  0
 25 24  1  0  0  0  0
 28 29  1  0  0  0  0
 28 27  1  1  0  0  0
 29 27  1  0  0  0  0
 31 34  1  0  0  0  0
 31 30  1  1  0  0  0
 31 33  1  0  0  0  0
 34 32  1  6  0  0  0
 34 33  1  0  0  0  0
 36 35  1  0  0  0  0
 37 36  3  0  0  0  0
M  END
>  <MODEL>
6

>  <REMARK>
 VINA RESULT:      -6.8      3.331      5.532
  Name = 
  6 active torsions:
  status: ('A' for Active; 'I' for Inactive)
    1  A    between atoms: O_1  and  C_5
    2  A    between atoms: O_1  and  N_36
    3  A    between atoms: C_3  and  C_30
    4  A    between atoms: C_6  and  C_31
    5  A    between atoms: C_9  and  C_30
    6  A    between atoms: C_26  and  C_33
                            x       y       z     vdW  Elec       q    Type
                         _______ _______ _______ _____ _____    ______ ____

>  <TORSDO>
F 6

$$$$
=
 OpenBabel10272414453D

 37 43  0  0  1  0  0  0  0  0999 V2000
  186.8440  178.0390  139.6230 C   0  0  0  0  0  0  0  0  0  0  0  0
  184.8850  178.2650  143.0220 C   0  0  0  0  0  2  0  0  0  0  0  0
  187.4400  178.0090  137.2330 C   0  0  2  0  0  3  0  0  0  0  0  0
  185.8410  177.8060  140.6970 C   0  0  1  0  0  3  0  0  0  0  0  0
  186.4580  177.9660  138.3670 C   0  0  0  0  0  0  0  0  0  0  0  0
  186.1400  178.2830  142.1780 C   0  0  2  0  0  3  0  0  0  0  0  0
  188.6690  178.8770  137.6340 C   0  0  0  0  0  3  0  0  0  0  0  0
  184.8320  177.4070  138.2700 S   0  0  0  0  0  0  0  0  0  0  0  0
  184.7840  175.9210  138.0950 O   0  0  0  0  0  0  0  0  0  0  0  0
  188.9250  177.9910  140.9950 C   0  0  0  0  0  3  0  0  0  0  0  0
  188.9820  179.0590  138.9360 C   0  0  0  0  0  3  0  0  0  0  0  0
  184.0080  178.0800  137.2250 O   0  0  0  0  0  0  0  0  0  0  0  0
  184.1580  179.5370  142.6670 C   0  0  0  0  0  2  0  0  0  0  0  0
  188.2350  178.3950  139.9730 C   0  0  0  0  0  0  0  0  0  0  0  0
  184.4530  177.8330  139.9750 C   0  0  2  0  0  3  0  0  0  0  0  0
  187.1530  177.3220  142.7620 C   0  0  1  0  0  3  0  0  0  0  0  0
  183.2050  179.0350  141.4830 C   0  0  2  0  0  3  0  0  0  0  0  0
  183.7200  179.1600  140.1680 N   0  0  0  0  0  0  0  0  0  0  0  0
  188.4120  177.2240  142.1010 O   0  0  0  0  0  0  0  0  0  0  0  0
  186.3600  177.6690  145.2220 C   0  0  0  0  0  3  0  0  0  0  0  0
  187.3720  177.4430  144.2630 C   0  0  0  0  0  0  0  0  0  0  0  0
  188.6760  177.3170  144.6450 C   0  0  0  0  0  3  0  0  0  0  0  0
  190.3030  177.2020  146.4540 F   0  0  0  0  0  0  0  0  0  0  0  0
  188.0560  177.4870  146.9960 C   0  0  0  0  0  3  0  0  0  0  0  0
  189.0370  177.3650  145.9960 C   0  0  0  0  0  0  0  0  0  0  0  0
  186.7230  177.6650  146.5880 C   0  0  0  0  0  3  0  0  0  0  0  0
  180.8900  178.0400  141.9550 C   0  0  0  0  0  2  0  0  0  0  0  0
  181.7290  179.2710  141.7920 C   0  0  1  0  0  3  0  0  0  0  0  0
  181.3730  178.7900  143.0270 O   0  0  0  0  0  0  0  0  0  0  0  0
  182.6140  179.1710  139.3220 O   0  0  0  0  0  0  0  0  0  0  0  0
  182.3870  180.4180  138.7330 C   0  0  1  0  0  3  0  0  0  0  0  0
  181.3190  182.4750  138.0960 C   0  0  0  0  0  1  0  0  0  0  0  0
  181.2580  180.2840  137.6600 C   0  0  0  0  0  2  0  0  0  0  0  0
  181.1130  181.2030  138.8280 C   0  0  1  0  0  3  0  0  0  0  0  0
  186.8620  178.4650  135.8950 C   0  0  0  0  0  2  0  0  0  0  0  0
  186.3790  177.3680  135.0620 C   0  0  0  0  0  0  0  0  0  0  0  0
  185.9830  176.4940  134.3460 C   0  0  0  0  0  3  0  0  0  0  0  0
  1 14  1  0  0  0  0
  3 35  1  6  0  0  0
  3  7  1  0  0  0  0
  3  5  1  0  0  0  0
  4  1  1  6  0  0  0
  4  6  1  0  0  0  0
  5  1  2  0  0  0  0
  6 16  1  0  0  0  0
  6  2  1  1  0  0  0
  7 11  2  0  0  0  0
  8  5  1  0  0  0  0
  8 15  1  0  0  0  0
  9  8  2  0  0  0  0
 10 19  1  0  0  0  0
 11 14  1  0  0  0  0
 12  8  2  0  0  0  0
 13  2  1  0  0  0  0
 14 10  2  0  0  0  0
 15 18  1  6  0  0  0
 15  4  1  0  0  0  0
 16 21  1  1  0  0  0
 17 28  1  0  0  0  0
 17 13  1  1  0  0  0
 18 17  1  0  0  0  0
 19 16  1  0  0  0  0
 20 26  1  0  0  0  0
 21 22  1  0  0  0  0
 21 20  2  0  0  0  0
 22 25  2  0  0  0  0
 25 23  1  0  0  0  0
 25 24  1  0  0  0  0
 26 24  2  0  0  0  0
 27 29  1  0  0  0  0
 28 27  1  6  0  0  0
 28 29  1  0  0  0  0
 30 18  1  0  0  0  0
 31 34  1  0  0  0  0
 31 30  1  1  0  0  0
 33 31  1  0  0  0  0
 33 34  1  0  0  0  0
 34 32  1  6  0  0  0
 36 35  1  0  0  0  0
 37 36  3  0  0  0  0
M  END
>  <MODEL>
7

>  <REMARK>
 VINA RESULT:      -6.6      3.227      6.374
  Name = 
  6 active torsions:
  status: ('A' for Active; 'I' for Inactive)
    1  A    between atoms: O_1  and  C_5
    2  A    between atoms: O_1  and  N_36
    3  A    between atoms: C_3  and  C_30
    4  A    between atoms: C_6  and  C_31
    5  A    between atoms: C_9  and  C_30
    6  A    between atoms: C_26  and  C_33
                            x       y       z     vdW  Elec       q    Type
                         _______ _______ _______ _____ _____    ______ ____

>  <TORSDO>
F 6

$$$$
=
 OpenBabel10272414453D

 37 43  0  0  1  0  0  0  0  0999 V2000
  186.7150  175.7740  136.9060 C   0  0  0  0  0  0  0  0  0  0  0  0
  182.8550  176.3530  137.3660 C   0  0  0  0  0  2  0  0  0  0  0  0
  189.1680  175.9570  137.0430 C   0  0  2  0  0  3  0  0  0  0  0  0
  185.3770  176.4220  136.9540 C   0  0  1  0  0  3  0  0  0  0  0  0
  187.7740  176.4810  137.2370 C   0  0  0  0  0  0  0  0  0  0  0  0
  184.0650  175.5330  136.9770 C   0  0  2  0  0  3  0  0  0  0  0  0
  189.1720  174.4070  137.1920 C   0  0  0  0  0  3  0  0  0  0  0  0
  187.3440  178.1300  137.4820 S   0  0  0  0  0  0  0  0  0  0  0  0
  187.5300  178.9260  136.2280 O   0  0  0  0  0  0  0  0  0  0  0  0
  186.1080  173.6790  135.7010 C   0  0  0  0  0  3  0  0  0  0  0  0
  188.0430  173.6970  136.9810 C   0  0  0  0  0  3  0  0  0  0  0  0
  188.0400  178.7890  138.6240 O   0  0  0  0  0  0  0  0  0  0  0  0
  182.9170  176.4530  138.8680 C   0  0  0  0  0  2  0  0  0  0  0  0
  186.8340  174.3470  136.5420 C   0  0  0  0  0  0  0  0  0  0  0  0
  185.5990  177.7680  137.7200 C   0  0  2  0  0  3  0  0  0  0  0  0
  183.8730  174.9820  135.5800 C   0  0  1  0  0  3  0  0  0  0  0  0
  183.7330  177.8160  139.0590 C   0  0  2  0  0  3  0  0  0  0  0  0
  185.1410  177.6940  139.1760 N   0  0  0  0  0  0  0  0  0  0  0  0
  184.9140  174.1630  135.0550 O   0  0  0  0  0  0  0  0  0  0  0  0
  181.4720  174.8840  134.5660 C   0  0  0  0  0  3  0  0  0  0  0  0
  182.5250  174.3240  135.3220 C   0  0  0  0  0  0  0  0  0  0  0  0
  182.3890  173.0960  135.9020 C   0  0  0  0  0  3  0  0  0  0  0  0
  181.0320  171.0990  136.2300 F   0  0  0  0  0  0  0  0  0  0  0  0
  180.1850  172.8130  134.8990 C   0  0  0  0  0  3  0  0  0  0  0  0
  181.2220  172.3440  135.7260 C   0  0  0  0  0  0  0  0  0  0  0  0
  180.3170  174.0980  134.3490 C   0  0  0  0  0  3  0  0  0  0  0  0
  182.3880  179.9990  139.0830 C   0  0  0  0  0  2  0  0  0  0  0  0
  182.9490  178.8500  139.8640 C   0  0  1  0  0  3  0  0  0  0  0  0
  181.6290  178.9040  139.4930 O   0  0  0  0  0  0  0  0  0  0  0  0
  185.5740  178.8480  139.8250 O   0  0  0  0  0  0  0  0  0  0  0  0
  186.1950  178.5870  141.0500 C   0  0  1  0  0  3  0  0  0  0  0  0
  186.5440  177.8910  143.3240 C   0  0  0  0  0  1  0  0  0  0  0  0
  185.6070  179.5380  142.1410 C   0  0  0  0  0  2  0  0  0  0  0  0
  185.5120  178.0540  142.2730 C   0  0  1  0  0  3  0  0  0  0  0  0
  190.2280  176.5960  137.9380 C   0  0  0  0  0  2  0  0  0  0  0  0
  191.5600  176.0240  137.7660 C   0  0  0  0  0  0  0  0  0  0  0  0
  192.6410  175.5230  137.6490 C   0  0  0  0  0  3  0  0  0  0  0  0
  1  5  2  0  0  0  0
  2 13  1  0  0  0  0
  3  7  1  0  0  0  0
  3  5  1  0  0  0  0
  3 35  1  1  0  0  0
  4  1  1  1  0  0  0
  4  6  1  0  0  0  0
  4 15  1  0  0  0  0
  5  8  1  0  0  0  0
  6  2  1  6  0  0  0
  8 15  1  0  0  0  0
  8 12  2  0  0  0  0
  9  8  2  0  0  0  0
 10 14  2  0  0  0  0
 11  7  2  0  0  0  0
 14  1  1  0  0  0  0
 14 11  1  0  0  0  0
 15 18  1  1  0  0  0
 16 21  1  1  0  0  0
 16  6  1  0  0  0  0
 17 13  1  1  0  0  0
 17 18  1  0  0  0  0
 17 28  1  0  0  0  0
 18 30  1  0  0  0  0
 19 16  1  0  0  0  0
 19 10  1  0  0  0  0
 20 21  1  0  0  0  0
 21 22  2  0  0  0  0
 24 25  2  0  0  0  0
 25 22  1  0  0  0  0
 25 23  1  0  0  0  0
 26 20  2  0  0  0  0
 26 24  1  0  0  0  0
 27 29  1  0  0  0  0
 28 27  1  6  0  0  0
 29 28  1  0  0  0  0
 31 30  1  6  0  0  0
 31 33  1  0  0  0  0
 31 34  1  0  0  0  0
 33 34  1  0  0  0  0
 34 32  1  1  0  0  0
 36 35  1  0  0  0  0
 37 36  3  0  0  0  0
M  END
>  <MODEL>
8

>  <REMARK>
 VINA RESULT:      -6.4      3.557      7.333
  Name = 
  6 active torsions:
  status: ('A' for Active; 'I' for Inactive)
    1  A    between atoms: O_1  and  C_5
    2  A    between atoms: O_1  and  N_36
    3  A    between atoms: C_3  and  C_30
    4  A    between atoms: C_6  and  C_31
    5  A    between atoms: C_9  and  C_30
    6  A    between atoms: C_26  and  C_33
                            x       y       z     vdW  Elec       q    Type
                         _______ _______ _______ _____ _____    ______ ____

>  <TORSDO>
F 6

$$$$
=
 OpenBabel10272414453D

 37 43  0  0  1  0  0  0  0  0999 V2000
  188.3190  177.3950  144.1690 C   0  0  0  0  0  0  0  0  0  0  0  0
  186.3440  178.3430  140.9070 C   0  0  0  0  0  2  0  0  0  0  0  0
  190.0830  176.7520  145.7650 C   0  0  2  0  0  3  0  0  0  0  0  0
  187.7630  177.3570  142.7900 C   0  0  1  0  0  3  0  0  0  0  0  0
  189.5260  176.9130  144.3800 C   0  0  0  0  0  0  0  0  0  0  0  0
  186.5310  178.2760  142.4060 C   0  0  2  0  0  3  0  0  0  0  0  0
  189.4930  177.8490  146.7000 C   0  0  0  0  0  3  0  0  0  0  0  0
  190.1240  176.1480  142.9590 S   0  0  0  0  0  0  0  0  0  0  0  0
  189.8230  174.6810  142.9710 O   0  0  0  0  0  0  0  0  0  0  0  0
  186.2550  178.0130  145.4220 C   0  0  0  0  0  3  0  0  0  0  0  0
  188.3140  178.4370  146.4040 C   0  0  0  0  0  3  0  0  0  0  0  0
  191.5730  176.3780  142.6950 O   0  0  0  0  0  0  0  0  0  0  0  0
  187.3560  179.3540  140.4320 C   0  0  0  0  0  2  0  0  0  0  0  0
  187.5430  178.0120  145.2640 C   0  0  0  0  0  0  0  0  0  0  0  0
  188.9750  176.9970  141.8680 C   0  0  2  0  0  3  0  0  0  0  0  0
  185.3000  177.6620  143.0400 C   0  0  1  0  0  3  0  0  0  0  0  0
  188.6070  178.4130  140.0980 C   0  0  2  0  0  3  0  0  0  0  0  0
  189.5430  178.2180  141.1460 N   0  0  0  0  0  0  0  0  0  0  0  0
  185.2930  177.5390  144.4600 O   0  0  0  0  0  0  0  0  0  0  0  0
  183.5700  178.3750  141.2230 C   0  0  0  0  0  3  0  0  0  0  0  0
  183.9730  178.2390  142.5700 C   0  0  0  0  0  0  0  0  0  0  0  0
  183.1540  178.6430  143.5850 C   0  0  0  0  0  3  0  0  0  0  0  0
  180.9950  179.5370  144.2750 F   0  0  0  0  0  0  0  0  0  0  0  0
  181.3940  179.2220  142.0020 C   0  0  0  0  0  3  0  0  0  0  0  0
  181.8810  179.1600  143.3190 C   0  0  0  0  0  0  0  0  0  0  0  0
  182.2640  178.8490  140.9630 C   0  0  0  0  0  3  0  0  0  0  0  0
  188.1960  177.8260  137.6360 C   0  0  0  0  0  2  0  0  0  0  0  0
  189.0490  178.5380  138.6420 C   0  0  1  0  0  3  0  0  0  0  0  0
  188.1240  179.1990  137.8730 O   0  0  0  0  0  0  0  0  0  0  0  0
  190.7340  177.8410  140.5310 O   0  0  0  0  0  0  0  0  0  0  0  0
  190.5400  177.0170  139.4180 C   0  0  1  0  0  3  0  0  0  0  0  0
  190.6950  175.1500  137.9120 C   0  0  0  0  0  1  0  0  0  0  0  0
  191.8740  176.9150  138.6120 C   0  0  0  0  0  2  0  0  0  0  0  0
  191.2200  175.7020  139.1840 C   0  0  1  0  0  3  0  0  0  0  0  0
  191.6070  176.7230  145.8480 C   0  0  0  0  0  2  0  0  0  0  0  0
  192.1150  176.1630  147.0970 C   0  0  0  0  0  0  0  0  0  0  0  0
  192.5510  175.7380  148.1270 C   0  0  0  0  0  3  0  0  0  0  0  0
  1  5  2  0  0  0  0
  1 14  1  0  0  0  0
  3 35  1  6  0  0  0
  3  7  1  0  0  0  0
  4  1  1  1  0  0  0
  5  3  1  0  0  0  0
  6  2  1  6  0  0  0
  6  4  1  0  0  0  0
  6 16  1  0  0  0  0
  8  9  2  0  0  0  0
  8  5  1  0  0  0  0
 11  7  2  0  0  0  0
 12  8  2  0  0  0  0
 13  2  1  0  0  0  0
 14 10  2  0  0  0  0
 14 11  1  0  0  0  0
 15 18  1  1  0  0  0
 15  4  1  0  0  0  0
 15  8  1  0  0  0  0
 16 21  1  1  0  0  0
 16 19  1  0  0  0  0
 17 13  1  1  0  0  0
 17 18  1  0  0  0  0
 19 10  1  0  0  0  0
 20 21  1  0  0  0  0
 21 22  2  0  0  0  0
 24 25  2  0  0  0  0
 25 22  1  0  0  0  0
 25 23  1  0  0  0  0
 26 20  2  0  0  0  0
 26 24  1  0  0  0  0
 27 29  1  0  0  0  0
 28 27  1  6  0  0  0
 28 17  1  0  0  0  0
 29 28  1  0  0  0  0
 30 18  1  0  0  0  0
 31 30  1  1  0  0  0
 33 34  1  0  0  0  0
 33 31  1  0  0  0  0
 34 32  1  6  0  0  0
 34 31  1  0  0  0  0
 35 36  1  0  0  0  0
 36 37  3  0  0  0  0
M  END
>  <MODEL>
9

>  <REMARK>
 VINA RESULT:      -6.3      2.492      6.142
  Name = 
  6 active torsions:
  status: ('A' for Active; 'I' for Inactive)
    1  A    between atoms: O_1  and  C_5
    2  A    between atoms: O_1  and  N_36
    3  A    between atoms: C_3  and  C_30
    4  A    between atoms: C_6  and  C_31
    5  A    between atoms: C_9  and  C_30
    6  A    between atoms: C_26  and  C_33
                            x       y       z     vdW  Elec       q    Type
                         _______ _______ _______ _____ _____    ______ ____

>  <TORSDO>
F 6

$$$$
