=
 OpenBabel10272401473D

 28 30  0  0  1  0  0  0  0  0999 V2000
  190.3780  176.9940  142.6950 C   0  0  2  0  0  3  0  0  0  0  0  0
  190.9830  178.4740  145.0710 C   0  0  0  0  0  2  0  0  0  0  0  0
  191.2170  175.0410  143.7590 O   0  0  0  0  0  0  0  0  0  0  0  0
  191.2430  179.0750  143.7160 C   0  0  0  0  0  3  0  0  0  0  0  0
  191.3910  176.9890  145.1090 C   0  0  2  0  0  3  0  0  0  0  0  0
  190.9550  178.3830  142.6050 C   0  0  0  0  0  3  0  0  0  0  0  0
  191.0160  176.2430  143.8410 C   0  0  0  0  0  0  0  0  0  0  0  0
  190.5780  176.3210  141.4840 O   0  0  0  0  0  0  0  0  0  0  0  0
  190.0940  177.1900  140.4980 C   0  0  2  0  0  3  0  0  0  0  0  0
  188.0450  177.2850  138.4060 N   0  0  0  0  0  2  0  0  0  0  0  0
  188.6200  177.5060  140.7670 C   0  0  0  0  0  2  0  0  0  0  0  0
  191.1290  175.7510  138.9110 O   0  0  0  0  0  0  0  0  0  0  0  0
  190.2630  176.5840  139.1270 C   0  0  0  0  0  0  0  0  0  0  0  0
  189.4400  177.1210  137.9940 C   0  0  0  0  0  2  0  0  0  0  0  0
  187.9920  178.1880  139.5550 C   0  0  0  0  0  2  0  0  0  0  0  0
  190.8840  176.3220  146.3130 N   0  0  0  0  0  2  0  0  0  0  0  0
  190.1120  177.2560  147.1310 C   0  0  0  0  0  2  0  0  0  0  0  0
  188.3590  176.0380  148.1940 F   0  0  0  0  0  0  0  0  0  0  0  0
  188.6360  176.8810  147.1300 C   0  0  1  0  0  3  0  0  0  0  0  0
  187.7580  178.1280  147.1900 C   0  0  0  0  0  2  0  0  0  0  0  0
  187.2600  177.7090  144.7220 C   0  0  0  0  0  2  0  0  0  0  0  0
  185.5270  178.6370  146.3540 C   0  0  0  0  0  3  0  0  0  0  0  0
  185.5850  178.8340  143.2730 C   0  0  0  0  0  0  0  0  0  0  0  0
  186.7480  178.1290  146.0850 C   0  0  0  0  0  0  0  0  0  0  0  0
  184.7260  179.4090  144.1180 C   0  0  0  0  0  3  0  0  0  0  0  0
  184.3600  178.7460  145.4100 C   0  0  0  0  0  2  0  0  0  0  0  0
  185.8640  179.4340  142.0860 F   0  0  0  0  0  0  0  0  0  0  0  0
  186.2250  177.5240  143.6160 C   0  0  0  0  0  2  0  0  0  0  0  0
  1  8  1  6  0  0  0
  1  7  1  0  0  0  0
  2  5  1  0  0  0  0
  3  7  2  0  0  0  0
  4  2  1  0  0  0  0
  5 16  1  1  0  0  0
  6  1  1  0  0  0  0
  6  4  2  0  0  0  0
  7  5  1  0  0  0  0
  9 11  1  0  0  0  0
  9  8  1  1  0  0  0
 10 15  1  0  0  0  0
 12 13  2  0  0  0  0
 13  9  1  0  0  0  0
 14 10  1  0  0  0  0
 14 13  1  0  0  0  0
 15 11  1  0  0  0  0
 16 17  1  0  0  0  0
 19 17  1  0  0  0  0
 19 20  1  0  0  0  0
 19 18  1  1  0  0  0
 21 24  1  0  0  0  0
 23 28  1  0  0  0  0
 23 25  2  0  0  0  0
 24 22  2  0  0  0  0
 24 20  1  0  0  0  0
 25 26  1  0  0  0  0
 26 22  1  0  0  0  0
 27 23  1  0  0  0  0
 28 21  1  0  0  0  0
M  END
>  <MODEL>
1

>  <REMARK>
 VINA RESULT:      -8.3      0.000      0.000
  Name = 
  7 active torsions:
  status: ('A' for Active; 'I' for Inactive)
    1  A    between atoms: C_1  and  O_2
    2  A    between atoms: O_2  and  C_3
    3  A    between atoms: N_5  and  C_20
    4  A    between atoms: N_5  and  C_21
    5  A    between atoms: C_10  and  C_13
    6  A    between atoms: C_10  and  C_25
    7  A    between atoms: C_20  and  C_25
                            x       y       z     vdW  Elec       q    Type
                         _______ _______ _______ _____ _____    ______ ____

>  <TORSDO>
F 7

$$$$
=
 OpenBabel10272401473D

 28 30  0  0  1  0  0  0  0  0999 V2000
  186.1160  178.3720  139.8370 C   0  0  2  0  0  3  0  0  0  0  0  0
  183.5660  178.5580  141.1260 C   0  0  0  0  0  2  0  0  0  0  0  0
  187.1470  178.9180  141.9080 O   0  0  0  0  0  0  0  0  0  0  0  0
  183.7530  179.0980  139.7340 C   0  0  0  0  0  3  0  0  0  0  0  0
  184.7740  178.8970  142.0220 C   0  0  2  0  0  3  0  0  0  0  0  0
  184.9460  179.0060  139.1300 C   0  0  0  0  0  3  0  0  0  0  0  0
  186.1000  178.7480  141.3000 C   0  0  0  0  0  0  0  0  0  0  0  0
  187.3100  178.7790  139.2280 O   0  0  0  0  0  0  0  0  0  0  0  0
  187.5960  177.7860  138.2830 C   0  0  2  0  0  3  0  0  0  0  0  0
  189.7850  176.9170  136.5410 N   0  0  0  0  0  2  0  0  0  0  0  0
  188.7790  176.9420  138.7640 C   0  0  0  0  0  2  0  0  0  0  0  0
  187.4530  179.5000  136.6380 O   0  0  0  0  0  0  0  0  0  0  0  0
  187.8980  178.4040  136.9400 C   0  0  0  0  0  0  0  0  0  0  0  0
  188.6420  177.5900  135.9230 C   0  0  0  0  0  2  0  0  0  0  0  0
  189.3040  176.0670  137.6290 C   0  0  0  0  0  2  0  0  0  0  0  0
  184.7400  178.1430  143.2790 N   0  0  0  0  0  2  0  0  0  0  0  0
  184.5210  179.0410  144.4120 C   0  0  0  0  0  2  0  0  0  0  0  0
  184.7180  178.4430  146.7120 F   0  0  0  0  0  0  0  0  0  0  0  0
  185.4540  178.6930  145.5640 C   0  0  1  0  0  3  0  0  0  0  0  0
  186.3270  177.4920  145.2130 C   0  0  0  0  0  2  0  0  0  0  0  0
  188.8200  177.6470  144.6920 C   0  0  0  0  0  2  0  0  0  0  0  0
  187.8910  177.6790  147.0720 C   0  0  0  0  0  3  0  0  0  0  0  0
  190.7400  176.9700  146.1170 C   0  0  0  0  0  0  0  0  0  0  0  0
  187.7190  177.6670  145.7330 C   0  0  0  0  0  0  0  0  0  0  0  0
  190.2420  176.8860  147.3520 C   0  0  0  0  0  3  0  0  0  0  0  0
  189.1860  177.8390  147.8210 C   0  0  0  0  0  2  0  0  0  0  0  0
  191.7300  176.1230  145.7320 F   0  0  0  0  0  0  0  0  0  0  0  0
  190.2290  178.0030  145.1610 C   0  0  0  0  0  2  0  0  0  0  0  0
  1  8  1  6  0  0  0
  1  7  1  0  0  0  0
  2  5  1  0  0  0  0
  4  2  1  0  0  0  0
  5 16  1  1  0  0  0
  6  4  2  0  0  0  0
  6  1  1  0  0  0  0
  7  3  2  0  0  0  0
  7  5  1  0  0  0  0
  9 11  1  0  0  0  0
  9  8  1  1  0  0  0
 10 15  1  0  0  0  0
 12 13  2  0  0  0  0
 13  9  1  0  0  0  0
 14 10  1  0  0  0  0
 14 13  1  0  0  0  0
 15 11  1  0  0  0  0
 16 17  1  0  0  0  0
 17 19  1  0  0  0  0
 19 18  1  1  0  0  0
 20 19  1  0  0  0  0
 20 24  1  0  0  0  0
 21 28  1  0  0  0  0
 21 24  1  0  0  0  0
 22 26  1  0  0  0  0
 23 25  2  0  0  0  0
 24 22  2  0  0  0  0
 25 26  1  0  0  0  0
 27 23  1  0  0  0  0
 28 23  1  0  0  0  0
M  END
>  <MODEL>
2

>  <REMARK>
 VINA RESULT:      -8.2      2.848      5.322
  Name = 
  7 active torsions:
  status: ('A' for Active; 'I' for Inactive)
    1  A    between atoms: C_1  and  O_2
    2  A    between atoms: O_2  and  C_3
    3  A    between atoms: N_5  and  C_20
    4  A    between atoms: N_5  and  C_21
    5  A    between atoms: C_10  and  C_13
    6  A    between atoms: C_10  and  C_25
    7  A    between atoms: C_20  and  C_25
                            x       y       z     vdW  Elec       q    Type
                         _______ _______ _______ _____ _____    ______ ____

>  <TORSDO>
F 7

$$$$
=
 OpenBabel10272401473D

 28 30  0  0  1  0  0  0  0  0999 V2000
  186.0720  178.3030  139.6190 C   0  0  2  0  0  3  0  0  0  0  0  0
  183.5370  178.3580  140.9490 C   0  0  0  0  0  2  0  0  0  0  0  0
  187.0940  179.0090  141.6450 O   0  0  0  0  0  0  0  0  0  0  0  0
  183.6610  178.8510  139.5330 C   0  0  0  0  0  3  0  0  0  0  0  0
  184.7320  178.8210  141.8060 C   0  0  2  0  0  3  0  0  0  0  0  0
  184.8470  178.8210  138.9100 C   0  0  0  0  0  3  0  0  0  0  0  0
  186.0540  178.7380  141.0650 C   0  0  0  0  0  0  0  0  0  0  0  0
  187.2230  178.7700  138.9710 O   0  0  0  0  0  0  0  0  0  0  0  0
  187.8650  177.6210  138.4910 C   0  0  2  0  0  3  0  0  0  0  0  0
  190.3900  176.8250  137.2390 N   0  0  0  0  0  2  0  0  0  0  0  0
  189.1630  177.3930  139.2700 C   0  0  0  0  0  2  0  0  0  0  0  0
  187.4720  178.4770  136.3060 O   0  0  0  0  0  0  0  0  0  0  0  0
  188.1480  177.7500  137.0160 C   0  0  0  0  0  0  0  0  0  0  0  0
  189.1910  176.8620  136.4010 C   0  0  0  0  0  2  0  0  0  0  0  0
  190.0250  176.3450  138.5720 C   0  0  0  0  0  2  0  0  0  0  0  0
  184.7740  178.1200  143.0930 N   0  0  0  0  0  2  0  0  0  0  0  0
  184.7510  179.0740  144.2010 C   0  0  0  0  0  2  0  0  0  0  0  0
  185.5830  179.2430  146.4290 F   0  0  0  0  0  0  0  0  0  0  0  0
  185.9160  178.8270  145.1500 C   0  0  1  0  0  3  0  0  0  0  0  0
  186.3140  177.3540  145.1510 C   0  0  0  0  0  2  0  0  0  0  0  0
  188.7610  177.9320  145.5850 C   0  0  0  0  0  2  0  0  0  0  0  0
  187.9980  176.5070  143.6070 C   0  0  0  0  0  3  0  0  0  0  0  0
  190.6220  178.0960  143.9490 C   0  0  0  0  0  0  0  0  0  0  0  0
  187.7440  177.1810  144.7490 C   0  0  0  0  0  0  0  0  0  0  0  0
  190.1940  177.4390  142.8690 C   0  0  0  0  0  3  0  0  0  0  0  0
  189.3450  176.2130  143.0040 C   0  0  0  0  0  2  0  0  0  0  0  0
  191.4300  179.1790  143.8000 F   0  0  0  0  0  0  0  0  0  0  0  0
  190.2350  177.6380  145.3200 C   0  0  0  0  0  2  0  0  0  0  0  0
  1  8  1  6  0  0  0
  1  7  1  0  0  0  0
  2  5  1  0  0  0  0
  4  2  1  0  0  0  0
  5 16  1  1  0  0  0
  6  4  2  0  0  0  0
  6  1  1  0  0  0  0
  7  3  2  0  0  0  0
  7  5  1  0  0  0  0
  9  8  1  1  0  0  0
  9 11  1  0  0  0  0
 10 15  1  0  0  0  0
 12 13  2  0  0  0  0
 13  9  1  0  0  0  0
 14 13  1  0  0  0  0
 14 10  1  0  0  0  0
 15 11  1  0  0  0  0
 16 17  1  0  0  0  0
 17 19  1  0  0  0  0
 19 20  1  0  0  0  0
 19 18  1  1  0  0  0
 22 24  2  0  0  0  0
 23 28  1  0  0  0  0
 24 20  1  0  0  0  0
 24 21  1  0  0  0  0
 25 26  1  0  0  0  0
 25 23  2  0  0  0  0
 26 22  1  0  0  0  0
 27 23  1  0  0  0  0
 28 21  1  0  0  0  0
M  END
>  <MODEL>
3

>  <REMARK>
 VINA RESULT:      -7.9      2.914      5.228
  Name = 
  7 active torsions:
  status: ('A' for Active; 'I' for Inactive)
    1  A    between atoms: C_1  and  O_2
    2  A    between atoms: O_2  and  C_3
    3  A    between atoms: N_5  and  C_20
    4  A    between atoms: N_5  and  C_21
    5  A    between atoms: C_10  and  C_13
    6  A    between atoms: C_10  and  C_25
    7  A    between atoms: C_20  and  C_25
                            x       y       z     vdW  Elec       q    Type
                         _______ _______ _______ _____ _____    ______ ____

>  <TORSDO>
F 7

$$$$
=
 OpenBabel10272401473D

 28 30  0  0  1  0  0  0  0  0999 V2000
  193.0110  175.9970  138.2400 C   0  0  2  0  0  3  0  0  0  0  0  0
  190.3350  176.5400  139.1030 C   0  0  0  0  0  2  0  0  0  0  0  0
  193.8030  177.4300  139.9640 O   0  0  0  0  0  0  0  0  0  0  0  0
  190.6560  176.4550  137.6350 C   0  0  0  0  0  3  0  0  0  0  0  0
  191.4320  177.3030  139.8690 C   0  0  2  0  0  3  0  0  0  0  0  0
  191.9080  176.1960  137.2330 C   0  0  0  0  0  3  0  0  0  0  0  0
  192.8310  176.9520  139.3980 C   0  0  0  0  0  0  0  0  0  0  0  0
  194.2530  176.1870  137.6230 O   0  0  0  0  0  0  0  0  0  0  0  0
  194.6570  174.9120  137.2100 C   0  0  2  0  0  3  0  0  0  0  0  0
  196.8930  173.0510  137.5540 N   0  0  0  0  0  2  0  0  0  0  0  0
  194.8260  174.0040  138.4320 C   0  0  0  0  0  2  0  0  0  0  0  0
  196.2580  176.0100  135.8350 O   0  0  0  0  0  0  0  0  0  0  0  0
  195.9440  174.9900  136.4280 C   0  0  0  0  0  0  0  0  0  0  0  0
  196.7720  173.7480  136.2740 C   0  0  0  0  0  2  0  0  0  0  0  0
  195.5550  172.7210  138.0450 C   0  0  0  0  0  2  0  0  0  0  0  0
  191.2820  177.1470  141.3200 N   0  0  0  0  0  2  0  0  0  0  0  0
  189.8840  177.3150  141.7140 C   0  0  0  0  0  2  0  0  0  0  0  0
  190.1610  175.2550  142.8820 F   0  0  0  0  0  0  0  0  0  0  0  0
  189.5760  176.5090  142.9680 C   0  0  1  0  0  3  0  0  0  0  0  0
  190.0550  177.2420  144.2170 C   0  0  0  0  0  2  0  0  0  0  0  0
  187.6060  177.6300  144.8200 C   0  0  0  0  0  2  0  0  0  0  0  0
  189.3920  177.0600  146.5550 C   0  0  0  0  0  3  0  0  0  0  0  0
  186.6530  178.4200  146.9730 C   0  0  0  0  0  0  0  0  0  0  0  0
  188.9990  177.2470  145.2770 C   0  0  0  0  0  0  0  0  0  0  0  0
  187.6170  178.2200  147.8740 C   0  0  0  0  0  3  0  0  0  0  0  0
  188.5190  177.0280  147.7800 C   0  0  0  0  0  2  0  0  0  0  0  0
  185.8180  179.4840  147.1080 F   0  0  0  0  0  0  0  0  0  0  0  0
  186.4730  177.4710  145.8300 C   0  0  0  0  0  2  0  0  0  0  0  0
  1  8  1  6  0  0  0
  1  7  1  0  0  0  0
  2  5  1  0  0  0  0
  4  2  1  0  0  0  0
  5 16  1  1  0  0  0
  6  4  2  0  0  0  0
  6  1  1  0  0  0  0
  7  5  1  0  0  0  0
  7  3  2  0  0  0  0
  9  8  1  1  0  0  0
  9 11  1  0  0  0  0
 10 15  1  0  0  0  0
 12 13  2  0  0  0  0
 13  9  1  0  0  0  0
 14 13  1  0  0  0  0
 14 10  1  0  0  0  0
 15 11  1  0  0  0  0
 16 17  1  0  0  0  0
 17 19  1  0  0  0  0
 19 18  1  6  0  0  0
 19 20  1  0  0  0  0
 20 24  1  0  0  0  0
 21 24  1  0  0  0  0
 21 28  1  0  0  0  0
 22 26  1  0  0  0  0
 23 27  1  0  0  0  0
 23 25  2  0  0  0  0
 24 22  2  0  0  0  0
 26 25  1  0  0  0  0
 28 23  1  0  0  0  0
M  END
>  <MODEL>
4

>  <REMARK>
 VINA RESULT:      -7.8      4.062      5.724
  Name = 
  7 active torsions:
  status: ('A' for Active; 'I' for Inactive)
    1  A    between atoms: C_1  and  O_2
    2  A    between atoms: O_2  and  C_3
    3  A    between atoms: N_5  and  C_20
    4  A    between atoms: N_5  and  C_21
    5  A    between atoms: C_10  and  C_13
    6  A    between atoms: C_10  and  C_25
    7  A    between atoms: C_20  and  C_25
                            x       y       z     vdW  Elec       q    Type
                         _______ _______ _______ _____ _____    ______ ____

>  <TORSDO>
F 7

$$$$
=
 OpenBabel10272401473D

 28 30  0  0  1  0  0  0  0  0999 V2000
  188.9850  178.4740  138.3940 C   0  0  2  0  0  3  0  0  0  0  0  0
  190.6730  176.6470  139.8140 C   0  0  0  0  0  2  0  0  0  0  0  0
  187.7480  178.8080  140.3950 O   0  0  0  0  0  0  0  0  0  0  0  0
  190.2460  176.3450  138.4040 C   0  0  0  0  0  3  0  0  0  0  0  0
  189.5060  177.2280  140.6370 C   0  0  2  0  0  3  0  0  0  0  0  0
  189.4600  177.2030  137.7380 C   0  0  0  0  0  3  0  0  0  0  0  0
  188.6660  178.2160  139.8480 C   0  0  0  0  0  0  0  0  0  0  0  0
  187.8630  178.9640  137.7140 O   0  0  0  0  0  0  0  0  0  0  0  0
  187.3420  177.8610  137.0260 C   0  0  2  0  0  3  0  0  0  0  0  0
  185.2910  177.2320  135.0310 N   0  0  0  0  0  2  0  0  0  0  0  0
  187.5360  178.0540  135.5200 C   0  0  0  0  0  2  0  0  0  0  0  0
  185.4140  178.0830  138.4040 O   0  0  0  0  0  0  0  0  0  0  0  0
  185.8810  177.6760  137.3520 C   0  0  0  0  0  0  0  0  0  0  0  0
  185.0320  176.8590  136.4220 C   0  0  0  0  0  2  0  0  0  0  0  0
  186.7110  177.0330  134.7420 C   0  0  0  0  0  2  0  0  0  0  0  0
  189.9720  177.7900  141.9090 N   0  0  0  0  0  2  0  0  0  0  0  0
  191.1330  177.0510  142.4030 C   0  0  0  0  0  2  0  0  0  0  0  0
  191.8040  175.4800  144.0670 F   0  0  0  0  0  0  0  0  0  0  0  0
  190.8340  176.4200  143.7560 C   0  0  1  0  0  3  0  0  0  0  0  0
  190.7490  177.4850  144.8460 C   0  0  0  0  0  2  0  0  0  0  0  0
  188.2060  177.6880  144.8030 C   0  0  0  0  0  2  0  0  0  0  0  0
  189.5250  177.1820  146.9310 C   0  0  0  0  0  3  0  0  0  0  0  0
  186.6780  178.3410  146.6490 C   0  0  0  0  0  0  0  0  0  0  0  0
  189.4590  177.3840  145.5980 C   0  0  0  0  0  0  0  0  0  0  0  0
  187.3920  178.1760  147.7650 C   0  0  0  0  0  3  0  0  0  0  0  0
  188.3720  177.0510  147.8890 C   0  0  0  0  0  2  0  0  0  0  0  0
  185.7610  179.3420  146.5800 F   0  0  0  0  0  0  0  0  0  0  0  0
  186.8660  177.4200  145.4840 C   0  0  0  0  0  2  0  0  0  0  0  0
  1  8  1  6  0  0  0
  1  7  1  0  0  0  0
  2  5  1  0  0  0  0
  4  2  1  0  0  0  0
  5 16  1  1  0  0  0
  6  1  1  0  0  0  0
  6  4  2  0  0  0  0
  7  3  2  0  0  0  0
  7  5  1  0  0  0  0
  9 13  1  0  0  0  0
  9  8  1  1  0  0  0
 10 14  1  0  0  0  0
 11  9  1  0  0  0  0
 13 12  2  0  0  0  0
 14 13  1  0  0  0  0
 15 10  1  0  0  0  0
 15 11  1  0  0  0  0
 16 17  1  0  0  0  0
 17 19  1  0  0  0  0
 19 18  1  1  0  0  0
 19 20  1  0  0  0  0
 20 24  1  0  0  0  0
 21 28  1  0  0  0  0
 21 24  1  0  0  0  0
 22 26  1  0  0  0  0
 23 25  2  0  0  0  0
 24 22  2  0  0  0  0
 25 26  1  0  0  0  0
 27 23  1  0  0  0  0
 28 23  1  0  0  0  0
M  END
>  <MODEL>
5

>  <REMARK>
 VINA RESULT:      -7.8      2.912      4.738
  Name = 
  7 active torsions:
  status: ('A' for Active; 'I' for Inactive)
    1  A    between atoms: C_1  and  O_2
    2  A    between atoms: O_2  and  C_3
    3  A    between atoms: N_5  and  C_20
    4  A    between atoms: N_5  and  C_21
    5  A    between atoms: C_10  and  C_13
    6  A    between atoms: C_10  and  C_25
    7  A    between atoms: C_20  and  C_25
                            x       y       z     vdW  Elec       q    Type
                         _______ _______ _______ _____ _____    ______ ____

>  <TORSDO>
F 7

$$$$
=
 OpenBabel10272401473D

 28 30  0  0  1  0  0  0  0  0999 V2000
  185.4060  178.5530  141.2880 C   0  0  2  0  0  3  0  0  0  0  0  0
  186.9080  177.4340  143.4540 C   0  0  0  0  0  2  0  0  0  0  0  0
  187.4350  178.7900  140.0710 O   0  0  0  0  0  0  0  0  0  0  0  0
  185.7790  178.3900  143.7280 C   0  0  0  0  0  3  0  0  0  0  0  0
  187.7510  177.8980  142.2500 C   0  0  2  0  0  3  0  0  0  0  0  0
  185.0740  178.9100  142.7140 C   0  0  0  0  0  3  0  0  0  0  0  0
  186.9040  178.4490  141.1180 C   0  0  0  0  0  0  0  0  0  0  0  0
  184.8710  179.5170  140.4240 O   0  0  0  0  0  0  0  0  0  0  0  0
  183.5640  179.0880  140.1630 C   0  0  2  0  0  3  0  0  0  0  0  0
  181.9690  177.9710  137.9740 N   0  0  0  0  0  2  0  0  0  0  0  0
  183.5740  177.6070  139.7760 C   0  0  0  0  0  2  0  0  0  0  0  0
  183.3260  181.0560  138.8450 O   0  0  0  0  0  0  0  0  0  0  0  0
  182.9430  179.9170  139.0660 C   0  0  0  0  0  0  0  0  0  0  0  0
  181.7520  179.3720  138.3350 C   0  0  0  0  0  2  0  0  0  0  0  0
  182.2240  177.2010  139.1910 C   0  0  0  0  0  2  0  0  0  0  0  0
  188.6650  176.8450  141.7960 N   0  0  0  0  0  2  0  0  0  0  0  0
  189.9470  177.4170  141.3890 C   0  0  0  0  0  2  0  0  0  0  0  0
  192.2640  177.0430  141.8110 F   0  0  0  0  0  0  0  0  0  0  0  0
  191.0240  177.1210  142.4240 C   0  0  1  0  0  3  0  0  0  0  0  0
  191.0320  178.1830  143.5190 C   0  0  0  0  0  2  0  0  0  0  0  0
  189.3540  178.0390  145.4360 C   0  0  0  0  0  2  0  0  0  0  0  0
  191.6080  176.8380  145.4680 C   0  0  0  0  0  3  0  0  0  0  0  0
  189.7930  177.6070  147.8430 C   0  0  0  0  0  0  0  0  0  0  0  0
  190.6760  177.5910  144.8470 C   0  0  0  0  0  0  0  0  0  0  0  0
  191.0140  177.0700  147.8820 C   0  0  0  0  0  3  0  0  0  0  0  0
  191.4810  176.1480  146.7980 C   0  0  0  0  0  2  0  0  0  0  0  0
  189.3760  178.4030  148.8630 F   0  0  0  0  0  0  0  0  0  0  0  0
  188.8740  177.3220  146.6960 C   0  0  0  0  0  2  0  0  0  0  0  0
  1  8  1  6  0  0  0
  1  6  1  0  0  0  0
  2  4  1  0  0  0  0
  3  7  2  0  0  0  0
  5 16  1  6  0  0  0
  5  2  1  0  0  0  0
  6  4  2  0  0  0  0
  7  1  1  0  0  0  0
  7  5  1  0  0  0  0
  9  8  1  6  0  0  0
 10 14  1  0  0  0  0
 10 15  1  0  0  0  0
 11  9  1  0  0  0  0
 12 13  2  0  0  0  0
 13  9  1  0  0  0  0
 14 13  1  0  0  0  0
 15 11  1  0  0  0  0
 17 16  1  0  0  0  0
 17 19  1  0  0  0  0
 19 18  1  6  0  0  0
 19 20  1  0  0  0  0
 20 24  1  0  0  0  0
 21 28  1  0  0  0  0
 22 26  1  0  0  0  0
 23 25  2  0  0  0  0
 23 27  1  0  0  0  0
 24 21  1  0  0  0  0
 24 22  2  0  0  0  0
 26 25  1  0  0  0  0
 28 23  1  0  0  0  0
M  END
>  <MODEL>
6

>  <REMARK>
 VINA RESULT:      -7.7      3.776      6.211
  Name = 
  7 active torsions:
  status: ('A' for Active; 'I' for Inactive)
    1  A    between atoms: C_1  and  O_2
    2  A    between atoms: O_2  and  C_3
    3  A    between atoms: N_5  and  C_20
    4  A    between atoms: N_5  and  C_21
    5  A    between atoms: C_10  and  C_13
    6  A    between atoms: C_10  and  C_25
    7  A    between atoms: C_20  and  C_25
                            x       y       z     vdW  Elec       q    Type
                         _______ _______ _______ _____ _____    ______ ____

>  <TORSDO>
F 7

$$$$
=
 OpenBabel10272401473D

 28 30  0  0  1  0  0  0  0  0999 V2000
  183.6240  178.4070  140.1630 C   0  0  2  0  0  3  0  0  0  0  0  0
  182.6240  178.4810  142.8450 C   0  0  0  0  0  2  0  0  0  0  0  0
  185.5760  179.5380  140.9130 O   0  0  0  0  0  0  0  0  0  0  0  0
  181.6990  178.7270  141.6840 C   0  0  0  0  0  3  0  0  0  0  0  0
  183.9790  179.1840  142.6370 C   0  0  2  0  0  3  0  0  0  0  0  0
  182.1680  178.6880  140.4290 C   0  0  0  0  0  3  0  0  0  0  0  0
  184.4800  179.0840  141.2080 C   0  0  0  0  0  0  0  0  0  0  0  0
  183.9620  178.8480  138.8770 O   0  0  0  0  0  0  0  0  0  0  0  0
  184.4080  177.7040  138.2030 C   0  0  2  0  0  3  0  0  0  0  0  0
  185.5090  176.9240  135.6030 N   0  0  0  0  0  2  0  0  0  0  0  0
  185.8810  177.8740  137.8190 C   0  0  0  0  0  2  0  0  0  0  0  0
  182.4180  177.8550  136.9070 O   0  0  0  0  0  0  0  0  0  0  0  0
  183.5680  177.4500  136.9770 C   0  0  0  0  0  0  0  0  0  0  0  0
  184.1190  176.5690  135.8940 C   0  0  0  0  0  2  0  0  0  0  0  0
  186.2990  176.7930  136.8260 C   0  0  0  0  0  2  0  0  0  0  0  0
  184.9790  178.7240  143.6060 N   0  0  0  0  0  2  0  0  0  0  0  0
  184.7630  179.3570  144.9070 C   0  0  0  0  0  2  0  0  0  0  0  0
  184.5380  178.0370  146.8800 F   0  0  0  0  0  0  0  0  0  0  0  0
  185.4690  178.5790  146.0090 C   0  0  1  0  0  3  0  0  0  0  0  0
  186.3560  177.4850  145.4210 C   0  0  0  0  0  2  0  0  0  0  0  0
  188.8110  177.6470  144.7450 C   0  0  0  0  0  2  0  0  0  0  0  0
  188.0350  177.6470  147.1790 C   0  0  0  0  0  3  0  0  0  0  0  0
  190.8160  176.9500  146.0350 C   0  0  0  0  0  0  0  0  0  0  0  0
  187.7780  177.6530  145.8540 C   0  0  0  0  0  0  0  0  0  0  0  0
  190.3980  176.8490  147.2980 C   0  0  0  0  0  3  0  0  0  0  0  0
  189.3750  177.7960  147.8460 C   0  0  0  0  0  2  0  0  0  0  0  0
  191.7790  176.1080  145.5770 F   0  0  0  0  0  0  0  0  0  0  0  0
  190.2470  177.9960  145.1280 C   0  0  0  0  0  2  0  0  0  0  0  0
  1  8  1  6  0  0  0
  1  6  1  0  0  0  0
  1  7  1  0  0  0  0
  3  7  2  0  0  0  0
  4  2  1  0  0  0  0
  5  2  1  0  0  0  0
  5 16  1  1  0  0  0
  6  4  2  0  0  0  0
  7  5  1  0  0  0  0
  9  8  1  6  0  0  0
 10 14  1  0  0  0  0
 10 15  1  0  0  0  0
 11  9  1  0  0  0  0
 12 13  2  0  0  0  0
 13  9  1  0  0  0  0
 14 13  1  0  0  0  0
 15 11  1  0  0  0  0
 16 17  1  0  0  0  0
 17 19  1  0  0  0  0
 19 18  1  1  0  0  0
 20 24  1  0  0  0  0
 20 19  1  0  0  0  0
 21 28  1  0  0  0  0
 21 24  1  0  0  0  0
 22 26  1  0  0  0  0
 23 25  2  0  0  0  0
 24 22  2  0  0  0  0
 25 26  1  0  0  0  0
 27 23  1  0  0  0  0
 28 23  1  0  0  0  0
M  END
>  <MODEL>
7

>  <REMARK>
 VINA RESULT:      -7.6      3.937      6.351
  Name = 
  7 active torsions:
  status: ('A' for Active; 'I' for Inactive)
    1  A    between atoms: C_1  and  O_2
    2  A    between atoms: O_2  and  C_3
    3  A    between atoms: N_5  and  C_20
    4  A    between atoms: N_5  and  C_21
    5  A    between atoms: C_10  and  C_13
    6  A    between atoms: C_10  and  C_25
    7  A    between atoms: C_20  and  C_25
                            x       y       z     vdW  Elec       q    Type
                         _______ _______ _______ _____ _____    ______ ____

>  <TORSDO>
F 7

$$$$
=
 OpenBabel10272401473D

 28 30  0  0  1  0  0  0  0  0999 V2000
  189.4300  177.2420  139.0300 C   0  0  2  0  0  3  0  0  0  0  0  0
  188.4260  177.5080  141.6980 C   0  0  0  0  0  2  0  0  0  0  0  0
  191.6060  176.9320  139.9340 O   0  0  0  0  0  0  0  0  0  0  0  0
  187.9070  178.3970  140.6010 C   0  0  0  0  0  3  0  0  0  0  0  0
  189.9530  177.3260  141.5930 C   0  0  2  0  0  3  0  0  0  0  0  0
  188.3750  178.2690  139.3520 C   0  0  0  0  0  3  0  0  0  0  0  0
  190.4270  177.1540  140.1620 C   0  0  0  0  0  0  0  0  0  0  0  0
  190.0660  177.5810  137.8290 O   0  0  0  0  0  0  0  0  0  0  0  0
  189.7080  176.5710  136.9270 C   0  0  2  0  0  3  0  0  0  0  0  0
  189.3810  173.6610  136.8390 N   0  0  0  0  0  2  0  0  0  0  0  0
  188.4630  175.8410  137.4380 C   0  0  0  0  0  2  0  0  0  0  0  0
  192.0040  175.9480  136.9210 O   0  0  0  0  0  0  0  0  0  0  0  0
  190.8480  175.6020  136.7360 C   0  0  0  0  0  0  0  0  0  0  0  0
  190.5530  174.2400  136.1800 C   0  0  0  0  0  2  0  0  0  0  0  0
  188.2390  174.5550  136.6490 C   0  0  0  0  0  2  0  0  0  0  0  0
  190.4270  176.2480  142.4660 N   0  0  0  0  0  2  0  0  0  0  0  0
  191.4630  176.7390  143.3740 C   0  0  0  0  0  2  0  0  0  0  0  0
  192.1560  175.8140  145.4600 F   0  0  0  0  0  0  0  0  0  0  0  0
  191.0980  176.4400  144.8220 C   0  0  1  0  0  3  0  0  0  0  0  0
  190.7060  177.7180  145.5580 C   0  0  0  0  0  2  0  0  0  0  0  0
  188.1890  177.6090  145.1500 C   0  0  0  0  0  2  0  0  0  0  0  0
  189.2190  177.6550  147.4880 C   0  0  0  0  0  3  0  0  0  0  0  0
  186.3510  178.3990  146.6230 C   0  0  0  0  0  0  0  0  0  0  0  0
  189.3340  177.6030  146.1440 C   0  0  0  0  0  0  0  0  0  0  0  0
  186.9040  178.5240  147.8310 C   0  0  0  0  0  3  0  0  0  0  0  0
  187.9540  177.5630  148.2970 C   0  0  0  0  0  2  0  0  0  0  0  0
  185.3670  179.2550  146.2430 F   0  0  0  0  0  0  0  0  0  0  0  0
  186.7940  177.3120  145.6940 C   0  0  0  0  0  2  0  0  0  0  0  0
  1  8  1  6  0  0  0
  1  6  1  0  0  0  0
  1  7  1  0  0  0  0
  3  7  2  0  0  0  0
  4  2  1  0  0  0  0
  5  2  1  0  0  0  0
  5 16  1  1  0  0  0
  6  4  2  0  0  0  0
  7  5  1  0  0  0  0
  9 11  1  0  0  0  0
  9  8  1  1  0  0  0
 13 12  2  0  0  0  0
 13  9  1  0  0  0  0
 14 13  1  0  0  0  0
 14 10  1  0  0  0  0
 15 10  1  0  0  0  0
 15 11  1  0  0  0  0
 16 17  1  0  0  0  0
 17 19  1  0  0  0  0
 19 18  1  1  0  0  0
 19 20  1  0  0  0  0
 20 24  1  0  0  0  0
 21 28  1  0  0  0  0
 21 24  1  0  0  0  0
 22 26  1  0  0  0  0
 23 25  2  0  0  0  0
 24 22  2  0  0  0  0
 25 26  1  0  0  0  0
 27 23  1  0  0  0  0
 28 23  1  0  0  0  0
M  END
>  <MODEL>
8

>  <REMARK>
 VINA RESULT:      -7.6      2.300      3.788
  Name = 
  7 active torsions:
  status: ('A' for Active; 'I' for Inactive)
    1  A    between atoms: C_1  and  O_2
    2  A    between atoms: O_2  and  C_3
    3  A    between atoms: N_5  and  C_20
    4  A    between atoms: N_5  and  C_21
    5  A    between atoms: C_10  and  C_13
    6  A    between atoms: C_10  and  C_25
    7  A    between atoms: C_20  and  C_25
                            x       y       z     vdW  Elec       q    Type
                         _______ _______ _______ _____ _____    ______ ____

>  <TORSDO>
F 7

$$$$
=
 OpenBabel10272401473D

 28 30  0  0  1  0  0  0  0  0999 V2000
  189.8140  177.3190  142.1700 C   0  0  2  0  0  3  0  0  0  0  0  0
  190.1710  178.4120  144.7930 C   0  0  0  0  0  2  0  0  0  0  0  0
  188.4380  175.6280  143.1170 O   0  0  0  0  0  0  0  0  0  0  0  0
  191.3280  178.3500  143.8330 C   0  0  0  0  0  3  0  0  0  0  0  0
  189.3300  177.1220  144.7350 C   0  0  2  0  0  3  0  0  0  0  0  0
  191.1590  177.8420  142.6040 C   0  0  0  0  0  3  0  0  0  0  0  0
  189.1420  176.6060  143.3200 C   0  0  0  0  0  0  0  0  0  0  0  0
  189.9740  176.4620  141.0740 O   0  0  0  0  0  0  0  0  0  0  0  0
  190.1710  177.3060  139.9740 C   0  0  2  0  0  3  0  0  0  0  0  0
  189.0710  177.7980  137.3040 N   0  0  0  0  0  2  0  0  0  0  0  0
  188.9010  178.1220  139.7170 C   0  0  0  0  0  2  0  0  0  0  0  0
  191.0770  175.4120  138.8540 O   0  0  0  0  0  0  0  0  0  0  0  0
  190.5420  176.5050  138.7520 C   0  0  0  0  0  0  0  0  0  0  0  0
  190.3700  177.1310  137.3990 C   0  0  0  0  0  2  0  0  0  0  0  0
  188.9780  178.8090  138.3570 C   0  0  0  0  0  2  0  0  0  0  0  0
  188.0540  177.2800  145.4400 N   0  0  0  0  0  2  0  0  0  0  0  0
  187.0810  177.9710  144.5950 C   0  0  0  0  0  2  0  0  0  0  0  0
  186.2560  178.7810  146.6800 F   0  0  0  0  0  0  0  0  0  0  0  0
  185.8660  178.3960  145.4080 C   0  0  1  0  0  3  0  0  0  0  0  0
  185.1140  179.5270  144.7110 C   0  0  0  0  0  2  0  0  0  0  0  0
  184.3670  178.7480  142.3990 C   0  0  0  0  0  2  0  0  0  0  0  0
  182.7770  178.9130  144.3920 C   0  0  0  0  0  3  0  0  0  0  0  0
  182.1060  178.8860  141.3790 C   0  0  0  0  0  0  0  0  0  0  0  0
  184.0120  178.9920  143.8520 C   0  0  0  0  0  0  0  0  0  0  0  0
  181.2730  179.0740  142.4050 C   0  0  0  0  0  3  0  0  0  0  0  0
  181.5230  178.4140  143.7270 C   0  0  0  0  0  2  0  0  0  0  0  0
  181.8300  179.4580  140.1780 F   0  0  0  0  0  0  0  0  0  0  0  0
  183.3270  178.0350  141.5380 C   0  0  0  0  0  2  0  0  0  0  0  0
  1  8  1  6  0  0  0
  1  6  1  0  0  0  0
  1  7  1  0  0  0  0
  3  7  2  0  0  0  0
  4  2  1  0  0  0  0
  5  2  1  0  0  0  0
  5 16  1  6  0  0  0
  6  4  2  0  0  0  0
  7  5  1  0  0  0  0
  9  8  1  1  0  0  0
 10 14  1  0  0  0  0
 10 15  1  0  0  0  0
 11  9  1  0  0  0  0
 13 12  2  0  0  0  0
 13  9  1  0  0  0  0
 14 13  1  0  0  0  0
 15 11  1  0  0  0  0
 17 19  1  0  0  0  0
 17 16  1  0  0  0  0
 19 18  1  1  0  0  0
 20 19  1  0  0  0  0
 21 24  1  0  0  0  0
 23 28  1  0  0  0  0
 23 25  2  0  0  0  0
 24 22  2  0  0  0  0
 24 20  1  0  0  0  0
 25 26  1  0  0  0  0
 26 22  1  0  0  0  0
 27 23  1  0  0  0  0
 28 21  1  0  0  0  0
M  END
>  <MODEL>
9

>  <REMARK>
 VINA RESULT:      -7.6      2.126      2.742
  Name = 
  7 active torsions:
  status: ('A' for Active; 'I' for Inactive)
    1  A    between atoms: C_1  and  O_2
    2  A    between atoms: O_2  and  C_3
    3  A    between atoms: N_5  and  C_20
    4  A    between atoms: N_5  and  C_21
    5  A    between atoms: C_10  and  C_13
    6  A    between atoms: C_10  and  C_25
    7  A    between atoms: C_20  and  C_25
                            x       y       z     vdW  Elec       q    Type
                         _______ _______ _______ _____ _____    ______ ____

>  <TORSDO>
F 7

$$$$
