=
 OpenBabel10272413573D

 30 35  0  0  1  0  0  0  0  0999 V2000
  191.0800  176.4180  138.7800 C   0  0  2  0  0  3  0  0  0  0  0  0
  193.5190  176.8570  138.1200 C   0  0  0  0  0  2  0  0  0  0  0  0
  189.5350  173.5510  136.7800 C   0  0  0  0  0  2  0  0  0  0  0  0
  189.1950  178.0850  138.8070 C   0  0  0  0  0  0  0  0  0  0  0  0
  189.9860  177.1600  139.4110 N   0  0  0  0  0  0  0  0  0  0  0  0
  187.6140  177.9700  141.8810 C   0  0  0  0  0  3  0  0  0  0  0  0
  187.9370  178.9000  136.7040 C   0  0  0  0  0  2  0  0  0  0  0  0
  188.3910  177.8960  140.7400 C   0  0  0  0  0  0  0  0  0  0  0  0
  189.8160  176.1930  141.6800 C   0  0  0  0  0  3  0  0  0  0  0  0
  188.3500  175.8360  136.8520 C   0  0  2  0  0  3  0  0  0  0  0  0
  188.6670  174.5240  137.5860 C   0  0  1  0  0  3  0  0  0  0  0  0
  189.4580  177.0480  140.6410 C   0  0  0  0  0  0  0  0  0  0  0  0
  188.2100  178.5820  139.6060 N   0  0  0  0  0  0  0  0  0  0  0  0
  193.7780  175.3910  137.7950 C   0  0  0  0  0  2  0  0  0  0  0  0
  187.5540  175.6200  135.5510 C   0  0  0  0  0  2  0  0  0  0  0  0
  186.0380  177.5060  135.8320 O   0  0  0  0  0  0  0  0  0  0  0  0
  189.0670  176.2770  142.8890 C   0  0  0  0  0  3  0  0  0  0  0  0
  192.4260  177.0510  139.1710 C   0  0  0  0  0  2  0  0  0  0  0  0
  190.5530  174.2600  135.8580 C   0  0  0  0  0  2  0  0  0  0  0  0
  193.2650  173.4440  136.2490 C   0  0  0  0  0  1  0  0  0  0  0  0
  187.9670  177.1670  142.9780 C   0  0  0  0  0  3  0  0  0  0  0  0
  190.9240  176.3900  137.2370 C   0  0  2  0  0  3  0  0  0  0  0  0
  189.2050  178.2240  137.3070 C   0  0  2  0  0  3  0  0  0  0  0  0
  187.4770  173.8890  137.9420 O   0  0  0  0  0  1  0  0  0  0  0  0
  189.5290  176.8490  136.6920 C   0  0  2  0  0  3  0  0  0  0  0  0
  187.0250  176.9440  134.9980 C   0  0  0  0  0  2  0  0  0  0  0  0
  185.6400  178.9920  137.6690 C   0  0  0  0  0  1  0  0  0  0  0  0
  192.7670  174.7080  136.8780 C   0  0  0  0  0  0  0  0  0  0  0  0
  191.4830  175.1110  136.6590 C   0  0  0  0  0  0  0  0  0  0  0  0
  186.6400  178.1050  136.9650 C   0  0  2  0  0  3  0  0  0  0  0  0
  1 18  1  6  0  0  0
  1  5  1  0  0  0  0
  2 18  1  0  0  0  0
  3 11  1  0  0  0  0
  4  5  1  0  0  0  0
  4 13  2  0  0  0  0
  5 12  1  0  0  0  0
  6 21  1  0  0  0  0
  7 30  1  0  0  0  0
  8  6  2  0  0  0  0
  9 17  1  0  0  0  0
 10 15  1  6  0  0  0
 10 11  1  0  0  0  0
 11 24  1  6  0  0  0
 12  8  1  0  0  0  0
 12  9  2  0  0  0  0
 13  8  1  0  0  0  0
 14  2  1  0  0  0  0
 16 30  1  0  0  0  0
 17 21  2  0  0  0  0
 19 29  1  0  0  0  0
 19  3  1  0  0  0  0
 20 28  1  0  0  0  0
 22 29  1  1  0  0  0
 22  1  1  0  0  0  0
 23  7  1  6  0  0  0
 23  4  1  0  0  0  0
 25 10  1  0  0  0  0
 25 22  1  0  0  0  0
 25 23  1  0  0  0  0
 26 15  1  0  0  0  0
 26 16  1  0  0  0  0
 28 14  1  0  0  0  0
 29 28  2  0  0  0  0
 30 27  1  0  0  0  0
M  END
>  <MODEL>
1

>  <REMARK>
 VINA RESULT:      -6.3      0.000      0.000
  Name = 
  0 active torsions:
  status: ('A' for Active; 'I' for Inactive)
                            x       y       z     vdW  Elec       q    Type
                         _______ _______ _______ _____ _____    ______ ____

>  <TORSDO>
F 0

$$$$
=
 OpenBabel10272413573D

 30 35  0  0  1  0  0  0  0  0999 V2000
  189.4270  175.6870  136.2750 C   0  0  2  0  0  3  0  0  0  0  0  0
  191.2940  175.8310  134.5240 C   0  0  0  0  0  2  0  0  0  0  0  0
  187.7720  172.2430  136.3440 C   0  0  0  0  0  2  0  0  0  0  0  0
  187.4330  177.2080  136.4920 C   0  0  0  0  0  0  0  0  0  0  0  0
  188.5490  176.6170  136.9920 N   0  0  0  0  0  0  0  0  0  0  0  0
  187.2200  178.3550  139.7480 C   0  0  0  0  0  3  0  0  0  0  0  0
  185.3310  177.0810  134.9960 C   0  0  0  0  0  2  0  0  0  0  0  0
  187.4920  177.8230  138.5010 C   0  0  0  0  0  0  0  0  0  0  0  0
  189.4530  176.6640  139.2930 C   0  0  0  0  0  3  0  0  0  0  0  0
  186.3160  174.3500  136.0700 C   0  0  2  0  0  3  0  0  0  0  0  0
  187.1240  173.4560  137.0230 C   0  0  1  0  0  3  0  0  0  0  0  0
  188.5710  177.0160  138.2740 C   0  0  0  0  0  0  0  0  0  0  0  0
  186.7640  177.9820  137.3900 N   0  0  0  0  0  0  0  0  0  0  0  0
  191.6670  174.3620  134.6840 C   0  0  0  0  0  2  0  0  0  0  0  0
  185.1300  173.6140  135.4170 C   0  0  0  0  0  2  0  0  0  0  0  0
  183.5290  175.4400  135.6050 O   0  0  0  0  0  0  0  0  0  0  0  0
  189.2310  177.2330  140.5800 C   0  0  0  0  0  3  0  0  0  0  0  0
  190.6810  176.4330  135.7880 C   0  0  0  0  0  2  0  0  0  0  0  0
  188.2040  172.5170  134.8860 C   0  0  0  0  0  2  0  0  0  0  0  0
  190.9550  171.9490  134.3470 C   0  0  0  0  0  1  0  0  0  0  0  0
  188.1110  178.0750  140.7970 C   0  0  0  0  0  3  0  0  0  0  0  0
  188.6910  175.0280  135.0790 C   0  0  2  0  0  3  0  0  0  0  0  0
  186.8330  176.7190  135.1990 C   0  0  2  0  0  3  0  0  0  0  0  0
  186.3030  173.0160  138.0610 O   0  0  0  0  0  1  0  0  0  0  0  0
  187.1360  175.2150  135.0590 C   0  0  2  0  0  3  0  0  0  0  0  0
  184.1970  174.5920  134.7000 C   0  0  0  0  0  2  0  0  0  0  0  0
  183.6150  177.5470  136.7430 C   0  0  0  0  0  1  0  0  0  0  0  0
  190.5200  173.3570  134.6130 C   0  0  0  0  0  0  0  0  0  0  0  0
  189.2020  173.6270  134.8350 C   0  0  0  0  0  0  0  0  0  0  0  0
  184.4050  176.4550  136.0600 C   0  0  2  0  0  3  0  0  0  0  0  0
  1 18  1  6  0  0  0
  1  5  1  0  0  0  0
  2 14  1  0  0  0  0
  2 18  1  0  0  0  0
  3 11  1  0  0  0  0
  4  5  1  0  0  0  0
  4 13  2  0  0  0  0
  5 12  1  0  0  0  0
  6 21  1  0  0  0  0
  7 30  1  0  0  0  0
  8  6  2  0  0  0  0
  9 17  1  0  0  0  0
 10 15  1  6  0  0  0
 10 11  1  0  0  0  0
 11 24  1  1  0  0  0
 12  8  1  0  0  0  0
 12  9  2  0  0  0  0
 13  8  1  0  0  0  0
 16 30  1  0  0  0  0
 17 21  2  0  0  0  0
 19  3  1  0  0  0  0
 20 28  1  0  0  0  0
 22 29  1  1  0  0  0
 22  1  1  0  0  0  0
 23  7  1  1  0  0  0
 23  4  1  0  0  0  0
 25 22  1  0  0  0  0
 25 23  1  0  0  0  0
 25 10  1  0  0  0  0
 26 15  1  0  0  0  0
 26 16  1  0  0  0  0
 28 14  1  0  0  0  0
 28 29  2  0  0  0  0
 29 19  1  0  0  0  0
 30 27  1  0  0  0  0
M  END
>  <MODEL>
2

>  <REMARK>
 VINA RESULT:      -5.3      2.088      3.041
  Name = 
  0 active torsions:
  status: ('A' for Active; 'I' for Inactive)
                            x       y       z     vdW  Elec       q    Type
                         _______ _______ _______ _____ _____    ______ ____

>  <TORSDO>
F 0

$$$$
=
 OpenBabel10272413573D

 30 35  0  0  1  0  0  0  0  0999 V2000
  193.9430  171.5410  136.2930 C   0  0  2  0  0  3  0  0  0  0  0  0
  192.0110  171.6130  134.6080 C   0  0  0  0  0  2  0  0  0  0  0  0
  194.3940  174.8680  138.1190 C   0  0  0  0  0  2  0  0  0  0  0  0
  196.3310  170.8930  135.8320 C   0  0  0  0  0  0  0  0  0  0  0  0
  195.1590  170.7500  136.5030 N   0  0  0  0  0  0  0  0  0  0  0  0
  197.3220  168.4910  138.1150 C   0  0  0  0  0  3  0  0  0  0  0  0
  198.0670  172.4290  134.6930 C   0  0  0  0  0  2  0  0  0  0  0  0
  196.7340  169.4200  137.2770 C   0  0  0  0  0  0  0  0  0  0  0  0
  194.6250  169.3080  138.4400 C   0  0  0  0  0  3  0  0  0  0  0  0
  196.4020  173.7930  136.9180 C   0  0  2  0  0  3  0  0  0  0  0  0
  195.4800  173.7860  138.1470 C   0  0  1  0  0  3  0  0  0  0  0  0
  195.4330  169.8110  137.4240 C   0  0  0  0  0  0  0  0  0  0  0  0
  197.3250  170.0690  136.2670 N   0  0  0  0  0  0  0  0  0  0  0  0
  191.2090  172.5990  135.4490 C   0  0  0  0  0  2  0  0  0  0  0  0
  197.1920  175.1070  136.7680 C   0  0  0  0  0  2  0  0  0  0  0  0
  199.3070  174.0900  136.1130 O   0  0  0  0  0  0  0  0  0  0  0  0
  195.1830  168.3120  139.2930 C   0  0  0  0  0  3  0  0  0  0  0  0
  192.9450  170.7370  135.4430 C   0  0  0  0  0  2  0  0  0  0  0  0
  193.8870  175.1890  136.6940 C   0  0  0  0  0  2  0  0  0  0  0  0
  191.0550  174.9590  136.3710 C   0  0  0  0  0  1  0  0  0  0  0  0
  196.5330  167.9140  139.1230 C   0  0  0  0  0  3  0  0  0  0  0  0
  194.2650  172.8960  135.6100 C   0  0  2  0  0  3  0  0  0  0  0  0
  196.5680  172.1080  134.9750 C   0  0  2  0  0  3  0  0  0  0  0  0
  196.2430  173.9330  139.3050 O   0  0  0  0  0  1  0  0  0  0  0  0
  195.7810  173.2890  135.5750 C   0  0  2  0  0  3  0  0  0  0  0  0
  198.2890  174.9760  135.7090 C   0  0  0  0  0  2  0  0  0  0  0  0
  200.0530  171.8130  136.0680 C   0  0  0  0  0  1  0  0  0  0  0  0
  191.9510  173.8410  135.9350 C   0  0  0  0  0  0  0  0  0  0  0  0
  193.3030  173.9710  136.0590 C   0  0  0  0  0  0  0  0  0  0  0  0
  198.8720  172.7500  135.9700 C   0  0  2  0  0  3  0  0  0  0  0  0
  1 18  1  6  0  0  0
  1  5  1  0  0  0  0
  2 18  1  0  0  0  0
  2 14  1  0  0  0  0
  3 11  1  0  0  0  0
  4 13  2  0  0  0  0
  4  5  1  0  0  0  0
  5 12  1  0  0  0  0
  6 21  1  0  0  0  0
  7 30  1  0  0  0  0
  8 12  1  0  0  0  0
  8  6  2  0  0  0  0
  9 17  1  0  0  0  0
 10 15  1  6  0  0  0
 10 11  1  0  0  0  0
 11 24  1  1  0  0  0
 12  9  2  0  0  0  0
 13  8  1  0  0  0  0
 14 28  1  0  0  0  0
 19  3  1  0  0  0  0
 21 17  2  0  0  0  0
 22 29  1  1  0  0  0
 22  1  1  0  0  0  0
 23  7  1  1  0  0  0
 23 25  1  0  0  0  0
 23  4  1  0  0  0  0
 25 22  1  0  0  0  0
 25 10  1  0  0  0  0
 26 16  1  0  0  0  0
 26 15  1  0  0  0  0
 28 29  2  0  0  0  0
 28 20  1  0  0  0  0
 29 19  1  0  0  0  0
 30 27  1  0  0  0  0
 30 16  1  0  0  0  0
M  END
>  <MODEL>
3

>  <REMARK>
 VINA RESULT:      -5.0      5.413      9.585
  Name = 
  0 active torsions:
  status: ('A' for Active; 'I' for Inactive)
                            x       y       z     vdW  Elec       q    Type
                         _______ _______ _______ _____ _____    ______ ____

>  <TORSDO>
F 0

$$$$
=
 OpenBabel10272413573D

 30 35  0  0  1  0  0  0  0  0999 V2000
  186.8290  176.5810  136.0500 C   0  0  2  0  0  3  0  0  0  0  0  0
  188.6160  177.2930  134.3550 C   0  0  0  0  0  2  0  0  0  0  0  0
  187.1560  172.9030  137.0360 C   0  0  0  0  0  2  0  0  0  0  0  0
  184.3340  176.8160  135.8100 C   0  0  0  0  0  0  0  0  0  0  0  0
  185.5010  177.0370  136.4700 N   0  0  0  0  0  0  0  0  0  0  0  0
  183.0600  178.3740  138.6230 C   0  0  0  0  0  3  0  0  0  0  0  0
  182.8520  175.2630  134.3750 C   0  0  0  0  0  2  0  0  0  0  0  0
  183.7560  177.8030  137.5740 C   0  0  0  0  0  0  0  0  0  0  0  0
  185.8800  178.0720  138.6830 C   0  0  0  0  0  3  0  0  0  0  0  0
  184.8990  173.7930  136.1720 C   0  0  2  0  0  3  0  0  0  0  0  0
  185.8870  173.7040  137.3460 C   0  0  1  0  0  3  0  0  0  0  0  0
  185.1150  177.6630  137.5940 C   0  0  0  0  0  0  0  0  0  0  0  0
  183.2330  177.2980  136.4520 N   0  0  0  0  0  0  0  0  0  0  0  0
  189.6500  176.3250  134.9180 C   0  0  0  0  0  2  0  0  0  0  0  0
  184.3690  172.4150  135.7280 C   0  0  0  0  0  2  0  0  0  0  0  0
  182.0580  173.1030  135.3830 O   0  0  0  0  0  0  0  0  0  0  0  0
  185.2010  178.7100  139.7620 C   0  0  0  0  0  3  0  0  0  0  0  0
  187.5910  177.7450  135.3960 C   0  0  0  0  0  2  0  0  0  0  0  0
  187.6150  173.0280  135.5650 C   0  0  0  0  0  2  0  0  0  0  0  0
  190.3190  173.8990  135.2450 C   0  0  0  0  0  1  0  0  0  0  0  0
  183.7910  178.8530  139.7220 C   0  0  0  0  0  3  0  0  0  0  0  0
  186.7270  175.3820  135.0700 C   0  0  2  0  0  3  0  0  0  0  0  0
  184.2770  175.8090  134.6930 C   0  0  2  0  0  3  0  0  0  0  0  0
  185.2490  173.1420  138.4520 O   0  0  0  0  0  1  0  0  0  0  0  0
  185.3170  174.7070  134.9750 C   0  0  2  0  0  3  0  0  0  0  0  0
  183.1970  172.5600  134.7560 C   0  0  0  0  0  2  0  0  0  0  0  0
  180.8850  175.1280  135.9000 C   0  0  0  0  0  1  0  0  0  0  0  0
  189.1970  174.8800  135.1080 C   0  0  0  0  0  0  0  0  0  0  0  0
  187.9070  174.4530  135.2270 C   0  0  0  0  0  0  0  0  0  0  0  0
  182.2150  174.5000  135.5550 C   0  0  2  0  0  3  0  0  0  0  0  0
  1 18  1  6  0  0  0
  1  5  1  0  0  0  0
  2 14  1  0  0  0  0
  2 18  1  0  0  0  0
  3 11  1  0  0  0  0
  4 13  2  0  0  0  0
  4  5  1  0  0  0  0
  5 12  1  0  0  0  0
  6 21  1  0  0  0  0
  7 30  1  0  0  0  0
  8 12  1  0  0  0  0
  8  6  2  0  0  0  0
  9 17  1  0  0  0  0
 10 15  1  6  0  0  0
 10 11  1  0  0  0  0
 11 24  1  1  0  0  0
 12  9  2  0  0  0  0
 13  8  1  0  0  0  0
 14 28  1  0  0  0  0
 16 30  1  0  0  0  0
 19  3  1  0  0  0  0
 21 17  2  0  0  0  0
 22 29  1  1  0  0  0
 22  1  1  0  0  0  0
 23  7  1  1  0  0  0
 23 25  1  0  0  0  0
 23  4  1  0  0  0  0
 25 22  1  0  0  0  0
 25 10  1  0  0  0  0
 26 16  1  0  0  0  0
 26 15  1  0  0  0  0
 28 29  2  0  0  0  0
 28 20  1  0  0  0  0
 29 19  1  0  0  0  0
 30 27  1  0  0  0  0
M  END
>  <MODEL>
4

>  <REMARK>
 VINA RESULT:      -4.8      3.477      5.138
  Name = 
  0 active torsions:
  status: ('A' for Active; 'I' for Inactive)
                            x       y       z     vdW  Elec       q    Type
                         _______ _______ _______ _____ _____    ______ ____

>  <TORSDO>
F 0

$$$$
=
 OpenBabel10272413573D

 30 35  0  0  1  0  0  0  0  0999 V2000
  183.6340  177.6690  138.6420 C   0  0  2  0  0  3  0  0  0  0  0  0
  182.8790  178.0370  141.0640 C   0  0  0  0  0  2  0  0  0  0  0  0
  180.9640  178.7220  136.1190 C   0  0  0  0  0  2  0  0  0  0  0  0
  184.4670  175.5230  137.6240 C   0  0  0  0  0  0  0  0  0  0  0  0
  184.6110  176.8370  137.9330 N   0  0  0  0  0  0  0  0  0  0  0  0
  187.4760  176.1110  136.0230 C   0  0  0  0  0  3  0  0  0  0  0  0
  182.9480  173.5630  136.9020 C   0  0  0  0  0  2  0  0  0  0  0  0
  186.2960  176.0680  136.7410 C   0  0  0  0  0  0  0  0  0  0  0  0
  186.4040  178.4130  137.2880 C   0  0  0  0  0  3  0  0  0  0  0  0
  181.9690  176.3550  135.9930 C   0  0  2  0  0  3  0  0  0  0  0  0
  182.1570  177.8530  135.7050 C   0  0  1  0  0  3  0  0  0  0  0  0
  185.7800  177.1710  137.3600 C   0  0  0  0  0  0  0  0  0  0  0  0
  185.5020  175.0040  136.9060 N   0  0  0  0  0  0  0  0  0  0  0  0
  182.0350  179.2530  140.7000 C   0  0  0  0  0  2  0  0  0  0  0  0
  180.7800  175.7400  135.2300 C   0  0  0  0  0  2  0  0  0  0  0  0
  181.8810  173.6520  134.6300 O   0  0  0  0  0  0  0  0  0  0  0  0
  187.6490  178.4850  136.5970 C   0  0  0  0  0  3  0  0  0  0  0  0
  184.0560  177.8200  140.1130 C   0  0  0  0  0  2  0  0  0  0  0  0
  180.2300  178.1980  137.3740 C   0  0  0  0  0  2  0  0  0  0  0  0
  179.9820  180.1150  139.4810 C   0  0  0  0  0  1  0  0  0  0  0  0
  188.1740  177.3290  135.9660 C   0  0  0  0  0  3  0  0  0  0  0  0
  182.2090  177.0640  138.5470 C   0  0  2  0  0  3  0  0  0  0  0  0
  183.1210  174.8600  137.7480 C   0  0  2  0  0  3  0  0  0  0  0  0
  182.4100  178.0390  134.3460 O   0  0  0  0  0  1  0  0  0  0  0  0
  182.0310  175.9190  137.4930 C   0  0  2  0  0  3  0  0  0  0  0  0
  180.7920  174.2130  135.3240 C   0  0  0  0  0  2  0  0  0  0  0  0
  184.1550  172.9180  134.8180 C   0  0  0  0  0  1  0  0  0  0  0  0
  181.0670  179.0840  139.5320 C   0  0  0  0  0  0  0  0  0  0  0  0
  181.1590  178.1500  138.5420 C   0  0  0  0  0  0  0  0  0  0  0  0
  183.0710  173.8050  135.3830 C   0  0  2  0  0  3  0  0  0  0  0  0
  1 18  1  1  0  0  0
  3 19  1  0  0  0  0
  4 23  1  0  0  0  0
  4  5  1  0  0  0  0
  5  1  1  0  0  0  0
  6  8  1  0  0  0  0
  8 13  1  0  0  0  0
  8 12  2  0  0  0  0
  9 12  1  0  0  0  0
 10 15  1  1  0  0  0
 10 25  1  0  0  0  0
 11 24  1  6  0  0  0
 11 10  1  0  0  0  0
 11  3  1  0  0  0  0
 12  5  1  0  0  0  0
 13  4  2  0  0  0  0
 14  2  1  0  0  0  0
 15 26  1  0  0  0  0
 16 26  1  0  0  0  0
 16 30  1  0  0  0  0
 17  9  2  0  0  0  0
 18  2  1  0  0  0  0
 19 29  1  0  0  0  0
 20 28  1  0  0  0  0
 21  6  2  0  0  0  0
 21 17  1  0  0  0  0
 22 29  1  6  0  0  0
 22  1  1  0  0  0  0
 23  7  1  6  0  0  0
 25 23  1  0  0  0  0
 25 22  1  0  0  0  0
 27 30  1  0  0  0  0
 28 14  1  0  0  0  0
 29 28  2  0  0  0  0
 30  7  1  0  0  0  0
M  END
>  <MODEL>
5

>  <REMARK>
 VINA RESULT:      -4.4      4.362      8.282
  Name = 
  0 active torsions:
  status: ('A' for Active; 'I' for Inactive)
                            x       y       z     vdW  Elec       q    Type
                         _______ _______ _______ _____ _____    ______ ____

>  <TORSDO>
F 0

$$$$
=
 OpenBabel10272413573D

 30 35  0  0  1  0  0  0  0  0999 V2000
  185.9590  177.3740  137.3830 C   0  0  2  0  0  3  0  0  0  0  0  0
  187.9550  178.5640  136.2990 C   0  0  0  0  0  2  0  0  0  0  0  0
  186.2820  173.5700  137.2170 C   0  0  0  0  0  2  0  0  0  0  0  0
  183.5240  177.6970  136.8360 C   0  0  0  0  0  0  0  0  0  0  0  0
  184.5650  177.6880  137.7080 N   0  0  0  0  0  0  0  0  0  0  0  0
  181.7700  178.3080  139.7540 C   0  0  0  0  0  3  0  0  0  0  0  0
  182.3440  176.6840  134.7740 C   0  0  0  0  0  2  0  0  0  0  0  0
  182.6420  178.0870  138.7050 C   0  0  0  0  0  0  0  0  0  0  0  0
  184.5580  177.9750  140.1640 C   0  0  0  0  0  3  0  0  0  0  0  0
  184.1500  174.7060  136.3260 C   0  0  2  0  0  3  0  0  0  0  0  0
  184.9480  174.2460  137.5560 C   0  0  1  0  0  3  0  0  0  0  0  0
  183.9870  177.9350  138.8950 C   0  0  0  0  0  0  0  0  0  0  0  0
  182.3190  177.9630  137.4120 N   0  0  0  0  0  0  0  0  0  0  0  0
  188.9290  177.4590  136.6900 C   0  0  0  0  0  2  0  0  0  0  0  0
  183.7500  173.5420  135.3990 C   0  0  0  0  0  2  0  0  0  0  0  0
  181.4930  174.3250  134.9220 O   0  0  0  0  0  0  0  0  0  0  0  0
  183.6960  178.2500  141.2650 C   0  0  0  0  0  3  0  0  0  0  0  0
  186.7650  178.6780  137.2520 C   0  0  0  0  0  2  0  0  0  0  0  0
  186.9550  174.1440  135.9500 C   0  0  0  0  0  2  0  0  0  0  0  0
  189.6390  175.0460  136.3490 C   0  0  0  0  0  1  0  0  0  0  0  0
  182.3040  178.4120  141.0490 C   0  0  0  0  0  3  0  0  0  0  0  0
  186.0580  176.5440  136.0760 C   0  0  2  0  0  3  0  0  0  0  0  0
  183.6800  177.0900  135.4670 C   0  0  2  0  0  3  0  0  0  0  0  0
  184.1710  173.3720  138.3170 O   0  0  0  0  0  1  0  0  0  0  0  0
  184.7080  175.9450  135.5540 C   0  0  2  0  0  3  0  0  0  0  0  0
  182.7360  173.9950  134.3470 C   0  0  0  0  0  2  0  0  0  0  0  0
  180.1730  176.0970  135.8500 C   0  0  0  0  0  1  0  0  0  0  0  0
  188.5110  176.0320  136.3480 C   0  0  0  0  0  0  0  0  0  0  0  0
  187.2370  175.6010  136.1220 C   0  0  0  0  0  0  0  0  0  0  0  0
  181.5650  175.5960  135.5420 C   0  0  2  0  0  3  0  0  0  0  0  0
  1 18  1  6  0  0  0
  1  5  1  0  0  0  0
  2 14  1  0  0  0  0
  2 18  1  0  0  0  0
  3 11  1  0  0  0  0
  4 13  2  0  0  0  0
  4  5  1  0  0  0  0
  5 12  1  0  0  0  0
  6 21  1  0  0  0  0
  7 30  1  0  0  0  0
  8 12  1  0  0  0  0
  8  6  2  0  0  0  0
  9 17  1  0  0  0  0
 10 15  1  6  0  0  0
 10 11  1  0  0  0  0
 11 24  1  6  0  0  0
 12  9  2  0  0  0  0
 13  8  1  0  0  0  0
 16 30  1  0  0  0  0
 19 29  1  0  0  0  0
 19  3  1  0  0  0  0
 21 17  2  0  0  0  0
 22 29  1  1  0  0  0
 22  1  1  0  0  0  0
 23  7  1  1  0  0  0
 23 25  1  0  0  0  0
 23  4  1  0  0  0  0
 25 22  1  0  0  0  0
 25 10  1  0  0  0  0
 26 16  1  0  0  0  0
 26 15  1  0  0  0  0
 28 20  1  0  0  0  0
 28 14  1  0  0  0  0
 29 28  2  0  0  0  0
 30 27  1  0  0  0  0
M  END
>  <MODEL>
6

>  <REMARK>
 VINA RESULT:      -4.4      3.618      5.353
  Name = 
  0 active torsions:
  status: ('A' for Active; 'I' for Inactive)
                            x       y       z     vdW  Elec       q    Type
                         _______ _______ _______ _____ _____    ______ ____

>  <TORSDO>
F 0

$$$$
=
 OpenBabel10272413573D

 30 35  0  0  1  0  0  0  0  0999 V2000
  184.5780  177.5640  138.0860 C   0  0  2  0  0  3  0  0  0  0  0  0
  184.4890  178.4510  140.4910 C   0  0  0  0  0  2  0  0  0  0  0  0
  181.2310  177.9480  136.2800 C   0  0  0  0  0  2  0  0  0  0  0  0
  185.2890  175.2670  137.3440 C   0  0  0  0  0  0  0  0  0  0  0  0
  185.3930  176.6210  137.3160 N   0  0  0  0  0  0  0  0  0  0  0  0
  187.6740  175.5590  134.8560 C   0  0  0  0  0  3  0  0  0  0  0  0
  183.8130  173.1540  137.5180 C   0  0  0  0  0  2  0  0  0  0  0  0
  186.7460  175.6470  135.8770 C   0  0  0  0  0  0  0  0  0  0  0  0
  186.7880  178.0580  135.8660 C   0  0  0  0  0  3  0  0  0  0  0  0
  182.3730  175.6410  136.3680 C   0  0  2  0  0  3  0  0  0  0  0  0
  182.3380  177.0390  135.7310 C   0  0  1  0  0  3  0  0  0  0  0  0
  186.3230  176.8480  136.3730 C   0  0  0  0  0  0  0  0  0  0  0  0
  186.1280  174.6270  136.4830 N   0  0  0  0  0  0  0  0  0  0  0  0
  183.4710  179.5290  140.1400 C   0  0  0  0  0  2  0  0  0  0  0  0
  181.0810  174.8380  136.1270 C   0  0  0  0  0  2  0  0  0  0  0  0
  182.1580  172.6990  135.6840 O   0  0  0  0  0  0  0  0  0  0  0  0
  187.7820  178.0050  134.8470 C   0  0  0  0  0  3  0  0  0  0  0  0
  185.3730  178.0560  139.3070 C   0  0  0  0  0  2  0  0  0  0  0  0
  180.9220  177.7010  137.7740 C   0  0  0  0  0  2  0  0  0  0  0  0
  181.0920  180.0380  139.4140 C   0  0  0  0  0  1  0  0  0  0  0  0
  188.2160  176.7510  134.3470 C   0  0  0  0  0  3  0  0  0  0  0  0
  183.2420  176.9160  138.5360 C   0  0  2  0  0  3  0  0  0  0  0  0
  184.0940  174.6140  137.9870 C   0  0  2  0  0  3  0  0  0  0  0  0
  182.1890  176.9200  134.3490 O   0  0  0  0  0  1  0  0  0  0  0  0
  182.8850  175.5580  137.8420 C   0  0  2  0  0  3  0  0  0  0  0  0
  181.2550  173.3730  136.5300 C   0  0  0  0  0  2  0  0  0  0  0  0
  184.4520  172.0870  135.3580 C   0  0  0  0  0  1  0  0  0  0  0  0
  182.2380  179.0750  139.3640 C   0  0  0  0  0  0  0  0  0  0  0  0
  182.1380  177.9440  138.6080 C   0  0  0  0  0  0  0  0  0  0  0  0
  183.4900  173.0500  136.0130 C   0  0  2  0  0  3  0  0  0  0  0  0
  1 22  1  0  0  0  0
  1 18  1  1  0  0  0
  3 19  1  0  0  0  0
  4 23  1  0  0  0  0
  5  4  1  0  0  0  0
  5  1  1  0  0  0  0
  6  8  1  0  0  0  0
  8 12  2  0  0  0  0
  8 13  1  0  0  0  0
  9 12  1  0  0  0  0
 10 15  1  1  0  0  0
 10 25  1  0  0  0  0
 11 24  1  6  0  0  0
 11  3  1  0  0  0  0
 11 10  1  0  0  0  0
 12  5  1  0  0  0  0
 13  4  2  0  0  0  0
 14  2  1  0  0  0  0
 15 26  1  0  0  0  0
 16 30  1  0  0  0  0
 16 26  1  0  0  0  0
 17  9  2  0  0  0  0
 18  2  1  0  0  0  0
 19 29  1  0  0  0  0
 21 17  1  0  0  0  0
 21  6  2  0  0  0  0
 22 29  1  6  0  0  0
 23  7  1  6  0  0  0
 25 23  1  0  0  0  0
 25 22  1  0  0  0  0
 27 30  1  0  0  0  0
 28 20  1  0  0  0  0
 28 14  1  0  0  0  0
 29 28  2  0  0  0  0
 30  7  1  0  0  0  0
M  END
>  <MODEL>
7

>  <REMARK>
 VINA RESULT:      -4.0      4.268      7.932
  Name = 
  0 active torsions:
  status: ('A' for Active; 'I' for Inactive)
                            x       y       z     vdW  Elec       q    Type
                         _______ _______ _______ _____ _____    ______ ____

>  <TORSDO>
F 0

$$$$
=
 OpenBabel10272413573D

 30 35  0  0  1  0  0  0  0  0999 V2000
  185.8860  177.9440  138.7350 C   0  0  2  0  0  3  0  0  0  0  0  0
  187.6220  178.5710  136.9540 C   0  0  0  0  0  2  0  0  0  0  0  0
  183.7560  174.9490  137.6850 C   0  0  0  0  0  2  0  0  0  0  0  0
  184.1560  179.4550  139.7620 C   0  0  0  0  0  0  0  0  0  0  0  0
  185.2080  178.6010  139.8550 N   0  0  0  0  0  0  0  0  0  0  0  0
  184.3510  179.2360  143.2080 C   0  0  0  0  0  3  0  0  0  0  0  0
  181.9550  180.1530  138.6050 C   0  0  0  0  0  2  0  0  0  0  0  0
  184.4510  179.2160  141.8300 C   0  0  0  0  0  0  0  0  0  0  0  0
  186.2740  177.6380  141.8680 C   0  0  0  0  0  3  0  0  0  0  0  0
  182.6070  177.1330  138.4210 C   0  0  2  0  0  3  0  0  0  0  0  0
  183.3440  175.8550  138.8510 C   0  0  1  0  0  3  0  0  0  0  0  0
  185.3810  178.4550  141.1790 C   0  0  0  0  0  0  0  0  0  0  0  0
  183.6740  179.8770  140.9650 N   0  0  0  0  0  0  0  0  0  0  0  0
  187.7870  177.1280  136.4930 C   0  0  0  0  0  2  0  0  0  0  0  0
  181.2820  176.8450  137.6890 C   0  0  0  0  0  2  0  0  0  0  0  0
  179.9820  178.6060  138.7580 O   0  0  0  0  0  0  0  0  0  0  0  0
  186.2320  177.6710  143.2920 C   0  0  0  0  0  3  0  0  0  0  0  0
  187.1960  178.6850  138.4180 C   0  0  0  0  0  2  0  0  0  0  0  0
  184.1170  175.7310  136.4010 C   0  0  0  0  0  2  0  0  0  0  0  0
  186.7080  175.1360  135.3480 C   0  0  0  0  0  1  0  0  0  0  0  0
  185.2650  178.4710  143.9510 C   0  0  0  0  0  3  0  0  0  0  0  0
  184.9770  177.8930  137.4790 C   0  0  2  0  0  3  0  0  0  0  0  0
  183.3990  179.5840  138.4670 C   0  0  2  0  0  3  0  0  0  0  0  0
  182.5440  175.1290  139.7340 O   0  0  0  0  0  1  0  0  0  0  0  0
  183.4680  178.2360  137.7250 C   0  0  2  0  0  3  0  0  0  0  0  0
  180.4520  178.1190  137.5230 C   0  0  0  0  0  2  0  0  0  0  0  0
  180.4560  180.0680  140.5960 C   0  0  0  0  0  1  0  0  0  0  0  0
  186.5040  176.3600  136.1850 C   0  0  0  0  0  0  0  0  0  0  0  0
  185.2590  176.6580  136.6560 C   0  0  0  0  0  0  0  0  0  0  0  0
  181.0270  179.2590  139.4550 C   0  0  2  0  0  3  0  0  0  0  0  0
  1 18  1  6  0  0  0
  1  5  1  0  0  0  0
  2 18  1  0  0  0  0
  3 11  1  0  0  0  0
  4  5  1  0  0  0  0
  4 13  2  0  0  0  0
  5 12  1  0  0  0  0
  6 21  1  0  0  0  0
  7 30  1  0  0  0  0
  8  6  2  0  0  0  0
  9 17  1  0  0  0  0
 10 15  1  6  0  0  0
 10 11  1  0  0  0  0
 11 24  1  1  0  0  0
 12  8  1  0  0  0  0
 12  9  2  0  0  0  0
 13  8  1  0  0  0  0
 14  2  1  0  0  0  0
 16 30  1  0  0  0  0
 17 21  2  0  0  0  0
 19 29  1  0  0  0  0
 19  3  1  0  0  0  0
 20 28  1  0  0  0  0
 22 29  1  1  0  0  0
 22 25  1  0  0  0  0
 22  1  1  0  0  0  0
 23  7  1  1  0  0  0
 23  4  1  0  0  0  0
 25 10  1  0  0  0  0
 25 23  1  0  0  0  0
 26 15  1  0  0  0  0
 26 16  1  0  0  0  0
 28 14  1  0  0  0  0
 28 29  2  0  0  0  0
 30 27  1  0  0  0  0
M  END
>  <MODEL>
8

>  <REMARK>
 VINA RESULT:      -3.9      3.762      5.730
  Name = 
  0 active torsions:
  status: ('A' for Active; 'I' for Inactive)
                            x       y       z     vdW  Elec       q    Type
                         _______ _______ _______ _____ _____    ______ ____

>  <TORSDO>
F 0

$$$$
=
 OpenBabel10272413573D

 30 35  0  0  1  0  0  0  0  0999 V2000
  181.9050  177.1110  135.9850 C   0  0  2  0  0  3  0  0  0  0  0  0
  181.3660  174.8010  135.0110 C   0  0  0  0  0  2  0  0  0  0  0  0
  185.3990  177.2500  137.5260 C   0  0  0  0  0  2  0  0  0  0  0  0
  180.5570  178.3910  137.6810 C   0  0  0  0  0  0  0  0  0  0  0  0
  181.1590  178.2760  136.4690 N   0  0  0  0  0  0  0  0  0  0  0  0
  179.9830  181.5920  136.5020 C   0  0  0  0  0  3  0  0  0  0  0  0
  180.5500  177.8970  140.2160 C   0  0  0  0  0  2  0  0  0  0  0  0
  180.2830  180.2720  136.7820 C   0  0  0  0  0  0  0  0  0  0  0  0
  181.4460  179.9700  134.6910 C   0  0  0  0  0  3  0  0  0  0  0  0
  183.3620  177.9730  138.9250 C   0  0  2  0  0  3  0  0  0  0  0  0
  184.3560  178.3360  137.8100 C   0  0  1  0  0  3  0  0  0  0  0  0
  180.9800  179.4840  135.9090 C   0  0  0  0  0  0  0  0  0  0  0  0
  179.9820  179.6070  137.9020 N   0  0  0  0  0  0  0  0  0  0  0  0
  182.8180  174.5340  134.6320 C   0  0  0  0  0  2  0  0  0  0  0  0
  184.0450  177.7490  140.2880 C   0  0  0  0  0  2  0  0  0  0  0  0
  182.3680  178.8950  141.6330 O   0  0  0  0  0  0  0  0  0  0  0  0
  181.1130  181.3120  134.3480 C   0  0  0  0  0  3  0  0  0  0  0  0
  181.0190  176.2900  135.0330 C   0  0  0  0  0  2  0  0  0  0  0  0
  184.8620  175.8160  137.7320 C   0  0  0  0  0  2  0  0  0  0  0  0
  185.1760  174.1020  135.4650 C   0  0  0  0  0  1  0  0  0  0  0  0
  180.3840  182.1150  135.2610 C   0  0  0  0  0  3  0  0  0  0  0  0
  182.3960  176.2290  137.1630 C   0  0  2  0  0  3  0  0  0  0  0  0
  180.8550  177.3970  138.7720 C   0  0  2  0  0  3  0  0  0  0  0  0
  185.0090  179.5250  138.1350 O   0  0  0  0  0  1  0  0  0  0  0  0
  182.2960  176.8830  138.5830 C   0  0  2  0  0  3  0  0  0  0  0  0
  183.0140  177.6630  141.4160 C   0  0  0  0  0  2  0  0  0  0  0  0
  180.4800  180.2470  141.0440 C   0  0  0  0  0  1  0  0  0  0  0  0
  183.8600  174.7660  135.7230 C   0  0  0  0  0  0  0  0  0  0  0  0
  183.7050  175.5540  136.8250 C   0  0  0  0  0  0  0  0  0  0  0  0
  181.3960  179.1200  140.6290 C   0  0  2  0  0  3  0  0  0  0  0  0
  1 18  1  6  0  0  0
  1  5  1  0  0  0  0
  1 22  1  0  0  0  0
  2 18  1  0  0  0  0
  3 19  1  0  0  0  0
  3 11  1  0  0  0  0
  4 13  2  0  0  0  0
  4 23  1  0  0  0  0
  5  4  1  0  0  0  0
  6  8  1  0  0  0  0
  7 30  1  0  0  0  0
  8 13  1  0  0  0  0
  9 12  1  0  0  0  0
 10 15  1  1  0  0  0
 11 24  1  1  0  0  0
 11 10  1  0  0  0  0
 12  5  1  0  0  0  0
 12  8  2  0  0  0  0
 14  2  1  0  0  0  0
 14 28  1  0  0  0  0
 15 26  1  0  0  0  0
 17  9  2  0  0  0  0
 17 21  1  0  0  0  0
 20 28  1  0  0  0  0
 21  6  2  0  0  0  0
 22 29  1  6  0  0  0
 22 25  1  0  0  0  0
 23  7  1  1  0  0  0
 25 23  1  0  0  0  0
 25 10  1  0  0  0  0
 26 16  1  0  0  0  0
 28 29  2  0  0  0  0
 29 19  1  0  0  0  0
 30 27  1  0  0  0  0
 30 16  1  0  0  0  0
M  END
>  <MODEL>
9

>  <REMARK>
 VINA RESULT:      -3.4      5.589      8.890
  Name = 
  0 active torsions:
  status: ('A' for Active; 'I' for Inactive)
                            x       y       z     vdW  Elec       q    Type
                         _______ _______ _______ _____ _____    ______ ____

>  <TORSDO>
F 0

$$$$
