=
 OpenBabel10272415303D

 34 37  0  0  1  0  0  0  0  0999 V2000
  183.4600  177.8440  137.8150 N   0  0  2  0  0  0  0  0  0  0  0  0
  186.2040  175.3970  135.8770 C   0  0  0  0  0  2  0  0  0  0  0  0
  184.1330  175.4980  137.3180 C   0  0  2  0  0  3  0  0  0  0  0  0
  182.4890  178.5730  138.6330 C   0  0  2  0  0  3  0  0  0  0  0  0
  182.2160  179.9350  138.0200 C   0  0  0  0  0  1  0  0  0  0  0  0
  183.4410  178.7100  139.8020 C   0  0  2  0  0  3  0  0  0  0  0  0
  182.9910  176.4530  137.7110 C   0  0  2  0  0  3  0  0  0  0  0  0
  187.0420  176.0690  136.9630 C   0  0  0  0  0  2  0  0  0  0  0  0
  186.9330  177.5890  136.9000 C   0  0  1  0  0  3  0  0  0  0  0  0
  186.8480  178.1040  138.3280 C   0  0  0  0  0  2  0  0  0  0  0  0
  184.7350  175.8030  135.9470 C   0  0  0  0  0  2  0  0  0  0  0  0
  185.5610  178.8810  138.5430 C   0  0  0  0  0  2  0  0  0  0  0  0
  184.4140  177.9510  138.9240 C   0  0  2  0  0  3  0  0  0  0  0  0
  181.4060  179.2470  142.9640 C   0  0  0  0  0  2  0  0  0  0  0  0
  182.9760  177.8290  140.9690 C   0  0  1  0  0  3  0  0  0  0  0  0
  184.7810  179.0440  144.6970 C   0  0  0  0  0  0  0  0  0  0  0  0
  183.4410  179.3590  144.4220 C   0  0  0  0  0  3  0  0  0  0  0  0
  182.8560  178.9650  143.2150 C   0  0  0  0  0  0  0  0  0  0  0  0
  184.9410  177.9130  142.5560 C   0  0  0  0  0  3  0  0  0  0  0  0
  183.6060  178.2320  142.2810 C   0  0  0  0  0  0  0  0  0  0  0  0
  185.5240  178.3190  143.7600 C   0  0  0  0  0  3  0  0  0  0  0  0
  181.5590  177.7740  141.0580 O   0  0  0  0  0  0  0  0  0  0  0  0
  181.0740  179.0270  141.4890 C   0  0  0  0  0  2  0  0  0  0  0  0
  185.3950  179.4340  145.8910 O   0  0  0  0  0  0  0  0  0  0  0  0
  186.9780  178.1050  147.1040 C   0  0  0  0  0  1  0  0  0  0  0  0
  185.5380  178.5590  147.0020 C   0  0  0  0  0  2  0  0  0  0  0  0
  188.1330  178.2050  136.1670 C   0  0  0  0  0  3  0  0  0  0  0  0
  188.9640  179.0670  137.1010 C   0  0  0  0  0  1  0  0  0  0  0  0
  189.0370  177.1230  135.5990 C   0  0  0  0  0  1  0  0  0  0  0  0
  180.8320  175.6190  137.0580 O   0  0  0  0  0  1  0  0  0  0  0  0
  181.8150  176.3550  136.7780 C   0  0  0  0  0  0  0  0  0  0  0  0
  181.8100  177.0900  135.6000 O   0  0  0  0  0  0  0  0  0  0  0  0
  183.7810  174.0220  137.4980 C   0  0  0  0  0  2  0  0  0  0  0  0
  184.8540  173.3100  138.0380 O   0  0  0  0  0  1  0  0  0  0  0  0
  1  4  1  0  0  0  0
  1 13  1  0  0  0  0
  2 11  1  0  0  0  0
  2  8  1  0  0  0  0
  3 33  1  0  0  0  0
  3  7  1  0  0  0  0
  4  6  1  0  0  0  0
  5  4  1  0  0  0  0
  6 15  1  0  0  0  0
  7  1  1  0  0  0  0
  9  8  1  0  0  0  0
  9 10  1  0  0  0  0
 10 12  1  0  0  0  0
 11  3  1  0  0  0  0
 12 13  1  0  0  0  0
 13  6  1  0  0  0  0
 14 18  1  0  0  0  0
 15 22  1  0  0  0  0
 15 20  1  0  0  0  0
 16 24  1  0  0  0  0
 17 16  1  0  0  0  0
 18 17  2  0  0  0  0
 19 21  1  0  0  0  0
 20 19  2  0  0  0  0
 20 18  1  0  0  0  0
 21 16  2  0  0  0  0
 22 23  1  0  0  0  0
 23 14  1  0  0  0  0
 24 26  1  0  0  0  0
 26 25  1  0  0  0  0
 27  9  1  0  0  0  0
 27 28  1  0  0  0  0
 29 27  1  0  0  0  0
 31 30  1  0  0  0  0
 31  7  1  0  0  0  0
 32 31  2  0  0  0  0
 33 34  1  0  0  0  0
M  END
>  <MODEL>
1

>  <REMARK>
 VINA RESULT:      -7.1      0.000      0.000
  Name = 
  6 active torsions:
  status: ('A' for Active; 'I' for Inactive)
    1  A    between atoms: C_3  and  C_25
    2  A    between atoms: C_5  and  C_19
    3  A    between atoms: C_6  and  C_18
    4  A    between atoms: C_7  and  O_11
    5  A    between atoms: O_11  and  C_21
    6  A    between atoms: C_12  and  C_20
                            x       y       z     vdW  Elec       q    Type
                         _______ _______ _______ _____ _____    ______ ____

>  <TORSDO>
F 6

$$$$
=
 OpenBabel10272415303D

 34 37  0  0  1  0  0  0  0  0999 V2000
  189.8350  176.7820  137.5710 N   0  0  2  0  0  0  0  0  0  0  0  0
  191.8090  173.6250  135.7230 C   0  0  0  0  0  2  0  0  0  0  0  0
  189.7720  174.3510  137.0270 C   0  0  2  0  0  3  0  0  0  0  0  0
  189.0830  177.7670  138.3510 C   0  0  2  0  0  3  0  0  0  0  0  0
  189.2980  179.1550  137.7750 C   0  0  0  0  0  1  0  0  0  0  0  0
  189.9410  177.5770  139.5850 C   0  0  2  0  0  3  0  0  0  0  0  0
  188.9630  175.6120  137.3820 C   0  0  2  0  0  3  0  0  0  0  0  0
  192.7320  173.9810  136.8870 C   0  0  0  0  0  2  0  0  0  0  0  0
  193.1110  175.4580  136.8760 C   0  0  1  0  0  3  0  0  0  0  0  0
  193.0860  175.9500  138.3150 C   0  0  0  0  0  2  0  0  0  0  0  0
  190.5400  174.4730  135.7120 C   0  0  0  0  0  2  0  0  0  0  0  0
  192.0950  177.0900  138.4750 C   0  0  0  0  0  2  0  0  0  0  0  0
  190.6890  176.5640  138.7430 C   0  0  2  0  0  3  0  0  0  0  0  0
  188.0930  178.6610  142.7210 C   0  0  0  0  0  2  0  0  0  0  0  0
  189.1370  176.8690  140.6830 C   0  0  1  0  0  3  0  0  0  0  0  0
  191.0860  177.1670  144.5230 C   0  0  0  0  0  0  0  0  0  0  0  0
  189.9630  177.9600  144.2340 C   0  0  0  0  0  3  0  0  0  0  0  0
  189.3320  177.8620  142.9910 C   0  0  0  0  0  0  0  0  0  0  0  0
  190.9260  176.1600  142.3210 C   0  0  0  0  0  3  0  0  0  0  0  0
  189.8090  176.9530  142.0320 C   0  0  0  0  0  0  0  0  0  0  0  0
  191.5600  176.2690  143.5620 C   0  0  0  0  0  3  0  0  0  0  0  0
  187.7930  177.3260  140.7320 O   0  0  0  0  0  0  0  0  0  0  0  0
  187.7720  178.6480  141.2270 C   0  0  0  0  0  2  0  0  0  0  0  0
  191.7440  177.2510  145.7530 O   0  0  0  0  0  0  0  0  0  0  0  0
  192.3570  175.7210  147.4940 C   0  0  0  0  0  1  0  0  0  0  0  0
  191.2660  176.6040  146.9250 C   0  0  0  0  0  2  0  0  0  0  0  0
  194.4940  175.6750  136.2480 C   0  0  0  0  0  3  0  0  0  0  0  0
  195.3230  174.4030  136.2900 C   0  0  0  0  0  1  0  0  0  0  0  0
  194.3700  176.1050  134.7960 C   0  0  0  0  0  1  0  0  0  0  0  0
  186.7070  175.5100  136.5540 O   0  0  0  0  0  1  0  0  0  0  0  0
  187.8880  175.9060  136.3710 C   0  0  0  0  0  0  0  0  0  0  0  0
  188.2000  176.6280  135.2270 O   0  0  0  0  0  0  0  0  0  0  0  0
  188.9630  173.0590  137.1270 C   0  0  0  0  0  2  0  0  0  0  0  0
  188.5720  172.6100  135.8630 O   0  0  0  0  0  1  0  0  0  0  0  0
  1  4  1  0  0  0  0
  1 13  1  0  0  0  0
  2  8  1  0  0  0  0
  3 33  1  0  0  0  0
  3  7  1  0  0  0  0
  4  6  1  0  0  0  0
  5  4  1  0  0  0  0
  6 15  1  0  0  0  0
  7  1  1  0  0  0  0
  9  8  1  0  0  0  0
  9 10  1  0  0  0  0
 10 12  1  0  0  0  0
 11  2  1  0  0  0  0
 11  3  1  0  0  0  0
 12 13  1  0  0  0  0
 13  6  1  0  0  0  0
 14 18  1  0  0  0  0
 15 22  1  0  0  0  0
 15 20  1  0  0  0  0
 16 24  1  0  0  0  0
 17 16  1  0  0  0  0
 18 17  2  0  0  0  0
 19 21  1  0  0  0  0
 20 19  2  0  0  0  0
 20 18  1  0  0  0  0
 21 16  2  0  0  0  0
 22 23  1  0  0  0  0
 23 14  1  0  0  0  0
 24 26  1  0  0  0  0
 26 25  1  0  0  0  0
 27 28  1  0  0  0  0
 27  9  1  0  0  0  0
 29 27  1  0  0  0  0
 31 30  1  0  0  0  0
 31  7  1  0  0  0  0
 32 31  2  0  0  0  0
 34 33  1  0  0  0  0
M  END
>  <MODEL>
2

>  <REMARK>
 VINA RESULT:      -6.8      4.569      6.339
  Name = 
  6 active torsions:
  status: ('A' for Active; 'I' for Inactive)
    1  A    between atoms: C_3  and  C_25
    2  A    between atoms: C_5  and  C_19
    3  A    between atoms: C_6  and  C_18
    4  A    between atoms: C_7  and  O_11
    5  A    between atoms: O_11  and  C_21
    6  A    between atoms: C_12  and  C_20
                            x       y       z     vdW  Elec       q    Type
                         _______ _______ _______ _____ _____    ______ ____

>  <TORSDO>
F 6

$$$$
=
 OpenBabel10272415303D

 34 37  0  0  1  0  0  0  0  0999 V2000
  186.9140  177.8640  137.8430 N   0  0  2  0  0  0  0  0  0  0  0  0
  185.6560  179.1210  141.6000 C   0  0  0  0  0  2  0  0  0  0  0  0
  187.3360  177.7580  140.2970 C   0  0  2  0  0  3  0  0  0  0  0  0
  187.4030  177.2570  136.6040 C   0  0  2  0  0  3  0  0  0  0  0  0
  187.1460  178.1920  135.4350 C   0  0  0  0  0  1  0  0  0  0  0  0
  186.3650  176.1550  136.6280 C   0  0  2  0  0  3  0  0  0  0  0  0
  187.9270  177.6200  138.8820 C   0  0  2  0  0  3  0  0  0  0  0  0
  184.5070  178.2330  141.1260 C   0  0  0  0  0  2  0  0  0  0  0  0
  183.9780  178.6740  139.7650 C   0  0  1  0  0  3  0  0  0  0  0  0
  183.6920  177.4190  138.9540 C   0  0  0  0  0  2  0  0  0  0  0  0
  186.8070  179.1600  140.5990 C   0  0  0  0  0  2  0  0  0  0  0  0
  184.5090  177.4090  137.6740 C   0  0  0  0  0  2  0  0  0  0  0  0
  185.8930  176.8130  137.9090 C   0  0  2  0  0  3  0  0  0  0  0  0
  187.3440  173.0920  134.6070 C   0  0  0  0  0  2  0  0  0  0  0  0
  187.0310  174.8080  136.9330 C   0  0  1  0  0  3  0  0  0  0  0  0
  184.3220  171.5110  136.2820 C   0  0  0  0  0  0  0  0  0  0  0  0
  185.3410  171.7860  135.3560 C   0  0  0  0  0  3  0  0  0  0  0  0
  186.2190  172.8530  135.5670 C   0  0  0  0  0  0  0  0  0  0  0  0
  185.0820  173.3660  137.6490 C   0  0  0  0  0  3  0  0  0  0  0  0
  186.0950  173.6420  136.7230 C   0  0  0  0  0  0  0  0  0  0  0  0
  184.2010  172.3040  137.4270 C   0  0  0  0  0  3  0  0  0  0  0  0
  188.2480  174.6450  136.2190 O   0  0  0  0  0  0  0  0  0  0  0  0
  187.9590  174.4700  134.8480 C   0  0  0  0  0  2  0  0  0  0  0  0
  183.4240  170.4570  136.0920 O   0  0  0  0  0  0  0  0  0  0  0  0
  183.9730  168.1260  135.9830 C   0  0  0  0  0  1  0  0  0  0  0  0
  183.6780  169.3840  135.1940 C   0  0  0  0  0  2  0  0  0  0  0  0
  182.7140  179.5320  139.9080 C   0  0  0  0  0  3  0  0  0  0  0  0
  182.4630  180.3540  138.6550 C   0  0  0  0  0  1  0  0  0  0  0  0
  181.4920  178.6630  140.1510 C   0  0  0  0  0  1  0  0  0  0  0  0
  189.0040  179.6460  138.1590 O   0  0  0  0  0  0  0  0  0  0  0  0
  189.1280  178.5040  138.6740 C   0  0  0  0  0  0  0  0  0  0  0  0
  190.3840  178.0570  139.0630 O   0  0  0  0  0  1  0  0  0  0  0  0
  188.2490  177.2170  141.3950 C   0  0  0  0  0  2  0  0  0  0  0  0
  188.8830  178.2550  142.0820 O   0  0  0  0  0  1  0  0  0  0  0  0
  1 13  1  0  0  0  0
  1  7  1  0  0  0  0
  3 11  1  0  0  0  0
  3 33  1  0  0  0  0
  4  6  1  0  0  0  0
  4  1  1  0  0  0  0
  5  4  1  0  0  0  0
  6 15  1  0  0  0  0
  6 13  1  0  0  0  0
  7  3  1  0  0  0  0
  8  2  1  0  0  0  0
  9 27  1  0  0  0  0
  9  8  1  0  0  0  0
 10  9  1  0  0  0  0
 11  2  1  0  0  0  0
 12 13  1  0  0  0  0
 12 10  1  0  0  0  0
 14 23  1  0  0  0  0
 14 18  1  0  0  0  0
 16 21  1  0  0  0  0
 17 18  1  0  0  0  0
 17 16  2  0  0  0  0
 18 20  2  0  0  0  0
 20 15  1  0  0  0  0
 20 19  1  0  0  0  0
 21 19  2  0  0  0  0
 22 15  1  0  0  0  0
 23 22  1  0  0  0  0
 24 16  1  0  0  0  0
 26 25  1  0  0  0  0
 26 24  1  0  0  0  0
 27 29  1  0  0  0  0
 28 27  1  0  0  0  0
 30 31  2  0  0  0  0
 31  7  1  0  0  0  0
 31 32  1  0  0  0  0
 33 34  1  0  0  0  0
M  END
>  <MODEL>
3

>  <REMARK>
 VINA RESULT:      -5.3      3.199      8.371
  Name = 
  6 active torsions:
  status: ('A' for Active; 'I' for Inactive)
    1  A    between atoms: C_3  and  C_25
    2  A    between atoms: C_5  and  C_19
    3  A    between atoms: C_6  and  C_18
    4  A    between atoms: C_7  and  O_11
    5  A    between atoms: O_11  and  C_21
    6  A    between atoms: C_12  and  C_20
                            x       y       z     vdW  Elec       q    Type
                         _______ _______ _______ _____ _____    ______ ____

>  <TORSDO>
F 6

$$$$
=
 OpenBabel10272415303D

 34 37  0  0  1  0  0  0  0  0999 V2000
  185.3100  177.9990  137.3390 N   0  0  2  0  0  0  0  0  0  0  0  0
  181.1770  178.1430  137.7510 C   0  0  0  0  0  2  0  0  0  0  0  0
  183.3660  177.4280  138.7880 C   0  0  2  0  0  3  0  0  0  0  0  0
  186.7570  177.7810  137.2820 C   0  0  2  0  0  3  0  0  0  0  0  0
  187.4150  178.8900  136.4800 C   0  0  0  0  0  1  0  0  0  0  0  0
  186.6260  176.5330  136.4340 C   0  0  2  0  0  3  0  0  0  0  0  0
  184.8770  177.7170  138.7160 C   0  0  2  0  0  3  0  0  0  0  0  0
  181.3770  177.1910  136.5730 C   0  0  0  0  0  2  0  0  0  0  0  0
  182.2320  177.8210  135.4780 C   0  0  1  0  0  3  0  0  0  0  0  0
  183.1740  176.7470  134.9550 C   0  0  0  0  0  2  0  0  0  0  0  0
  182.5010  178.6090  138.3490 C   0  0  0  0  0  2  0  0  0  0  0  0
  184.6220  177.1690  135.1350 C   0  0  0  0  0  2  0  0  0  0  0  0
  185.1360  176.7940  136.5210 C   0  0  2  0  0  3  0  0  0  0  0  0
  187.7900  173.0040  135.6490 C   0  0  0  0  0  2  0  0  0  0  0  0
  186.9990  175.2940  137.2570 C   0  0  1  0  0  3  0  0  0  0  0  0
  184.2350  172.0460  136.5850 C   0  0  0  0  0  0  0  0  0  0  0  0
  185.5120  172.0240  136.0010 C   0  0  0  0  0  3  0  0  0  0  0  0
  186.4070  173.0740  136.2200 C   0  0  0  0  0  0  0  0  0  0  0  0
  184.7650  174.1720  137.6300 C   0  0  0  0  0  3  0  0  0  0  0  0
  186.0360  174.1500  137.0440 C   0  0  0  0  0  0  0  0  0  0  0  0
  183.8700  173.1230  137.4000 C   0  0  0  0  0  3  0  0  0  0  0  0
  188.3460  174.8990  137.0380 O   0  0  0  0  0  0  0  0  0  0  0  0
  188.4670  174.3720  135.7340 C   0  0  0  0  0  2  0  0  0  0  0  0
  183.3160  171.0150  136.3760 O   0  0  0  0  0  0  0  0  0  0  0  0
  182.3490  169.2160  135.1210 C   0  0  0  0  0  1  0  0  0  0  0  0
  182.8660  170.6390  135.0810 C   0  0  0  0  0  2  0  0  0  0  0  0
  181.3630  178.3850  134.3460 C   0  0  0  0  0  3  0  0  0  0  0  0
  179.9820  177.7530  134.3460 C   0  0  0  0  0  1  0  0  0  0  0  0
  181.1900  179.8870  134.4910 C   0  0  0  0  0  1  0  0  0  0  0  0
  184.8100  179.9810  139.5240 O   0  0  0  0  0  0  0  0  0  0  0  0
  185.2930  178.8250  139.6450 C   0  0  0  0  0  0  0  0  0  0  0  0
  186.2150  178.5670  140.6500 O   0  0  0  0  0  1  0  0  0  0  0  0
  182.9220  176.8300  140.1220 C   0  0  0  0  0  2  0  0  0  0  0  0
  182.2510  175.6190  139.9330 O   0  0  0  0  0  1  0  0  0  0  0  0
  1  7  1  0  0  0  0
  2 11  1  0  0  0  0
  3 33  1  0  0  0  0
  4  1  1  0  0  0  0
  5  4  1  0  0  0  0
  6 13  1  0  0  0  0
  6 15  1  0  0  0  0
  6  4  1  0  0  0  0
  7  3  1  0  0  0  0
  7 31  1  0  0  0  0
  8  2  1  0  0  0  0
  9  8  1  0  0  0  0
 10 12  1  0  0  0  0
 10  9  1  0  0  0  0
 11  3  1  0  0  0  0
 12 13  1  0  0  0  0
 13  1  1  0  0  0  0
 14 23  1  0  0  0  0
 14 18  1  0  0  0  0
 16 21  1  0  0  0  0
 17 18  1  0  0  0  0
 17 16  2  0  0  0  0
 18 20  2  0  0  0  0
 20 15  1  0  0  0  0
 20 19  1  0  0  0  0
 21 19  2  0  0  0  0
 22 15  1  0  0  0  0
 23 22  1  0  0  0  0
 24 16  1  0  0  0  0
 26 25  1  0  0  0  0
 26 24  1  0  0  0  0
 27 28  1  0  0  0  0
 27 29  1  0  0  0  0
 27  9  1  0  0  0  0
 30 31  2  0  0  0  0
 31 32  1  0  0  0  0
 34 33  1  0  0  0  0
M  END
>  <MODEL>
4

>  <REMARK>
 VINA RESULT:      -5.1      3.205      7.824
  Name = 
  6 active torsions:
  status: ('A' for Active; 'I' for Inactive)
    1  A    between atoms: C_3  and  C_25
    2  A    between atoms: C_5  and  C_19
    3  A    between atoms: C_6  and  C_18
    4  A    between atoms: C_7  and  O_11
    5  A    between atoms: O_11  and  C_21
    6  A    between atoms: C_12  and  C_20
                            x       y       z     vdW  Elec       q    Type
                         _______ _______ _______ _____ _____    ______ ____

>  <TORSDO>
F 6

$$$$
=
 OpenBabel10272415303D

 34 37  0  0  1  0  0  0  0  0999 V2000
  185.0080  177.5090  136.7410 N   0  0  2  0  0  0  0  0  0  0  0  0
  182.5540  180.0430  138.9390 C   0  0  0  0  0  2  0  0  0  0  0  0
  184.4250  178.3490  139.0130 C   0  0  2  0  0  3  0  0  0  0  0  0
  185.8610  176.4980  136.1140 C   0  0  2  0  0  3  0  0  0  0  0  0
  186.1970  176.9140  134.6930 C   0  0  0  0  0  1  0  0  0  0  0  0
  184.7680  175.4500  136.1060 C   0  0  2  0  0  3  0  0  0  0  0  0
  185.4990  177.7090  138.1130 C   0  0  2  0  0  3  0  0  0  0  0  0
  181.5790  179.0030  138.3890 C   0  0  0  0  0  2  0  0  0  0  0  0
  181.6810  178.8800  136.8730 C   0  0  1  0  0  3  0  0  0  0  0  0
  181.5800  177.4030  136.5230 C   0  0  0  0  0  2  0  0  0  0  0  0
  183.9990  179.7420  138.5510 C   0  0  0  0  0  2  0  0  0  0  0  0
  182.8230  176.9410  135.7820 C   0  0  0  0  0  2  0  0  0  0  0  0
  183.9200  176.5250  136.7550 C   0  0  2  0  0  3  0  0  0  0  0  0
  186.6560  172.1570  136.0070 C   0  0  0  0  0  2  0  0  0  0  0  0
  185.0900  174.3410  137.1150 C   0  0  1  0  0  3  0  0  0  0  0  0
  183.1830  170.6180  136.0480 C   0  0  0  0  0  0  0  0  0  0  0  0
  184.5580  170.7990  135.8320 C   0  0  0  0  0  3  0  0  0  0  0  0
  185.1760  172.0030  136.1780 C   0  0  0  0  0  0  0  0  0  0  0  0
  183.0510  172.8530  136.9850 C   0  0  0  0  0  3  0  0  0  0  0  0
  184.4210  173.0330  136.7650 C   0  0  0  0  0  0  0  0  0  0  0  0
  182.4360  171.6500  136.6270 C   0  0  0  0  0  3  0  0  0  0  0  0
  186.4890  174.1870  137.3030 O   0  0  0  0  0  0  0  0  0  0  0  0
  187.0530  173.6270  136.1360 C   0  0  0  0  0  2  0  0  0  0  0  0
  182.5360  169.4280  135.7030 O   0  0  0  0  0  0  0  0  0  0  0  0
  180.4450  168.4070  135.1290 C   0  0  0  0  0  1  0  0  0  0  0  0
  181.5360  169.3630  134.6950 C   0  0  0  0  0  2  0  0  0  0  0  0
  180.5780  179.6850  136.1720 C   0  0  0  0  0  3  0  0  0  0  0  0
  180.7280  181.1730  136.4410 C   0  0  0  0  0  1  0  0  0  0  0  0
  180.6240  179.4750  134.6680 C   0  0  0  0  0  1  0  0  0  0  0  0
  187.6350  178.3330  139.0280 O   0  0  0  0  0  1  0  0  0  0  0  0
  186.7850  178.4900  138.1120 C   0  0  0  0  0  0  0  0  0  0  0  0
  187.0410  179.3890  137.0850 O   0  0  0  0  0  0  0  0  0  0  0  0
  184.7650  178.2930  140.5010 C   0  0  0  0  0  2  0  0  0  0  0  0
  185.2480  179.5220  140.9550 O   0  0  0  0  0  1  0  0  0  0  0  0
  1 13  1  0  0  0  0
  1  7  1  0  0  0  0
  3 33  1  0  0  0  0
  4  1  1  0  0  0  0
  5  4  1  0  0  0  0
  6  4  1  0  0  0  0
  6 13  1  0  0  0  0
  6 15  1  0  0  0  0
  7  3  1  0  0  0  0
  8  2  1  0  0  0  0
  9  8  1  0  0  0  0
 10  9  1  0  0  0  0
 11  2  1  0  0  0  0
 11  3  1  0  0  0  0
 12 10  1  0  0  0  0
 12 13  1  0  0  0  0
 14 23  1  0  0  0  0
 14 18  1  0  0  0  0
 15 22  1  0  0  0  0
 16 21  1  0  0  0  0
 17 16  2  0  0  0  0
 17 18  1  0  0  0  0
 18 20  2  0  0  0  0
 20 19  1  0  0  0  0
 20 15  1  0  0  0  0
 21 19  2  0  0  0  0
 23 22  1  0  0  0  0
 24 16  1  0  0  0  0
 26 25  1  0  0  0  0
 26 24  1  0  0  0  0
 27 28  1  0  0  0  0
 27  9  1  0  0  0  0
 29 27  1  0  0  0  0
 31  7  1  0  0  0  0
 31 30  1  0  0  0  0
 32 31  2  0  0  0  0
 33 34  1  0  0  0  0
M  END
>  <MODEL>
5

>  <REMARK>
 VINA RESULT:      -5.1      3.190      8.365
  Name = 
  6 active torsions:
  status: ('A' for Active; 'I' for Inactive)
    1  A    between atoms: C_3  and  C_25
    2  A    between atoms: C_5  and  C_19
    3  A    between atoms: C_6  and  C_18
    4  A    between atoms: C_7  and  O_11
    5  A    between atoms: O_11  and  C_21
    6  A    between atoms: C_12  and  C_20
                            x       y       z     vdW  Elec       q    Type
                         _______ _______ _______ _____ _____    ______ ____

>  <TORSDO>
F 6

$$$$
=
 OpenBabel10272415303D

 34 37  0  0  1  0  0  0  0  0999 V2000
  188.5780  177.0820  138.0940 N   0  0  2  0  0  0  0  0  0  0  0  0
  188.8090  173.9570  135.3630 C   0  0  0  0  0  2  0  0  0  0  0  0
  187.5180  174.9810  137.2760 C   0  0  2  0  0  3  0  0  0  0  0  0
  188.4280  178.0540  139.1780 C   0  0  2  0  0  3  0  0  0  0  0  0
  189.0000  179.3950  138.7520 C   0  0  0  0  0  1  0  0  0  0  0  0
  189.4060  177.3340  140.0810 C   0  0  2  0  0  3  0  0  0  0  0  0
  187.3210  176.3210  138.0080 C   0  0  2  0  0  3  0  0  0  0  0  0
  190.0310  173.7340  136.2530 C   0  0  0  0  0  2  0  0  0  0  0  0
  190.9080  174.9790  136.3290 C   0  0  1  0  0  3  0  0  0  0  0  0
  191.3820  175.1210  137.7680 C   0  0  0  0  0  2  0  0  0  0  0  0
  187.9670  175.1430  135.8240 C   0  0  0  0  0  2  0  0  0  0  0  0
  190.9350  176.4500  138.3510 C   0  0  0  0  0  2  0  0  0  0  0  0
  189.5300  176.3500  138.9360 C   0  0  2  0  0  3  0  0  0  0  0  0
  187.8970  178.5740  143.3380 C   0  0  0  0  0  2  0  0  0  0  0  0
  188.6630  176.6920  141.2590 C   0  0  1  0  0  3  0  0  0  0  0  0
  190.9500  176.9490  144.9120 C   0  0  0  0  0  0  0  0  0  0  0  0
  189.8500  177.7970  144.7010 C   0  0  0  0  0  3  0  0  0  0  0  0
  189.1090  177.7130  143.5190 C   0  0  0  0  0  0  0  0  0  0  0  0
  190.5460  175.9130  142.7550 C   0  0  0  0  0  3  0  0  0  0  0  0
  189.4530  176.7620  142.5440 C   0  0  0  0  0  0  0  0  0  0  0  0
  191.2900  176.0090  143.9350 C   0  0  0  0  0  3  0  0  0  0  0  0
  187.3550  177.2230  141.4130 O   0  0  0  0  0  0  0  0  0  0  0  0
  187.4480  178.5520  141.8780 C   0  0  0  0  0  2  0  0  0  0  0  0
  191.7150  177.0180  146.0790 O   0  0  0  0  0  0  0  0  0  0  0  0
  192.6440  175.7640  147.8980 C   0  0  0  0  0  1  0  0  0  0  0  0
  191.3810  176.3000  147.2600 C   0  0  0  0  0  2  0  0  0  0  0  0
  192.1010  174.8810  135.3680 C   0  0  0  0  0  3  0  0  0  0  0  0
  192.0840  176.0110  134.3540 C   0  0  0  0  0  1  0  0  0  0  0  0
  193.4160  174.9510  136.1260 C   0  0  0  0  0  1  0  0  0  0  0  0
  185.0920  177.2210  137.9220 O   0  0  0  0  0  1  0  0  0  0  0  0
  186.2320  177.1570  137.3920 C   0  0  0  0  0  0  0  0  0  0  0  0
  186.4910  177.8710  136.2300 O   0  0  0  0  0  0  0  0  0  0  0  0
  186.3370  174.0240  137.4300 C   0  0  0  0  0  2  0  0  0  0  0  0
  186.7740  172.7170  137.6630 O   0  0  0  0  0  1  0  0  0  0  0  0
  1 13  1  0  0  0  0
  1  4  1  0  0  0  0
  2 11  1  0  0  0  0
  2  8  1  0  0  0  0
  3 33  1  0  0  0  0
  3  7  1  0  0  0  0
  4  6  1  0  0  0  0
  5  4  1  0  0  0  0
  6 15  1  0  0  0  0
  7  1  1  0  0  0  0
  8  9  1  0  0  0  0
  9 10  1  0  0  0  0
 10 12  1  0  0  0  0
 11  3  1  0  0  0  0
 12 13  1  0  0  0  0
 13  6  1  0  0  0  0
 14 18  1  0  0  0  0
 15 22  1  0  0  0  0
 15 20  1  0  0  0  0
 16 24  1  0  0  0  0
 17 16  1  0  0  0  0
 18 17  2  0  0  0  0
 19 21  1  0  0  0  0
 20 19  2  0  0  0  0
 20 18  1  0  0  0  0
 21 16  2  0  0  0  0
 22 23  1  0  0  0  0
 23 14  1  0  0  0  0
 24 26  1  0  0  0  0
 26 25  1  0  0  0  0
 27 29  1  0  0  0  0
 27  9  1  0  0  0  0
 28 27  1  0  0  0  0
 31 30  1  0  0  0  0
 31  7  1  0  0  0  0
 32 31  2  0  0  0  0
 33 34  1  0  0  0  0
M  END
>  <MODEL>
6

>  <REMARK>
 VINA RESULT:      -5.0      3.873      5.409
  Name = 
  6 active torsions:
  status: ('A' for Active; 'I' for Inactive)
    1  A    between atoms: C_3  and  C_25
    2  A    between atoms: C_5  and  C_19
    3  A    between atoms: C_6  and  C_18
    4  A    between atoms: C_7  and  O_11
    5  A    between atoms: O_11  and  C_21
    6  A    between atoms: C_12  and  C_20
                            x       y       z     vdW  Elec       q    Type
                         _______ _______ _______ _____ _____    ______ ____

>  <TORSDO>
F 6

$$$$
=
 OpenBabel10272415303D

 34 37  0  0  1  0  0  0  0  0999 V2000
  182.1860  177.0790  137.9640 N   0  0  2  0  0  0  0  0  0  0  0  0
  180.0270  180.1730  139.7070 C   0  0  0  0  0  2  0  0  0  0  0  0
  181.2960  179.3870  137.6700 C   0  0  2  0  0  3  0  0  0  0  0  0
  183.0520  176.1240  137.2700 C   0  0  2  0  0  3  0  0  0  0  0  0
  182.6960  174.7070  137.6840 C   0  0  0  0  0  1  0  0  0  0  0  0
  184.2960  176.5830  138.0020 C   0  0  2  0  0  3  0  0  0  0  0  0
  181.7780  178.0960  136.9830 C   0  0  2  0  0  3  0  0  0  0  0  0
  181.2840  180.0950  140.5720 C   0  0  0  0  0  2  0  0  0  0  0  0
  181.5090  178.6870  141.1140 C   0  0  1  0  0  3  0  0  0  0  0  0
  183.0000  178.3950  141.0330 C   0  0  0  0  0  2  0  0  0  0  0  0
  180.0610  179.1830  138.5470 C   0  0  0  0  0  2  0  0  0  0  0  0
  183.2610  177.1750  140.1670 C   0  0  0  0  0  2  0  0  0  0  0  0
  183.3640  177.5570  138.6940 C   0  0  2  0  0  3  0  0  0  0  0  0
  187.3410  175.6720  135.9220 C   0  0  0  0  0  2  0  0  0  0  0  0
  185.2290  177.3290  137.0400 C   0  0  1  0  0  3  0  0  0  0  0  0
  189.2480  177.5780  138.5990 C   0  0  0  0  0  0  0  0  0  0  0  0
  188.9400  176.6720  137.5710 C   0  0  0  0  0  3  0  0  0  0  0  0
  187.6390  176.5920  137.0660 C   0  0  0  0  0  0  0  0  0  0  0  0
  186.9450  178.3430  138.5960 C   0  0  0  0  0  3  0  0  0  0  0  0
  186.6380  177.4370  137.5740 C   0  0  0  0  0  0  0  0  0  0  0  0
  188.2450  178.4120  139.1040 C   0  0  0  0  0  3  0  0  0  0  0  0
  185.2000  176.7720  135.7340 O   0  0  0  0  0  0  0  0  0  0  0  0
  185.8300  175.5090  135.7560 C   0  0  0  0  0  2  0  0  0  0  0  0
  190.5370  177.6720  139.1310 O   0  0  0  0  0  0  0  0  0  0  0  0
  192.3210  177.4990  140.7220 C   0  0  0  0  0  1  0  0  0  0  0  0
  190.8760  177.1670  140.4160 C   0  0  0  0  0  2  0  0  0  0  0  0
  181.0040  178.5580  142.5570 C   0  0  0  0  0  3  0  0  0  0  0  0
  182.1450  178.6870  143.5520 C   0  0  0  0  0  1  0  0  0  0  0  0
  179.9820  179.6360  142.8740 C   0  0  0  0  0  1  0  0  0  0  0  0
  179.9840  176.6100  136.3850 O   0  0  0  0  0  1  0  0  0  0  0  0
  180.7550  177.5390  136.0290 C   0  0  0  0  0  0  0  0  0  0  0  0
  180.6580  178.0610  134.7470 O   0  0  0  0  0  0  0  0  0  0  0  0
  181.1580  180.5710  136.7150 C   0  0  0  0  0  2  0  0  0  0  0  0
  181.1890  181.7840  137.4080 O   0  0  0  0  0  1  0  0  0  0  0  0
  1 13  1  0  0  0  0
  2  8  1  0  0  0  0
  3 11  1  0  0  0  0
  4  5  1  0  0  0  0
  4  1  1  0  0  0  0
  4  6  1  0  0  0  0
  6 13  1  0  0  0  0
  7  3  1  0  0  0  0
  7  1  1  0  0  0  0
  8  9  1  0  0  0  0
  9 27  1  0  0  0  0
 10  9  1  0  0  0  0
 11  2  1  0  0  0  0
 12 10  1  0  0  0  0
 13 12  1  0  0  0  0
 14 18  1  0  0  0  0
 15 20  1  0  0  0  0
 15  6  1  0  0  0  0
 16 21  1  0  0  0  0
 16 24  1  0  0  0  0
 17 16  2  0  0  0  0
 18 17  1  0  0  0  0
 18 20  2  0  0  0  0
 19 21  2  0  0  0  0
 20 19  1  0  0  0  0
 22 23  1  0  0  0  0
 22 15  1  0  0  0  0
 23 14  1  0  0  0  0
 24 26  1  0  0  0  0
 26 25  1  0  0  0  0
 27 29  1  0  0  0  0
 27 28  1  0  0  0  0
 31 30  1  0  0  0  0
 31  7  1  0  0  0  0
 32 31  2  0  0  0  0
 33 34  1  0  0  0  0
 33  3  1  0  0  0  0
M  END
>  <MODEL>
7

>  <REMARK>
 VINA RESULT:      -4.6      2.699      6.729
  Name = 
  6 active torsions:
  status: ('A' for Active; 'I' for Inactive)
    1  A    between atoms: C_3  and  C_25
    2  A    between atoms: C_5  and  C_19
    3  A    between atoms: C_6  and  C_18
    4  A    between atoms: C_7  and  O_11
    5  A    between atoms: O_11  and  C_21
    6  A    between atoms: C_12  and  C_20
                            x       y       z     vdW  Elec       q    Type
                         _______ _______ _______ _____ _____    ______ ____

>  <TORSDO>
F 6

$$$$
=
 OpenBabel10272415303D

 34 37  0  0  1  0  0  0  0  0999 V2000
  189.1010  177.3110  137.3470 N   0  0  2  0  0  0  0  0  0  0  0  0
  191.3210  174.0710  135.9850 C   0  0  0  0  0  2  0  0  0  0  0  0
  189.0420  174.9140  136.6720 C   0  0  2  0  0  3  0  0  0  0  0  0
  188.2190  178.3260  137.9260 C   0  0  2  0  0  3  0  0  0  0  0  0
  188.6880  179.7120  137.5180 C   0  0  0  0  0  1  0  0  0  0  0  0
  188.6550  178.0250  139.3440 C   0  0  2  0  0  3  0  0  0  0  0  0
  188.2490  176.2230  136.8440 C   0  0  2  0  0  3  0  0  0  0  0  0
  191.8770  174.3110  137.3880 C   0  0  0  0  0  2  0  0  0  0  0  0
  192.3400  175.7530  137.5730 C   0  0  1  0  0  3  0  0  0  0  0  0
  191.9200  176.1960  138.9660 C   0  0  0  0  0  2  0  0  0  0  0  0
  190.1730  175.0190  135.6500 C   0  0  0  0  0  2  0  0  0  0  0  0
  191.0050  177.4050  138.8920 C   0  0  0  0  0  2  0  0  0  0  0  0
  189.5510  176.9850  138.7040 C   0  0  2  0  0  3  0  0  0  0  0  0
  186.0060  179.1550  141.8200 C   0  0  0  0  0  2  0  0  0  0  0  0
  187.5160  177.3480  140.1150 C   0  0  1  0  0  3  0  0  0  0  0  0
  188.2160  177.4170  144.3750 C   0  0  0  0  0  0  0  0  0  0  0  0
  187.2820  178.2910  143.7940 C   0  0  0  0  0  3  0  0  0  0  0  0
  187.0550  178.2670  142.4160 C   0  0  0  0  0  0  0  0  0  0  0  0
  188.6770  176.4770  142.1850 C   0  0  0  0  0  3  0  0  0  0  0  0
  187.7490  177.3510  141.6080 C   0  0  0  0  0  0  0  0  0  0  0  0
  188.9080  176.5110  143.5630 C   0  0  0  0  0  3  0  0  0  0  0  0
  186.2490  177.8930  139.7760 O   0  0  0  0  0  0  0  0  0  0  0  0
  186.1550  179.2010  140.3000 C   0  0  0  0  0  2  0  0  0  0  0  0
  188.4720  177.4240  145.7490 O   0  0  0  0  0  0  0  0  0  0  0  0
  189.7640  177.3320  147.7650 C   0  0  0  0  0  1  0  0  0  0  0  0
  189.7660  177.6590  146.2870 C   0  0  0  0  0  2  0  0  0  0  0  0
  193.8590  175.8790  137.3930 C   0  0  0  0  0  3  0  0  0  0  0  0
  194.5630  174.5760  137.7310 C   0  0  0  0  0  1  0  0  0  0  0  0
  194.2080  176.2420  135.9590 C   0  0  0  0  0  1  0  0  0  0  0  0
  186.3350  176.3450  135.3920 O   0  0  0  0  0  1  0  0  0  0  0  0
  187.5460  176.6370  135.5790 C   0  0  0  0  0  0  0  0  0  0  0  0
  188.2380  177.3550  134.6130 O   0  0  0  0  0  0  0  0  0  0  0  0
  188.1550  173.6880  136.4560 C   0  0  0  0  0  2  0  0  0  0  0  0
  188.1010  173.3370  135.1050 O   0  0  0  0  0  1  0  0  0  0  0  0
  1  4  1  0  0  0  0
  1 13  1  0  0  0  0
  2  8  1  0  0  0  0
  3  7  1  0  0  0  0
  4  6  1  0  0  0  0
  5  4  1  0  0  0  0
  6 15  1  0  0  0  0
  7  1  1  0  0  0  0
  8  9  1  0  0  0  0
  9 10  1  0  0  0  0
 11  2  1  0  0  0  0
 11  3  1  0  0  0  0
 12 10  1  0  0  0  0
 13 12  1  0  0  0  0
 13  6  1  0  0  0  0
 14 18  1  0  0  0  0
 15 20  1  0  0  0  0
 16 24  1  0  0  0  0
 17 16  1  0  0  0  0
 18 17  2  0  0  0  0
 19 21  1  0  0  0  0
 20 19  2  0  0  0  0
 20 18  1  0  0  0  0
 21 16  2  0  0  0  0
 22 15  1  0  0  0  0
 22 23  1  0  0  0  0
 23 14  1  0  0  0  0
 24 26  1  0  0  0  0
 26 25  1  0  0  0  0
 27  9  1  0  0  0  0
 27 28  1  0  0  0  0
 29 27  1  0  0  0  0
 30 31  1  0  0  0  0
 31  7  1  0  0  0  0
 32 31  2  0  0  0  0
 33  3  1  0  0  0  0
 34 33  1  0  0  0  0
M  END
>  <MODEL>
8

>  <REMARK>
 VINA RESULT:      -4.5      3.618      5.146
  Name = 
  6 active torsions:
  status: ('A' for Active; 'I' for Inactive)
    1  A    between atoms: C_3  and  C_25
    2  A    between atoms: C_5  and  C_19
    3  A    between atoms: C_6  and  C_18
    4  A    between atoms: C_7  and  O_11
    5  A    between atoms: O_11  and  C_21
    6  A    between atoms: C_12  and  C_20
                            x       y       z     vdW  Elec       q    Type
                         _______ _______ _______ _____ _____    ______ ____

>  <TORSDO>
F 6

$$$$
=
 OpenBabel10272415303D

 34 37  0  0  1  0  0  0  0  0999 V2000
  184.0970  176.3250  136.0880 N   0  0  2  0  0  0  0  0  0  0  0  0
  181.2260  173.6160  137.3920 C   0  0  0  0  0  2  0  0  0  0  0  0
  182.7400  175.5360  138.0230 C   0  0  2  0  0  3  0  0  0  0  0  0
  185.1850  177.2600  135.8010 C   0  0  2  0  0  3  0  0  0  0  0  0
  185.1260  177.6910  134.3460 C   0  0  0  0  0  1  0  0  0  0  0  0
  186.2590  176.2090  135.9900 C   0  0  2  0  0  3  0  0  0  0  0  0
  183.5280  176.6990  137.3920 C   0  0  2  0  0  3  0  0  0  0  0  0
  182.4240  172.7250  137.0650 C   0  0  0  0  0  2  0  0  0  0  0  0
  182.9220  172.9500  135.6420 C   0  0  1  0  0  3  0  0  0  0  0  0
  184.4430  172.9300  135.6780 C   0  0  0  0  0  2  0  0  0  0  0  0
  181.5360  175.0960  137.1920 C   0  0  0  0  0  2  0  0  0  0  0  0
  185.0100  174.2430  135.1650 C   0  0  0  0  0  2  0  0  0  0  0  0
  185.1030  175.2750  136.2830 C   0  0  2  0  0  3  0  0  0  0  0  0
  189.2020  178.4220  136.9220 C   0  0  0  0  0  2  0  0  0  0  0  0
  187.0560  176.4910  137.2690 C   0  0  1  0  0  3  0  0  0  0  0  0
  191.1470  175.1590  136.9210 C   0  0  0  0  0  0  0  0  0  0  0  0
  190.8360  176.5250  136.8330 C   0  0  0  0  0  3  0  0  0  0  0  0
  189.5120  176.9570  136.9470 C   0  0  0  0  0  0  0  0  0  0  0  0
  188.7970  174.6590  137.2630 C   0  0  0  0  0  3  0  0  0  0  0  0
  188.4880  176.0210  137.1710 C   0  0  0  0  0  0  0  0  0  0  0  0
  190.1230  174.2320  137.1390 C   0  0  0  0  0  3  0  0  0  0  0  0
  186.9720  177.8560  137.6550 O   0  0  0  0  0  0  0  0  0  0  0  0
  187.7010  178.6410  136.7350 C   0  0  0  0  0  2  0  0  0  0  0  0
  192.4610  174.6970  136.8010 O   0  0  0  0  0  0  0  0  0  0  0  0
  194.5360  174.6510  138.0010 C   0  0  0  0  0  1  0  0  0  0  0  0
  193.5870  175.4850  137.1650 C   0  0  0  0  0  2  0  0  0  0  0  0
  182.3840  171.8770  134.6860 C   0  0  0  0  0  3  0  0  0  0  0  0
  182.5490  170.4850  135.2720 C   0  0  0  0  0  1  0  0  0  0  0  0
  180.9070  172.0930  134.4020 C   0  0  0  0  0  1  0  0  0  0  0  0
  182.7240  178.8230  138.1830 O   0  0  0  0  0  1  0  0  0  0  0  0
  182.7030  177.9520  137.2750 C   0  0  0  0  0  0  0  0  0  0  0  0
  181.9160  178.1520  136.1490 O   0  0  0  0  0  0  0  0  0  0  0  0
  182.3980  175.7590  139.4950 C   0  0  0  0  0  2  0  0  0  0  0  0
  181.0710  176.1670  139.6480 O   0  0  0  0  0  1  0  0  0  0  0  0
  1 13  1  0  0  0  0
  1  7  1  0  0  0  0
  3 33  1  0  0  0  0
  4  6  1  0  0  0  0
  4  1  1  0  0  0  0
  5  4  1  0  0  0  0
  6 13  1  0  0  0  0
  6 15  1  0  0  0  0
  7  3  1  0  0  0  0
  8  2  1  0  0  0  0
  9 10  1  0  0  0  0
  9  8  1  0  0  0  0
 11  2  1  0  0  0  0
 11  3  1  0  0  0  0
 12 10  1  0  0  0  0
 12 13  1  0  0  0  0
 14 18  1  0  0  0  0
 15 22  1  0  0  0  0
 16 21  1  0  0  0  0
 17 16  2  0  0  0  0
 17 18  1  0  0  0  0
 18 20  2  0  0  0  0
 20 19  1  0  0  0  0
 20 15  1  0  0  0  0
 21 19  2  0  0  0  0
 23 14  1  0  0  0  0
 23 22  1  0  0  0  0
 24 16  1  0  0  0  0
 24 26  1  0  0  0  0
 26 25  1  0  0  0  0
 27 28  1  0  0  0  0
 27  9  1  0  0  0  0
 29 27  1  0  0  0  0
 31  7  1  0  0  0  0
 31 30  1  0  0  0  0
 32 31  2  0  0  0  0
 33 34  1  0  0  0  0
M  END
>  <MODEL>
9

>  <REMARK>
 VINA RESULT:      -4.4      3.981      7.382
  Name = 
  6 active torsions:
  status: ('A' for Active; 'I' for Inactive)
    1  A    between atoms: C_3  and  C_25
    2  A    between atoms: C_5  and  C_19
    3  A    between atoms: C_6  and  C_18
    4  A    between atoms: C_7  and  O_11
    5  A    between atoms: O_11  and  C_21
    6  A    between atoms: C_12  and  C_20
                            x       y       z     vdW  Elec       q    Type
                         _______ _______ _______ _____ _____    ______ ____

>  <TORSDO>
F 6

$$$$
