=
 OpenBabel10272415063D

 37 39  0  0  1  0  0  0  0  0999 V2000
  190.6760  176.2720  136.5660 C   0  0  0  0  0  2  0  0  0  0  0  0
  192.2070  172.9830  135.7220 C   0  0  0  0  0  2  0  0  0  0  0  0
  188.1260  176.5560  136.9670 C   0  0  2  0  0  0  0  0  0  0  0  0
  190.8010  174.9640  137.3290 C   0  0  2  0  0  3  0  0  0  0  0  0
  189.5770  177.0890  137.2290 C   0  0  1  0  0  3  0  0  0  0  0  0
  190.8180  173.4690  135.3350 C   0  0  0  0  0  2  0  0  0  0  0  0
  187.5740  176.0110  138.1340 O   0  0  0  0  0  1  0  0  0  0  0  0
  189.9440  177.6000  138.6560 C   0  0  2  0  0  3  0  0  0  0  0  0
  187.7280  173.1480  136.5930 C   0  0  0  0  0  2  0  0  0  0  0  0
  188.0990  175.4580  135.8690 C   0  0  0  0  0  2  0  0  0  0  0  0
  191.4560  177.8390  138.8640 C   0  0  0  0  0  2  0  0  0  0  0  0
  188.6100  174.1150  136.3530 C   0  0  0  0  0  0  0  0  0  0  0  0
  192.2720  174.6450  137.6660 C   0  0  1  0  0  3  0  0  0  0  0  0
  193.0420  174.0580  136.4450 C   0  0  1  0  0  3  0  0  0  0  0  0
  192.9690  175.9130  138.2070 C   0  0  0  0  0  2  0  0  0  0  0  0
  192.2100  176.5920  139.3480 C   0  0  0  0  0  2  0  0  0  0  0  0
  190.0740  173.8320  136.6070 C   0  0  2  0  0  3  0  0  0  0  0  0
  186.0940  178.0040  137.4970 C   0  0  0  0  0  1  0  0  0  0  0  0
  187.2500  177.7510  136.5370 C   0  0  0  0  0  3  0  0  0  0  0  0
  186.7090  177.6130  135.1190 C   0  0  0  0  0  1  0  0  0  0  0  0
  194.4080  173.4130  136.8000 C   0  0  2  0  0  3  0  0  0  0  0  0
  194.8720  173.6600  138.2260 C   0  0  0  0  0  2  0  0  0  0  0  0
  195.2780  172.4560  138.8030 O   0  0  0  0  0  1  0  0  0  0  0  0
  195.5070  173.9340  135.8760 C   0  0  0  0  0  2  0  0  0  0  0  0
  195.6360  176.2130  135.3640 C   0  0  0  0  0  1  0  0  0  0  0  0
  197.4600  175.1220  136.3210 C   0  0  0  0  0  1  0  0  0  0  0  0
  196.0100  175.2130  136.3510 N   0  0  0  0  0  0  0  0  0  0  0  0
  189.4260  176.7860  139.6740 O   0  0  0  0  0  0  0  0  0  0  0  0
  187.9740  178.4280  140.6750 C   0  0  0  0  0  1  0  0  0  0  0  0
  189.2610  177.6170  140.7890 C   0  0  1  0  0  3  0  0  0  0  0  0
  189.3170  176.7930  142.0820 C   0  0  1  0  0  3  0  0  0  0  0  0
  190.3000  175.8060  141.9820 O   0  0  0  0  0  1  0  0  0  0  0  0
  189.5310  177.6330  143.3470 C   0  0  2  0  0  0  0  0  0  0  0  0
  188.0680  177.8410  144.5310 P   0  0  0  0  0  2  0  0  0  0  0  0
  190.3480  178.7610  143.2510 O   0  0  0  0  0  1  0  0  0  0  0  0
  189.7270  176.8970  144.5640 C   0  0  0  0  0  1  0  0  0  0  0  0
  187.2070  176.3940  144.0990 O   0  0  0  0  0  1  0  0  0  0  0  0
  2 14  1  0  0  0  0
  3  5  1  0  0  0  0
  3  7  1  1  0  0  0
  4  1  1  6  0  0  0
  4 13  1  0  0  0  0
  5  1  1  1  0  0  0
  5  8  1  0  0  0  0
  6  2  1  0  0  0  0
  8 11  1  0  0  0  0
  8 28  1  1  0  0  0
 10 12  1  0  0  0  0
 10  3  1  0  0  0  0
 11 16  1  0  0  0  0
 12  9  2  0  0  0  0
 12 17  1  0  0  0  0
 13 15  1  6  0  0  0
 14 21  1  1  0  0  0
 14 13  1  0  0  0  0
 15 16  1  0  0  0  0
 17  6  1  6  0  0  0
 17  4  1  0  0  0  0
 19  3  1  0  0  0  0
 19 18  1  0  0  0  0
 20 19  1  0  0  0  0
 21 24  1  6  0  0  0
 21 22  1  0  0  0  0
 22 23  1  0  0  0  0
 24 27  1  0  0  0  0
 25 27  1  0  0  0  0
 26 27  1  0  0  0  0
 28 30  1  0  0  0  0
 30 29  1  6  0  0  0
 30 31  1  0  0  0  0
 31 32  1  6  0  0  0
 31 33  1  0  0  0  0
 33 34  1  0  0  0  0
 33 36  1  1  0  0  0
 35 33  1  0  0  0  0
 37 34  1  0  0  0  0
M  END
>  <MODEL>
1

>  <REMARK>
 VINA RESULT:      -5.8      0.000      0.000
  Name = 
  9 active torsions:
  status: ('A' for Active; 'I' for Inactive)
    1  A    between atoms: C_1  and  C_5
    2  A    between atoms: C_1  and  C_23
    3  A    between atoms: C_2  and  C_6
    4  A    between atoms: C_6  and  C_8
    5  A    between atoms: C_6  and  C_31
    6  A    between atoms: C_8  and  N_19
    7  A    between atoms: C_9  and  C_30
    8  A    between atoms: C_20  and  O_25
    9  A    between atoms: C_23  and  O_25
                            x       y       z     vdW  Elec       q    Type
                         _______ _______ _______ _____ _____    ______ ____

>  <TORSDO>
F 9

$$$$
=
 OpenBabel10272415063D

 37 39  0  0  1  0  0  0  0  0999 V2000
  188.9850  178.6240  140.2500 C   0  0  0  0  0  2  0  0  0  0  0  0
  186.8100  178.4230  143.2680 C   0  0  0  0  0  2  0  0  0  0  0  0
  191.0120  177.0410  139.8910 C   0  0  2  0  0  0  0  0  0  0  0  0
  188.0510  177.5490  140.7820 C   0  0  2  0  0  3  0  0  0  0  0  0
  189.9210  177.9660  139.2490 C   0  0  1  0  0  3  0  0  0  0  0  0
  188.2990  178.1200  143.1950 C   0  0  0  0  0  2  0  0  0  0  0  0
  190.7580  175.6930  139.6050 O   0  0  0  0  0  1  0  0  0  0  0  0
  189.2150  177.4980  137.9390 C   0  0  2  0  0  3  0  0  0  0  0  0
  190.1710  175.3700  142.7910 C   0  0  0  0  0  2  0  0  0  0  0  0
  191.0720  177.1980  141.4350 C   0  0  0  0  0  2  0  0  0  0  0  0
  187.9830  178.3480  137.5560 C   0  0  0  0  0  2  0  0  0  0  0  0
  189.9260  176.5110  142.1520 C   0  0  0  0  0  0  0  0  0  0  0  0
  186.5810  178.0150  140.7530 C   0  0  1  0  0  3  0  0  0  0  0  0
  186.2380  178.9620  141.9420 C   0  0  1  0  0  3  0  0  0  0  0  0
  186.2750  178.6890  139.3980 C   0  0  0  0  0  2  0  0  0  0  0  0
  186.6770  177.8460  138.1870 C   0  0  0  0  0  2  0  0  0  0  0  0
  188.5110  177.0440  142.1470 C   0  0  2  0  0  3  0  0  0  0  0  0
  192.7840  176.4680  138.1480 C   0  0  0  0  0  1  0  0  0  0  0  0
  192.3750  177.4120  139.2720 C   0  0  0  0  0  3  0  0  0  0  0  0
  193.4960  177.4870  140.3010 C   0  0  0  0  0  1  0  0  0  0  0  0
  184.7200  179.1940  142.1590 C   0  0  2  0  0  3  0  0  0  0  0  0
  184.3320  179.5560  143.5840 C   0  0  0  0  0  2  0  0  0  0  0  0
  183.4680  178.5900  144.0970 O   0  0  0  0  0  1  0  0  0  0  0  0
  183.9240  177.9470  141.7840 C   0  0  0  0  0  2  0  0  0  0  0  0
  181.7180  178.4820  141.2190 C   0  0  0  0  0  1  0  0  0  0  0  0
  182.9330  176.9900  139.9050 C   0  0  0  0  0  1  0  0  0  0  0  0
  183.0370  178.2240  140.6650 N   0  0  0  0  0  0  0  0  0  0  0  0
  188.8920  176.1340  137.9540 O   0  0  0  0  0  0  0  0  0  0  0  0
  190.0780  176.3520  135.8680 C   0  0  0  0  0  1  0  0  0  0  0  0
  188.9130  175.7140  136.6180 C   0  0  1  0  0  3  0  0  0  0  0  0
  188.9390  174.1830  136.5390 C   0  0  1  0  0  3  0  0  0  0  0  0
  189.8660  173.6690  137.4500 O   0  0  0  0  0  1  0  0  0  0  0  0
  187.5690  173.5250  136.7450 C   0  0  2  0  0  0  0  0  0  0  0  0
  187.0190  172.2150  135.4930 P   0  0  0  0  0  2  0  0  0  0  0  0
  186.5290  174.3210  137.2280 O   0  0  0  0  0  1  0  0  0  0  0  0
  187.5840  172.2080  137.3160 C   0  0  0  0  0  1  0  0  0  0  0  0
  188.5970  171.7190  134.9600 O   0  0  0  0  0  1  0  0  0  0  0  0
  3  7  1  6  0  0  0
  3 10  1  0  0  0  0
  4  1  1  1  0  0  0
  4 17  1  0  0  0  0
  5  3  1  0  0  0  0
  5  1  1  1  0  0  0
  6  2  1  0  0  0  0
  8 28  1  1  0  0  0
  8  5  1  0  0  0  0
 10 12  1  0  0  0  0
 11  8  1  0  0  0  0
 11 16  1  0  0  0  0
 12  9  2  0  0  0  0
 13 15  1  6  0  0  0
 13  4  1  0  0  0  0
 13 14  1  0  0  0  0
 14 21  1  1  0  0  0
 14  2  1  0  0  0  0
 16 15  1  0  0  0  0
 17 12  1  0  0  0  0
 17  6  1  1  0  0  0
 18 19  1  0  0  0  0
 19  3  1  0  0  0  0
 19 20  1  0  0  0  0
 21 24  1  1  0  0  0
 21 22  1  0  0  0  0
 22 23  1  0  0  0  0
 26 27  1  0  0  0  0
 27 25  1  0  0  0  0
 27 24  1  0  0  0  0
 30 29  1  1  0  0  0
 30 28  1  0  0  0  0
 31 30  1  0  0  0  0
 31 33  1  0  0  0  0
 31 32  1  1  0  0  0
 33 35  1  0  0  0  0
 33 36  1  1  0  0  0
 34 33  1  0  0  0  0
 37 34  1  0  0  0  0
M  END
>  <MODEL>
2

>  <REMARK>
 VINA RESULT:      -5.8      3.846      8.712
  Name = 
  9 active torsions:
  status: ('A' for Active; 'I' for Inactive)
    1  A    between atoms: C_1  and  C_5
    2  A    between atoms: C_1  and  C_23
    3  A    between atoms: C_2  and  C_6
    4  A    between atoms: C_6  and  C_8
    5  A    between atoms: C_6  and  C_31
    6  A    between atoms: C_8  and  N_19
    7  A    between atoms: C_9  and  C_30
    8  A    between atoms: C_20  and  O_25
    9  A    between atoms: C_23  and  O_25
                            x       y       z     vdW  Elec       q    Type
                         _______ _______ _______ _____ _____    ______ ____

>  <TORSDO>
F 9

$$$$
=
 OpenBabel10272415063D

 37 39  0  0  1  0  0  0  0  0999 V2000
  188.8880  178.4650  138.7810 C   0  0  0  0  0  2  0  0  0  0  0  0
  191.1390  177.4540  141.5710 C   0  0  0  0  0  2  0  0  0  0  0  0
  188.7190  177.1110  136.5720 C   0  0  2  0  0  0  0  0  0  0  0  0
  188.9190  177.2520  139.6960 C   0  0  2  0  0  3  0  0  0  0  0  0
  188.0380  178.1070  137.5720 C   0  0  1  0  0  3  0  0  0  0  0  0
  191.3820  177.2490  140.0840 C   0  0  0  0  0  2  0  0  0  0  0  0
  188.0940  175.8580  136.6090 O   0  0  0  0  0  1  0  0  0  0  0  0
  186.5230  177.9280  137.8960 C   0  0  2  0  0  3  0  0  0  0  0  0
  190.8790  174.7640  137.8920 C   0  0  0  0  0  2  0  0  0  0  0  0
  190.2240  176.9020  136.8930 C   0  0  0  0  0  2  0  0  0  0  0  0
  186.0340  178.7840  139.0860 C   0  0  0  0  0  2  0  0  0  0  0  0
  190.4610  176.0110  138.0970 C   0  0  0  0  0  0  0  0  0  0  0  0
  188.6220  177.6400  141.1580 C   0  0  1  0  0  3  0  0  0  0  0  0
  189.8610  178.2620  141.8680 C   0  0  1  0  0  3  0  0  0  0  0  0
  187.4120  178.5990  141.2060 C   0  0  0  0  0  2  0  0  0  0  0  0
  186.1890  178.0860  140.4440 C   0  0  0  0  0  2  0  0  0  0  0  0
  190.2140  176.4610  139.5200 C   0  0  2  0  0  3  0  0  0  0  0  0
  187.4690  176.9770  134.3520 C   0  0  0  0  0  1  0  0  0  0  0  0
  188.5610  177.6820  135.1470 C   0  0  0  0  0  3  0  0  0  0  0  0
  189.8590  177.6630  134.3500 C   0  0  0  0  0  1  0  0  0  0  0  0
  189.7320  178.3640  143.4110 C   0  0  2  0  0  3  0  0  0  0  0  0
  191.0470  178.2520  144.1650 C   0  0  0  0  0  2  0  0  0  0  0  0
  191.6580  179.5050  144.2330 O   0  0  0  0  0  1  0  0  0  0  0  0
  188.8140  177.2690  143.9490 C   0  0  0  0  0  2  0  0  0  0  0  0
  188.2450  177.1890  146.2160 C   0  0  0  0  0  1  0  0  0  0  0  0
  186.5770  177.3310  144.5950 C   0  0  0  0  0  1  0  0  0  0  0  0
  187.9040  177.8080  144.9460 N   0  0  0  0  0  0  0  0  0  0  0  0
  186.1600  176.5850  138.0690 O   0  0  0  0  0  0  0  0  0  0  0  0
  184.6490  177.5290  136.4470 C   0  0  0  0  0  1  0  0  0  0  0  0
  184.8890  176.4490  137.4970 C   0  0  1  0  0  3  0  0  0  0  0  0
  184.7080  175.0360  136.9290 C   0  0  1  0  0  3  0  0  0  0  0  0
  185.5660  174.1420  137.5750 O   0  0  0  0  0  1  0  0  0  0  0  0
  183.2630  174.5220  136.9850 C   0  0  2  0  0  0  0  0  0  0  0  0
  182.3940  174.1420  135.3470 P   0  0  0  0  0  2  0  0  0  0  0  0
  182.4210  175.0490  137.9670 O   0  0  0  0  0  1  0  0  0  0  0  0
  183.0910  173.1100  136.7920 C   0  0  0  0  0  1  0  0  0  0  0  0
  183.8120  173.8370  134.3910 O   0  0  0  0  0  1  0  0  0  0  0  0
  2 14  1  0  0  0  0
  3  7  1  1  0  0  0
  3 10  1  0  0  0  0
  3  5  1  0  0  0  0
  4  1  1  6  0  0  0
  4 13  1  0  0  0  0
  5  8  1  0  0  0  0
  5  1  1  1  0  0  0
  6  2  1  0  0  0  0
  8 28  1  1  0  0  0
  8 11  1  0  0  0  0
  9 12  2  0  0  0  0
 10 12  1  0  0  0  0
 11 16  1  0  0  0  0
 12 17  1  0  0  0  0
 13 15  1  6  0  0  0
 13 14  1  0  0  0  0
 14 21  1  1  0  0  0
 16 15  1  0  0  0  0
 17  4  1  0  0  0  0
 17  6  1  6  0  0  0
 18 19  1  0  0  0  0
 19  3  1  0  0  0  0
 20 19  1  0  0  0  0
 21 24  1  1  0  0  0
 21 22  1  0  0  0  0
 22 23  1  0  0  0  0
 24 27  1  0  0  0  0
 26 27  1  0  0  0  0
 27 25  1  0  0  0  0
 30 29  1  6  0  0  0
 30 28  1  0  0  0  0
 31 33  1  0  0  0  0
 31 30  1  0  0  0  0
 31 32  1  1  0  0  0
 33 36  1  1  0  0  0
 33 35  1  0  0  0  0
 34 33  1  0  0  0  0
 37 34  1  0  0  0  0
M  END
>  <MODEL>
3

>  <REMARK>
 VINA RESULT:      -5.5      4.111      7.413
  Name = 
  9 active torsions:
  status: ('A' for Active; 'I' for Inactive)
    1  A    between atoms: C_1  and  C_5
    2  A    between atoms: C_1  and  C_23
    3  A    between atoms: C_2  and  C_6
    4  A    between atoms: C_6  and  C_8
    5  A    between atoms: C_6  and  C_31
    6  A    between atoms: C_8  and  N_19
    7  A    between atoms: C_9  and  C_30
    8  A    between atoms: C_20  and  O_25
    9  A    between atoms: C_23  and  O_25
                            x       y       z     vdW  Elec       q    Type
                         _______ _______ _______ _____ _____    ______ ____

>  <TORSDO>
F 9

$$$$
=
 OpenBabel10272415063D

 37 39  0  0  1  0  0  0  0  0999 V2000
  186.2570  176.3090  135.8810 C   0  0  0  0  0  2  0  0  0  0  0  0
  188.9420  173.7480  136.2090 C   0  0  0  0  0  2  0  0  0  0  0  0
  183.8220  175.8780  136.6740 C   0  0  2  0  0  0  0  0  0  0  0  0
  186.9210  175.6550  137.0820 C   0  0  2  0  0  3  0  0  0  0  0  0
  184.9480  176.9210  136.3560 C   0  0  1  0  0  3  0  0  0  0  0  0
  187.4620  173.4920  135.9690 C   0  0  0  0  0  2  0  0  0  0  0  0
  183.5760  175.8110  138.0520 O   0  0  0  0  0  1  0  0  0  0  0  0
  185.1310  178.1430  137.3070 C   0  0  2  0  0  3  0  0  0  0  0  0
  184.8050  172.8010  137.8900 C   0  0  0  0  0  2  0  0  0  0  0  0
  184.1960  174.4510  136.1870 C   0  0  0  0  0  2  0  0  0  0  0  0
  186.4290  178.9430  137.0530 C   0  0  0  0  0  2  0  0  0  0  0  0
  185.2180  173.7650  137.0720 C   0  0  0  0  0  0  0  0  0  0  0  0
  188.4080  176.0500  137.1880 C   0  0  1  0  0  3  0  0  0  0  0  0
  189.3040  175.2460  136.1990 C   0  0  1  0  0  3  0  0  0  0  0  0
  188.5600  177.5720  136.9660 C   0  0  0  0  0  2  0  0  0  0  0  0
  187.6340  178.4160  137.8440 C   0  0  0  0  0  2  0  0  0  0  0  0
  186.6810  174.1480  137.0920 C   0  0  2  0  0  3  0  0  0  0  0  0
  181.3730  175.3720  136.1730 C   0  0  0  0  0  1  0  0  0  0  0  0
  182.5270  176.3470  135.9800 C   0  0  0  0  0  3  0  0  0  0  0  0
  182.7140  176.6210  134.4920 C   0  0  0  0  0  1  0  0  0  0  0  0
  190.8260  175.3510  136.4840 C   0  0  2  0  0  3  0  0  0  0  0  0
  191.6570  174.2130  135.9130 C   0  0  0  0  0  2  0  0  0  0  0  0
  192.3500  173.5750  136.9410 O   0  0  0  0  0  1  0  0  0  0  0  0
  191.0920  175.3880  137.9870 C   0  0  0  0  0  2  0  0  0  0  0  0
  193.0450  176.5510  138.5400 C   0  0  0  0  0  1  0  0  0  0  0  0
  191.0680  176.9610  139.7050 C   0  0  0  0  0  1  0  0  0  0  0  0
  191.6070  176.6890  138.3830 N   0  0  0  0  0  0  0  0  0  0  0  0
  185.0180  177.7980  138.6620 O   0  0  0  0  0  0  0  0  0  0  0  0
  183.1110  179.2620  138.5040 C   0  0  0  0  0  1  0  0  0  0  0  0
  184.3630  178.8690  139.2820 C   0  0  1  0  0  3  0  0  0  0  0  0
  184.0560  178.5310  140.7460 C   0  0  1  0  0  3  0  0  0  0  0  0
  183.7270  177.1790  140.8700 O   0  0  0  0  0  1  0  0  0  0  0  0
  185.1830  178.8970  141.7190 C   0  0  2  0  0  0  0  0  0  0  0  0
  184.7020  179.4510  143.4650 P   0  0  0  0  0  2  0  0  0  0  0  0
  186.3030  179.5530  141.2040 O   0  0  0  0  0  1  0  0  0  0  0  0
  185.5140  177.9020  142.7000 C   0  0  0  0  0  1  0  0  0  0  0  0
  183.1620  178.6510  143.5510 O   0  0  0  0  0  1  0  0  0  0  0  0
  3  7  1  1  0  0  0
  4  1  1  6  0  0  0
  4 17  1  0  0  0  0
  4 13  1  0  0  0  0
  5  1  1  1  0  0  0
  5  3  1  0  0  0  0
  5  8  1  0  0  0  0
  6  2  1  0  0  0  0
  8 28  1  1  0  0  0
 10  3  1  0  0  0  0
 10 12  1  0  0  0  0
 11  8  1  0  0  0  0
 11 16  1  0  0  0  0
 12 17  1  0  0  0  0
 12  9  2  0  0  0  0
 13 15  1  6  0  0  0
 14  2  1  0  0  0  0
 14 21  1  1  0  0  0
 14 13  1  0  0  0  0
 15 16  1  0  0  0  0
 17  6  1  6  0  0  0
 19 18  1  0  0  0  0
 19  3  1  0  0  0  0
 20 19  1  0  0  0  0
 21 22  1  1  0  0  0
 21 24  1  0  0  0  0
 22 23  1  0  0  0  0
 24 27  1  0  0  0  0
 27 25  1  0  0  0  0
 27 26  1  0  0  0  0
 28 30  1  0  0  0  0
 30 29  1  6  0  0  0
 30 31  1  0  0  0  0
 31 32  1  6  0  0  0
 31 33  1  0  0  0  0
 33 36  1  1  0  0  0
 33 34  1  0  0  0  0
 34 37  1  0  0  0  0
 35 33  1  0  0  0  0
M  END
>  <MODEL>
4

>  <REMARK>
 VINA RESULT:      -5.3      2.986      4.674
  Name = 
  9 active torsions:
  status: ('A' for Active; 'I' for Inactive)
    1  A    between atoms: C_1  and  C_5
    2  A    between atoms: C_1  and  C_23
    3  A    between atoms: C_2  and  C_6
    4  A    between atoms: C_6  and  C_8
    5  A    between atoms: C_6  and  C_31
    6  A    between atoms: C_8  and  N_19
    7  A    between atoms: C_9  and  C_30
    8  A    between atoms: C_20  and  O_25
    9  A    between atoms: C_23  and  O_25
                            x       y       z     vdW  Elec       q    Type
                         _______ _______ _______ _____ _____    ______ ____

>  <TORSDO>
F 9

$$$$
=
 OpenBabel10272415063D

 37 39  0  0  1  0  0  0  0  0999 V2000
  188.9350  178.6120  141.5280 C   0  0  0  0  0  2  0  0  0  0  0  0
  187.4670  177.9790  144.8930 C   0  0  0  0  0  2  0  0  0  0  0  0
  190.7510  177.0710  140.4920 C   0  0  2  0  0  0  0  0  0  0  0  0
  188.0860  177.4830  142.0900 C   0  0  2  0  0  3  0  0  0  0  0  0
  189.5940  178.1030  140.2560 C   0  0  1  0  0  3  0  0  0  0  0  0
  188.8860  177.6660  144.4440 C   0  0  0  0  0  2  0  0  0  0  0  0
  190.3710  175.7890  140.0750 O   0  0  0  0  0  1  0  0  0  0  0  0
  188.5960  177.8570  139.0830 C   0  0  2  0  0  3  0  0  0  0  0  0
  190.4810  174.9820  143.2260 C   0  0  0  0  0  2  0  0  0  0  0  0
  191.1550  176.9840  141.9900 C   0  0  0  0  0  2  0  0  0  0  0  0
  187.3550  178.7760  139.1160 C   0  0  0  0  0  2  0  0  0  0  0  0
  190.1610  176.2130  142.8350 C   0  0  0  0  0  0  0  0  0  0  0  0
  186.6720  177.9720  142.4610 C   0  0  1  0  0  3  0  0  0  0  0  0
  186.6470  178.7280  143.8240 C   0  0  1  0  0  3  0  0  0  0  0  0
  186.1110  178.8550  141.3240 C   0  0  0  0  0  2  0  0  0  0  0  0
  186.1940  178.2040  139.9430 C   0  0  0  0  0  2  0  0  0  0  0  0
  188.8070  176.7640  143.2270 C   0  0  2  0  0  3  0  0  0  0  0  0
  192.2250  176.5780  138.4700 C   0  0  0  0  0  1  0  0  0  0  0  0
  191.9630  177.5110  139.6460 C   0  0  0  0  0  3  0  0  0  0  0  0
  193.2380  177.6630  140.4650 C   0  0  0  0  0  1  0  0  0  0  0  0
  185.2270  178.9480  144.4080 C   0  0  2  0  0  3  0  0  0  0  0  0
  185.0500  178.4720  145.8410 C   0  0  0  0  0  2  0  0  0  0  0  0
  185.2490  179.5380  146.7180 O   0  0  0  0  0  1  0  0  0  0  0  0
  184.1780  178.2270  143.5650 C   0  0  0  0  0  2  0  0  0  0  0  0
  181.9700  178.7880  144.0960 C   0  0  0  0  0  1  0  0  0  0  0  0
  182.6760  178.7880  141.8750 C   0  0  0  0  0  1  0  0  0  0  0  0
  183.0860  179.1260  143.2280 N   0  0  0  0  0  0  0  0  0  0  0  0
  188.2150  176.5120  138.9680 O   0  0  0  0  0  0  0  0  0  0  0  0
  189.2630  175.4660  137.0670 C   0  0  0  0  0  1  0  0  0  0  0  0
  188.0750  176.2640  137.5960 C   0  0  1  0  0  3  0  0  0  0  0  0
  186.7360  175.5720  137.3130 C   0  0  1  0  0  3  0  0  0  0  0  0
  185.7320  176.5240  137.1210 O   0  0  0  0  0  1  0  0  0  0  0  0
  186.7780  174.5960  136.1300 C   0  0  2  0  0  0  0  0  0  0  0  0
  186.8840  172.7450  136.5120 P   0  0  0  0  0  2  0  0  0  0  0  0
  187.4860  174.9820  134.9900 O   0  0  0  0  0  1  0  0  0  0  0  0
  185.5470  173.9220  135.8280 C   0  0  0  0  0  1  0  0  0  0  0  0
  186.1700  172.7890  138.0960 O   0  0  0  0  0  1  0  0  0  0  0  0
  3  7  1  6  0  0  0
  3 10  1  0  0  0  0
  4  1  1  1  0  0  0
  4 13  1  0  0  0  0
  4 17  1  0  0  0  0
  5  3  1  0  0  0  0
  5  1  1  1  0  0  0
  6  2  1  0  0  0  0
  8 28  1  1  0  0  0
  8 11  1  0  0  0  0
  8  5  1  0  0  0  0
 10 12  1  0  0  0  0
 11 16  1  0  0  0  0
 12  9  2  0  0  0  0
 12 17  1  0  0  0  0
 13 15  1  6  0  0  0
 13 14  1  0  0  0  0
 14 21  1  1  0  0  0
 14  2  1  0  0  0  0
 16 15  1  0  0  0  0
 17  6  1  1  0  0  0
 18 19  1  0  0  0  0
 19 20  1  0  0  0  0
 19  3  1  0  0  0  0
 21 24  1  6  0  0  0
 21 22  1  0  0  0  0
 22 23  1  0  0  0  0
 26 27  1  0  0  0  0
 27 24  1  0  0  0  0
 27 25  1  0  0  0  0
 30 29  1  1  0  0  0
 30 28  1  0  0  0  0
 31 32  1  6  0  0  0
 31 30  1  0  0  0  0
 33 36  1  6  0  0  0
 33 34  1  0  0  0  0
 33 31  1  0  0  0  0
 34 37  1  0  0  0  0
 35 33  1  0  0  0  0
M  END
>  <MODEL>
5

>  <REMARK>
 VINA RESULT:      -5.1      4.059      9.087
  Name = 
  9 active torsions:
  status: ('A' for Active; 'I' for Inactive)
    1  A    between atoms: C_1  and  C_5
    2  A    between atoms: C_1  and  C_23
    3  A    between atoms: C_2  and  C_6
    4  A    between atoms: C_6  and  C_8
    5  A    between atoms: C_6  and  C_31
    6  A    between atoms: C_8  and  N_19
    7  A    between atoms: C_9  and  C_30
    8  A    between atoms: C_20  and  O_25
    9  A    between atoms: C_23  and  O_25
                            x       y       z     vdW  Elec       q    Type
                         _______ _______ _______ _____ _____    ______ ____

>  <TORSDO>
F 9

$$$$
=
 OpenBabel10272415063D

 37 39  0  0  1  0  0  0  0  0999 V2000
  192.3650  174.9980  135.1440 C   0  0  0  0  0  2  0  0  0  0  0  0
  189.2390  175.6540  137.0610 C   0  0  0  0  0  2  0  0  0  0  0  0
  194.7020  175.7310  136.0050 C   0  0  2  0  0  0  0  0  0  0  0  0
  191.8570  174.5110  136.4920 C   0  0  2  0  0  3  0  0  0  0  0  0
  193.8660  174.7580  135.1040 C   0  0  1  0  0  3  0  0  0  0  0  0
  190.4860  176.5230  137.0260 C   0  0  0  0  0  2  0  0  0  0  0  0
  195.2460  175.0540  137.1050 O   0  0  0  0  0  1  0  0  0  0  0  0
  194.2630  173.2510  135.0560 C   0  0  2  0  0  3  0  0  0  0  0  0
  193.2320  176.8570  138.9180 C   0  0  0  0  0  2  0  0  0  0  0  0
  193.8420  176.9060  136.5470 C   0  0  0  0  0  2  0  0  0  0  0  0
  193.2160  172.3510  134.3620 C   0  0  0  0  0  2  0  0  0  0  0  0
  192.9160  176.4980  137.6770 C   0  0  0  0  0  0  0  0  0  0  0  0
  190.6090  173.6190  136.3360 C   0  0  1  0  0  3  0  0  0  0  0  0
  189.3140  174.4520  136.0990 C   0  0  1  0  0  3  0  0  0  0  0  0
  190.8350  172.6030  135.1940 C   0  0  0  0  0  2  0  0  0  0  0  0
  192.1410  171.8180  135.3190 C   0  0  0  0  0  2  0  0  0  0  0  0
  191.6660  175.6740  137.4620 C   0  0  2  0  0  3  0  0  0  0  0  0
  197.2260  175.7920  135.6440 C   0  0  0  0  0  1  0  0  0  0  0  0
  195.8680  176.2810  135.1590 C   0  0  0  0  0  3  0  0  0  0  0  0
  195.8790  177.8030  135.0770 C   0  0  0  0  0  1  0  0  0  0  0  0
  187.9970  173.6500  136.2660 C   0  0  2  0  0  3  0  0  0  0  0  0
  187.3720  173.1790  134.9620 C   0  0  0  0  0  2  0  0  0  0  0  0
  187.1700  171.8000  135.0080 O   0  0  0  0  0  1  0  0  0  0  0  0
  186.9430  174.4840  136.9900 C   0  0  0  0  0  2  0  0  0  0  0  0
  185.6630  176.1520  135.9650 C   0  0  0  0  0  1  0  0  0  0  0  0
  184.6260  174.2750  136.8780 C   0  0  0  0  0  1  0  0  0  0  0  0
  185.7930  174.7140  136.1310 N   0  0  0  0  0  0  0  0  0  0  0  0
  194.6010  172.7380  136.3160 O   0  0  0  0  0  0  0  0  0  0  0  0
  196.7600  172.1920  135.3940 C   0  0  0  0  0  1  0  0  0  0  0  0
  195.4950  171.6850  136.0800 C   0  0  1  0  0  3  0  0  0  0  0  0
  195.8000  170.9410  137.3860 C   0  0  1  0  0  3  0  0  0  0  0  0
  195.3600  171.6890  138.4820 O   0  0  0  0  0  1  0  0  0  0  0  0
  195.2220  169.5220  137.4440 C   0  0  2  0  0  0  0  0  0  0  0  0
  196.2860  168.1050  136.7750 P   0  0  0  0  0  2  0  0  0  0  0  0
  193.8540  169.3640  137.2110 O   0  0  0  0  0  1  0  0  0  0  0  0
  195.7150  168.6850  138.5020 C   0  0  0  0  0  1  0  0  0  0  0  0
  197.8390  168.8520  136.9940 O   0  0  0  0  0  1  0  0  0  0  0  0
  3 10  1  0  0  0  0
  3  7  1  1  0  0  0
  4  1  1  6  0  0  0
  4 17  1  0  0  0  0
  5  1  1  1  0  0  0
  5  3  1  0  0  0  0
  6  2  1  0  0  0  0
  8  5  1  0  0  0  0
  8 28  1  1  0  0  0
 10 12  1  0  0  0  0
 11  8  1  0  0  0  0
 11 16  1  0  0  0  0
 12  9  2  0  0  0  0
 13 15  1  6  0  0  0
 13  4  1  0  0  0  0
 14 21  1  1  0  0  0
 14 13  1  0  0  0  0
 14  2  1  0  0  0  0
 15 16  1  0  0  0  0
 17  6  1  6  0  0  0
 17 12  1  0  0  0  0
 19 18  1  0  0  0  0
 19  3  1  0  0  0  0
 20 19  1  0  0  0  0
 21 22  1  6  0  0  0
 21 24  1  0  0  0  0
 22 23  1  0  0  0  0
 25 27  1  0  0  0  0
 27 26  1  0  0  0  0
 27 24  1  0  0  0  0
 30 29  1  1  0  0  0
 30 28  1  0  0  0  0
 30 31  1  0  0  0  0
 31 33  1  0  0  0  0
 31 32  1  1  0  0  0
 33 36  1  1  0  0  0
 34 37  1  0  0  0  0
 34 33  1  0  0  0  0
 35 33  1  0  0  0  0
M  END
>  <MODEL>
6

>  <REMARK>
 VINA RESULT:      -4.6      4.722      8.554
  Name = 
  9 active torsions:
  status: ('A' for Active; 'I' for Inactive)
    1  A    between atoms: C_1  and  C_5
    2  A    between atoms: C_1  and  C_23
    3  A    between atoms: C_2  and  C_6
    4  A    between atoms: C_6  and  C_8
    5  A    between atoms: C_6  and  C_31
    6  A    between atoms: C_8  and  N_19
    7  A    between atoms: C_9  and  C_30
    8  A    between atoms: C_20  and  O_25
    9  A    between atoms: C_23  and  O_25
                            x       y       z     vdW  Elec       q    Type
                         _______ _______ _______ _____ _____    ______ ____

>  <TORSDO>
F 9

$$$$
=
 OpenBabel10272415063D

 37 39  0  0  1  0  0  0  0  0999 V2000
  189.0160  178.4790  139.2220 C   0  0  0  0  0  2  0  0  0  0  0  0
  186.5210  178.7700  141.9730 C   0  0  0  0  0  2  0  0  0  0  0  0
  191.0920  176.9270  139.3880 C   0  0  2  0  0  0  0  0  0  0  0  0
  188.0430  177.4910  139.8440 C   0  0  2  0  0  3  0  0  0  0  0  0
  190.0670  177.6780  138.4690 C   0  0  1  0  0  3  0  0  0  0  0  0
  188.0120  178.5100  142.1190 C   0  0  0  0  0  2  0  0  0  0  0  0
  190.8890  175.5420  139.3370 O   0  0  0  0  0  1  0  0  0  0  0  0
  189.5190  176.9510  137.2040 C   0  0  2  0  0  3  0  0  0  0  0  0
  189.9540  175.7970  142.4450 C   0  0  0  0  0  2  0  0  0  0  0  0
  190.9770  177.3710  140.8720 C   0  0  0  0  0  2  0  0  0  0  0  0
  188.3260  177.6710  136.5370 C   0  0  0  0  0  2  0  0  0  0  0  0
  189.7670  176.7900  141.5790 C   0  0  0  0  0  0  0  0  0  0  0  0
  186.5790  177.8920  139.5710 C   0  0  1  0  0  3  0  0  0  0  0  0
  186.0940  179.0320  140.5150 C   0  0  1  0  0  3  0  0  0  0  0  0
  186.4180  178.2920  138.0870 C   0  0  0  0  0  2  0  0  0  0  0  0
  186.9640  177.2520  137.1080 C   0  0  0  0  0  2  0  0  0  0  0  0
  188.3540  177.2650  141.3210 C   0  0  2  0  0  3  0  0  0  0  0  0
  192.9660  176.2160  137.8110 C   0  0  0  0  0  1  0  0  0  0  0  0
  192.5110  177.2220  138.8600 C   0  0  0  0  0  3  0  0  0  0  0  0
  193.5540  177.3030  139.9680 C   0  0  0  0  0  1  0  0  0  0  0  0
  184.5580  179.2490  140.5210 C   0  0  2  0  0  3  0  0  0  0  0  0
  183.7550  178.0780  141.0640 C   0  0  0  0  0  2  0  0  0  0  0  0
  183.0160  178.4890  142.1740 O   0  0  0  0  0  1  0  0  0  0  0  0
  184.0460  179.5240  139.1090 C   0  0  0  0  0  2  0  0  0  0  0  0
  182.6590  178.3310  137.6510 C   0  0  0  0  0  1  0  0  0  0  0  0
  181.8180  180.1490  138.8410 C   0  0  0  0  0  1  0  0  0  0  0  0
  182.7000  178.9990  138.9410 N   0  0  0  0  0  0  0  0  0  0  0  0
  189.2140  175.6020  137.4420 O   0  0  0  0  0  0  0  0  0  0  0  0
  190.6630  173.9100  136.5220 C   0  0  0  0  0  1  0  0  0  0  0  0
  189.5440  174.9160  136.2660 C   0  0  1  0  0  3  0  0  0  0  0  0
  188.2970  174.2570  135.6650 C   0  0  1  0  0  3  0  0  0  0  0  0
  188.5600  173.8260  134.3620 O   0  0  0  0  0  1  0  0  0  0  0  0
  187.7340  173.1040  136.5050 C   0  0  2  0  0  0  0  0  0  0  0  0
  185.9600  173.2600  137.1480 P   0  0  0  0  0  2  0  0  0  0  0  0
  188.6020  172.4540  137.3850 O   0  0  0  0  0  1  0  0  0  0  0  0
  186.8440  172.2070  135.8240 C   0  0  0  0  0  1  0  0  0  0  0  0
  185.3650  174.3550  135.9380 O   0  0  0  0  0  1  0  0  0  0  0  0
  2  6  1  0  0  0  0
  3  7  1  6  0  0  0
  3 10  1  0  0  0  0
  4  1  1  1  0  0  0
  4 17  1  0  0  0  0
  5  1  1  1  0  0  0
  5  3  1  0  0  0  0
  8 28  1  1  0  0  0
  8  5  1  0  0  0  0
 10 12  1  0  0  0  0
 11 16  1  0  0  0  0
 11  8  1  0  0  0  0
 12  9  2  0  0  0  0
 13 15  1  6  0  0  0
 13  4  1  0  0  0  0
 13 14  1  0  0  0  0
 14 21  1  1  0  0  0
 14  2  1  0  0  0  0
 16 15  1  0  0  0  0
 17 12  1  0  0  0  0
 17  6  1  1  0  0  0
 18 19  1  0  0  0  0
 19  3  1  0  0  0  0
 19 20  1  0  0  0  0
 21 24  1  6  0  0  0
 21 22  1  0  0  0  0
 22 23  1  0  0  0  0
 25 27  1  0  0  0  0
 26 27  1  0  0  0  0
 27 24  1  0  0  0  0
 30 29  1  1  0  0  0
 30 28  1  0  0  0  0
 31 32  1  6  0  0  0
 31 30  1  0  0  0  0
 31 33  1  0  0  0  0
 33 36  1  6  0  0  0
 33 34  1  0  0  0  0
 33 35  1  0  0  0  0
 37 34  1  0  0  0  0
M  END
>  <MODEL>
7

>  <REMARK>
 VINA RESULT:      -4.6      3.637      8.568
  Name = 
  9 active torsions:
  status: ('A' for Active; 'I' for Inactive)
    1  A    between atoms: C_1  and  C_5
    2  A    between atoms: C_1  and  C_23
    3  A    between atoms: C_2  and  C_6
    4  A    between atoms: C_6  and  C_8
    5  A    between atoms: C_6  and  C_31
    6  A    between atoms: C_8  and  N_19
    7  A    between atoms: C_9  and  C_30
    8  A    between atoms: C_20  and  O_25
    9  A    between atoms: C_23  and  O_25
                            x       y       z     vdW  Elec       q    Type
                         _______ _______ _______ _____ _____    ______ ____

>  <TORSDO>
F 9

$$$$
=
 OpenBabel10272415063D

 37 39  0  0  1  0  0  0  0  0999 V2000
  187.8630  178.4310  138.3330 C   0  0  0  0  0  2  0  0  0  0  0  0
  190.4930  177.1080  140.6160 C   0  0  0  0  0  2  0  0  0  0  0  0
  186.9750  177.0770  136.3030 C   0  0  2  0  0  0  0  0  0  0  0  0
  187.9020  177.2530  139.2920 C   0  0  2  0  0  3  0  0  0  0  0  0
  186.7130  178.2000  137.3650 C   0  0  1  0  0  3  0  0  0  0  0  0
  190.3530  176.8290  139.1270 C   0  0  0  0  0  2  0  0  0  0  0  0
  186.1770  175.9530  136.5550 O   0  0  0  0  0  1  0  0  0  0  0  0
  185.3040  178.2950  138.0260 C   0  0  2  0  0  3  0  0  0  0  0  0
  188.9620  174.4210  137.2580 C   0  0  0  0  0  2  0  0  0  0  0  0
  188.4580  176.6160  136.2980 C   0  0  0  0  0  2  0  0  0  0  0  0
  185.2460  179.2500  139.2390 C   0  0  0  0  0  2  0  0  0  0  0  0
  188.8130  175.7250  137.4730 C   0  0  0  0  0  0  0  0  0  0  0  0
  188.0130  177.7210  140.7570 C   0  0  1  0  0  3  0  0  0  0  0  0
  189.4670  178.1340  141.1360 C   0  0  1  0  0  3  0  0  0  0  0  0
  187.0210  178.8770  141.0110 C   0  0  0  0  0  2  0  0  0  0  0  0
  185.5900  178.5670  140.5700 C   0  0  0  0  0  2  0  0  0  0  0  0
  188.9740  176.2450  138.8840 C   0  0  2  0  0  3  0  0  0  0  0  0
  186.7560  179.1450  134.8270 C   0  0  0  0  0  1  0  0  0  0  0  0
  186.5920  177.6330  134.9170 C   0  0  0  0  0  3  0  0  0  0  0  0
  185.1800  177.2510  134.4900 C   0  0  0  0  0  1  0  0  0  0  0  0
  189.7110  178.2920  142.6600 C   0  0  2  0  0  3  0  0  0  0  0  0
  191.1650  178.1680  143.0850 C   0  0  0  0  0  2  0  0  0  0  0  0
  191.4830  179.1900  143.9780 O   0  0  0  0  0  1  0  0  0  0  0  0
  188.9250  177.2430  143.4440 C   0  0  0  0  0  2  0  0  0  0  0  0
  188.8260  177.2850  145.7810 C   0  0  0  0  0  1  0  0  0  0  0  0
  186.8670  177.3980  144.5240 C   0  0  0  0  0  1  0  0  0  0  0  0
  188.2460  177.8540  144.5760 N   0  0  0  0  0  0  0  0  0  0  0  0
  184.7730  177.0400  138.3580 O   0  0  0  0  0  0  0  0  0  0  0  0
  183.1620  175.8460  137.0210 C   0  0  0  0  0  1  0  0  0  0  0  0
  183.4440  177.0500  137.9150 C   0  0  1  0  0  3  0  0  0  0  0  0
  182.4850  177.1260  139.1090 C   0  0  1  0  0  3  0  0  0  0  0  0
  183.1570  176.8020  140.2900 O   0  0  0  0  0  1  0  0  0  0  0  0
  181.7760  178.4780  139.2530 C   0  0  2  0  0  0  0  0  0  0  0  0
  180.0130  178.4860  139.9450 P   0  0  0  0  0  2  0  0  0  0  0  0
  182.0030  179.4430  138.2680 O   0  0  0  0  0  1  0  0  0  0  0  0
  181.7310  179.0260  140.5790 C   0  0  0  0  0  1  0  0  0  0  0  0
  180.1050  177.0000  140.8420 O   0  0  0  0  0  1  0  0  0  0  0  0
  2 14  1  0  0  0  0
  3  7  1  1  0  0  0
  3  5  1  0  0  0  0
  4  1  1  6  0  0  0
  4 13  1  0  0  0  0
  5  8  1  0  0  0  0
  5  1  1  1  0  0  0
  6  2  1  0  0  0  0
  8 28  1  1  0  0  0
  8 11  1  0  0  0  0
  9 12  2  0  0  0  0
 10  3  1  0  0  0  0
 10 12  1  0  0  0  0
 11 16  1  0  0  0  0
 12 17  1  0  0  0  0
 13 15  1  6  0  0  0
 13 14  1  0  0  0  0
 14 21  1  1  0  0  0
 16 15  1  0  0  0  0
 17  6  1  6  0  0  0
 17  4  1  0  0  0  0
 18 19  1  0  0  0  0
 19  3  1  0  0  0  0
 20 19  1  0  0  0  0
 21 22  1  6  0  0  0
 21 24  1  0  0  0  0
 22 23  1  0  0  0  0
 24 27  1  0  0  0  0
 26 27  1  0  0  0  0
 27 25  1  0  0  0  0
 30 29  1  1  0  0  0
 30 28  1  0  0  0  0
 30 31  1  0  0  0  0
 31 33  1  0  0  0  0
 31 32  1  1  0  0  0
 33 34  1  0  0  0  0
 33 36  1  1  0  0  0
 34 37  1  0  0  0  0
 35 33  1  0  0  0  0
M  END
>  <MODEL>
8

>  <REMARK>
 VINA RESULT:      -4.6      4.292      7.059
  Name = 
  9 active torsions:
  status: ('A' for Active; 'I' for Inactive)
    1  A    between atoms: C_1  and  C_5
    2  A    between atoms: C_1  and  C_23
    3  A    between atoms: C_2  and  C_6
    4  A    between atoms: C_6  and  C_8
    5  A    between atoms: C_6  and  C_31
    6  A    between atoms: C_8  and  N_19
    7  A    between atoms: C_9  and  C_30
    8  A    between atoms: C_20  and  O_25
    9  A    between atoms: C_23  and  O_25
                            x       y       z     vdW  Elec       q    Type
                         _______ _______ _______ _____ _____    ______ ____

>  <TORSDO>
F 9

$$$$
=
 OpenBabel10272415063D

 37 39  0  0  1  0  0  0  0  0999 V2000
  188.8630  178.0060  138.3080 C   0  0  0  0  0  2  0  0  0  0  0  0
  186.5250  178.7970  141.0980 C   0  0  0  0  0  2  0  0  0  0  0  0
  191.0470  176.6470  138.6680 C   0  0  2  0  0  0  0  0  0  0  0  0
  188.0000  177.1390  139.2100 C   0  0  2  0  0  3  0  0  0  0  0  0
  189.9190  177.1080  137.6810 C   0  0  1  0  0  3  0  0  0  0  0  0
  188.0370  178.6570  141.1870 C   0  0  0  0  0  2  0  0  0  0  0  0
  190.9370  175.2800  138.9510 O   0  0  0  0  0  1  0  0  0  0  0  0
  189.3460  176.0780  136.6610 C   0  0  2  0  0  3  0  0  0  0  0  0
  190.1770  176.2020  141.9780 C   0  0  0  0  0  2  0  0  0  0  0  0
  190.9920  177.4180  140.0160 C   0  0  0  0  0  2  0  0  0  0  0  0
  188.0680  176.5600  135.9380 C   0  0  0  0  0  2  0  0  0  0  0  0
  189.8700  176.9550  140.9250 C   0  0  0  0  0  0  0  0  0  0  0  0
  186.4980  177.3880  138.9630 C   0  0  1  0  0  3  0  0  0  0  0  0
  185.9930  178.6900  139.6560 C   0  0  1  0  0  3  0  0  0  0  0  0
  186.2190  177.4220  137.4440 C   0  0  0  0  0  2  0  0  0  0  0  0
  186.7750  176.2130  136.6900 C   0  0  0  0  0  2  0  0  0  0  0  0
  188.4150  177.2800  140.6730 C   0  0  2  0  0  3  0  0  0  0  0  0
  192.8290  175.7210  137.0960 C   0  0  0  0  0  1  0  0  0  0  0  0
  192.4070  176.8860  137.9820 C   0  0  0  0  0  3  0  0  0  0  0  0
  193.5250  177.2010  138.9680 C   0  0  0  0  0  1  0  0  0  0  0  0
  184.4490  178.8200  139.7260 C   0  0  2  0  0  3  0  0  0  0  0  0
  183.8350  179.6720  138.6270 C   0  0  0  0  0  2  0  0  0  0  0  0
  184.1420  181.0150  138.8460 O   0  0  0  0  0  1  0  0  0  0  0  0
  184.0190  179.4300  141.0580 C   0  0  0  0  0  2  0  0  0  0  0  0
  181.7790  178.7960  141.2850 C   0  0  0  0  0  1  0  0  0  0  0  0
  183.1520  178.9350  143.1630 C   0  0  0  0  0  1  0  0  0  0  0  0
  183.1240  178.5300  141.7680 N   0  0  0  0  0  0  0  0  0  0  0  0
  189.1500  174.8080  137.2230 O   0  0  0  0  0  0  0  0  0  0  0  0
  190.5260  173.4050  135.8290 C   0  0  0  0  0  1  0  0  0  0  0  0
  189.1230  173.9080  136.1500 C   0  0  1  0  0  3  0  0  0  0  0  0
  188.1460  172.7620  136.4400 C   0  0  1  0  0  3  0  0  0  0  0  0
  187.3590  173.0690  137.5530 O   0  0  0  0  0  1  0  0  0  0  0  0
  187.2590  172.3830  135.2470 C   0  0  2  0  0  0  0  0  0  0  0  0
  187.5310  170.6910  134.4430 P   0  0  0  0  0  2  0  0  0  0  0  0
  186.9110  173.3910  134.3460 O   0  0  0  0  0  1  0  0  0  0  0  0
  186.1770  171.4820  135.5310 C   0  0  0  0  0  1  0  0  0  0  0  0
  188.2210  169.8830  135.8180 O   0  0  0  0  0  1  0  0  0  0  0  0
  2  6  1  0  0  0  0
  3  7  1  1  0  0  0
  3 10  1  0  0  0  0
  4  1  1  6  0  0  0
  4 17  1  0  0  0  0
  5  1  1  1  0  0  0
  5  3  1  0  0  0  0
  8 28  1  1  0  0  0
  8  5  1  0  0  0  0
 10 12  1  0  0  0  0
 11  8  1  0  0  0  0
 11 16  1  0  0  0  0
 12  9  2  0  0  0  0
 13 15  1  6  0  0  0
 13  4  1  0  0  0  0
 13 14  1  0  0  0  0
 14 21  1  1  0  0  0
 14  2  1  0  0  0  0
 16 15  1  0  0  0  0
 17 12  1  0  0  0  0
 17  6  1  6  0  0  0
 18 19  1  0  0  0  0
 19  3  1  0  0  0  0
 19 20  1  0  0  0  0
 21 22  1  6  0  0  0
 21 24  1  0  0  0  0
 22 23  1  0  0  0  0
 24 27  1  0  0  0  0
 25 27  1  0  0  0  0
 27 26  1  0  0  0  0
 30 29  1  1  0  0  0
 30 31  1  0  0  0  0
 30 28  1  0  0  0  0
 31 32  1  1  0  0  0
 33 36  1  1  0  0  0
 33 31  1  0  0  0  0
 34 33  1  0  0  0  0
 34 37  1  0  0  0  0
 35 33  1  0  0  0  0
M  END
>  <MODEL>
9

>  <REMARK>
 VINA RESULT:      -4.4      4.094      8.866
  Name = 
  9 active torsions:
  status: ('A' for Active; 'I' for Inactive)
    1  A    between atoms: C_1  and  C_5
    2  A    between atoms: C_1  and  C_23
    3  A    between atoms: C_2  and  C_6
    4  A    between atoms: C_6  and  C_8
    5  A    between atoms: C_6  and  C_31
    6  A    between atoms: C_8  and  N_19
    7  A    between atoms: C_9  and  C_30
    8  A    between atoms: C_20  and  O_25
    9  A    between atoms: C_23  and  O_25
                            x       y       z     vdW  Elec       q    Type
                         _______ _______ _______ _____ _____    ______ ____

>  <TORSDO>
F 9

$$$$
