=
 OpenBabel10272400083D

 34 39  0  0  1  0  0  0  0  0999 V2000
  187.9900  177.3910  146.7080 C   0  0  2  0  0  3  0  0  0  0  0  0
  184.6930  178.2000  147.0920 O   0  0  0  0  0  1  0  0  0  0  0  0
  182.7080  178.7530  140.9620 C   0  0  0  0  0  3  0  0  0  0  0  0
  186.9850  177.8380  144.4690 C   0  0  0  0  0  0  0  0  0  0  0  0
  186.2200  178.3620  142.2200 C   0  0  0  0  0  0  0  0  0  0  0  0
  186.7730  178.6300  147.9920 O   0  0  0  0  0  0  0  0  0  0  0  0
  185.9980  178.5980  146.8020 C   0  0  0  0  0  0  0  0  0  0  0  0
  184.5150  178.2740  144.0780 C   0  0  0  0  0  2  0  0  0  0  0  0
  181.5020  178.8530  141.4220 N   0  0  0  0  0  0  0  0  0  0  0  0
  186.7210  177.5420  145.9420 C   0  0  2  0  0  3  0  0  0  0  0  0
  183.6840  179.2210  143.2290 C   0  0  0  0  0  2  0  0  0  0  0  0
  185.1720  178.8180  141.2380 C   0  0  0  0  0  2  0  0  0  0  0  0
  187.9740  177.9840  147.8480 N   0  0  0  0  0  2  0  0  0  0  0  0
  188.2710  177.5550  143.9320 C   0  0  0  0  0  0  0  0  0  0  0  0
  189.2160  176.9420  146.0680 C   0  0  0  0  0  3  0  0  0  0  0  0
  186.0020  179.8620  146.2060 O   0  0  0  0  0  1  0  0  0  0  0  0
  187.4740  178.1460  141.7570 N   0  0  0  0  0  0  0  0  0  0  0  0
  188.5040  177.7480  142.5510 C   0  0  0  0  0  0  0  0  0  0  0  0
  183.8390  178.8550  141.8270 N   0  0  0  0  0  0  0  0  0  0  0  0
  185.9390  178.2020  143.5920 C   0  0  0  0  0  0  0  0  0  0  0  0
  189.3140  177.0200  144.7760 N   0  0  0  0  0  0  0  0  0  0  0  0
  191.1600  176.9730  139.9850 N   0  0  0  0  0  0  0  0  0  0  0  0
  192.4110  177.4420  140.5830 C   0  0  0  0  0  2  0  0  0  0  0  0
  189.8320  177.5320  141.9170 C   0  0  0  0  0  0  0  0  0  0  0  0
  192.2820  177.6530  142.0660 C   0  0  0  0  0  3  0  0  0  0  0  0
  189.8960  177.1670  140.6330 C   0  0  0  0  0  3  0  0  0  0  0  0
  191.0920  177.7230  142.6650 C   0  0  0  0  0  3  0  0  0  0  0  0
  191.1770  176.5000  138.6150 C   0  0  0  0  0  1  0  0  0  0  0  0
  179.9860  176.7270  139.3180 O   0  0  0  0  0  1  0  0  0  0  0  0
  180.7110  177.9170  139.3110 C   0  0  2  0  0  3  0  0  0  0  0  0
  180.3760  180.1760  138.5660 C   0  0  0  0  0  2  0  0  0  0  0  0
  179.9820  180.1320  140.0270 C   0  0  0  0  0  2  0  0  0  0  0  0
  180.3540  178.7500  140.5340 C   0  0  2  0  0  3  0  0  0  0  0  0
  180.3320  178.7410  138.1000 C   0  0  0  0  0  2  0  0  0  0  0  0
  1 15  1  6  0  0  0
  1 13  1  0  0  0  0
  3  9  2  0  0  0  0
  3 19  1  0  0  0  0
  5 20  1  0  0  0  0
  7  2  1  0  0  0  0
  7  6  1  0  0  0  0
 10  4  1  6  0  0  0
 10  1  1  0  0  0  0
 10  7  1  0  0  0  0
 11  8  1  0  0  0  0
 12 19  1  0  0  0  0
 12  5  1  0  0  0  0
 13  6  1  0  0  0  0
 14  4  1  0  0  0  0
 14 21  1  0  0  0  0
 16  7  1  0  0  0  0
 17  5  2  0  0  0  0
 17 18  1  0  0  0  0
 18 14  2  0  0  0  0
 19 11  1  0  0  0  0
 20  8  1  0  0  0  0
 20  4  2  0  0  0  0
 21 15  2  0  0  0  0
 22 23  1  0  0  0  0
 22 26  1  0  0  0  0
 23 25  1  0  0  0  0
 24 18  1  0  0  0  0
 24 27  1  0  0  0  0
 25 27  2  0  0  0  0
 26 24  2  0  0  0  0
 28 22  1  0  0  0  0
 30 29  1  1  0  0  0
 30 33  1  0  0  0  0
 31 32  1  0  0  0  0
 32 33  1  0  0  0  0
 33  9  1  1  0  0  0
 34 31  1  0  0  0  0
 34 30  1  0  0  0  0
M  END
>  <MODEL>
1

>  <REMARK>
 VINA RESULT:     -10.1      0.000      0.000
  Name = 
  2 active torsions:
  status: ('A' for Active; 'I' for Inactive)
    1  A    between atoms: C_12  and  C_28
    2  A    between atoms: N_13  and  C_33
                            x       y       z     vdW  Elec       q    Type
                         _______ _______ _______ _____ _____    ______ ____

>  <TORSDO>
F 2

$$$$
=
 OpenBabel10272400083D

 34 39  0  0  1  0  0  0  0  0999 V2000
  186.3140  177.8600  145.4130 C   0  0  2  0  0  3  0  0  0  0  0  0
  183.0520  178.7060  144.8500 O   0  0  0  0  0  1  0  0  0  0  0  0
  182.7710  178.8040  138.3900 C   0  0  0  0  0  3  0  0  0  0  0  0
  185.9470  178.1400  142.9630 C   0  0  0  0  0  0  0  0  0  0  0  0
  185.8160  178.4980  140.5600 C   0  0  0  0  0  0  0  0  0  0  0  0
  184.8300  179.1950  146.2370 O   0  0  0  0  0  0  0  0  0  0  0  0
  184.3970  179.0760  144.8900 C   0  0  0  0  0  0  0  0  0  0  0  0
  183.6790  178.5550  141.9010 C   0  0  0  0  0  2  0  0  0  0  0  0
  181.4900  178.9430  138.5050 N   0  0  0  0  0  0  0  0  0  0  0  0
  185.2970  177.9570  144.3300 C   0  0  2  0  0  3  0  0  0  0  0  0
  183.1240  179.4380  140.7960 C   0  0  0  0  0  2  0  0  0  0  0  0
  185.0760  178.8820  139.3050 C   0  0  0  0  0  2  0  0  0  0  0  0
  186.0110  178.5360  146.4640 N   0  0  0  0  0  2  0  0  0  0  0  0
  187.3230  177.8140  142.8070 C   0  0  0  0  0  0  0  0  0  0  0  0
  187.6550  177.3600  145.1560 C   0  0  0  0  0  3  0  0  0  0  0  0
  184.5870  180.2920  144.2280 O   0  0  0  0  0  1  0  0  0  0  0  0
  187.1430  178.2430  140.4630 N   0  0  0  0  0  0  0  0  0  0  0  0
  187.9170  177.9020  141.5280 C   0  0  0  0  0  0  0  0  0  0  0  0
  183.6360  178.9670  139.5150 N   0  0  0  0  0  0  0  0  0  0  0  0
  185.1790  178.4410  141.8160 C   0  0  0  0  0  0  0  0  0  0  0  0
  188.0930  177.3400  143.9340 N   0  0  0  0  0  0  0  0  0  0  0  0
  191.1510  177.0210  139.7950 N   0  0  0  0  0  0  0  0  0  0  0  0
  192.2030  177.4440  140.7200 C   0  0  0  0  0  2  0  0  0  0  0  0
  189.3590  177.6350  141.2860 C   0  0  0  0  0  0  0  0  0  0  0  0
  191.6750  177.6640  142.1110 C   0  0  0  0  0  3  0  0  0  0  0  0
  189.7650  177.2650  140.0670 C   0  0  0  0  0  3  0  0  0  0  0  0
  190.3680  177.7800  142.3560 C   0  0  0  0  0  3  0  0  0  0  0  0
  191.5300  176.5460  138.4790 C   0  0  0  0  0  1  0  0  0  0  0  0
  181.0190  176.9930  135.8180 O   0  0  0  0  0  1  0  0  0  0  0  0
  181.4150  178.2860  136.1560 C   0  0  2  0  0  3  0  0  0  0  0  0
  180.7000  180.5270  135.6700 C   0  0  0  0  0  2  0  0  0  0  0  0
  180.0300  180.1240  136.9670 C   0  0  0  0  0  2  0  0  0  0  0  0
  180.6160  178.7780  137.3540 C   0  0  2  0  0  3  0  0  0  0  0  0
  181.1080  179.2300  135.0150 C   0  0  0  0  0  2  0  0  0  0  0  0
  1 15  1  6  0  0  0
  1 13  1  0  0  0  0
  2  7  1  0  0  0  0
  3  9  2  0  0  0  0
  3 19  1  0  0  0  0
  5 20  1  0  0  0  0
  6 13  1  0  0  0  0
  7  6  1  0  0  0  0
 10  4  1  6  0  0  0
 10  7  1  0  0  0  0
 10  1  1  0  0  0  0
 11  8  1  0  0  0  0
 12 19  1  0  0  0  0
 12  5  1  0  0  0  0
 14  4  1  0  0  0  0
 14 21  1  0  0  0  0
 16  7  1  0  0  0  0
 17  5  2  0  0  0  0
 17 18  1  0  0  0  0
 18 14  2  0  0  0  0
 19 11  1  0  0  0  0
 20  8  1  0  0  0  0
 20  4  2  0  0  0  0
 21 15  2  0  0  0  0
 22 26  1  0  0  0  0
 22 23  1  0  0  0  0
 23 25  1  0  0  0  0
 24 18  1  0  0  0  0
 24 27  1  0  0  0  0
 25 27  2  0  0  0  0
 26 24  2  0  0  0  0
 28 22  1  0  0  0  0
 30 29  1  6  0  0  0
 30 33  1  0  0  0  0
 31 32  1  0  0  0  0
 32 33  1  0  0  0  0
 33  9  1  1  0  0  0
 34 31  1  0  0  0  0
 34 30  1  0  0  0  0
M  END
>  <MODEL>
2

>  <REMARK>
 VINA RESULT:      -9.1      1.745      2.206
  Name = 
  2 active torsions:
  status: ('A' for Active; 'I' for Inactive)
    1  A    between atoms: C_12  and  C_28
    2  A    between atoms: N_13  and  C_33
                            x       y       z     vdW  Elec       q    Type
                         _______ _______ _______ _____ _____    ______ ____

>  <TORSDO>
F 2

$$$$
=
 OpenBabel10272400083D

 34 39  0  0  1  0  0  0  0  0999 V2000
  185.0600  178.1510  143.8730 C   0  0  2  0  0  3  0  0  0  0  0  0
  184.9470  178.3210  140.4630 O   0  0  0  0  0  1  0  0  0  0  0  0
  191.0090  176.7750  138.8240 C   0  0  0  0  0  3  0  0  0  0  0  0
  187.3440  177.7580  142.9520 C   0  0  0  0  0  0  0  0  0  0  0  0
  189.6580  177.4850  142.2500 C   0  0  0  0  0  0  0  0  0  0  0  0
  184.1810  179.4040  142.3500 O   0  0  0  0  0  0  0  0  0  0  0  0
  185.3220  178.8920  141.6790 C   0  0  0  0  0  0  0  0  0  0  0  0
  187.8640  177.5440  140.4770 C   0  0  0  0  0  2  0  0  0  0  0  0
  190.6060  176.7400  137.5940 N   0  0  0  0  0  0  0  0  0  0  0  0
  185.8500  177.8200  142.6540 C   0  0  2  0  0  3  0  0  0  0  0  0
  188.9510  178.0300  139.5320 C   0  0  0  0  0  2  0  0  0  0  0  0
  190.7380  177.4290  141.2010 C   0  0  0  0  0  2  0  0  0  0  0  0
  184.1280  179.0110  143.6630 N   0  0  0  0  0  2  0  0  0  0  0  0
  187.7700  177.6180  144.3020 C   0  0  0  0  0  0  0  0  0  0  0  0
  185.5380  177.8150  145.2050 C   0  0  0  0  0  3  0  0  0  0  0  0
  186.2450  179.9210  141.4710 O   0  0  0  0  0  1  0  0  0  0  0  0
  190.0310  177.4220  143.5510 N   0  0  0  0  0  0  0  0  0  0  0  0
  189.1480  177.4770  144.5840 C   0  0  0  0  0  0  0  0  0  0  0  0
  190.1950  177.3420  139.8510 N   0  0  0  0  0  0  0  0  0  0  0  0
  188.2980  177.6440  141.9160 C   0  0  0  0  0  0  0  0  0  0  0  0
  186.8010  177.5610  145.3720 N   0  0  0  0  0  0  0  0  0  0  0  0
  191.3670  176.6070  147.5090 N   0  0  0  0  0  0  0  0  0  0  0  0
  190.9200  177.4800  148.5960 C   0  0  0  0  0  2  0  0  0  0  0  0
  189.6840  177.3830  145.9670 C   0  0  0  0  0  0  0  0  0  0  0  0
  189.5590  178.0620  148.3270 C   0  0  0  0  0  3  0  0  0  0  0  0
  190.8110  176.6990  146.1920 C   0  0  0  0  0  3  0  0  0  0  0  0
  189.0140  178.0390  147.1090 C   0  0  0  0  0  3  0  0  0  0  0  0
  192.5460  175.7880  147.7140 C   0  0  0  0  0  1  0  0  0  0  0  0
  190.4210  174.9800  134.7460 O   0  0  0  0  0  1  0  0  0  0  0  0
  190.8440  174.8510  136.0680 C   0  0  2  0  0  3  0  0  0  0  0  0
  192.8870  174.3260  137.2160 C   0  0  0  0  0  2  0  0  0  0  0  0
  192.8090  175.8350  137.1250 C   0  0  0  0  0  2  0  0  0  0  0  0
  191.4420  176.1630  136.5530 C   0  0  2  0  0  3  0  0  0  0  0  0
  191.9430  173.8150  136.1540 C   0  0  0  0  0  2  0  0  0  0  0  0
  1 15  1  1  0  0  0
  2  7  1  0  0  0  0
  3 19  1  0  0  0  0
  4 14  1  0  0  0  0
  5 17  2  0  0  0  0
  6 13  1  0  0  0  0
  7  6  1  0  0  0  0
  7 10  1  0  0  0  0
  8 20  1  0  0  0  0
  9  3  2  0  0  0  0
 10  4  1  1  0  0  0
 10  1  1  0  0  0  0
 11 19  1  0  0  0  0
 11  8  1  0  0  0  0
 12  5  1  0  0  0  0
 13  1  1  0  0  0  0
 14 18  2  0  0  0  0
 14 21  1  0  0  0  0
 15 21  2  0  0  0  0
 16  7  1  0  0  0  0
 17 18  1  0  0  0  0
 18 24  1  0  0  0  0
 19 12  1  0  0  0  0
 20  5  1  0  0  0  0
 20  4  2  0  0  0  0
 22 28  1  0  0  0  0
 22 23  1  0  0  0  0
 24 26  2  0  0  0  0
 24 27  1  0  0  0  0
 25 23  1  0  0  0  0
 26 22  1  0  0  0  0
 27 25  2  0  0  0  0
 30 29  1  6  0  0  0
 30 34  1  0  0  0  0
 30 33  1  0  0  0  0
 32 31  1  0  0  0  0
 33 32  1  0  0  0  0
 33  9  1  1  0  0  0
 34 31  1  0  0  0  0
M  END
>  <MODEL>
3

>  <REMARK>
 VINA RESULT:      -8.9      3.157      7.392
  Name = 
  2 active torsions:
  status: ('A' for Active; 'I' for Inactive)
    1  A    between atoms: C_12  and  C_28
    2  A    between atoms: N_13  and  C_33
                            x       y       z     vdW  Elec       q    Type
                         _______ _______ _______ _____ _____    ______ ____

>  <TORSDO>
F 2

$$$$
=
 OpenBabel10272400083D

 34 39  0  0  1  0  0  0  0  0999 V2000
  190.3130  176.7250  146.5450 C   0  0  2  0  0  3  0  0  0  0  0  0
  187.3190  177.4520  148.0220 O   0  0  0  0  0  1  0  0  0  0  0  0
  183.4790  178.4080  142.9080 C   0  0  0  0  0  3  0  0  0  0  0  0
  188.6480  177.3140  144.7850 C   0  0  0  0  0  0  0  0  0  0  0  0
  187.2060  177.9850  142.9430 C   0  0  0  0  0  0  0  0  0  0  0  0
  189.5820  177.8490  148.2370 O   0  0  0  0  0  0  0  0  0  0  0  0
  188.4660  177.8900  147.3600 C   0  0  0  0  0  0  0  0  0  0  0  0
  186.1860  177.7380  145.2380 C   0  0  0  0  0  2  0  0  0  0  0  0
  182.4850  178.4560  143.7350 N   0  0  0  0  0  0  0  0  0  0  0  0
  188.8670  176.9090  146.2390 C   0  0  2  0  0  3  0  0  0  0  0  0
  185.1340  178.7290  144.7710 C   0  0  0  0  0  2  0  0  0  0  0  0
  185.9020  178.4930  142.3840 C   0  0  0  0  0  2  0  0  0  0  0  0
  190.6680  177.2340  147.6710 N   0  0  0  0  0  2  0  0  0  0  0  0
  189.6910  177.0910  143.8450 C   0  0  0  0  0  0  0  0  0  0  0  0
  191.2670  176.3420  145.5160 C   0  0  0  0  0  3  0  0  0  0  0  0
  188.2890  179.1930  146.8870 O   0  0  0  0  0  1  0  0  0  0  0  0
  188.2440  177.8230  142.0890 N   0  0  0  0  0  0  0  0  0  0  0  0
  189.4710  177.3850  142.4800 C   0  0  0  0  0  0  0  0  0  0  0  0
  184.8290  178.4660  143.3700 N   0  0  0  0  0  0  0  0  0  0  0  0
  187.3780  177.7230  144.3180 C   0  0  0  0  0  0  0  0  0  0  0  0
  190.9460  176.5140  144.2690 N   0  0  0  0  0  0  0  0  0  0  0  0
  191.1950  176.5610  139.2260 N   0  0  0  0  0  0  0  0  0  0  0  0
  192.4820  177.2560  139.2940 C   0  0  0  0  0  2  0  0  0  0  0  0
  190.5240  177.2360  141.4410 C   0  0  0  0  0  0  0  0  0  0  0  0
  192.8280  177.6640  140.6990 C   0  0  0  0  0  3  0  0  0  0  0  0
  190.2090  176.6980  140.2580 C   0  0  0  0  0  3  0  0  0  0  0  0
  191.9140  177.6800  141.6710 C   0  0  0  0  0  3  0  0  0  0  0  0
  190.8240  175.9000  137.9900 C   0  0  0  0  0  1  0  0  0  0  0  0
  180.6700  177.5980  141.0490 O   0  0  0  0  0  1  0  0  0  0  0  0
  181.0620  178.7240  141.7710 C   0  0  2  0  0  3  0  0  0  0  0  0
  179.9860  180.5270  142.9380 C   0  0  0  0  0  2  0  0  0  0  0  0
  180.2850  179.4560  143.9640 C   0  0  0  0  0  2  0  0  0  0  0  0
  181.1130  178.3980  143.2560 C   0  0  2  0  0  3  0  0  0  0  0  0
  180.0360  179.8230  141.6030 C   0  0  0  0  0  2  0  0  0  0  0  0
  1 15  1  6  0  0  0
  1 13  1  0  0  0  0
  3 19  1  0  0  0  0
  3  9  2  0  0  0  0
  5 20  2  0  0  0  0
  7  2  1  0  0  0  0
  7  6  1  0  0  0  0
 10  4  1  6  0  0  0
 10  1  1  0  0  0  0
 10  7  1  0  0  0  0
 11  8  1  0  0  0  0
 12  5  1  0  0  0  0
 12 19  1  0  0  0  0
 13  6  1  0  0  0  0
 14 21  1  0  0  0  0
 14  4  2  0  0  0  0
 16  7  1  0  0  0  0
 17 18  2  0  0  0  0
 17  5  1  0  0  0  0
 18 14  1  0  0  0  0
 19 11  1  0  0  0  0
 20  4  1  0  0  0  0
 20  8  1  0  0  0  0
 21 15  2  0  0  0  0
 22 23  1  0  0  0  0
 22 26  1  0  0  0  0
 23 25  1  0  0  0  0
 24 27  1  0  0  0  0
 24 18  1  0  0  0  0
 25 27  2  0  0  0  0
 26 24  2  0  0  0  0
 28 22  1  0  0  0  0
 30 29  1  6  0  0  0
 30 33  1  0  0  0  0
 31 32  1  0  0  0  0
 33  9  1  1  0  0  0
 33 32  1  0  0  0  0
 34 30  1  0  0  0  0
 34 31  1  0  0  0  0
M  END
>  <MODEL>
4

>  <REMARK>
 VINA RESULT:      -8.9      1.694      2.240
  Name = 
  2 active torsions:
  status: ('A' for Active; 'I' for Inactive)
    1  A    between atoms: C_12  and  C_28
    2  A    between atoms: N_13  and  C_33
                            x       y       z     vdW  Elec       q    Type
                         _______ _______ _______ _____ _____    ______ ____

>  <TORSDO>
F 2

$$$$
=
 OpenBabel10272400083D

 34 39  0  0  1  0  0  0  0  0999 V2000
  184.6680  178.3080  145.5010 C   0  0  2  0  0  3  0  0  0  0  0  0
  183.7380  178.6790  142.2340 O   0  0  0  0  0  1  0  0  0  0  0  0
  189.1900  177.1870  139.0920 C   0  0  0  0  0  3  0  0  0  0  0  0
  186.6530  177.9520  144.0330 C   0  0  0  0  0  0  0  0  0  0  0  0
  188.7230  177.7040  142.7780 C   0  0  0  0  0  0  0  0  0  0  0  0
  183.4750  179.6550  144.3080 O   0  0  0  0  0  0  0  0  0  0  0  0
  184.4090  179.1740  143.3530 C   0  0  0  0  0  0  0  0  0  0  0  0
  186.5550  177.8800  141.4980 C   0  0  0  0  0  2  0  0  0  0  0  0
  188.5020  177.2270  137.9970 N   0  0  0  0  0  0  0  0  0  0  0  0
  185.1320  178.0430  144.1100 C   0  0  2  0  0  3  0  0  0  0  0  0
  187.3920  178.4130  140.3470 C   0  0  0  0  0  2  0  0  0  0  0  0
  189.5150  177.7020  141.4970 C   0  0  0  0  0  2  0  0  0  0  0  0
  183.7320  179.1850  145.5700 N   0  0  0  0  0  2  0  0  0  0  0  0
  187.3890  177.7300  145.2300 C   0  0  0  0  0  0  0  0  0  0  0  0
  185.4460  177.8900  146.6560 C   0  0  0  0  0  3  0  0  0  0  0  0
  185.2760  180.2060  142.9850 O   0  0  0  0  0  1  0  0  0  0  0  0
  189.3970  177.5610  143.9440 N   0  0  0  0  0  0  0  0  0  0  0  0
  188.7910  177.5620  145.1620 C   0  0  0  0  0  0  0  0  0  0  0  0
  188.6610  177.6980  140.3160 N   0  0  0  0  0  0  0  0  0  0  0  0
  187.3250  177.8920  142.7920 C   0  0  0  0  0  0  0  0  0  0  0  0
  186.7060  177.6170  146.4980 N   0  0  0  0  0  0  0  0  0  0  0  0
  191.5520  176.3820  147.4470 N   0  0  0  0  0  0  0  0  0  0  0  0
  191.5040  177.2880  148.5960 C   0  0  0  0  0  2  0  0  0  0  0  0
  189.6430  177.3820  146.3660 C   0  0  0  0  0  0  0  0  0  0  0  0
  190.2030  178.0380  148.6680 C   0  0  0  0  0  3  0  0  0  0  0  0
  190.6970  176.5600  146.3110 C   0  0  0  0  0  3  0  0  0  0  0  0
  189.3690  178.1000  147.6290 C   0  0  0  0  0  3  0  0  0  0  0  0
  192.6330  175.4200  147.3630 C   0  0  0  0  0  1  0  0  0  0  0  0
  187.6340  176.5090  134.8390 O   0  0  0  0  0  1  0  0  0  0  0  0
  188.0000  175.8770  136.0260 C   0  0  2  0  0  3  0  0  0  0  0  0
  189.7210  174.3710  136.7590 C   0  0  0  0  0  2  0  0  0  0  0  0
  190.2060  175.7730  137.0620 C   0  0  0  0  0  2  0  0  0  0  0  0
  189.0490  176.7060  136.7540 C   0  0  2  0  0  3  0  0  0  0  0  0
  188.6390  174.5410  135.7200 C   0  0  0  0  0  2  0  0  0  0  0  0
  1 13  1  0  0  0  0
  1 15  1  1  0  0  0
  2  7  1  0  0  0  0
  3 19  1  0  0  0  0
  4 14  1  0  0  0  0
  5 20  1  0  0  0  0
  5 17  2  0  0  0  0
  6 13  1  0  0  0  0
  7 10  1  0  0  0  0
  7  6  1  0  0  0  0
  8 20  1  0  0  0  0
  9  3  2  0  0  0  0
 10  4  1  1  0  0  0
 10  1  1  0  0  0  0
 11  8  1  0  0  0  0
 12  5  1  0  0  0  0
 14 21  1  0  0  0  0
 16  7  1  0  0  0  0
 17 18  1  0  0  0  0
 18 14  2  0  0  0  0
 18 24  1  0  0  0  0
 19 11  1  0  0  0  0
 19 12  1  0  0  0  0
 20  4  2  0  0  0  0
 21 15  2  0  0  0  0
 22 23  1  0  0  0  0
 23 25  1  0  0  0  0
 24 27  1  0  0  0  0
 26 24  2  0  0  0  0
 26 22  1  0  0  0  0
 27 25  2  0  0  0  0
 28 22  1  0  0  0  0
 30 29  1  6  0  0  0
 30 33  1  0  0  0  0
 31 32  1  0  0  0  0
 33 32  1  0  0  0  0
 33  9  1  1  0  0  0
 34 30  1  0  0  0  0
 34 31  1  0  0  0  0
M  END
>  <MODEL>
5

>  <REMARK>
 VINA RESULT:      -8.8      3.184      6.149
  Name = 
  2 active torsions:
  status: ('A' for Active; 'I' for Inactive)
    1  A    between atoms: C_12  and  C_28
    2  A    between atoms: N_13  and  C_33
                            x       y       z     vdW  Elec       q    Type
                         _______ _______ _______ _____ _____    ______ ____

>  <TORSDO>
F 2

$$$$
=
 OpenBabel10272400083D

 34 39  0  0  1  0  0  0  0  0999 V2000
  185.3380  176.9210  135.5460 C   0  0  2  0  0  3  0  0  0  0  0  0
  188.6890  176.3750  135.9290 O   0  0  0  0  0  1  0  0  0  0  0  0
  189.6360  178.0340  142.1080 C   0  0  0  0  0  3  0  0  0  0  0  0
  186.0350  177.6460  137.8280 C   0  0  0  0  0  0  0  0  0  0  0  0
  186.5470  178.5280  140.0370 C   0  0  0  0  0  0  0  0  0  0  0  0
  187.1570  177.2060  134.4180 O   0  0  0  0  0  0  0  0  0  0  0  0
  187.6330  177.2690  135.7540 C   0  0  0  0  0  0  0  0  0  0  0  0
  188.3590  177.2930  138.7870 C   0  0  0  0  0  2  0  0  0  0  0  0
  190.8360  177.5640  141.9900 N   0  0  0  0  0  0  0  0  0  0  0  0
  186.4040  176.8450  136.5830 C   0  0  2  0  0  3  0  0  0  0  0  0
  189.3450  178.1010  139.6130 C   0  0  0  0  0  2  0  0  0  0  0  0
  187.5030  178.8660  141.1510 C   0  0  0  0  0  2  0  0  0  0  0  0
  185.7920  177.0940  134.3560 N   0  0  0  0  0  2  0  0  0  0  0  0
  184.6740  178.0060  138.0340 C   0  0  0  0  0  0  0  0  0  0  0  0
  183.9450  177.1430  135.8990 C   0  0  0  0  0  3  0  0  0  0  0  0
  188.0450  178.5730  136.0440 O   0  0  0  0  0  1  0  0  0  0  0  0
  185.2560  178.9130  140.1680 N   0  0  0  0  0  0  0  0  0  0  0  0
  184.3060  178.6770  139.2220 C   0  0  0  0  0  0  0  0  0  0  0  0
  188.8140  178.2560  140.9610 N   0  0  0  0  0  0  0  0  0  0  0  0
  186.9700  177.8710  138.8630 C   0  0  0  0  0  0  0  0  0  0  0  0
  183.6660  177.6380  137.0670 N   0  0  0  0  0  0  0  0  0  0  0  0
  180.8610  178.9610  140.7360 N   0  0  0  0  0  0  0  0  0  0  0  0
  180.3480  180.2490  140.2660 C   0  0  0  0  0  2  0  0  0  0  0  0
  182.9200  179.1390  139.4940 C   0  0  0  0  0  0  0  0  0  0  0  0
  181.1260  180.7710  139.0900 C   0  0  0  0  0  3  0  0  0  0  0  0
  182.1930  178.5260  140.4340 C   0  0  0  0  0  3  0  0  0  0  0  0
  182.3200  180.2740  138.7620 C   0  0  0  0  0  3  0  0  0  0  0  0
  180.0860  178.2140  141.7060 C   0  0  0  0  0  1  0  0  0  0  0  0
  192.0300  175.1150  143.9450 O   0  0  0  0  0  1  0  0  0  0  0  0
  191.1270  176.1770  143.9770 C   0  0  2  0  0  3  0  0  0  0  0  0
  190.8030  178.1700  145.2770 C   0  0  0  0  0  2  0  0  0  0  0  0
  191.6120  178.5660  144.0600 C   0  0  0  0  0  2  0  0  0  0  0  0
  191.6680  177.3430  143.1620 C   0  0  2  0  0  3  0  0  0  0  0  0
  190.9720  176.6750  145.3970 C   0  0  0  0  0  2  0  0  0  0  0  0
  1 15  1  1  0  0  0
  1 10  1  0  0  0  0
  4 14  2  0  0  0  0
  4 20  1  0  0  0  0
  5 17  1  0  0  0  0
  5 12  1  0  0  0  0
  6  7  1  0  0  0  0
  7  2  1  0  0  0  0
  7 16  1  0  0  0  0
  7 10  1  0  0  0  0
  8 20  1  0  0  0  0
  8 11  1  0  0  0  0
  9  3  2  0  0  0  0
 10  4  1  1  0  0  0
 11 19  1  0  0  0  0
 13  6  1  0  0  0  0
 13  1  1  0  0  0  0
 14 18  1  0  0  0  0
 15 21  2  0  0  0  0
 18 24  1  0  0  0  0
 18 17  2  0  0  0  0
 19 12  1  0  0  0  0
 19  3  1  0  0  0  0
 20  5  2  0  0  0  0
 21 14  1  0  0  0  0
 22 28  1  0  0  0  0
 23 22  1  0  0  0  0
 24 26  2  0  0  0  0
 25 23  1  0  0  0  0
 26 22  1  0  0  0  0
 27 25  2  0  0  0  0
 27 24  1  0  0  0  0
 30 29  1  1  0  0  0
 30 34  1  0  0  0  0
 31 34  1  0  0  0  0
 32 31  1  0  0  0  0
 33  9  1  6  0  0  0
 33 30  1  0  0  0  0
 33 32  1  0  0  0  0
M  END
>  <MODEL>
6

>  <REMARK>
 VINA RESULT:      -8.6      4.123      9.846
  Name = 
  2 active torsions:
  status: ('A' for Active; 'I' for Inactive)
    1  A    between atoms: C_12  and  C_28
    2  A    between atoms: N_13  and  C_33
                            x       y       z     vdW  Elec       q    Type
                         _______ _______ _______ _____ _____    ______ ____

>  <TORSDO>
F 2

$$$$
=
 OpenBabel10272400083D

 34 39  0  0  1  0  0  0  0  0999 V2000
  182.6660  178.6490  141.2940 C   0  0  2  0  0  3  0  0  0  0  0  0
  183.6010  178.5590  138.0090 O   0  0  0  0  0  1  0  0  0  0  0  0
  189.9130  177.2190  138.4310 C   0  0  0  0  0  3  0  0  0  0  0  0
  185.1320  178.3100  141.1490 C   0  0  0  0  0  0  0  0  0  0  0  0
  187.5570  178.1090  141.2100 C   0  0  0  0  0  0  0  0  0  0  0  0
  182.2630  179.7370  139.4730 O   0  0  0  0  0  0  0  0  0  0  0  0
  183.5690  179.2370  139.2280 C   0  0  0  0  0  0  0  0  0  0  0  0
  186.3930  177.9400  138.9770 C   0  0  0  0  0  2  0  0  0  0  0  0
  189.9090  177.0700  137.1450 N   0  0  0  0  0  0  0  0  0  0  0  0
  183.8000  178.2710  140.4070 C   0  0  2  0  0  3  0  0  0  0  0  0
  187.7030  178.4120  138.3680 C   0  0  0  0  0  2  0  0  0  0  0  0
  188.9070  178.0330  140.5470 C   0  0  0  0  0  2  0  0  0  0  0  0
  181.8200  179.4410  140.7370 N   0  0  0  0  0  2  0  0  0  0  0  0
  185.1270  178.2940  142.5710 C   0  0  0  0  0  0  0  0  0  0  0  0
  182.7210  178.4400  142.7320 C   0  0  0  0  0  3  0  0  0  0  0  0
  184.4820  180.2950  139.2210 O   0  0  0  0  0  1  0  0  0  0  0  0
  187.5140  178.1630  142.5620 N   0  0  0  0  0  0  0  0  0  0  0  0
  186.3550  178.2480  143.2700 C   0  0  0  0  0  0  0  0  0  0  0  0
  188.8080  177.8160  139.1090 N   0  0  0  0  0  0  0  0  0  0  0  0
  186.3610  178.1710  140.4650 C   0  0  0  0  0  0  0  0  0  0  0  0
  183.8780  178.2660  143.2960 N   0  0  0  0  0  0  0  0  0  0  0  0
  187.5710  177.6850  146.7970 N   0  0  0  0  0  0  0  0  0  0  0  0
  186.8170  178.6380  147.6130 C   0  0  0  0  0  2  0  0  0  0  0  0
  186.4430  178.2860  144.7530 C   0  0  0  0  0  0  0  0  0  0  0  0
  185.6070  179.1630  146.8920 C   0  0  0  0  0  3  0  0  0  0  0  0
  187.4440  177.6490  145.3690 C   0  0  0  0  0  3  0  0  0  0  0  0
  185.4590  179.0230  145.5730 C   0  0  0  0  0  3  0  0  0  0  0  0
  188.6270  176.9130  147.4230 C   0  0  0  0  0  1  0  0  0  0  0  0
  190.6660  175.1820  134.4790 O   0  0  0  0  0  1  0  0  0  0  0  0
  190.6350  175.1190  135.8710 C   0  0  2  0  0  3  0  0  0  0  0  0
  192.1940  174.6830  137.6460 C   0  0  0  0  0  2  0  0  0  0  0  0
  192.1470  176.1850  137.4620 C   0  0  0  0  0  2  0  0  0  0  0  0
  191.0400  176.4630  136.4610 C   0  0  2  0  0  3  0  0  0  0  0  0
  191.6490  174.1090  136.3610 C   0  0  0  0  0  2  0  0  0  0  0  0
  1 15  1  1  0  0  0
  2  7  1  0  0  0  0
  3 19  1  0  0  0  0
  4 14  1  0  0  0  0
  5 17  2  0  0  0  0
  6 13  1  0  0  0  0
  7  6  1  0  0  0  0
  7 10  1  0  0  0  0
  8 20  1  0  0  0  0
  9  3  2  0  0  0  0
 10  4  1  1  0  0  0
 10  1  1  0  0  0  0
 11  8  1  0  0  0  0
 11 19  1  0  0  0  0
 12  5  1  0  0  0  0
 13  1  1  0  0  0  0
 14 18  2  0  0  0  0
 14 21  1  0  0  0  0
 15 21  2  0  0  0  0
 16  7  1  0  0  0  0
 17 18  1  0  0  0  0
 18 24  1  0  0  0  0
 19 12  1  0  0  0  0
 20  4  2  0  0  0  0
 20  5  1  0  0  0  0
 22 28  1  0  0  0  0
 22 23  1  0  0  0  0
 24 26  2  0  0  0  0
 24 27  1  0  0  0  0
 25 23  1  0  0  0  0
 26 22  1  0  0  0  0
 27 25  2  0  0  0  0
 30 29  1  6  0  0  0
 30 34  1  0  0  0  0
 30 33  1  0  0  0  0
 32 31  1  0  0  0  0
 33  9  1  1  0  0  0
 33 32  1  0  0  0  0
 34 31  1  0  0  0  0
M  END
>  <MODEL>
7

>  <REMARK>
 VINA RESULT:      -8.5      3.179      7.975
  Name = 
  2 active torsions:
  status: ('A' for Active; 'I' for Inactive)
    1  A    between atoms: C_12  and  C_28
    2  A    between atoms: N_13  and  C_33
                            x       y       z     vdW  Elec       q    Type
                         _______ _______ _______ _____ _____    ______ ____

>  <TORSDO>
F 2

$$$$
=
 OpenBabel10272400083D

 34 39  0  0  1  0  0  0  0  0999 V2000
  189.8790  177.7990  140.1800 C   0  0  2  0  0  3  0  0  0  0  0  0
  188.2520  178.2280  137.2070 O   0  0  0  0  0  1  0  0  0  0  0  0
  182.2380  179.6150  139.1400 C   0  0  0  0  0  3  0  0  0  0  0  0
  187.4550  178.1880  140.6170 C   0  0  0  0  0  0  0  0  0  0  0  0
  185.1120  178.4180  141.2320 C   0  0  0  0  0  0  0  0  0  0  0  0
  189.8340  176.8910  138.2220 O   0  0  0  0  0  0  0  0  0  0  0  0
  188.5250  177.4320  138.3190 C   0  0  0  0  0  0  0  0  0  0  0  0
  185.7630  178.7900  138.8220 C   0  0  0  0  0  2  0  0  0  0  0  0
  181.9660  179.8890  137.9040 N   0  0  0  0  0  0  0  0  0  0  0  0
  188.5930  178.2810  139.6050 C   0  0  2  0  0  3  0  0  0  0  0  0
  184.3350  178.4000  138.4780 C   0  0  0  0  0  2  0  0  0  0  0  0
  183.6530  178.5800  140.8950 C   0  0  0  0  0  2  0  0  0  0  0  0
  190.5530  177.0540  139.3780 N   0  0  0  0  0  2  0  0  0  0  0  0
  187.7730  178.0630  141.9980 C   0  0  0  0  0  0  0  0  0  0  0  0
  190.1480  177.8670  141.6080 C   0  0  0  0  0  3  0  0  0  0  0  0
  187.5950  176.3940  138.4170 O   0  0  0  0  0  1  0  0  0  0  0  0
  185.4480  178.2310  142.5300 N   0  0  0  0  0  0  0  0  0  0  0  0
  186.7300  178.0590  142.9520 C   0  0  0  0  0  0  0  0  0  0  0  0
  183.4430  178.9370  139.4970 N   0  0  0  0  0  0  0  0  0  0  0  0
  186.1130  178.4130  140.2380 C   0  0  0  0  0  0  0  0  0  0  0  0
  189.1500  178.0010  142.4280 N   0  0  0  0  0  0  0  0  0  0  0  0
  188.4540  177.3670  146.2370 N   0  0  0  0  0  0  0  0  0  0  0  0
  187.5250  177.8510  147.2600 C   0  0  0  0  0  2  0  0  0  0  0  0
  186.9680  177.8760  144.4080 C   0  0  0  0  0  0  0  0  0  0  0  0
  186.1360  178.0400  146.7160 C   0  0  0  0  0  3  0  0  0  0  0  0
  188.1850  177.5290  144.8380 C   0  0  0  0  0  3  0  0  0  0  0  0
  185.8950  178.0800  145.4040 C   0  0  0  0  0  3  0  0  0  0  0  0
  189.7680  176.9130  146.6470 C   0  0  0  0  0  1  0  0  0  0  0  0
  179.9830  180.5430  135.2810 O   0  0  0  0  0  1  0  0  0  0  0  0
  180.8580  181.1830  136.1560 C   0  0  2  0  0  3  0  0  0  0  0  0
  180.7610  183.0020  137.7220 C   0  0  0  0  0  2  0  0  0  0  0  0
  180.5060  181.7330  138.5070 C   0  0  0  0  0  2  0  0  0  0  0  0
  180.7350  180.5780  137.5480 C   0  0  2  0  0  3  0  0  0  0  0  0
  180.4800  182.6420  136.2830 C   0  0  0  0  0  2  0  0  0  0  0  0
  1 15  1  1  0  0  0
  2  7  1  0  0  0  0
  3 19  1  0  0  0  0
  4 14  1  0  0  0  0
  5 17  2  0  0  0  0
  6  7  1  0  0  0  0
  6 13  1  0  0  0  0
  7 16  1  0  0  0  0
  7 10  1  0  0  0  0
  8 20  1  0  0  0  0
  9  3  2  0  0  0  0
 10  1  1  0  0  0  0
 10  4  1  1  0  0  0
 11  8  1  0  0  0  0
 11 19  1  0  0  0  0
 12  5  1  0  0  0  0
 13  1  1  0  0  0  0
 14 21  1  0  0  0  0
 14 18  2  0  0  0  0
 15 21  2  0  0  0  0
 17 18  1  0  0  0  0
 18 24  1  0  0  0  0
 19 12  1  0  0  0  0
 20  4  2  0  0  0  0
 20  5  1  0  0  0  0
 22 28  1  0  0  0  0
 22 23  1  0  0  0  0
 24 26  2  0  0  0  0
 24 27  1  0  0  0  0
 25 23  1  0  0  0  0
 26 22  1  0  0  0  0
 27 25  2  0  0  0  0
 30 29  1  6  0  0  0
 30 34  1  0  0  0  0
 30 33  1  0  0  0  0
 31 32  1  0  0  0  0
 33  9  1  1  0  0  0
 33 32  1  0  0  0  0
 34 31  1  0  0  0  0
M  END
>  <MODEL>
8

>  <REMARK>
 VINA RESULT:      -8.4      3.301      5.686
  Name = 
  2 active torsions:
  status: ('A' for Active; 'I' for Inactive)
    1  A    between atoms: C_12  and  C_28
    2  A    between atoms: N_13  and  C_33
                            x       y       z     vdW  Elec       q    Type
                         _______ _______ _______ _____ _____    ______ ____

>  <TORSDO>
F 2

$$$$
=
 OpenBabel10272400083D

 34 39  0  0  1  0  0  0  0  0999 V2000
  191.1440  177.3750  139.8110 C   0  0  2  0  0  3  0  0  0  0  0  0
  189.2470  177.7380  136.9920 O   0  0  0  0  0  1  0  0  0  0  0  0
  183.4760  179.3340  139.4370 C   0  0  0  0  0  3  0  0  0  0  0  0
  188.7810  177.8360  140.4620 C   0  0  0  0  0  0  0  0  0  0  0  0
  186.5140  178.1430  141.2890 C   0  0  0  0  0  0  0  0  0  0  0  0
  190.8920  176.4000  137.9010 O   0  0  0  0  0  0  0  0  0  0  0  0
  189.6100  176.9750  138.1020 C   0  0  0  0  0  0  0  0  0  0  0  0
  186.9370  178.4150  138.8160 C   0  0  0  0  0  2  0  0  0  0  0  0
  183.0920  179.5720  138.2250 N   0  0  0  0  0  0  0  0  0  0  0  0
  189.8180  177.8660  139.3430 C   0  0  2  0  0  3  0  0  0  0  0  0
  185.4750  178.0480  138.6240 C   0  0  0  0  0  2  0  0  0  0  0  0
  185.0320  178.3280  141.0870 C   0  0  0  0  0  2  0  0  0  0  0  0
  191.7220  176.5860  138.9760 N   0  0  0  0  0  2  0  0  0  0  0  0
  189.2280  177.7520  141.8100 C   0  0  0  0  0  0  0  0  0  0  0  0
  191.5500  177.4860  141.2020 C   0  0  0  0  0  3  0  0  0  0  0  0
  188.6720  175.9630  138.3260 O   0  0  0  0  0  1  0  0  0  0  0  0
  186.9690  177.9930  142.5550 N   0  0  0  0  0  0  0  0  0  0  0  0
  188.2820  177.8060  142.8590 C   0  0  0  0  0  0  0  0  0  0  0  0
  184.6960  178.6400  139.7030 N   0  0  0  0  0  0  0  0  0  0  0  0
  187.4140  178.0800  140.2050 C   0  0  0  0  0  0  0  0  0  0  0  0
  190.6390  177.6720  142.1080 N   0  0  0  0  0  0  0  0  0  0  0  0
  188.0520  177.7310  146.6250 N   0  0  0  0  0  0  0  0  0  0  0  0
  189.2810  177.0700  147.0650 C   0  0  0  0  0  2  0  0  0  0  0  0
  188.6550  177.6680  144.2910 C   0  0  0  0  0  0  0  0  0  0  0  0
  190.3250  177.0430  145.9830 C   0  0  0  0  0  3  0  0  0  0  0  0
  187.7310  177.8780  145.2350 C   0  0  0  0  0  3  0  0  0  0  0  0
  190.0220  177.2900  144.7080 C   0  0  0  0  0  3  0  0  0  0  0  0
  187.0380  178.0470  147.6120 C   0  0  0  0  0  1  0  0  0  0  0  0
  181.7430  182.6410  138.2920 O   0  0  0  0  0  1  0  0  0  0  0  0
  181.6710  181.4170  138.9550 C   0  0  2  0  0  3  0  0  0  0  0  0
  179.9850  179.7760  139.4390 C   0  0  0  0  0  2  0  0  0  0  0  0
  180.6770  179.3320  138.1690 C   0  0  0  0  0  2  0  0  0  0  0  0
  181.8480  180.2770  137.9610 C   0  0  2  0  0  3  0  0  0  0  0  0
  180.3000  181.2470  139.5690 C   0  0  0  0  0  2  0  0  0  0  0  0
  1 15  1  1  0  0  0
  2  7  1  0  0  0  0
  3 19  1  0  0  0  0
  4 14  1  0  0  0  0
  5 17  2  0  0  0  0
  6  7  1  0  0  0  0
  6 13  1  0  0  0  0
  7 16  1  0  0  0  0
  7 10  1  0  0  0  0
  8 20  1  0  0  0  0
  9  3  2  0  0  0  0
 10  1  1  0  0  0  0
 10  4  1  1  0  0  0
 11  8  1  0  0  0  0
 11 19  1  0  0  0  0
 12  5  1  0  0  0  0
 13  1  1  0  0  0  0
 14 21  1  0  0  0  0
 14 18  2  0  0  0  0
 15 21  2  0  0  0  0
 17 18  1  0  0  0  0
 18 24  1  0  0  0  0
 19 12  1  0  0  0  0
 20  4  2  0  0  0  0
 20  5  1  0  0  0  0
 22 23  1  0  0  0  0
 22 28  1  0  0  0  0
 24 27  1  0  0  0  0
 24 26  2  0  0  0  0
 25 23  1  0  0  0  0
 26 22  1  0  0  0  0
 27 25  2  0  0  0  0
 30 29  1  6  0  0  0
 30 34  1  0  0  0  0
 31 34  1  0  0  0  0
 32 31  1  0  0  0  0
 33 32  1  0  0  0  0
 33  9  1  1  0  0  0
 33 30  1  0  0  0  0
M  END
>  <MODEL>
9

>  <REMARK>
 VINA RESULT:      -8.1      3.451      5.769
  Name = 
  2 active torsions:
  status: ('A' for Active; 'I' for Inactive)
    1  A    between atoms: C_12  and  C_28
    2  A    between atoms: N_13  and  C_33
                            x       y       z     vdW  Elec       q    Type
                         _______ _______ _______ _____ _____    ______ ____

>  <TORSDO>
F 2

$$$$
