=
 OpenBabel10272401483D

 28 31  0  0  1  0  0  0  0  0999 V2000
  188.7470  176.8860  145.0820 C   0  0  1  0  0  3  0  0  0  0  0  0
  187.6450  178.4590  148.9590 C   0  0  0  0  0  1  0  0  0  0  0  0
  185.1510  178.2410  144.4100 C   0  0  1  0  0  3  0  0  0  0  0  0
  186.8830  177.7820  146.5790 C   0  0  2  0  0  3  0  0  0  0  0  0
  186.5120  177.5920  144.0940 C   0  0  0  0  0  2  0  0  0  0  0  0
  189.2330  177.8810  147.2510 O   0  0  0  0  0  0  0  0  0  0  0  0
  185.8840  178.9450  146.7430 C   0  0  0  0  0  2  0  0  0  0  0  0
  187.9290  177.6310  147.7150 C   0  0  1  0  0  3  0  0  0  0  0  0
  185.2490  179.3940  145.4180 C   0  0  0  0  0  2  0  0  0  0  0  0
  189.5510  176.8110  146.3930 C   0  0  0  0  0  2  0  0  0  0  0  0
  187.5470  177.8360  145.1950 C   0  0  2  0  0  3  0  0  0  0  0  0
  185.3270  179.2020  142.1310 C   0  0  0  0  0  2  0  0  0  0  0  0
  182.3330  178.5270  141.7470 C   0  0  0  0  0  2  0  0  0  0  0  0
  184.0270  179.0880  139.9680 C   0  0  1  0  0  3  0  0  0  0  0  0
  184.4720  178.6650  143.1860 N   0  0  0  0  0  0  0  0  0  0  0  0
  182.3190  178.5850  144.1120 O   0  0  0  0  0  0  0  0  0  0  0  0
  182.8210  179.5820  140.7680 C   0  0  0  0  0  2  0  0  0  0  0  0
  183.0300  178.6240  143.0730 C   0  0  0  0  0  0  0  0  0  0  0  0
  184.5640  180.1490  139.2390 O   0  0  0  0  0  1  0  0  0  0  0  0
  185.1200  178.4460  140.8260 C   0  0  0  0  0  2  0  0  0  0  0  0
  189.6270  177.2410  143.9150 C   0  0  0  0  0  0  0  0  0  0  0  0
  190.4510  178.5000  144.0250 C   0  0  0  0  0  2  0  0  0  0  0  0
  190.6200  176.8460  141.7250 C   0  0  0  0  0  0  0  0  0  0  0  0
  191.8060  178.3330  143.3370 C   0  0  0  0  0  2  0  0  0  0  0  0
  188.8790  175.4010  142.6490 F   0  0  0  0  0  0  0  0  0  0  0  0
  189.6680  176.4970  142.7920 C   0  0  0  0  0  0  0  0  0  0  0  0
  190.5630  176.2780  140.6030 O   0  0  0  0  0  0  0  0  0  0  0  0
  191.6140  177.8420  141.9760 N   0  0  0  0  0  2  0  0  0  0  0  0
  1 21  1  6  0  0  0
  1 11  1  0  0  0  0
  1 10  1  0  0  0  0
  3 15  1  6  0  0  0
  3  9  1  0  0  0  0
  4  7  1  1  0  0  0
  4  8  1  0  0  0  0
  5  3  1  0  0  0  0
  6  8  1  0  0  0  0
  8  2  1  1  0  0  0
  9  7  1  0  0  0  0
 10  6  1  0  0  0  0
 11  5  1  6  0  0  0
 11  4  1  0  0  0  0
 12 15  1  0  0  0  0
 13 18  1  0  0  0  0
 14 19  1  1  0  0  0
 14 17  1  0  0  0  0
 14 20  1  0  0  0  0
 17 13  1  0  0  0  0
 18 15  1  0  0  0  0
 18 16  2  0  0  0  0
 20 12  1  0  0  0  0
 21 22  1  0  0  0  0
 23 28  1  0  0  0  0
 23 26  1  0  0  0  0
 24 22  1  0  0  0  0
 25 26  1  0  0  0  0
 26 21  2  0  0  0  0
 27 23  2  0  0  0  0
 28 24  1  0  0  0  0
M  END
>  <MODEL>
1

>  <REMARK>
 VINA RESULT:     -10.2      0.000      0.000
  Name = 
  2 active torsions:
  status: ('A' for Active; 'I' for Inactive)
    1  A    between atoms: C_1  and  C_2
    2  A    between atoms: C_10  and  N_13
                            x       y       z     vdW  Elec       q    Type
                         _______ _______ _______ _____ _____    ______ ____

>  <TORSDO>
F 2

$$$$
=
 OpenBabel10272401483D

 28 31  0  0  1  0  0  0  0  0999 V2000
  186.1140  177.4940  145.6550 C   0  0  1  0  0  3  0  0  0  0  0  0
  182.6370  179.6970  144.3220 C   0  0  0  0  0  1  0  0  0  0  0  0
  186.8230  177.8870  141.8390 C   0  0  1  0  0  3  0  0  0  0  0  0
  184.7360  178.3270  143.6730 C   0  0  2  0  0  3  0  0  0  0  0  0
  187.0770  177.4720  143.3010 C   0  0  0  0  0  2  0  0  0  0  0  0
  184.2740  179.0600  145.9610 O   0  0  0  0  0  0  0  0  0  0  0  0
  184.7740  179.2670  142.4530 C   0  0  0  0  0  2  0  0  0  0  0  0
  183.6730  178.6690  144.7510 C   0  0  1  0  0  3  0  0  0  0  0  0
  186.1190  179.2440  141.7090 C   0  0  0  0  0  2  0  0  0  0  0  0
  184.8820  177.9030  146.4840 C   0  0  0  0  0  2  0  0  0  0  0  0
  186.1380  178.1790  144.2820 C   0  0  2  0  0  3  0  0  0  0  0  0
  189.3020  177.8470  141.8290 C   0  0  0  0  0  2  0  0  0  0  0  0
  189.1600  177.3700  138.7750 C   0  0  0  0  0  2  0  0  0  0  0  0
  191.1340  177.0140  140.3010 C   0  0  1  0  0  3  0  0  0  0  0  0
  188.0600  177.8570  141.0600 N   0  0  0  0  0  0  0  0  0  0  0  0
  187.0250  178.3600  139.0170 O   0  0  0  0  0  0  0  0  0  0  0  0
  190.5140  177.8990  139.2180 C   0  0  0  0  0  2  0  0  0  0  0  0
  188.0410  177.9150  139.6140 C   0  0  0  0  0  0  0  0  0  0  0  0
  192.2660  177.6430  140.8190 O   0  0  0  0  0  1  0  0  0  0  0  0
  190.1730  176.6610  141.4390 C   0  0  0  0  0  2  0  0  0  0  0  0
  187.3910  177.7290  146.4150 C   0  0  0  0  0  0  0  0  0  0  0  0
  187.3250  178.6290  147.6230 C   0  0  0  0  0  2  0  0  0  0  0  0
  189.7600  177.3850  146.8670 C   0  0  0  0  0  0  0  0  0  0  0  0
  188.2770  178.1500  148.7190 C   0  0  0  0  0  2  0  0  0  0  0  0
  188.6570  176.4410  144.9010 F   0  0  0  0  0  0  0  0  0  0  0  0
  188.5660  177.1940  146.0280 C   0  0  0  0  0  0  0  0  0  0  0  0
  190.8990  177.0470  146.4500 O   0  0  0  0  0  0  0  0  0  0  0  0
  189.6140  177.9640  148.1660 N   0  0  0  0  0  2  0  0  0  0  0  0
  1 21  1  1  0  0  0
  1 10  1  0  0  0  0
  3 15  1  6  0  0  0
  3  5  1  0  0  0  0
  4  7  1  6  0  0  0
  4 11  1  0  0  0  0
  4  8  1  0  0  0  0
  6 10  1  0  0  0  0
  8  2  1  6  0  0  0
  8  6  1  0  0  0  0
  9  3  1  0  0  0  0
  9  7  1  0  0  0  0
 11  5  1  6  0  0  0
 11  1  1  0  0  0  0
 13 17  1  0  0  0  0
 13 18  1  0  0  0  0
 14 19  1  1  0  0  0
 14 20  1  0  0  0  0
 15 12  1  0  0  0  0
 16 18  2  0  0  0  0
 17 14  1  0  0  0  0
 18 15  1  0  0  0  0
 20 12  1  0  0  0  0
 21 22  1  0  0  0  0
 22 24  1  0  0  0  0
 23 28  1  0  0  0  0
 25 26  1  0  0  0  0
 26 21  2  0  0  0  0
 26 23  1  0  0  0  0
 27 23  2  0  0  0  0
 28 24  1  0  0  0  0
M  END
>  <MODEL>
2

>  <REMARK>
 VINA RESULT:      -9.0      2.254      5.308
  Name = 
  2 active torsions:
  status: ('A' for Active; 'I' for Inactive)
    1  A    between atoms: C_1  and  C_2
    2  A    between atoms: C_10  and  N_13
                            x       y       z     vdW  Elec       q    Type
                         _______ _______ _______ _____ _____    ______ ____

>  <TORSDO>
F 2

$$$$
=
 OpenBabel10272401483D

 28 31  0  0  1  0  0  0  0  0999 V2000
  190.4850  176.3410  144.4390 C   0  0  1  0  0  3  0  0  0  0  0  0
  191.4600  177.2980  148.5450 C   0  0  0  0  0  1  0  0  0  0  0  0
  187.0720  177.6620  145.7910 C   0  0  1  0  0  3  0  0  0  0  0  0
  189.6150  176.9490  146.7620 C   0  0  2  0  0  3  0  0  0  0  0  0
  188.0830  177.1100  144.7670 C   0  0  0  0  0  2  0  0  0  0  0  0
  192.0000  177.0250  146.2200 O   0  0  0  0  0  0  0  0  0  0  0  0
  188.8700  178.0430  147.5520 C   0  0  0  0  0  2  0  0  0  0  0  0
  191.0720  176.6680  147.2150 C   0  0  1  0  0  3  0  0  0  0  0  0
  187.6930  178.6590  146.7780 C   0  0  0  0  0  2  0  0  0  0  0  0
  191.8190  176.1020  145.1730 C   0  0  0  0  0  2  0  0  0  0  0  0
  189.5300  177.2240  145.2530 C   0  0  2  0  0  3  0  0  0  0  0  0
  186.0470  178.4900  143.6920 C   0  0  0  0  0  2  0  0  0  0  0  0
  183.3640  178.6810  145.2210 C   0  0  0  0  0  2  0  0  0  0  0  0
  183.7220  178.7060  142.7260 C   0  0  1  0  0  3  0  0  0  0  0  0
  185.9060  178.2360  145.1230 N   0  0  0  0  0  0  0  0  0  0  0  0
  184.7860  178.7860  147.1090 O   0  0  0  0  0  0  0  0  0  0  0  0
  183.3790  179.5360  143.9650 C   0  0  0  0  0  2  0  0  0  0  0  0
  184.7180  178.6030  145.8640 C   0  0  0  0  0  0  0  0  0  0  0  0
  183.9260  179.5580  141.6410 O   0  0  0  0  0  1  0  0  0  0  0  0
  184.9410  177.7980  142.9060 C   0  0  0  0  0  2  0  0  0  0  0  0
  190.7070  176.8890  143.0570 C   0  0  0  0  0  0  0  0  0  0  0  0
  191.8690  177.8300  142.8620 C   0  0  0  0  0  2  0  0  0  0  0  0
  190.2170  177.0870  140.6780 C   0  0  0  0  0  0  0  0  0  0  0  0
  192.5100  177.6370  141.4870 C   0  0  0  0  0  2  0  0  0  0  0  0
  188.7980  175.8050  142.2010 F   0  0  0  0  0  0  0  0  0  0  0  0
  189.8910  176.5930  142.0260 C   0  0  0  0  0  0  0  0  0  0  0  0
  189.3910  176.9720  139.7350 O   0  0  0  0  0  0  0  0  0  0  0  0
  191.4860  177.7030  140.4500 N   0  0  0  0  0  2  0  0  0  0  0  0
  1 21  1  6  0  0  0
  1 10  1  0  0  0  0
  1 11  1  0  0  0  0
  3  5  1  6  0  0  0
  3  9  1  0  0  0  0
  4  8  1  0  0  0  0
  4  7  1  1  0  0  0
  6  8  1  0  0  0  0
  8  2  1  1  0  0  0
  9  7  1  0  0  0  0
 10  6  1  0  0  0  0
 11  5  1  6  0  0  0
 11  4  1  0  0  0  0
 12 15  1  0  0  0  0
 13 18  1  0  0  0  0
 14 19  1  6  0  0  0
 14 20  1  0  0  0  0
 14 17  1  0  0  0  0
 15  3  1  0  0  0  0
 15 18  1  0  0  0  0
 17 13  1  0  0  0  0
 18 16  2  0  0  0  0
 20 12  1  0  0  0  0
 22 21  1  0  0  0  0
 23 26  1  0  0  0  0
 24 22  1  0  0  0  0
 26 25  1  0  0  0  0
 26 21  2  0  0  0  0
 27 23  2  0  0  0  0
 28 23  1  0  0  0  0
 28 24  1  0  0  0  0
M  END
>  <MODEL>
3

>  <REMARK>
 VINA RESULT:      -8.2      1.760      2.559
  Name = 
  2 active torsions:
  status: ('A' for Active; 'I' for Inactive)
    1  A    between atoms: C_1  and  C_2
    2  A    between atoms: C_10  and  N_13
                            x       y       z     vdW  Elec       q    Type
                         _______ _______ _______ _____ _____    ______ ____

>  <TORSDO>
F 2

$$$$
=
 OpenBabel10272401483D

 28 31  0  0  1  0  0  0  0  0999 V2000
  188.1790  177.1170  144.7690 C   0  0  1  0  0  3  0  0  0  0  0  0
  186.1070  179.1850  147.9550 C   0  0  0  0  0  1  0  0  0  0  0  0
  184.7970  178.0490  143.0600 C   0  0  1  0  0  3  0  0  0  0  0  0
  185.9710  178.0820  145.6170 C   0  0  2  0  0  3  0  0  0  0  0  0
  186.2210  177.4720  143.1840 C   0  0  0  0  0  2  0  0  0  0  0  0
  188.0830  178.4780  146.7870 O   0  0  0  0  0  0  0  0  0  0  0  0
  184.9150  179.1690  145.3430 C   0  0  0  0  0  2  0  0  0  0  0  0
  186.7170  178.1970  146.9720 C   0  0  1  0  0  3  0  0  0  0  0  0
  184.6000  179.3500  143.8490 C   0  0  0  0  0  2  0  0  0  0  0  0
  188.6440  177.3160  146.2240 C   0  0  0  0  0  2  0  0  0  0  0  0
  186.9470  177.9710  144.4360 C   0  0  2  0  0  3  0  0  0  0  0  0
  183.1890  177.5470  141.2410 C   0  0  0  0  0  2  0  0  0  0  0  0
  184.7190  179.5880  139.4910 C   0  0  0  0  0  2  0  0  0  0  0  0
  182.4170  178.6400  139.0980 C   0  0  1  0  0  3  0  0  0  0  0  0
  184.4180  178.2170  141.6590 N   0  0  0  0  0  0  0  0  0  0  0  0
  186.4810  179.1140  140.9970 O   0  0  0  0  0  0  0  0  0  0  0  0
  183.8840  178.6240  138.6640 C   0  0  0  0  0  2  0  0  0  0  0  0
  185.2620  178.9400  140.7310 C   0  0  0  0  0  0  0  0  0  0  0  0
  181.7360  177.6030  138.4610 O   0  0  0  0  0  1  0  0  0  0  0  0
  182.2170  178.5350  140.6120 C   0  0  0  0  0  2  0  0  0  0  0  0
  189.2990  177.3550  143.7950 C   0  0  0  0  0  0  0  0  0  0  0  0
  190.1970  178.5400  144.0450 C   0  0  0  0  0  2  0  0  0  0  0  0
  190.6600  176.8020  141.8510 C   0  0  0  0  0  0  0  0  0  0  0  0
  191.6400  178.2330  143.6420 C   0  0  0  0  0  2  0  0  0  0  0  0
  188.6470  175.5450  142.4340 F   0  0  0  0  0  0  0  0  0  0  0  0
  189.4900  176.5730  142.7140 C   0  0  0  0  0  0  0  0  0  0  0  0
  190.7720  176.2040  140.7480 O   0  0  0  0  0  0  0  0  0  0  0  0
  191.6730  177.7160  142.2780 N   0  0  0  0  0  2  0  0  0  0  0  0
  1 21  1  6  0  0  0
  1 10  1  0  0  0  0
  3 15  1  6  0  0  0
  3  5  1  0  0  0  0
  3  9  1  0  0  0  0
  4  7  1  6  0  0  0
  4  8  1  0  0  0  0
  6  8  1  0  0  0  0
  8  2  1  1  0  0  0
  9  7  1  0  0  0  0
 10  6  1  0  0  0  0
 11  5  1  6  0  0  0
 11  1  1  0  0  0  0
 11  4  1  0  0  0  0
 12 15  1  0  0  0  0
 13 18  1  0  0  0  0
 14 19  1  6  0  0  0
 14 20  1  0  0  0  0
 17 14  1  0  0  0  0
 17 13  1  0  0  0  0
 18 16  2  0  0  0  0
 18 15  1  0  0  0  0
 20 12  1  0  0  0  0
 21 22  1  0  0  0  0
 23 28  1  0  0  0  0
 23 26  1  0  0  0  0
 24 22  1  0  0  0  0
 25 26  1  0  0  0  0
 26 21  2  0  0  0  0
 27 23  2  0  0  0  0
 28 24  1  0  0  0  0
M  END
>  <MODEL>
4

>  <REMARK>
 VINA RESULT:      -8.1      1.495      2.035
  Name = 
  2 active torsions:
  status: ('A' for Active; 'I' for Inactive)
    1  A    between atoms: C_1  and  C_2
    2  A    between atoms: C_10  and  N_13
                            x       y       z     vdW  Elec       q    Type
                         _______ _______ _______ _____ _____    ______ ____

>  <TORSDO>
F 2

$$$$
=
 OpenBabel10272401483D

 28 31  0  0  1  0  0  0  0  0999 V2000
  188.0650  176.9180  144.8890 C   0  0  1  0  0  3  0  0  0  0  0  0
  185.8660  179.2590  147.7880 C   0  0  0  0  0  1  0  0  0  0  0  0
  185.0440  178.1900  142.7730 C   0  0  1  0  0  3  0  0  0  0  0  0
  185.8930  178.1370  145.4550 C   0  0  2  0  0  3  0  0  0  0  0  0
  186.3680  177.4610  143.0740 C   0  0  0  0  0  2  0  0  0  0  0  0
  187.8780  178.3160  146.8750 O   0  0  0  0  0  0  0  0  0  0  0  0
  185.0070  179.3300  145.0490 C   0  0  0  0  0  2  0  0  0  0  0  0
  186.4770  178.1920  146.8920 C   0  0  1  0  0  3  0  0  0  0  0  0
  184.9000  179.5190  143.5270 C   0  0  0  0  0  2  0  0  0  0  0  0
  188.3690  177.0890  146.3890 C   0  0  0  0  0  2  0  0  0  0  0  0
  186.9870  177.8970  144.4040 C   0  0  2  0  0  3  0  0  0  0  0  0
  186.0440  178.7770  140.5820 C   0  0  0  0  0  2  0  0  0  0  0  0
  183.3850  177.8970  139.2700 C   0  0  0  0  0  2  0  0  0  0  0  0
  185.6150  178.2480  138.1490 C   0  0  1  0  0  3  0  0  0  0  0  0
  184.8600  178.3750  141.3350 N   0  0  0  0  0  0  0  0  0  0  0  0
  182.5160  178.3360  141.4260 O   0  0  0  0  0  0  0  0  0  0  0  0
  184.2060  178.8030  138.3680 C   0  0  0  0  0  2  0  0  0  0  0  0
  183.5560  178.2430  140.7200 C   0  0  0  0  0  0  0  0  0  0  0  0
  186.3910  179.2040  137.4940 O   0  0  0  0  0  1  0  0  0  0  0  0
  186.3160  177.8110  139.4380 C   0  0  0  0  0  2  0  0  0  0  0  0
  189.3150  177.0120  144.0590 C   0  0  0  0  0  0  0  0  0  0  0  0
  189.5880  175.8950  143.0840 C   0  0  0  0  0  2  0  0  0  0  0  0
  191.3460  178.1130  143.2830 C   0  0  0  0  0  0  0  0  0  0  0  0
  190.2520  176.4240  141.8120 C   0  0  0  0  0  2  0  0  0  0  0  0
  189.9970  179.0060  145.1150 F   0  0  0  0  0  0  0  0  0  0  0  0
  190.1900  178.0290  144.1910 C   0  0  0  0  0  0  0  0  0  0  0  0
  192.2660  178.9480  143.4900 O   0  0  0  0  0  0  0  0  0  0  0  0
  191.4160  177.2310  142.1610 N   0  0  0  0  0  2  0  0  0  0  0  0
  1 21  1  6  0  0  0
  1 10  1  0  0  0  0
  3 15  1  6  0  0  0
  3  5  1  0  0  0  0
  3  9  1  0  0  0  0
  4  7  1  6  0  0  0
  4  8  1  0  0  0  0
  6  8  1  0  0  0  0
  8  2  1  6  0  0  0
  9  7  1  0  0  0  0
 10  6  1  0  0  0  0
 11  5  1  6  0  0  0
 11  1  1  0  0  0  0
 11  4  1  0  0  0  0
 12 15  1  0  0  0  0
 13 18  1  0  0  0  0
 14 19  1  1  0  0  0
 14 17  1  0  0  0  0
 14 20  1  0  0  0  0
 17 13  1  0  0  0  0
 18 15  1  0  0  0  0
 18 16  2  0  0  0  0
 20 12  1  0  0  0  0
 21 26  2  0  0  0  0
 22 21  1  0  0  0  0
 23 27  2  0  0  0  0
 23 26  1  0  0  0  0
 24 28  1  0  0  0  0
 24 22  1  0  0  0  0
 26 25  1  0  0  0  0
 28 23  1  0  0  0  0
M  END
>  <MODEL>
5

>  <REMARK>
 VINA RESULT:      -7.8      1.789      2.282
  Name = 
  2 active torsions:
  status: ('A' for Active; 'I' for Inactive)
    1  A    between atoms: C_1  and  C_2
    2  A    between atoms: C_10  and  N_13
                            x       y       z     vdW  Elec       q    Type
                         _______ _______ _______ _____ _____    ______ ____

>  <TORSDO>
F 2

$$$$
=
 OpenBabel10272401483D

 28 31  0  0  1  0  0  0  0  0999 V2000
  182.9080  178.7830  140.6490 C   0  0  1  0  0  3  0  0  0  0  0  0
  180.1380  179.3020  143.9320 C   0  0  0  0  0  1  0  0  0  0  0  0
  185.2890  178.6770  143.7370 C   0  0  1  0  0  3  0  0  0  0  0  0
  182.6020  179.2590  143.1400 C   0  0  2  0  0  3  0  0  0  0  0  0
  184.8730  178.6180  142.2550 C   0  0  0  0  0  2  0  0  0  0  0  0
  180.7300  178.5770  141.7200 O   0  0  0  0  0  0  0  0  0  0  0  0
  182.8760  178.6910  144.5460 C   0  0  0  0  0  2  0  0  0  0  0  0
  181.1070  179.4370  142.7670 C   0  0  1  0  0  3  0  0  0  0  0  0
  184.2610  178.0380  144.6800 C   0  0  0  0  0  2  0  0  0  0  0  0
  181.3930  179.0500  140.5720 C   0  0  0  0  0  2  0  0  0  0  0  0
  183.3620  178.4510  142.0770 C   0  0  2  0  0  3  0  0  0  0  0  0
  187.2150  177.4490  142.7720 C   0  0  0  0  0  2  0  0  0  0  0  0
  188.7480  178.0390  145.3940 C   0  0  0  0  0  2  0  0  0  0  0  0
  189.7020  177.2850  143.1860 C   0  0  1  0  0  3  0  0  0  0  0  0
  186.6180  178.1010  143.9350 N   0  0  0  0  0  0  0  0  0  0  0  0
  186.5640  178.2670  146.2740 O   0  0  0  0  0  0  0  0  0  0  0  0
  189.3490  176.8790  144.6170 C   0  0  0  0  0  2  0  0  0  0  0  0
  187.2580  178.1100  145.2340 C   0  0  0  0  0  0  0  0  0  0  0  0
  190.0530  176.1500  142.4560 O   0  0  0  0  0  1  0  0  0  0  0  0
  188.5830  178.0390  142.4610 C   0  0  0  0  0  2  0  0  0  0  0  0
  183.3310  177.7230  139.6710 C   0  0  0  0  0  0  0  0  0  0  0  0
  182.7250  176.3510  139.8290 C   0  0  0  0  0  2  0  0  0  0  0  0
  184.5410  176.9040  137.7210 C   0  0  0  0  0  0  0  0  0  0  0  0
  182.4980  175.6880  138.4700 C   0  0  0  0  0  2  0  0  0  0  0  0
  184.8500  179.1660  138.5930 F   0  0  0  0  0  0  0  0  0  0  0  0
  184.2410  177.9570  138.7040 C   0  0  0  0  0  0  0  0  0  0  0  0
  185.5030  177.0310  136.9170 O   0  0  0  0  0  0  0  0  0  0  0  0
  183.7290  175.7280  137.6880 N   0  0  0  0  0  2  0  0  0  0  0  0
  1 21  1  6  0  0  0
  1 11  1  0  0  0  0
  3  5  1  6  0  0  0
  3 15  1  0  0  0  0
  3  9  1  0  0  0  0
  4  7  1  1  0  0  0
  6  8  1  0  0  0  0
  7  9  1  0  0  0  0
  8  4  1  0  0  0  0
  8  2  1  1  0  0  0
 10  1  1  0  0  0  0
 10  6  1  0  0  0  0
 11  5  1  6  0  0  0
 11  4  1  0  0  0  0
 12 15  1  0  0  0  0
 14 19  1  6  0  0  0
 14 17  1  0  0  0  0
 15 18  1  0  0  0  0
 17 13  1  0  0  0  0
 18 13  1  0  0  0  0
 18 16  2  0  0  0  0
 20 12  1  0  0  0  0
 20 14  1  0  0  0  0
 21 22  1  0  0  0  0
 23 26  1  0  0  0  0
 24 22  1  0  0  0  0
 25 26  1  0  0  0  0
 26 21  2  0  0  0  0
 27 23  2  0  0  0  0
 28 23  1  0  0  0  0
 28 24  1  0  0  0  0
M  END
>  <MODEL>
6

>  <REMARK>
 VINA RESULT:      -7.6      2.664      6.899
  Name = 
  2 active torsions:
  status: ('A' for Active; 'I' for Inactive)
    1  A    between atoms: C_1  and  C_2
    2  A    between atoms: C_10  and  N_13
                            x       y       z     vdW  Elec       q    Type
                         _______ _______ _______ _____ _____    ______ ____

>  <TORSDO>
F 2

$$$$
=
 OpenBabel10272401483D

 28 31  0  0  1  0  0  0  0  0999 V2000
  189.0710  176.5870  144.2280 C   0  0  1  0  0  3  0  0  0  0  0  0
  189.3670  178.2030  148.2300 C   0  0  0  0  0  1  0  0  0  0  0  0
  185.4780  177.9970  144.7950 C   0  0  1  0  0  3  0  0  0  0  0  0
  187.8350  177.5240  146.2570 C   0  0  2  0  0  3  0  0  0  0  0  0
  186.6440  177.3240  144.0450 C   0  0  0  0  0  2  0  0  0  0  0  0
  190.2750  177.5880  146.0930 O   0  0  0  0  0  0  0  0  0  0  0  0
  186.9670  178.7040  146.7350 C   0  0  0  0  0  2  0  0  0  0  0  0
  189.2020  177.3620  146.9730 C   0  0  1  0  0  3  0  0  0  0  0  0
  185.9270  179.1550  145.6970 C   0  0  0  0  0  2  0  0  0  0  0  0
  190.2710  176.5070  145.1910 C   0  0  0  0  0  2  0  0  0  0  0  0
  187.9930  177.5570  144.7290 C   0  0  2  0  0  3  0  0  0  0  0  0
  184.8130  178.5020  142.4610 C   0  0  0  0  0  2  0  0  0  0  0  0
  181.9000  178.7500  143.4730 C   0  0  0  0  0  2  0  0  0  0  0  0
  182.6880  178.4790  141.0940 C   0  0  1  0  0  3  0  0  0  0  0  0
  184.4320  178.4240  143.8680 N   0  0  0  0  0  0  0  0  0  0  0  0
  182.9670  179.1630  145.5440 O   0  0  0  0  0  0  0  0  0  0  0  0
  182.1120  179.4400  142.1350 C   0  0  0  0  0  2  0  0  0  0  0  0
  183.1220  178.8210  144.3420 C   0  0  0  0  0  0  0  0  0  0  0  0
  183.0560  179.1970  139.9570 O   0  0  0  0  0  1  0  0  0  0  0  0
  183.8820  177.6630  141.5980 C   0  0  0  0  0  2  0  0  0  0  0  0
  189.5100  176.9200  142.8290 C   0  0  0  0  0  0  0  0  0  0  0  0
  188.4320  177.1570  141.8010 C   0  0  0  0  0  2  0  0  0  0  0  0
  191.1740  177.3980  141.1150 C   0  0  0  0  0  0  0  0  0  0  0  0
  188.8480  178.2400  140.8050 C   0  0  0  0  0  2  0  0  0  0  0  0
  191.7910  176.6930  143.3720 F   0  0  0  0  0  0  0  0  0  0  0  0
  190.8100  176.9750  142.4760 C   0  0  0  0  0  0  0  0  0  0  0  0
  192.3610  177.2950  140.7070 O   0  0  0  0  0  0  0  0  0  0  0  0
  190.1630  177.9270  140.2550 N   0  0  0  0  0  2  0  0  0  0  0  0
  1 21  1  6  0  0  0
  1 11  1  0  0  0  0
  1 10  1  0  0  0  0
  3 15  1  6  0  0  0
  3  9  1  0  0  0  0
  4  7  1  1  0  0  0
  4  8  1  0  0  0  0
  5  3  1  0  0  0  0
  6  8  1  0  0  0  0
  8  2  1  1  0  0  0
  9  7  1  0  0  0  0
 10  6  1  0  0  0  0
 11  5  1  6  0  0  0
 11  4  1  0  0  0  0
 12 15  1  0  0  0  0
 13 18  1  0  0  0  0
 14 19  1  6  0  0  0
 14 20  1  0  0  0  0
 14 17  1  0  0  0  0
 15 18  1  0  0  0  0
 17 13  1  0  0  0  0
 18 16  2  0  0  0  0
 20 12  1  0  0  0  0
 22 21  1  0  0  0  0
 23 26  1  0  0  0  0
 24 22  1  0  0  0  0
 26 21  2  0  0  0  0
 26 25  1  0  0  0  0
 27 23  2  0  0  0  0
 28 24  1  0  0  0  0
 28 23  1  0  0  0  0
M  END
>  <MODEL>
7

>  <REMARK>
 VINA RESULT:      -7.5      1.475      1.756
  Name = 
  2 active torsions:
  status: ('A' for Active; 'I' for Inactive)
    1  A    between atoms: C_1  and  C_2
    2  A    between atoms: C_10  and  N_13
                            x       y       z     vdW  Elec       q    Type
                         _______ _______ _______ _____ _____    ______ ____

>  <TORSDO>
F 2

$$$$
=
 OpenBabel10272401483D

 28 31  0  0  1  0  0  0  0  0999 V2000
  186.0140  179.1630  144.9410 C   0  0  1  0  0  3  0  0  0  0  0  0
  187.8560  177.2830  148.3760 C   0  0  0  0  0  1  0  0  0  0  0  0
  189.3230  177.7660  143.4180 C   0  0  1  0  0  3  0  0  0  0  0  0
  188.1180  178.1110  145.9370 C   0  0  2  0  0  3  0  0  0  0  0  0
  187.9540  178.4720  143.4480 C   0  0  0  0  0  2  0  0  0  0  0  0
  185.9640  178.0260  147.0950 O   0  0  0  0  0  0  0  0  0  0  0  0
  189.0790  176.9130  145.8040 C   0  0  0  0  0  2  0  0  0  0  0  0
  187.3470  178.2070  147.2800 C   0  0  1  0  0  3  0  0  0  0  0  0
  189.3950  176.5450  144.3450 C   0  0  0  0  0  2  0  0  0  0  0  0
  185.5140  179.1640  146.3980 C   0  0  0  0  0  2  0  0  0  0  0  0
  187.1710  178.1760  144.7290 C   0  0  2  0  0  3  0  0  0  0  0  0
  188.6080  177.2350  141.1040 C   0  0  0  0  0  2  0  0  0  0  0  0
  191.5890  177.3460  140.2870 C   0  0  0  0  0  2  0  0  0  0  0  0
  189.5730  177.4280  138.7770 C   0  0  1  0  0  3  0  0  0  0  0  0
  189.7050  177.4140  142.0510 N   0  0  0  0  0  0  0  0  0  0  0  0
  191.9320  176.9100  142.5870 O   0  0  0  0  0  0  0  0  0  0  0  0
  190.7400  176.5810  139.2860 C   0  0  0  0  0  2  0  0  0  0  0  0
  191.0880  177.1810  141.6920 C   0  0  0  0  0  0  0  0  0  0  0  0
  188.7120  176.6260  138.0280 O   0  0  0  0  0  1  0  0  0  0  0  0
  188.7880  178.1310  139.8870 C   0  0  0  0  0  2  0  0  0  0  0  0
  184.8900  178.9180  143.9730 C   0  0  0  0  0  0  0  0  0  0  0  0
  183.5860  178.4130  144.5370 C   0  0  0  0  0  2  0  0  0  0  0  0
  183.8670  178.9340  141.7620 C   0  0  0  0  0  0  0  0  0  0  0  0
  182.3950  178.9930  143.7730 C   0  0  0  0  0  2  0  0  0  0  0  0
  186.2210  179.4850  142.1140 F   0  0  0  0  0  0  0  0  0  0  0  0
  185.0320  179.1010  142.6450 C   0  0  0  0  0  0  0  0  0  0  0  0
  184.0050  178.9300  140.5100 O   0  0  0  0  0  0  0  0  0  0  0  0
  182.5700  178.7720  142.3420 N   0  0  0  0  0  2  0  0  0  0  0  0
  1 21  1  6  0  0  0
  1 10  1  0  0  0  0
  3 15  1  6  0  0  0
  3  5  1  0  0  0  0
  3  9  1  0  0  0  0
  4  7  1  1  0  0  0
  4  8  1  0  0  0  0
  6  8  1  0  0  0  0
  8  2  1  1  0  0  0
  9  7  1  0  0  0  0
 10  6  1  0  0  0  0
 11  5  1  6  0  0  0
 11  1  1  0  0  0  0
 11  4  1  0  0  0  0
 12 15  1  0  0  0  0
 13 18  1  0  0  0  0
 14 19  1  1  0  0  0
 14 17  1  0  0  0  0
 14 20  1  0  0  0  0
 17 13  1  0  0  0  0
 18 15  1  0  0  0  0
 18 16  2  0  0  0  0
 20 12  1  0  0  0  0
 21 22  1  0  0  0  0
 23 28  1  0  0  0  0
 23 26  1  0  0  0  0
 24 22  1  0  0  0  0
 25 26  1  0  0  0  0
 26 21  2  0  0  0  0
 27 23  2  0  0  0  0
 28 24  1  0  0  0  0
M  END
>  <MODEL>
8

>  <REMARK>
 VINA RESULT:      -7.5      1.996      5.876
  Name = 
  2 active torsions:
  status: ('A' for Active; 'I' for Inactive)
    1  A    between atoms: C_1  and  C_2
    2  A    between atoms: C_10  and  N_13
                            x       y       z     vdW  Elec       q    Type
                         _______ _______ _______ _____ _____    ______ ____

>  <TORSDO>
F 2

$$$$
=
 OpenBabel10272401483D

 28 31  0  0  1  0  0  0  0  0999 V2000
  183.2080  178.4030  140.1920 C   0  0  1  0  0  3  0  0  0  0  0  0
  181.4780  178.9330  144.1220 C   0  0  0  0  0  1  0  0  0  0  0  0
  186.3800  178.5210  142.4600 C   0  0  1  0  0  3  0  0  0  0  0  0
  183.6080  178.9630  142.6510 C   0  0  2  0  0  3  0  0  0  0  0  0
  185.5590  178.3860  141.1640 C   0  0  0  0  0  2  0  0  0  0  0  0
  181.4450  178.1460  141.8520 O   0  0  0  0  0  0  0  0  0  0  0  0
  184.3040  178.4640  143.9320 C   0  0  0  0  0  2  0  0  0  0  0  0
  182.0610  179.0620  142.7230 C   0  0  1  0  0  3  0  0  0  0  0  0
  185.7020  177.8770  143.6770 C   0  0  0  0  0  2  0  0  0  0  0  0
  181.7230  178.6020  140.5500 C   0  0  0  0  0  2  0  0  0  0  0  0
  184.0710  178.1470  141.4350 C   0  0  2  0  0  3  0  0  0  0  0  0
  188.3850  177.4700  143.4730 C   0  0  0  0  0  2  0  0  0  0  0  0
  189.5280  177.1840  140.6120 C   0  0  0  0  0  2  0  0  0  0  0  0
  190.2950  176.0060  142.7040 C   0  0  1  0  0  3  0  0  0  0  0  0
  187.7380  178.0100  142.2800 N   0  0  0  0  0  0  0  0  0  0  0  0
  188.0260  178.9530  140.1520 O   0  0  0  0  0  0  0  0  0  0  0  0
  190.6060  177.0990  141.6800 C   0  0  0  0  0  2  0  0  0  0  0  0
  188.4180  178.1140  141.0060 C   0  0  0  0  0  0  0  0  0  0  0  0
  191.1920  176.1010  143.7680 O   0  0  0  0  0  1  0  0  0  0  0  0
  188.8600  176.0440  143.2350 C   0  0  0  0  0  2  0  0  0  0  0  0
  183.3860  177.3230  139.1610 C   0  0  0  0  0  0  0  0  0  0  0  0
  182.6690  176.0170  139.3920 C   0  0  0  0  0  2  0  0  0  0  0  0
  184.2370  176.4230  137.0620 C   0  0  0  0  0  0  0  0  0  0  0  0
  182.1970  175.4070  138.0720 C   0  0  0  0  0  2  0  0  0  0  0  0
  184.8890  178.6260  137.8970 F   0  0  0  0  0  0  0  0  0  0  0  0
  184.1800  177.4830  138.0830 C   0  0  0  0  0  0  0  0  0  0  0  0
  185.0920  176.4670  136.1380 O   0  0  0  0  0  0  0  0  0  0  0  0
  183.3110  175.3370  137.1320 N   0  0  0  0  0  2  0  0  0  0  0  0
  1 21  1  6  0  0  0
  1 10  1  0  0  0  0
  1 11  1  0  0  0  0
  3  5  1  6  0  0  0
  3  9  1  0  0  0  0
  4  8  1  0  0  0  0
  4  7  1  1  0  0  0
  6  8  1  0  0  0  0
  8  2  1  1  0  0  0
  9  7  1  0  0  0  0
 10  6  1  0  0  0  0
 11  5  1  6  0  0  0
 11  4  1  0  0  0  0
 13 18  1  0  0  0  0
 13 17  1  0  0  0  0
 14 20  1  0  0  0  0
 14 19  1  1  0  0  0
 15  3  1  0  0  0  0
 15 12  1  0  0  0  0
 16 18  2  0  0  0  0
 17 14  1  0  0  0  0
 18 15  1  0  0  0  0
 20 12  1  0  0  0  0
 21 22  1  0  0  0  0
 23 28  1  0  0  0  0
 23 26  1  0  0  0  0
 24 22  1  0  0  0  0
 25 26  1  0  0  0  0
 26 21  2  0  0  0  0
 27 23  2  0  0  0  0
 28 24  1  0  0  0  0
M  END
>  <MODEL>
9

>  <REMARK>
 VINA RESULT:      -7.5      2.980      7.169
  Name = 
  2 active torsions:
  status: ('A' for Active; 'I' for Inactive)
    1  A    between atoms: C_1  and  C_2
    2  A    between atoms: C_10  and  N_13
                            x       y       z     vdW  Elec       q    Type
                         _______ _______ _______ _____ _____    ______ ____

>  <TORSDO>
F 2

$$$$
