=
 OpenBabel10272415323D

 34 39  0  0  1  0  0  0  0  0999 V2000
  188.4250  178.0870  143.8680 C   0  0  0  0  0  0  0  0  0  0  0  0
  188.8480  177.2270  146.1940 C   0  0  0  0  0  0  0  0  0  0  0  0
  186.3830  177.7470  146.1650 C   0  0  0  0  0  3  0  0  0  0  0  0
  187.9140  178.3580  141.6410 C   0  0  2  0  0  3  0  0  0  0  0  0
  188.9600  178.1820  142.5920 O   0  0  0  0  0  0  0  0  0  0  0  0
  186.6220  178.0700  142.4110 C   0  0  2  0  0  3  0  0  0  0  0  0
  184.5700  178.7550  143.0600 C   0  0  0  0  0  2  0  0  0  0  0  0
  185.7030  179.1310  142.3010 O   0  0  0  0  0  0  0  0  0  0  0  0
  186.1610  178.1660  144.9160 C   0  0  0  0  0  0  0  0  0  0  0  0
  187.1130  177.9980  143.8130 C   0  0  0  0  0  0  0  0  0  0  0  0
  184.8580  178.8350  144.5750 C   0  0  0  0  0  2  0  0  0  0  0  0
  189.9140  176.4640  146.8610 C   0  0  0  0  0  3  0  0  0  0  0  0
  191.2030  176.6460  146.5550 C   0  0  0  0  0  0  0  0  0  0  0  0
  191.5920  177.6280  145.5260 C   0  0  0  0  0  3  0  0  0  0  0  0
  187.6050  177.0830  146.6660 C   0  0  0  0  0  3  0  0  0  0  0  0
  190.6880  178.3580  144.8700 C   0  0  0  0  0  3  0  0  0  0  0  0
  189.2070  178.2540  145.1370 C   0  0  1  0  0  3  0  0  0  0  0  0
  192.2450  175.8570  147.2350 C   0  0  0  0  0  0  0  0  0  0  0  0
  192.6970  174.8030  146.7130 O   0  0  0  0  0  0  0  0  0  0  0  0
  192.7420  176.2730  148.4650 O   0  0  0  0  0  1  0  0  0  0  0  0
  188.0840  177.4850  140.3910 C   0  0  0  0  0  2  0  0  0  0  0  0
  190.3580  176.7560  139.6710 N   0  0  0  0  0  0  0  0  0  0  0  0
  188.9690  177.9330  138.1360 O   0  0  0  0  0  0  0  0  0  0  0  0
  191.8870  175.5200  136.4160 C   0  0  1  0  0  3  0  0  0  0  0  0
  190.7150  175.8930  135.5900 N   0  0  0  0  0  0  0  0  0  0  0  0
  191.5430  175.4030  137.9190 C   0  0  1  0  0  3  0  0  0  0  0  0
  191.1710  176.1780  134.3470 O   0  0  0  0  0  1  0  0  0  0  0  0
  190.8680  176.7000  138.3290 C   0  0  1  0  0  3  0  0  0  0  0  0
  192.4940  174.2140  135.9250 C   0  0  0  0  0  1  0  0  0  0  0  0
  190.0850  177.1250  136.0880 C   0  0  0  0  0  2  0  0  0  0  0  0
  189.6500  176.8880  137.5170 C   0  0  2  0  0  3  0  0  0  0  0  0
  190.7040  174.3280  138.1520 F   0  0  0  0  0  0  0  0  0  0  0  0
  189.3060  177.7690  139.5060 C   0  0  1  0  0  3  0  0  0  0  0  0
  191.3940  177.3520  140.4960 C   0  0  0  0  0  1  0  0  0  0  0  0
  1 17  1  0  0  0  0
  2 15  2  0  0  0  0
  2 12  1  0  0  0  0
  3 15  1  0  0  0  0
  4 21  1  6  0  0  0
  4  6  1  0  0  0  0
  4  5  1  0  0  0  0
  5  1  1  0  0  0  0
  6  8  1  1  0  0  0
  6 10  1  0  0  0  0
  7 11  1  0  0  0  0
  8  7  1  0  0  0  0
  9  3  2  0  0  0  0
 10  1  2  0  0  0  0
 10  9  1  0  0  0  0
 11  9  1  0  0  0  0
 13 12  2  0  0  0  0
 13 18  1  0  0  0  0
 14 13  1  0  0  0  0
 16 14  2  0  0  0  0
 17 16  1  6  0  0  0
 17  2  1  0  0  0  0
 18 20  1  0  0  0  0
 19 18  2  0  0  0  0
 22 34  1  0  0  0  0
 23 33  1  0  0  0  0
 24 29  1  6  0  0  0
 24 26  1  0  0  0  0
 25 30  1  0  0  0  0
 25 24  1  0  0  0  0
 26 32  1  6  0  0  0
 26 28  1  0  0  0  0
 27 25  1  0  0  0  0
 28 22  1  1  0  0  0
 31 30  1  6  0  0  0
 31 23  1  0  0  0  0
 31 28  1  0  0  0  0
 33 22  1  0  0  0  0
 33 21  1  1  0  0  0
M  END
>  <MODEL>
1

>  <REMARK>
 VINA RESULT:     -10.3      0.000      0.000
  Name = 
  3 active torsions:
  status: ('A' for Active; 'I' for Inactive)
    1  A    between atoms: C_3  and  C_25
    2  A    between atoms: C_8  and  C_18
    3  A    between atoms: C_18  and  C_30
                            x       y       z     vdW  Elec       q    Type
                         _______ _______ _______ _____ _____    ______ ____

>  <TORSDO>
F 3

$$$$
=
 OpenBabel10272415323D

 34 39  0  0  1  0  0  0  0  0999 V2000
  188.6880  178.1090  142.8730 C   0  0  0  0  0  0  0  0  0  0  0  0
  188.7420  177.4800  145.3080 C   0  0  0  0  0  0  0  0  0  0  0  0
  186.3160  177.9900  144.8530 C   0  0  0  0  0  3  0  0  0  0  0  0
  188.5250  178.1610  140.5780 C   0  0  2  0  0  3  0  0  0  0  0  0
  189.4120  178.0810  141.6900 O   0  0  0  0  0  0  0  0  0  0  0  0
  187.1280  177.9470  141.1660 C   0  0  2  0  0  3  0  0  0  0  0  0
  185.0100  178.6880  141.4250 C   0  0  0  0  0  2  0  0  0  0  0  0
  186.2500  178.9910  140.8150 O   0  0  0  0  0  0  0  0  0  0  0  0
  186.2920  178.2860  143.5500 C   0  0  0  0  0  0  0  0  0  0  0  0
  187.3990  178.0120  142.6270 C   0  0  0  0  0  0  0  0  0  0  0  0
  185.0650  178.9150  142.9510 C   0  0  0  0  0  2  0  0  0  0  0  0
  189.6840  176.7880  146.2000 C   0  0  0  0  0  3  0  0  0  0  0  0
  191.0070  176.9420  146.0790 C   0  0  0  0  0  0  0  0  0  0  0  0
  191.5600  177.8200  145.0310 C   0  0  0  0  0  3  0  0  0  0  0  0
  187.4400  177.3800  145.5960 C   0  0  0  0  0  3  0  0  0  0  0  0
  190.7760  178.4810  144.1780 C   0  0  0  0  0  3  0  0  0  0  0  0
  189.2700  178.4010  144.2240 C   0  0  1  0  0  3  0  0  0  0  0  0
  191.9230  176.2250  146.9820 C   0  0  0  0  0  0  0  0  0  0  0  0
  192.3900  175.0990  146.6630 O   0  0  0  0  0  0  0  0  0  0  0  0
  192.2830  176.7890  148.2010 O   0  0  0  0  0  1  0  0  0  0  0  0
  188.8720  177.1720  139.4590 C   0  0  0  0  0  2  0  0  0  0  0  0
  188.5330  176.3710  137.1210 N   0  0  0  0  0  0  0  0  0  0  0  0
  186.9510  177.8700  138.0830 O   0  0  0  0  0  0  0  0  0  0  0  0
  185.5120  175.5020  134.9810 C   0  0  1  0  0  3  0  0  0  0  0  0
  184.5310  176.0870  135.9250 N   0  0  0  0  0  0  0  0  0  0  0  0
  186.8720  175.1960  135.6510 C   0  0  1  0  0  3  0  0  0  0  0  0
  183.4720  176.5120  135.1960 O   0  0  0  0  0  1  0  0  0  0  0  0
  187.3350  176.4700  136.3340 C   0  0  1  0  0  3  0  0  0  0  0  0
  184.9550  174.2370  134.3460 C   0  0  0  0  0  1  0  0  0  0  0  0
  185.0780  177.2820  136.5880 C   0  0  0  0  0  2  0  0  0  0  0  0
  186.3280  176.8740  137.3350 C   0  0  2  0  0  3  0  0  0  0  0  0
  186.7500  174.1710  136.5710 F   0  0  0  0  0  0  0  0  0  0  0  0
  188.3180  177.4800  138.0610 C   0  0  1  0  0  3  0  0  0  0  0  0
  189.6400  176.7530  136.2620 C   0  0  0  0  0  1  0  0  0  0  0  0
  1 17  1  0  0  0  0
  2 15  2  0  0  0  0
  2 12  1  0  0  0  0
  3 15  1  0  0  0  0
  4 21  1  6  0  0  0
  4  6  1  0  0  0  0
  4  5  1  0  0  0  0
  5  1  1  0  0  0  0
  6  8  1  6  0  0  0
  6 10  1  0  0  0  0
  7 11  1  0  0  0  0
  8  7  1  0  0  0  0
  9  3  2  0  0  0  0
 10  1  2  0  0  0  0
 10  9  1  0  0  0  0
 11  9  1  0  0  0  0
 13 12  2  0  0  0  0
 13 18  1  0  0  0  0
 14 13  1  0  0  0  0
 16 14  2  0  0  0  0
 17 16  1  6  0  0  0
 17  2  1  0  0  0  0
 18 20  1  0  0  0  0
 19 18  2  0  0  0  0
 22 33  1  0  0  0  0
 24 29  1  1  0  0  0
 24 26  1  0  0  0  0
 24 25  1  0  0  0  0
 25 30  1  0  0  0  0
 26 28  1  0  0  0  0
 26 32  1  1  0  0  0
 27 25  1  0  0  0  0
 28 22  1  1  0  0  0
 28 31  1  0  0  0  0
 31 30  1  6  0  0  0
 31 23  1  0  0  0  0
 33 23  1  0  0  0  0
 33 21  1  1  0  0  0
 34 22  1  0  0  0  0
M  END
>  <MODEL>
2

>  <REMARK>
 VINA RESULT:      -9.8      2.686      3.269
  Name = 
  3 active torsions:
  status: ('A' for Active; 'I' for Inactive)
    1  A    between atoms: C_3  and  C_25
    2  A    between atoms: C_8  and  C_18
    3  A    between atoms: C_18  and  C_30
                            x       y       z     vdW  Elec       q    Type
                         _______ _______ _______ _____ _____    ______ ____

>  <TORSDO>
F 3

$$$$
=
 OpenBabel10272415323D

 34 39  0  0  1  0  0  0  0  0999 V2000
  189.2500  177.9560  142.0490 C   0  0  0  0  0  0  0  0  0  0  0  0
  188.9180  177.5860  144.5150 C   0  0  0  0  0  0  0  0  0  0  0  0
  186.6080  178.1030  143.6500 C   0  0  0  0  0  3  0  0  0  0  0  0
  189.4300  177.7710  139.7630 C   0  0  2  0  0  3  0  0  0  0  0  0
  190.1390  177.7870  140.9990 O   0  0  0  0  0  0  0  0  0  0  0  0
  187.9540  177.6530  140.1510 C   0  0  2  0  0  3  0  0  0  0  0  0
  185.8530  178.4680  140.0110 C   0  0  0  0  0  2  0  0  0  0  0  0
  187.1800  178.6750  139.5690 O   0  0  0  0  0  0  0  0  0  0  0  0
  186.7890  178.2600  142.3360 C   0  0  0  0  0  0  0  0  0  0  0  0
  188.0090  177.8650  141.6220 C   0  0  0  0  0  0  0  0  0  0  0  0
  185.6900  178.8530  141.4980 C   0  0  0  0  0  2  0  0  0  0  0  0
  189.6900  176.9680  145.6050 C   0  0  0  0  0  3  0  0  0  0  0  0
  191.0210  177.0770  145.6700 C   0  0  0  0  0  0  0  0  0  0  0  0
  191.7580  177.8270  144.6350 C   0  0  0  0  0  3  0  0  0  0  0  0
  187.5850  177.5470  144.6120 C   0  0  0  0  0  3  0  0  0  0  0  0
  191.1350  178.4130  143.6110 C   0  0  0  0  0  3  0  0  0  0  0  0
  189.6370  178.3740  143.4370 C   0  0  1  0  0  3  0  0  0  0  0  0
  191.7640  176.4370  146.7680 C   0  0  0  0  0  0  0  0  0  0  0  0
  191.9120  177.0240  147.8730 O   0  0  0  0  0  1  0  0  0  0  0  0
  192.3100  175.1700  146.5950 O   0  0  0  0  0  0  0  0  0  0  0  0
  189.9000  176.6610  138.8140 C   0  0  0  0  0  2  0  0  0  0  0  0
  189.8080  175.5850  136.5660 N   0  0  0  0  0  0  0  0  0  0  0  0
  187.7760  176.1390  137.6780 O   0  0  0  0  0  0  0  0  0  0  0  0
  187.4980  173.0890  134.8640 C   0  0  1  0  0  3  0  0  0  0  0  0
  186.4510  173.1720  135.9090 N   0  0  0  0  0  0  0  0  0  0  0  0
  188.8740  173.5900  135.3600 C   0  0  1  0  0  3  0  0  0  0  0  0
  185.2620  172.9210  135.3110 O   0  0  0  0  0  1  0  0  0  0  0  0
  188.6660  174.9790  135.9380 C   0  0  1  0  0  3  0  0  0  0  0  0
  187.6260  171.6650  134.3460 C   0  0  0  0  0  1  0  0  0  0  0  0
  186.3540  174.5340  136.4580 C   0  0  0  0  0  2  0  0  0  0  0  0
  187.6970  174.8990  137.0490 C   0  0  2  0  0  3  0  0  0  0  0  0
  189.3930  172.7400  136.3200 F   0  0  0  0  0  0  0  0  0  0  0  0
  189.1360  176.5080  137.4910 C   0  0  1  0  0  3  0  0  0  0  0  0
  190.4660  176.4000  135.5590 C   0  0  0  0  0  1  0  0  0  0  0  0
  1 17  1  0  0  0  0
  2 15  2  0  0  0  0
  2 12  1  0  0  0  0
  3 15  1  0  0  0  0
  4 21  1  6  0  0  0
  4  6  1  0  0  0  0
  4  5  1  0  0  0  0
  5  1  1  0  0  0  0
  6  8  1  6  0  0  0
  6 10  1  0  0  0  0
  7 11  1  0  0  0  0
  8  7  1  0  0  0  0
  9  3  2  0  0  0  0
 10  1  2  0  0  0  0
 10  9  1  0  0  0  0
 11  9  1  0  0  0  0
 12 13  2  0  0  0  0
 13 18  1  0  0  0  0
 14 13  1  0  0  0  0
 16 14  2  0  0  0  0
 17 16  1  6  0  0  0
 17  2  1  0  0  0  0
 18 19  1  0  0  0  0
 20 18  2  0  0  0  0
 22 33  1  0  0  0  0
 24 29  1  1  0  0  0
 24 26  1  0  0  0  0
 24 25  1  0  0  0  0
 25 30  1  0  0  0  0
 26 28  1  0  0  0  0
 26 32  1  1  0  0  0
 27 25  1  0  0  0  0
 28 22  1  1  0  0  0
 28 31  1  0  0  0  0
 31 30  1  6  0  0  0
 31 23  1  0  0  0  0
 33 23  1  0  0  0  0
 33 21  1  1  0  0  0
 34 22  1  0  0  0  0
M  END
>  <MODEL>
3

>  <REMARK>
 VINA RESULT:      -9.2      2.565      3.226
  Name = 
  3 active torsions:
  status: ('A' for Active; 'I' for Inactive)
    1  A    between atoms: C_3  and  C_25
    2  A    between atoms: C_8  and  C_18
    3  A    between atoms: C_18  and  C_30
                            x       y       z     vdW  Elec       q    Type
                         _______ _______ _______ _____ _____    ______ ____

>  <TORSDO>
F 3

$$$$
=
 OpenBabel10272415323D

 34 39  0  0  1  0  0  0  0  0999 V2000
  185.8250  178.4740  141.8020 C   0  0  0  0  0  0  0  0  0  0  0  0
  188.1120  177.7410  142.5500 C   0  0  0  0  0  0  0  0  0  0  0  0
  186.8250  178.0390  144.6960 C   0  0  0  0  0  3  0  0  0  0  0  0
  183.6250  178.6160  141.1450 C   0  0  2  0  0  3  0  0  0  0  0  0
  184.9790  178.5700  140.7070 O   0  0  0  0  0  0  0  0  0  0  0  0
  183.6710  178.2440  142.6290 C   0  0  2  0  0  3  0  0  0  0  0  0
  183.1630  178.7680  144.7660 C   0  0  0  0  0  2  0  0  0  0  0  0
  183.0400  179.2150  143.4300 O   0  0  0  0  0  0  0  0  0  0  0  0
  185.6020  178.3910  144.2860 C   0  0  0  0  0  0  0  0  0  0  0  0
  185.1330  178.2670  142.9020 C   0  0  2  0  0  3  0  0  0  0  0  0
  184.6100  178.9280  145.2800 C   0  0  0  0  0  2  0  0  0  0  0  0
  189.2760  177.1010  141.9180 C   0  0  0  0  0  3  0  0  0  0  0  0
  189.6370  177.3850  140.6620 C   0  0  0  0  0  0  0  0  0  0  0  0
  188.8640  178.3590  139.8680 C   0  0  0  0  0  3  0  0  0  0  0  0
  187.9150  177.5050  143.8510 C   0  0  0  0  0  3  0  0  0  0  0  0
  187.7930  178.9810  140.3640 C   0  0  0  0  0  3  0  0  0  0  0  0
  187.2980  178.7570  141.7710 C   0  0  0  0  0  0  0  0  0  0  0  0
  190.8010  176.7170  140.0570 C   0  0  0  0  0  0  0  0  0  0  0  0
  190.6470  175.7880  139.2200 O   0  0  0  0  0  0  0  0  0  0  0  0
  192.0890  177.1100  140.4040 O   0  0  0  0  0  1  0  0  0  0  0  0
  182.6940  177.7170  140.3220 C   0  0  0  0  0  2  0  0  0  0  0  0
  181.3460  179.8000  140.0640 N   0  0  0  0  0  0  0  0  0  0  0  0
  181.3450  178.1860  138.3130 O   0  0  0  0  0  0  0  0  0  0  0  0
  180.4270  182.0740  137.1570 C   0  0  1  0  0  3  0  0  0  0  0  0
  180.9100  181.1340  136.1190 N   0  0  0  0  0  0  0  0  0  0  0  0
  181.0270  181.7800  138.5520 C   0  0  1  0  0  3  0  0  0  0  0  0
  180.1650  181.3420  135.0070 O   0  0  0  0  0  1  0  0  0  0  0  0
  180.7640  180.3150  138.8550 C   0  0  1  0  0  3  0  0  0  0  0  0
  180.7310  183.5110  136.7610 C   0  0  0  0  0  1  0  0  0  0  0  0
  180.6720  179.7370  136.5160 C   0  0  0  0  0  2  0  0  0  0  0  0
  181.4030  179.4850  137.8150 C   0  0  2  0  0  3  0  0  0  0  0  0
  182.3850  182.0410  138.5720 F   0  0  0  0  0  0  0  0  0  0  0  0
  181.4450  178.3750  139.7180 C   0  0  1  0  0  3  0  0  0  0  0  0
  180.3390  179.9150  141.1040 C   0  0  0  0  0  1  0  0  0  0  0  0
  2 15  2  0  0  0  0
  4 21  1  6  0  0  0
  4  6  1  0  0  0  0
  5  4  1  0  0  0  0
  5  1  1  0  0  0  0
  6 10  1  0  0  0  0
  6  8  1  1  0  0  0
  7 11  1  0  0  0  0
  8  7  1  0  0  0  0
  9  3  2  0  0  0  0
  9 11  1  0  0  0  0
 10  1  1  6  0  0  0
 10  9  1  0  0  0  0
 12  2  1  0  0  0  0
 13 12  2  0  0  0  0
 14 16  2  0  0  0  0
 14 13  1  0  0  0  0
 15  3  1  0  0  0  0
 16 17  1  0  0  0  0
 17  1  2  0  0  0  0
 17  2  1  0  0  0  0
 18 20  1  0  0  0  0
 18 13  1  0  0  0  0
 19 18  2  0  0  0  0
 22 34  1  0  0  0  0
 23 33  1  0  0  0  0
 24 29  1  6  0  0  0
 24 26  1  0  0  0  0
 25 30  1  0  0  0  0
 25 24  1  0  0  0  0
 26 32  1  6  0  0  0
 26 28  1  0  0  0  0
 27 25  1  0  0  0  0
 28 22  1  1  0  0  0
 31 30  1  6  0  0  0
 31 23  1  0  0  0  0
 31 28  1  0  0  0  0
 33 22  1  0  0  0  0
 33 21  1  6  0  0  0
M  END
>  <MODEL>
4

>  <REMARK>
 VINA RESULT:      -9.1      5.129      7.745
  Name = 
  3 active torsions:
  status: ('A' for Active; 'I' for Inactive)
    1  A    between atoms: C_3  and  C_25
    2  A    between atoms: C_8  and  C_18
    3  A    between atoms: C_18  and  C_30
                            x       y       z     vdW  Elec       q    Type
                         _______ _______ _______ _____ _____    ______ ____

>  <TORSDO>
F 3

$$$$
=
 OpenBabel10272415323D

 34 39  0  0  1  0  0  0  0  0999 V2000
  186.6460  178.0560  138.6510 C   0  0  0  0  0  0  0  0  0  0  0  0
  184.4080  177.0940  138.0250 C   0  0  0  0  0  0  0  0  0  0  0  0
  185.9490  176.3210  136.1870 C   0  0  0  0  0  3  0  0  0  0  0  0
  188.7620  178.4550  139.4600 C   0  0  2  0  0  3  0  0  0  0  0  0
  187.3670  178.6430  139.6790 O   0  0  0  0  0  0  0  0  0  0  0  0
  188.8550  177.4270  138.3310 C   0  0  2  0  0  3  0  0  0  0  0  0
  189.6420  176.8700  136.2880 C   0  0  0  0  0  2  0  0  0  0  0  0
  189.6480  177.8930  137.2650 O   0  0  0  0  0  0  0  0  0  0  0  0
  187.1420  176.8050  136.5480 C   0  0  0  0  0  0  0  0  0  0  0  0
  187.4400  177.3420  137.8800 C   0  0  0  0  0  0  0  0  0  0  0  0
  188.2790  176.7920  135.5650 C   0  0  0  0  0  2  0  0  0  0  0  0
  183.1330  176.8470  138.7150 C   0  0  0  0  0  3  0  0  0  0  0  0
  182.6550  177.6970  139.6310 C   0  0  0  0  0  0  0  0  0  0  0  0
  183.4080  178.9180  139.9770 C   0  0  0  0  0  3  0  0  0  0  0  0
  184.7320  176.2680  137.0250 C   0  0  0  0  0  3  0  0  0  0  0  0
  184.5740  179.2150  139.4000 C   0  0  0  0  0  3  0  0  0  0  0  0
  185.2060  178.3430  138.3430 C   0  0  1  0  0  3  0  0  0  0  0  0
  181.3810  177.4140  140.3120 C   0  0  0  0  0  0  0  0  0  0  0  0
  180.7260  176.3720  140.0450 O   0  0  0  0  0  0  0  0  0  0  0  0
  180.8880  178.3000  141.2640 O   0  0  0  0  0  1  0  0  0  0  0  0
  189.5200  178.0370  140.7270 C   0  0  0  0  0  2  0  0  0  0  0  0
  189.5290  176.9490  142.9710 N   0  0  0  0  0  0  0  0  0  0  0  0
  187.4690  177.7140  142.0540 O   0  0  0  0  0  0  0  0  0  0  0  0
  187.5760  177.4150  146.2010 C   0  0  1  0  0  3  0  0  0  0  0  0
  186.5570  178.3020  145.5920 N   0  0  0  0  0  0  0  0  0  0  0  0
  188.8740  177.3370  145.3640 C   0  0  1  0  0  3  0  0  0  0  0  0
  185.4040  178.1250  146.2790 O   0  0  0  0  0  1  0  0  0  0  0  0
  188.4750  176.9620  143.9480 C   0  0  1  0  0  3  0  0  0  0  0  0
  187.9030  177.8680  147.6160 C   0  0  0  0  0  1  0  0  0  0  0  0
  186.2710  177.9080  144.2030 C   0  0  0  0  0  2  0  0  0  0  0  0
  187.5600  177.9900  143.4160 C   0  0  2  0  0  3  0  0  0  0  0  0
  189.5410  178.5480  145.3730 F   0  0  0  0  0  0  0  0  0  0  0  0
  188.7510  177.1850  141.7470 C   0  0  1  0  0  3  0  0  0  0  0  0
  190.0280  175.5870  142.9010 C   0  0  0  0  0  1  0  0  0  0  0  0
  1  5  1  0  0  0  0
  2 17  1  0  0  0  0
  2 12  1  0  0  0  0
  3  9  2  0  0  0  0
  3 15  1  0  0  0  0
  4  5  1  0  0  0  0
  4 21  1  1  0  0  0
  6  8  1  6  0  0  0
  6  4  1  0  0  0  0
  7  8  1  0  0  0  0
  9 10  1  0  0  0  0
 10  6  1  0  0  0  0
 10  1  2  0  0  0  0
 11  7  1  0  0  0  0
 11  9  1  0  0  0  0
 12 13  2  0  0  0  0
 13 14  1  0  0  0  0
 13 18  1  0  0  0  0
 15  2  2  0  0  0  0
 16 14  2  0  0  0  0
 17  1  1  0  0  0  0
 17 16  1  1  0  0  0
 18 20  1  0  0  0  0
 19 18  2  0  0  0  0
 23 31  1  0  0  0  0
 24 29  1  1  0  0  0
 25 24  1  0  0  0  0
 25 27  1  0  0  0  0
 26 32  1  6  0  0  0
 26 24  1  0  0  0  0
 28 22  1  6  0  0  0
 28 26  1  0  0  0  0
 30 25  1  0  0  0  0
 31 28  1  0  0  0  0
 31 30  1  1  0  0  0
 33 21  1  6  0  0  0
 33 23  1  0  0  0  0
 33 22  1  0  0  0  0
 34 22  1  0  0  0  0
M  END
>  <MODEL>
5

>  <REMARK>
 VINA RESULT:      -8.9      3.529      8.808
  Name = 
  3 active torsions:
  status: ('A' for Active; 'I' for Inactive)
    1  A    between atoms: C_3  and  C_25
    2  A    between atoms: C_8  and  C_18
    3  A    between atoms: C_18  and  C_30
                            x       y       z     vdW  Elec       q    Type
                         _______ _______ _______ _____ _____    ______ ____

>  <TORSDO>
F 3

$$$$
=
 OpenBabel10272415323D

 34 39  0  0  1  0  0  0  0  0999 V2000
  188.2500  178.2880  142.0720 C   0  0  0  0  0  0  0  0  0  0  0  0
  188.5210  177.3790  144.4020 C   0  0  0  0  0  0  0  0  0  0  0  0
  186.0630  177.9050  144.2250 C   0  0  0  0  0  3  0  0  0  0  0  0
  187.8840  178.6080  139.8240 C   0  0  2  0  0  3  0  0  0  0  0  0
  188.8660  178.4100  140.8360 O   0  0  0  0  0  0  0  0  0  0  0  0
  186.5450  178.3070  140.5020 C   0  0  2  0  0  3  0  0  0  0  0  0
  184.4560  178.9840  141.0310 C   0  0  0  0  0  2  0  0  0  0  0  0
  185.6360  179.3730  140.3560 O   0  0  0  0  0  0  0  0  0  0  0  0
  185.9230  178.3520  142.9740 C   0  0  0  0  0  0  0  0  0  0  0  0
  186.9440  178.2040  141.9310 C   0  0  0  0  0  0  0  0  0  0  0  0
  184.6460  179.0300  142.5640 C   0  0  0  0  0  2  0  0  0  0  0  0
  189.5410  176.5990  145.1200 C   0  0  0  0  0  3  0  0  0  0  0  0
  190.8470  176.7840  144.9020 C   0  0  0  0  0  0  0  0  0  0  0  0
  191.3030  177.7870  143.9210 C   0  0  0  0  0  3  0  0  0  0  0  0
  187.2500  177.2270  144.7890 C   0  0  0  0  0  3  0  0  0  0  0  0
  190.4440  178.5330  143.2240 C   0  0  0  0  0  3  0  0  0  0  0  0
  188.9490  178.4270  143.3930 C   0  0  1  0  0  3  0  0  0  0  0  0
  191.8420  175.9780  145.6300 C   0  0  0  0  0  0  0  0  0  0  0  0
  192.3300  174.9380  145.1130 O   0  0  0  0  0  0  0  0  0  0  0  0
  192.2540  176.3630  146.9010 O   0  0  0  0  0  1  0  0  0  0  0  0
  188.1330  177.7620  138.5690 C   0  0  0  0  0  2  0  0  0  0  0  0
  189.2910  175.8640  137.4380 N   0  0  0  0  0  0  0  0  0  0  0  0
  190.3940  177.0180  139.2050 O   0  0  0  0  0  0  0  0  0  0  0  0
  192.8930  175.0720  136.5090 C   0  0  1  0  0  3  0  0  0  0  0  0
  193.4650  176.1700  137.3220 N   0  0  0  0  0  0  0  0  0  0  0  0
  191.3930  175.2830  136.1940 C   0  0  1  0  0  3  0  0  0  0  0  0
  194.7000  175.7800  137.7170 O   0  0  0  0  0  1  0  0  0  0  0  0
  190.6860  175.5260  137.5150 C   0  0  1  0  0  3  0  0  0  0  0  0
  193.6710  174.9040  135.2130 C   0  0  0  0  0  1  0  0  0  0  0  0
  192.6880  176.3800  138.5540 C   0  0  0  0  0  2  0  0  0  0  0  0
  191.2670  176.7190  138.1620 C   0  0  2  0  0  3  0  0  0  0  0  0
  191.2140  176.3600  135.3450 F   0  0  0  0  0  0  0  0  0  0  0  0
  189.1330  176.6040  138.6980 C   0  0  1  0  0  3  0  0  0  0  0  0
  188.5450  174.6260  137.5780 C   0  0  0  0  0  1  0  0  0  0  0  0
  1 17  1  0  0  0  0
  2 15  2  0  0  0  0
  2 12  1  0  0  0  0
  3 15  1  0  0  0  0
  4 21  1  6  0  0  0
  4  6  1  0  0  0  0
  4  5  1  0  0  0  0
  5  1  1  0  0  0  0
  6  8  1  1  0  0  0
  6 10  1  0  0  0  0
  7 11  1  0  0  0  0
  8  7  1  0  0  0  0
  9  3  2  0  0  0  0
 10  1  2  0  0  0  0
 10  9  1  0  0  0  0
 11  9  1  0  0  0  0
 13 12  2  0  0  0  0
 13 18  1  0  0  0  0
 14 13  1  0  0  0  0
 16 14  2  0  0  0  0
 17 16  1  6  0  0  0
 17  2  1  0  0  0  0
 18 20  1  0  0  0  0
 19 18  2  0  0  0  0
 22 34  1  0  0  0  0
 22 33  1  0  0  0  0
 24 29  1  6  0  0  0
 24 25  1  0  0  0  0
 25 27  1  0  0  0  0
 25 30  1  0  0  0  0
 26 32  1  6  0  0  0
 26 24  1  0  0  0  0
 26 28  1  0  0  0  0
 28 22  1  6  0  0  0
 28 31  1  0  0  0  0
 31 30  1  1  0  0  0
 31 23  1  0  0  0  0
 33 21  1  6  0  0  0
 33 23  1  0  0  0  0
M  END
>  <MODEL>
6

>  <REMARK>
 VINA RESULT:      -8.9      1.807      2.297
  Name = 
  3 active torsions:
  status: ('A' for Active; 'I' for Inactive)
    1  A    between atoms: C_3  and  C_25
    2  A    between atoms: C_8  and  C_18
    3  A    between atoms: C_18  and  C_30
                            x       y       z     vdW  Elec       q    Type
                         _______ _______ _______ _____ _____    ______ ____

>  <TORSDO>
F 3

$$$$
=
 OpenBabel10272415323D

 34 39  0  0  1  0  0  0  0  0999 V2000
  187.7620  177.7010  142.7640 C   0  0  0  0  0  0  0  0  0  0  0  0
  189.5250  177.7340  144.5590 C   0  0  0  0  0  0  0  0  0  0  0  0
  190.8340  177.6860  142.4070 C   0  0  0  0  0  3  0  0  0  0  0  0
  186.2200  178.2050  141.1340 C   0  0  2  0  0  3  0  0  0  0  0  0
  186.4140  177.9010  142.5120 O   0  0  0  0  0  0  0  0  0  0  0  0
  187.6230  178.4690  140.5820 C   0  0  2  0  0  3  0  0  0  0  0  0
  189.2160  177.9900  139.0540 C   0  0  0  0  0  2  0  0  0  0  0  0
  187.8990  177.6680  139.4580 O   0  0  0  0  0  0  0  0  0  0  0  0
  189.8910  177.7070  141.4600 C   0  0  0  0  0  0  0  0  0  0  0  0
  188.4820  178.0300  141.7130 C   0  0  0  0  0  0  0  0  0  0  0  0
  190.2600  177.4100  140.0340 C   0  0  0  0  0  2  0  0  0  0  0  0
  189.5680  178.0630  145.9920 C   0  0  0  0  0  3  0  0  0  0  0  0
  188.5560  177.7590  146.8120 C   0  0  0  0  0  0  0  0  0  0  0  0
  187.3550  177.0790  146.2910 C   0  0  0  0  0  3  0  0  0  0  0  0
  190.6380  177.9450  143.8490 C   0  0  0  0  0  3  0  0  0  0  0  0
  187.2340  176.7500  145.0040 C   0  0  0  0  0  3  0  0  0  0  0  0
  188.3120  177.0260  143.9860 C   0  0  1  0  0  3  0  0  0  0  0  0
  188.6270  178.1120  148.2400 C   0  0  0  0  0  0  0  0  0  0  0  0
  187.5920  178.1000  148.9580 O   0  0  0  0  0  1  0  0  0  0  0  0
  189.8450  178.4630  148.8110 O   0  0  0  0  0  0  0  0  0  0  0  0
  185.2470  179.3690  140.9050 C   0  0  0  0  0  2  0  0  0  0  0  0
  183.6670  179.2370  138.9800 N   0  0  0  0  0  0  0  0  0  0  0  0
  183.4480  177.6900  140.7770 O   0  0  0  0  0  0  0  0  0  0  0  0
  181.8990  176.4240  137.1300 C   0  0  1  0  0  3  0  0  0  0  0  0
  182.2360  175.3940  138.1400 N   0  0  0  0  0  0  0  0  0  0  0  0
  182.8180  177.6650  137.2160 C   0  0  1  0  0  3  0  0  0  0  0  0
  181.2470  174.4690  138.1190 O   0  0  0  0  0  1  0  0  0  0  0  0
  182.7830  178.1530  138.6530 C   0  0  1  0  0  3  0  0  0  0  0  0
  181.9560  175.8380  135.7280 C   0  0  0  0  0  1  0  0  0  0  0  0
  182.2380  175.9610  139.4980 C   0  0  0  0  0  2  0  0  0  0  0  0
  183.2590  177.0750  139.5410 C   0  0  2  0  0  3  0  0  0  0  0  0
  184.1120  177.3480  136.8460 F   0  0  0  0  0  0  0  0  0  0  0  0
  183.8350  179.0100  140.4220 C   0  0  1  0  0  3  0  0  0  0  0  0
  182.9070  180.4670  138.8300 C   0  0  0  0  0  1  0  0  0  0  0  0
  1 17  1  0  0  0  0
  2 12  1  0  0  0  0
  3 15  1  0  0  0  0
  4 21  1  1  0  0  0
  4  5  1  0  0  0  0
  5  1  1  0  0  0  0
  6  8  1  6  0  0  0
  6  4  1  0  0  0  0
  6 10  1  0  0  0  0
  7  8  1  0  0  0  0
  7 11  1  0  0  0  0
  9 10  1  0  0  0  0
  9  3  2  0  0  0  0
 10  1  2  0  0  0  0
 11  9  1  0  0  0  0
 12 13  2  0  0  0  0
 13 18  1  0  0  0  0
 14 13  1  0  0  0  0
 15  2  2  0  0  0  0
 16 14  2  0  0  0  0
 17  2  1  0  0  0  0
 17 16  1  1  0  0  0
 18 20  2  0  0  0  0
 18 19  1  0  0  0  0
 22 33  1  0  0  0  0
 24 29  1  6  0  0  0
 24 26  1  0  0  0  0
 24 25  1  0  0  0  0
 25 30  1  0  0  0  0
 26 32  1  1  0  0  0
 26 28  1  0  0  0  0
 27 25  1  0  0  0  0
 28 22  1  6  0  0  0
 28 31  1  0  0  0  0
 31 30  1  1  0  0  0
 31 23  1  0  0  0  0
 33 23  1  0  0  0  0
 33 21  1  6  0  0  0
 34 22  1  0  0  0  0
M  END
>  <MODEL>
7

>  <REMARK>
 VINA RESULT:      -8.9      4.092      6.140
  Name = 
  3 active torsions:
  status: ('A' for Active; 'I' for Inactive)
    1  A    between atoms: C_3  and  C_25
    2  A    between atoms: C_8  and  C_18
    3  A    between atoms: C_18  and  C_30
                            x       y       z     vdW  Elec       q    Type
                         _______ _______ _______ _____ _____    ______ ____

>  <TORSDO>
F 3

$$$$
=
 OpenBabel10272415323D

 34 39  0  0  1  0  0  0  0  0999 V2000
  189.0040  177.2760  142.0660 C   0  0  0  0  0  0  0  0  0  0  0  0
  189.4850  177.6710  144.5030 C   0  0  0  0  0  0  0  0  0  0  0  0
  191.7650  177.5080  143.4410 C   0  0  0  0  0  3  0  0  0  0  0  0
  188.6070  177.4510  139.8070 C   0  0  2  0  0  3  0  0  0  0  0  0
  188.0150  177.3200  141.0960 O   0  0  0  0  0  0  0  0  0  0  0  0
  190.0770  177.7820  140.0740 C   0  0  2  0  0  3  0  0  0  0  0  0
  192.2560  177.2880  139.7450 C   0  0  0  0  0  2  0  0  0  0  0  0
  190.9410  176.8910  139.4100 O   0  0  0  0  0  0  0  0  0  0  0  0
  191.4980  177.3360  142.1420 C   0  0  0  0  0  0  0  0  0  0  0  0
  190.1780  177.5530  141.5400 C   0  0  0  0  0  0  0  0  0  0  0  0
  192.5980  176.9200  141.2050 C   0  0  0  0  0  2  0  0  0  0  0  0
  188.7260  178.1590  145.6650 C   0  0  0  0  0  3  0  0  0  0  0  0
  187.4360  177.8540  145.8370 C   0  0  0  0  0  0  0  0  0  0  0  0
  186.7320  177.0120  144.8510 C   0  0  0  0  0  3  0  0  0  0  0  0
  190.8020  177.9050  144.4900 C   0  0  0  0  0  3  0  0  0  0  0  0
  187.3460  176.5330  143.7670 C   0  0  0  0  0  3  0  0  0  0  0  0
  188.8020  176.7940  143.4720 C   0  0  1  0  0  3  0  0  0  0  0  0
  186.7020  178.3680  147.0060 C   0  0  0  0  0  0  0  0  0  0  0  0
  187.2500  178.4180  148.1390 O   0  0  0  0  0  1  0  0  0  0  0  0
  185.3900  178.8080  146.8670 O   0  0  0  0  0  0  0  0  0  0  0  0
  187.9010  178.4870  138.9220 C   0  0  0  0  0  2  0  0  0  0  0  0
  187.9490  176.6860  137.1970 N   0  0  0  0  0  0  0  0  0  0  0  0
  186.0060  178.0460  137.4100 O   0  0  0  0  0  0  0  0  0  0  0  0
  185.3860  174.2950  135.7230 C   0  0  1  0  0  3  0  0  0  0  0  0
  184.2230  174.9920  136.3200 N   0  0  0  0  0  0  0  0  0  0  0  0
  186.7150  174.6360  136.4370 C   0  0  1  0  0  3  0  0  0  0  0  0
  183.1670  174.7970  135.4950 O   0  0  0  0  0  1  0  0  0  0  0  0
  186.8330  176.1500  136.4690 C   0  0  1  0  0  3  0  0  0  0  0  0
  185.1690  172.7890  135.7320 C   0  0  0  0  0  1  0  0  0  0  0  0
  184.4420  176.4470  136.3680 C   0  0  0  0  0  2  0  0  0  0  0  0
  185.6780  176.7090  137.1980 C   0  0  2  0  0  3  0  0  0  0  0  0
  186.7310  174.1230  137.7210 F   0  0  0  0  0  0  0  0  0  0  0  0
  187.4210  178.0120  137.5430 C   0  0  1  0  0  3  0  0  0  0  0  0
  189.0220  176.8940  136.2400 C   0  0  0  0  0  1  0  0  0  0  0  0
  1 17  1  0  0  0  0
  2 12  1  0  0  0  0
  3 15  1  0  0  0  0
  4 21  1  6  0  0  0
  4  6  1  0  0  0  0
  4  5  1  0  0  0  0
  5  1  1  0  0  0  0
  6  8  1  6  0  0  0
  6 10  1  0  0  0  0
  7 11  1  0  0  0  0
  8  7  1  0  0  0  0
  9  3  2  0  0  0  0
 10  1  2  0  0  0  0
 10  9  1  0  0  0  0
 11  9  1  0  0  0  0
 12 13  2  0  0  0  0
 13 18  1  0  0  0  0
 14 13  1  0  0  0  0
 15  2  2  0  0  0  0
 16 14  2  0  0  0  0
 17 16  1  1  0  0  0
 17  2  1  0  0  0  0
 18 19  1  0  0  0  0
 20 18  2  0  0  0  0
 22 33  1  0  0  0  0
 23 33  1  0  0  0  0
 24 29  1  1  0  0  0
 24 25  1  0  0  0  0
 24 26  1  0  0  0  0
 25 30  1  0  0  0  0
 26 28  1  0  0  0  0
 26 32  1  1  0  0  0
 27 25  1  0  0  0  0
 28 22  1  1  0  0  0
 28 31  1  0  0  0  0
 31 30  1  6  0  0  0
 31 23  1  0  0  0  0
 33 21  1  1  0  0  0
 34 22  1  0  0  0  0
M  END
>  <MODEL>
8

>  <REMARK>
 VINA RESULT:      -8.8      3.297      5.186
  Name = 
  3 active torsions:
  status: ('A' for Active; 'I' for Inactive)
    1  A    between atoms: C_3  and  C_25
    2  A    between atoms: C_8  and  C_18
    3  A    between atoms: C_18  and  C_30
                            x       y       z     vdW  Elec       q    Type
                         _______ _______ _______ _____ _____    ______ ____

>  <TORSDO>
F 3

$$$$
=
 OpenBabel10272415323D

 34 39  0  0  1  0  0  0  0  0999 V2000
  183.8750  178.2450  141.6050 C   0  0  0  0  0  0  0  0  0  0  0  0
  185.0790  178.4060  143.8080 C   0  0  0  0  0  0  0  0  0  0  0  0
  182.7590  179.2540  144.3080 C   0  0  0  0  0  3  0  0  0  0  0  0
  182.6220  177.6170  139.7820 C   0  0  2  0  0  3  0  0  0  0  0  0
  183.9330  177.6990  140.3320 O   0  0  0  0  0  0  0  0  0  0  0  0
  181.6780  177.8980  140.9530 C   0  0  2  0  0  3  0  0  0  0  0  0
  179.9820  179.1160  141.8140 C   0  0  0  0  0  2  0  0  0  0  0  0
  180.7810  178.9440  140.6610 O   0  0  0  0  0  0  0  0  0  0  0  0
  182.1180  179.1290  143.1420 C   0  0  0  0  0  0  0  0  0  0  0  0
  182.6260  178.3540  142.0050 C   0  0  0  0  0  0  0  0  0  0  0  0
  180.7800  179.7880  142.9540 C   0  0  0  0  0  2  0  0  0  0  0  0
  186.3090  177.8410  144.3850 C   0  0  0  0  0  3  0  0  0  0  0  0
  187.4110  177.6640  143.6490 C   0  0  0  0  0  0  0  0  0  0  0  0
  187.4200  178.0350  142.2210 C   0  0  0  0  0  3  0  0  0  0  0  0
  184.0780  178.6800  144.6510 C   0  0  0  0  0  3  0  0  0  0  0  0
  186.3460  178.5500  141.6200 C   0  0  0  0  0  3  0  0  0  0  0  0
  185.0510  178.8110  142.3470 C   0  0  1  0  0  3  0  0  0  0  0  0
  188.6220  177.0850  144.2550 C   0  0  0  0  0  0  0  0  0  0  0  0
  188.9680  177.3960  145.4260 O   0  0  0  0  0  1  0  0  0  0  0  0
  189.3970  176.1810  143.5360 O   0  0  0  0  0  0  0  0  0  0  0  0
  182.3440  176.2790  139.0850 C   0  0  0  0  0  2  0  0  0  0  0  0
  183.6710  177.2410  137.2040 N   0  0  0  0  0  0  0  0  0  0  0  0
  184.0510  174.9860  137.8670 O   0  0  0  0  0  0  0  0  0  0  0  0
  187.2350  176.8430  135.9390 C   0  0  1  0  0  3  0  0  0  0  0  0
  187.5250  175.6620  136.7860 N   0  0  0  0  0  0  0  0  0  0  0  0
  186.0300  177.6640  136.4560 C   0  0  1  0  0  3  0  0  0  0  0  0
  188.4400  174.9090  136.1290 O   0  0  0  0  0  1  0  0  0  0  0  0
  184.8660  176.7020  136.6190 C   0  0  1  0  0  3  0  0  0  0  0  0
  188.4590  177.7390  135.8340 C   0  0  0  0  0  1  0  0  0  0  0  0
  186.3330  174.8140  136.9420 C   0  0  0  0  0  2  0  0  0  0  0  0
  185.2430  175.6460  137.5800 C   0  0  2  0  0  3  0  0  0  0  0  0
  186.3270  178.2710  137.6630 F   0  0  0  0  0  0  0  0  0  0  0  0
  183.0800  176.0170  137.7630 C   0  0  1  0  0  3  0  0  0  0  0  0
  182.8140  177.6640  136.1100 C   0  0  0  0  0  1  0  0  0  0  0  0
  1 10  2  0  0  0  0
  1 17  1  0  0  0  0
  2 12  1  0  0  0  0
  2 15  2  0  0  0  0
  3 15  1  0  0  0  0
  4 21  1  1  0  0  0
  4  5  1  0  0  0  0
  4  6  1  0  0  0  0
  5  1  1  0  0  0  0
  6  8  1  6  0  0  0
  6 10  1  0  0  0  0
  7 11  1  0  0  0  0
  8  7  1  0  0  0  0
  9  3  2  0  0  0  0
 10  9  1  0  0  0  0
 11  9  1  0  0  0  0
 13 18  1  0  0  0  0
 13 12  2  0  0  0  0
 14 13  1  0  0  0  0
 16 14  2  0  0  0  0
 17 16  1  6  0  0  0
 17  2  1  0  0  0  0
 18 19  1  0  0  0  0
 20 18  2  0  0  0  0
 22 33  1  0  0  0  0
 24 29  1  1  0  0  0
 24 26  1  0  0  0  0
 24 25  1  0  0  0  0
 25 30  1  0  0  0  0
 26 28  1  0  0  0  0
 26 32  1  1  0  0  0
 27 25  1  0  0  0  0
 28 22  1  1  0  0  0
 28 31  1  0  0  0  0
 31 30  1  6  0  0  0
 31 23  1  0  0  0  0
 33 23  1  0  0  0  0
 33 21  1  1  0  0  0
 34 22  1  0  0  0  0
M  END
>  <MODEL>
9

>  <REMARK>
 VINA RESULT:      -8.8      3.743      5.381
  Name = 
  3 active torsions:
  status: ('A' for Active; 'I' for Inactive)
    1  A    between atoms: C_3  and  C_25
    2  A    between atoms: C_8  and  C_18
    3  A    between atoms: C_18  and  C_30
                            x       y       z     vdW  Elec       q    Type
                         _______ _______ _______ _____ _____    ______ ____

>  <TORSDO>
F 3

$$$$
