=
 OpenBabel10272413493D

 30 32  0  0  1  0  0  0  0  0999 V2000
  184.7450  178.1100  143.2400 C   0  0  1  0  0  3  0  0  0  0  0  0
  185.8300  178.5050  144.2360 C   0  0  1  0  0  3  0  0  0  0  0  0
  185.0590  179.0160  145.4080 C   0  0  0  0  0  3  0  0  0  0  0  0
  183.5360  178.4990  143.8690 O   0  0  0  0  0  0  0  0  0  0  0  0
  183.7680  178.9980  145.1370 C   0  0  0  0  0  3  0  0  0  0  0  0
  185.6250  179.8510  141.9020 O   0  0  0  0  0  0  0  0  0  0  0  0
  184.9290  178.8470  141.9500 C   0  0  0  0  0  0  0  0  0  0  0  0
  184.2640  178.3190  140.7160 C   0  0  2  0  0  3  0  0  0  0  0  0
  185.6540  178.5880  138.7790 O   0  0  0  0  0  0  0  0  0  0  0  0
  184.7280  179.0530  139.4960 C   0  0  0  0  0  0  0  0  0  0  0  0
  184.0930  180.2710  139.1270 N   0  0  0  0  0  1  0  0  0  0  0  0
  182.7460  178.3440  140.8610 C   0  0  0  0  0  2  0  0  0  0  0  0
  180.5640  177.6350  139.8960 C   0  0  0  0  0  1  0  0  0  0  0  0
  182.0700  177.5740  139.7330 C   0  0  2  0  0  3  0  0  0  0  0  0
  182.5480  176.1250  139.6640 C   0  0  0  0  0  2  0  0  0  0  0  0
  183.6200  174.9580  137.9330 C   0  0  0  0  0  2  0  0  0  0  0  0
  183.2560  176.2780  137.4340 C   0  0  0  0  0  2  0  0  0  0  0  0
  182.3420  175.5640  138.3360 N   0  0  0  0  0  0  0  0  0  0  0  0
  186.6480  177.2840  144.6240 C   0  0  0  0  0  2  0  0  0  0  0  0
  188.1180  177.6420  144.7830 C   0  0  1  0  0  3  0  0  0  0  0  0
  188.5410  177.3480  146.2060 C   0  0  0  0  0  1  0  0  0  0  0  0
  188.9280  176.8420  143.8710 N   0  0  0  0  0  2  0  0  0  0  0  0
  189.6850  177.8690  139.5280 C   0  0  0  0  0  0  0  0  0  0  0  0
  190.7560  176.9180  139.9390 C   0  0  0  0  0  2  0  0  0  0  0  0
  189.7430  178.4190  138.2920 F   0  0  0  0  0  0  0  0  0  0  0  0
  189.3360  177.2720  142.5670 C   0  0  0  0  0  0  0  0  0  0  0  0
  191.4250  177.3590  141.1960 C   0  0  0  0  0  3  0  0  0  0  0  0
  188.6130  178.1010  140.2850 C   0  0  0  0  0  3  0  0  0  0  0  0
  190.7830  177.4780  142.3580 C   0  0  0  0  0  3  0  0  0  0  0  0
  188.4000  177.5950  141.6560 C   0  0  0  0  0  3  0  0  0  0  0  0
  1  7  1  6  0  0  0
  1  4  1  0  0  0  0
  1  2  1  0  0  0  0
  2 19  1  1  0  0  0
  2  3  1  0  0  0  0
  4  5  1  0  0  0  0
  5  3  2  0  0  0  0
  6  7  2  0  0  0  0
  8 12  1  1  0  0  0
  8  7  1  0  0  0  0
  9 10  2  0  0  0  0
 10  8  1  0  0  0  0
 11 10  1  0  0  0  0
 14 13  1  1  0  0  0
 14 12  1  0  0  0  0
 15 14  1  0  0  0  0
 16 18  1  0  0  0  0
 17 16  1  0  0  0  0
 17 18  1  0  0  0  0
 18 15  1  0  0  0  0
 19 20  1  0  0  0  0
 20 21  1  1  0  0  0
 22 20  1  0  0  0  0
 23 24  1  0  0  0  0
 23 28  2  0  0  0  0
 24 27  1  0  0  0  0
 25 23  1  0  0  0  0
 26 22  1  0  0  0  0
 27 29  2  0  0  0  0
 28 30  1  0  0  0  0
 29 26  1  0  0  0  0
 30 26  2  0  0  0  0
M  END
>  <MODEL>
1

>  <REMARK>
 VINA RESULT:      -7.4      0.000      0.000
  Name = 
  11 active torsions:
  status: ('A' for Active; 'I' for Inactive)
    1  A    between atoms: N_3  and  C_11
    2  A    between atoms: N_3  and  C_19
    3  A    between atoms: C_4  and  C_13
    4  A    between atoms: C_7  and  C_30
    5  A    between atoms: C_8  and  C_12
    6  A    between atoms: C_8  and  C_13
    7  A    between atoms: C_9  and  C_12
    8  A    between atoms: C_9  and  N_21
    9  A    between atoms: C_10  and  C_25
   10  A    between atoms: C_11  and  C_25
   11  A    between atoms: C_13  and  C_30
                            x       y       z     vdW  Elec       q    Type
                         _______ _______ _______ _____ _____    ______ ____

>  <TORSDO>
F 11

$$$$
=
 OpenBabel10272413493D

 30 32  0  0  1  0  0  0  0  0999 V2000
  186.2850  178.7290  144.6830 C   0  0  1  0  0  3  0  0  0  0  0  0
  185.0150  178.3400  143.9340 C   0  0  1  0  0  3  0  0  0  0  0  0
  183.9430  178.4930  144.9620 C   0  0  0  0  0  3  0  0  0  0  0  0
  185.8490  178.9630  146.0110 O   0  0  0  0  0  0  0  0  0  0  0  0
  184.4770  178.8370  146.1190 C   0  0  0  0  0  3  0  0  0  0  0  0
  187.0830  176.6320  143.9340 O   0  0  0  0  0  0  0  0  0  0  0  0
  187.2770  177.6090  144.6430 C   0  0  0  0  0  0  0  0  0  0  0  0
  188.5220  177.7180  145.4690 C   0  0  2  0  0  3  0  0  0  0  0  0
  190.1330  176.5580  144.1220 O   0  0  0  0  0  0  0  0  0  0  0  0
  189.7480  177.6540  144.6100 C   0  0  0  0  0  0  0  0  0  0  0  0
  190.4630  178.8470  144.3190 N   0  0  0  0  0  1  0  0  0  0  0  0
  188.5370  176.6660  146.5730 C   0  0  0  0  0  2  0  0  0  0  0  0
  188.7750  178.6050  148.1160 C   0  0  0  0  0  1  0  0  0  0  0  0
  189.2300  177.1880  147.8260 C   0  0  2  0  0  3  0  0  0  0  0  0
  190.7520  177.1240  147.7050 C   0  0  0  0  0  2  0  0  0  0  0  0
  192.6270  175.7550  148.0430 C   0  0  0  0  0  2  0  0  0  0  0  0
  192.2940  175.7260  146.6250 C   0  0  0  0  0  2  0  0  0  0  0  0
  191.2170  175.7460  147.6260 N   0  0  0  0  0  0  0  0  0  0  0  0
  184.7840  179.2920  142.7730 C   0  0  0  0  0  2  0  0  0  0  0  0
  185.2210  178.6640  141.4580 C   0  0  1  0  0  3  0  0  0  0  0  0
  184.2010  179.0000  140.3930 C   0  0  0  0  0  1  0  0  0  0  0  0
  186.5200  179.1960  141.0590 N   0  0  0  0  0  2  0  0  0  0  0  0
  190.1820  177.0760  139.4520 C   0  0  0  0  0  0  0  0  0  0  0  0
  189.7080  177.9940  138.3760 C   0  0  0  0  0  2  0  0  0  0  0  0
  191.2130  176.2400  139.1850 F   0  0  0  0  0  0  0  0  0  0  0  0
  187.5450  178.4250  140.4220 C   0  0  0  0  0  0  0  0  0  0  0  0
  188.2540  177.8100  138.1050 C   0  0  0  0  0  3  0  0  0  0  0  0
  189.7100  177.1380  140.6970 C   0  0  0  0  0  3  0  0  0  0  0  0
  187.3100  178.0380  139.0160 C   0  0  0  0  0  3  0  0  0  0  0  0
  188.5850  177.9800  141.1510 C   0  0  0  0  0  3  0  0  0  0  0  0
  1  7  1  1  0  0  0
  1  4  1  0  0  0  0
  2 19  1  6  0  0  0
  2  1  1  0  0  0  0
  2  3  1  0  0  0  0
  3  5  2  0  0  0  0
  4  5  1  0  0  0  0
  6  7  2  0  0  0  0
  7  8  1  0  0  0  0
  8 12  1  1  0  0  0
  9 10  2  0  0  0  0
 10  8  1  0  0  0  0
 11 10  1  0  0  0  0
 12 14  1  0  0  0  0
 14 13  1  6  0  0  0
 15 14  1  0  0  0  0
 17 18  1  0  0  0  0
 17 16  1  0  0  0  0
 18 15  1  0  0  0  0
 18 16  1  0  0  0  0
 20 21  1  6  0  0  0
 20 19  1  0  0  0  0
 22 20  1  0  0  0  0
 23 28  2  0  0  0  0
 24 23  1  0  0  0  0
 25 23  1  0  0  0  0
 26 22  1  0  0  0  0
 26 30  2  0  0  0  0
 27 24  1  0  0  0  0
 27 29  2  0  0  0  0
 28 30  1  0  0  0  0
 29 26  1  0  0  0  0
M  END
>  <MODEL>
2

>  <REMARK>
 VINA RESULT:      -7.3      2.694      6.859
  Name = 
  11 active torsions:
  status: ('A' for Active; 'I' for Inactive)
    1  A    between atoms: N_3  and  C_11
    2  A    between atoms: N_3  and  C_19
    3  A    between atoms: C_4  and  C_13
    4  A    between atoms: C_7  and  C_30
    5  A    between atoms: C_8  and  C_12
    6  A    between atoms: C_8  and  C_13
    7  A    between atoms: C_9  and  C_12
    8  A    between atoms: C_9  and  N_21
    9  A    between atoms: C_10  and  C_25
   10  A    between atoms: C_11  and  C_25
   11  A    between atoms: C_13  and  C_30
                            x       y       z     vdW  Elec       q    Type
                         _______ _______ _______ _____ _____    ______ ____

>  <TORSDO>
F 11

$$$$
=
 OpenBabel10272413493D

 30 32  0  0  1  0  0  0  0  0999 V2000
  188.1010  177.6710  144.2040 C   0  0  1  0  0  3  0  0  0  0  0  0
  186.6160  177.5500  144.5300 C   0  0  1  0  0  3  0  0  0  0  0  0
  186.5880  177.5190  146.0220 C   0  0  0  0  0  3  0  0  0  0  0  0
  188.7420  177.6070  145.4660 O   0  0  0  0  0  0  0  0  0  0  0  0
  187.8200  177.5440  146.4950 C   0  0  0  0  0  3  0  0  0  0  0  0
  187.9110  175.4830  143.3240 O   0  0  0  0  0  0  0  0  0  0  0  0
  188.5370  176.5340  143.3330 C   0  0  0  0  0  0  0  0  0  0  0  0
  189.7390  176.7140  142.4590 C   0  0  2  0  0  3  0  0  0  0  0  0
  191.5080  175.8820  143.8500 O   0  0  0  0  0  0  0  0  0  0  0  0
  190.9840  176.8740  143.2770 C   0  0  0  0  0  0  0  0  0  0  0  0
  191.5960  178.1530  143.3800 N   0  0  0  0  0  1  0  0  0  0  0  0
  189.5380  177.8720  141.4860 C   0  0  0  0  0  2  0  0  0  0  0  0
  191.0420  177.0230  139.6930 C   0  0  0  0  0  1  0  0  0  0  0  0
  189.6150  177.3990  140.0400 C   0  0  2  0  0  3  0  0  0  0  0  0
  189.0810  178.4490  139.0660 C   0  0  0  0  0  2  0  0  0  0  0  0
  188.4880  178.7680  136.8190 C   0  0  0  0  0  2  0  0  0  0  0  0
  188.4350  177.3400  137.1040 C   0  0  0  0  0  2  0  0  0  0  0  0
  189.4970  178.1620  137.7000 N   0  0  0  0  0  0  0  0  0  0  0  0
  185.8690  178.7640  144.0040 C   0  0  0  0  0  2  0  0  0  0  0  0
  184.4370  178.4060  143.6370 C   0  0  1  0  0  3  0  0  0  0  0  0
  183.5220  178.8290  144.7650 C   0  0  0  0  0  1  0  0  0  0  0  0
  184.0450  179.1040  142.4180 N   0  0  0  0  0  2  0  0  0  0  0  0
  184.5420  177.9470  138.0700 C   0  0  0  0  0  0  0  0  0  0  0  0
  183.0790  177.9310  138.3560 C   0  0  0  0  0  2  0  0  0  0  0  0
  184.9700  177.5310  136.8550 F   0  0  0  0  0  0  0  0  0  0  0  0
  184.1410  178.5460  141.1020 C   0  0  0  0  0  0  0  0  0  0  0  0
  182.7700  177.1230  139.5700 C   0  0  0  0  0  3  0  0  0  0  0  0
  185.4250  178.4700  138.9200 C   0  0  0  0  0  3  0  0  0  0  0  0
  183.2250  177.4330  140.7840 C   0  0  0  0  0  3  0  0  0  0  0  0
  185.1280  178.9530  140.2830 C   0  0  0  0  0  3  0  0  0  0  0  0
  1  7  1  6  0  0  0
  1  2  1  0  0  0  0
  1  4  1  0  0  0  0
  2 19  1  1  0  0  0
  2  3  1  0  0  0  0
  3  5  2  0  0  0  0
  4  5  1  0  0  0  0
  6  7  2  0  0  0  0
  8 12  1  1  0  0  0
  8 10  1  0  0  0  0
  8  7  1  0  0  0  0
 10 11  1  0  0  0  0
 10  9  2  0  0  0  0
 14 13  1  6  0  0  0
 14 12  1  0  0  0  0
 15 14  1  0  0  0  0
 16 17  1  0  0  0  0
 16 18  1  0  0  0  0
 17 18  1  0  0  0  0
 18 15  1  0  0  0  0
 20 19  1  0  0  0  0
 20 21  1  1  0  0  0
 22 20  1  0  0  0  0
 23 24  1  0  0  0  0
 23 28  2  0  0  0  0
 24 27  1  0  0  0  0
 25 23  1  0  0  0  0
 26 22  1  0  0  0  0
 27 29  2  0  0  0  0
 28 30  1  0  0  0  0
 29 26  1  0  0  0  0
 30 26  2  0  0  0  0
M  END
>  <MODEL>
3

>  <REMARK>
 VINA RESULT:      -7.2      2.759      6.151
  Name = 
  11 active torsions:
  status: ('A' for Active; 'I' for Inactive)
    1  A    between atoms: N_3  and  C_11
    2  A    between atoms: N_3  and  C_19
    3  A    between atoms: C_4  and  C_13
    4  A    between atoms: C_7  and  C_30
    5  A    between atoms: C_8  and  C_12
    6  A    between atoms: C_8  and  C_13
    7  A    between atoms: C_9  and  C_12
    8  A    between atoms: C_9  and  N_21
    9  A    between atoms: C_10  and  C_25
   10  A    between atoms: C_11  and  C_25
   11  A    between atoms: C_13  and  C_30
                            x       y       z     vdW  Elec       q    Type
                         _______ _______ _______ _____ _____    ______ ____

>  <TORSDO>
F 11

$$$$
=
 OpenBabel10272413493D

 30 32  0  0  1  0  0  0  0  0999 V2000
  190.1400  177.8130  143.0490 C   0  0  1  0  0  3  0  0  0  0  0  0
  190.1090  177.4400  144.5280 C   0  0  1  0  0  3  0  0  0  0  0  0
  191.3810  178.0130  145.0590 C   0  0  0  0  0  3  0  0  0  0  0  0
  191.3970  178.4440  142.8750 O   0  0  0  0  0  0  0  0  0  0  0  0
  192.0720  178.5590  144.0760 C   0  0  0  0  0  3  0  0  0  0  0  0
  190.2600  175.4800  142.6790 O   0  0  0  0  0  0  0  0  0  0  0  0
  190.0440  176.5840  142.2000 C   0  0  0  0  0  0  0  0  0  0  0  0
  189.6580  176.7300  140.7610 C   0  0  2  0  0  3  0  0  0  0  0  0
  191.8660  177.3440  140.0510 O   0  0  0  0  0  0  0  0  0  0  0  0
  190.8540  176.6170  139.8660 C   0  0  0  0  0  0  0  0  0  0  0  0
  190.8580  175.6560  138.8180 N   0  0  0  0  0  1  0  0  0  0  0  0
  188.8880  178.0260  140.5310 C   0  0  0  0  0  2  0  0  0  0  0  0
  188.7740  178.9350  138.2160 C   0  0  0  0  0  1  0  0  0  0  0  0
  188.1280  177.9910  139.2100 C   0  0  2  0  0  3  0  0  0  0  0  0
  186.6490  178.3290  139.3940 C   0  0  0  0  0  2  0  0  0  0  0  0
  184.5760  178.5210  138.3130 C   0  0  0  0  0  2  0  0  0  0  0  0
  185.3370  177.4690  137.6520 C   0  0  0  0  0  2  0  0  0  0  0  0
  186.0260  178.6780  138.1250 N   0  0  0  0  0  0  0  0  0  0  0  0
  188.9080  178.0840  145.2010 C   0  0  0  0  0  2  0  0  0  0  0  0
  188.4150  177.2360  146.3630 C   0  0  1  0  0  3  0  0  0  0  0  0
  189.0320  177.7560  147.6440 C   0  0  0  0  0  1  0  0  0  0  0  0
  186.9620  177.3240  146.4640 N   0  0  0  0  0  2  0  0  0  0  0  0
  184.8210  178.8720  142.7890 C   0  0  0  0  0  0  0  0  0  0  0  0
  184.5900  179.8680  143.8740 C   0  0  0  0  0  2  0  0  0  0  0  0
  184.1940  179.0470  141.6020 F   0  0  0  0  0  0  0  0  0  0  0  0
  186.1070  177.7690  145.4050 C   0  0  0  0  0  0  0  0  0  0  0  0
  184.0870  179.2140  145.1150 C   0  0  0  0  0  3  0  0  0  0  0  0
  185.7150  177.8900  142.9050 C   0  0  0  0  0  3  0  0  0  0  0  0
  184.7900  178.3090  145.7970 C   0  0  0  0  0  3  0  0  0  0  0  0
  186.4720  177.5540  144.1280 C   0  0  0  0  0  3  0  0  0  0  0  0
  1  7  1  6  0  0  0
  1  2  1  0  0  0  0
  2  3  1  0  0  0  0
  2 19  1  1  0  0  0
  4  1  1  0  0  0  0
  4  5  1  0  0  0  0
  5  3  2  0  0  0  0
  7  6  2  0  0  0  0
  8 12  1  1  0  0  0
  8  7  1  0  0  0  0
 10  9  2  0  0  0  0
 10  8  1  0  0  0  0
 11 10  1  0  0  0  0
 14 13  1  6  0  0  0
 14 15  1  0  0  0  0
 14 12  1  0  0  0  0
 17 18  1  0  0  0  0
 17 16  1  0  0  0  0
 18 16  1  0  0  0  0
 18 15  1  0  0  0  0
 19 20  1  0  0  0  0
 20 22  1  0  0  0  0
 20 21  1  1  0  0  0
 23 28  2  0  0  0  0
 23 24  1  0  0  0  0
 24 27  1  0  0  0  0
 25 23  1  0  0  0  0
 26 29  1  0  0  0  0
 26 22  1  0  0  0  0
 27 29  2  0  0  0  0
 28 30  1  0  0  0  0
 30 26  2  0  0  0  0
M  END
>  <MODEL>
4

>  <REMARK>
 VINA RESULT:      -7.2      3.168      5.825
  Name = 
  11 active torsions:
  status: ('A' for Active; 'I' for Inactive)
    1  A    between atoms: N_3  and  C_11
    2  A    between atoms: N_3  and  C_19
    3  A    between atoms: C_4  and  C_13
    4  A    between atoms: C_7  and  C_30
    5  A    between atoms: C_8  and  C_12
    6  A    between atoms: C_8  and  C_13
    7  A    between atoms: C_9  and  C_12
    8  A    between atoms: C_9  and  N_21
    9  A    between atoms: C_10  and  C_25
   10  A    between atoms: C_11  and  C_25
   11  A    between atoms: C_13  and  C_30
                            x       y       z     vdW  Elec       q    Type
                         _______ _______ _______ _____ _____    ______ ____

>  <TORSDO>
F 11

$$$$
=
 OpenBabel10272413493D

 30 32  0  0  1  0  0  0  0  0999 V2000
  187.7450  177.3840  138.3110 C   0  0  1  0  0  3  0  0  0  0  0  0
  186.4900  178.1630  137.9310 C   0  0  1  0  0  3  0  0  0  0  0  0
  186.3000  177.8340  136.4870 C   0  0  0  0  0  3  0  0  0  0  0  0
  188.1730  176.7970  137.0950 O   0  0  0  0  0  0  0  0  0  0  0  0
  187.2890  177.0670  136.0680 C   0  0  0  0  0  3  0  0  0  0  0  0
  189.0450  179.3600  138.2720 O   0  0  0  0  0  0  0  0  0  0  0  0
  188.7910  178.3110  138.8470 C   0  0  0  0  0  0  0  0  0  0  0  0
  189.5040  177.9410  140.1110 C   0  0  2  0  0  3  0  0  0  0  0  0
  191.8810  177.6280  140.1820 O   0  0  0  0  0  0  0  0  0  0  0  0
  190.7610  177.1800  139.8200 C   0  0  0  0  0  0  0  0  0  0  0  0
  190.6830  175.9250  139.1570 N   0  0  0  0  0  1  0  0  0  0  0  0
  188.5790  177.1840  141.0580 C   0  0  0  0  0  2  0  0  0  0  0  0
  188.3670  176.0780  143.2780 C   0  0  0  0  0  1  0  0  0  0  0  0
  189.2210  176.9970  142.4270 C   0  0  2  0  0  3  0  0  0  0  0  0
  189.4520  178.3310  143.1360 C   0  0  0  0  0  2  0  0  0  0  0  0
  191.4880  179.1270  143.9890 C   0  0  0  0  0  2  0  0  0  0  0  0
  191.6530  177.7170  143.6620 C   0  0  0  0  0  2  0  0  0  0  0  0
  190.3870  178.1850  144.2430 N   0  0  0  0  0  0  0  0  0  0  0  0
  185.3080  177.6760  138.7510 C   0  0  0  0  0  2  0  0  0  0  0  0
  184.8400  178.7490  139.7230 C   0  0  1  0  0  3  0  0  0  0  0  0
  183.8950  179.6840  139.0010 C   0  0  0  0  0  1  0  0  0  0  0  0
  184.1380  178.1350  140.8450 N   0  0  0  0  0  2  0  0  0  0  0  0
  185.0210  178.8380  145.2290 C   0  0  0  0  0  0  0  0  0  0  0  0
  183.5760  178.4860  145.1310 C   0  0  0  0  0  2  0  0  0  0  0  0
  185.5210  179.2020  146.4330 F   0  0  0  0  0  0  0  0  0  0  0  0
  184.3010  178.5320  142.2110 C   0  0  0  0  0  0  0  0  0  0  0  0
  182.8800  179.3210  144.1110 C   0  0  0  0  0  3  0  0  0  0  0  0
  185.8590  178.6880  144.2030 C   0  0  0  0  0  3  0  0  0  0  0  0
  183.1960  179.3010  142.8160 C   0  0  0  0  0  3  0  0  0  0  0  0
  185.4780  178.3140  142.8270 C   0  0  0  0  0  3  0  0  0  0  0  0
  1  7  1  6  0  0  0
  2  1  1  0  0  0  0
  2 19  1  1  0  0  0
  3  2  1  0  0  0  0
  4  1  1  0  0  0  0
  5  3  2  0  0  0  0
  5  4  1  0  0  0  0
  6  7  2  0  0  0  0
  7  8  1  0  0  0  0
  8 12  1  1  0  0  0
 10  8  1  0  0  0  0
 10  9  2  0  0  0  0
 11 10  1  0  0  0  0
 12 14  1  0  0  0  0
 14 15  1  0  0  0  0
 14 13  1  1  0  0  0
 15 18  1  0  0  0  0
 16 18  1  0  0  0  0
 17 16  1  0  0  0  0
 17 18  1  0  0  0  0
 19 20  1  0  0  0  0
 20 21  1  6  0  0  0
 20 22  1  0  0  0  0
 22 26  1  0  0  0  0
 23 25  1  0  0  0  0
 24 23  1  0  0  0  0
 26 29  1  0  0  0  0
 26 30  2  0  0  0  0
 27 24  1  0  0  0  0
 28 23  2  0  0  0  0
 29 27  2  0  0  0  0
 30 28  1  0  0  0  0
M  END
>  <MODEL>
5

>  <REMARK>
 VINA RESULT:      -7.1      3.155      7.592
  Name = 
  11 active torsions:
  status: ('A' for Active; 'I' for Inactive)
    1  A    between atoms: N_3  and  C_11
    2  A    between atoms: N_3  and  C_19
    3  A    between atoms: C_4  and  C_13
    4  A    between atoms: C_7  and  C_30
    5  A    between atoms: C_8  and  C_12
    6  A    between atoms: C_8  and  C_13
    7  A    between atoms: C_9  and  C_12
    8  A    between atoms: C_9  and  N_21
    9  A    between atoms: C_10  and  C_25
   10  A    between atoms: C_11  and  C_25
   11  A    between atoms: C_13  and  C_30
                            x       y       z     vdW  Elec       q    Type
                         _______ _______ _______ _____ _____    ______ ____

>  <TORSDO>
F 11

$$$$
=
 OpenBabel10272413493D

 30 32  0  0  1  0  0  0  0  0999 V2000
  187.3510  178.5900  138.6160 C   0  0  1  0  0  3  0  0  0  0  0  0
  188.4080  177.5200  138.8670 C   0  0  1  0  0  3  0  0  0  0  0  0
  189.3580  177.6940  137.7290 C   0  0  0  0  0  3  0  0  0  0  0  0
  187.7310  179.1730  137.3810 O   0  0  0  0  0  0  0  0  0  0  0  0
  188.9170  178.6360  136.9170 C   0  0  0  0  0  3  0  0  0  0  0  0
  185.7740  177.0970  137.6790 O   0  0  0  0  0  0  0  0  0  0  0  0
  185.9940  177.9670  138.5090 C   0  0  0  0  0  0  0  0  0  0  0  0
  184.9200  178.4130  139.4520 C   0  0  2  0  0  3  0  0  0  0  0  0
  184.2860  180.6460  138.8480 O   0  0  0  0  0  0  0  0  0  0  0  0
  184.0150  179.4160  138.8060 C   0  0  0  0  0  0  0  0  0  0  0  0
  182.8560  178.9720  138.1120 N   0  0  0  0  0  1  0  0  0  0  0  0
  185.5180  178.9330  140.7550 C   0  0  0  0  0  2  0  0  0  0  0  0
  183.3050  178.2880  141.6960 C   0  0  0  0  0  1  0  0  0  0  0  0
  184.7950  178.3560  141.9660 C   0  0  2  0  0  3  0  0  0  0  0  0
  185.0790  179.1560  143.2360 C   0  0  0  0  0  2  0  0  0  0  0  0
  183.8330  179.1460  145.2240 C   0  0  0  0  0  2  0  0  0  0  0  0
  185.2460  179.1750  145.5740 C   0  0  0  0  0  2  0  0  0  0  0  0
  184.7970  178.3710  144.4300 N   0  0  0  0  0  0  0  0  0  0  0  0
  189.1050  177.7800  140.1920 C   0  0  0  0  0  2  0  0  0  0  0  0
  190.2890  176.8430  140.3780 C   0  0  1  0  0  3  0  0  0  0  0  0
  191.5110  177.6630  140.7300 C   0  0  0  0  0  1  0  0  0  0  0  0
  190.0170  175.9040  141.4600 N   0  0  0  0  0  2  0  0  0  0  0  0
  188.7540  177.5280  145.4920 C   0  0  0  0  0  0  0  0  0  0  0  0
  190.1180  178.0640  145.2190 C   0  0  0  0  0  2  0  0  0  0  0  0
  188.1850  177.7800  146.6950 F   0  0  0  0  0  0  0  0  0  0  0  0
  189.7640  176.2890  142.8160 C   0  0  0  0  0  0  0  0  0  0  0  0
  191.0650  176.9780  144.8380 C   0  0  0  0  0  3  0  0  0  0  0  0
  188.0310  176.9160  144.5540 C   0  0  0  0  0  3  0  0  0  0  0  0
  190.9060  176.2240  143.7500 C   0  0  0  0  0  3  0  0  0  0  0  0
  188.5030  176.5530  143.2030 C   0  0  0  0  0  3  0  0  0  0  0  0
  1  7  1  6  0  0  0
  1  2  1  0  0  0  0
  2 19  1  1  0  0  0
  3  2  1  0  0  0  0
  4  1  1  0  0  0  0
  5  4  1  0  0  0  0
  5  3  2  0  0  0  0
  6  7  2  0  0  0  0
  7  8  1  0  0  0  0
  8 12  1  1  0  0  0
 10  9  2  0  0  0  0
 10  8  1  0  0  0  0
 11 10  1  0  0  0  0
 12 14  1  0  0  0  0
 14 13  1  6  0  0  0
 14 15  1  0  0  0  0
 15 18  1  0  0  0  0
 16 17  1  0  0  0  0
 18 16  1  0  0  0  0
 18 17  1  0  0  0  0
 19 20  1  0  0  0  0
 20 21  1  1  0  0  0
 20 22  1  0  0  0  0
 22 26  1  0  0  0  0
 23 25  1  0  0  0  0
 24 23  1  0  0  0  0
 26 30  2  0  0  0  0
 26 29  1  0  0  0  0
 27 24  1  0  0  0  0
 28 23  2  0  0  0  0
 29 27  2  0  0  0  0
 30 28  1  0  0  0  0
M  END
>  <MODEL>
6

>  <REMARK>
 VINA RESULT:      -7.1      2.674      5.449
  Name = 
  11 active torsions:
  status: ('A' for Active; 'I' for Inactive)
    1  A    between atoms: N_3  and  C_11
    2  A    between atoms: N_3  and  C_19
    3  A    between atoms: C_4  and  C_13
    4  A    between atoms: C_7  and  C_30
    5  A    between atoms: C_8  and  C_12
    6  A    between atoms: C_8  and  C_13
    7  A    between atoms: C_9  and  C_12
    8  A    between atoms: C_9  and  N_21
    9  A    between atoms: C_10  and  C_25
   10  A    between atoms: C_11  and  C_25
   11  A    between atoms: C_13  and  C_30
                            x       y       z     vdW  Elec       q    Type
                         _______ _______ _______ _____ _____    ______ ____

>  <TORSDO>
F 11

$$$$
=
 OpenBabel10272413493D

 30 32  0  0  1  0  0  0  0  0999 V2000
  190.5490  176.8630  141.6390 C   0  0  1  0  0  3  0  0  0  0  0  0
  190.7890  178.1280  142.4580 C   0  0  1  0  0  3  0  0  0  0  0  0
  189.4100  178.6080  142.7690 C   0  0  0  0  0  3  0  0  0  0  0  0
  189.1410  176.8030  141.4940 O   0  0  0  0  0  0  0  0  0  0  0  0
  188.5210  177.8250  142.1890 C   0  0  0  0  0  3  0  0  0  0  0  0
  192.3860  177.3100  140.2160 O   0  0  0  0  0  0  0  0  0  0  0  0
  191.2120  176.9760  140.3020 C   0  0  0  0  0  0  0  0  0  0  0  0
  190.4200  176.6490  139.0740 C   0  0  2  0  0  3  0  0  0  0  0  0
  191.1480  174.5990  138.0620 O   0  0  0  0  0  0  0  0  0  0  0  0
  191.2350  175.8560  138.0990 C   0  0  0  0  0  0  0  0  0  0  0  0
  192.0900  176.5310  137.1860 N   0  0  0  0  0  1  0  0  0  0  0  0
  189.8420  177.9130  138.4460 C   0  0  0  0  0  2  0  0  0  0  0  0
  188.5080  178.5210  136.4330 C   0  0  0  0  0  1  0  0  0  0  0  0
  188.5860  177.6060  137.6390 C   0  0  2  0  0  3  0  0  0  0  0  0
  187.3200  177.7210  138.4880 C   0  0  0  0  0  2  0  0  0  0  0  0
  185.2130  178.7120  138.7700 C   0  0  0  0  0  2  0  0  0  0  0  0
  185.0810  177.6330  137.8000 C   0  0  0  0  0  2  0  0  0  0  0  0
  186.2860  178.4750  137.7930 N   0  0  0  0  0  0  0  0  0  0  0  0
  191.5380  177.7850  143.7340 C   0  0  0  0  0  2  0  0  0  0  0  0
  190.8600  176.6430  144.4740 C   0  0  1  0  0  3  0  0  0  0  0  0
  191.7910  175.4500  144.4930 C   0  0  0  0  0  1  0  0  0  0  0  0
  190.5680  177.0410  145.8480 N   0  0  0  0  0  2  0  0  0  0  0  0
  186.3000  178.1170  146.9060 C   0  0  0  0  0  0  0  0  0  0  0  0
  187.1800  178.8580  147.8550 C   0  0  0  0  0  2  0  0  0  0  0  0
  184.9590  178.1820  147.0780 F   0  0  0  0  0  0  0  0  0  0  0  0
  189.2490  177.2680  146.3570 C   0  0  0  0  0  0  0  0  0  0  0  0
  188.1670  177.9500  148.5060 C   0  0  0  0  0  3  0  0  0  0  0  0
  186.7820  177.4950  145.8290 C   0  0  0  0  0  3  0  0  0  0  0  0
  189.0970  177.2800  147.8260 C   0  0  0  0  0  3  0  0  0  0  0  0
  188.2110  177.3200  145.5030 C   0  0  0  0  0  3  0  0  0  0  0  0
  1  7  1  6  0  0  0
  1  2  1  0  0  0  0
  2  3  1  0  0  0  0
  2 19  1  1  0  0  0
  4  1  1  0  0  0  0
  4  5  1  0  0  0  0
  5  3  2  0  0  0  0
  6  7  2  0  0  0  0
  8 12  1  6  0  0  0
  8  7  1  0  0  0  0
  9 10  2  0  0  0  0
 10  8  1  0  0  0  0
 11 10  1  0  0  0  0
 14 13  1  6  0  0  0
 14 12  1  0  0  0  0
 14 15  1  0  0  0  0
 17 16  1  0  0  0  0
 18 17  1  0  0  0  0
 18 15  1  0  0  0  0
 18 16  1  0  0  0  0
 19 20  1  0  0  0  0
 20 21  1  1  0  0  0
 20 22  1  0  0  0  0
 22 26  1  0  0  0  0
 23 25  1  0  0  0  0
 23 24  1  0  0  0  0
 24 27  1  0  0  0  0
 26 29  1  0  0  0  0
 28 23  2  0  0  0  0
 29 27  2  0  0  0  0
 30 28  1  0  0  0  0
 30 26  2  0  0  0  0
M  END
>  <MODEL>
7

>  <REMARK>
 VINA RESULT:      -7.0      3.498      6.344
  Name = 
  11 active torsions:
  status: ('A' for Active; 'I' for Inactive)
    1  A    between atoms: N_3  and  C_11
    2  A    between atoms: N_3  and  C_19
    3  A    between atoms: C_4  and  C_13
    4  A    between atoms: C_7  and  C_30
    5  A    between atoms: C_8  and  C_12
    6  A    between atoms: C_8  and  C_13
    7  A    between atoms: C_9  and  C_12
    8  A    between atoms: C_9  and  N_21
    9  A    between atoms: C_10  and  C_25
   10  A    between atoms: C_11  and  C_25
   11  A    between atoms: C_13  and  C_30
                            x       y       z     vdW  Elec       q    Type
                         _______ _______ _______ _____ _____    ______ ____

>  <TORSDO>
F 11

$$$$
=
 OpenBabel10272413493D

 30 32  0  0  1  0  0  0  0  0999 V2000
  188.2990  177.6920  139.4460 C   0  0  1  0  0  3  0  0  0  0  0  0
  189.0470  178.0440  140.7280 C   0  0  1  0  0  3  0  0  0  0  0  0
  188.0120  178.7260  141.5600 C   0  0  0  0  0  3  0  0  0  0  0  0
  187.0130  178.2570  139.6270 O   0  0  0  0  0  0  0  0  0  0  0  0
  186.8850  178.8260  140.8800 C   0  0  0  0  0  3  0  0  0  0  0  0
  189.0730  179.5160  138.1540 O   0  0  0  0  0  0  0  0  0  0  0  0
  188.9810  178.3010  138.2610 C   0  0  0  0  0  0  0  0  0  0  0  0
  189.5690  177.3960  137.2220 C   0  0  2  0  0  3  0  0  0  0  0  0
  189.4940  177.7650  134.8530 O   0  0  0  0  0  0  0  0  0  0  0  0
  188.8530  177.5390  135.9140 C   0  0  0  0  0  0  0  0  0  0  0  0
  187.4410  177.3850  135.8660 N   0  0  0  0  0  1  0  0  0  0  0  0
  189.5950  175.9510  137.7090 C   0  0  0  0  0  2  0  0  0  0  0  0
  189.6740  173.5930  136.9140 C   0  0  0  0  0  1  0  0  0  0  0  0
  190.1220  175.0130  136.6300 C   0  0  2  0  0  3  0  0  0  0  0  0
  191.6430  175.0850  136.5050 C   0  0  0  0  0  2  0  0  0  0  0  0
  193.5050  175.8380  137.7180 C   0  0  0  0  0  2  0  0  0  0  0  0
  193.5930  174.3880  137.6050 C   0  0  0  0  0  2  0  0  0  0  0  0
  192.2840  175.0230  137.8110 N   0  0  0  0  0  0  0  0  0  0  0  0
  189.5340  176.7760  141.4100 C   0  0  0  0  0  2  0  0  0  0  0  0
  190.9880  176.9110  141.8360 C   0  0  1  0  0  3  0  0  0  0  0  0
  191.7630  177.5830  140.7240 C   0  0  0  0  0  1  0  0  0  0  0  0
  191.0810  177.7260  143.0420 N   0  0  0  0  0  2  0  0  0  0  0  0
  189.3320  176.9890  147.1520 C   0  0  0  0  0  0  0  0  0  0  0  0
  190.8000  177.1790  147.3350 C   0  0  0  0  0  2  0  0  0  0  0  0
  188.5830  176.6450  148.2260 F   0  0  0  0  0  0  0  0  0  0  0  0
  190.6270  177.3070  144.3340 C   0  0  0  0  0  0  0  0  0  0  0  0
  191.5820  176.3040  146.4160 C   0  0  0  0  0  3  0  0  0  0  0  0
  188.7190  177.2640  146.0010 C   0  0  0  0  0  3  0  0  0  0  0  0
  191.5150  176.4000  145.0890 C   0  0  0  0  0  3  0  0  0  0  0  0
  189.3860  177.6360  144.7370 C   0  0  0  0  0  3  0  0  0  0  0  0
  1  7  1  6  0  0  0
  1  4  1  0  0  0  0
  1  2  1  0  0  0  0
  2 19  1  1  0  0  0
  2  3  1  0  0  0  0
  4  5  1  0  0  0  0
  5  3  2  0  0  0  0
  6  7  2  0  0  0  0
  8 12  1  1  0  0  0
  8  7  1  0  0  0  0
  9 10  2  0  0  0  0
 10  8  1  0  0  0  0
 11 10  1  0  0  0  0
 14 13  1  1  0  0  0
 14 12  1  0  0  0  0
 15 14  1  0  0  0  0
 15 18  1  0  0  0  0
 16 18  1  0  0  0  0
 17 16  1  0  0  0  0
 17 18  1  0  0  0  0
 19 20  1  0  0  0  0
 20 21  1  6  0  0  0
 20 22  1  0  0  0  0
 22 26  1  0  0  0  0
 23 24  1  0  0  0  0
 23 25  1  0  0  0  0
 26 30  2  0  0  0  0
 26 29  1  0  0  0  0
 27 24  1  0  0  0  0
 28 23  2  0  0  0  0
 29 27  2  0  0  0  0
 30 28  1  0  0  0  0
M  END
>  <MODEL>
8

>  <REMARK>
 VINA RESULT:      -7.0      4.067      6.739
  Name = 
  11 active torsions:
  status: ('A' for Active; 'I' for Inactive)
    1  A    between atoms: N_3  and  C_11
    2  A    between atoms: N_3  and  C_19
    3  A    between atoms: C_4  and  C_13
    4  A    between atoms: C_7  and  C_30
    5  A    between atoms: C_8  and  C_12
    6  A    between atoms: C_8  and  C_13
    7  A    between atoms: C_9  and  C_12
    8  A    between atoms: C_9  and  N_21
    9  A    between atoms: C_10  and  C_25
   10  A    between atoms: C_11  and  C_25
   11  A    between atoms: C_13  and  C_30
                            x       y       z     vdW  Elec       q    Type
                         _______ _______ _______ _____ _____    ______ ____

>  <TORSDO>
F 11

$$$$
=
 OpenBabel10272413493D

 30 32  0  0  1  0  0  0  0  0999 V2000
  190.6330  177.4930  141.7980 C   0  0  1  0  0  3  0  0  0  0  0  0
  190.1730  176.1570  142.3720 C   0  0  1  0  0  3  0  0  0  0  0  0
  190.8600  176.0920  143.6970 C   0  0  0  0  0  3  0  0  0  0  0  0
  191.5540  177.9860  142.7550 O   0  0  0  0  0  0  0  0  0  0  0  0
  191.6340  177.1500  143.8530 C   0  0  0  0  0  3  0  0  0  0  0  0
  192.4940  177.5390  140.3380 O   0  0  0  0  0  0  0  0  0  0  0  0
  191.3050  177.2880  140.4760 C   0  0  0  0  0  0  0  0  0  0  0  0
  190.5000  176.7510  139.3340 C   0  0  2  0  0  3  0  0  0  0  0  0
  192.1960  176.8080  137.6380 O   0  0  0  0  0  0  0  0  0  0  0  0
  191.3820  176.1140  138.3030 C   0  0  0  0  0  0  0  0  0  0  0  0
  191.3200  174.7090  138.0990 N   0  0  0  0  0  1  0  0  0  0  0  0
  189.6080  177.8340  138.7370 C   0  0  0  0  0  2  0  0  0  0  0  0
  188.9370  178.3320  136.3910 C   0  0  0  0  0  1  0  0  0  0  0  0
  188.8530  177.3200  137.5170 C   0  0  2  0  0  3  0  0  0  0  0  0
  187.3970  176.9920  137.8420 C   0  0  0  0  0  2  0  0  0  0  0  0
  185.5890  178.4120  138.3100 C   0  0  0  0  0  2  0  0  0  0  0  0
  185.1380  177.4000  137.3640 C   0  0  0  0  0  2  0  0  0  0  0  0
  186.4910  177.9610  137.2410 N   0  0  0  0  0  0  0  0  0  0  0  0
  188.6640  176.1600  142.5500 C   0  0  0  0  0  2  0  0  0  0  0  0
  188.1590  177.5520  142.8960 C   0  0  1  0  0  3  0  0  0  0  0  0
  187.4440  178.1260  141.6920 C   0  0  0  0  0  1  0  0  0  0  0  0
  187.2260  177.4800  144.0150 N   0  0  0  0  0  2  0  0  0  0  0  0
  188.6640  178.0700  148.2670 C   0  0  0  0  0  0  0  0  0  0  0  0
  187.2330  177.6570  148.3480 C   0  0  0  0  0  2  0  0  0  0  0  0
  189.3060  178.4150  149.4070 F   0  0  0  0  0  0  0  0  0  0  0  0
  187.5560  177.8370  145.3630 C   0  0  0  0  0  0  0  0  0  0  0  0
  186.3730  178.4950  147.4650 C   0  0  0  0  0  3  0  0  0  0  0  0
  189.3610  177.9940  147.1330 C   0  0  0  0  0  3  0  0  0  0  0  0
  186.5120  178.5340  146.1400 C   0  0  0  0  0  3  0  0  0  0  0  0
  188.8130  177.6510  145.8060 C   0  0  0  0  0  3  0  0  0  0  0  0
  1  7  1  6  0  0  0
  1  2  1  0  0  0  0
  1  4  1  0  0  0  0
  2 19  1  1  0  0  0
  2  3  1  0  0  0  0
  3  5  2  0  0  0  0
  4  5  1  0  0  0  0
  6  7  2  0  0  0  0
  8 12  1  6  0  0  0
  8  7  1  0  0  0  0
  9 10  2  0  0  0  0
 10  8  1  0  0  0  0
 11 10  1  0  0  0  0
 14 13  1  6  0  0  0
 14 15  1  0  0  0  0
 14 12  1  0  0  0  0
 17 16  1  0  0  0  0
 18 17  1  0  0  0  0
 18 15  1  0  0  0  0
 18 16  1  0  0  0  0
 19 20  1  0  0  0  0
 20 21  1  6  0  0  0
 20 22  1  0  0  0  0
 22 26  1  0  0  0  0
 23 24  1  0  0  0  0
 23 25  1  0  0  0  0
 26 30  2  0  0  0  0
 26 29  1  0  0  0  0
 27 24  1  0  0  0  0
 28 23  2  0  0  0  0
 29 27  2  0  0  0  0
 30 28  1  0  0  0  0
M  END
>  <MODEL>
9

>  <REMARK>
 VINA RESULT:      -6.9      3.897      6.658
  Name = 
  11 active torsions:
  status: ('A' for Active; 'I' for Inactive)
    1  A    between atoms: N_3  and  C_11
    2  A    between atoms: N_3  and  C_19
    3  A    between atoms: C_4  and  C_13
    4  A    between atoms: C_7  and  C_30
    5  A    between atoms: C_8  and  C_12
    6  A    between atoms: C_8  and  C_13
    7  A    between atoms: C_9  and  C_12
    8  A    between atoms: C_9  and  N_21
    9  A    between atoms: C_10  and  C_25
   10  A    between atoms: C_11  and  C_25
   11  A    between atoms: C_13  and  C_30
                            x       y       z     vdW  Elec       q    Type
                         _______ _______ _______ _____ _____    ______ ____

>  <TORSDO>
F 11

$$$$
