=
 OpenBabel10272413583D

 30 34  0  0  1  0  0  0  0  0999 V2000
  188.5500  178.5340  138.0970 C   0  0  2  0  0  3  0  0  0  0  0  0
  186.2380  177.7860  137.0210 C   0  0  1  0  0  3  0  0  0  0  0  0
  188.8040  173.9890  136.4820 C   0  0  0  0  0  2  0  0  0  0  0  0
  189.9130  177.8470  138.2370 C   0  0  1  0  0  3  0  0  0  0  0  0
  187.8800  178.5340  139.3460 O   0  0  0  0  0  0  0  0  0  0  0  0
  188.8570  176.0500  142.6250 C   0  0  0  0  0  1  0  0  0  0  0  0
  190.1220  177.9690  139.7240 C   0  0  1  0  0  3  0  0  0  0  0  0
  188.6160  178.3570  141.6570 C   0  0  0  0  0  2  0  0  0  0  0  0
  190.1100  174.0280  137.3060 C   0  0  1  0  0  3  0  0  0  0  0  0
  188.7180  177.8420  140.2330 C   0  0  1  0  0  3  0  0  0  0  0  0
  191.1990  177.4260  142.1820 S   0  0  0  0  0  0  0  0  0  0  0  0
  185.6080  176.6930  137.8690 C   0  0  0  0  0  2  0  0  0  0  0  0
  189.2900  177.9890  143.9020 O   0  0  0  0  0  1  0  0  0  0  0  0
  185.7720  179.0380  137.4250 O   0  0  0  0  0  1  0  0  0  0  0  0
  187.8190  175.0710  136.9490 C   0  0  2  0  0  3  0  0  0  0  0  0
  186.5230  175.0050  136.1640 C   0  0  0  0  0  2  0  0  0  0  0  0
  189.4140  177.4650  142.6170 C   0  0  2  0  0  0  0  0  0  0  0  0
  187.7760  177.7380  137.0390 C   0  0  2  0  0  3  0  0  0  0  0  0
  189.6260  176.4140  137.8010 C   0  0  2  0  0  3  0  0  0  0  0  0
  191.0260  173.0980  136.8090 O   0  0  0  0  0  1  0  0  0  0  0  0
  190.7430  175.4370  137.4140 C   0  0  2  0  0  3  0  0  0  0  0  0
  192.4180  176.9810  139.8020 C   0  0  0  0  0  1  0  0  0  0  0  0
  185.3390  175.4380  137.0330 C   0  0  0  0  0  2  0  0  0  0  0  0
  188.5140  176.4230  136.7880 C   0  0  1  0  0  3  0  0  0  0  0  0
  191.0320  176.9590  140.4190 C   0  0  2  0  0  3  0  0  0  0  0  0
  191.5600  175.8300  136.1670 C   0  0  1  0  0  3  0  0  0  0  0  0
  190.8870  176.7650  135.3760 O   0  0  0  0  0  1  0  0  0  0  0  0
  192.9430  176.3430  136.5430 C   0  0  0  0  0  2  0  0  0  0  0  0
  193.8100  175.2520  136.9040 N   0  0  0  0  0  0  0  0  0  0  0  0
  194.7510  175.4380  137.6150 O   0  0  0  0  0  0  0  0  0  0  0  0
  1  4  1  0  0  0  0
  1  5  1  1  0  0  0
  2 18  1  0  0  0  0
  2 14  1  1  0  0  0
  2 12  1  0  0  0  0
  3 15  1  0  0  0  0
  3  9  1  0  0  0  0
  4  7  1  0  0  0  0
  5 10  1  0  0  0  0
  7 10  1  0  0  0  0
  7 25  1  0  0  0  0
  8 17  1  0  0  0  0
  9 21  1  0  0  0  0
 10  8  1  0  0  0  0
 11 17  1  0  0  0  0
 16 15  1  0  0  0  0
 16 23  1  0  0  0  0
 17  6  1  0  0  0  0
 17 13  1  0  0  0  0
 18  1  1  0  0  0  0
 19  4  1  0  0  0  0
 20  9  1  0  0  0  0
 21 19  1  0  0  0  0
 22 25  1  0  0  0  0
 23 12  1  0  0  0  0
 24 15  1  0  0  0  0
 24 18  1  0  0  0  0
 24 19  1  0  0  0  0
 25 11  1  0  0  0  0
 26 28  1  0  0  0  0
 26 21  1  0  0  0  0
 27 26  1  0  0  0  0
 28 29  1  0  0  0  0
 29 30  2  0  0  0  0
M  END
>  <MODEL>
1

>  <REMARK>
 VINA RESULT:      -5.9      0.000      0.000
  Name = 
  3 active torsions:
  status: ('A' for Active; 'I' for Inactive)
    1  A    between atoms: C_7  and  C_10
    2  A    between atoms: C_7  and  N_16
    3  A    between atoms: C_10  and  C_25
                            x       y       z     vdW  Elec       q    Type
                         _______ _______ _______ _____ _____    ______ ____

>  <TORSDO>
F 3

$$$$
=
 OpenBabel10272413583D

 30 34  0  0  1  0  0  0  0  0999 V2000
  186.5240  177.8930  136.8270 C   0  0  2  0  0  3  0  0  0  0  0  0
  188.7010  178.3330  138.2880 C   0  0  1  0  0  3  0  0  0  0  0  0
  185.3710  178.5080  141.4760 C   0  0  0  0  0  2  0  0  0  0  0  0
  185.0290  177.8640  137.1570 C   0  0  1  0  0  3  0  0  0  0  0  0
  187.0050  176.5700  136.6500 O   0  0  0  0  0  0  0  0  0  0  0  0
  185.0260  173.0730  137.9650 C   0  0  0  0  0  1  0  0  0  0  0  0
  184.6630  176.5030  136.6210 C   0  0  1  0  0  3  0  0  0  0  0  0
  185.9520  174.4540  136.0790 C   0  0  0  0  0  2  0  0  0  0  0  0
  184.0180  177.9690  140.9590 C   0  0  1  0  0  3  0  0  0  0  0  0
  185.9130  175.7270  136.9050 C   0  0  1  0  0  3  0  0  0  0  0  0
  183.1740  174.2300  136.2890 S   0  0  0  0  0  0  0  0  0  0  0  0
  188.9260  177.1670  139.2360 C   0  0  0  0  0  2  0  0  0  0  0  0
  184.9210  172.3480  135.7190 O   0  0  0  0  0  1  0  0  0  0  0  0
  189.4040  178.1290  137.0990 O   0  0  0  0  0  1  0  0  0  0  0  0
  186.5220  178.1100  140.5410 C   0  0  2  0  0  3  0  0  0  0  0  0
  187.8530  178.6080  141.0720 C   0  0  0  0  0  2  0  0  0  0  0  0
  184.8410  173.4900  136.5130 C   0  0  2  0  0  0  0  0  0  0  0  0
  187.2100  178.5910  138.0080 C   0  0  2  0  0  3  0  0  0  0  0  0
  185.0070  177.9190  138.6810 C   0  0  2  0  0  3  0  0  0  0  0  0
  182.9740  178.4150  141.7720 O   0  0  0  0  0  1  0  0  0  0  0  0
  183.7440  178.2870  139.4680 C   0  0  2  0  0  3  0  0  0  0  0  0
  182.2040  176.6420  137.0570 C   0  0  0  0  0  1  0  0  0  0  0  0
  188.9830  177.6480  140.6900 C   0  0  0  0  0  2  0  0  0  0  0  0
  186.2090  178.6850  139.1600 C   0  0  1  0  0  3  0  0  0  0  0  0
  183.4490  175.7880  137.2110 C   0  0  2  0  0  3  0  0  0  0  0  0
  183.2190  179.7190  139.2430 C   0  0  1  0  0  3  0  0  0  0  0  0
  184.2400  180.5940  138.8610 O   0  0  0  0  0  1  0  0  0  0  0  0
  182.0840  179.7450  138.2290 C   0  0  0  0  0  2  0  0  0  0  0  0
  180.8070  179.7590  138.8950 N   0  0  0  0  0  0  0  0  0  0  0  0
  180.7080  180.1860  140.0050 O   0  0  0  0  0  0  0  0  0  0  0  0
  1  5  1  1  0  0  0
  1  4  1  0  0  0  0
  1 18  1  0  0  0  0
  2 14  1  6  0  0  0
  2 12  1  0  0  0  0
  4 19  1  0  0  0  0
  5 10  1  0  0  0  0
  7 10  1  0  0  0  0
  7  4  1  0  0  0  0
  7 25  1  0  0  0  0
  8 17  1  0  0  0  0
  8 10  1  0  0  0  0
  9  3  1  0  0  0  0
  9 20  1  0  0  0  0
 11 17  1  0  0  0  0
 11 25  1  0  0  0  0
 12 23  1  0  0  0  0
 13 17  1  0  0  0  0
 15 16  1  0  0  0  0
 15  3  1  0  0  0  0
 17  6  1  0  0  0  0
 18  2  1  0  0  0  0
 18 24  1  0  0  0  0
 19 24  1  0  0  0  0
 19 21  1  0  0  0  0
 21  9  1  0  0  0  0
 22 25  1  0  0  0  0
 23 16  1  0  0  0  0
 24 15  1  0  0  0  0
 26 21  1  0  0  0  0
 27 26  1  0  0  0  0
 28 29  1  0  0  0  0
 28 26  1  0  0  0  0
 29 30  2  0  0  0  0
M  END
>  <MODEL>
2

>  <REMARK>
 VINA RESULT:      -5.4      4.317      7.915
  Name = 
  3 active torsions:
  status: ('A' for Active; 'I' for Inactive)
    1  A    between atoms: C_7  and  C_10
    2  A    between atoms: C_7  and  N_16
    3  A    between atoms: C_10  and  C_25
                            x       y       z     vdW  Elec       q    Type
                         _______ _______ _______ _____ _____    ______ ____

>  <TORSDO>
F 3

$$$$
=
 OpenBabel10272413583D

 30 34  0  0  1  0  0  0  0  0999 V2000
  186.5490  178.5730  137.9780 C   0  0  2  0  0  3  0  0  0  0  0  0
  183.9480  178.0390  138.0970 C   0  0  1  0  0  3  0  0  0  0  0  0
  185.7100  173.9160  137.0090 C   0  0  0  0  0  2  0  0  0  0  0  0
  187.7760  177.7330  137.6110 C   0  0  1  0  0  3  0  0  0  0  0  0
  186.4960  178.7600  139.3820 O   0  0  0  0  0  0  0  0  0  0  0  0
  188.6090  176.4480  142.2220 C   0  0  0  0  0  1  0  0  0  0  0  0
  188.6240  177.9480  138.8380 C   0  0  1  0  0  3  0  0  0  0  0  0
  188.1520  178.6810  141.1610 C   0  0  0  0  0  2  0  0  0  0  0  0
  187.2440  173.8560  137.1850 C   0  0  1  0  0  3  0  0  0  0  0  0
  187.5800  178.0420  139.9090 C   0  0  1  0  0  3  0  0  0  0  0  0
  190.6220  177.4740  140.6500 S   0  0  0  0  0  0  0  0  0  0  0  0
  183.6680  177.1090  139.2650 C   0  0  0  0  0  2  0  0  0  0  0  0
  189.7090  178.4140  142.9310 O   0  0  0  0  0  1  0  0  0  0  0  0
  183.8070  179.3700  138.4950 O   0  0  0  0  0  1  0  0  0  0  0  0
  185.1190  175.1490  137.7080 C   0  0  2  0  0  3  0  0  0  0  0  0
  183.6090  175.1850  137.5650 C   0  0  0  0  0  2  0  0  0  0  0  0
  189.2160  177.7760  141.7950 C   0  0  2  0  0  0  0  0  0  0  0  0
  185.3290  177.7980  137.4630 C   0  0  2  0  0  3  0  0  0  0  0  0
  187.2150  176.3170  137.5270 C   0  0  2  0  0  3  0  0  0  0  0  0
  187.7740  172.7800  136.4690 O   0  0  0  0  0  1  0  0  0  0  0  0
  187.9700  175.1780  136.8310 C   0  0  2  0  0  3  0  0  0  0  0  0
  190.6370  176.6860  138.0560 C   0  0  0  0  0  1  0  0  0  0  0  0
  182.9620  175.8340  138.7920 C   0  0  0  0  0  2  0  0  0  0  0  0
  185.7770  176.3840  137.0930 C   0  0  1  0  0  3  0  0  0  0  0  0
  189.6640  176.8900  139.2020 C   0  0  2  0  0  3  0  0  0  0  0  0
  188.1860  175.3600  135.3160 C   0  0  1  0  0  3  0  0  0  0  0  0
  187.9340  176.6720  134.9070 O   0  0  0  0  0  1  0  0  0  0  0  0
  189.5840  174.9280  134.8940 C   0  0  0  0  0  2  0  0  0  0  0  0
  190.3470  176.0550  134.4270 N   0  0  0  0  0  0  0  0  0  0  0  0
  191.5020  176.1630  134.7080 O   0  0  0  0  0  0  0  0  0  0  0  0
  1  5  1  1  0  0  0
  2 14  1  1  0  0  0
  2 12  1  0  0  0  0
  3  9  1  0  0  0  0
  3 15  1  0  0  0  0
  4  1  1  0  0  0  0
  4  7  1  0  0  0  0
  5 10  1  0  0  0  0
  7 25  1  0  0  0  0
  7 10  1  0  0  0  0
  8 17  1  0  0  0  0
 10  8  1  0  0  0  0
 11 17  1  0  0  0  0
 16 15  1  0  0  0  0
 16 23  1  0  0  0  0
 17  6  1  0  0  0  0
 17 13  1  0  0  0  0
 18  1  1  0  0  0  0
 18  2  1  0  0  0  0
 19  4  1  0  0  0  0
 20  9  1  0  0  0  0
 21  9  1  0  0  0  0
 21 19  1  0  0  0  0
 22 25  1  0  0  0  0
 23 12  1  0  0  0  0
 24 18  1  0  0  0  0
 24 19  1  0  0  0  0
 24 15  1  0  0  0  0
 25 11  1  0  0  0  0
 26 21  1  0  0  0  0
 27 26  1  0  0  0  0
 28 26  1  0  0  0  0
 29 30  2  0  0  0  0
 29 28  1  0  0  0  0
M  END
>  <MODEL>
3

>  <REMARK>
 VINA RESULT:      -5.3      1.910      2.632
  Name = 
  3 active torsions:
  status: ('A' for Active; 'I' for Inactive)
    1  A    between atoms: C_7  and  C_10
    2  A    between atoms: C_7  and  N_16
    3  A    between atoms: C_10  and  C_25
                            x       y       z     vdW  Elec       q    Type
                         _______ _______ _______ _____ _____    ______ ____

>  <TORSDO>
F 3

$$$$
=
 OpenBabel10272413583D

 30 34  0  0  1  0  0  0  0  0999 V2000
  189.8190  175.8840  135.0760 C   0  0  2  0  0  3  0  0  0  0  0  0
  192.4140  175.8720  135.6540 C   0  0  1  0  0  3  0  0  0  0  0  0
  190.5520  177.1030  139.6920 C   0  0  0  0  0  2  0  0  0  0  0  0
  188.5680  176.2530  135.8790 C   0  0  1  0  0  3  0  0  0  0  0  0
  189.9180  174.4750  134.9580 O   0  0  0  0  0  0  0  0  0  0  0  0
  187.8540  171.6870  137.3750 C   0  0  0  0  0  1  0  0  0  0  0  0
  187.7610  174.9910  135.7110 C   0  0  1  0  0  3  0  0  0  0  0  0
  188.3150  172.6520  135.1000 C   0  0  0  0  0  2  0  0  0  0  0  0
  189.0230  176.8830  139.7380 C   0  0  1  0  0  3  0  0  0  0  0  0
  188.8390  173.9510  135.6850 C   0  0  1  0  0  3  0  0  0  0  0  0
  185.8120  173.1440  136.2430 S   0  0  0  0  0  0  0  0  0  0  0  0
  192.7130  174.7590  136.6440 C   0  0  0  0  0  2  0  0  0  0  0  0
  186.8080  170.8490  135.4300 O   0  0  0  0  0  1  0  0  0  0  0  0
  192.5890  175.4140  134.3470 O   0  0  0  0  0  1  0  0  0  0  0  0
  191.1840  176.3640  138.5040 C   0  0  2  0  0  3  0  0  0  0  0  0
  192.6900  176.5520  138.4830 C   0  0  0  0  0  2  0  0  0  0  0  0
  187.2560  172.0300  136.0190 C   0  0  2  0  0  0  0  0  0  0  0  0
  191.0100  176.4730  135.8430 C   0  0  2  0  0  3  0  0  0  0  0  0
  189.1030  176.4230  137.2980 C   0  0  2  0  0  3  0  0  0  0  0  0
  188.4540  177.6330  140.7690 O   0  0  0  0  0  1  0  0  0  0  0  0
  188.3090  177.1500  138.3900 C   0  0  2  0  0  3  0  0  0  0  0  0
  185.7050  175.7710  136.9040 C   0  0  0  0  0  1  0  0  0  0  0  0
  193.3830  175.3150  137.9050 C   0  0  0  0  0  2  0  0  0  0  0  0
  190.5280  176.8980  137.2300 C   0  0  1  0  0  3  0  0  0  0  0  0
  186.7160  174.6470  136.7700 C   0  0  2  0  0  3  0  0  0  0  0  0
  188.0500  178.6470  138.1300 C   0  0  1  0  0  3  0  0  0  0  0  0
  188.9230  179.1700  137.1730 O   0  0  0  0  0  1  0  0  0  0  0  0
  186.6030  178.9030  137.7310 C   0  0  0  0  0  2  0  0  0  0  0  0
  185.7160  178.6390  138.8340 N   0  0  0  0  0  0  0  0  0  0  0  0
  185.2140  179.5400  139.4360 O   0  0  0  0  0  0  0  0  0  0  0  0
  1  5  1  1  0  0  0
  1 18  1  0  0  0  0
  1  4  1  0  0  0  0
  2 14  1  6  0  0  0
  2 18  1  0  0  0  0
  2 12  1  0  0  0  0
  3  9  1  0  0  0  0
  4 19  1  0  0  0  0
  5 10  1  0  0  0  0
  7  4  1  0  0  0  0
  7 25  1  0  0  0  0
  8 10  1  0  0  0  0
  8 17  1  0  0  0  0
  9 20  1  0  0  0  0
 10  7  1  0  0  0  0
 11 25  1  0  0  0  0
 12 23  1  0  0  0  0
 13 17  1  0  0  0  0
 15  3  1  0  0  0  0
 16 15  1  0  0  0  0
 17 11  1  0  0  0  0
 17  6  1  0  0  0  0
 18 24  1  0  0  0  0
 19 21  1  0  0  0  0
 21  9  1  0  0  0  0
 23 16  1  0  0  0  0
 24 19  1  0  0  0  0
 24 15  1  0  0  0  0
 25 22  1  0  0  0  0
 26 21  1  0  0  0  0
 27 26  1  0  0  0  0
 28 26  1  0  0  0  0
 28 29  1  0  0  0  0
 29 30  2  0  0  0  0
M  END
>  <MODEL>
4

>  <REMARK>
 VINA RESULT:      -5.1      2.941      6.634
  Name = 
  3 active torsions:
  status: ('A' for Active; 'I' for Inactive)
    1  A    between atoms: C_7  and  C_10
    2  A    between atoms: C_7  and  N_16
    3  A    between atoms: C_10  and  C_25
                            x       y       z     vdW  Elec       q    Type
                         _______ _______ _______ _____ _____    ______ ____

>  <TORSDO>
F 3

$$$$
=
 OpenBabel10272413583D

 30 34  0  0  1  0  0  0  0  0999 V2000
  189.3320  177.5240  137.7970 C   0  0  2  0  0  3  0  0  0  0  0  0
  187.6440  175.9330  136.4990 C   0  0  1  0  0  3  0  0  0  0  0  0
  191.4390  173.3170  136.7080 C   0  0  0  0  0  2  0  0  0  0  0  0
  190.8060  177.3910  138.1900 C   0  0  1  0  0  3  0  0  0  0  0  0
  188.5100  177.3380  138.9370 O   0  0  0  0  0  0  0  0  0  0  0  0
  189.7510  175.5390  142.5560 C   0  0  0  0  0  1  0  0  0  0  0  0
  190.7120  177.6500  139.6720 C   0  0  1  0  0  3  0  0  0  0  0  0
  188.8710  177.5510  141.3320 C   0  0  0  0  0  2  0  0  0  0  0  0
  192.4940  173.8690  137.6940 C   0  0  1  0  0  3  0  0  0  0  0  0
  189.3810  177.0420  139.9960 C   0  0  1  0  0  3  0  0  0  0  0  0
  191.4930  177.6540  142.2970 S   0  0  0  0  0  0  0  0  0  0  0  0
  187.3120  174.7270  137.3620 C   0  0  0  0  0  2  0  0  0  0  0  0
  189.2540  177.5590  143.6730 O   0  0  0  0  0  1  0  0  0  0  0  0
  186.7060  176.9460  136.7050 O   0  0  0  0  0  1  0  0  0  0  0  0
  190.0730  173.9850  136.9230 C   0  0  2  0  0  3  0  0  0  0  0  0
  189.0320  173.4130  135.9800 C   0  0  0  0  0  2  0  0  0  0  0  0
  189.7630  177.0580  142.4780 C   0  0  2  0  0  0  0  0  0  0  0  0
  189.0740  176.4510  136.7310 C   0  0  2  0  0  3  0  0  0  0  0  0
  191.1210  175.9330  137.8700 C   0  0  2  0  0  3  0  0  0  0  0  0
  193.7470  173.3180  137.4250 O   0  0  0  0  0  1  0  0  0  0  0  0
  192.5590  175.4160  137.7410 C   0  0  2  0  0  3  0  0  0  0  0  0
  193.1630  177.5750  140.1630 C   0  0  0  0  0  1  0  0  0  0  0  0
  187.6460  173.4220  136.6310 C   0  0  0  0  0  2  0  0  0  0  0  0
  190.2610  175.4880  136.7200 C   0  0  1  0  0  3  0  0  0  0  0  0
  191.7940  177.0760  140.5840 C   0  0  2  0  0  3  0  0  0  0  0  0
  193.3770  176.0210  136.5830 C   0  0  1  0  0  3  0  0  0  0  0  0
  193.8990  177.2750  136.9120 O   0  0  0  0  0  1  0  0  0  0  0  0
  194.4870  175.0820  136.1310 C   0  0  0  0  0  2  0  0  0  0  0  0
  195.7790  175.6660  136.3760 N   0  0  0  0  0  0  0  0  0  0  0  0
  196.5310  175.1660  137.1570 O   0  0  0  0  0  0  0  0  0  0  0  0
  1  4  1  0  0  0  0
  1  5  1  1  0  0  0
  2 14  1  1  0  0  0
  2 18  1  0  0  0  0
  2 12  1  0  0  0  0
  3 15  1  0  0  0  0
  3  9  1  0  0  0  0
  4  7  1  0  0  0  0
  5 10  1  0  0  0  0
  7 10  1  0  0  0  0
  7 25  1  0  0  0  0
  8 17  1  0  0  0  0
  9 21  1  0  0  0  0
 10  8  1  0  0  0  0
 11 17  1  0  0  0  0
 16 23  1  0  0  0  0
 16 15  1  0  0  0  0
 17  6  1  0  0  0  0
 17 13  1  0  0  0  0
 18  1  1  0  0  0  0
 19  4  1  0  0  0  0
 20  9  1  0  0  0  0
 21 19  1  0  0  0  0
 22 25  1  0  0  0  0
 23 12  1  0  0  0  0
 24 18  1  0  0  0  0
 24 15  1  0  0  0  0
 24 19  1  0  0  0  0
 25 11  1  0  0  0  0
 26 27  1  0  0  0  0
 26 21  1  0  0  0  0
 28 29  1  0  0  0  0
 28 26  1  0  0  0  0
 29 30  2  0  0  0  0
M  END
>  <MODEL>
5

>  <REMARK>
 VINA RESULT:      -4.8      1.540      1.960
  Name = 
  3 active torsions:
  status: ('A' for Active; 'I' for Inactive)
    1  A    between atoms: C_7  and  C_10
    2  A    between atoms: C_7  and  N_16
    3  A    between atoms: C_10  and  C_25
                            x       y       z     vdW  Elec       q    Type
                         _______ _______ _______ _____ _____    ______ ____

>  <TORSDO>
F 3

$$$$
=
 OpenBabel10272413583D

 30 34  0  0  1  0  0  0  0  0999 V2000
  185.8630  178.7780  138.3350 C   0  0  2  0  0  3  0  0  0  0  0  0
  183.2970  178.2860  138.8210 C   0  0  1  0  0  3  0  0  0  0  0  0
  184.7900  174.1710  137.3610 C   0  0  0  0  0  2  0  0  0  0  0  0
  187.0040  177.9290  137.7660 C   0  0  1  0  0  3  0  0  0  0  0  0
  186.0220  178.9200  139.7370 O   0  0  0  0  0  0  0  0  0  0  0  0
  188.4790  176.4800  142.1620 C   0  0  0  0  0  1  0  0  0  0  0  0
  188.0290  178.0900  138.8600 C   0  0  1  0  0  3  0  0  0  0  0  0
  187.9200  178.7540  141.2480 C   0  0  0  0  0  2  0  0  0  0  0  0
  186.3310  174.0790  137.3070 C   0  0  1  0  0  3  0  0  0  0  0  0
  187.1560  178.1660  140.0750 C   0  0  1  0  0  3  0  0  0  0  0  0
  190.2600  177.5220  140.3420 S   0  0  0  0  0  0  0  0  0  0  0  0
  183.1730  177.3220  139.9890 C   0  0  0  0  0  2  0  0  0  0  0  0
  189.7140  178.4020  142.7600 O   0  0  0  0  0  1  0  0  0  0  0  0
  183.2450  179.6050  139.2760 O   0  0  0  0  0  1  0  0  0  0  0  0
  184.3340  175.3900  138.1770 C   0  0  2  0  0  3  0  0  0  0  0  0
  182.8210  175.4570  138.2600 C   0  0  0  0  0  2  0  0  0  0  0  0
  189.0450  177.8100  141.6900 C   0  0  2  0  0  0  0  0  0  0  0  0
  184.5650  178.0420  137.9840 C   0  0  2  0  0  3  0  0  0  0  0  0
  186.4070  176.5270  137.7240 C   0  0  2  0  0  3  0  0  0  0  0  0
  186.7260  173.0180  136.4890 O   0  0  0  0  0  1  0  0  0  0  0  0
  187.0250  175.3990  136.8890 C   0  0  2  0  0  3  0  0  0  0  0  0
  189.8760  176.8190  137.7510 C   0  0  0  0  0  1  0  0  0  0  0  0
  182.3770  176.0760  139.5880 C   0  0  0  0  0  2  0  0  0  0  0  0
  184.9220  176.6330  137.5090 C   0  0  1  0  0  3  0  0  0  0  0  0
  189.0870  177.0030  139.0340 C   0  0  2  0  0  3  0  0  0  0  0  0
  187.0200  175.6270  135.3650 C   0  0  1  0  0  3  0  0  0  0  0  0
  188.1010  175.0000  134.7400 O   0  0  0  0  0  1  0  0  0  0  0  0
  185.7070  175.1820  134.7360 C   0  0  0  0  0  2  0  0  0  0  0  0
  184.9170  176.3200  134.3460 N   0  0  0  0  0  0  0  0  0  0  0  0
  185.3930  177.4160  134.3460 O   0  0  0  0  0  0  0  0  0  0  0  0
  1  5  1  1  0  0  0
  2 14  1  1  0  0  0
  2 12  1  0  0  0  0
  3 15  1  0  0  0  0
  4  1  1  0  0  0  0
  4  7  1  0  0  0  0
  5 10  1  0  0  0  0
  7 25  1  0  0  0  0
  7 10  1  0  0  0  0
  8 17  1  0  0  0  0
  9  3  1  0  0  0  0
 10  8  1  0  0  0  0
 11 17  1  0  0  0  0
 15 16  1  0  0  0  0
 16 23  1  0  0  0  0
 17  6  1  0  0  0  0
 17 13  1  0  0  0  0
 18  1  1  0  0  0  0
 18  2  1  0  0  0  0
 19  4  1  0  0  0  0
 20  9  1  0  0  0  0
 21  9  1  0  0  0  0
 21 19  1  0  0  0  0
 22 25  1  0  0  0  0
 23 12  1  0  0  0  0
 24 19  1  0  0  0  0
 24 18  1  0  0  0  0
 24 15  1  0  0  0  0
 25 11  1  0  0  0  0
 26 21  1  0  0  0  0
 27 26  1  0  0  0  0
 28 26  1  0  0  0  0
 29 28  1  0  0  0  0
 30 29  2  0  0  0  0
M  END
>  <MODEL>
6

>  <REMARK>
 VINA RESULT:      -4.4      2.893      4.126
  Name = 
  3 active torsions:
  status: ('A' for Active; 'I' for Inactive)
    1  A    between atoms: C_7  and  C_10
    2  A    between atoms: C_7  and  N_16
    3  A    between atoms: C_10  and  C_25
                            x       y       z     vdW  Elec       q    Type
                         _______ _______ _______ _____ _____    ______ ____

>  <TORSDO>
F 3

$$$$
=
 OpenBabel10272413583D

 30 34  0  0  1  0  0  0  0  0999 V2000
  186.5240  177.5670  136.3830 C   0  0  2  0  0  3  0  0  0  0  0  0
  188.2090  178.5150  138.2070 C   0  0  1  0  0  3  0  0  0  0  0  0
  184.2490  178.3600  140.5690 C   0  0  0  0  0  2  0  0  0  0  0  0
  185.0160  177.2980  136.3880 C   0  0  1  0  0  3  0  0  0  0  0  0
  187.2330  176.3420  136.4770 O   0  0  0  0  0  0  0  0  0  0  0  0
  185.5750  172.6720  137.7630 C   0  0  0  0  0  1  0  0  0  0  0  0
  185.0010  175.8520  135.9600 C   0  0  1  0  0  3  0  0  0  0  0  0
  186.6840  174.0300  135.9620 C   0  0  0  0  0  2  0  0  0  0  0  0
  183.1530  177.5450  139.8470 C   0  0  1  0  0  3  0  0  0  0  0  0
  186.2570  175.3410  136.5970 C   0  0  1  0  0  3  0  0  0  0  0  0
  184.0020  173.3280  135.6020 S   0  0  0  0  0  0  0  0  0  0  0  0
  188.3890  177.4940  139.3180 C   0  0  0  0  0  2  0  0  0  0  0  0
  186.1050  171.7500  135.6540 O   0  0  0  0  0  1  0  0  0  0  0  0
  189.1900  178.3400  137.2290 O   0  0  0  0  0  1  0  0  0  0  0  0
  185.6320  178.0970  139.9560 C   0  0  2  0  0  3  0  0  0  0  0  0
  186.7100  178.8700  140.6910 C   0  0  0  0  0  2  0  0  0  0  0  0
  185.6670  172.9230  136.2660 C   0  0  2  0  0  0  0  0  0  0  0  0
  186.8010  178.4760  137.5870 C   0  0  2  0  0  3  0  0  0  0  0  0
  184.6360  177.4790  137.8540 C   0  0  2  0  0  3  0  0  0  0  0  0
  181.8930  177.8630  140.3580 O   0  0  0  0  0  1  0  0  0  0  0  0
  183.1830  177.6790  138.3040 C   0  0  2  0  0  3  0  0  0  0  0  0
  182.5170  175.5840  135.8430 C   0  0  0  0  0  1  0  0  0  0  0  0
  188.0340  178.1000  140.6800 C   0  0  0  0  0  2  0  0  0  0  0  0
  185.5600  178.4870  138.4790 C   0  0  1  0  0  3  0  0  0  0  0  0
  183.8100  174.9840  136.3620 C   0  0  2  0  0  3  0  0  0  0  0  0
  182.5080  178.9690  137.7970 C   0  0  1  0  0  3  0  0  0  0  0  0
  181.1790  178.7500  137.4260 O   0  0  0  0  0  1  0  0  0  0  0  0
  182.5990  180.0890  138.8240 C   0  0  0  0  0  2  0  0  0  0  0  0
  181.5230  181.0290  138.6490 N   0  0  0  0  0  0  0  0  0  0  0  0
  181.7530  182.1770  138.4190 O   0  0  0  0  0  0  0  0  0  0  0  0
  1  4  1  0  0  0  0
  1  5  1  1  0  0  0
  1 18  1  0  0  0  0
  2 14  1  6  0  0  0
  2 12  1  0  0  0  0
  4 19  1  0  0  0  0
  5 10  1  0  0  0  0
  7 25  1  0  0  0  0
  7  4  1  0  0  0  0
  7 10  1  0  0  0  0
  8 17  1  0  0  0  0
  8 10  1  0  0  0  0
  9 20  1  0  0  0  0
  9  3  1  0  0  0  0
 11 17  1  0  0  0  0
 11 25  1  0  0  0  0
 12 23  1  0  0  0  0
 13 17  1  0  0  0  0
 15  3  1  0  0  0  0
 15 16  1  0  0  0  0
 17  6  1  0  0  0  0
 18  2  1  0  0  0  0
 18 24  1  0  0  0  0
 19 21  1  0  0  0  0
 19 24  1  0  0  0  0
 21  9  1  0  0  0  0
 22 25  1  0  0  0  0
 23 16  1  0  0  0  0
 24 15  1  0  0  0  0
 26 21  1  0  0  0  0
 26 28  1  0  0  0  0
 27 26  1  0  0  0  0
 29 28  1  0  0  0  0
 30 29  2  0  0  0  0
M  END
>  <MODEL>
7

>  <REMARK>
 VINA RESULT:      -4.3      4.416      7.962
  Name = 
  3 active torsions:
  status: ('A' for Active; 'I' for Inactive)
    1  A    between atoms: C_7  and  C_10
    2  A    between atoms: C_7  and  N_16
    3  A    between atoms: C_10  and  C_25
                            x       y       z     vdW  Elec       q    Type
                         _______ _______ _______ _____ _____    ______ ____

>  <TORSDO>
F 3

$$$$
=
 OpenBabel10272413583D

 30 34  0  0  1  0  0  0  0  0999 V2000
  182.4990  176.4630  135.2810 C   0  0  2  0  0  3  0  0  0  0  0  0
  180.8530  174.4140  134.8880 C   0  0  1  0  0  3  0  0  0  0  0  0
  184.3720  172.3920  137.0820 C   0  0  0  0  0  2  0  0  0  0  0  0
  183.9010  176.5810  135.8880 C   0  0  1  0  0  3  0  0  0  0  0  0
  181.5350  176.9620  136.1950 O   0  0  0  0  0  0  0  0  0  0  0  0
  182.1890  177.5580  140.3290 C   0  0  0  0  0  1  0  0  0  0  0  0
  183.6520  177.6410  136.9300 C   0  0  1  0  0  3  0  0  0  0  0  0
  181.6260  178.5070  138.0700 C   0  0  0  0  0  2  0  0  0  0  0  0
  185.3440  173.4110  137.7210 C   0  0  1  0  0  3  0  0  0  0  0  0
  182.2480  177.3260  137.3470 C   0  0  1  0  0  3  0  0  0  0  0  0
  184.1150  179.1460  139.1700 S   0  0  0  0  0  0  0  0  0  0  0  0
  180.3240  173.9180  136.2230 C   0  0  0  0  0  2  0  0  0  0  0  0
  181.7290  179.8540  140.0200 O   0  0  0  0  0  1  0  0  0  0  0  0
  179.9820  175.3610  134.3460 O   0  0  0  0  0  1  0  0  0  0  0  0
  183.0490  173.0610  136.6830 C   0  0  2  0  0  3  0  0  0  0  0  0
  182.0840  172.0520  136.0920 C   0  0  0  0  0  2  0  0  0  0  0  0
  182.3340  178.7590  139.4070 C   0  0  2  0  0  0  0  0  0  0  0  0
  182.2830  174.9740  134.9870 C   0  0  2  0  0  3  0  0  0  0  0  0
  184.1320  175.2020  136.4980 C   0  0  2  0  0  3  0  0  0  0  0  0
  186.5720  172.8060  137.9950 O   0  0  0  0  0  1  0  0  0  0  0  0
  185.5280  174.7060  136.8930 C   0  0  2  0  0  3  0  0  0  0  0  0
  186.0150  177.8630  137.7230 C   0  0  0  0  0  1  0  0  0  0  0  0
  180.6360  172.4300  136.4160 C   0  0  0  0  0  2  0  0  0  0  0  0
  183.3810  174.1780  135.6940 C   0  0  1  0  0  3  0  0  0  0  0  0
  184.5690  177.6940  138.1510 C   0  0  2  0  0  3  0  0  0  0  0  0
  186.5240  174.5410  135.7280 C   0  0  1  0  0  3  0  0  0  0  0  0
  185.8930  174.6440  134.4850 O   0  0  0  0  0  1  0  0  0  0  0  0
  187.6730  175.5350  135.8280 C   0  0  0  0  0  2  0  0  0  0  0  0
  188.6040  175.1350  136.8510 N   0  0  0  0  0  0  0  0  0  0  0  0
  188.8990  175.8880  137.7290 O   0  0  0  0  0  0  0  0  0  0  0  0
  1  4  1  0  0  0  0
  1  5  1  1  0  0  0
  2 14  1  1  0  0  0
  2 18  1  0  0  0  0
  2 12  1  0  0  0  0
  3  9  1  0  0  0  0
  4 19  1  0  0  0  0
  4  7  1  0  0  0  0
  5 10  1  0  0  0  0
  7 10  1  0  0  0  0
  7 25  1  0  0  0  0
  8 17  1  0  0  0  0
  9 20  1  0  0  0  0
 10  8  1  0  0  0  0
 11 17  1  0  0  0  0
 12 23  1  0  0  0  0
 15  3  1  0  0  0  0
 16 23  1  0  0  0  0
 16 15  1  0  0  0  0
 17 13  1  0  0  0  0
 17  6  1  0  0  0  0
 18  1  1  0  0  0  0
 18 24  1  0  0  0  0
 19 21  1  0  0  0  0
 21  9  1  0  0  0  0
 22 25  1  0  0  0  0
 24 19  1  0  0  0  0
 24 15  1  0  0  0  0
 25 11  1  0  0  0  0
 26 28  1  0  0  0  0
 26 21  1  0  0  0  0
 27 26  1  0  0  0  0
 28 29  1  0  0  0  0
 29 30  2  0  0  0  0
M  END
>  <MODEL>
8

>  <REMARK>
 VINA RESULT:      -4.2      4.220      6.403
  Name = 
  3 active torsions:
  status: ('A' for Active; 'I' for Inactive)
    1  A    between atoms: C_7  and  C_10
    2  A    between atoms: C_7  and  N_16
    3  A    between atoms: C_10  and  C_25
                            x       y       z     vdW  Elec       q    Type
                         _______ _______ _______ _____ _____    ______ ____

>  <TORSDO>
F 3

$$$$
=
 OpenBabel10272413583D

 30 34  0  0  1  0  0  0  0  0999 V2000
  182.8560  175.9270  137.9450 C   0  0  2  0  0  3  0  0  0  0  0  0
  181.1610  175.7690  135.9030 C   0  0  1  0  0  3  0  0  0  0  0  0
  180.6730  180.1700  137.2000 C   0  0  0  0  0  2  0  0  0  0  0  0
  183.2090  177.0440  138.9310 C   0  0  1  0  0  3  0  0  0  0  0  0
  183.8960  175.7790  136.9920 O   0  0  0  0  0  0  0  0  0  0  0  0
  186.8940  178.6540  136.2050 C   0  0  0  0  0  1  0  0  0  0  0  0
  184.7040  177.0980  138.7510 C   0  0  1  0  0  3  0  0  0  0  0  0
  186.2610  176.3450  136.9720 C   0  0  0  0  0  2  0  0  0  0  0  0
  181.7790  180.6330  138.1750 C   0  0  1  0  0  3  0  0  0  0  0  0
  184.8400  176.7710  137.2950 C   0  0  1  0  0  3  0  0  0  0  0  0
  187.2350  178.1350  138.8860 S   0  0  0  0  0  0  0  0  0  0  0  0
  181.6590  176.6330  134.7570 C   0  0  0  0  0  2  0  0  0  0  0  0
  188.5180  177.0670  136.8530 O   0  0  0  0  0  1  0  0  0  0  0  0
  181.6300  174.4620  135.7600 O   0  0  0  0  0  1  0  0  0  0  0  0
  181.0530  178.8500  136.5140 C   0  0  2  0  0  3  0  0  0  0  0  0
  179.9820  178.4180  135.5310 C   0  0  0  0  0  2  0  0  0  0  0  0
  187.2340  177.5160  137.1550 C   0  0  2  0  0  0  0  0  0  0  0  0
  181.5360  176.3400  137.2820 C   0  0  2  0  0  3  0  0  0  0  0  0
  182.5040  178.2620  138.3420 C   0  0  2  0  0  3  0  0  0  0  0  0
  181.3790  181.7850  138.8540 O   0  0  0  0  0  1  0  0  0  0  0  0
  182.2490  179.5340  139.1600 C   0  0  2  0  0  3  0  0  0  0  0  0
  185.1720  178.8140  140.5100 C   0  0  0  0  0  1  0  0  0  0  0  0
  180.6010  177.6650  134.3500 C   0  0  0  0  0  2  0  0  0  0  0  0
  181.2700  177.8090  137.6130 C   0  0  1  0  0  3  0  0  0  0  0  0
  185.4320  178.4010  139.0730 C   0  0  2  0  0  3  0  0  0  0  0  0
  181.3060  179.3640  140.3680 C   0  0  1  0  0  3  0  0  0  0  0  0
  180.0780  178.8110  139.9970 O   0  0  0  0  0  1  0  0  0  0  0  0
  181.9530  178.5390  141.4710 C   0  0  0  0  0  2  0  0  0  0  0  0
  181.9350  179.2550  142.7200 N   0  0  0  0  0  0  0  0  0  0  0  0
  182.6410  178.9160  143.6220 O   0  0  0  0  0  0  0  0  0  0  0  0
  1  5  1  6  0  0  0
  1  4  1  0  0  0  0
  2 14  1  6  0  0  0
  2 18  1  0  0  0  0
  3  9  1  0  0  0  0
  5 10  1  0  0  0  0
  6 17  1  0  0  0  0
  7  4  1  0  0  0  0
  7 25  1  0  0  0  0
  8 17  1  0  0  0  0
  8 10  1  0  0  0  0
  9 20  1  0  0  0  0
  9 21  1  0  0  0  0
 10  7  1  0  0  0  0
 11 25  1  0  0  0  0
 12  2  1  0  0  0  0
 13 17  1  0  0  0  0
 15  3  1  0  0  0  0
 15 24  1  0  0  0  0
 16 15  1  0  0  0  0
 17 11  1  0  0  0  0
 18 24  1  0  0  0  0
 18  1  1  0  0  0  0
 19  4  1  0  0  0  0
 19 21  1  0  0  0  0
 21 26  1  0  0  0  0
 23 12  1  0  0  0  0
 23 16  1  0  0  0  0
 24 19  1  0  0  0  0
 25 22  1  0  0  0  0
 26 28  1  0  0  0  0
 27 26  1  0  0  0  0
 28 29  1  0  0  0  0
 29 30  2  0  0  0  0
M  END
>  <MODEL>
9

>  <REMARK>
 VINA RESULT:      -3.8      5.059      8.470
  Name = 
  3 active torsions:
  status: ('A' for Active; 'I' for Inactive)
    1  A    between atoms: C_7  and  C_10
    2  A    between atoms: C_7  and  N_16
    3  A    between atoms: C_10  and  C_25
                            x       y       z     vdW  Elec       q    Type
                         _______ _______ _______ _____ _____    ______ ____

>  <TORSDO>
F 3

$$$$
