=
 OpenBabel10272400023D

 34 40  0  0  1  0  0  0  0  0999 V2000
  184.3950  178.0300  139.7610 C   0  0  0  0  0  0  0  0  0  0  0  0
  186.2770  178.8330  141.1980 C   0  0  0  0  0  0  0  0  0  0  0  0
  186.6430  178.3660  138.8480 N   0  0  0  0  0  0  0  0  0  0  0  0
  188.5400  177.9090  137.6810 C   0  0  1  0  0  3  0  0  0  0  0  0
  184.0820  178.2560  142.1470 C   0  0  0  0  0  3  0  0  0  0  0  0
  185.5120  178.6140  142.2750 C   0  0  0  0  0  3  0  0  0  0  0  0
  188.6930  178.5300  139.9760 C   0  0  1  0  0  3  0  0  0  0  0  0
  185.6740  178.8570  139.8210 C   0  0  1  0  0  3  0  0  0  0  0  0
  189.4420  176.5180  138.4740 S   0  0  0  0  0  0  0  0  0  0  0  0
  183.5450  177.9750  140.9570 C   0  0  0  0  0  3  0  0  0  0  0  0
  186.2790  177.6040  137.7320 C   0  0  0  0  0  0  0  0  0  0  0  0
  184.1000  177.2600  138.7010 C   0  0  0  0  0  3  0  0  0  0  0  0
  187.9660  179.3890  141.4300 S   0  0  0  0  0  0  0  0  0  0  0  0
  187.4040  177.3700  136.9250 N   0  0  0  0  0  0  0  0  0  0  0  0
  188.9050  177.0470  140.1220 C   0  0  1  0  0  3  0  0  0  0  0  0
  187.9770  178.8020  138.7320 N   0  0  2  0  0  0  0  0  0  0  0  0
  185.0690  177.0610  137.6040 C   0  0  0  0  0  3  0  0  0  0  0  0
  188.3320  176.3910  142.9520 C   0  0  0  0  0  2  0  0  0  0  0  0
  188.2360  177.1570  144.2700 C   0  0  0  0  0  2  0  0  0  0  0  0
  189.7310  176.4860  142.4090 C   0  0  0  0  0  0  0  0  0  0  0  0
  189.3170  176.6940  145.2460 C   0  0  1  0  0  3  0  0  0  0  0  0
  189.9820  176.7680  141.1250 C   0  0  0  0  0  3  0  0  0  0  0  0
  190.7040  176.9370  144.6450 C   0  0  1  0  0  3  0  0  0  0  0  0
  191.6800  176.5290  145.5350 F   0  0  0  0  0  0  0  0  0  0  0  0
  190.8700  176.1750  143.3310 C   0  0  0  0  0  2  0  0  0  0  0  0
  189.1920  177.3970  146.4290 F   0  0  0  0  0  0  0  0  0  0  0  0
  187.4900  176.4630  135.7900 C   0  0  0  0  0  2  0  0  0  0  0  0
  186.2170  173.1540  137.1150 C   0  0  0  0  0  0  0  0  0  0  0  0
  187.3820  172.3810  137.0930 C   0  0  0  0  0  3  0  0  0  0  0  0
  187.4580  175.0510  136.2610 C   0  0  0  0  0  0  0  0  0  0  0  0
  188.5840  172.9430  136.6520 C   0  0  0  0  0  3  0  0  0  0  0  0
  186.2530  174.4870  136.6970 C   0  0  0  0  0  3  0  0  0  0  0  0
  188.6210  174.2760  136.2330 C   0  0  0  0  0  3  0  0  0  0  0  0
  184.7100  172.4510  137.6600 Cl  0  0  0  0  0  0  0  0  0  0  0  0
  1 10  1  0  0  0  0
  2 13  1  0  0  0  0
  2  6  2  0  0  0  0
  3  8  1  0  0  0  0
  4  9  1  1  0  0  0
  4 16  1  0  0  0  0
  5  6  1  0  0  0  0
  7 15  1  0  0  0  0
  7 13  1  1  0  0  0
  8  1  1  1  0  0  0
  8  2  1  0  0  0  0
  9 15  1  0  0  0  0
 10  5  2  0  0  0  0
 11  3  1  0  0  0  0
 12  1  2  0  0  0  0
 14  4  1  0  0  0  0
 14 11  1  0  0  0  0
 15 22  1  1  0  0  0
 16  3  1  1  0  0  0
 16  7  1  0  0  0  0
 17 11  2  0  0  0  0
 17 12  1  0  0  0  0
 18 19  1  0  0  0  0
 19 21  1  0  0  0  0
 20 18  1  0  0  0  0
 20 25  1  0  0  0  0
 21 26  1  1  0  0  0
 22 20  2  0  0  0  0
 23 21  1  0  0  0  0
 23 24  1  1  0  0  0
 25 23  1  0  0  0  0
 27 30  1  0  0  0  0
 27 14  1  0  0  0  0
 28 34  1  0  0  0  0
 29 28  1  0  0  0  0
 30 32  1  0  0  0  0
 31 29  2  0  0  0  0
 32 28  2  0  0  0  0
 33 30  2  0  0  0  0
 33 31  1  0  0  0  0
M  END
>  <MODEL>
1

>  <REMARK>
 VINA RESULT:      -8.1      0.000      0.000
  Name = 
  3 active torsions:
  status: ('A' for Active; 'I' for Inactive)
    1  A    between atoms: C_12  and  C_28
    2  A    between atoms: C_17  and  C_29
    3  A    between atoms: N_26  and  C_28
                            x       y       z     vdW  Elec       q    Type
                         _______ _______ _______ _____ _____    ______ ____

>  <TORSDO>
F 3

$$$$
=
 OpenBabel10272400023D

 34 40  0  0  1  0  0  0  0  0999 V2000
  188.1070  173.7310  136.5880 C   0  0  0  0  0  0  0  0  0  0  0  0
  186.5790  175.6830  136.9180 C   0  0  0  0  0  0  0  0  0  0  0  0
  188.9830  175.9880  136.9550 N   0  0  0  0  0  0  0  0  0  0  0  0
  190.2780  177.6340  137.8390 C   0  0  1  0  0  3  0  0  0  0  0  0
  185.7240  173.3780  136.7950 C   0  0  0  0  0  3  0  0  0  0  0  0
  185.5590  174.8260  137.0570 C   0  0  0  0  0  3  0  0  0  0  0  0
  187.9070  177.8690  137.8540 C   0  0  1  0  0  3  0  0  0  0  0  0
  187.8960  175.2230  136.3570 C   0  0  1  0  0  3  0  0  0  0  0  0
  189.8510  177.8820  139.6100 S   0  0  0  0  0  0  0  0  0  0  0  0
  186.9310  172.8510  136.5730 C   0  0  0  0  0  3  0  0  0  0  0  0
  190.2330  175.4300  137.2480 C   0  0  0  0  0  0  0  0  0  0  0  0
  189.3060  173.2300  136.9270 C   0  0  0  0  0  3  0  0  0  0  0  0
  186.2750  177.4370  137.1270 S   0  0  0  0  0  0  0  0  0  0  0  0
  191.1040  176.4280  137.7130 N   0  0  0  0  0  0  0  0  0  0  0  0
  188.1120  177.4870  139.2950 C   0  0  1  0  0  3  0  0  0  0  0  0
  189.0350  177.3920  137.0570 N   0  0  2  0  0  0  0  0  0  0  0  0
  190.4470  174.1160  137.2370 C   0  0  0  0  0  3  0  0  0  0  0  0
  188.3090  177.4280  142.2490 C   0  0  0  0  0  2  0  0  0  0  0  0
  187.6240  176.6810  143.3910 C   0  0  0  0  0  2  0  0  0  0  0  0
  187.3040  178.2770  141.5210 C   0  0  0  0  0  0  0  0  0  0  0  0
  186.8560  177.6500  144.2900 C   0  0  1  0  0  3  0  0  0  0  0  0
  187.2300  178.3090  140.1850 C   0  0  0  0  0  3  0  0  0  0  0  0
  185.7840  178.3810  143.4780 C   0  0  1  0  0  3  0  0  0  0  0  0
  185.0830  179.2470  144.2960 F   0  0  0  0  0  0  0  0  0  0  0  0
  186.4130  179.1690  142.3290 C   0  0  0  0  0  2  0  0  0  0  0  0
  186.2620  176.9430  145.3170 F   0  0  0  0  0  0  0  0  0  0  0  0
  192.4190  176.2310  138.3060 C   0  0  0  0  0  2  0  0  0  0  0  0
  194.8610  173.8780  136.6260 C   0  0  0  0  0  0  0  0  0  0  0  0
  195.0550  174.5140  135.3960 C   0  0  0  0  0  3  0  0  0  0  0  0
  193.3500  175.6460  137.3030 C   0  0  0  0  0  0  0  0  0  0  0  0
  194.3930  175.7140  135.1180 C   0  0  0  0  0  3  0  0  0  0  0  0
  194.0080  174.4420  137.5780 C   0  0  0  0  0  3  0  0  0  0  0  0
  193.5390  176.2780  136.0690 C   0  0  0  0  0  3  0  0  0  0  0  0
  195.6830  172.3720  136.9730 Cl  0  0  0  0  0  0  0  0  0  0  0  0
  1 12  2  0  0  0  0
  2  6  2  0  0  0  0
  2 13  1  0  0  0  0
  3 11  1  0  0  0  0
  4  9  1  1  0  0  0
  5  6  1  0  0  0  0
  7 13  1  6  0  0  0
  7 15  1  0  0  0  0
  8  1  1  1  0  0  0
  8  2  1  0  0  0  0
  8  3  1  0  0  0  0
 10  1  1  0  0  0  0
 10  5  2  0  0  0  0
 11 14  1  0  0  0  0
 12 17  1  0  0  0  0
 14  4  1  0  0  0  0
 14 27  1  0  0  0  0
 15  9  1  0  0  0  0
 15 22  1  1  0  0  0
 16  3  1  1  0  0  0
 16  4  1  0  0  0  0
 16  7  1  0  0  0  0
 17 11  2  0  0  0  0
 18 19  1  0  0  0  0
 19 21  1  0  0  0  0
 20 18  1  0  0  0  0
 20 25  1  0  0  0  0
 21 26  1  1  0  0  0
 22 20  2  0  0  0  0
 23 21  1  0  0  0  0
 23 24  1  1  0  0  0
 25 23  1  0  0  0  0
 28 34  1  0  0  0  0
 28 32  1  0  0  0  0
 29 28  2  0  0  0  0
 30 32  2  0  0  0  0
 30 27  1  0  0  0  0
 31 29  1  0  0  0  0
 31 33  2  0  0  0  0
 33 30  1  0  0  0  0
M  END
>  <MODEL>
2

>  <REMARK>
 VINA RESULT:      -7.9      3.601      5.551
  Name = 
  3 active torsions:
  status: ('A' for Active; 'I' for Inactive)
    1  A    between atoms: C_12  and  C_28
    2  A    between atoms: C_17  and  C_29
    3  A    between atoms: N_26  and  C_28
                            x       y       z     vdW  Elec       q    Type
                         _______ _______ _______ _____ _____    ______ ____

>  <TORSDO>
F 3

$$$$
=
 OpenBabel10272400023D

 34 40  0  0  1  0  0  0  0  0999 V2000
  186.3310  178.0420  142.4880 C   0  0  0  0  0  0  0  0  0  0  0  0
  188.2110  178.0800  140.8390 C   0  0  0  0  0  0  0  0  0  0  0  0
  185.9610  178.6540  140.1450 N   0  0  0  0  0  0  0  0  0  0  0  0
  184.9770  178.6740  138.0960 C   0  0  1  0  0  3  0  0  0  0  0  0
  188.5160  177.2320  143.1290 C   0  0  0  0  0  3  0  0  0  0  0  0
  188.9760  177.4470  141.7390 C   0  0  0  0  0  3  0  0  0  0  0  0
  187.3130  178.2420  138.2720 C   0  0  1  0  0  3  0  0  0  0  0  0
  186.9110  178.7150  141.2490 C   0  0  1  0  0  3  0  0  0  0  0  0
  185.2060  177.0440  137.2770 S   0  0  0  0  0  0  0  0  0  0  0  0
  187.2610  177.5100  143.4910 C   0  0  0  0  0  3  0  0  0  0  0  0
  184.5890  178.4600  140.3350 C   0  0  0  0  0  0  0  0  0  0  0  0
  185.0140  177.8130  142.6160 C   0  0  0  0  0  3  0  0  0  0  0  0
  188.8830  178.4190  139.2120 S   0  0  0  0  0  0  0  0  0  0  0  0
  183.9180  178.5540  139.1040 N   0  0  0  0  0  0  0  0  0  0  0  0
  186.8330  176.8330  138.0460 C   0  0  1  0  0  3  0  0  0  0  0  0
  186.2240  179.0480  138.8180 N   0  0  2  0  0  0  0  0  0  0  0  0
  184.0780  178.0700  141.5010 C   0  0  0  0  0  3  0  0  0  0  0  0
  186.2630  174.1180  137.0120 C   0  0  0  0  0  2  0  0  0  0  0  0
  186.6250  172.6850  137.3990 C   0  0  0  0  0  2  0  0  0  0  0  0
  187.5090  174.8780  136.6500 C   0  0  0  0  0  0  0  0  0  0  0  0
  187.4650  172.0250  136.3070 C   0  0  1  0  0  3  0  0  0  0  0  0
  187.7530  176.1110  137.1100 C   0  0  0  0  0  3  0  0  0  0  0  0
  188.7610  172.8110  136.0940 C   0  0  1  0  0  3  0  0  0  0  0  0
  189.5240  172.2030  135.1140 F   0  0  0  0  0  0  0  0  0  0  0  0
  188.4630  174.2520  135.6810 C   0  0  0  0  0  2  0  0  0  0  0  0
  187.7620  170.7290  136.6830 F   0  0  0  0  0  0  0  0  0  0  0  0
  182.5250  178.2200  138.8410 C   0  0  0  0  0  2  0  0  0  0  0  0
  180.8170  181.5780  138.4840 C   0  0  0  0  0  0  0  0  0  0  0  0
  179.9830  181.5840  139.6070 C   0  0  0  0  0  3  0  0  0  0  0  0
  181.6570  179.3970  139.1190 C   0  0  0  0  0  0  0  0  0  0  0  0
  179.9830  180.4940  140.4830 C   0  0  0  0  0  3  0  0  0  0  0  0
  181.6520  180.4850  138.2390 C   0  0  0  0  0  3  0  0  0  0  0  0
  180.8170  179.4000  140.2370 C   0  0  0  0  0  3  0  0  0  0  0  0
  180.8130  182.9390  137.3830 Cl  0  0  0  0  0  0  0  0  0  0  0  0
  1 12  2  0  0  0  0
  1 10  1  0  0  0  0
  2  6  2  0  0  0  0
  3 11  1  0  0  0  0
  3  8  1  0  0  0  0
  4  9  1  1  0  0  0
  4 16  1  0  0  0  0
  4 14  1  0  0  0  0
  5 10  2  0  0  0  0
  6  5  1  0  0  0  0
  7 16  1  0  0  0  0
  7 13  1  1  0  0  0
  8  2  1  6  0  0  0
  8  1  1  0  0  0  0
  9 15  1  0  0  0  0
 11 17  2  0  0  0  0
 13  2  1  0  0  0  0
 14 11  1  0  0  0  0
 15 22  1  6  0  0  0
 15  7  1  0  0  0  0
 16  3  1  1  0  0  0
 17 12  1  0  0  0  0
 18 19  1  0  0  0  0
 20 18  1  0  0  0  0
 20 22  2  0  0  0  0
 21 26  1  1  0  0  0
 21 19  1  0  0  0  0
 23 24  1  6  0  0  0
 23 21  1  0  0  0  0
 25 23  1  0  0  0  0
 25 20  1  0  0  0  0
 27 14  1  0  0  0  0
 27 30  1  0  0  0  0
 28 29  1  0  0  0  0
 29 31  2  0  0  0  0
 30 33  2  0  0  0  0
 32 28  2  0  0  0  0
 32 30  1  0  0  0  0
 33 31  1  0  0  0  0
 34 28  1  0  0  0  0
M  END
>  <MODEL>
3

>  <REMARK>
 VINA RESULT:      -7.8      4.020      7.055
  Name = 
  3 active torsions:
  status: ('A' for Active; 'I' for Inactive)
    1  A    between atoms: C_12  and  C_28
    2  A    between atoms: C_17  and  C_29
    3  A    between atoms: N_26  and  C_28
                            x       y       z     vdW  Elec       q    Type
                         _______ _______ _______ _____ _____    ______ ____

>  <TORSDO>
F 3

$$$$
=
 OpenBabel10272400023D

 34 40  0  0  1  0  0  0  0  0999 V2000
  187.7410  177.4590  136.7820 C   0  0  0  0  0  0  0  0  0  0  0  0
  189.2460  175.7870  135.6890 C   0  0  0  0  0  0  0  0  0  0  0  0
  189.4890  176.2980  138.0460 N   0  0  0  0  0  0  0  0  0  0  0  0
  191.2370  176.0240  139.4740 C   0  0  1  0  0  3  0  0  0  0  0  0
  187.6550  177.1400  134.3880 C   0  0  0  0  0  3  0  0  0  0  0  0
  188.7910  176.1970  134.4980 C   0  0  0  0  0  3  0  0  0  0  0  0
  191.3840  175.1610  137.2580 C   0  0  1  0  0  3  0  0  0  0  0  0
  188.5300  176.1660  136.9560 C   0  0  0  0  0  0  0  0  0  0  0  0
  192.7440  176.8090  138.7740 S   0  0  0  0  0  0  0  0  0  0  0  0
  187.1540  177.7440  135.4680 C   0  0  0  0  0  2  0  0  0  0  0  0
  189.3590  177.2540  139.0590 C   0  0  0  0  0  0  0  0  0  0  0  0
  187.6840  178.3870  137.7510 C   0  0  0  0  0  3  0  0  0  0  0  0
  190.5390  174.5460  135.7450 S   0  0  0  0  0  0  0  0  0  0  0  0
  190.3660  177.0700  140.0210 N   0  0  0  0  0  0  0  0  0  0  0  0
  192.2370  176.3900  137.0860 C   0  0  1  0  0  3  0  0  0  0  0  0
  190.4750  175.3510  138.3850 N   0  0  2  0  0  0  0  0  0  0  0  0
  188.5010  178.2690  138.9760 C   0  0  0  0  0  3  0  0  0  0  0  0
  194.1650  174.2530  137.7830 C   0  0  0  0  0  2  0  0  0  0  0  0
  195.4930  174.1590  138.5300 C   0  0  0  0  0  2  0  0  0  0  0  0
  194.3250  175.1250  136.5670 C   0  0  0  0  0  0  0  0  0  0  0  0
  196.6150  173.7200  137.5880 C   0  0  1  0  0  3  0  0  0  0  0  0
  193.4410  176.0790  136.2510 C   0  0  0  0  0  3  0  0  0  0  0  0
  196.7700  174.7310  136.4500 C   0  0  1  0  0  3  0  0  0  0  0  0
  197.7930  174.3370  135.6070 F   0  0  0  0  0  0  0  0  0  0  0  0
  195.4750  174.8530  135.6480 C   0  0  0  0  0  2  0  0  0  0  0  0
  197.7960  173.6330  138.2990 F   0  0  0  0  0  0  0  0  0  0  0  0
  190.7000  177.9680  141.1180 C   0  0  0  0  0  2  0  0  0  0  0  0
  190.0080  177.0390  144.7210 C   0  0  0  0  0  0  0  0  0  0  0  0
  188.6260  176.8290  144.6920 C   0  0  0  0  0  3  0  0  0  0  0  0
  189.9820  177.5530  142.3540 C   0  0  0  0  0  0  0  0  0  0  0  0
  187.9210  176.9840  143.4940 C   0  0  0  0  0  3  0  0  0  0  0  0
  190.6860  177.4030  143.5550 C   0  0  0  0  0  3  0  0  0  0  0  0
  188.5980  177.3490  142.3270 C   0  0  0  0  0  3  0  0  0  0  0  0
  190.8910  176.8520  146.2210 Cl  0  0  0  0  0  0  0  0  0  0  0  0
  1  8  1  0  0  0  0
  1 12  2  0  0  0  0
  2 13  1  0  0  0  0
  2  8  2  0  0  0  0
  3 11  1  0  0  0  0
  4  9  1  6  0  0  0
  4 14  1  0  0  0  0
  5  6  2  0  0  0  0
  5 10  1  0  0  0  0
  6  2  1  0  0  0  0
  7 13  1  6  0  0  0
  7 16  1  0  0  0  0
  8  3  1  0  0  0  0
 10  1  1  0  0  0  0
 11 14  1  0  0  0  0
 12 17  1  0  0  0  0
 14 27  1  0  0  0  0
 15 22  1  6  0  0  0
 15  7  1  0  0  0  0
 15  9  1  0  0  0  0
 16  3  1  6  0  0  0
 16  4  1  0  0  0  0
 17 11  2  0  0  0  0
 18 19  1  0  0  0  0
 20 18  1  0  0  0  0
 21 26  1  1  0  0  0
 21 19  1  0  0  0  0
 22 20  2  0  0  0  0
 23 24  1  6  0  0  0
 23 21  1  0  0  0  0
 25 23  1  0  0  0  0
 25 20  1  0  0  0  0
 27 30  1  0  0  0  0
 28 34  1  0  0  0  0
 29 28  1  0  0  0  0
 30 32  1  0  0  0  0
 31 29  2  0  0  0  0
 32 28  2  0  0  0  0
 33 30  2  0  0  0  0
 33 31  1  0  0  0  0
M  END
>  <MODEL>
4

>  <REMARK>
 VINA RESULT:      -7.5      4.850      7.565
  Name = 
  3 active torsions:
  status: ('A' for Active; 'I' for Inactive)
    1  A    between atoms: C_12  and  C_28
    2  A    between atoms: C_17  and  C_29
    3  A    between atoms: N_26  and  C_28
                            x       y       z     vdW  Elec       q    Type
                         _______ _______ _______ _____ _____    ______ ____

>  <TORSDO>
F 3

$$$$
=
 OpenBabel10272400023D

 34 40  0  0  1  0  0  0  0  0999 V2000
  186.3720  174.0820  136.9850 C   0  0  0  0  0  0  0  0  0  0  0  0
  184.0200  174.8830  137.2720 C   0  0  0  0  0  0  0  0  0  0  0  0
  185.8330  176.4710  137.0120 N   0  0  0  0  0  0  0  0  0  0  0  0
  186.0000  178.6690  137.5670 C   0  0  1  0  0  3  0  0  0  0  0  0
  184.6110  172.5040  137.4890 C   0  0  0  0  0  3  0  0  0  0  0  0
  183.6660  173.6370  137.6130 C   0  0  0  0  0  3  0  0  0  0  0  0
  183.9110  177.5490  137.8170 C   0  0  1  0  0  3  0  0  0  0  0  0
  185.3490  175.1520  136.6210 C   0  0  1  0  0  3  0  0  0  0  0  0
  185.5630  178.9000  139.3380 S   0  0  0  0  0  0  0  0  0  0  0  0
  185.8970  172.7080  137.1940 C   0  0  0  0  0  3  0  0  0  0  0  0
  187.1870  176.7510  137.2220 C   0  0  0  0  0  0  0  0  0  0  0  0
  187.6540  174.3870  137.2420 C   0  0  0  0  0  3  0  0  0  0  0  0
  182.7860  176.1820  137.3250 S   0  0  0  0  0  0  0  0  0  0  0  0
  187.3580  178.1210  137.4800 N   0  0  0  0  0  0  0  0  0  0  0  0
  184.3400  177.5660  139.2600 C   0  0  1  0  0  3  0  0  0  0  0  0
  185.0860  177.6640  136.9570 N   0  0  2  0  0  0  0  0  0  0  0  0
  188.1060  175.7920  137.3280 C   0  0  0  0  0  3  0  0  0  0  0  0
  184.6450  178.8860  141.8930 C   0  0  0  0  0  2  0  0  0  0  0  0
  184.7710  178.4410  143.3490 C   0  0  0  0  0  2  0  0  0  0  0  0
  183.3080  178.4670  141.3460 C   0  0  0  0  0  0  0  0  0  0  0  0
  183.5780  178.9300  144.1700 C   0  0  1  0  0  3  0  0  0  0  0  0
  183.1770  177.8830  140.1490 C   0  0  0  0  0  3  0  0  0  0  0  0
  182.2780  178.3570  143.5990 C   0  0  1  0  0  3  0  0  0  0  0  0
  181.2030  178.7910  144.3520 F   0  0  0  0  0  0  0  0  0  0  0  0
  182.0840  178.7880  142.1460 C   0  0  0  0  0  2  0  0  0  0  0  0
  183.7320  178.5220  145.4810 F   0  0  0  0  0  0  0  0  0  0  0  0
  188.5720  178.7770  137.9430 C   0  0  0  0  0  2  0  0  0  0  0  0
  188.9460  177.2890  141.4030 C   0  0  0  0  0  0  0  0  0  0  0  0
  190.1670  176.6190  141.2840 C   0  0  0  0  0  3  0  0  0  0  0  0
  189.1370  178.0440  139.1090 C   0  0  0  0  0  0  0  0  0  0  0  0
  190.8710  176.6580  140.0770 C   0  0  0  0  0  3  0  0  0  0  0  0
  188.4290  177.9990  140.3160 C   0  0  0  0  0  3  0  0  0  0  0  0
  190.3550  177.3670  138.9890 C   0  0  0  0  0  3  0  0  0  0  0  0
  188.0600  177.2350  142.9110 Cl  0  0  0  0  0  0  0  0  0  0  0  0
  1 10  1  0  0  0  0
  1 12  2  0  0  0  0
  2 13  1  0  0  0  0
  2  6  2  0  0  0  0
  3 11  1  0  0  0  0
  4  9  1  1  0  0  0
  5  6  1  0  0  0  0
  7 13  1  6  0  0  0
  7 15  1  0  0  0  0
  8  1  1  1  0  0  0
  8  3  1  0  0  0  0
  8  2  1  0  0  0  0
 10  5  2  0  0  0  0
 11 17  2  0  0  0  0
 11 14  1  0  0  0  0
 12 17  1  0  0  0  0
 14  4  1  0  0  0  0
 14 27  1  0  0  0  0
 15  9  1  0  0  0  0
 15 22  1  1  0  0  0
 16  3  1  1  0  0  0
 16  4  1  0  0  0  0
 16  7  1  0  0  0  0
 18 19  1  0  0  0  0
 19 21  1  0  0  0  0
 20 18  1  0  0  0  0
 20 25  1  0  0  0  0
 21 26  1  1  0  0  0
 22 20  2  0  0  0  0
 23 21  1  0  0  0  0
 23 24  1  1  0  0  0
 25 23  1  0  0  0  0
 27 30  1  0  0  0  0
 28 34  1  0  0  0  0
 29 28  1  0  0  0  0
 30 32  1  0  0  0  0
 31 29  2  0  0  0  0
 32 28  2  0  0  0  0
 33 30  2  0  0  0  0
 33 31  1  0  0  0  0
M  END
>  <MODEL>
5

>  <REMARK>
 VINA RESULT:      -7.3      2.882      5.858
  Name = 
  3 active torsions:
  status: ('A' for Active; 'I' for Inactive)
    1  A    between atoms: C_12  and  C_28
    2  A    between atoms: C_17  and  C_29
    3  A    between atoms: N_26  and  C_28
                            x       y       z     vdW  Elec       q    Type
                         _______ _______ _______ _____ _____    ______ ____

>  <TORSDO>
F 3

$$$$
=
 OpenBabel10272400023D

 34 40  0  0  1  0  0  0  0  0999 V2000
  190.0000  177.8190  145.7310 C   0  0  0  0  0  0  0  0  0  0  0  0
  187.6060  177.3430  146.2740 C   0  0  0  0  0  0  0  0  0  0  0  0
  188.3590  177.3650  143.9710 N   0  0  0  0  0  0  0  0  0  0  0  0
  187.2250  177.6330  142.0180 C   0  0  1  0  0  3  0  0  0  0  0  0
  189.2090  178.0420  148.0050 C   0  0  0  0  0  3  0  0  0  0  0  0
  187.8390  177.7450  147.5300 C   0  0  0  0  0  3  0  0  0  0  0  0
  186.0160  177.4610  144.0650 C   0  0  1  0  0  3  0  0  0  0  0  0
  188.7450  177.0460  145.3390 C   0  0  1  0  0  3  0  0  0  0  0  0
  186.2160  179.1680  142.0880 S   0  0  0  0  0  0  0  0  0  0  0  0
  190.2390  178.0810  147.1560 C   0  0  0  0  0  3  0  0  0  0  0  0
  189.2520  177.8940  143.0330 C   0  0  0  0  0  0  0  0  0  0  0  0
  190.8080  178.3690  144.8100 C   0  0  0  0  0  3  0  0  0  0  0  0
  185.9390  176.8770  145.8060 S   0  0  0  0  0  0  0  0  0  0  0  0
  188.6260  177.9950  141.7800 N   0  0  0  0  0  0  0  0  0  0  0  0
  185.9170  178.9490  143.8610 C   0  0  1  0  0  3  0  0  0  0  0  0
  187.1730  176.9440  143.3370 N   0  0  2  0  0  0  0  0  0  0  0  0
  190.4440  178.3770  143.3780 C   0  0  0  0  0  3  0  0  0  0  0  0
  183.4710  177.9760  142.5050 C   0  0  0  0  0  2  0  0  0  0  0  0
  182.5980  178.4270  141.3360 C   0  0  0  0  0  2  0  0  0  0  0  0
  183.4360  179.0120  143.5950 C   0  0  0  0  0  0  0  0  0  0  0  0
  181.1910  178.7820  141.8160 C   0  0  1  0  0  3  0  0  0  0  0  0
  184.5450  179.4360  144.2130 C   0  0  0  0  0  3  0  0  0  0  0  0
  181.2570  179.9200  142.8380 C   0  0  1  0  0  3  0  0  0  0  0  0
  179.9820  180.2470  143.2600 F   0  0  0  0  0  0  0  0  0  0  0  0
  182.1020  179.5200  144.0470 C   0  0  0  0  0  2  0  0  0  0  0  0
  180.4260  179.1710  140.7330 F   0  0  0  0  0  0  0  0  0  0  0  0
  189.1410  178.6740  140.5990 C   0  0  0  0  0  2  0  0  0  0  0  0
  189.0270  176.4170  137.5620 C   0  0  0  0  0  0  0  0  0  0  0  0
  190.3010  175.8420  137.5980 C   0  0  0  0  0  3  0  0  0  0  0  0
  189.5380  177.6750  139.5690 C   0  0  0  0  0  0  0  0  0  0  0  0
  191.1950  176.1860  138.6170 C   0  0  0  0  0  3  0  0  0  0  0  0
  188.6460  177.3340  138.5450 C   0  0  0  0  0  3  0  0  0  0  0  0
  190.8140  177.1050  139.6000 C   0  0  0  0  0  3  0  0  0  0  0  0
  187.9100  175.9920  136.2840 Cl  0  0  0  0  0  0  0  0  0  0  0  0
  1 10  1  0  0  0  0
  2  6  2  0  0  0  0
  3  8  1  0  0  0  0
  4  9  1  1  0  0  0
  4 16  1  0  0  0  0
  6  5  1  0  0  0  0
  7 13  1  1  0  0  0
  8  1  1  1  0  0  0
  8  2  1  0  0  0  0
  9 15  1  0  0  0  0
 10  5  2  0  0  0  0
 11 17  2  0  0  0  0
 11  3  1  0  0  0  0
 12  1  2  0  0  0  0
 13  2  1  0  0  0  0
 14  4  1  0  0  0  0
 14 11  1  0  0  0  0
 15  7  1  0  0  0  0
 15 22  1  6  0  0  0
 16  3  1  1  0  0  0
 16  7  1  0  0  0  0
 17 12  1  0  0  0  0
 18 20  1  0  0  0  0
 19 21  1  0  0  0  0
 19 18  1  0  0  0  0
 20 25  1  0  0  0  0
 20 22  2  0  0  0  0
 21 26  1  6  0  0  0
 21 23  1  0  0  0  0
 23 24  1  1  0  0  0
 23 25  1  0  0  0  0
 27 14  1  0  0  0  0
 28 29  2  0  0  0  0
 28 32  1  0  0  0  0
 29 31  1  0  0  0  0
 30 33  1  0  0  0  0
 30 27  1  0  0  0  0
 31 33  2  0  0  0  0
 32 30  2  0  0  0  0
 34 28  1  0  0  0  0
M  END
>  <MODEL>
6

>  <REMARK>
 VINA RESULT:      -7.3      3.911      6.854
  Name = 
  3 active torsions:
  status: ('A' for Active; 'I' for Inactive)
    1  A    between atoms: C_12  and  C_28
    2  A    between atoms: C_17  and  C_29
    3  A    between atoms: N_26  and  C_28
                            x       y       z     vdW  Elec       q    Type
                         _______ _______ _______ _____ _____    ______ ____

>  <TORSDO>
F 3

$$$$
=
 OpenBabel10272400023D

 34 40  0  0  1  0  0  0  0  0999 V2000
  185.9600  177.3600  138.1570 C   0  0  0  0  0  0  0  0  0  0  0  0
  186.3720  178.7550  140.1900 C   0  0  0  0  0  0  0  0  0  0  0  0
  188.2300  177.7830  138.9740 N   0  0  0  0  0  0  0  0  0  0  0  0
  190.3690  177.3350  139.6000 C   0  0  1  0  0  3  0  0  0  0  0  0
  184.0990  178.1160  139.5000 C   0  0  0  0  0  3  0  0  0  0  0  0
  185.0620  178.6980  140.4610 C   0  0  0  0  0  3  0  0  0  0  0  0
  188.9330  178.5160  141.0890 C   0  0  1  0  0  3  0  0  0  0  0  0
  186.8940  178.3520  138.8390 C   0  0  0  0  0  0  0  0  0  0  0  0
  190.3720  176.3270  141.1370 S   0  0  0  0  0  0  0  0  0  0  0  0
  184.5180  177.4770  138.4050 C   0  0  0  0  0  2  0  0  0  0  0  0
  188.6890  176.7260  138.1800 C   0  0  0  0  0  0  0  0  0  0  0  0
  186.4290  176.3180  137.4500 C   0  0  0  0  0  3  0  0  0  0  0  0
  187.4630  179.5900  141.3430 S   0  0  0  0  0  0  0  0  0  0  0  0
  190.0400  176.4680  138.4630 N   0  0  0  0  0  0  0  0  0  0  0  0
  188.8830  177.1610  141.7440 C   0  0  1  0  0  3  0  0  0  0  0  0
  189.2980  178.3660  139.6830 N   0  0  2  0  0  0  0  0  0  0  0  0
  187.8720  175.9990  137.4200 C   0  0  0  0  0  3  0  0  0  0  0  0
  186.4740  177.0520  143.4620 C   0  0  0  0  0  2  0  0  0  0  0  0
  185.5090  178.0600  144.0840 C   0  0  0  0  0  2  0  0  0  0  0  0
  187.8570  177.2630  144.0160 C   0  0  0  0  0  0  0  0  0  0  0  0
  185.5860  178.0140  145.6100 C   0  0  1  0  0  3  0  0  0  0  0  0
  188.9420  177.2960  143.2340 C   0  0  0  0  0  3  0  0  0  0  0  0
  187.0040  178.3520  146.0750 C   0  0  1  0  0  3  0  0  0  0  0  0
  187.0660  178.3210  147.4550 F   0  0  0  0  0  0  0  0  0  0  0  0
  188.0160  177.3600  145.5020 C   0  0  0  0  0  2  0  0  0  0  0  0
  184.6920  178.9260  146.1370 F   0  0  0  0  0  0  0  0  0  0  0  0
  190.8260  175.3320  138.0030 C   0  0  0  0  0  2  0  0  0  0  0  0
  193.5870  176.1050  135.5330 C   0  0  0  0  0  0  0  0  0  0  0  0
  192.8610  176.2680  134.3490 C   0  0  0  0  0  3  0  0  0  0  0  0
  191.5300  175.6770  136.7380 C   0  0  0  0  0  0  0  0  0  0  0  0
  191.4690  176.1310  134.3590 C   0  0  0  0  0  3  0  0  0  0  0  0
  192.9230  175.8080  136.7260 C   0  0  0  0  0  3  0  0  0  0  0  0
  190.8050  175.8330  135.5520 C   0  0  0  0  0  3  0  0  0  0  0  0
  195.3300  176.2690  135.5210 Cl  0  0  0  0  0  0  0  0  0  0  0  0
  1 10  1  0  0  0  0
  1  8  1  0  0  0  0
  2  6  1  0  0  0  0
  2 13  1  0  0  0  0
  4 16  1  0  0  0  0
  4  9  1  1  0  0  0
  5  6  2  0  0  0  0
  7 13  1  6  0  0  0
  7 15  1  0  0  0  0
  8  3  1  0  0  0  0
  8  2  2  0  0  0  0
  9 15  1  0  0  0  0
 10  5  1  0  0  0  0
 11 14  1  0  0  0  0
 11  3  1  0  0  0  0
 12  1  2  0  0  0  0
 14  4  1  0  0  0  0
 15 22  1  1  0  0  0
 16  3  1  6  0  0  0
 16  7  1  0  0  0  0
 17 12  1  0  0  0  0
 17 11  2  0  0  0  0
 18 20  1  0  0  0  0
 18 19  1  0  0  0  0
 19 21  1  0  0  0  0
 20 25  1  0  0  0  0
 21 23  1  0  0  0  0
 21 26  1  1  0  0  0
 22 20  2  0  0  0  0
 23 24  1  1  0  0  0
 25 23  1  0  0  0  0
 27 14  1  0  0  0  0
 28 32  1  0  0  0  0
 29 31  1  0  0  0  0
 29 28  2  0  0  0  0
 30 27  1  0  0  0  0
 31 33  2  0  0  0  0
 32 30  2  0  0  0  0
 33 30  1  0  0  0  0
 34 28  1  0  0  0  0
M  END
>  <MODEL>
7

>  <REMARK>
 VINA RESULT:      -7.2      3.174      4.103
  Name = 
  3 active torsions:
  status: ('A' for Active; 'I' for Inactive)
    1  A    between atoms: C_12  and  C_28
    2  A    between atoms: C_17  and  C_29
    3  A    between atoms: N_26  and  C_28
                            x       y       z     vdW  Elec       q    Type
                         _______ _______ _______ _____ _____    ______ ____

>  <TORSDO>
F 3

$$$$
=
 OpenBabel10272400023D

 34 40  0  0  1  0  0  0  0  0999 V2000
  182.0390  175.6680  138.2750 C   0  0  0  0  0  0  0  0  0  0  0  0
  181.1120  177.2240  139.9990 C   0  0  0  0  0  0  0  0  0  0  0  0
  183.1560  177.7780  138.8220 N   0  0  0  0  0  0  0  0  0  0  0  0
  184.8550  179.1970  139.3410 C   0  0  1  0  0  3  0  0  0  0  0  0
  180.1420  174.9950  139.6140 C   0  0  0  0  0  3  0  0  0  0  0  0
  180.2690  176.2550  140.3810 C   0  0  0  0  0  3  0  0  0  0  0  0
  182.9110  179.1390  140.7170 C   0  0  1  0  0  3  0  0  0  0  0  0
  181.8610  177.1220  138.7000 C   0  0  0  0  0  0  0  0  0  0  0  0
  185.4930  178.8190  141.0230 S   0  0  0  0  0  0  0  0  0  0  0  0
  180.9800  174.7090  138.6150 C   0  0  0  0  0  2  0  0  0  0  0  0
  184.3100  177.3050  138.1870 C   0  0  0  0  0  0  0  0  0  0  0  0
  183.1810  175.2290  137.7220 C   0  0  0  0  0  3  0  0  0  0  0  0
  181.1190  178.7740  140.9010 S   0  0  0  0  0  0  0  0  0  0  0  0
  185.3730  178.1980  138.4000 N   0  0  0  0  0  0  0  0  0  0  0  0
  183.8410  178.3450  141.5960 C   0  0  1  0  0  3  0  0  0  0  0  0
  183.3710  179.0730  139.3320 N   0  0  2  0  0  0  0  0  0  0  0  0
  184.3730  176.0960  137.6310 C   0  0  0  0  0  3  0  0  0  0  0  0
  186.0580  178.2890  143.5580 C   0  0  0  0  0  2  0  0  0  0  0  0
  186.5990  177.3040  144.5910 C   0  0  0  0  0  2  0  0  0  0  0  0
  184.6590  178.6980  143.9270 C   0  0  0  0  0  0  0  0  0  0  0  0
  186.4660  177.8730  146.0040 C   0  0  1  0  0  3  0  0  0  0  0  0
  183.6650  178.7350  143.0310 C   0  0  0  0  0  3  0  0  0  0  0  0
  184.9950  178.1490  146.3220 C   0  0  1  0  0  3  0  0  0  0  0  0
  184.8770  178.6510  147.6040 F   0  0  0  0  0  0  0  0  0  0  0  0
  184.4010  179.1500  145.3310 C   0  0  0  0  0  2  0  0  0  0  0  0
  186.9760  176.9630  146.9100 F   0  0  0  0  0  0  0  0  0  0  0  0
  186.7760  177.9770  138.0790 C   0  0  0  0  0  2  0  0  0  0  0  0
  187.3240  175.2200  135.5450 C   0  0  0  0  0  0  0  0  0  0  0  0
  187.0660  175.8920  134.3460 C   0  0  0  0  0  3  0  0  0  0  0  0
  186.8960  177.2580  136.7810 C   0  0  0  0  0  0  0  0  0  0  0  0
  186.7190  177.2460  134.3650 C   0  0  0  0  0  3  0  0  0  0  0  0
  187.2380  175.9010  136.7620 C   0  0  0  0  0  3  0  0  0  0  0  0
  186.6310  177.9280  135.5820 C   0  0  0  0  0  3  0  0  0  0  0  0
  187.7520  173.5230  135.5230 Cl  0  0  0  0  0  0  0  0  0  0  0  0
  1 10  1  0  0  0  0
  1  8  1  0  0  0  0
  2  6  1  0  0  0  0
  2 13  1  0  0  0  0
  4  9  1  1  0  0  0
  5  6  2  0  0  0  0
  7 13  1  6  0  0  0
  7 15  1  0  0  0  0
  8  3  1  0  0  0  0
  8  2  2  0  0  0  0
  9 15  1  0  0  0  0
 10  5  1  0  0  0  0
 11 14  1  0  0  0  0
 11  3  1  0  0  0  0
 12  1  2  0  0  0  0
 14  4  1  0  0  0  0
 15 22  1  1  0  0  0
 16  3  1  1  0  0  0
 16  4  1  0  0  0  0
 16  7  1  0  0  0  0
 17 12  1  0  0  0  0
 17 11  2  0  0  0  0
 18 20  1  0  0  0  0
 18 19  1  0  0  0  0
 19 21  1  0  0  0  0
 20 25  1  0  0  0  0
 21 23  1  0  0  0  0
 21 26  1  1  0  0  0
 22 20  2  0  0  0  0
 23 24  1  1  0  0  0
 25 23  1  0  0  0  0
 27 14  1  0  0  0  0
 28 32  1  0  0  0  0
 29 31  1  0  0  0  0
 29 28  2  0  0  0  0
 30 27  1  0  0  0  0
 31 33  2  0  0  0  0
 32 30  2  0  0  0  0
 33 30  1  0  0  0  0
 34 28  1  0  0  0  0
M  END
>  <MODEL>
8

>  <REMARK>
 VINA RESULT:      -7.2      2.760      4.611
  Name = 
  3 active torsions:
  status: ('A' for Active; 'I' for Inactive)
    1  A    between atoms: C_12  and  C_28
    2  A    between atoms: C_17  and  C_29
    3  A    between atoms: N_26  and  C_28
                            x       y       z     vdW  Elec       q    Type
                         _______ _______ _______ _____ _____    ______ ____

>  <TORSDO>
F 3

$$$$
=
 OpenBabel10272400023D

 34 40  0  0  1  0  0  0  0  0999 V2000
  190.2000  174.4920  136.0150 C   0  0  0  0  0  0  0  0  0  0  0  0
  187.9440  174.2710  134.9580 C   0  0  0  0  0  0  0  0  0  0  0  0
  188.6680  176.3970  135.8710 N   0  0  0  0  0  0  0  0  0  0  0  0
  187.4930  178.2210  136.5510 C   0  0  1  0  0  3  0  0  0  0  0  0
  189.3930  172.3180  135.3330 C   0  0  0  0  0  3  0  0  0  0  0  0
  188.1020  172.9410  134.9630 C   0  0  0  0  0  3  0  0  0  0  0  0
  186.3510  176.4130  135.5010 C   0  0  1  0  0  3  0  0  0  0  0  0
  189.1150  175.1840  135.1970 C   0  0  1  0  0  3  0  0  0  0  0  0
  186.2100  177.7200  137.7680 S   0  0  0  0  0  0  0  0  0  0  0  0
  190.3920  173.0470  135.8350 C   0  0  0  0  0  3  0  0  0  0  0  0
  189.4380  177.0610  136.8310 C   0  0  0  0  0  0  0  0  0  0  0  0
  190.8830  175.1380  136.9730 C   0  0  0  0  0  3  0  0  0  0  0  0
  186.3950  174.9600  134.3760 S   0  0  0  0  0  0  0  0  0  0  0  0
  188.7990  178.2490  137.2210 N   0  0  0  0  0  0  0  0  0  0  0  0
  185.9670  176.1320  136.9300 C   0  0  1  0  0  3  0  0  0  0  0  0
  187.5810  177.2000  135.4710 N   0  0  2  0  0  0  0  0  0  0  0  0
  190.5180  176.5100  137.3840 C   0  0  0  0  0  3  0  0  0  0  0  0
  185.1210  173.3710  137.5840 C   0  0  0  0  0  2  0  0  0  0  0  0
  184.7340  172.1160  136.8050 C   0  0  0  0  0  2  0  0  0  0  0  0
  184.1390  174.4730  137.2950 C   0  0  0  0  0  0  0  0  0  0  0  0
  183.2760  171.7400  137.0720 C   0  0  1  0  0  3  0  0  0  0  0  0
  184.5290  175.7220  137.0150 C   0  0  0  0  0  3  0  0  0  0  0  0
  182.3530  172.8820  136.6400 C   0  0  1  0  0  3  0  0  0  0  0  0
  181.0350  172.5340  136.8710 F   0  0  0  0  0  0  0  0  0  0  0  0
  182.6780  174.1650  137.4050 C   0  0  0  0  0  2  0  0  0  0  0  0
  182.9650  170.5960  136.3640 F   0  0  0  0  0  0  0  0  0  0  0  0
  189.1680  179.1160  138.3300 C   0  0  0  0  0  2  0  0  0  0  0  0
  187.8680  177.7610  141.6170 C   0  0  0  0  0  0  0  0  0  0  0  0
  188.9120  176.9120  141.9970 C   0  0  0  0  0  3  0  0  0  0  0  0
  189.0890  178.3660  139.6130 C   0  0  0  0  0  0  0  0  0  0  0  0
  190.0430  176.7870  141.1840 C   0  0  0  0  0  3  0  0  0  0  0  0
  187.9550  178.4860  140.4250 C   0  0  0  0  0  3  0  0  0  0  0  0
  190.1290  177.5110  139.9910 C   0  0  0  0  0  3  0  0  0  0  0  0
  186.4500  177.9140  142.6300 Cl  0  0  0  0  0  0  0  0  0  0  0  0
  1 12  2  0  0  0  0
  2  6  2  0  0  0  0
  3 11  1  0  0  0  0
  4 14  1  0  0  0  0
  4  9  1  1  0  0  0
  5 10  2  0  0  0  0
  6  5  1  0  0  0  0
  7 13  1  6  0  0  0
  7 15  1  0  0  0  0
  8  2  1  1  0  0  0
  8  3  1  0  0  0  0
  8  1  1  0  0  0  0
 10  1  1  0  0  0  0
 11 14  1  0  0  0  0
 11 17  2  0  0  0  0
 12 17  1  0  0  0  0
 13  2  1  0  0  0  0
 14 27  1  0  0  0  0
 15 22  1  6  0  0  0
 15  9  1  0  0  0  0
 16  7  1  0  0  0  0
 16  3  1  1  0  0  0
 16  4  1  0  0  0  0
 19 21  1  0  0  0  0
 19 18  1  0  0  0  0
 20 25  1  0  0  0  0
 20 18  1  0  0  0  0
 21 26  1  6  0  0  0
 22 20  2  0  0  0  0
 23 24  1  1  0  0  0
 23 21  1  0  0  0  0
 23 25  1  0  0  0  0
 27 30  1  0  0  0  0
 28 29  1  0  0  0  0
 28 34  1  0  0  0  0
 30 33  2  0  0  0  0
 30 32  1  0  0  0  0
 31 29  2  0  0  0  0
 32 28  2  0  0  0  0
 33 31  1  0  0  0  0
M  END
>  <MODEL>
9

>  <REMARK>
 VINA RESULT:      -7.1      4.235      7.757
  Name = 
  3 active torsions:
  status: ('A' for Active; 'I' for Inactive)
    1  A    between atoms: C_12  and  C_28
    2  A    between atoms: C_17  and  C_29
    3  A    between atoms: N_26  and  C_28
                            x       y       z     vdW  Elec       q    Type
                         _______ _______ _______ _____ _____    ______ ____

>  <TORSDO>
F 3

$$$$
