=
 OpenBabel10272413293D

 32 36  0  0  1  0  0  0  0  0999 V2000
  186.6030  177.7750  143.0320 C   0  0  0  0  0  0  0  0  0  0  0  0
  190.5830  177.2610  140.2540 C   0  0  0  0  0  3  0  0  0  0  0  0
  189.7230  177.3680  139.0270 C   0  0  0  0  0  2  0  0  0  0  0  0
  184.4100  178.6370  142.0470 C   0  0  0  0  0  0  0  0  0  0  0  0
  183.5770  178.9130  140.8350 C   0  0  1  0  0  3  0  0  0  0  0  0
  190.0460  177.3600  141.4710 C   0  0  0  0  0  3  0  0  0  0  0  0
  187.9790  177.4930  142.8900 C   0  0  0  0  0  0  0  0  0  0  0  0
  187.8680  178.1220  140.5390 C   0  0  0  0  0  0  0  0  0  0  0  0
  186.5020  178.4250  140.6700 C   0  0  0  0  0  0  0  0  0  0  0  0
  188.5970  178.3810  139.2390 C   0  0  0  0  0  2  0  0  0  0  0  0
  188.6060  177.6660  141.6460 C   0  0  0  0  0  0  0  0  0  0  0  0
  185.7500  178.8650  139.4330 C   0  0  0  0  0  2  0  0  0  0  0  0
  183.8570  178.7490  143.1730 O   0  0  0  0  0  0  0  0  0  0  0  0
  183.9910  180.3780  139.0410 O   0  0  0  0  0  0  0  0  0  0  0  0
  185.8540  178.2580  141.9230 C   0  0  0  0  0  0  0  0  0  0  0  0
  184.4190  179.4720  139.7370 C   0  0  0  0  0  0  0  0  0  0  0  0
  183.4560  176.8150  139.7100 O   0  0  0  0  0  0  0  0  0  0  0  0
  181.5160  177.4870  140.7290 O   0  0  0  0  0  1  0  0  0  0  0  0
  182.8500  177.6840  140.3890 C   0  0  0  0  0  0  0  0  0  0  0  0
  188.7700  176.9780  144.0600 C   0  0  0  0  0  2  0  0  0  0  0  0
  189.4570  178.1260  144.7760 C   0  0  0  0  0  2  0  0  0  0  0  0
  190.9560  178.0170  144.5760 C   0  0  0  0  0  2  0  0  0  0  0  0
  191.5170  176.8450  145.3700 C   0  0  0  0  0  2  0  0  0  0  0  0
  191.0820  176.8970  146.8280 C   0  0  0  0  0  2  0  0  0  0  0  0
  192.7590  175.9670  148.2280 C   0  0  0  0  0  0  0  0  0  0  0  0
  193.4160  176.5070  149.1540 O   0  0  0  0  0  0  0  0  0  0  0  0
  192.6820  175.1390  146.9420 N   0  0  0  0  0  2  0  0  0  0  0  0
  191.5670  175.6730  147.5850 C   0  0  2  0  0  3  0  0  0  0  0  0
  185.9480  177.5060  144.3580 C   0  0  0  0  0  2  0  0  0  0  0  0
  186.1130  178.7030  145.2760 C   0  0  0  0  0  3  0  0  0  0  0  0
  185.0220  178.6660  146.3260 C   0  0  0  0  0  2  0  0  0  0  0  0
  186.4200  178.2110  146.6760 C   0  0  0  0  0  2  0  0  0  0  0  0
  1 29  1  0  0  0  0
  2  6  2  0  0  0  0
  3 10  1  0  0  0  0
  3  2  1  0  0  0  0
  4 13  2  0  0  0  0
  5 19  1  6  0  0  0
  5  4  1  0  0  0  0
  6 11  1  0  0  0  0
  7  1  1  0  0  0  0
  7 20  1  0  0  0  0
  8  9  2  0  0  0  0
  8 11  1  0  0  0  0
  9 15  1  0  0  0  0
 10  8  1  0  0  0  0
 11  7  2  0  0  0  0
 12 16  1  0  0  0  0
 12  9  1  0  0  0  0
 14 16  2  0  0  0  0
 15  4  1  0  0  0  0
 15  1  2  0  0  0  0
 16  5  1  0  0  0  0
 17 19  2  0  0  0  0
 19 18  1  0  0  0  0
 20 21  1  0  0  0  0
 22 21  1  0  0  0  0
 22 23  1  0  0  0  0
 23 24  1  0  0  0  0
 25 26  2  0  0  0  0
 27 28  1  0  0  0  0
 27 25  1  0  0  0  0
 28 24  1  6  0  0  0
 28 25  1  0  0  0  0
 29 30  1  0  0  0  0
 30 31  1  0  0  0  0
 30 32  1  0  0  0  0
 31 32  1  0  0  0  0
M  END
>  <MODEL>
1

>  <REMARK>
 VINA RESULT:      -8.6      0.000      0.000
  Name = 
  9 active torsions:
  status: ('A' for Active; 'I' for Inactive)
    1  A    between atoms: C_2  and  C_10
    2  A    between atoms: C_2  and  C_12
    3  A    between atoms: C_3  and  C_28
    4  A    between atoms: C_7  and  C_22
    5  A    between atoms: C_8  and  C_28
    6  A    between atoms: C_9  and  C_14
    7  A    between atoms: C_9  and  C_21
    8  A    between atoms: C_10  and  CA_24
    9  A    between atoms: C_12  and  C_21
                            x       y       z     vdW  Elec       q    Type
                         _______ _______ _______ _____ _____    ______ ____

>  <TORSDO>
F 9

$$$$
=
 OpenBabel10272413293D

 32 36  0  0  1  0  0  0  0  0999 V2000
  186.9130  178.3340  140.7280 C   0  0  0  0  0  0  0  0  0  0  0  0
  186.4650  178.3240  145.5890 C   0  0  0  0  0  3  0  0  0  0  0  0
  185.0530  178.8170  145.4440 C   0  0  0  0  0  2  0  0  0  0  0  0
  184.8610  178.4800  139.2150 C   0  0  0  0  0  0  0  0  0  0  0  0
  183.4080  178.8070  139.0640 C   0  0  1  0  0  3  0  0  0  0  0  0
  187.2110  178.0740  144.5110 C   0  0  0  0  0  3  0  0  0  0  0  0
  187.4740  178.2080  142.0170 C   0  0  0  0  0  0  0  0  0  0  0  0
  185.2460  178.2930  142.9990 C   0  0  0  0  0  0  0  0  0  0  0  0
  184.6720  178.4000  141.7210 C   0  0  0  0  0  0  0  0  0  0  0  0
  184.3760  178.1800  144.2310 C   0  0  0  0  0  2  0  0  0  0  0  0
  186.6410  178.1890  143.1470 C   0  0  0  0  0  0  0  0  0  0  0  0
  183.1700  178.5580  141.6260 C   0  0  0  0  0  2  0  0  0  0  0  0
  185.5190  178.2480  138.1670 O   0  0  0  0  0  0  0  0  0  0  0  0
  181.5410  177.8190  140.0980 O   0  0  0  0  0  0  0  0  0  0  0  0
  185.5020  178.4170  140.5680 C   0  0  0  0  0  0  0  0  0  0  0  0
  182.6380  178.3310  140.2490 C   0  0  0  0  0  0  0  0  0  0  0  0
  184.2040  181.0330  138.7640 O   0  0  0  0  0  1  0  0  0  0  0  0
  181.9260  180.7960  138.6960 O   0  0  0  0  0  0  0  0  0  0  0  0
  183.2060  180.2720  138.8370 C   0  0  0  0  0  0  0  0  0  0  0  0
  188.9650  178.1240  142.1880 C   0  0  0  0  0  2  0  0  0  0  0  0
  189.3910  176.6820  142.3940 C   0  0  0  0  0  2  0  0  0  0  0  0
  190.8020  176.6480  142.9470 C   0  0  0  0  0  2  0  0  0  0  0  0
  191.2350  178.0390  143.3900 C   0  0  0  0  0  2  0  0  0  0  0  0
  191.4360  178.1080  144.8980 C   0  0  0  0  0  2  0  0  0  0  0  0
  190.4570  176.8380  146.6500 C   0  0  0  0  0  0  0  0  0  0  0  0
  189.3290  176.9610  147.1920 O   0  0  0  0  0  0  0  0  0  0  0  0
  191.9790  176.6930  146.7340 N   0  0  0  0  0  2  0  0  0  0  0  0
  191.2720  176.7370  145.5330 C   0  0  2  0  0  3  0  0  0  0  0  0
  187.8400  178.4270  139.5480 C   0  0  0  0  0  2  0  0  0  0  0  0
  188.3300  177.0450  139.1560 C   0  0  0  0  0  3  0  0  0  0  0  0
  188.6900  177.0550  137.6850 C   0  0  0  0  0  2  0  0  0  0  0  0
  189.7800  177.1400  138.7280 C   0  0  0  0  0  2  0  0  0  0  0  0
  1  7  1  0  0  0  0
  3  2  1  0  0  0  0
  4 15  1  0  0  0  0
  5 19  1  1  0  0  0
  5  4  1  0  0  0  0
  5 16  1  0  0  0  0
  6  2  2  0  0  0  0
  7 20  1  0  0  0  0
  7 11  2  0  0  0  0
  8 11  1  0  0  0  0
  8 10  1  0  0  0  0
  9  8  2  0  0  0  0
 10  3  1  0  0  0  0
 11  6  1  0  0  0  0
 12  9  1  0  0  0  0
 13  4  2  0  0  0  0
 14 16  2  0  0  0  0
 15  1  2  0  0  0  0
 15  9  1  0  0  0  0
 16 12  1  0  0  0  0
 17 19  1  0  0  0  0
 18 19  2  0  0  0  0
 20 21  1  0  0  0  0
 21 22  1  0  0  0  0
 22 23  1  0  0  0  0
 23 24  1  0  0  0  0
 25 27  1  0  0  0  0
 25 26  2  0  0  0  0
 28 24  1  6  0  0  0
 28 25  1  0  0  0  0
 28 27  1  0  0  0  0
 29  1  1  0  0  0  0
 30 29  1  0  0  0  0
 31 32  1  0  0  0  0
 31 30  1  0  0  0  0
 32 30  1  0  0  0  0
M  END
>  <MODEL>
2

>  <REMARK>
 VINA RESULT:      -8.1      1.622      4.412
  Name = 
  9 active torsions:
  status: ('A' for Active; 'I' for Inactive)
    1  A    between atoms: C_2  and  C_10
    2  A    between atoms: C_2  and  C_12
    3  A    between atoms: C_3  and  C_28
    4  A    between atoms: C_7  and  C_22
    5  A    between atoms: C_8  and  C_28
    6  A    between atoms: C_9  and  C_14
    7  A    between atoms: C_9  and  C_21
    8  A    between atoms: C_10  and  CA_24
    9  A    between atoms: C_12  and  C_21
                            x       y       z     vdW  Elec       q    Type
                         _______ _______ _______ _____ _____    ______ ____

>  <TORSDO>
F 9

$$$$
=
 OpenBabel10272413293D

 32 36  0  0  1  0  0  0  0  0999 V2000
  186.5170  178.5850  140.9580 C   0  0  0  0  0  0  0  0  0  0  0  0
  189.9690  177.0010  144.0240 C   0  0  0  0  0  3  0  0  0  0  0  0
  190.5310  176.1450  142.9240 C   0  0  0  0  0  2  0  0  0  0  0  0
  186.7340  178.2410  138.4360 C   0  0  0  0  0  0  0  0  0  0  0  0
  187.3890  177.5240  137.2990 C   0  0  1  0  0  3  0  0  0  0  0  0
  188.9140  177.7870  143.8000 C   0  0  0  0  0  3  0  0  0  0  0  0
  187.0660  178.4950  142.2550 C   0  0  0  0  0  0  0  0  0  0  0  0
  189.0460  177.4060  141.3440 C   0  0  0  0  0  0  0  0  0  0  0  0
  188.5200  177.5060  140.0450 C   0  0  0  0  0  0  0  0  0  0  0  0
  190.4380  176.8600  141.5760 C   0  0  0  0  0  2  0  0  0  0  0  0
  188.3270  177.9060  142.4450 C   0  0  0  0  0  0  0  0  0  0  0  0
  189.3170  176.9070  138.9070 C   0  0  0  0  0  2  0  0  0  0  0  0
  185.7450  178.9740  138.1720 O   0  0  0  0  0  0  0  0  0  0  0  0
  189.6510  177.4990  136.6550 O   0  0  0  0  0  0  0  0  0  0  0  0
  187.2470  178.1020  139.8370 C   0  0  0  0  0  0  0  0  0  0  0  0
  188.8480  177.3500  137.5600 C   0  0  0  0  0  0  0  0  0  0  0  0
  185.5080  176.1820  136.7130 O   0  0  0  0  0  0  0  0  0  0  0  0
  187.4410  175.0220  137.1290 O   0  0  0  0  0  1  0  0  0  0  0  0
  186.7240  176.2100  137.0350 C   0  0  0  0  0  0  0  0  0  0  0  0
  186.2920  179.0010  143.4410 C   0  0  0  0  0  2  0  0  0  0  0  0
  185.7090  177.8380  144.2220 C   0  0  0  0  0  2  0  0  0  0  0  0
  184.9240  178.3710  145.4050 C   0  0  0  0  0  2  0  0  0  0  0  0
  185.8660  178.7970  146.5220 C   0  0  0  0  0  2  0  0  0  0  0  0
  186.8830  177.7090  146.8420 C   0  0  0  0  0  2  0  0  0  0  0  0
  189.0330  177.2850  147.7560 C   0  0  0  0  0  0  0  0  0  0  0  0
  189.9140  176.4700  147.3810 O   0  0  0  0  0  0  0  0  0  0  0  0
  188.1540  177.9060  148.8450 N   0  0  0  0  0  2  0  0  0  0  0  0
  188.1170  178.2950  147.5070 C   0  0  2  0  0  3  0  0  0  0  0  0
  185.1330  179.1510  140.8020 C   0  0  0  0  0  2  0  0  0  0  0  0
  184.0950  178.0590  140.9880 C   0  0  0  0  0  3  0  0  0  0  0  0
  182.9360  178.6200  141.7860 C   0  0  0  0  0  2  0  0  0  0  0  0
  182.8170  178.4710  140.2860 C   0  0  0  0  0  2  0  0  0  0  0  0
  1  7  1  0  0  0  0
  3  2  1  0  0  0  0
  4 15  1  0  0  0  0
  5 19  1  1  0  0  0
  5 16  1  0  0  0  0
  5  4  1  0  0  0  0
  6  2  2  0  0  0  0
  7 11  2  0  0  0  0
  7 20  1  0  0  0  0
  8 10  1  0  0  0  0
  8 11  1  0  0  0  0
  9  8  2  0  0  0  0
 10  3  1  0  0  0  0
 11  6  1  0  0  0  0
 12  9  1  0  0  0  0
 13  4  2  0  0  0  0
 14 16  2  0  0  0  0
 15  9  1  0  0  0  0
 15  1  2  0  0  0  0
 16 12  1  0  0  0  0
 17 19  2  0  0  0  0
 19 18  1  0  0  0  0
 20 21  1  0  0  0  0
 21 22  1  0  0  0  0
 22 23  1  0  0  0  0
 23 24  1  0  0  0  0
 25 27  1  0  0  0  0
 26 25  2  0  0  0  0
 28 24  1  6  0  0  0
 28 25  1  0  0  0  0
 28 27  1  0  0  0  0
 29  1  1  0  0  0  0
 29 30  1  0  0  0  0
 30 31  1  0  0  0  0
 32 30  1  0  0  0  0
 32 31  1  0  0  0  0
M  END
>  <MODEL>
3

>  <REMARK>
 VINA RESULT:      -8.0      2.445      4.519
  Name = 
  9 active torsions:
  status: ('A' for Active; 'I' for Inactive)
    1  A    between atoms: C_2  and  C_10
    2  A    between atoms: C_2  and  C_12
    3  A    between atoms: C_3  and  C_28
    4  A    between atoms: C_7  and  C_22
    5  A    between atoms: C_8  and  C_28
    6  A    between atoms: C_9  and  C_14
    7  A    between atoms: C_9  and  C_21
    8  A    between atoms: C_10  and  CA_24
    9  A    between atoms: C_12  and  C_21
                            x       y       z     vdW  Elec       q    Type
                         _______ _______ _______ _____ _____    ______ ____

>  <TORSDO>
F 9

$$$$
=
 OpenBabel10272413293D

 32 36  0  0  1  0  0  0  0  0999 V2000
  186.1630  178.0340  142.5300 C   0  0  0  0  0  0  0  0  0  0  0  0
  189.8620  177.7940  139.3540 C   0  0  0  0  0  3  0  0  0  0  0  0
  188.8710  177.7640  138.2260 C   0  0  0  0  0  2  0  0  0  0  0  0
  183.8030  178.6360  141.7620 C   0  0  0  0  0  0  0  0  0  0  0  0
  182.8240  178.7770  140.6400 C   0  0  1  0  0  3  0  0  0  0  0  0
  189.4480  177.8910  140.6190 C   0  0  0  0  0  3  0  0  0  0  0  0
  187.5380  177.8820  142.2490 C   0  0  0  0  0  0  0  0  0  0  0  0
  187.1190  178.3970  139.9050 C   0  0  0  0  0  0  0  0  0  0  0  0
  185.7500  178.5700  140.1740 C   0  0  0  0  0  0  0  0  0  0  0  0
  187.6770  178.6710  138.5260 C   0  0  0  0  0  2  0  0  0  0  0  0
  188.0110  178.0630  140.9390 C   0  0  0  0  0  0  0  0  0  0  0  0
  184.8310  178.8820  139.0130 C   0  0  0  0  0  2  0  0  0  0  0  0
  183.3620  178.7400  142.9370 O   0  0  0  0  0  0  0  0  0  0  0  0
  182.8960  180.1970  138.7660 O   0  0  0  0  0  0  0  0  0  0  0  0
  185.2570  178.3940  141.4950 C   0  0  0  0  0  0  0  0  0  0  0  0
  183.4850  179.3680  139.4400 C   0  0  0  0  0  0  0  0  0  0  0  0
  182.8970  176.5020  139.9310 O   0  0  0  0  0  0  0  0  0  0  0  0
  180.8090  177.2950  140.4440 O   0  0  0  0  0  1  0  0  0  0  0  0
  182.1830  177.4640  140.3150 C   0  0  0  0  0  0  0  0  0  0  0  0
  188.4950  177.4970  143.3420 C   0  0  0  0  0  2  0  0  0  0  0  0
  188.6940  175.9930  143.3610 C   0  0  0  0  0  2  0  0  0  0  0  0
  190.1270  175.6700  142.9860 C   0  0  0  0  0  2  0  0  0  0  0  0
  191.0870  176.6420  143.6590 C   0  0  0  0  0  2  0  0  0  0  0  0
  191.5820  176.1050  144.9950 C   0  0  0  0  0  2  0  0  0  0  0  0
  191.7040  176.5450  147.3250 C   0  0  0  0  0  0  0  0  0  0  0  0
  192.5880  176.2130  148.1550 O   0  0  0  0  0  0  0  0  0  0  0  0
  190.2400  176.6370  146.8870 N   0  0  0  0  0  2  0  0  0  0  0  0
  191.3070  177.0930  146.1160 C   0  0  2  0  0  3  0  0  0  0  0  0
  185.6820  177.7590  143.9280 C   0  0  0  0  0  2  0  0  0  0  0  0
  186.0300  178.9210  144.8400 C   0  0  0  0  0  3  0  0  0  0  0  0
  185.0660  178.9280  146.0080 C   0  0  0  0  0  2  0  0  0  0  0  0
  186.4620  178.3770  146.1870 C   0  0  0  0  0  2  0  0  0  0  0  0
  1 29  1  0  0  0  0
  2  6  2  0  0  0  0
  3 10  1  0  0  0  0
  3  2  1  0  0  0  0
  4 13  2  0  0  0  0
  5 19  1  6  0  0  0
  5  4  1  0  0  0  0
  6 11  1  0  0  0  0
  7  1  1  0  0  0  0
  7 20  1  0  0  0  0
  8  9  2  0  0  0  0
  8 11  1  0  0  0  0
  9 15  1  0  0  0  0
 10  8  1  0  0  0  0
 11  7  2  0  0  0  0
 12 16  1  0  0  0  0
 12  9  1  0  0  0  0
 14 16  2  0  0  0  0
 15  4  1  0  0  0  0
 15  1  2  0  0  0  0
 16  5  1  0  0  0  0
 17 19  2  0  0  0  0
 19 18  1  0  0  0  0
 20 21  1  0  0  0  0
 22 21  1  0  0  0  0
 22 23  1  0  0  0  0
 23 24  1  0  0  0  0
 25 26  2  0  0  0  0
 27 25  1  0  0  0  0
 28 24  1  6  0  0  0
 28 27  1  0  0  0  0
 28 25  1  0  0  0  0
 29 30  1  0  0  0  0
 30 31  1  0  0  0  0
 30 32  1  0  0  0  0
 31 32  1  0  0  0  0
M  END
>  <MODEL>
4

>  <REMARK>
 VINA RESULT:      -8.0      1.074      1.352
  Name = 
  9 active torsions:
  status: ('A' for Active; 'I' for Inactive)
    1  A    between atoms: C_2  and  C_10
    2  A    between atoms: C_2  and  C_12
    3  A    between atoms: C_3  and  C_28
    4  A    between atoms: C_7  and  C_22
    5  A    between atoms: C_8  and  C_28
    6  A    between atoms: C_9  and  C_14
    7  A    between atoms: C_9  and  C_21
    8  A    between atoms: C_10  and  CA_24
    9  A    between atoms: C_12  and  C_21
                            x       y       z     vdW  Elec       q    Type
                         _______ _______ _______ _____ _____    ______ ____

>  <TORSDO>
F 9

$$$$
=
 OpenBabel10272413293D

 32 36  0  0  1  0  0  0  0  0999 V2000
  187.8610  177.1210  144.8260 C   0  0  0  0  0  0  0  0  0  0  0  0
  190.3870  177.5030  140.6680 C   0  0  0  0  0  3  0  0  0  0  0  0
  191.6480  177.6710  141.4670 C   0  0  0  0  0  2  0  0  0  0  0  0
  189.0390  176.6810  147.0490 C   0  0  0  0  0  0  0  0  0  0  0  0
  190.3080  176.6770  147.8420 C   0  0  1  0  0  3  0  0  0  0  0  0
  189.2170  177.3100  141.2790 C   0  0  0  0  0  3  0  0  0  0  0  0
  187.9100  177.2460  143.4210 C   0  0  0  0  0  0  0  0  0  0  0  0
  190.3280  176.9580  143.4770 C   0  0  0  0  0  0  0  0  0  0  0  0
  190.2920  176.8130  144.8750 C   0  0  0  0  0  0  0  0  0  0  0  0
  191.6230  176.7870  142.7150 C   0  0  0  0  0  2  0  0  0  0  0  0
  189.1410  177.1650  142.7520 C   0  0  0  0  0  0  0  0  0  0  0  0
  191.6060  176.6420  145.6060 C   0  0  0  0  0  2  0  0  0  0  0  0
  187.9610  176.4890  147.6720 O   0  0  0  0  0  0  0  0  0  0  0  0
  192.2720  175.4280  147.5070 O   0  0  0  0  0  0  0  0  0  0  0  0
  189.0530  176.8900  145.5660 C   0  0  0  0  0  0  0  0  0  0  0  0
  191.4410  176.1710  147.0140 C   0  0  0  0  0  0  0  0  0  0  0  0
  189.7230  178.9340  148.3390 O   0  0  0  0  0  0  0  0  0  0  0  0
  191.8360  178.3130  148.9730 O   0  0  0  0  0  1  0  0  0  0  0  0
  190.6040  178.0370  148.3920 C   0  0  0  0  0  0  0  0  0  0  0  0
  186.6500  177.4960  142.6400 C   0  0  0  0  0  2  0  0  0  0  0  0
  186.6310  178.9190  142.1140 C   0  0  0  0  0  2  0  0  0  0  0  0
  185.2300  179.4840  142.2430 C   0  0  0  0  0  2  0  0  0  0  0  0
  184.2090  178.3600  142.3490 C   0  0  0  0  0  2  0  0  0  0  0  0
  183.1040  178.5090  141.3110 C   0  0  0  0  0  2  0  0  0  0  0  0
  183.8120  179.2700  139.1760 C   0  0  0  0  0  0  0  0  0  0  0  0
  184.4820  180.2900  138.8730 O   0  0  0  0  0  0  0  0  0  0  0  0
  182.5960  178.3580  138.9900 N   0  0  0  0  0  2  0  0  0  0  0  0
  183.6010  178.1250  139.9270 C   0  0  2  0  0  3  0  0  0  0  0  0
  186.5350  177.2890  145.5160 C   0  0  0  0  0  2  0  0  0  0  0  0
  186.2690  178.7580  145.7890 C   0  0  0  0  0  3  0  0  0  0  0  0
  184.7720  178.9890  145.7950 C   0  0  0  0  0  2  0  0  0  0  0  0
  185.5240  178.8880  147.1020 C   0  0  0  0  0  2  0  0  0  0  0  0
  1 29  1  0  0  0  0
  1 15  1  0  0  0  0
  2  6  2  0  0  0  0
  2  3  1  0  0  0  0
  3 10  1  0  0  0  0
  4 13  2  0  0  0  0
  4  5  1  0  0  0  0
  5 19  1  6  0  0  0
  6 11  1  0  0  0  0
  7  1  2  0  0  0  0
  8  9  1  0  0  0  0
  9 15  2  0  0  0  0
  9 12  1  0  0  0  0
 10  8  1  0  0  0  0
 11  7  1  0  0  0  0
 11  8  2  0  0  0  0
 12 16  1  0  0  0  0
 15  4  1  0  0  0  0
 16 14  2  0  0  0  0
 16  5  1  0  0  0  0
 17 19  2  0  0  0  0
 19 18  1  0  0  0  0
 20  7  1  0  0  0  0
 21 22  1  0  0  0  0
 21 20  1  0  0  0  0
 22 23  1  0  0  0  0
 24 23  1  0  0  0  0
 25 28  1  0  0  0  0
 26 25  2  0  0  0  0
 27 25  1  0  0  0  0
 27 28  1  0  0  0  0
 28 24  1  1  0  0  0
 29 30  1  0  0  0  0
 30 31  1  0  0  0  0
 30 32  1  0  0  0  0
 31 32  1  0  0  0  0
M  END
>  <MODEL>
5

>  <REMARK>
 VINA RESULT:      -8.0      2.937      7.880
  Name = 
  9 active torsions:
  status: ('A' for Active; 'I' for Inactive)
    1  A    between atoms: C_2  and  C_10
    2  A    between atoms: C_2  and  C_12
    3  A    between atoms: C_3  and  C_28
    4  A    between atoms: C_7  and  C_22
    5  A    between atoms: C_8  and  C_28
    6  A    between atoms: C_9  and  C_14
    7  A    between atoms: C_9  and  C_21
    8  A    between atoms: C_10  and  CA_24
    9  A    between atoms: C_12  and  C_21
                            x       y       z     vdW  Elec       q    Type
                         _______ _______ _______ _____ _____    ______ ____

>  <TORSDO>
F 9

$$$$
=
 OpenBabel10272413293D

 32 36  0  0  1  0  0  0  0  0999 V2000
  188.1660  178.4130  142.3470 C   0  0  0  0  0  0  0  0  0  0  0  0
  184.4600  178.4320  145.5240 C   0  0  0  0  0  3  0  0  0  0  0  0
  185.2580  177.5440  146.4360 C   0  0  0  0  0  2  0  0  0  0  0  0
  190.4950  177.6290  143.0430 C   0  0  0  0  0  0  0  0  0  0  0  0
  191.3530  176.8880  144.0190 C   0  0  1  0  0  3  0  0  0  0  0  0
  184.9760  178.8580  144.3700 C   0  0  0  0  0  3  0  0  0  0  0  0
  186.8340  178.7350  142.6850 C   0  0  0  0  0  0  0  0  0  0  0  0
  187.2420  178.0300  144.9810 C   0  0  0  0  0  0  0  0  0  0  0  0
  188.5760  177.7230  144.6640 C   0  0  0  0  0  0  0  0  0  0  0  0
  186.7400  177.9190  146.4030 C   0  0  0  0  0  2  0  0  0  0  0  0
  186.3760  178.5420  143.9980 C   0  0  0  0  0  0  0  0  0  0  0  0
  189.4470  177.1300  145.7500 C   0  0  0  0  0  2  0  0  0  0  0  0
  191.0310  178.0130  141.9700 O   0  0  0  0  0  0  0  0  0  0  0  0
  191.7260  177.3150  146.3020 O   0  0  0  0  0  0  0  0  0  0  0  0
  189.0550  177.9160  143.3400 C   0  0  0  0  0  0  0  0  0  0  0  0
  190.9030  177.1520  145.4170 C   0  0  0  0  0  0  0  0  0  0  0  0
  190.4820  174.9320  142.9710 O   0  0  0  0  0  0  0  0  0  0  0  0
  192.3510  174.5990  144.2550 O   0  0  0  0  0  1  0  0  0  0  0  0
  191.3660  175.4220  143.7210 C   0  0  0  0  0  0  0  0  0  0  0  0
  185.8930  179.2560  141.6350 C   0  0  0  0  0  2  0  0  0  0  0  0
  184.8690  178.1950  141.2730 C   0  0  0  0  0  2  0  0  0  0  0  0
  184.2500  178.5310  139.9310 C   0  0  0  0  0  2  0  0  0  0  0  0
  182.7810  178.1350  139.9070 C   0  0  0  0  0  2  0  0  0  0  0  0
  181.8740  179.3540  139.8010 C   0  0  0  0  0  2  0  0  0  0  0  0
  181.1620  178.8920  142.0190 C   0  0  0  0  0  0  0  0  0  0  0  0
  181.7240  179.1630  143.1110 O   0  0  0  0  0  0  0  0  0  0  0  0
  180.4760  177.9050  141.0710 N   0  0  0  0  0  2  0  0  0  0  0  0
  180.7010  179.2450  140.7610 C   0  0  2  0  0  3  0  0  0  0  0  0
  188.5990  178.5610  140.9160 C   0  0  0  0  0  2  0  0  0  0  0  0
  188.3020  177.2880  140.1440 C   0  0  0  0  0  3  0  0  0  0  0  0
  187.8070  177.6610  138.7620 C   0  0  0  0  0  2  0  0  0  0  0  0
  189.2350  177.2040  138.9540 C   0  0  0  0  0  2  0  0  0  0  0  0
  1  7  2  0  0  0  0
  1 15  1  0  0  0  0
  2  3  1  0  0  0  0
  4 15  1  0  0  0  0
  4  5  1  0  0  0  0
  5 19  1  6  0  0  0
  5 16  1  0  0  0  0
  6  2  2  0  0  0  0
  7 11  1  0  0  0  0
  8 10  1  0  0  0  0
  9  8  1  0  0  0  0
  9 12  1  0  0  0  0
 10  3  1  0  0  0  0
 11  6  1  0  0  0  0
 11  8  2  0  0  0  0
 13  4  2  0  0  0  0
 15  9  2  0  0  0  0
 16 12  1  0  0  0  0
 16 14  2  0  0  0  0
 17 19  2  0  0  0  0
 19 18  1  0  0  0  0
 20  7  1  0  0  0  0
 21 20  1  0  0  0  0
 22 21  1  0  0  0  0
 23 22  1  0  0  0  0
 24 23  1  0  0  0  0
 25 26  2  0  0  0  0
 27 25  1  0  0  0  0
 28 24  1  6  0  0  0
 28 27  1  0  0  0  0
 28 25  1  0  0  0  0
 29  1  1  0  0  0  0
 30 29  1  0  0  0  0
 31 32  1  0  0  0  0
 31 30  1  0  0  0  0
 32 30  1  0  0  0  0
M  END
>  <MODEL>
6

>  <REMARK>
 VINA RESULT:      -7.8      3.485      8.487
  Name = 
  9 active torsions:
  status: ('A' for Active; 'I' for Inactive)
    1  A    between atoms: C_2  and  C_10
    2  A    between atoms: C_2  and  C_12
    3  A    between atoms: C_3  and  C_28
    4  A    between atoms: C_7  and  C_22
    5  A    between atoms: C_8  and  C_28
    6  A    between atoms: C_9  and  C_14
    7  A    between atoms: C_9  and  C_21
    8  A    between atoms: C_10  and  CA_24
    9  A    between atoms: C_12  and  C_21
                            x       y       z     vdW  Elec       q    Type
                         _______ _______ _______ _____ _____    ______ ____

>  <TORSDO>
F 9

$$$$
=
 OpenBabel10272413293D

 32 36  0  0  1  0  0  0  0  0999 V2000
  188.3070  178.1950  139.6000 C   0  0  0  0  0  0  0  0  0  0  0  0
  189.4630  177.4260  144.2790 C   0  0  0  0  0  3  0  0  0  0  0  0
  190.5410  176.4770  143.8410 C   0  0  0  0  0  2  0  0  0  0  0  0
  189.8930  177.5070  137.7190 C   0  0  0  0  0  0  0  0  0  0  0  0
  191.0710  176.6980  137.2760 C   0  0  1  0  0  3  0  0  0  0  0  0
  188.7120  178.0640  143.3780 C   0  0  0  0  0  3  0  0  0  0  0  0
  188.0400  178.3520  140.9760 C   0  0  0  0  0  0  0  0  0  0  0  0
  190.1910  177.3400  141.5120 C   0  0  0  0  0  0  0  0  0  0  0  0
  190.4780  177.1950  140.1440 C   0  0  0  0  0  0  0  0  0  0  0  0
  191.2160  176.9730  142.5610 C   0  0  0  0  0  2  0  0  0  0  0  0
  188.9800  177.9240  141.9280 C   0  0  0  0  0  0  0  0  0  0  0  0
  191.7740  176.5160  139.7580 C   0  0  0  0  0  2  0  0  0  0  0  0
  189.2190  178.0930  136.8310 O   0  0  0  0  0  0  0  0  0  0  0  0
  193.3070  176.8010  137.9970 O   0  0  0  0  0  0  0  0  0  0  0  0
  189.5380  177.6260  139.1700 C   0  0  0  0  0  0  0  0  0  0  0  0
  192.1350  176.7080  138.3210 C   0  0  0  0  0  0  0  0  0  0  0  0
  189.9550  175.0940  135.9100 O   0  0  0  0  0  0  0  0  0  0  0  0
  191.0750  174.2270  137.7120 O   0  0  0  0  0  1  0  0  0  0  0  0
  190.6650  175.3000  136.9280 C   0  0  0  0  0  0  0  0  0  0  0  0
  186.7370  178.9480  141.4310 C   0  0  0  0  0  2  0  0  0  0  0  0
  185.9120  177.9100  142.1680 C   0  0  0  0  0  2  0  0  0  0  0  0
  184.5240  178.4610  142.4260 C   0  0  0  0  0  2  0  0  0  0  0  0
  184.3790  178.8840  143.8810 C   0  0  0  0  0  2  0  0  0  0  0  0
  185.5420  178.3830  144.7280 C   0  0  0  0  0  2  0  0  0  0  0  0
  186.3810  178.4060  146.9490 C   0  0  0  0  0  0  0  0  0  0  0  0
  187.4870  177.9990  147.3890 O   0  0  0  0  0  0  0  0  0  0  0  0
  184.8520  178.4620  147.0050 N   0  0  0  0  0  2  0  0  0  0  0  0
  185.6150  179.1300  146.0490 C   0  0  2  0  0  3  0  0  0  0  0  0
  187.2450  178.5950  138.6130 C   0  0  0  0  0  2  0  0  0  0  0  0
  186.2750  177.4480  138.3940 C   0  0  0  0  0  3  0  0  0  0  0  0
  184.8830  178.0170  138.2130 C   0  0  0  0  0  2  0  0  0  0  0  0
  185.6760  177.5670  137.0070 C   0  0  0  0  0  2  0  0  0  0  0  0
  1  7  1  0  0  0  0
  3  2  1  0  0  0  0
  4 15  1  0  0  0  0
  5 19  1  1  0  0  0
  5  4  1  0  0  0  0
  5 16  1  0  0  0  0
  6  2  2  0  0  0  0
  7 20  1  0  0  0  0
  7 11  2  0  0  0  0
  8 11  1  0  0  0  0
  8 10  1  0  0  0  0
  9  8  2  0  0  0  0
 10  3  1  0  0  0  0
 11  6  1  0  0  0  0
 12  9  1  0  0  0  0
 13  4  2  0  0  0  0
 14 16  2  0  0  0  0
 15  1  2  0  0  0  0
 15  9  1  0  0  0  0
 16 12  1  0  0  0  0
 17 19  2  0  0  0  0
 19 18  1  0  0  0  0
 20 21  1  0  0  0  0
 21 22  1  0  0  0  0
 22 23  1  0  0  0  0
 23 24  1  0  0  0  0
 25 27  1  0  0  0  0
 25 26  2  0  0  0  0
 28 24  1  6  0  0  0
 28 25  1  0  0  0  0
 28 27  1  0  0  0  0
 29  1  1  0  0  0  0
 30 29  1  0  0  0  0
 31 30  1  0  0  0  0
 32 31  1  0  0  0  0
 32 30  1  0  0  0  0
M  END
>  <MODEL>
7

>  <REMARK>
 VINA RESULT:      -7.7      3.649      6.660
  Name = 
  9 active torsions:
  status: ('A' for Active; 'I' for Inactive)
    1  A    between atoms: C_2  and  C_10
    2  A    between atoms: C_2  and  C_12
    3  A    between atoms: C_3  and  C_28
    4  A    between atoms: C_7  and  C_22
    5  A    between atoms: C_8  and  C_28
    6  A    between atoms: C_9  and  C_14
    7  A    between atoms: C_9  and  C_21
    8  A    between atoms: C_10  and  CA_24
    9  A    between atoms: C_12  and  C_21
                            x       y       z     vdW  Elec       q    Type
                         _______ _______ _______ _____ _____    ______ ____

>  <TORSDO>
F 9

$$$$
=
 OpenBabel10272413293D

 32 36  0  0  1  0  0  0  0  0999 V2000
  185.2800  178.2920  141.5920 C   0  0  0  0  0  0  0  0  0  0  0  0
  189.0600  178.2390  138.5040 C   0  0  0  0  0  3  0  0  0  0  0  0
  188.1260  177.8590  137.3910 C   0  0  0  0  0  2  0  0  0  0  0  0
  182.8750  178.3340  140.7310 C   0  0  0  0  0  0  0  0  0  0  0  0
  181.9220  178.1230  139.5970 C   0  0  1  0  0  3  0  0  0  0  0  0
  188.5960  178.4520  139.7370 C   0  0  0  0  0  3  0  0  0  0  0  0
  186.6670  178.3480  141.3420 C   0  0  0  0  0  0  0  0  0  0  0  0
  186.2370  178.4150  138.9450 C   0  0  0  0  0  0  0  0  0  0  0  0
  184.8520  178.3780  139.1790 C   0  0  0  0  0  0  0  0  0  0  0  0
  186.7800  178.5710  137.5420 C   0  0  0  0  0  2  0  0  0  0  0  0
  187.1420  178.4090  140.0220 C   0  0  0  0  0  0  0  0  0  0  0  0
  183.9290  178.3380  137.9810 C   0  0  0  0  0  2  0  0  0  0  0  0
  182.3860  178.5360  141.8740 O   0  0  0  0  0  0  0  0  0  0  0  0
  181.8000  179.2300  137.5260 O   0  0  0  0  0  0  0  0  0  0  0  0
  184.3570  178.3200  140.5100 C   0  0  0  0  0  0  0  0  0  0  0  0
  182.5050  178.6330  138.3220 C   0  0  0  0  0  0  0  0  0  0  0  0
  182.3870  175.7880  139.7140 O   0  0  0  0  0  1  0  0  0  0  0  0
  180.2390  176.3250  139.1240 O   0  0  0  0  0  0  0  0  0  0  0  0
  181.5340  176.6830  139.4790 C   0  0  0  0  0  0  0  0  0  0  0  0
  187.6430  178.3140  142.4850 C   0  0  0  0  0  2  0  0  0  0  0  0
  188.1490  176.8990  142.7010 C   0  0  0  0  0  2  0  0  0  0  0  0
  188.0220  176.5390  144.1680 C   0  0  0  0  0  2  0  0  0  0  0  0
  188.2830  177.7570  145.0420 C   0  0  0  0  0  2  0  0  0  0  0  0
  189.4510  177.5240  145.9910 C   0  0  0  0  0  2  0  0  0  0  0  0
  191.6050  176.5410  146.1820 C   0  0  0  0  0  0  0  0  0  0  0  0
  192.0650  175.7950  147.0830 O   0  0  0  0  0  0  0  0  0  0  0  0
  191.7070  177.7680  145.2720 N   0  0  0  0  0  2  0  0  0  0  0  0
  190.6250  176.8900  145.2650 C   0  0  2  0  0  3  0  0  0  0  0  0
  184.8110  178.1510  143.0130 C   0  0  0  0  0  2  0  0  0  0  0  0
  184.8500  179.4970  143.7140 C   0  0  0  0  0  3  0  0  0  0  0  0
  183.7580  179.5330  144.7620 C   0  0  0  0  0  2  0  0  0  0  0  0
  185.1900  179.2820  145.1740 C   0  0  0  0  0  2  0  0  0  0  0  0
  1 29  1  0  0  0  0
  2  6  2  0  0  0  0
  3 10  1  0  0  0  0
  3  2  1  0  0  0  0
  4 13  2  0  0  0  0
  5 19  1  6  0  0  0
  5  4  1  0  0  0  0
  6 11  1  0  0  0  0
  7  1  1  0  0  0  0
  7 20  1  0  0  0  0
  8  9  2  0  0  0  0
  8 11  1  0  0  0  0
  9 15  1  0  0  0  0
 10  8  1  0  0  0  0
 11  7  2  0  0  0  0
 12 16  1  0  0  0  0
 12  9  1  0  0  0  0
 14 16  2  0  0  0  0
 15  4  1  0  0  0  0
 15  1  2  0  0  0  0
 16  5  1  0  0  0  0
 18 19  2  0  0  0  0
 19 17  1  0  0  0  0
 20 21  1  0  0  0  0
 21 22  1  0  0  0  0
 22 23  1  0  0  0  0
 23 24  1  0  0  0  0
 25 26  2  0  0  0  0
 27 25  1  0  0  0  0
 28 27  1  0  0  0  0
 28 24  1  1  0  0  0
 28 25  1  0  0  0  0
 29 30  1  0  0  0  0
 30 31  1  0  0  0  0
 30 32  1  0  0  0  0
 31 32  1  0  0  0  0
M  END
>  <MODEL>
8

>  <REMARK>
 VINA RESULT:      -7.6      1.627      2.409
  Name = 
  9 active torsions:
  status: ('A' for Active; 'I' for Inactive)
    1  A    between atoms: C_2  and  C_10
    2  A    between atoms: C_2  and  C_12
    3  A    between atoms: C_3  and  C_28
    4  A    between atoms: C_7  and  C_22
    5  A    between atoms: C_8  and  C_28
    6  A    between atoms: C_9  and  C_14
    7  A    between atoms: C_9  and  C_21
    8  A    between atoms: C_10  and  CA_24
    9  A    between atoms: C_12  and  C_21
                            x       y       z     vdW  Elec       q    Type
                         _______ _______ _______ _____ _____    ______ ____

>  <TORSDO>
F 9

$$$$
=
 OpenBabel10272413293D

 32 36  0  0  1  0  0  0  0  0999 V2000
  186.7930  178.4130  139.6570 C   0  0  0  0  0  0  0  0  0  0  0  0
  188.9010  177.3360  143.9250 C   0  0  0  0  0  3  0  0  0  0  0  0
  189.7990  176.3610  143.2180 C   0  0  0  0  0  2  0  0  0  0  0  0
  187.8840  177.7520  137.4430 C   0  0  0  0  0  0  0  0  0  0  0  0
  188.8850  176.9130  136.7160 C   0  0  1  0  0  3  0  0  0  0  0  0
  188.0100  178.0570  143.2420 C   0  0  0  0  0  3  0  0  0  0  0  0
  186.8450  178.5070  141.0640 C   0  0  0  0  0  0  0  0  0  0  0  0
  188.9970  177.3660  141.0640 C   0  0  0  0  0  0  0  0  0  0  0  0
  188.9680  177.2810  139.6620 C   0  0  0  0  0  0  0  0  0  0  0  0
  190.2050  176.8930  141.8430 C   0  0  0  0  0  2  0  0  0  0  0  0
  187.9440  177.9830  141.7630 C   0  0  0  0  0  0  0  0  0  0  0  0
  190.1050  176.5630  138.9690 C   0  0  0  0  0  2  0  0  0  0  0  0
  187.0680  178.4170  136.7520 O   0  0  0  0  0  0  0  0  0  0  0  0
  191.2280  176.8680  136.9240 O   0  0  0  0  0  0  0  0  0  0  0  0
  187.8640  177.8100  138.9410 C   0  0  0  0  0  0  0  0  0  0  0  0
  190.1530  176.8140  137.4970 C   0  0  0  0  0  0  0  0  0  0  0  0
  189.1150  174.5830  136.2650 O   0  0  0  0  0  0  0  0  0  0  0  0
  186.9600  175.3630  136.2900 O   0  0  0  0  0  1  0  0  0  0  0  0
  188.3310  175.5570  136.4080 C   0  0  0  0  0  0  0  0  0  0  0  0
  185.7120  179.1410  141.8220 C   0  0  0  0  0  2  0  0  0  0  0  0
  184.8210  178.0710  142.4260 C   0  0  0  0  0  2  0  0  0  0  0  0
  183.6590  178.7300  143.1420 C   0  0  0  0  0  2  0  0  0  0  0  0
  184.1350  179.4120  144.4170 C   0  0  0  0  0  2  0  0  0  0  0  0
  184.8810  178.4430  145.3250 C   0  0  0  0  0  2  0  0  0  0  0  0
  186.6470  178.2440  146.9000 C   0  0  0  0  0  0  0  0  0  0  0  0
  187.4740  177.3100  147.0590 O   0  0  0  0  0  0  0  0  0  0  0  0
  185.6120  179.2300  147.4490 N   0  0  0  0  0  2  0  0  0  0  0  0
  185.9720  179.1570  146.1050 C   0  0  2  0  0  3  0  0  0  0  0  0
  185.5660  178.9170  138.9480 C   0  0  0  0  0  2  0  0  0  0  0  0
  184.5020  177.8350  138.9110 C   0  0  0  0  0  3  0  0  0  0  0  0
  183.1420  178.4860  139.0550 C   0  0  0  0  0  2  0  0  0  0  0  0
  183.6270  178.0470  137.6920 C   0  0  0  0  0  2  0  0  0  0  0  0
  1  7  1  0  0  0  0
  3  2  1  0  0  0  0
  4 15  1  0  0  0  0
  5 19  1  1  0  0  0
  5  4  1  0  0  0  0
  5 16  1  0  0  0  0
  6  2  2  0  0  0  0
  7 11  2  0  0  0  0
  7 20  1  0  0  0  0
  8 11  1  0  0  0  0
  8 10  1  0  0  0  0
  9  8  2  0  0  0  0
 10  3  1  0  0  0  0
 11  6  1  0  0  0  0
 12  9  1  0  0  0  0
 13  4  2  0  0  0  0
 14 16  2  0  0  0  0
 15  1  2  0  0  0  0
 15  9  1  0  0  0  0
 16 12  1  0  0  0  0
 17 19  2  0  0  0  0
 18 19  1  0  0  0  0
 20 21  1  0  0  0  0
 21 22  1  0  0  0  0
 22 23  1  0  0  0  0
 23 24  1  0  0  0  0
 25 26  2  0  0  0  0
 25 27  1  0  0  0  0
 28 24  1  6  0  0  0
 28 25  1  0  0  0  0
 28 27  1  0  0  0  0
 29  1  1  0  0  0  0
 30 29  1  0  0  0  0
 30 31  1  0  0  0  0
 32 30  1  0  0  0  0
 32 31  1  0  0  0  0
M  END
>  <MODEL>
9

>  <REMARK>
 VINA RESULT:      -7.5      3.246      5.987
  Name = 
  9 active torsions:
  status: ('A' for Active; 'I' for Inactive)
    1  A    between atoms: C_2  and  C_10
    2  A    between atoms: C_2  and  C_12
    3  A    between atoms: C_3  and  C_28
    4  A    between atoms: C_7  and  C_22
    5  A    between atoms: C_8  and  C_28
    6  A    between atoms: C_9  and  C_14
    7  A    between atoms: C_9  and  C_21
    8  A    between atoms: C_10  and  CA_24
    9  A    between atoms: C_12  and  C_21
                            x       y       z     vdW  Elec       q    Type
                         _______ _______ _______ _____ _____    ______ ____

>  <TORSDO>
F 9

$$$$
