=
 OpenBabel10272402003D

 28 29  0  0  1  0  0  0  0  0999 V2000
  190.3050  175.3150  142.6560 O   0  0  0  0  0  1  0  0  0  0  0  0
  188.7010  177.3950  141.1940 C   0  0  0  0  0  2  0  0  0  0  0  0
  190.5550  177.5820  143.4410 C   0  0  2  0  0  3  0  0  0  0  0  0
  188.6210  178.5490  142.1840 C   0  0  0  0  0  2  0  0  0  0  0  0
  190.7800  176.5780  142.2960 C   0  0  2  0  0  3  0  0  0  0  0  0
  190.1580  177.0450  140.9810 C   0  0  1  0  0  3  0  0  0  0  0  0
  189.2150  178.2180  143.4950 N   0  0  0  0  0  0  0  0  0  0  0  0
  188.2580  177.5830  144.4430 C   0  0  1  0  0  0  0  0  0  0  0  0
  187.4700  176.4770  143.7540 C   0  0  0  0  0  1  0  0  0  0  0  0
  188.9860  176.9070  145.6220 C   0  0  0  0  0  2  0  0  0  0  0  0
  189.1400  177.7790  146.7030 O   0  0  0  0  0  0  0  0  0  0  0  0
  188.5600  177.1070  147.7780 C   0  0  0  0  0  1  0  0  0  0  0  0
  187.3020  178.5190  144.9220 O   0  0  0  0  0  0  0  0  0  0  0  0
  186.0350  177.9170  145.0310 C   0  0  0  0  0  2  0  0  0  0  0  0
  185.3510  178.3590  146.3140 C   0  0  1  0  0  3  0  0  0  0  0  0
  186.1190  179.3120  146.9560 F   0  0  0  0  0  0  0  0  0  0  0  0
  184.0910  178.8840  146.0280 O   0  0  0  0  0  1  0  0  0  0  0  0
  191.2560  179.8510  144.3280 C   0  0  0  0  0  1  0  0  0  0  0  0
  191.6740  178.6160  143.5460 C   0  0  0  0  0  2  0  0  0  0  0  0
  190.2780  176.0540  140.0030 O   0  0  0  0  0  0  0  0  0  0  0  0
  190.6990  176.7290  138.8540 C   0  0  0  0  0  2  0  0  0  0  0  0
  188.2310  178.7480  136.8130 C   0  0  0  0  0  3  0  0  0  0  0  0
  189.5210  177.0870  138.0190 C   0  0  0  0  0  0  0  0  0  0  0  0
  187.5440  176.4260  136.7840 C   0  0  0  0  0  0  0  0  0  0  0  0
  189.3220  178.4150  137.6220 C   0  0  0  0  0  3  0  0  0  0  0  0
  188.6350  176.0920  137.5920 C   0  0  0  0  0  3  0  0  0  0  0  0
  186.4330  175.1810  136.2570 Cl  0  0  0  0  0  0  0  0  0  0  0  0
  187.3420  177.7540  136.3950 C   0  0  0  0  0  3  0  0  0  0  0  0
  2  4  1  0  0  0  0
  3  7  1  0  0  0  0
  3 19  1  6  0  0  0
  4  7  1  0  0  0  0
  5  1  1  1  0  0  0
  5  3  1  0  0  0  0
  6 20  1  6  0  0  0
  6  2  1  0  0  0  0
  6  5  1  0  0  0  0
  7  8  1  0  0  0  0
  8  9  1  6  0  0  0
  8 13  1  0  0  0  0
  8 10  1  0  0  0  0
 10 11  1  0  0  0  0
 11 12  1  0  0  0  0
 13 14  1  0  0  0  0
 14 15  1  0  0  0  0
 15 17  1  6  0  0  0
 15 16  1  0  0  0  0
 19 18  1  0  0  0  0
 21 20  1  0  0  0  0
 22 25  1  0  0  0  0
 23 21  1  0  0  0  0
 24 26  2  0  0  0  0
 25 23  2  0  0  0  0
 26 23  1  0  0  0  0
 27 24  1  0  0  0  0
 28 24  1  0  0  0  0
 28 22  2  0  0  0  0
M  END
>  <MODEL>
1

>  <REMARK>
 VINA RESULT:      -6.7      0.000      0.000
  Name = 
  10 active torsions:
  status: ('A' for Active; 'I' for Inactive)
    1  A    between atoms: C_1  and  C_3
    2  A    between atoms: C_1  and  O_11
    3  A    between atoms: C_1  and  N_27
    4  A    between atoms: O_2  and  C_3
    5  A    between atoms: C_6  and  C_8
    6  A    between atoms: C_8  and  O_11
    7  A    between atoms: C_9  and  C_18
    8  A    between atoms: O_14  and  C_18
    9  A    between atoms: O_14  and  C_25
   10  A    between atoms: C_16  and  C_21
                            x       y       z     vdW  Elec       q    Type
                         _______ _______ _______ _____ _____    ______ ____

>  <TORSDO>
F 10

$$$$
=
 OpenBabel10272402003D

 28 29  0  0  1  0  0  0  0  0999 V2000
  190.3570  175.3130  142.6710 O   0  0  0  0  0  1  0  0  0  0  0  0
  188.7790  177.4070  141.1990 C   0  0  0  0  0  2  0  0  0  0  0  0
  190.5730  177.5690  143.4960 C   0  0  2  0  0  3  0  0  0  0  0  0
  188.6670  178.5440  142.2040 C   0  0  0  0  0  2  0  0  0  0  0  0
  190.8340  176.5830  142.3430 C   0  0  2  0  0  3  0  0  0  0  0  0
  190.2440  177.0670  141.0190 C   0  0  1  0  0  3  0  0  0  0  0  0
  189.2290  178.1970  143.5250 N   0  0  0  0  0  0  0  0  0  0  0  0
  188.2510  177.5430  144.4380 C   0  0  1  0  0  0  0  0  0  0  0  0
  187.4570  176.4730  143.7010 C   0  0  0  0  0  1  0  0  0  0  0  0
  188.9550  176.8150  145.6010 C   0  0  0  0  0  2  0  0  0  0  0  0
  189.1970  177.6730  146.6770 O   0  0  0  0  0  0  0  0  0  0  0  0
  190.2800  177.1010  147.3420 C   0  0  0  0  0  1  0  0  0  0  0  0
  187.3030  178.4750  144.9380 O   0  0  0  0  0  0  0  0  0  0  0  0
  186.0440  177.8640  145.0890 C   0  0  0  0  0  2  0  0  0  0  0  0
  185.3300  178.4220  146.3080 C   0  0  1  0  0  3  0  0  0  0  0  0
  186.1120  179.3880  146.9140 F   0  0  0  0  0  0  0  0  0  0  0  0
  184.1050  178.9740  145.9340 O   0  0  0  0  0  1  0  0  0  0  0  0
  191.2200  179.8560  144.3790 C   0  0  0  0  0  1  0  0  0  0  0  0
  191.6840  178.6070  143.6470 C   0  0  0  0  0  2  0  0  0  0  0  0
  190.3940  176.0910  140.0300 O   0  0  0  0  0  0  0  0  0  0  0  0
  190.8710  176.7820  138.9120 C   0  0  0  0  0  2  0  0  0  0  0  0
  194.0140  175.2560  137.4540 C   0  0  0  0  0  3  0  0  0  0  0  0
  191.7760  175.9020  138.1240 C   0  0  0  0  0  0  0  0  0  0  0  0
  192.1020  174.0050  136.6510 C   0  0  0  0  0  0  0  0  0  0  0  0
  193.1610  176.1010  138.1710 C   0  0  0  0  0  3  0  0  0  0  0  0
  191.2480  174.8480  137.3690 C   0  0  0  0  0  3  0  0  0  0  0  0
  191.4400  172.6910  135.7040 Cl  0  0  0  0  0  0  0  0  0  0  0  0
  193.4850  174.2100  136.6940 C   0  0  0  0  0  3  0  0  0  0  0  0
  2  4  1  0  0  0  0
  3  7  1  0  0  0  0
  3 19  1  6  0  0  0
  4  7  1  0  0  0  0
  5  1  1  1  0  0  0
  5  3  1  0  0  0  0
  6 20  1  6  0  0  0
  6  2  1  0  0  0  0
  6  5  1  0  0  0  0
  7  8  1  0  0  0  0
  8  9  1  6  0  0  0
  8 13  1  0  0  0  0
  8 10  1  0  0  0  0
 10 11  1  0  0  0  0
 11 12  1  0  0  0  0
 13 14  1  0  0  0  0
 14 15  1  0  0  0  0
 15 17  1  6  0  0  0
 15 16  1  0  0  0  0
 19 18  1  0  0  0  0
 21 20  1  0  0  0  0
 22 25  1  0  0  0  0
 23 25  2  0  0  0  0
 23 21  1  0  0  0  0
 24 28  1  0  0  0  0
 24 26  2  0  0  0  0
 26 23  1  0  0  0  0
 27 24  1  0  0  0  0
 28 22  2  0  0  0  0
M  END
>  <MODEL>
2

>  <REMARK>
 VINA RESULT:      -6.5      1.911      2.627
  Name = 
  10 active torsions:
  status: ('A' for Active; 'I' for Inactive)
    1  A    between atoms: C_1  and  C_3
    2  A    between atoms: C_1  and  O_11
    3  A    between atoms: C_1  and  N_27
    4  A    between atoms: O_2  and  C_3
    5  A    between atoms: C_6  and  C_8
    6  A    between atoms: C_8  and  O_11
    7  A    between atoms: C_9  and  C_18
    8  A    between atoms: O_14  and  C_18
    9  A    between atoms: O_14  and  C_25
   10  A    between atoms: C_16  and  C_21
                            x       y       z     vdW  Elec       q    Type
                         _______ _______ _______ _____ _____    ______ ____

>  <TORSDO>
F 10

$$$$
=
 OpenBabel10272402003D

 28 29  0  0  1  0  0  0  0  0999 V2000
  190.6480  179.2350  143.7550 O   0  0  0  0  0  1  0  0  0  0  0  0
  190.1000  176.2850  143.9420 C   0  0  0  0  0  2  0  0  0  0  0  0
  191.2420  177.9280  141.8170 C   0  0  2  0  0  3  0  0  0  0  0  0
  190.0470  175.8370  142.4890 C   0  0  0  0  0  2  0  0  0  0  0  0
  191.5110  178.2360  143.3020 C   0  0  2  0  0  3  0  0  0  0  0  0
  191.4190  176.9890  144.1800 C   0  0  1  0  0  3  0  0  0  0  0  0
  190.1490  176.9630  141.5390 N   0  0  0  0  0  0  0  0  0  0  0  0
  188.8380  177.5820  141.2010 C   0  0  1  0  0  0  0  0  0  0  0  0
  188.8900  179.0920  141.3920 C   0  0  0  0  0  1  0  0  0  0  0  0
  188.4660  177.3600  139.7220 C   0  0  0  0  0  2  0  0  0  0  0  0
  187.8460  178.4830  139.1690 O   0  0  0  0  0  0  0  0  0  0  0  0
  186.9790  177.9670  138.2080 C   0  0  0  0  0  1  0  0  0  0  0  0
  187.8040  177.1050  142.0500 O   0  0  0  0  0  0  0  0  0  0  0  0
  187.1130  178.1820  142.6370 C   0  0  0  0  0  2  0  0  0  0  0  0
  185.6940  178.2530  142.0980 C   0  0  1  0  0  3  0  0  0  0  0  0
  184.7910  177.9490  143.1010 F   0  0  0  0  0  0  0  0  0  0  0  0
  185.4330  179.5290  141.6010 O   0  0  0  0  0  1  0  0  0  0  0  0
  192.2320  177.1420  139.6200 C   0  0  0  0  0  1  0  0  0  0  0  0
  192.5150  177.5750  141.0490 C   0  0  0  0  0  2  0  0  0  0  0  0
  191.5460  177.3310  145.5290 O   0  0  0  0  0  0  0  0  0  0  0  0
  190.7460  176.4100  146.2120 C   0  0  0  0  0  2  0  0  0  0  0  0
  188.7960  178.4070  148.7690 C   0  0  0  0  0  3  0  0  0  0  0  0
  189.6290  177.1190  146.8930 C   0  0  0  0  0  0  0  0  0  0  0  0
  187.3420  177.9200  146.8950 C   0  0  0  0  0  0  0  0  0  0  0  0
  189.8370  177.7150  148.1420 C   0  0  0  0  0  3  0  0  0  0  0  0
  188.3830  177.2290  146.2670 C   0  0  0  0  0  3  0  0  0  0  0  0
  185.7820  178.0500  146.1130 Cl  0  0  0  0  0  0  0  0  0  0  0  0
  187.5490  178.5080  148.1460 C   0  0  0  0  0  3  0  0  0  0  0  0
  2  6  1  0  0  0  0
  3 19  1  1  0  0  0
  3  5  1  0  0  0  0
  4  2  1  0  0  0  0
  5  1  1  1  0  0  0
  5  6  1  0  0  0  0
  6 20  1  1  0  0  0
  7  3  1  0  0  0  0
  7  4  1  0  0  0  0
  8  9  1  1  0  0  0
  8  7  1  0  0  0  0
  8 13  1  0  0  0  0
 10  8  1  0  0  0  0
 11 10  1  0  0  0  0
 12 11  1  0  0  0  0
 13 14  1  0  0  0  0
 15 17  1  1  0  0  0
 15 14  1  0  0  0  0
 15 16  1  0  0  0  0
 18 19  1  0  0  0  0
 20 21  1  0  0  0  0
 21 23  1  0  0  0  0
 23 25  1  0  0  0  0
 24 28  2  0  0  0  0
 25 22  2  0  0  0  0
 26 23  2  0  0  0  0
 26 24  1  0  0  0  0
 27 24  1  0  0  0  0
 28 22  1  0  0  0  0
M  END
>  <MODEL>
3

>  <REMARK>
 VINA RESULT:      -6.3      3.006      6.650
  Name = 
  10 active torsions:
  status: ('A' for Active; 'I' for Inactive)
    1  A    between atoms: C_1  and  C_3
    2  A    between atoms: C_1  and  O_11
    3  A    between atoms: C_1  and  N_27
    4  A    between atoms: O_2  and  C_3
    5  A    between atoms: C_6  and  C_8
    6  A    between atoms: C_8  and  O_11
    7  A    between atoms: C_9  and  C_18
    8  A    between atoms: O_14  and  C_18
    9  A    between atoms: O_14  and  C_25
   10  A    between atoms: C_16  and  C_21
                            x       y       z     vdW  Elec       q    Type
                         _______ _______ _______ _____ _____    ______ ____

>  <TORSDO>
F 10

$$$$
=
 OpenBabel10272402003D

 28 29  0  0  1  0  0  0  0  0999 V2000
  184.1220  180.2350  139.1780 O   0  0  0  0  0  1  0  0  0  0  0  0
  183.0900  177.8260  140.6530 C   0  0  0  0  0  2  0  0  0  0  0  0
  184.4160  178.1140  138.0680 C   0  0  2  0  0  3  0  0  0  0  0  0
  182.9100  176.7850  139.5580 C   0  0  0  0  0  2  0  0  0  0  0  0
  184.7860  179.0100  139.2640 C   0  0  2  0  0  3  0  0  0  0  0  0
  184.5170  178.3310  140.6060 C   0  0  1  0  0  3  0  0  0  0  0  0
  183.1670  177.3250  138.2070 N   0  0  0  0  0  0  0  0  0  0  0  0
  181.9680  177.9340  137.5680 C   0  0  1  0  0  0  0  0  0  0  0  0
  182.1000  177.9200  136.0510 C   0  0  0  0  0  1  0  0  0  0  0  0
  180.6860  177.1380  137.8840 C   0  0  0  0  0  2  0  0  0  0  0  0
  180.4050  176.1950  136.8910 O   0  0  0  0  0  0  0  0  0  0  0  0
  180.1590  175.0140  137.5900 C   0  0  0  0  0  1  0  0  0  0  0  0
  181.8110  179.2940  137.9450 O   0  0  0  0  0  0  0  0  0  0  0  0
  180.4660  179.5670  138.2570 C   0  0  0  0  0  2  0  0  0  0  0  0
  180.3780  180.7260  139.2370 C   0  0  1  0  0  3  0  0  0  0  0  0
  180.8040  180.3220  140.4880 F   0  0  0  0  0  0  0  0  0  0  0  0
  181.1630  181.7890  138.7920 O   0  0  0  0  0  1  0  0  0  0  0  0
  186.6900  178.0560  136.9470 C   0  0  0  0  0  1  0  0  0  0  0  0
  185.5830  177.2450  137.6000 C   0  0  0  0  0  2  0  0  0  0  0  0
  184.7490  179.2190  141.6590 O   0  0  0  0  0  0  0  0  0  0  0  0
  183.9360  178.7640  142.7010 C   0  0  0  0  0  2  0  0  0  0  0  0
  184.9890  178.5760  146.3320 C   0  0  0  0  0  3  0  0  0  0  0  0
  184.7580  178.5350  143.9200 C   0  0  0  0  0  0  0  0  0  0  0  0
  186.8050  177.7540  144.9560 C   0  0  0  0  0  0  0  0  0  0  0  0
  184.2280  178.8180  145.1850 C   0  0  0  0  0  3  0  0  0  0  0  0
  186.0440  177.9950  143.8080 C   0  0  0  0  0  3  0  0  0  0  0  0
  188.4150  177.0850  144.8140 Cl  0  0  0  0  0  0  0  0  0  0  0  0
  186.2770  178.0460  146.2180 C   0  0  0  0  0  3  0  0  0  0  0  0
  3 19  1  1  0  0  0
  3  7  1  0  0  0  0
  3  5  1  0  0  0  0
  4  2  1  0  0  0  0
  5  1  1  1  0  0  0
  5  6  1  0  0  0  0
  6  2  1  0  0  0  0
  6 20  1  1  0  0  0
  7  4  1  0  0  0  0
  8  9  1  6  0  0  0
  8 10  1  0  0  0  0
  8 13  1  0  0  0  0
  8  7  1  0  0  0  0
 11 12  1  0  0  0  0
 11 10  1  0  0  0  0
 13 14  1  0  0  0  0
 14 15  1  0  0  0  0
 15 17  1  6  0  0  0
 15 16  1  0  0  0  0
 18 19  1  0  0  0  0
 20 21  1  0  0  0  0
 21 23  1  0  0  0  0
 23 25  1  0  0  0  0
 24 28  2  0  0  0  0
 25 22  2  0  0  0  0
 26 23  2  0  0  0  0
 26 24  1  0  0  0  0
 27 24  1  0  0  0  0
 28 22  1  0  0  0  0
M  END
>  <MODEL>
4

>  <REMARK>
 VINA RESULT:      -6.2      5.781      8.879
  Name = 
  10 active torsions:
  status: ('A' for Active; 'I' for Inactive)
    1  A    between atoms: C_1  and  C_3
    2  A    between atoms: C_1  and  O_11
    3  A    between atoms: C_1  and  N_27
    4  A    between atoms: O_2  and  C_3
    5  A    between atoms: C_6  and  C_8
    6  A    between atoms: C_8  and  O_11
    7  A    between atoms: C_9  and  C_18
    8  A    between atoms: O_14  and  C_18
    9  A    between atoms: O_14  and  C_25
   10  A    between atoms: C_16  and  C_21
                            x       y       z     vdW  Elec       q    Type
                         _______ _______ _______ _____ _____    ______ ____

>  <TORSDO>
F 10

$$$$
=
 OpenBabel10272402003D

 28 29  0  0  1  0  0  0  0  0999 V2000
  189.3430  175.3020  142.8980 O   0  0  0  0  0  1  0  0  0  0  0  0
  189.3650  178.2620  142.3710 C   0  0  0  0  0  2  0  0  0  0  0  0
  190.3410  176.6700  144.6160 C   0  0  2  0  0  3  0  0  0  0  0  0
  189.5230  178.8720  143.7570 C   0  0  0  0  0  2  0  0  0  0  0  0
  190.4190  176.1500  143.1690 C   0  0  2  0  0  3  0  0  0  0  0  0
  190.4980  177.2830  142.1470 C   0  0  1  0  0  3  0  0  0  0  0  0
  189.4830  177.8620  144.8340 N   0  0  0  0  0  0  0  0  0  0  0  0
  188.1100  177.5640  145.3250 C   0  0  1  0  0  0  0  0  0  0  0  0
  187.4920  176.4180  144.5360 C   0  0  0  0  0  1  0  0  0  0  0  0
  188.1170  177.1040  146.7960 C   0  0  0  0  0  2  0  0  0  0  0  0
  188.8490  177.9750  147.6080 O   0  0  0  0  0  0  0  0  0  0  0  0
  188.1300  178.0280  148.8010 C   0  0  0  0  0  1  0  0  0  0  0  0
  187.2450  178.6790  145.1590 O   0  0  0  0  0  0  0  0  0  0  0  0
  185.9630  178.2520  144.7640 C   0  0  0  0  0  2  0  0  0  0  0  0
  184.8960  178.9820  145.5630 C   0  0  1  0  0  3  0  0  0  0  0  0
  183.6390  178.6290  145.1070 F   0  0  0  0  0  0  0  0  0  0  0  0
  185.0120  178.6660  146.9160 O   0  0  0  0  0  1  0  0  0  0  0  0
  191.7640  176.3310  146.6870 C   0  0  0  0  0  1  0  0  0  0  0  0
  191.7180  176.8420  145.2550 C   0  0  0  0  0  2  0  0  0  0  0  0
  190.4430  176.7730  140.8460 O   0  0  0  0  0  0  0  0  0  0  0  0
  189.3020  177.3490  140.2810 C   0  0  0  0  0  2  0  0  0  0  0  0
  189.0360  178.3480  136.6390 C   0  0  0  0  0  3  0  0  0  0  0  0
  189.3970  177.3040  138.7960 C   0  0  0  0  0  0  0  0  0  0  0  0
  190.1160  176.1840  136.7710 C   0  0  0  0  0  0  0  0  0  0  0  0
  188.9210  178.3760  138.0320 C   0  0  0  0  0  3  0  0  0  0  0  0
  190.0020  176.2120  138.1650 C   0  0  0  0  0  3  0  0  0  0  0  0
  190.8670  174.8140  135.9830 Cl  0  0  0  0  0  0  0  0  0  0  0  0
  189.6320  177.2520  136.0090 C   0  0  0  0  0  3  0  0  0  0  0  0
  2  4  1  0  0  0  0
  3  7  1  0  0  0  0
  3 19  1  6  0  0  0
  4  7  1  0  0  0  0
  5  1  1  6  0  0  0
  5  3  1  0  0  0  0
  6 20  1  6  0  0  0
  6  2  1  0  0  0  0
  6  5  1  0  0  0  0
  7  8  1  0  0  0  0
  8  9  1  6  0  0  0
  8 10  1  0  0  0  0
 10 11  1  0  0  0  0
 11 12  1  0  0  0  0
 13  8  1  0  0  0  0
 14 13  1  0  0  0  0
 14 15  1  0  0  0  0
 15 16  1  6  0  0  0
 15 17  1  0  0  0  0
 19 18  1  0  0  0  0
 21 20  1  0  0  0  0
 22 25  1  0  0  0  0
 23 21  1  0  0  0  0
 24 26  2  0  0  0  0
 25 23  2  0  0  0  0
 26 23  1  0  0  0  0
 27 24  1  0  0  0  0
 28 22  2  0  0  0  0
 28 24  1  0  0  0  0
M  END
>  <MODEL>
5

>  <REMARK>
 VINA RESULT:      -6.0      1.642      1.887
  Name = 
  10 active torsions:
  status: ('A' for Active; 'I' for Inactive)
    1  A    between atoms: C_1  and  C_3
    2  A    between atoms: C_1  and  O_11
    3  A    between atoms: C_1  and  N_27
    4  A    between atoms: O_2  and  C_3
    5  A    between atoms: C_6  and  C_8
    6  A    between atoms: C_8  and  O_11
    7  A    between atoms: C_9  and  C_18
    8  A    between atoms: O_14  and  C_18
    9  A    between atoms: O_14  and  C_25
   10  A    between atoms: C_16  and  C_21
                            x       y       z     vdW  Elec       q    Type
                         _______ _______ _______ _____ _____    ______ ____

>  <TORSDO>
F 10

$$$$
=
 OpenBabel10272402003D

 28 29  0  0  1  0  0  0  0  0999 V2000
  189.3270  179.2350  142.0700 O   0  0  0  0  0  1  0  0  0  0  0  0
  190.1540  176.3430  142.0640 C   0  0  0  0  0  2  0  0  0  0  0  0
  187.9830  177.7520  143.4160 C   0  0  2  0  0  3  0  0  0  0  0  0
  189.5320  175.7900  143.3380 C   0  0  0  0  0  2  0  0  0  0  0  0
  188.4440  178.1550  142.0030 C   0  0  2  0  0  3  0  0  0  0  0  0
  189.0600  176.9860  141.2370 C   0  0  1  0  0  3  0  0  0  0  0  0
  188.8820  176.8330  144.1580 N   0  0  0  0  0  0  0  0  0  0  0  0
  189.8040  177.5000  145.1190 C   0  0  1  0  0  0  0  0  0  0  0  0
  190.4660  178.7120  144.4780 C   0  0  0  0  0  1  0  0  0  0  0  0
  189.0510  178.0370  146.3520 C   0  0  0  0  0  2  0  0  0  0  0  0
  187.9940  177.2000  146.7190 O   0  0  0  0  0  0  0  0  0  0  0  0
  186.9910  178.0690  147.1440 C   0  0  0  0  0  1  0  0  0  0  0  0
  190.8540  176.6320  145.5190 O   0  0  0  0  0  0  0  0  0  0  0  0
  191.2490  176.9130  146.8400 C   0  0  0  0  0  2  0  0  0  0  0  0
  191.9820  175.7220  147.4350 C   0  0  1  0  0  3  0  0  0  0  0  0
  192.5140  174.9410  146.4250 F   0  0  0  0  0  0  0  0  0  0  0  0
  193.0030  176.1610  148.2770 O   0  0  0  0  0  1  0  0  0  0  0  0
  185.5370  178.4150  143.5030 C   0  0  0  0  0  1  0  0  0  0  0  0
  186.5330  177.2680  143.4460 C   0  0  0  0  0  2  0  0  0  0  0  0
  189.5760  177.4210  140.0120 O   0  0  0  0  0  0  0  0  0  0  0  0
  190.8810  176.9230  139.9730 C   0  0  0  0  0  2  0  0  0  0  0  0
  192.9160  176.1510  136.8750 C   0  0  0  0  0  3  0  0  0  0  0  0
  191.2370  176.5510  138.5760 C   0  0  0  0  0  0  0  0  0  0  0  0
  190.5730  175.8050  136.3680 C   0  0  0  0  0  0  0  0  0  0  0  0
  192.5790  176.5280  138.1790 C   0  0  0  0  0  3  0  0  0  0  0  0
  190.2350  176.1810  137.6720 C   0  0  0  0  0  3  0  0  0  0  0  0
  189.3190  175.3490  135.2370 Cl  0  0  0  0  0  0  0  0  0  0  0  0
  191.9140  175.7900  135.9700 C   0  0  0  0  0  3  0  0  0  0  0  0
  2  4  1  0  0  0  0
  3 19  1  6  0  0  0
  3  7  1  0  0  0  0
  4  7  1  0  0  0  0
  5  1  1  1  0  0  0
  5  3  1  0  0  0  0
  6 20  1  6  0  0  0
  6  5  1  0  0  0  0
  6  2  1  0  0  0  0
  7  8  1  0  0  0  0
  8  9  1  6  0  0  0
  8 13  1  0  0  0  0
  8 10  1  0  0  0  0
 10 11  1  0  0  0  0
 11 12  1  0  0  0  0
 13 14  1  0  0  0  0
 14 15  1  0  0  0  0
 15 16  1  6  0  0  0
 15 17  1  0  0  0  0
 19 18  1  0  0  0  0
 21 20  1  0  0  0  0
 22 25  1  0  0  0  0
 23 21  1  0  0  0  0
 24 26  2  0  0  0  0
 25 23  2  0  0  0  0
 26 23  1  0  0  0  0
 27 24  1  0  0  0  0
 28 24  1  0  0  0  0
 28 22  2  0  0  0  0
M  END
>  <MODEL>
6

>  <REMARK>
 VINA RESULT:      -5.9      2.574      4.168
  Name = 
  10 active torsions:
  status: ('A' for Active; 'I' for Inactive)
    1  A    between atoms: C_1  and  C_3
    2  A    between atoms: C_1  and  O_11
    3  A    between atoms: C_1  and  N_27
    4  A    between atoms: O_2  and  C_3
    5  A    between atoms: C_6  and  C_8
    6  A    between atoms: C_8  and  O_11
    7  A    between atoms: C_9  and  C_18
    8  A    between atoms: O_14  and  C_18
    9  A    between atoms: O_14  and  C_25
   10  A    between atoms: C_16  and  C_21
                            x       y       z     vdW  Elec       q    Type
                         _______ _______ _______ _____ _____    ______ ____

>  <TORSDO>
F 10

$$$$
=
 OpenBabel10272402003D

 28 29  0  0  1  0  0  0  0  0999 V2000
  189.9820  179.1690  142.3950 O   0  0  0  0  0  1  0  0  0  0  0  0
  190.0240  176.1630  142.3750 C   0  0  0  0  0  2  0  0  0  0  0  0
  187.9650  178.0820  143.1480 C   0  0  2  0  0  3  0  0  0  0  0  0
  188.9240  175.7820  143.3550 C   0  0  0  0  0  2  0  0  0  0  0  0
  188.9230  178.3620  141.9760 C   0  0  2  0  0  3  0  0  0  0  0  0
  189.4330  177.0780  141.3230 C   0  0  1  0  0  3  0  0  0  0  0  0
  188.3350  176.9530  144.0370 N   0  0  0  0  0  0  0  0  0  0  0  0
  189.0520  177.3440  145.2810 C   0  0  1  0  0  0  0  0  0  0  0  0
  190.0130  178.4940  145.0110 C   0  0  0  0  0  1  0  0  0  0  0  0
  188.0800  177.8560  146.3630 C   0  0  0  0  0  2  0  0  0  0  0  0
  186.8130  177.2810  146.2350 O   0  0  0  0  0  0  0  0  0  0  0  0
  185.9280  178.3290  146.4790 C   0  0  0  0  0  1  0  0  0  0  0  0
  189.8370  176.2740  145.7870 O   0  0  0  0  0  0  0  0  0  0  0  0
  190.2470  176.5440  147.1070 C   0  0  0  0  0  2  0  0  0  0  0  0
  191.6620  176.0390  147.3320 C   0  0  1  0  0  3  0  0  0  0  0  0
  192.3410  175.9790  146.1300 F   0  0  0  0  0  0  0  0  0  0  0  0
  192.3370  176.8840  148.2130 O   0  0  0  0  0  1  0  0  0  0  0  0
  186.2210  178.8240  141.4630 C   0  0  0  0  0  1  0  0  0  0  0  0
  186.5040  177.9980  142.7080 C   0  0  0  0  0  2  0  0  0  0  0  0
  190.3910  177.3720  140.3480 O   0  0  0  0  0  0  0  0  0  0  0  0
  190.1080  176.5030  139.2910 C   0  0  0  0  0  2  0  0  0  0  0  0
  188.5630  179.0880  136.9970 C   0  0  0  0  0  3  0  0  0  0  0  0
  189.1810  177.1610  138.3300 C   0  0  0  0  0  0  0  0  0  0  0  0
  187.2440  177.0600  136.8770 C   0  0  0  0  0  0  0  0  0  0  0  0
  189.4170  178.4780  137.9210 C   0  0  0  0  0  3  0  0  0  0  0  0
  188.0990  176.4500  137.8010 C   0  0  0  0  0  3  0  0  0  0  0  0
  185.8870  176.1710  136.2220 Cl  0  0  0  0  0  0  0  0  0  0  0  0
  187.4770  178.3790  136.4760 C   0  0  0  0  0  3  0  0  0  0  0  0
  2  4  1  0  0  0  0
  3 19  1  6  0  0  0
  3  7  1  0  0  0  0
  4  7  1  0  0  0  0
  5  1  1  1  0  0  0
  5  3  1  0  0  0  0
  6 20  1  6  0  0  0
  6  5  1  0  0  0  0
  6  2  1  0  0  0  0
  7  8  1  0  0  0  0
  8  9  1  6  0  0  0
  8 13  1  0  0  0  0
  8 10  1  0  0  0  0
 11 10  1  0  0  0  0
 11 12  1  0  0  0  0
 13 14  1  0  0  0  0
 14 15  1  0  0  0  0
 15 16  1  6  0  0  0
 15 17  1  0  0  0  0
 18 19  1  0  0  0  0
 21 20  1  0  0  0  0
 22 25  1  0  0  0  0
 23 21  1  0  0  0  0
 24 26  2  0  0  0  0
 25 23  2  0  0  0  0
 26 23  1  0  0  0  0
 27 24  1  0  0  0  0
 28 24  1  0  0  0  0
 28 22  2  0  0  0  0
M  END
>  <MODEL>
7

>  <REMARK>
 VINA RESULT:      -5.9      2.161      3.563
  Name = 
  10 active torsions:
  status: ('A' for Active; 'I' for Inactive)
    1  A    between atoms: C_1  and  C_3
    2  A    between atoms: C_1  and  O_11
    3  A    between atoms: C_1  and  N_27
    4  A    between atoms: O_2  and  C_3
    5  A    between atoms: C_6  and  C_8
    6  A    between atoms: C_8  and  O_11
    7  A    between atoms: C_9  and  C_18
    8  A    between atoms: O_14  and  C_18
    9  A    between atoms: O_14  and  C_25
   10  A    between atoms: C_16  and  C_21
                            x       y       z     vdW  Elec       q    Type
                         _______ _______ _______ _____ _____    ______ ____

>  <TORSDO>
F 10

$$$$
=
 OpenBabel10272402003D

 28 29  0  0  1  0  0  0  0  0999 V2000
  188.5280  179.3010  137.8280 O   0  0  0  0  0  1  0  0  0  0  0  0
  188.6150  176.3940  138.5910 C   0  0  0  0  0  2  0  0  0  0  0  0
  188.6400  177.7340  135.9980 C   0  0  2  0  0  3  0  0  0  0  0  0
  188.1450  175.6780  137.3330 C   0  0  0  0  0  2  0  0  0  0  0  0
  189.3450  178.3440  137.2230 C   0  0  2  0  0  3  0  0  0  0  0  0
  189.7870  177.2820  138.2290 C   0  0  1  0  0  3  0  0  0  0  0  0
  187.7100  176.6100  136.2740 N   0  0  0  0  0  0  0  0  0  0  0  0
  186.2750  176.9950  136.3670 C   0  0  1  0  0  0  0  0  0  0  0  0
  185.7470  177.4390  135.0090 C   0  0  0  0  0  1  0  0  0  0  0  0
  185.3910  175.8040  136.7900 C   0  0  0  0  0  2  0  0  0  0  0  0
  184.7920  175.1870  135.6890 O   0  0  0  0  0  0  0  0  0  0  0  0
  185.1340  173.8420  135.8130 C   0  0  0  0  0  1  0  0  0  0  0  0
  186.0860  178.0910  137.2500 O   0  0  0  0  0  0  0  0  0  0  0  0
  184.8860  177.9420  137.9700 C   0  0  0  0  0  2  0  0  0  0  0  0
  184.9920  178.6330  139.3190 C   0  0  1  0  0  3  0  0  0  0  0  0
  186.2860  178.5450  139.7960 F   0  0  0  0  0  0  0  0  0  0  0  0
  184.6240  179.9730  139.2000 O   0  0  0  0  0  1  0  0  0  0  0  0
  189.4310  175.9800  134.3460 C   0  0  0  0  0  1  0  0  0  0  0  0
  189.6110  177.3970  134.8670 C   0  0  0  0  0  2  0  0  0  0  0  0
  190.3090  177.8830  139.3770 O   0  0  0  0  0  0  0  0  0  0  0  0
  190.5760  176.8240  140.2500 C   0  0  0  0  0  2  0  0  0  0  0  0
  191.2280  178.2230  143.7060 C   0  0  0  0  0  3  0  0  0  0  0  0
  190.3640  177.2620  141.6560 C   0  0  0  0  0  0  0  0  0  0  0  0
  188.8850  177.6330  143.5390 C   0  0  0  0  0  0  0  0  0  0  0  0
  191.4330  177.7840  142.3940 C   0  0  0  0  0  3  0  0  0  0  0  0
  189.0890  177.1950  142.2270 C   0  0  0  0  0  3  0  0  0  0  0  0
  187.2910  177.5420  144.2540 Cl  0  0  0  0  0  0  0  0  0  0  0  0
  189.9550  178.1470  144.2780 C   0  0  0  0  0  3  0  0  0  0  0  0
  3 19  1  6  0  0  0
  3  7  1  0  0  0  0
  3  5  1  0  0  0  0
  4  2  1  0  0  0  0
  5  1  1  1  0  0  0
  5  6  1  0  0  0  0
  6  2  1  0  0  0  0
  6 20  1  1  0  0  0
  7  8  1  0  0  0  0
  7  4  1  0  0  0  0
  8  9  1  6  0  0  0
  8 10  1  0  0  0  0
  8 13  1  0  0  0  0
 11 12  1  0  0  0  0
 11 10  1  0  0  0  0
 13 14  1  0  0  0  0
 14 15  1  0  0  0  0
 15 17  1  6  0  0  0
 15 16  1  0  0  0  0
 18 19  1  0  0  0  0
 20 21  1  0  0  0  0
 21 23  1  0  0  0  0
 22 28  1  0  0  0  0
 23 26  2  0  0  0  0
 23 25  1  0  0  0  0
 24 27  1  0  0  0  0
 24 28  2  0  0  0  0
 25 22  2  0  0  0  0
 26 24  1  0  0  0  0
M  END
>  <MODEL>
8

>  <REMARK>
 VINA RESULT:      -5.8      3.850      7.480
  Name = 
  10 active torsions:
  status: ('A' for Active; 'I' for Inactive)
    1  A    between atoms: C_1  and  C_3
    2  A    between atoms: C_1  and  O_11
    3  A    between atoms: C_1  and  N_27
    4  A    between atoms: O_2  and  C_3
    5  A    between atoms: C_6  and  C_8
    6  A    between atoms: C_8  and  O_11
    7  A    between atoms: C_9  and  C_18
    8  A    between atoms: O_14  and  C_18
    9  A    between atoms: O_14  and  C_25
   10  A    between atoms: C_16  and  C_21
                            x       y       z     vdW  Elec       q    Type
                         _______ _______ _______ _____ _____    ______ ____

>  <TORSDO>
F 10

$$$$
=
 OpenBabel10272402003D

 28 29  0  0  1  0  0  0  0  0999 V2000
  190.1450  175.4360  142.5980 O   0  0  0  0  0  1  0  0  0  0  0  0
  190.6120  178.4050  142.5130 C   0  0  0  0  0  2  0  0  0  0  0  0
  190.0270  176.5820  144.7170 C   0  0  2  0  0  3  0  0  0  0  0  0
  189.9660  178.9070  143.7960 C   0  0  0  0  0  2  0  0  0  0  0  0
  190.9040  176.1490  143.5280 C   0  0  2  0  0  3  0  0  0  0  0  0
  191.6160  177.3290  142.8700 C   0  0  1  0  0  3  0  0  0  0  0  0
  189.2610  177.8400  144.5360 N   0  0  0  0  0  0  0  0  0  0  0  0
  187.8440  177.6570  144.1150 C   0  0  1  0  0  0  0  0  0  0  0  0
  187.4760  176.1790  144.0930 C   0  0  0  0  0  1  0  0  0  0  0  0
  186.8650  178.3170  145.1050 C   0  0  0  0  0  2  0  0  0  0  0  0
  186.6500  177.5180  146.2320 O   0  0  0  0  0  0  0  0  0  0  0  0
  186.4910  178.4250  147.2780 C   0  0  0  0  0  1  0  0  0  0  0  0
  187.6250  178.1460  142.8000 O   0  0  0  0  0  0  0  0  0  0  0  0
  186.3800  178.7990  142.7190 C   0  0  0  0  0  2  0  0  0  0  0  0
  185.6620  178.4050  141.4390 C   0  0  1  0  0  3  0  0  0  0  0  0
  184.4900  177.7370  141.7400 F   0  0  0  0  0  0  0  0  0  0  0  0
  185.3770  179.5400  140.6820 O   0  0  0  0  0  1  0  0  0  0  0  0
  189.9540  177.1160  147.1940 C   0  0  0  0  0  1  0  0  0  0  0  0
  190.7840  176.5690  146.0440 C   0  0  0  0  0  2  0  0  0  0  0  0
  192.3010  176.9110  141.7250 O   0  0  0  0  0  0  0  0  0  0  0  0
  191.7550  177.6650  140.6820 C   0  0  0  0  0  2  0  0  0  0  0  0
  193.1610  176.0120  137.5800 C   0  0  0  0  0  3  0  0  0  0  0  0
  191.8410  176.9000  139.4080 C   0  0  0  0  0  0  0  0  0  0  0  0
  190.7870  175.5470  137.6970 C   0  0  0  0  0  0  0  0  0  0  0  0
  193.0740  176.7540  138.7620 C   0  0  0  0  0  3  0  0  0  0  0  0
  190.6990  176.2890  138.8790 C   0  0  0  0  0  3  0  0  0  0  0  0
  189.3560  174.7900  137.0320 Cl  0  0  0  0  0  0  0  0  0  0  0  0
  192.0180  175.4090  137.0480 C   0  0  0  0  0  3  0  0  0  0  0  0
  2  6  1  0  0  0  0
  2  4  1  0  0  0  0
  3 19  1  1  0  0  0
  4  7  1  0  0  0  0
  5  1  1  6  0  0  0
  5  3  1  0  0  0  0
  6 20  1  6  0  0  0
  6  5  1  0  0  0  0
  7  3  1  0  0  0  0
  8  9  1  6  0  0  0
  8  7  1  0  0  0  0
  8 10  1  0  0  0  0
 10 11  1  0  0  0  0
 11 12  1  0  0  0  0
 13  8  1  0  0  0  0
 14 13  1  0  0  0  0
 15 17  1  1  0  0  0
 15 16  1  0  0  0  0
 15 14  1  0  0  0  0
 19 18  1  0  0  0  0
 21 20  1  0  0  0  0
 22 25  1  0  0  0  0
 23 21  1  0  0  0  0
 24 26  2  0  0  0  0
 25 23  2  0  0  0  0
 26 23  1  0  0  0  0
 27 24  1  0  0  0  0
 28 22  2  0  0  0  0
 28 24  1  0  0  0  0
M  END
>  <MODEL>
9

>  <REMARK>
 VINA RESULT:      -5.7      2.394      3.247
  Name = 
  10 active torsions:
  status: ('A' for Active; 'I' for Inactive)
    1  A    between atoms: C_1  and  C_3
    2  A    between atoms: C_1  and  O_11
    3  A    between atoms: C_1  and  N_27
    4  A    between atoms: O_2  and  C_3
    5  A    between atoms: C_6  and  C_8
    6  A    between atoms: C_8  and  O_11
    7  A    between atoms: C_9  and  C_18
    8  A    between atoms: O_14  and  C_18
    9  A    between atoms: O_14  and  C_25
   10  A    between atoms: C_16  and  C_21
                            x       y       z     vdW  Elec       q    Type
                         _______ _______ _______ _____ _____    ______ ____

>  <TORSDO>
F 10

$$$$
