=
 OpenBabel10272401003D

 27 31  0  0  1  0  0  0  0  0999 V2000
  182.3950  176.5840  139.4050 C   0  0  0  0  0  2  0  0  0  0  0  0
  184.1980  176.2940  137.7170 C   0  0  0  0  0  0  0  0  0  0  0  0
  184.8140  178.6690  138.3600 C   0  0  0  0  0  2  0  0  0  0  0  0
  188.2160  175.6020  136.9330 O   0  0  0  0  0  0  0  0  0  0  0  0
  189.9980  177.0770  137.1790 O   0  0  0  0  0  0  0  0  0  0  0  0
  184.5700  175.0100  137.2680 C   0  0  0  0  0  3  0  0  0  0  0  0
  187.7310  177.8470  137.6580 C   0  0  1  0  0  3  0  0  0  0  0  0
  186.0560  178.9840  141.8630 C   0  0  0  0  0  3  0  0  0  0  0  0
  187.6590  178.9640  136.6300 C   0  0  0  0  0  1  0  0  0  0  0  0
  184.9360  178.6620  142.6300 C   0  0  0  0  0  3  0  0  0  0  0  0
  186.5090  176.9830  137.5670 C   0  0  0  0  0  0  0  0  0  0  0  0
  182.8180  176.5610  138.0060 N   0  0  0  0  0  0  0  0  0  0  0  0
  188.7630  176.8420  137.2380 C   0  0  0  0  0  0  0  0  0  0  0  0
  186.8560  175.7160  137.1440 C   0  0  0  0  0  0  0  0  0  0  0  0
  182.3690  178.0110  139.9330 C   0  0  0  0  0  2  0  0  0  0  0  0
  185.1780  177.3030  137.8660 C   0  0  0  0  0  0  0  0  0  0  0  0
  185.9750  178.9880  140.5060 N   0  0  0  0  0  0  0  0  0  0  0  0
  185.9100  174.7100  136.9800 C   0  0  0  0  0  3  0  0  0  0  0  0
  183.7390  178.3460  141.9870 C   0  0  0  0  0  3  0  0  0  0  0  0
  183.6660  178.3600  140.5920 C   0  0  0  0  0  0  0  0  0  0  0  0
  184.8180  178.6920  139.8530 C   0  0  0  0  0  0  0  0  0  0  0  0
  180.0370  177.1900  134.8940 N   0  0  0  0  0  0  0  0  0  0  0  0
  181.8640  176.7780  136.9440 C   0  0  0  0  0  0  0  0  0  0  0  0
  180.8940  175.8100  136.6440 C   0  0  0  0  0  3  0  0  0  0  0  0
  179.9830  176.0360  135.6100 C   0  0  0  0  0  3  0  0  0  0  0  0
  180.9660  178.1470  135.1590 C   0  0  0  0  0  3  0  0  0  0  0  0
  181.8940  177.9580  136.1860 C   0  0  0  0  0  3  0  0  0  0  0  0
  1 15  1  0  0  0  0
  2 16  1  0  0  0  0
  2 12  1  0  0  0  0
  3 21  1  0  0  0  0
  4 14  1  0  0  0  0
  4 13  1  0  0  0  0
  5 13  2  0  0  0  0
  6  2  2  0  0  0  0
  7  9  1  6  0  0  0
  8 10  1  0  0  0  0
 11  7  1  0  0  0  0
 11 16  2  0  0  0  0
 12  1  1  0  0  0  0
 13  7  1  0  0  0  0
 14 11  1  0  0  0  0
 15 20  1  0  0  0  0
 16  3  1  0  0  0  0
 17  8  2  0  0  0  0
 18 14  2  0  0  0  0
 18  6  1  0  0  0  0
 19 10  2  0  0  0  0
 20 19  1  0  0  0  0
 21 17  1  0  0  0  0
 21 20  2  0  0  0  0
 22 26  2  0  0  0  0
 22 25  1  0  0  0  0
 23 12  1  0  0  0  0
 24 23  1  0  0  0  0
 25 24  2  0  0  0  0
 26 27  1  0  0  0  0
 27 23  2  0  0  0  0
M  END
>  <MODEL>
1

>  <REMARK>
 VINA RESULT:      -5.9      0.000      0.000
  Name = 
  1 active torsions:
  status: ('A' for Active; 'I' for Inactive)
    1  A    between atoms: C_9  and  N_15
                            x       y       z     vdW  Elec       q    Type
                         _______ _______ _______ _____ _____    ______ ____

>  <TORSDO>
F 1

$$$$
=
 OpenBabel10272401003D

 27 31  0  0  1  0  0  0  0  0999 V2000
  184.0330  178.1910  141.2970 C   0  0  0  0  0  2  0  0  0  0  0  0
  183.5190  177.1850  139.0810 C   0  0  0  0  0  0  0  0  0  0  0  0
  185.4880  178.5750  138.2920 C   0  0  0  0  0  2  0  0  0  0  0  0
  184.4890  174.3920  136.1670 O   0  0  0  0  0  0  0  0  0  0  0  0
  186.2600  174.4510  134.6580 O   0  0  0  0  0  0  0  0  0  0  0  0
  182.7120  176.0330  138.9790 C   0  0  0  0  0  3  0  0  0  0  0  0
  185.9330  176.3190  136.1970 C   0  0  1  0  0  3  0  0  0  0  0  0
  188.7500  177.4800  139.7310 C   0  0  0  0  0  3  0  0  0  0  0  0
  185.7330  177.4170  135.1650 C   0  0  0  0  0  1  0  0  0  0  0  0
  188.6100  177.7590  141.0920 C   0  0  0  0  0  3  0  0  0  0  0  0
  184.8500  176.3810  137.2320 C   0  0  0  0  0  0  0  0  0  0  0  0
  183.2150  178.1640  140.0860 N   0  0  0  0  0  0  0  0  0  0  0  0
  185.6010  174.9900  135.5870 C   0  0  0  0  0  0  0  0  0  0  0  0
  184.0600  175.2520  137.1580 C   0  0  0  0  0  0  0  0  0  0  0  0
  185.1320  179.2370  141.1760 C   0  0  0  0  0  2  0  0  0  0  0  0
  184.6040  177.3710  138.1930 C   0  0  0  0  0  0  0  0  0  0  0  0
  187.7390  177.7660  138.8690 N   0  0  0  0  0  0  0  0  0  0  0  0
  182.9810  175.0510  138.0130 C   0  0  0  0  0  3  0  0  0  0  0  0
  187.4230  178.3330  141.5500 C   0  0  0  0  0  3  0  0  0  0  0  0
  186.3940  178.6280  140.6520 C   0  0  0  0  0  0  0  0  0  0  0  0
  186.5750  178.3330  139.2870 C   0  0  0  0  0  0  0  0  0  0  0  0
  180.0050  180.8610  139.6010 N   0  0  0  0  0  0  0  0  0  0  0  0
  182.1150  179.0840  139.9180 C   0  0  0  0  0  0  0  0  0  0  0  0
  182.0360  179.9080  138.7850 C   0  0  0  0  0  3  0  0  0  0  0  0
  180.9670  180.7950  138.6440 C   0  0  0  0  0  3  0  0  0  0  0  0
  180.0530  180.0770  140.7110 C   0  0  0  0  0  3  0  0  0  0  0  0
  181.1070  179.1780  140.8890 C   0  0  0  0  0  3  0  0  0  0  0  0
  2 12  1  0  0  0  0
  3 21  1  0  0  0  0
  4 14  1  0  0  0  0
  5 13  2  0  0  0  0
  6  2  1  0  0  0  0
  7  9  1  6  0  0  0
  7 11  1  0  0  0  0
  8 10  1  0  0  0  0
 10 19  2  0  0  0  0
 11 16  1  0  0  0  0
 12  1  1  0  0  0  0
 13  4  1  0  0  0  0
 13  7  1  0  0  0  0
 14 11  2  0  0  0  0
 14 18  1  0  0  0  0
 15  1  1  0  0  0  0
 16  3  1  0  0  0  0
 16  2  2  0  0  0  0
 17 21  1  0  0  0  0
 17  8  2  0  0  0  0
 18  6  2  0  0  0  0
 20 15  1  0  0  0  0
 20 19  1  0  0  0  0
 21 20  2  0  0  0  0
 22 26  1  0  0  0  0
 23 12  1  0  0  0  0
 23 27  1  0  0  0  0
 24 23  2  0  0  0  0
 25 24  1  0  0  0  0
 25 22  2  0  0  0  0
 26 27  2  0  0  0  0
M  END
>  <MODEL>
2

>  <REMARK>
 VINA RESULT:      -5.8      2.580      3.662
  Name = 
  1 active torsions:
  status: ('A' for Active; 'I' for Inactive)
    1  A    between atoms: C_9  and  N_15
                            x       y       z     vdW  Elec       q    Type
                         _______ _______ _______ _____ _____    ______ ____

>  <TORSDO>
F 1

$$$$
=
 OpenBabel10272401003D

 27 31  0  0  1  0  0  0  0  0999 V2000
  188.8670  178.6110  139.2510 C   0  0  0  0  0  2  0  0  0  0  0  0
  190.6990  176.9500  138.9940 C   0  0  0  0  0  0  0  0  0  0  0  0
  188.9490  175.6110  137.7390 C   0  0  0  0  0  2  0  0  0  0  0  0
  193.5800  175.2290  136.5490 O   0  0  0  0  0  0  0  0  0  0  0  0
  193.2640  173.7230  134.8030 O   0  0  0  0  0  0  0  0  0  0  0  0
  192.0450  177.3180  139.2010 C   0  0  0  0  0  3  0  0  0  0  0  0
  191.3370  174.4780  136.0990 C   0  0  1  0  0  3  0  0  0  0  0  0
  187.8810  177.1970  134.5360 C   0  0  0  0  0  3  0  0  0  0  0  0
  190.8840  173.1250  136.6220 C   0  0  0  0  0  1  0  0  0  0  0  0
  187.2390  178.3630  134.9540 C   0  0  0  0  0  3  0  0  0  0  0  0
  191.4100  175.4670  137.2230 C   0  0  0  0  0  0  0  0  0  0  0  0
  189.6790  177.5350  139.8160 N   0  0  0  0  0  0  0  0  0  0  0  0
  192.7920  174.4170  135.7420 C   0  0  0  0  0  0  0  0  0  0  0  0
  192.7190  175.8520  137.4290 C   0  0  0  0  0  0  0  0  0  0  0  0
  187.5560  178.0610  138.7090 C   0  0  0  0  0  2  0  0  0  0  0  0
  190.3700  176.0050  137.9940 C   0  0  0  0  0  0  0  0  0  0  0  0
  188.4020  176.3380  135.4530 N   0  0  0  0  0  0  0  0  0  0  0  0
  193.0690  176.7710  138.4140 C   0  0  0  0  0  3  0  0  0  0  0  0
  187.1400  178.6330  136.3200 C   0  0  0  0  0  3  0  0  0  0  0  0
  187.6730  177.7400  137.2520 C   0  0  0  0  0  0  0  0  0  0  0  0
  188.3120  176.5730  136.7900 C   0  0  0  0  0  0  0  0  0  0  0  0
  189.0880  176.2510  143.7920 N   0  0  0  0  0  0  0  0  0  0  0  0
  189.4750  177.0930  141.1750 C   0  0  0  0  0  0  0  0  0  0  0  0
  188.3320  177.4800  141.8900 C   0  0  0  0  0  3  0  0  0  0  0  0
  188.1540  177.0450  143.2050 C   0  0  0  0  0  3  0  0  0  0  0  0
  190.2070  175.8590  143.1270 C   0  0  0  0  0  3  0  0  0  0  0  0
  190.4200  176.2730  141.8100 C   0  0  0  0  0  3  0  0  0  0  0  0
  1 12  1  0  0  0  0
  2  6  1  0  0  0  0
  2 12  1  0  0  0  0
  3 16  1  0  0  0  0
  4 14  1  0  0  0  0
  5 13  2  0  0  0  0
  7  9  1  1  0  0  0
  7 11  1  0  0  0  0
  8 10  2  0  0  0  0
  8 17  1  0  0  0  0
 10 19  1  0  0  0  0
 11 14  2  0  0  0  0
 11 16  1  0  0  0  0
 12 23  1  0  0  0  0
 13  7  1  0  0  0  0
 13  4  1  0  0  0  0
 14 18  1  0  0  0  0
 15  1  1  0  0  0  0
 16  2  2  0  0  0  0
 17 21  2  0  0  0  0
 18  6  2  0  0  0  0
 19 20  2  0  0  0  0
 20 15  1  0  0  0  0
 21 20  1  0  0  0  0
 21  3  1  0  0  0  0
 23 27  2  0  0  0  0
 23 24  1  0  0  0  0
 24 25  2  0  0  0  0
 25 22  1  0  0  0  0
 26 22  2  0  0  0  0
 27 26  1  0  0  0  0
M  END
>  <MODEL>
3

>  <REMARK>
 VINA RESULT:      -5.7      4.574      7.532
  Name = 
  1 active torsions:
  status: ('A' for Active; 'I' for Inactive)
    1  A    between atoms: C_9  and  N_15
                            x       y       z     vdW  Elec       q    Type
                         _______ _______ _______ _____ _____    ______ ____

>  <TORSDO>
F 1

$$$$
=
 OpenBabel10272401003D

 27 31  0  0  1  0  0  0  0  0999 V2000
  183.0970  177.4970  139.0970 C   0  0  0  0  0  2  0  0  0  0  0  0
  184.3550  176.0580  137.5070 C   0  0  0  0  0  0  0  0  0  0  0  0
  186.0050  177.9840  137.4850 C   0  0  0  0  0  2  0  0  0  0  0  0
  187.5480  173.4870  136.8460 O   0  0  0  0  0  0  0  0  0  0  0  0
  189.8040  174.0250  136.6540 O   0  0  0  0  0  0  0  0  0  0  0  0
  184.0800  174.6780  137.4050 C   0  0  0  0  0  3  0  0  0  0  0  0
  188.1680  175.8120  136.9620 C   0  0  1  0  0  3  0  0  0  0  0  0
  187.7300  178.4990  140.7510 C   0  0  0  0  0  3  0  0  0  0  0  0
  188.4380  176.5770  135.6760 C   0  0  0  0  0  1  0  0  0  0  0  0
  186.6950  178.8950  141.6010 C   0  0  0  0  0  3  0  0  0  0  0  0
  186.6950  175.5890  137.1290 C   0  0  0  0  0  0  0  0  0  0  0  0
  183.2740  176.9710  137.7450 N   0  0  0  0  0  0  0  0  0  0  0  0
  188.6070  174.3860  136.8000 C   0  0  0  0  0  0  0  0  0  0  0  0
  186.4090  174.2410  137.0490 C   0  0  0  0  0  0  0  0  0  0  0  0
  183.7530  178.8640  139.2290 C   0  0  0  0  0  2  0  0  0  0  0  0
  185.6810  176.5280  137.3620 C   0  0  0  0  0  0  0  0  0  0  0  0
  187.4730  178.2310  139.4440 N   0  0  0  0  0  0  0  0  0  0  0  0
  185.1120  173.7550  137.1770 C   0  0  0  0  0  3  0  0  0  0  0  0
  185.4020  179.0100  141.0910 C   0  0  0  0  0  3  0  0  0  0  0  0
  185.1520  178.7370  139.7430 C   0  0  0  0  0  0  0  0  0  0  0  0
  186.2230  178.3430  138.9180 C   0  0  0  0  0  0  0  0  0  0  0  0
  180.6220  178.0470  134.6430 N   0  0  0  0  0  0  0  0  0  0  0  0
  182.3670  177.3430  136.6850 C   0  0  0  0  0  0  0  0  0  0  0  0
  181.0110  177.5820  136.9530 C   0  0  0  0  0  3  0  0  0  0  0  0
  180.1490  177.9360  135.9130 C   0  0  0  0  0  3  0  0  0  0  0  0
  181.9300  177.8200  134.3510 C   0  0  0  0  0  3  0  0  0  0  0  0
  182.8230  177.4640  135.3640 C   0  0  0  0  0  3  0  0  0  0  0  0
  1 15  1  0  0  0  0
  2 12  1  0  0  0  0
  3 21  1  0  0  0  0
  4 14  1  0  0  0  0
  5 13  2  0  0  0  0
  6  2  1  0  0  0  0
  7  9  1  6  0  0  0
  7 11  1  0  0  0  0
  8 10  1  0  0  0  0
 11 16  1  0  0  0  0
 12  1  1  0  0  0  0
 13  4  1  0  0  0  0
 13  7  1  0  0  0  0
 14 11  2  0  0  0  0
 14 18  1  0  0  0  0
 15 20  1  0  0  0  0
 16  3  1  0  0  0  0
 16  2  2  0  0  0  0
 17  8  2  0  0  0  0
 18  6  2  0  0  0  0
 19 10  2  0  0  0  0
 20 19  1  0  0  0  0
 21 17  1  0  0  0  0
 21 20  2  0  0  0  0
 22 25  1  0  0  0  0
 23 24  1  0  0  0  0
 23 12  1  0  0  0  0
 25 24  2  0  0  0  0
 26 22  2  0  0  0  0
 26 27  1  0  0  0  0
 27 23  2  0  0  0  0
M  END
>  <MODEL>
4

>  <REMARK>
 VINA RESULT:      -5.4      1.442      1.753
  Name = 
  1 active torsions:
  status: ('A' for Active; 'I' for Inactive)
    1  A    between atoms: C_9  and  N_15
                            x       y       z     vdW  Elec       q    Type
                         _______ _______ _______ _____ _____    ______ ____

>  <TORSDO>
F 1

$$$$
=
 OpenBabel10272401003D

 27 31  0  0  1  0  0  0  0  0999 V2000
  183.7260  180.1020  138.9400 C   0  0  0  0  0  2  0  0  0  0  0  0
  185.0210  178.0380  138.4480 C   0  0  0  0  0  0  0  0  0  0  0  0
  182.7300  176.9790  138.1980 C   0  0  0  0  0  2  0  0  0  0  0  0
  186.4280  175.3500  135.6140 O   0  0  0  0  0  0  0  0  0  0  0  0
  185.2270  173.7220  134.4630 O   0  0  0  0  0  0  0  0  0  0  0  0
  186.3850  178.1050  138.0950 C   0  0  0  0  0  3  0  0  0  0  0  0
  184.0920  175.0900  136.1370 C   0  0  1  0  0  3  0  0  0  0  0  0
  180.8000  178.2870  135.2860 C   0  0  0  0  0  3  0  0  0  0  0  0
  183.6560  173.9720  137.0710 C   0  0  0  0  0  1  0  0  0  0  0  0
  180.5680  179.6200  135.6290 C   0  0  0  0  0  3  0  0  0  0  0  0
  184.7490  176.1870  136.9190 C   0  0  0  0  0  0  0  0  0  0  0  0
  184.5030  178.9600  139.4180 N   0  0  0  0  0  0  0  0  0  0  0  0
  185.2700  174.6370  135.3260 C   0  0  0  0  0  0  0  0  0  0  0  0
  186.0820  176.2800  136.5740 C   0  0  0  0  0  0  0  0  0  0  0  0
  182.2360  179.8030  139.0150 C   0  0  0  0  0  2  0  0  0  0  0  0
  184.1860  177.0610  137.8580 C   0  0  0  0  0  0  0  0  0  0  0  0
  181.4820  177.4730  136.1360 N   0  0  0  0  0  0  0  0  0  0  0  0
  186.9270  177.2240  137.1480 C   0  0  0  0  0  3  0  0  0  0  0  0
  181.0420  180.1020  136.8490 C   0  0  0  0  0  3  0  0  0  0  0  0
  181.7350  179.2540  137.7170 C   0  0  0  0  0  0  0  0  0  0  0  0
  181.9480  177.9150  137.3360 C   0  0  0  0  0  0  0  0  0  0  0  0
  185.2610  178.4260  143.5350 N   0  0  0  0  0  0  0  0  0  0  0  0
  184.7620  178.7810  140.8260 C   0  0  0  0  0  0  0  0  0  0  0  0
  186.0750  178.7880  141.3200 C   0  0  0  0  0  3  0  0  0  0  0  0
  186.3060  178.6090  142.6850 C   0  0  0  0  0  3  0  0  0  0  0  0
  183.9770  178.4130  143.0880 C   0  0  0  0  0  3  0  0  0  0  0  0
  183.7060  178.5890  141.7290 C   0  0  0  0  0  3  0  0  0  0  0  0
  1 15  1  0  0  0  0
  1 12  1  0  0  0  0
  2 12  1  0  0  0  0
  4 14  1  0  0  0  0
  5 13  2  0  0  0  0
  6  2  1  0  0  0  0
  7 11  1  0  0  0  0
  7  9  1  1  0  0  0
  8 10  2  0  0  0  0
  8 17  1  0  0  0  0
 10 19  1  0  0  0  0
 11 16  1  0  0  0  0
 12 23  1  0  0  0  0
 13  4  1  0  0  0  0
 13  7  1  0  0  0  0
 14 11  2  0  0  0  0
 14 18  1  0  0  0  0
 16  3  1  0  0  0  0
 16  2  2  0  0  0  0
 17 21  2  0  0  0  0
 18  6  2  0  0  0  0
 19 20  2  0  0  0  0
 20 15  1  0  0  0  0
 21 20  1  0  0  0  0
 21  3  1  0  0  0  0
 23 24  2  0  0  0  0
 23 27  1  0  0  0  0
 24 25  1  0  0  0  0
 25 22  2  0  0  0  0
 26 22  1  0  0  0  0
 27 26  2  0  0  0  0
M  END
>  <MODEL>
5

>  <REMARK>
 VINA RESULT:      -5.3      1.711      5.570
  Name = 
  1 active torsions:
  status: ('A' for Active; 'I' for Inactive)
    1  A    between atoms: C_9  and  N_15
                            x       y       z     vdW  Elec       q    Type
                         _______ _______ _______ _____ _____    ______ ____

>  <TORSDO>
F 1

$$$$
=
 OpenBabel10272401003D

 27 31  0  0  1  0  0  0  0  0999 V2000
  184.4220  177.9590  142.0520 C   0  0  0  0  0  2  0  0  0  0  0  0
  183.3230  177.1950  139.9560 C   0  0  0  0  0  0  0  0  0  0  0  0
  184.9490  178.7880  138.8380 C   0  0  0  0  0  2  0  0  0  0  0  0
  183.4930  174.8340  136.5450 O   0  0  0  0  0  0  0  0  0  0  0  0
  184.7580  175.1830  134.6230 O   0  0  0  0  0  0  0  0  0  0  0  0
  182.5510  176.0150  139.9320 C   0  0  0  0  0  3  0  0  0  0  0  0
  184.8350  176.8300  136.4240 C   0  0  1  0  0  3  0  0  0  0  0  0
  188.5130  177.7340  139.1510 C   0  0  0  0  0  3  0  0  0  0  0  0
  184.3220  178.0290  135.6440 C   0  0  0  0  0  1  0  0  0  0  0  0
  188.7590  177.8400  140.5210 C   0  0  0  0  0  3  0  0  0  0  0  0
  184.0910  176.7010  137.7190 C   0  0  0  0  0  0  0  0  0  0  0  0
  183.2930  178.0270  141.1250 N   0  0  0  0  0  0  0  0  0  0  0  0
  184.3780  175.5650  135.7610 C   0  0  0  0  0  0  0  0  0  0  0  0
  183.3430  175.5420  137.7210 C   0  0  0  0  0  0  0  0  0  0  0  0
  185.4130  179.0780  141.7680 C   0  0  0  0  0  2  0  0  0  0  0  0
  184.1040  177.5520  138.8330 C   0  0  0  0  0  0  0  0  0  0  0  0
  187.2910  178.0580  138.6510 N   0  0  0  0  0  0  0  0  0  0  0  0
  182.5580  175.1740  138.8090 C   0  0  0  0  0  3  0  0  0  0  0  0
  187.7380  178.2800  141.3640 C   0  0  0  0  0  3  0  0  0  0  0  0
  186.4880  178.6160  140.8370 C   0  0  0  0  0  0  0  0  0  0  0  0
  186.2800  178.4970  139.4490 C   0  0  0  0  0  0  0  0  0  0  0  0
  179.9970  180.5410  141.9130 N   0  0  0  0  0  0  0  0  0  0  0  0
  182.1680  178.8900  141.3950 C   0  0  0  0  0  0  0  0  0  0  0  0
  181.7370  179.1150  142.7110 C   0  0  0  0  0  3  0  0  0  0  0  0
  180.6440  179.9490  142.9520 C   0  0  0  0  0  3  0  0  0  0  0  0
  180.3890  180.3430  140.6270 C   0  0  0  0  0  3  0  0  0  0  0  0
  181.4790  179.5150  140.3460 C   0  0  0  0  0  3  0  0  0  0  0  0
  2 12  1  0  0  0  0
  3 21  1  0  0  0  0
  4 14  1  0  0  0  0
  5 13  2  0  0  0  0
  6  2  1  0  0  0  0
  7  9  1  6  0  0  0
  7 11  1  0  0  0  0
  8 10  1  0  0  0  0
 10 19  2  0  0  0  0
 11 14  2  0  0  0  0
 11 16  1  0  0  0  0
 12 23  1  0  0  0  0
 12  1  1  0  0  0  0
 13  7  1  0  0  0  0
 13  4  1  0  0  0  0
 14 18  1  0  0  0  0
 15  1  1  0  0  0  0
 16  3  1  0  0  0  0
 16  2  2  0  0  0  0
 17  8  2  0  0  0  0
 17 21  1  0  0  0  0
 18  6  2  0  0  0  0
 20 19  1  0  0  0  0
 20 15  1  0  0  0  0
 21 20  2  0  0  0  0
 22 25  1  0  0  0  0
 23 24  1  0  0  0  0
 24 25  2  0  0  0  0
 26 22  2  0  0  0  0
 27 26  1  0  0  0  0
 27 23  2  0  0  0  0
M  END
>  <MODEL>
6

>  <REMARK>
 VINA RESULT:      -5.3      2.791      4.416
  Name = 
  1 active torsions:
  status: ('A' for Active; 'I' for Inactive)
    1  A    between atoms: C_9  and  N_15
                            x       y       z     vdW  Elec       q    Type
                         _______ _______ _______ _____ _____    ______ ____

>  <TORSDO>
F 1

$$$$
=
 OpenBabel10272401003D

 27 31  0  0  1  0  0  0  0  0999 V2000
  191.4520  174.4620  135.2180 C   0  0  0  0  0  2  0  0  0  0  0  0
  193.4910  175.6670  135.9770 C   0  0  0  0  0  0  0  0  0  0  0  0
  193.9010  173.5660  137.3380 C   0  0  0  0  0  2  0  0  0  0  0  0
  197.6070  176.1440  135.7150 O   0  0  0  0  0  0  0  0  0  0  0  0
  199.2670  174.7600  136.5750 O   0  0  0  0  0  0  0  0  0  0  0  0
  193.9810  176.7810  135.2650 C   0  0  0  0  0  3  0  0  0  0  0  0
  196.9220  174.2180  136.9890 C   0  0  1  0  0  3  0  0  0  0  0  0
  194.6090  170.5580  135.2480 C   0  0  0  0  0  3  0  0  0  0  0  0
  196.9500  174.2800  138.5070 C   0  0  0  0  0  1  0  0  0  0  0  0
  193.4050  170.3460  134.5750 C   0  0  0  0  0  3  0  0  0  0  0  0
  195.7660  175.0140  136.4620 C   0  0  0  0  0  0  0  0  0  0  0  0
  192.0730  175.4690  136.0770 N   0  0  0  0  0  0  0  0  0  0  0  0
  198.0480  175.0380  136.4320 C   0  0  0  0  0  0  0  0  0  0  0  0
  196.2270  176.1010  135.7470 C   0  0  0  0  0  0  0  0  0  0  0  0
  191.2870  173.1490  135.9680 C   0  0  0  0  0  2  0  0  0  0  0  0
  194.3930  174.7680  136.5920 C   0  0  0  0  0  0  0  0  0  0  0  0
  194.7240  171.5870  136.1300 N   0  0  0  0  0  0  0  0  0  0  0  0
  195.3600  177.0050  135.1420 C   0  0  0  0  0  3  0  0  0  0  0  0
  192.3290  171.1990  134.8200 C   0  0  0  0  0  3  0  0  0  0  0  0
  192.4580  172.2480  135.7330 C   0  0  0  0  0  0  0  0  0  0  0  0
  193.6880  172.4290  136.3940 C   0  0  0  0  0  0  0  0  0  0  0  0
  189.7320  177.7710  138.7280 N   0  0  0  0  0  0  0  0  0  0  0  0
  191.2740  176.2590  136.9830 C   0  0  0  0  0  0  0  0  0  0  0  0
  191.6340  176.3830  138.3330 C   0  0  0  0  0  3  0  0  0  0  0  0
  190.8460  177.1480  139.1950 C   0  0  0  0  0  3  0  0  0  0  0  0
  189.3550  177.6700  137.4250 C   0  0  0  0  0  3  0  0  0  0  0  0
  190.1180  176.9130  136.5330 C   0  0  0  0  0  3  0  0  0  0  0  0
  1 15  1  0  0  0  0
  1 12  1  0  0  0  0
  2 12  1  0  0  0  0
  2 16  1  0  0  0  0
  4 14  1  0  0  0  0
  4 13  1  0  0  0  0
  6  2  2  0  0  0  0
  7  9  1  1  0  0  0
  8 17  1  0  0  0  0
 10 19  1  0  0  0  0
 10  8  2  0  0  0  0
 11 16  2  0  0  0  0
 11  7  1  0  0  0  0
 12 23  1  0  0  0  0
 13  5  2  0  0  0  0
 13  7  1  0  0  0  0
 14 11  1  0  0  0  0
 16  3  1  0  0  0  0
 17 21  2  0  0  0  0
 18  6  1  0  0  0  0
 18 14  2  0  0  0  0
 19 20  2  0  0  0  0
 20 15  1  0  0  0  0
 20 21  1  0  0  0  0
 21  3  1  0  0  0  0
 22 25  1  0  0  0  0
 23 24  1  0  0  0  0
 24 25  2  0  0  0  0
 26 22  2  0  0  0  0
 27 23  2  0  0  0  0
 27 26  1  0  0  0  0
M  END
>  <MODEL>
7

>  <REMARK>
 VINA RESULT:      -5.1      6.848     10.617
  Name = 
  1 active torsions:
  status: ('A' for Active; 'I' for Inactive)
    1  A    between atoms: C_9  and  N_15
                            x       y       z     vdW  Elec       q    Type
                         _______ _______ _______ _____ _____    ______ ____

>  <TORSDO>
F 1

$$$$
=
 OpenBabel10272401003D

 27 31  0  0  1  0  0  0  0  0999 V2000
  188.0500  172.7010  134.3460 C   0  0  0  0  0  2  0  0  0  0  0  0
  187.1410  174.7670  135.3900 C   0  0  0  0  0  0  0  0  0  0  0  0
  188.9110  174.3340  137.1540 C   0  0  0  0  0  2  0  0  0  0  0  0
  187.5790  178.8280  136.1340 O   0  0  0  0  0  0  0  0  0  0  0  0
  189.0350  179.8630  137.6250 O   0  0  0  0  0  0  0  0  0  0  0  0
  186.3430  175.6630  134.6480 C   0  0  0  0  0  3  0  0  0  0  0  0
  188.9810  177.4250  137.4990 C   0  0  1  0  0  3  0  0  0  0  0  0
  192.3980  174.6910  135.8770 C   0  0  0  0  0  3  0  0  0  0  0  0
  188.5790  177.1420  138.9370 C   0  0  0  0  0  1  0  0  0  0  0  0
  192.5110  173.6440  134.9600 C   0  0  0  0  0  3  0  0  0  0  0  0
  188.1110  176.6470  136.5580 C   0  0  0  0  0  0  0  0  0  0  0  0
  187.0190  173.3580  135.1490 N   0  0  0  0  0  0  0  0  0  0  0  0
  188.5560  178.8130  137.1220 C   0  0  0  0  0  0  0  0  0  0  0  0
  187.3340  177.5090  135.8110 C   0  0  0  0  0  0  0  0  0  0  0  0
  189.0940  172.0540  135.2430 C   0  0  0  0  0  2  0  0  0  0  0  0
  188.0380  175.2600  136.3660 C   0  0  0  0  0  0  0  0  0  0  0  0
  191.2390  174.8700  136.5660 N   0  0  0  0  0  0  0  0  0  0  0  0
  186.4370  177.0480  134.8530 C   0  0  0  0  0  3  0  0  0  0  0  0
  191.4250  172.7910  134.7640 C   0  0  0  0  0  3  0  0  0  0  0  0
  190.2420  172.9830  135.4820 C   0  0  0  0  0  0  0  0  0  0  0  0
  190.1680  174.0480  136.4000 C   0  0  0  0  0  0  0  0  0  0  0  0
  183.7320  171.1770  136.6460 N   0  0  0  0  0  0  0  0  0  0  0  0
  185.8970  172.6100  135.6630 C   0  0  0  0  0  0  0  0  0  0  0  0
  185.4140  171.4830  134.9800 C   0  0  0  0  0  3  0  0  0  0  0  0
  184.3240  170.7750  135.4910 C   0  0  0  0  0  3  0  0  0  0  0  0
  184.1750  172.2640  137.3310 C   0  0  0  0  0  3  0  0  0  0  0  0
  185.2630  172.9980  136.8520 C   0  0  0  0  0  3  0  0  0  0  0  0
  1 12  1  0  0  0  0
  1 15  1  0  0  0  0
  2 16  1  0  0  0  0
  4 13  1  0  0  0  0
  6 18  1  0  0  0  0
  6  2  2  0  0  0  0
  7  9  1  1  0  0  0
  8 17  1  0  0  0  0
 10  8  2  0  0  0  0
 11  7  1  0  0  0  0
 12  2  1  0  0  0  0
 12 23  1  0  0  0  0
 13  7  1  0  0  0  0
 13  5  2  0  0  0  0
 14  4  1  0  0  0  0
 14 11  1  0  0  0  0
 15 20  1  0  0  0  0
 16 11  2  0  0  0  0
 16  3  1  0  0  0  0
 18 14  2  0  0  0  0
 19 10  1  0  0  0  0
 19 20  2  0  0  0  0
 20 21  1  0  0  0  0
 21 17  2  0  0  0  0
 21  3  1  0  0  0  0
 22 26  1  0  0  0  0
 23 27  1  0  0  0  0
 24 25  1  0  0  0  0
 24 23  2  0  0  0  0
 25 22  2  0  0  0  0
 27 26  2  0  0  0  0
M  END
>  <MODEL>
8

>  <REMARK>
 VINA RESULT:      -4.9      4.515      6.683
  Name = 
  1 active torsions:
  status: ('A' for Active; 'I' for Inactive)
    1  A    between atoms: C_9  and  N_15
                            x       y       z     vdW  Elec       q    Type
                         _______ _______ _______ _____ _____    ______ ____

>  <TORSDO>
F 1

$$$$
=
 OpenBabel10272401003D

 27 31  0  0  1  0  0  0  0  0999 V2000
  187.7660  176.5410  138.9780 C   0  0  0  0  0  2  0  0  0  0  0  0
  189.3980  175.5190  137.4040 C   0  0  0  0  0  0  0  0  0  0  0  0
  190.8840  177.4500  138.1100 C   0  0  0  0  0  2  0  0  0  0  0  0
  192.8290  173.2450  136.8670 O   0  0  0  0  0  0  0  0  0  0  0  0
  195.0380  173.8740  137.2410 O   0  0  0  0  0  0  0  0  0  0  0  0
  189.2440  174.1880  136.9640 C   0  0  0  0  0  3  0  0  0  0  0  0
  193.2530  175.5040  137.5850 C   0  0  1  0  0  3  0  0  0  0  0  0
  191.9260  177.2880  141.6880 C   0  0  0  0  0  3  0  0  0  0  0  0
  193.7050  176.5380  136.5660 C   0  0  0  0  0  1  0  0  0  0  0  0
  190.7260  177.4600  142.3790 C   0  0  0  0  0  3  0  0  0  0  0  0
  191.7940  175.2090  137.4070 C   0  0  0  0  0  0  0  0  0  0  0  0
  188.2300  176.3280  137.6080 N   0  0  0  0  0  0  0  0  0  0  0  0
  193.8130  174.1610  137.2200 C   0  0  0  0  0  0  0  0  0  0  0  0
  191.6230  173.9040  136.9930 C   0  0  0  0  0  0  0  0  0  0  0  0
  188.2890  177.8640  139.5180 C   0  0  0  0  0  2  0  0  0  0  0  0
  190.6910  176.0460  137.6250 C   0  0  0  0  0  0  0  0  0  0  0  0
  191.9380  177.3040  140.3280 N   0  0  0  0  0  0  0  0  0  0  0  0
  190.3620  173.3660  136.7580 C   0  0  0  0  0  3  0  0  0  0  0  0
  189.5460  177.6470  141.6580 C   0  0  0  0  0  3  0  0  0  0  0  0
  189.5730  177.6680  140.2610 C   0  0  0  0  0  0  0  0  0  0  0  0
  190.8040  177.4930  139.6010 C   0  0  0  0  0  0  0  0  0  0  0  0
  186.1380  177.9990  134.3460 N   0  0  0  0  0  0  0  0  0  0  0  0
  187.5140  176.8960  136.4900 C   0  0  0  0  0  0  0  0  0  0  0  0
  188.2070  177.4910  135.4240 C   0  0  0  0  0  3  0  0  0  0  0  0
  187.4970  178.0400  134.3550 C   0  0  0  0  0  3  0  0  0  0  0  0
  185.4380  177.4310  135.3630 C   0  0  0  0  0  3  0  0  0  0  0  0
  186.1130  176.8720  136.4510 C   0  0  0  0  0  3  0  0  0  0  0  0
  1 15  1  0  0  0  0
  2 12  1  0  0  0  0
  2 16  1  0  0  0  0
  3 21  1  0  0  0  0
  4 14  1  0  0  0  0
  4 13  1  0  0  0  0
  6  2  2  0  0  0  0
  7  9  1  6  0  0  0
  8 10  1  0  0  0  0
 11  7  1  0  0  0  0
 11 16  2  0  0  0  0
 12  1  1  0  0  0  0
 13  5  2  0  0  0  0
 13  7  1  0  0  0  0
 14 11  1  0  0  0  0
 15 20  1  0  0  0  0
 16  3  1  0  0  0  0
 17  8  2  0  0  0  0
 18  6  1  0  0  0  0
 18 14  2  0  0  0  0
 19 10  2  0  0  0  0
 20 19  1  0  0  0  0
 21 20  2  0  0  0  0
 21 17  1  0  0  0  0
 22 25  2  0  0  0  0
 22 26  1  0  0  0  0
 23 12  1  0  0  0  0
 24 23  2  0  0  0  0
 25 24  1  0  0  0  0
 26 27  2  0  0  0  0
 27 23  1  0  0  0  0
M  END
>  <MODEL>
9

>  <REMARK>
 VINA RESULT:      -4.8      3.982      5.821
  Name = 
  1 active torsions:
  status: ('A' for Active; 'I' for Inactive)
    1  A    between atoms: C_9  and  N_15
                            x       y       z     vdW  Elec       q    Type
                         _______ _______ _______ _____ _____    ______ ____

>  <TORSDO>
F 1

$$$$
