=
 OpenBabel10272400523D

 25 27  0  0  1  0  0  0  0  0999 V2000
  187.6620  177.9070  145.8290 N   0  0  0  0  0  0  0  0  0  0  0  0
  186.6310  177.6480  144.8170 C   0  0  0  0  0  0  0  0  0  0  0  0
  186.0700  178.7170  147.4210 C   0  0  0  0  0  3  0  0  0  0  0  0
  188.9610  177.3180  145.8590 C   0  0  0  0  0  0  0  0  0  0  0  0
  185.0840  178.7590  146.3790 N   0  0  0  0  0  0  0  0  0  0  0  0
  189.5600  177.3810  147.0530 C   0  0  0  0  0  0  0  0  0  0  0  0
  184.3300  178.5070  144.0950 C   0  0  1  0  0  3  0  0  0  0  0  0
  182.8900  178.7440  144.3980 C   0  0  0  0  0  1  0  0  0  0  0  0
  187.0760  178.0360  143.4310 C   0  0  0  0  0  3  0  0  0  0  0  0
  187.3140  178.3390  147.1360 C   0  0  0  0  0  0  0  0  0  0  0  0
  188.6160  178.2010  148.3460 S   0  0  0  0  0  0  0  0  0  0  0  0
  184.7490  178.5290  142.8250 C   0  0  0  0  0  3  0  0  0  0  0  0
  186.1830  178.3690  142.4890 C   0  0  0  0  0  0  0  0  0  0  0  0
  185.3200  178.3260  145.1710 C   0  0  0  0  0  0  0  0  0  0  0  0
  191.8820  176.3280  147.5530 N   0  0  0  0  0  0  0  0  0  0  0  0
  190.8480  176.7970  147.3290 C   0  0  0  0  0  0  0  0  0  0  0  0
  190.4990  177.5230  143.9350 C   0  0  0  0  0  1  0  0  0  0  0  0
  189.5510  176.6040  144.6810 C   0  0  0  0  0  2  0  0  0  0  0  0
  186.6520  178.6880  141.1120 C   0  0  0  0  0  2  0  0  0  0  0  0
  188.1700  178.6520  141.0550 C   0  0  0  0  0  2  0  0  0  0  0  0
  188.6400  177.6570  140.0060 C   0  0  2  0  0  3  0  0  0  0  0  0
  190.0620  177.4110  140.1720 N   0  0  0  0  0  1  0  0  0  0  0  0
  188.3710  178.1640  138.6250 C   0  0  0  0  0  0  0  0  0  0  0  0
  188.9680  179.3400  138.1980 O   0  0  0  0  0  1  0  0  0  0  0  0
  187.6140  177.5260  137.8450 O   0  0  0  0  0  0  0  0  0  0  0  0
  1  4  1  0  0  0  0
  1 10  1  0  0  0  0
  2 14  1  0  0  0  0
  2  1  1  0  0  0  0
  4  6  2  0  0  0  0
  5  3  1  0  0  0  0
  6 16  1  0  0  0  0
  6 11  1  0  0  0  0
  7  8  1  1  0  0  0
  7 14  1  0  0  0  0
  9  2  2  0  0  0  0
 10  3  2  0  0  0  0
 10 11  1  0  0  0  0
 12  7  1  0  0  0  0
 13 12  2  0  0  0  0
 13  9  1  0  0  0  0
 14  5  2  0  0  0  0
 16 15  3  0  0  0  0
 17 18  1  0  0  0  0
 18  4  1  0  0  0  0
 19 13  1  0  0  0  0
 20 19  1  0  0  0  0
 21 22  1  6  0  0  0
 21 20  1  0  0  0  0
 23 21  1  0  0  0  0
 24 23  1  0  0  0  0
 25 23  2  0  0  0  0
M  END
>  <MODEL>
1

>  <REMARK>
 VINA RESULT:      -8.5      0.000      0.000
  Name = 
  6 active torsions:
  status: ('A' for Active; 'I' for Inactive)
    1  A    between atoms: C_2  and  CA_21
    2  A    between atoms: C_5  and  C_22
    3  A    between atoms: C_6  and  C_15
    4  A    between atoms: C_6  and  C_23
    5  A    between atoms: C_10  and  C_11
    6  A    between atoms: C_15  and  CA_21
                            x       y       z     vdW  Elec       q    Type
                         _______ _______ _______ _____ _____    ______ ____

>  <TORSDO>
F 6

$$$$
=
 OpenBabel10272400523D

 25 27  0  0  1  0  0  0  0  0999 V2000
  187.6470  177.9050  145.8180 N   0  0  0  0  0  0  0  0  0  0  0  0
  186.6130  177.6530  144.8070 C   0  0  0  0  0  0  0  0  0  0  0  0
  186.0600  178.7030  147.4200 C   0  0  0  0  0  3  0  0  0  0  0  0
  188.9460  177.3170  145.8400 C   0  0  0  0  0  0  0  0  0  0  0  0
  185.0700  178.7520  146.3820 N   0  0  0  0  0  0  0  0  0  0  0  0
  189.5490  177.3710  147.0320 C   0  0  0  0  0  0  0  0  0  0  0  0
  184.3090  178.5170  144.0980 C   0  0  1  0  0  3  0  0  0  0  0  0
  182.8710  178.7510  144.4070 C   0  0  0  0  0  1  0  0  0  0  0  0
  187.0540  178.0520  143.4220 C   0  0  0  0  0  3  0  0  0  0  0  0
  187.3030  178.3270  147.1290 C   0  0  0  0  0  0  0  0  0  0  0  0
  188.6080  178.1810  148.3340 S   0  0  0  0  0  0  0  0  0  0  0  0
  184.7250  178.5490  142.8270 C   0  0  0  0  0  3  0  0  0  0  0  0
  186.1580  178.3920  142.4850 C   0  0  0  0  0  0  0  0  0  0  0  0
  185.3030  178.3280  145.1700 C   0  0  0  0  0  0  0  0  0  0  0  0
  191.8720  176.3140  147.5150 N   0  0  0  0  0  0  0  0  0  0  0  0
  190.8380  176.7850  147.3000 C   0  0  0  0  0  0  0  0  0  0  0  0
  190.4910  177.5320  143.9220 C   0  0  0  0  0  1  0  0  0  0  0  0
  189.5340  176.6120  144.6540 C   0  0  0  0  0  2  0  0  0  0  0  0
  186.6230  178.7210  141.1100 C   0  0  0  0  0  2  0  0  0  0  0  0
  188.1070  178.4240  140.9740 C   0  0  0  0  0  2  0  0  0  0  0  0
  188.5040  178.3580  139.5080 C   0  0  2  0  0  3  0  0  0  0  0  0
  187.3110  178.3700  138.6800 N   0  0  0  0  0  1  0  0  0  0  0  0
  189.3070  177.1290  139.2230 C   0  0  0  0  0  0  0  0  0  0  0  0
  190.3260  176.7600  140.0890 O   0  0  0  0  0  1  0  0  0  0  0  0
  189.0600  176.4230  138.2080 O   0  0  0  0  0  0  0  0  0  0  0  0
  1  4  1  0  0  0  0
  1 10  1  0  0  0  0
  2 14  1  0  0  0  0
  2  1  1  0  0  0  0
  4  6  2  0  0  0  0
  5  3  1  0  0  0  0
  6 16  1  0  0  0  0
  6 11  1  0  0  0  0
  7  8  1  1  0  0  0
  7 14  1  0  0  0  0
  9  2  2  0  0  0  0
 10  3  2  0  0  0  0
 10 11  1  0  0  0  0
 12  7  1  0  0  0  0
 13 12  2  0  0  0  0
 13  9  1  0  0  0  0
 14  5  2  0  0  0  0
 16 15  3  0  0  0  0
 17 18  1  0  0  0  0
 18  4  1  0  0  0  0
 19 13  1  0  0  0  0
 20 19  1  0  0  0  0
 21 22  1  6  0  0  0
 21 20  1  0  0  0  0
 23 21  1  0  0  0  0
 23 24  1  0  0  0  0
 25 23  2  0  0  0  0
M  END
>  <MODEL>
2

>  <REMARK>
 VINA RESULT:      -8.4      1.066      1.084
  Name = 
  6 active torsions:
  status: ('A' for Active; 'I' for Inactive)
    1  A    between atoms: C_2  and  CA_21
    2  A    between atoms: C_5  and  C_22
    3  A    between atoms: C_6  and  C_15
    4  A    between atoms: C_6  and  C_23
    5  A    between atoms: C_10  and  C_11
    6  A    between atoms: C_15  and  CA_21
                            x       y       z     vdW  Elec       q    Type
                         _______ _______ _______ _____ _____    ______ ____

>  <TORSDO>
F 6

$$$$
=
 OpenBabel10272400523D

 25 27  0  0  1  0  0  0  0  0999 V2000
  188.4930  177.6270  145.4060 N   0  0  0  0  0  0  0  0  0  0  0  0
  187.7070  177.3990  144.1870 C   0  0  0  0  0  0  0  0  0  0  0  0
  186.5640  178.2310  146.6850 C   0  0  0  0  0  3  0  0  0  0  0  0
  189.7940  177.1020  145.6630 C   0  0  0  0  0  0  0  0  0  0  0  0
  185.8080  178.3070  145.4670 N   0  0  0  0  0  0  0  0  0  0  0  0
  190.1340  177.0990  146.9560 C   0  0  0  0  0  0  0  0  0  0  0  0
  185.5500  178.2000  143.0650 C   0  0  1  0  0  3  0  0  0  0  0  0
  184.0660  178.3420  143.0800 C   0  0  0  0  0  1  0  0  0  0  0  0
  188.3980  177.9170  142.9520 C   0  0  0  0  0  3  0  0  0  0  0  0
  187.8610  177.9370  146.6380 C   0  0  0  0  0  0  0  0  0  0  0  0
  188.8970  177.7680  148.0790 S   0  0  0  0  0  0  0  0  0  0  0  0
  186.2150  178.3430  141.9130 C   0  0  0  0  0  3  0  0  0  0  0  0
  187.6950  178.2800  141.8710 C   0  0  0  0  0  0  0  0  0  0  0  0
  186.3110  177.9830  144.3080 C   0  0  0  0  0  0  0  0  0  0  0  0
  192.3690  176.1230  147.8530 N   0  0  0  0  0  0  0  0  0  0  0  0
  191.3740  176.5580  147.4530 C   0  0  0  0  0  0  0  0  0  0  0  0
  191.6210  177.5570  144.0620 C   0  0  0  0  0  1  0  0  0  0  0  0
  190.6550  176.5130  144.5870 C   0  0  0  0  0  2  0  0  0  0  0  0
  188.4110  178.7290  140.6450 C   0  0  0  0  0  2  0  0  0  0  0  0
  187.8120  178.0660  139.4160 C   0  0  0  0  0  2  0  0  0  0  0  0
  188.9110  177.5740  138.4880 C   0  0  2  0  0  3  0  0  0  0  0  0
  190.1720  177.5300  139.2080 N   0  0  0  0  0  1  0  0  0  0  0  0
  189.0420  178.4620  137.2920 C   0  0  0  0  0  0  0  0  0  0  0  0
  189.2660  177.9010  136.0430 O   0  0  0  0  0  0  0  0  0  0  0  0
  188.9400  179.7130  137.4080 O   0  0  0  0  0  1  0  0  0  0  0  0
  1  4  1  0  0  0  0
  1 10  1  0  0  0  0
  2 14  1  0  0  0  0
  2  1  1  0  0  0  0
  4  6  2  0  0  0  0
  5  3  1  0  0  0  0
  6 16  1  0  0  0  0
  6 11  1  0  0  0  0
  7  8  1  1  0  0  0
  7 14  1  0  0  0  0
  9  2  2  0  0  0  0
 10  3  2  0  0  0  0
 10 11  1  0  0  0  0
 12  7  1  0  0  0  0
 13 12  2  0  0  0  0
 13  9  1  0  0  0  0
 14  5  2  0  0  0  0
 16 15  3  0  0  0  0
 17 18  1  0  0  0  0
 18  4  1  0  0  0  0
 19 13  1  0  0  0  0
 20 19  1  0  0  0  0
 21 22  1  1  0  0  0
 21 20  1  0  0  0  0
 23 25  1  0  0  0  0
 23 21  1  0  0  0  0
 24 23  2  0  0  0  0
M  END
>  <MODEL>
3

>  <REMARK>
 VINA RESULT:      -7.9      1.075      1.439
  Name = 
  6 active torsions:
  status: ('A' for Active; 'I' for Inactive)
    1  A    between atoms: C_2  and  CA_21
    2  A    between atoms: C_5  and  C_22
    3  A    between atoms: C_6  and  C_15
    4  A    between atoms: C_6  and  C_23
    5  A    between atoms: C_10  and  C_11
    6  A    between atoms: C_15  and  CA_21
                            x       y       z     vdW  Elec       q    Type
                         _______ _______ _______ _____ _____    ______ ____

>  <TORSDO>
F 6

$$$$
=
 OpenBabel10272400523D

 25 27  0  0  1  0  0  0  0  0999 V2000
  187.5390  177.9370  145.7210 N   0  0  0  0  0  0  0  0  0  0  0  0
  186.4530  177.6950  144.7640 C   0  0  0  0  0  0  0  0  0  0  0  0
  186.0380  178.7020  147.4190 C   0  0  0  0  0  3  0  0  0  0  0  0
  188.8410  177.3560  145.6630 C   0  0  0  0  0  0  0  0  0  0  0  0
  184.9930  178.7620  146.4370 N   0  0  0  0  0  0  0  0  0  0  0  0
  189.5070  177.3950  146.8210 C   0  0  0  0  0  0  0  0  0  0  0  0
  184.1100  178.5570  144.1950 C   0  0  1  0  0  3  0  0  0  0  0  0
  182.6890  178.7780  144.5860 C   0  0  0  0  0  1  0  0  0  0  0  0
  186.8160  178.1170  143.3630 C   0  0  0  0  0  3  0  0  0  0  0  0
  187.2650  178.3380  147.0550 C   0  0  0  0  0  0  0  0  0  0  0  0
  188.6350  178.1820  148.1850 S   0  0  0  0  0  0  0  0  0  0  0  0
  184.4560  178.6090  142.9030 C   0  0  0  0  0  3  0  0  0  0  0  0
  185.8690  178.4650  142.4820 C   0  0  0  0  0  0  0  0  0  0  0  0
  185.1620  178.3570  145.2080 C   0  0  0  0  0  0  0  0  0  0  0  0
  191.8580  176.3440  147.1620 N   0  0  0  0  0  0  0  0  0  0  0  0
  190.8120  176.8130  147.0100 C   0  0  0  0  0  0  0  0  0  0  0  0
  190.2820  177.6050  143.6710 C   0  0  0  0  0  1  0  0  0  0  0  0
  189.3660  176.6720  144.4370 C   0  0  0  0  0  2  0  0  0  0  0  0
  186.2560  178.8170  141.0880 C   0  0  0  0  0  2  0  0  0  0  0  0
  185.0150  179.0570  140.2450 C   0  0  0  0  0  2  0  0  0  0  0  0
  185.0860  178.2550  138.9550 C   0  0  2  0  0  3  0  0  0  0  0  0
  186.0890  178.8320  138.0780 N   0  0  0  0  0  1  0  0  0  0  0  0
  183.7600  178.2310  138.2630 C   0  0  0  0  0  0  0  0  0  0  0  0
  182.8820  179.2930  138.4270 O   0  0  0  0  0  1  0  0  0  0  0  0
  183.4400  177.2610  137.5250 O   0  0  0  0  0  0  0  0  0  0  0  0
  1 10  1  0  0  0  0
  2 14  1  0  0  0  0
  2  1  1  0  0  0  0
  4  1  1  0  0  0  0
  4  6  2  0  0  0  0
  5  3  1  0  0  0  0
  6 16  1  0  0  0  0
  6 11  1  0  0  0  0
  7  8  1  1  0  0  0
  7 14  1  0  0  0  0
  9  2  2  0  0  0  0
 10  3  2  0  0  0  0
 10 11  1  0  0  0  0
 12  7  1  0  0  0  0
 13 12  2  0  0  0  0
 13  9  1  0  0  0  0
 14  5  2  0  0  0  0
 16 15  3  0  0  0  0
 17 18  1  0  0  0  0
 18  4  1  0  0  0  0
 19 13  1  0  0  0  0
 20 19  1  0  0  0  0
 21 22  1  6  0  0  0
 21 20  1  0  0  0  0
 23 24  1  0  0  0  0
 23 21  1  0  0  0  0
 25 23  2  0  0  0  0
M  END
>  <MODEL>
4

>  <REMARK>
 VINA RESULT:      -7.7      1.993      2.231
  Name = 
  6 active torsions:
  status: ('A' for Active; 'I' for Inactive)
    1  A    between atoms: C_2  and  CA_21
    2  A    between atoms: C_5  and  C_22
    3  A    between atoms: C_6  and  C_15
    4  A    between atoms: C_6  and  C_23
    5  A    between atoms: C_10  and  C_11
    6  A    between atoms: C_15  and  CA_21
                            x       y       z     vdW  Elec       q    Type
                         _______ _______ _______ _____ _____    ______ ____

>  <TORSDO>
F 6

$$$$
=
 OpenBabel10272400523D

 25 27  0  0  1  0  0  0  0  0999 V2000
  187.1060  178.1280  142.3580 N   0  0  0  0  0  0  0  0  0  0  0  0
  188.3260  177.3120  142.3700 C   0  0  0  0  0  0  0  0  0  0  0  0
  187.1730  178.4140  139.9840 C   0  0  0  0  0  3  0  0  0  0  0  0
  186.1170  178.1550  143.3850 C   0  0  0  0  0  0  0  0  0  0  0  0
  188.5060  177.8810  139.9800 N   0  0  0  0  0  0  0  0  0  0  0  0
  184.9350  178.6390  142.9910 C   0  0  0  0  0  0  0  0  0  0  0  0
  190.4930  177.0020  141.0410 C   0  0  1  0  0  3  0  0  0  0  0  0
  191.1840  176.6500  139.7690 C   0  0  0  0  0  1  0  0  0  0  0  0
  189.2290  177.6440  143.5300 C   0  0  0  0  0  3  0  0  0  0  0  0
  186.5250  178.5590  141.1370 C   0  0  0  0  0  0  0  0  0  0  0  0
  184.8530  179.1640  141.2710 S   0  0  0  0  0  0  0  0  0  0  0  0
  191.1840  177.0120  142.1870 C   0  0  0  0  0  3  0  0  0  0  0  0
  190.5490  177.4260  143.4600 C   0  0  0  0  0  0  0  0  0  0  0  0
  189.0790  177.4160  141.0550 C   0  0  0  0  0  0  0  0  0  0  0  0
  182.8440  178.7540  144.5270 N   0  0  0  0  0  0  0  0  0  0  0  0
  183.7750  178.7020  143.8430 C   0  0  0  0  0  0  0  0  0  0  0  0
  186.3580  178.7060  145.7830 C   0  0  0  0  0  1  0  0  0  0  0  0
  186.3580  177.5920  144.7540 C   0  0  0  0  0  2  0  0  0  0  0  0
  191.4040  177.7070  144.6460 C   0  0  0  0  0  2  0  0  0  0  0  0
  191.4530  176.4900  145.5560 C   0  0  0  0  0  2  0  0  0  0  0  0
  191.3950  176.9140  147.0150 C   0  0  2  0  0  3  0  0  0  0  0  0
  192.0000  175.8860  147.8440 N   0  0  0  0  0  1  0  0  0  0  0  0
  189.9840  177.1500  147.4500 C   0  0  0  0  0  0  0  0  0  0  0  0
  189.7250  178.0490  148.4750 O   0  0  0  0  0  1  0  0  0  0  0  0
  189.0300  176.5480  146.8890 O   0  0  0  0  0  0  0  0  0  0  0  0
  1  2  1  0  0  0  0
  1  4  1  0  0  0  0
  2  9  2  0  0  0  0
  3 10  2  0  0  0  0
  4 18  1  0  0  0  0
  5  3  1  0  0  0  0
  5 14  2  0  0  0  0
  6  4  2  0  0  0  0
  6 16  1  0  0  0  0
  7  8  1  6  0  0  0
  7 14  1  0  0  0  0
  7 12  1  0  0  0  0
 10 11  1  0  0  0  0
 10  1  1  0  0  0  0
 11  6  1  0  0  0  0
 12 13  2  0  0  0  0
 13  9  1  0  0  0  0
 13 19  1  0  0  0  0
 14  2  1  0  0  0  0
 16 15  3  0  0  0  0
 18 17  1  0  0  0  0
 19 20  1  0  0  0  0
 20 21  1  0  0  0  0
 21 23  1  0  0  0  0
 21 22  1  1  0  0  0
 23 24  1  0  0  0  0
 25 23  2  0  0  0  0
M  END
>  <MODEL>
5

>  <REMARK>
 VINA RESULT:      -7.5      3.541      6.920
  Name = 
  6 active torsions:
  status: ('A' for Active; 'I' for Inactive)
    1  A    between atoms: C_2  and  CA_21
    2  A    between atoms: C_5  and  C_22
    3  A    between atoms: C_6  and  C_15
    4  A    between atoms: C_6  and  C_23
    5  A    between atoms: C_10  and  C_11
    6  A    between atoms: C_15  and  CA_21
                            x       y       z     vdW  Elec       q    Type
                         _______ _______ _______ _____ _____    ______ ____

>  <TORSDO>
F 6

$$$$
=
 OpenBabel10272400523D

 25 27  0  0  1  0  0  0  0  0999 V2000
  189.4560  177.5470  143.7100 N   0  0  0  0  0  0  0  0  0  0  0  0
  188.3980  177.2610  144.6870 C   0  0  2  0  0  3  0  0  0  0  0  0
  191.1830  177.4220  145.3600 C   0  0  0  0  0  3  0  0  0  0  0  0
  189.3470  177.3800  142.2980 C   0  0  0  0  0  0  0  0  0  0  0  0
  190.1760  177.4340  146.3830 N   0  0  0  0  0  0  0  0  0  0  0  0
  190.5230  177.3120  141.6660 C   0  0  0  0  0  0  0  0  0  0  0  0
  187.8950  177.5570  147.1800 C   0  0  0  0  0  0  0  0  0  0  0  0
  188.2320  177.2740  148.6040 C   0  0  0  0  0  1  0  0  0  0  0  0
  187.1660  178.1000  144.4630 C   0  0  0  0  0  3  0  0  0  0  0  0
  190.8250  177.5120  144.0820 C   0  0  0  0  0  0  0  0  0  0  0  0
  191.9740  177.4630  142.7200 S   0  0  0  0  0  0  0  0  0  0  0  0
  186.6810  178.0220  146.8680 C   0  0  0  0  0  3  0  0  0  0  0  0
  186.3330  178.3820  145.4740 C   0  0  0  0  0  0  0  0  0  0  0  0
  188.9000  177.4100  146.1120 C   0  0  0  0  0  0  0  0  0  0  0  0
  190.7580  176.9000  139.1110 N   0  0  0  0  0  0  0  0  0  0  0  0
  190.6540  177.0830  140.2490 C   0  0  0  0  0  0  0  0  0  0  0  0
  187.5890  178.4960  140.9660 C   0  0  0  0  0  1  0  0  0  0  0  0
  188.0310  177.1940  141.6050 C   0  0  0  0  0  2  0  0  0  0  0  0
  185.0930  179.1620  145.2070 C   0  0  0  0  0  2  0  0  0  0  0  0
  184.8820  179.3130  143.7100 C   0  0  0  0  0  2  0  0  0  0  0  0
  183.3980  179.3830  143.3860 C   0  0  2  0  0  3  0  0  0  0  0  0
  182.6360  178.7900  144.4710 N   0  0  0  0  0  1  0  0  0  0  0  0
  183.0930  178.6750  142.1050 C   0  0  0  0  0  0  0  0  0  0  0  0
  184.0950  177.9670  141.4580 O   0  0  0  0  0  0  0  0  0  0  0  0
  181.9320  178.7090  141.6150 O   0  0  0  0  0  1  0  0  0  0  0  0
  1 10  1  0  0  0  0
  1  2  1  0  0  0  0
  2  9  1  6  0  0  0
  2 14  1  0  0  0  0
  3  5  1  0  0  0  0
  4  1  1  0  0  0  0
  6  4  2  0  0  0  0
  6 11  1  0  0  0  0
  7  8  1  0  0  0  0
  9 13  2  0  0  0  0
 10  3  2  0  0  0  0
 11 10  1  0  0  0  0
 12  7  2  0  0  0  0
 13 12  1  0  0  0  0
 14  5  2  0  0  0  0
 14  7  1  0  0  0  0
 15 16  3  0  0  0  0
 16  6  1  0  0  0  0
 17 18  1  0  0  0  0
 18  4  1  0  0  0  0
 19 13  1  0  0  0  0
 20 19  1  0  0  0  0
 21 20  1  0  0  0  0
 21 22  1  1  0  0  0
 23 21  1  0  0  0  0
 24 23  2  0  0  0  0
 25 23  1  0  0  0  0
M  END
>  <MODEL>
6

>  <REMARK>
 VINA RESULT:      -7.5      2.660      5.399
  Name = 
  6 active torsions:
  status: ('A' for Active; 'I' for Inactive)
    1  A    between atoms: C_2  and  CA_21
    2  A    between atoms: C_5  and  C_22
    3  A    between atoms: C_6  and  C_15
    4  A    between atoms: C_6  and  C_23
    5  A    between atoms: C_10  and  C_11
    6  A    between atoms: C_15  and  CA_21
                            x       y       z     vdW  Elec       q    Type
                         _______ _______ _______ _____ _____    ______ ____

>  <TORSDO>
F 6

$$$$
=
 OpenBabel10272400523D

 25 27  0  0  1  0  0  0  0  0999 V2000
  189.1470  177.7120  140.8990 N   0  0  0  0  0  0  0  0  0  0  0  0
  188.1880  178.3100  141.8360 C   0  0  2  0  0  3  0  0  0  0  0  0
  187.6930  178.0150  139.0240 C   0  0  0  0  0  3  0  0  0  0  0  0
  190.5500  177.5780  141.1220 C   0  0  0  0  0  0  0  0  0  0  0  0
  186.6260  178.3290  139.9320 N   0  0  0  0  0  0  0  0  0  0  0  0
  191.2630  177.3870  140.0070 C   0  0  0  0  0  0  0  0  0  0  0  0
  185.6630  178.6140  142.1320 C   0  0  0  0  0  0  0  0  0  0  0  0
  184.3660  179.1630  141.6440 C   0  0  0  0  0  1  0  0  0  0  0  0
  188.1300  177.5720  143.1490 C   0  0  0  0  0  3  0  0  0  0  0  0
  188.8900  177.6870  139.5040 C   0  0  0  0  0  0  0  0  0  0  0  0
  190.3060  177.3220  138.4840 S   0  0  0  0  0  0  0  0  0  0  0  0
  185.7760  178.2190  143.4050 C   0  0  0  0  0  3  0  0  0  0  0  0
  187.0260  177.6020  143.9070 C   0  0  0  0  0  0  0  0  0  0  0  0
  186.8050  178.4230  141.2200 C   0  0  0  0  0  0  0  0  0  0  0  0
  193.8540  177.2110  139.9710 N   0  0  0  0  0  0  0  0  0  0  0  0
  192.7000  177.2880  139.9870 C   0  0  0  0  0  0  0  0  0  0  0  0
  191.3660  176.3890  143.1290 C   0  0  0  0  0  1  0  0  0  0  0  0
  191.1730  177.7430  142.4760 C   0  0  0  0  0  2  0  0  0  0  0  0
  187.0220  176.9130  145.2270 C   0  0  0  0  0  2  0  0  0  0  0  0
  187.4040  177.8890  146.3280 C   0  0  0  0  0  2  0  0  0  0  0  0
  188.3360  177.2250  147.3280 C   0  0  2  0  0  3  0  0  0  0  0  0
  188.2250  177.8930  148.6140 N   0  0  0  0  0  1  0  0  0  0  0  0
  189.7540  177.2690  146.8550 C   0  0  0  0  0  0  0  0  0  0  0  0
  190.7010  176.4490  147.4510 O   0  0  0  0  0  1  0  0  0  0  0  0
  190.0920  178.0380  145.9150 O   0  0  0  0  0  0  0  0  0  0  0  0
  1  4  1  0  0  0  0
  1  2  1  0  0  0  0
  2  9  1  1  0  0  0
  3 10  2  0  0  0  0
  3  5  1  0  0  0  0
  4 18  1  0  0  0  0
  5 14  2  0  0  0  0
  6  4  2  0  0  0  0
  7 12  2  0  0  0  0
  8  7  1  0  0  0  0
  9 13  2  0  0  0  0
 10  1  1  0  0  0  0
 11 10  1  0  0  0  0
 11  6  1  0  0  0  0
 12 13  1  0  0  0  0
 13 19  1  0  0  0  0
 14  2  1  0  0  0  0
 14  7  1  0  0  0  0
 15 16  3  0  0  0  0
 16  6  1  0  0  0  0
 18 17  1  0  0  0  0
 19 20  1  0  0  0  0
 20 21  1  0  0  0  0
 21 22  1  1  0  0  0
 23 21  1  0  0  0  0
 23 24  1  0  0  0  0
 25 23  2  0  0  0  0
M  END
>  <MODEL>
7

>  <REMARK>
 VINA RESULT:      -7.4      3.695      6.272
  Name = 
  6 active torsions:
  status: ('A' for Active; 'I' for Inactive)
    1  A    between atoms: C_2  and  CA_21
    2  A    between atoms: C_5  and  C_22
    3  A    between atoms: C_6  and  C_15
    4  A    between atoms: C_6  and  C_23
    5  A    between atoms: C_10  and  C_11
    6  A    between atoms: C_15  and  CA_21
                            x       y       z     vdW  Elec       q    Type
                         _______ _______ _______ _____ _____    ______ ____

>  <TORSDO>
F 6

$$$$
=
 OpenBabel10272400523D

 25 27  0  0  1  0  0  0  0  0999 V2000
  186.4290  178.3390  140.6230 N   0  0  0  0  0  0  0  0  0  0  0  0
  186.4500  178.7360  142.0350 C   0  0  2  0  0  3  0  0  0  0  0  0
  184.0630  178.6440  140.4460 C   0  0  0  0  0  3  0  0  0  0  0  0
  187.5510  178.3450  139.7420 C   0  0  0  0  0  0  0  0  0  0  0  0
  183.9920  178.7510  141.8760 N   0  0  0  0  0  0  0  0  0  0  0  0
  187.2250  178.3380  138.4450 C   0  0  0  0  0  0  0  0  0  0  0  0
  184.9380  178.7240  144.1020 C   0  0  0  0  0  0  0  0  0  0  0  0
  183.6900  179.1650  144.7860 C   0  0  0  0  0  1  0  0  0  0  0  0
  187.3770  177.8800  142.8600 C   0  0  0  0  0  3  0  0  0  0  0  0
  185.2340  178.4110  139.8590 C   0  0  0  0  0  0  0  0  0  0  0  0
  185.4610  178.3030  138.0940 S   0  0  0  0  0  0  0  0  0  0  0  0
  185.9490  178.2310  144.8250 C   0  0  0  0  0  3  0  0  0  0  0  0
  187.1770  177.7160  144.1740 C   0  0  0  0  0  0  0  0  0  0  0  0
  185.0550  178.7480  142.6320 C   0  0  0  0  0  0  0  0  0  0  0  0
  188.9730  178.4570  136.5270 N   0  0  0  0  0  0  0  0  0  0  0  0
  188.1940  178.4040  137.3810 C   0  0  0  0  0  0  0  0  0  0  0  0
  189.6240  177.0910  140.2310 C   0  0  0  0  0  1  0  0  0  0  0  0
  188.9630  178.4550  140.2340 C   0  0  0  0  0  2  0  0  0  0  0  0
  188.1460  176.9150  144.9710 C   0  0  0  0  0  2  0  0  0  0  0  0
  189.0240  177.8330  145.8050 C   0  0  0  0  0  2  0  0  0  0  0  0
  189.6590  177.0640  146.9520 C   0  0  2  0  0  3  0  0  0  0  0  0
  189.4010  177.7570  148.2030 N   0  0  0  0  0  1  0  0  0  0  0  0
  191.1330  176.9140  146.7500 C   0  0  0  0  0  0  0  0  0  0  0  0
  191.9780  176.9070  147.8500 O   0  0  0  0  0  1  0  0  0  0  0  0
  191.6100  176.7850  145.5910 O   0  0  0  0  0  0  0  0  0  0  0  0
  1  2  1  0  0  0  0
  2 14  1  0  0  0  0
  2  9  1  1  0  0  0
  3  5  1  0  0  0  0
  4 18  1  0  0  0  0
  4  1  1  0  0  0  0
  5 14  2  0  0  0  0
  6  4  2  0  0  0  0
  7  8  1  0  0  0  0
  7 12  2  0  0  0  0
  9 13  2  0  0  0  0
 10  3  2  0  0  0  0
 10  1  1  0  0  0  0
 11  6  1  0  0  0  0
 11 10  1  0  0  0  0
 13 12  1  0  0  0  0
 13 19  1  0  0  0  0
 14  7  1  0  0  0  0
 15 16  3  0  0  0  0
 16  6  1  0  0  0  0
 17 18  1  0  0  0  0
 19 20  1  0  0  0  0
 20 21  1  0  0  0  0
 21 22  1  1  0  0  0
 23 21  1  0  0  0  0
 23 24  1  0  0  0  0
 25 23  2  0  0  0  0
M  END
>  <MODEL>
8

>  <REMARK>
 VINA RESULT:      -7.3      3.868      6.704
  Name = 
  6 active torsions:
  status: ('A' for Active; 'I' for Inactive)
    1  A    between atoms: C_2  and  CA_21
    2  A    between atoms: C_5  and  C_22
    3  A    between atoms: C_6  and  C_15
    4  A    between atoms: C_6  and  C_23
    5  A    between atoms: C_10  and  C_11
    6  A    between atoms: C_15  and  CA_21
                            x       y       z     vdW  Elec       q    Type
                         _______ _______ _______ _____ _____    ______ ____

>  <TORSDO>
F 6

$$$$
=
 OpenBabel10272400523D

 25 27  0  0  1  0  0  0  0  0999 V2000
  183.3580  178.7680  142.0090 N   0  0  0  0  0  0  0  0  0  0  0  0
  184.5330  178.9660  142.8660 C   0  0  2  0  0  3  0  0  0  0  0  0
  181.8400  178.8870  143.8540 C   0  0  0  0  0  3  0  0  0  0  0  0
  183.3100  178.9950  140.6020 C   0  0  0  0  0  0  0  0  0  0  0  0
  182.9570  178.7880  144.7510 N   0  0  0  0  0  0  0  0  0  0  0  0
  182.0730  179.1390  140.1150 C   0  0  0  0  0  0  0  0  0  0  0  0
  185.3060  178.5360  145.2690 C   0  0  0  0  0  0  0  0  0  0  0  0
  185.1490  178.7670  146.7330 C   0  0  0  0  0  1  0  0  0  0  0  0
  185.6910  178.0890  142.4660 C   0  0  0  0  0  3  0  0  0  0  0  0
  182.0430  178.8410  142.5400 C   0  0  0  0  0  0  0  0  0  0  0  0
  180.7480  178.9980  141.3250 S   0  0  0  0  0  0  0  0  0  0  0  0
  186.4540  178.0380  144.7990 C   0  0  0  0  0  3  0  0  0  0  0  0
  186.6220  177.7280  143.3600 C   0  0  0  0  0  0  0  0  0  0  0  0
  184.1920  178.7730  144.3330 C   0  0  0  0  0  0  0  0  0  0  0  0
  181.5640  179.6780  137.6260 N   0  0  0  0  0  0  0  0  0  0  0  0
  181.7900  179.4370  138.7340 C   0  0  0  0  0  0  0  0  0  0  0  0
  184.7210  177.9610  138.8560 C   0  0  0  0  0  1  0  0  0  0  0  0
  184.5450  179.1590  139.7680 C   0  0  0  0  0  2  0  0  0  0  0  0
  187.7860  176.9110  142.9180 C   0  0  0  0  0  2  0  0  0  0  0  0
  188.8640  176.9150  143.9890 C   0  0  0  0  0  2  0  0  0  0  0  0
  190.2420  176.7950  143.3570 C   0  0  2  0  0  3  0  0  0  0  0  0
  190.4810  175.4160  142.9700 N   0  0  0  0  0  1  0  0  0  0  0  0
  191.3080  177.2490  144.3020 C   0  0  0  0  0  0  0  0  0  0  0  0
  191.6350  176.4600  145.3970 O   0  0  0  0  0  1  0  0  0  0  0  0
  191.9180  178.3340  144.1080 O   0  0  0  0  0  0  0  0  0  0  0  0
  1 10  1  0  0  0  0
  1  2  1  0  0  0  0
  2  9  1  6  0  0  0
  2 14  1  0  0  0  0
  3  5  1  0  0  0  0
  4  1  1  0  0  0  0
  6  4  2  0  0  0  0
  6 11  1  0  0  0  0
  7  8  1  0  0  0  0
  9 13  2  0  0  0  0
 10  3  2  0  0  0  0
 11 10  1  0  0  0  0
 12  7  2  0  0  0  0
 13 12  1  0  0  0  0
 14  5  2  0  0  0  0
 14  7  1  0  0  0  0
 15 16  3  0  0  0  0
 16  6  1  0  0  0  0
 17 18  1  0  0  0  0
 18  4  1  0  0  0  0
 19 13  1  0  0  0  0
 19 20  1  0  0  0  0
 21 22  1  1  0  0  0
 21 20  1  0  0  0  0
 21 23  1  0  0  0  0
 23 24  1  0  0  0  0
 25 23  2  0  0  0  0
M  END
>  <MODEL>
9

>  <REMARK>
 VINA RESULT:      -7.1      4.128      6.772
  Name = 
  6 active torsions:
  status: ('A' for Active; 'I' for Inactive)
    1  A    between atoms: C_2  and  CA_21
    2  A    between atoms: C_5  and  C_22
    3  A    between atoms: C_6  and  C_15
    4  A    between atoms: C_6  and  C_23
    5  A    between atoms: C_10  and  C_11
    6  A    between atoms: C_15  and  CA_21
                            x       y       z     vdW  Elec       q    Type
                         _______ _______ _______ _____ _____    ______ ____

>  <TORSDO>
F 6

$$$$
