=
 OpenBabel10272401033D

 27 31  0  0  1  0  0  0  0  0999 V2000
  185.7420  178.7010  145.3010 C   0  0  0  0  0  3  0  0  0  0  0  0
  186.8450  178.1950  143.1460 C   0  0  0  0  0  0  0  0  0  0  0  0
  188.2510  177.0240  144.8480 C   0  0  0  0  0  3  0  0  0  0  0  0
  189.7200  177.8570  140.4280 N   0  0  0  0  0  0  0  0  0  0  0  0
  191.9800  177.6240  141.1420 N   0  0  0  0  0  1  0  0  0  0  0  0
  186.7350  178.9410  141.8580 C   0  0  0  0  0  3  0  0  0  0  0  0
  190.1850  176.7560  142.4650 N   0  0  0  0  0  0  0  0  0  0  0  0
  189.1870  177.2160  147.9710 C   0  0  0  0  0  2  0  0  0  0  0  0
  189.4590  175.4880  142.4170 C   0  0  0  0  0  1  0  0  0  0  0  0
  188.8370  178.6680  148.3050 C   0  0  0  0  0  2  0  0  0  0  0  0
  189.2740  177.8980  142.6760 C   0  0  1  0  0  3  0  0  0  0  0  0
  185.6180  177.9820  143.9990 C   0  0  2  0  0  3  0  0  0  0  0  0
  190.6770  176.9820  141.0950 C   0  0  1  0  0  3  0  0  0  0  0  0
  188.9520  178.3620  141.3210 C   0  0  0  0  0  0  0  0  0  0  0  0
  186.6470  178.3790  146.2260 C   0  0  0  0  0  0  0  0  0  0  0  0
  188.0400  177.6820  143.5370 C   0  0  0  0  0  0  0  0  0  0  0  0
  188.0920  176.4830  147.1930 C   0  0  0  0  0  2  0  0  0  0  0  0
  187.7180  179.0020  141.0110 N   0  0  0  0  0  0  0  0  0  0  0  0
  187.3520  178.8310  148.6030 C   0  0  0  0  0  2  0  0  0  0  0  0
  186.6200  179.1290  147.4150 O   0  0  0  0  0  0  0  0  0  0  0  0
  187.6320  177.2730  146.0130 C   0  0  0  0  0  0  0  0  0  0  0  0
  181.8420  178.7940  142.1010 C   0  0  0  0  0  3  0  0  0  0  0  0
  184.3130  178.2730  143.3150 C   0  0  0  0  0  0  0  0  0  0  0  0
  184.1270  178.0110  141.9490 C   0  0  0  0  0  3  0  0  0  0  0  0
  182.8940  178.2720  141.3430 C   0  0  0  0  0  3  0  0  0  0  0  0
  182.0200  179.0510  143.4630 C   0  0  0  0  0  3  0  0  0  0  0  0
  183.2520  178.7900  144.0690 C   0  0  0  0  0  3  0  0  0  0  0  0
  1 15  2  0  0  0  0
  2 16  2  0  0  0  0
  2 12  1  0  0  0  0
  3 21  2  0  0  0  0
  4 13  1  0  0  0  0
  4 14  2  0  0  0  0
  6  2  1  0  0  0  0
  7 11  1  0  0  0  0
  8 10  1  0  0  0  0
  9  7  1  0  0  0  0
 10 19  1  0  0  0  0
 11 14  1  6  0  0  0
 11 16  1  0  0  0  0
 12 23  1  6  0  0  0
 12  1  1  0  0  0  0
 13  5  1  1  0  0  0
 13  7  1  0  0  0  0
 15 20  1  0  0  0  0
 16  3  1  0  0  0  0
 17  8  1  0  0  0  0
 18 14  1  0  0  0  0
 18  6  2  0  0  0  0
 20 19  1  0  0  0  0
 21 15  1  0  0  0  0
 21 17  1  0  0  0  0
 22 26  1  0  0  0  0
 23 27  1  0  0  0  0
 24 23  2  0  0  0  0
 25 24  1  0  0  0  0
 25 22  2  0  0  0  0
 26 27  2  0  0  0  0
M  END
>  <MODEL>
1

>  <REMARK>
 VINA RESULT:      -8.9      0.000      0.000
  Name = 
  1 active torsions:
  status: ('A' for Active; 'I' for Inactive)
    1  A    between atoms: C_9  and  C_15
                            x       y       z     vdW  Elec       q    Type
                         _______ _______ _______ _____ _____    ______ ____

>  <TORSDO>
F 1

$$$$
=
 OpenBabel10272401033D

 27 31  0  0  1  0  0  0  0  0999 V2000
  191.6980  176.9000  139.6060 C   0  0  0  0  0  3  0  0  0  0  0  0
  189.2520  177.1210  139.3070 C   0  0  0  0  0  0  0  0  0  0  0  0
  189.9520  175.5360  137.5070 C   0  0  0  0  0  3  0  0  0  0  0  0
  185.7660  177.7400  137.5120 N   0  0  0  0  0  0  0  0  0  0  0  0
  185.5810  177.3810  135.1650 N   0  0  0  0  0  1  0  0  0  0  0  0
  188.3630  178.2220  139.7810 C   0  0  0  0  0  3  0  0  0  0  0  0
  187.0990  176.0840  136.4840 N   0  0  0  0  0  0  0  0  0  0  0  0
  192.4890  174.7940  135.5880 C   0  0  0  0  0  2  0  0  0  0  0  0
  186.9150  174.8670  137.2710 C   0  0  0  0  0  1  0  0  0  0  0  0
  193.3420  176.0590  135.7070 C   0  0  0  0  0  2  0  0  0  0  0  0
  187.9350  177.0720  137.1930 C   0  0  1  0  0  3  0  0  0  0  0  0
  190.3590  176.6120  140.1980 C   0  0  2  0  0  3  0  0  0  0  0  0
  185.7780  176.7380  136.4530 C   0  0  1  0  0  3  0  0  0  0  0  0
  186.9710  177.9180  137.9080 C   0  0  0  0  0  0  0  0  0  0  0  0
  192.1250  176.3430  138.4720 C   0  0  0  0  0  0  0  0  0  0  0  0
  189.0490  176.5580  138.0890 C   0  0  0  0  0  0  0  0  0  0  0  0
  191.9370  174.2960  136.9260 C   0  0  0  0  0  2  0  0  0  0  0  0
  187.2970  178.5760  139.1270 N   0  0  0  0  0  0  0  0  0  0  0  0
  194.1510  176.0680  136.9970 C   0  0  0  0  0  2  0  0  0  0  0  0
  193.4230  176.6900  138.0560 O   0  0  0  0  0  0  0  0  0  0  0  0
  191.2740  175.3930  137.6910 C   0  0  0  0  0  0  0  0  0  0  0  0
  190.1790  177.8700  144.3110 C   0  0  0  0  0  3  0  0  0  0  0  0
  190.2700  177.0520  141.6330 C   0  0  0  0  0  0  0  0  0  0  0  0
  189.2600  176.5760  142.4840 C   0  0  0  0  0  3  0  0  0  0  0  0
  189.2140  176.9860  143.8190 C   0  0  0  0  0  3  0  0  0  0  0  0
  191.1900  178.3420  143.4690 C   0  0  0  0  0  3  0  0  0  0  0  0
  191.2360  177.9320  142.1330 C   0  0  0  0  0  3  0  0  0  0  0  0
  1 12  1  0  0  0  0
  2  6  1  0  0  0  0
  2 12  1  0  0  0  0
  3 21  2  0  0  0  0
  3 16  1  0  0  0  0
  4 14  2  0  0  0  0
  7 11  1  0  0  0  0
  7  9  1  0  0  0  0
  8 10  1  0  0  0  0
  8 17  1  0  0  0  0
 10 19  1  0  0  0  0
 11 14  1  1  0  0  0
 11 16  1  0  0  0  0
 12 23  1  1  0  0  0
 13  5  1  6  0  0  0
 13  7  1  0  0  0  0
 13  4  1  0  0  0  0
 14 18  1  0  0  0  0
 15  1  2  0  0  0  0
 16  2  2  0  0  0  0
 17 21  1  0  0  0  0
 18  6  2  0  0  0  0
 19 20  1  0  0  0  0
 20 15  1  0  0  0  0
 21 15  1  0  0  0  0
 23 27  2  0  0  0  0
 23 24  1  0  0  0  0
 24 25  2  0  0  0  0
 25 22  1  0  0  0  0
 26 22  2  0  0  0  0
 27 26  1  0  0  0  0
M  END
>  <MODEL>
2

>  <REMARK>
 VINA RESULT:      -8.5      4.587      8.259
  Name = 
  1 active torsions:
  status: ('A' for Active; 'I' for Inactive)
    1  A    between atoms: C_9  and  C_15
                            x       y       z     vdW  Elec       q    Type
                         _______ _______ _______ _____ _____    ______ ____

>  <TORSDO>
F 1

$$$$
=
 OpenBabel10272401033D

 27 31  0  0  1  0  0  0  0  0999 V2000
  187.2070  177.8170  142.6220 C   0  0  0  0  0  3  0  0  0  0  0  0
  188.8870  177.4990  140.8350 C   0  0  0  0  0  0  0  0  0  0  0  0
  186.9570  178.5880  139.6800 C   0  0  0  0  0  3  0  0  0  0  0  0
  190.4520  176.4070  137.3530 N   0  0  0  0  0  0  0  0  0  0  0  0
  189.0290  176.1620  135.4590 N   0  0  0  0  0  1  0  0  0  0  0  0
  190.0320  176.5430  140.8070 C   0  0  0  0  0  3  0  0  0  0  0  0
  188.5310  177.7670  137.1620 N   0  0  0  0  0  0  0  0  0  0  0  0
  183.7040  178.8530  139.8180 C   0  0  0  0  0  2  0  0  0  0  0  0
  188.9820  179.1410  137.3720 C   0  0  0  0  0  1  0  0  0  0  0  0
  183.3400  177.6680  140.7150 C   0  0  0  0  0  2  0  0  0  0  0  0
  188.5130  176.9990  138.4230 C   0  0  1  0  0  3  0  0  0  0  0  0
  188.5470  178.2290  142.1110 C   0  0  2  0  0  3  0  0  0  0  0  0
  189.6060  177.1110  136.3960 C   0  0  1  0  0  3  0  0  0  0  0  0
  189.8290  176.3490  138.4710 C   0  0  0  0  0  0  0  0  0  0  0  0
  186.0710  178.0760  141.9730 C   0  0  0  0  0  0  0  0  0  0  0  0
  188.1690  177.7350  139.7060 C   0  0  0  0  0  0  0  0  0  0  0  0
  184.8980  179.6650  140.3250 C   0  0  0  0  0  2  0  0  0  0  0  0
  190.4700  176.0230  139.7000 N   0  0  0  0  0  0  0  0  0  0  0  0
  183.5610  177.9940  142.1870 C   0  0  0  0  0  2  0  0  0  0  0  0
  184.8850  177.6500  142.5960 O   0  0  0  0  0  0  0  0  0  0  0  0
  186.0590  178.7880  140.6580 C   0  0  0  0  0  0  0  0  0  0  0  0
  191.5170  178.0380  145.2210 C   0  0  0  0  0  3  0  0  0  0  0  0
  189.6020  178.1640  143.1790 C   0  0  0  0  0  0  0  0  0  0  0  0
  190.7820  178.9190  143.0900 C   0  0  0  0  0  3  0  0  0  0  0  0
  191.7380  178.8550  144.1080 C   0  0  0  0  0  3  0  0  0  0  0  0
  190.3410  177.2890  145.3170 C   0  0  0  0  0  3  0  0  0  0  0  0
  189.3850  177.3530  144.2980 C   0  0  0  0  0  3  0  0  0  0  0  0
  2 12  1  0  0  0  0
  3 16  1  0  0  0  0
  3 21  2  0  0  0  0
  4 14  2  0  0  0  0
  6  2  1  0  0  0  0
  7  9  1  0  0  0  0
  7 11  1  0  0  0  0
  8 17  1  0  0  0  0
  8 10  1  0  0  0  0
 10 19  1  0  0  0  0
 11 14  1  1  0  0  0
 11 16  1  0  0  0  0
 12  1  1  0  0  0  0
 12 23  1  1  0  0  0
 13  5  1  6  0  0  0
 13  7  1  0  0  0  0
 13  4  1  0  0  0  0
 14 18  1  0  0  0  0
 15 20  1  0  0  0  0
 15  1  2  0  0  0  0
 16  2  2  0  0  0  0
 17 21  1  0  0  0  0
 18  6  2  0  0  0  0
 19 20  1  0  0  0  0
 21 15  1  0  0  0  0
 22 26  1  0  0  0  0
 23 27  1  0  0  0  0
 24 23  2  0  0  0  0
 24 25  1  0  0  0  0
 25 22  2  0  0  0  0
 27 26  2  0  0  0  0
M  END
>  <MODEL>
3

>  <REMARK>
 VINA RESULT:      -7.6      2.716      6.289
  Name = 
  1 active torsions:
  status: ('A' for Active; 'I' for Inactive)
    1  A    between atoms: C_9  and  C_15
                            x       y       z     vdW  Elec       q    Type
                         _______ _______ _______ _____ _____    ______ ____

>  <TORSDO>
F 1

$$$$
=
 OpenBabel10272401033D

 27 31  0  0  1  0  0  0  0  0999 V2000
  185.9330  178.0770  140.2690 C   0  0  0  0  0  3  0  0  0  0  0  0
  187.1450  177.8380  142.4130 C   0  0  0  0  0  0  0  0  0  0  0  0
  188.9290  178.3960  140.7540 C   0  0  0  0  0  3  0  0  0  0  0  0
  189.8600  176.6020  145.0320 N   0  0  0  0  0  0  0  0  0  0  0  0
  191.9820  175.8540  144.2500 N   0  0  0  0  0  1  0  0  0  0  0  0
  186.7080  177.1110  143.6410 C   0  0  0  0  0  3  0  0  0  0  0  0
  190.7730  177.5510  143.0730 N   0  0  0  0  0  0  0  0  0  0  0  0
  189.6790  178.0810  137.5910 C   0  0  0  0  0  2  0  0  0  0  0  0
  190.7000  179.0000  143.2500 C   0  0  0  0  0  1  0  0  0  0  0  0
  188.7110  176.9780  137.1570 C   0  0  0  0  0  2  0  0  0  0  0  0
  189.4450  176.9660  142.8080 C   0  0  1  0  0  3  0  0  0  0  0  0
  186.1470  178.6550  141.6280 C   0  0  2  0  0  3  0  0  0  0  0  0
  191.1100  177.0070  144.4000 C   0  0  1  0  0  3  0  0  0  0  0  0
  188.9470  176.5780  144.1330 C   0  0  0  0  0  0  0  0  0  0  0  0
  186.8870  178.0370  139.3380 C   0  0  0  0  0  0  0  0  0  0  0  0
  188.4430  177.7890  142.0170 C   0  0  0  0  0  0  0  0  0  0  0  0
  189.0340  179.1560  138.4680 C   0  0  0  0  0  2  0  0  0  0  0  0
  187.5580  176.5380  144.4410 N   0  0  0  0  0  0  0  0  0  0  0  0
  187.3130  177.5290  136.9060 C   0  0  0  0  0  2  0  0  0  0  0  0
  186.5240  177.4880  138.0960 O   0  0  0  0  0  0  0  0  0  0  0  0
  188.2650  178.5570  139.5990 C   0  0  0  0  0  0  0  0  0  0  0  0
  182.4660  179.4080  143.7270 C   0  0  0  0  0  3  0  0  0  0  0  0
  184.8510  178.9240  142.3380 C   0  0  0  0  0  0  0  0  0  0  0  0
  183.6180  178.5450  141.7820 C   0  0  0  0  0  3  0  0  0  0  0  0
  182.4290  178.7880  142.4750 C   0  0  0  0  0  3  0  0  0  0  0  0
  183.6900  179.7820  144.2870 C   0  0  0  0  0  3  0  0  0  0  0  0
  184.8800  179.5390  143.5950 C   0  0  0  0  0  3  0  0  0  0  0  0
  1 12  1  0  0  0  0
  2  6  1  0  0  0  0
  3 16  1  0  0  0  0
  6 18  2  0  0  0  0
  7  9  1  0  0  0  0
  7 13  1  0  0  0  0
  8 17  1  0  0  0  0
 10  8  1  0  0  0  0
 11 16  1  1  0  0  0
 11  7  1  0  0  0  0
 11 14  1  0  0  0  0
 12 23  1  1  0  0  0
 12  2  1  0  0  0  0
 13  5  1  6  0  0  0
 13  4  1  0  0  0  0
 14 18  1  0  0  0  0
 14  4  2  0  0  0  0
 15 21  1  0  0  0  0
 15  1  2  0  0  0  0
 16  2  2  0  0  0  0
 17 21  1  0  0  0  0
 19 10  1  0  0  0  0
 19 20  1  0  0  0  0
 20 15  1  0  0  0  0
 21  3  2  0  0  0  0
 22 26  1  0  0  0  0
 23 27  1  0  0  0  0
 24 23  2  0  0  0  0
 24 25  1  0  0  0  0
 25 22  2  0  0  0  0
 27 26  2  0  0  0  0
M  END
>  <MODEL>
4

>  <REMARK>
 VINA RESULT:      -7.5      2.936      5.468
  Name = 
  1 active torsions:
  status: ('A' for Active; 'I' for Inactive)
    1  A    between atoms: C_9  and  C_15
                            x       y       z     vdW  Elec       q    Type
                         _______ _______ _______ _____ _____    ______ ____

>  <TORSDO>
F 1

$$$$
=
 OpenBabel10272401033D

 27 31  0  0  1  0  0  0  0  0999 V2000
  189.1170  176.9040  139.2240 C   0  0  0  0  0  3  0  0  0  0  0  0
  188.9870  177.2940  141.6640 C   0  0  0  0  0  0  0  0  0  0  0  0
  191.4240  177.4700  141.1410 C   0  0  0  0  0  3  0  0  0  0  0  0
  189.7680  176.9140  145.5370 N   0  0  0  0  0  0  0  0  0  0  0  0
  191.8900  176.0790  146.2240 N   0  0  0  0  0  1  0  0  0  0  0  0
  187.8950  176.9000  142.6020 C   0  0  0  0  0  3  0  0  0  0  0  0
  191.6710  177.3500  144.2090 N   0  0  0  0  0  0  0  0  0  0  0  0
  193.6870  176.3620  139.0620 C   0  0  0  0  0  2  0  0  0  0  0  0
  191.6700  178.7890  143.9570 C   0  0  0  0  0  1  0  0  0  0  0  0
  192.9810  175.1420  138.4650 C   0  0  0  0  0  2  0  0  0  0  0  0
  190.6270  176.6580  143.4280 C   0  0  1  0  0  3  0  0  0  0  0  0
  188.6450  177.8310  140.2950 C   0  0  2  0  0  3  0  0  0  0  0  0
  191.1990  177.1910  145.5960 C   0  0  1  0  0  3  0  0  0  0  0  0
  189.4680  176.6140  144.3290 C   0  0  0  0  0  0  0  0  0  0  0  0
  190.4080  176.6610  138.9920 C   0  0  0  0  0  0  0  0  0  0  0  0
  190.2850  177.1990  142.0500 C   0  0  0  0  0  0  0  0  0  0  0  0
  192.7960  177.6010  139.1620 C   0  0  0  0  0  2  0  0  0  0  0  0
  188.1300  176.5970  143.8430 N   0  0  0  0  0  0  0  0  0  0  0  0
  191.9920  175.5460  137.3790 C   0  0  0  0  0  2  0  0  0  0  0  0
  190.6970  175.7880  137.9280 O   0  0  0  0  0  0  0  0  0  0  0  0
  191.4890  177.2900  139.8120 C   0  0  0  0  0  0  0  0  0  0  0  0
  184.5390  178.9730  139.6930 C   0  0  0  0  0  3  0  0  0  0  0  0
  187.2060  178.2210  140.1090 C   0  0  0  0  0  0  0  0  0  0  0  0
  186.4600  178.7900  141.1540 C   0  0  0  0  0  3  0  0  0  0  0  0
  185.1290  179.1630  140.9460 C   0  0  0  0  0  3  0  0  0  0  0  0
  185.2790  178.4130  138.6480 C   0  0  0  0  0  3  0  0  0  0  0  0
  186.6100  178.0400  138.8560 C   0  0  0  0  0  3  0  0  0  0  0  0
  1 12  1  0  0  0  0
  2 16  2  0  0  0  0
  2  6  1  0  0  0  0
  3 16  1  0  0  0  0
  4 13  1  0  0  0  0
  6 18  2  0  0  0  0
  7 13  1  0  0  0  0
  8 17  1  0  0  0  0
  9  7  1  0  0  0  0
 10  8  1  0  0  0  0
 11 16  1  6  0  0  0
 11  7  1  0  0  0  0
 11 14  1  0  0  0  0
 12 23  1  1  0  0  0
 12  2  1  0  0  0  0
 13  5  1  6  0  0  0
 14  4  2  0  0  0  0
 15  1  2  0  0  0  0
 15 21  1  0  0  0  0
 17 21  1  0  0  0  0
 18 14  1  0  0  0  0
 19 20  1  0  0  0  0
 19 10  1  0  0  0  0
 20 15  1  0  0  0  0
 21  3  2  0  0  0  0
 22 25  1  0  0  0  0
 23 24  1  0  0  0  0
 25 24  2  0  0  0  0
 26 27  1  0  0  0  0
 26 22  2  0  0  0  0
 27 23  2  0  0  0  0
M  END
>  <MODEL>
5

>  <REMARK>
 VINA RESULT:      -7.3      3.555      6.326
  Name = 
  1 active torsions:
  status: ('A' for Active; 'I' for Inactive)
    1  A    between atoms: C_9  and  C_15
                            x       y       z     vdW  Elec       q    Type
                         _______ _______ _______ _____ _____    ______ ____

>  <TORSDO>
F 1

$$$$
=
 OpenBabel10272401033D

 27 31  0  0  1  0  0  0  0  0999 V2000
  188.1390  178.5230  140.8290 C   0  0  0  0  0  3  0  0  0  0  0  0
  185.8200  178.3910  141.6800 C   0  0  0  0  0  0  0  0  0  0  0  0
  185.6450  177.6640  139.2960 C   0  0  0  0  0  3  0  0  0  0  0  0
  181.8940  178.9480  141.8780 N   0  0  0  0  0  0  0  0  0  0  0  0
  180.6740  179.3800  139.8790 N   0  0  0  0  0  1  0  0  0  0  0  0
  185.2320  179.0870  142.8620 C   0  0  0  0  0  3  0  0  0  0  0  0
  182.6330  178.0060  139.8420 N   0  0  0  0  0  0  0  0  0  0  0  0
  187.0500  178.0830  136.3770 C   0  0  0  0  0  2  0  0  0  0  0  0
  182.8320  176.5820  140.1020 C   0  0  0  0  0  1  0  0  0  0  0  0
  187.8550  179.3640  136.6080 C   0  0  0  0  0  2  0  0  0  0  0  0
  183.6910  178.8270  140.4610 C   0  0  1  0  0  3  0  0  0  0  0  0
  187.2130  177.8160  141.7620 C   0  0  2  0  0  3  0  0  0  0  0  0
  181.4350  178.3840  140.6140 C   0  0  1  0  0  3  0  0  0  0  0  0
  183.1470  179.1940  141.7740 C   0  0  0  0  0  0  0  0  0  0  0  0
  188.0140  178.4690  139.5030 C   0  0  0  0  0  0  0  0  0  0  0  0
  185.0940  178.2480  140.5420 C   0  0  0  0  0  0  0  0  0  0  0  0
  187.1640  177.0700  137.5190 C   0  0  0  0  0  2  0  0  0  0  0  0
  183.9830  179.4460  142.8990 N   0  0  0  0  0  0  0  0  0  0  0  0
  189.1590  179.0790  137.3420 C   0  0  0  0  0  2  0  0  0  0  0  0
  188.9820  179.1630  138.7560 O   0  0  0  0  0  0  0  0  0  0  0  0
  186.9090  177.7050  138.8460 C   0  0  0  0  0  0  0  0  0  0  0  0
  188.8930  177.5140  145.7140 C   0  0  0  0  0  3  0  0  0  0  0  0
  187.7770  177.7190  143.1520 C   0  0  0  0  0  0  0  0  0  0  0  0
  186.9920  177.2880  144.2330 C   0  0  0  0  0  3  0  0  0  0  0  0
  187.5490  177.1880  145.5110 C   0  0  0  0  0  3  0  0  0  0  0  0
  189.6800  177.9380  144.6400 C   0  0  0  0  0  3  0  0  0  0  0  0
  189.1240  178.0390  143.3610 C   0  0  0  0  0  3  0  0  0  0  0  0
  1 12  1  0  0  0  0
  2 12  1  0  0  0  0
  2  6  1  0  0  0  0
  3 16  1  0  0  0  0
  6 18  2  0  0  0  0
  7  9  1  0  0  0  0
  7 11  1  0  0  0  0
  7 13  1  0  0  0  0
  8 10  1  0  0  0  0
  8 17  1  0  0  0  0
 10 19  1  0  0  0  0
 11 16  1  1  0  0  0
 11 14  1  0  0  0  0
 12 23  1  1  0  0  0
 13  5  1  6  0  0  0
 13  4  1  0  0  0  0
 14  4  2  0  0  0  0
 14 18  1  0  0  0  0
 15  1  2  0  0  0  0
 16  2  2  0  0  0  0
 17 21  1  0  0  0  0
 19 20  1  0  0  0  0
 20 15  1  0  0  0  0
 21  3  2  0  0  0  0
 21 15  1  0  0  0  0
 23 27  2  0  0  0  0
 23 24  1  0  0  0  0
 24 25  2  0  0  0  0
 25 22  1  0  0  0  0
 26 22  2  0  0  0  0
 27 26  1  0  0  0  0
M  END
>  <MODEL>
6

>  <REMARK>
 VINA RESULT:      -6.7      3.599      7.444
  Name = 
  1 active torsions:
  status: ('A' for Active; 'I' for Inactive)
    1  A    between atoms: C_9  and  C_15
                            x       y       z     vdW  Elec       q    Type
                         _______ _______ _______ _____ _____    ______ ____

>  <TORSDO>
F 1

$$$$
=
 OpenBabel10272401033D

 27 31  0  0  1  0  0  0  0  0999 V2000
  191.6010  176.2540  139.1790 C   0  0  0  0  0  3  0  0  0  0  0  0
  190.4640  175.1860  137.2600 C   0  0  0  0  0  0  0  0  0  0  0  0
  188.7890  176.8200  138.1370 C   0  0  0  0  0  3  0  0  0  0  0  0
  187.6540  173.3070  135.1770 N   0  0  0  0  0  0  0  0  0  0  0  0
  185.3830  173.4580  135.8790 N   0  0  0  0  0  1  0  0  0  0  0  0
  190.7710  173.8710  136.6230 C   0  0  0  0  0  3  0  0  0  0  0  0
  186.9030  175.2670  136.2610 N   0  0  0  0  0  0  0  0  0  0  0  0
  187.8460  178.2940  140.8940 C   0  0  0  0  0  2  0  0  0  0  0  0
  187.3230  176.3840  135.4180 C   0  0  0  0  0  1  0  0  0  0  0  0
  188.5070  177.4090  141.9540 C   0  0  0  0  0  2  0  0  0  0  0  0
  188.0430  174.6670  136.9810 C   0  0  1  0  0  3  0  0  0  0  0  0
  191.5900  176.0920  137.6960 C   0  0  2  0  0  3  0  0  0  0  0  0
  186.5070  174.1960  135.3280 C   0  0  1  0  0  3  0  0  0  0  0  0
  188.4940  173.5780  136.1060 C   0  0  0  0  0  0  0  0  0  0  0  0
  190.6240  176.8660  139.8500 C   0  0  0  0  0  0  0  0  0  0  0  0
  189.1750  175.5800  137.4200 C   0  0  0  0  0  0  0  0  0  0  0  0
  188.7640  178.6380  139.7200 C   0  0  0  0  0  2  0  0  0  0  0  0
  189.8480  173.1370  136.0790 N   0  0  0  0  0  0  0  0  0  0  0  0
  189.9820  177.7470  142.1230 C   0  0  0  0  0  2  0  0  0  0  0  0
  190.7910  176.9670  141.2430 O   0  0  0  0  0  0  0  0  0  0  0  0
  189.4200  177.4210  139.1580 C   0  0  0  0  0  0  0  0  0  0  0  0
  195.4970  175.0450  136.2240 C   0  0  0  0  0  3  0  0  0  0  0  0
  192.9440  175.7230  137.1580 C   0  0  0  0  0  0  0  0  0  0  0  0
  193.3680  176.1470  135.8890 C   0  0  0  0  0  3  0  0  0  0  0  0
  194.6420  175.8070  135.4230 C   0  0  0  0  0  3  0  0  0  0  0  0
  195.0810  174.6260  137.4910 C   0  0  0  0  0  3  0  0  0  0  0  0
  193.8080  174.9660  137.9570 C   0  0  0  0  0  3  0  0  0  0  0  0
  1 15  2  0  0  0  0
  2 16  2  0  0  0  0
  2 12  1  0  0  0  0
  3 21  2  0  0  0  0
  4 13  1  0  0  0  0
  4 14  2  0  0  0  0
  6  2  1  0  0  0  0
  7 11  1  0  0  0  0
  8 10  1  0  0  0  0
  9  7  1  0  0  0  0
 10 19  1  0  0  0  0
 11 14  1  6  0  0  0
 11 16  1  0  0  0  0
 12 23  1  1  0  0  0
 12  1  1  0  0  0  0
 13  5  1  1  0  0  0
 13  7  1  0  0  0  0
 15 20  1  0  0  0  0
 16  3  1  0  0  0  0
 17  8  1  0  0  0  0
 18 14  1  0  0  0  0
 18  6  2  0  0  0  0
 20 19  1  0  0  0  0
 21 17  1  0  0  0  0
 21 15  1  0  0  0  0
 22 26  1  0  0  0  0
 23 27  1  0  0  0  0
 24 23  2  0  0  0  0
 25 24  1  0  0  0  0
 25 22  2  0  0  0  0
 26 27  2  0  0  0  0
M  END
>  <MODEL>
7

>  <REMARK>
 VINA RESULT:      -6.7      5.247      9.145
  Name = 
  1 active torsions:
  status: ('A' for Active; 'I' for Inactive)
    1  A    between atoms: C_9  and  C_15
                            x       y       z     vdW  Elec       q    Type
                         _______ _______ _______ _____ _____    ______ ____

>  <TORSDO>
F 1

$$$$
=
 OpenBabel10272401033D

 27 31  0  0  1  0  0  0  0  0999 V2000
  185.0650  177.9400  143.2760 C   0  0  0  0  0  3  0  0  0  0  0  0
  187.4750  177.5320  142.8970 C   0  0  0  0  0  0  0  0  0  0  0  0
  186.6600  178.4740  140.7300 C   0  0  0  0  0  3  0  0  0  0  0  0
  190.7970  176.2190  141.1640 N   0  0  0  0  0  0  0  0  0  0  0  0
  190.8010  175.7880  138.8220 N   0  0  0  0  0  1  0  0  0  0  0  0
  188.3810  176.6090  143.6410 C   0  0  0  0  0  3  0  0  0  0  0  0
  189.4140  177.5050  139.7460 N   0  0  0  0  0  0  0  0  0  0  0  0
  183.9920  178.6590  138.8560 C   0  0  0  0  0  2  0  0  0  0  0  0
  189.6810  178.9030  140.0780 C   0  0  0  0  0  1  0  0  0  0  0  0
  183.1310  177.5370  139.4410 C   0  0  0  0  0  2  0  0  0  0  0  0
  188.6210  176.8370  140.7960 C   0  0  1  0  0  3  0  0  0  0  0  0
  186.4510  178.3490  143.6470 C   0  0  2  0  0  3  0  0  0  0  0  0
  190.7170  176.8220  139.8390 C   0  0  1  0  0  3  0  0  0  0  0  0
  189.6240  176.2290  141.6800 C   0  0  0  0  0  0  0  0  0  0  0  0
  184.5580  178.1170  142.0550 C   0  0  0  0  0  0  0  0  0  0  0  0
  187.5900  177.6610  141.5500 C   0  0  0  0  0  0  0  0  0  0  0  0
  184.6570  179.5410  139.9150 C   0  0  0  0  0  2  0  0  0  0  0  0
  189.3850  176.0170  143.0670 N   0  0  0  0  0  0  0  0  0  0  0  0
  182.4260  177.9820  140.7160 C   0  0  0  0  0  2  0  0  0  0  0  0
  183.2260  177.7080  141.8670 O   0  0  0  0  0  0  0  0  0  0  0  0
  185.3600  178.7250  140.9490 C   0  0  0  0  0  0  0  0  0  0  0  0
  187.0520  178.4210  147.9080 C   0  0  0  0  0  3  0  0  0  0  0  0
  186.6460  178.3960  145.1360 C   0  0  0  0  0  0  0  0  0  0  0  0
  185.6060  178.7740  146.0000 C   0  0  0  0  0  3  0  0  0  0  0  0
  185.8100  178.7880  147.3830 C   0  0  0  0  0  3  0  0  0  0  0  0
  188.0890  178.0380  147.0530 C   0  0  0  0  0  3  0  0  0  0  0  0
  187.8850  178.0240  145.6700 C   0  0  0  0  0  3  0  0  0  0  0  0
  1 12  1  0  0  0  0
  2  6  1  0  0  0  0
  2 12  1  0  0  0  0
  3 21  2  0  0  0  0
  3 16  1  0  0  0  0
  4 14  2  0  0  0  0
  7 13  1  0  0  0  0
  7  9  1  0  0  0  0
  7 11  1  0  0  0  0
  8 10  1  0  0  0  0
  8 17  1  0  0  0  0
 10 19  1  0  0  0  0
 11 16  1  1  0  0  0
 11 14  1  0  0  0  0
 12 23  1  1  0  0  0
 13  5  1  6  0  0  0
 13  4  1  0  0  0  0
 14 18  1  0  0  0  0
 15  1  2  0  0  0  0
 16  2  2  0  0  0  0
 17 21  1  0  0  0  0
 18  6  2  0  0  0  0
 19 20  1  0  0  0  0
 20 15  1  0  0  0  0
 21 15  1  0  0  0  0
 23 27  2  0  0  0  0
 23 24  1  0  0  0  0
 24 25  2  0  0  0  0
 25 22  1  0  0  0  0
 26 22  2  0  0  0  0
 27 26  1  0  0  0  0
M  END
>  <MODEL>
8

>  <REMARK>
 VINA RESULT:      -6.6      1.934      5.466
  Name = 
  1 active torsions:
  status: ('A' for Active; 'I' for Inactive)
    1  A    between atoms: C_9  and  C_15
                            x       y       z     vdW  Elec       q    Type
                         _______ _______ _______ _____ _____    ______ ____

>  <TORSDO>
F 1

$$$$
=
 OpenBabel10272401033D

 27 31  0  0  1  0  0  0  0  0999 V2000
  185.6710  178.7690  139.9940 C   0  0  0  0  0  3  0  0  0  0  0  0
  183.2680  178.8810  139.4190 C   0  0  0  0  0  0  0  0  0  0  0  0
  184.2740  177.4970  137.5970 C   0  0  0  0  0  3  0  0  0  0  0  0
  179.9820  179.4600  137.2680 N   0  0  0  0  0  0  0  0  0  0  0  0
  180.0950  179.2950  134.8950 N   0  0  0  0  0  1  0  0  0  0  0  0
  182.2600  179.8860  139.8670 C   0  0  0  0  0  3  0  0  0  0  0  0
  181.5300  177.9740  136.2820 N   0  0  0  0  0  0  0  0  0  0  0  0
  187.0600  177.0630  135.9490 C   0  0  0  0  0  2  0  0  0  0  0  0
  181.3340  176.6850  136.9420 C   0  0  0  0  0  1  0  0  0  0  0  0
  187.8090  178.3580  136.2690 C   0  0  0  0  0  2  0  0  0  0  0  0
  182.2120  178.9420  137.1630 C   0  0  1  0  0  3  0  0  0  0  0  0
  184.2940  178.3580  140.3950 C   0  0  2  0  0  3  0  0  0  0  0  0
  180.1820  178.5550  136.1420 C   0  0  1  0  0  3  0  0  0  0  0  0
  181.1190  179.6690  137.8200 C   0  0  0  0  0  0  0  0  0  0  0  0
  186.2630  178.3350  138.8800 C   0  0  0  0  0  0  0  0  0  0  0  0
  183.2450  178.4140  138.1440 C   0  0  0  0  0  0  0  0  0  0  0  0
  186.3890  176.4220  137.1650 C   0  0  0  0  0  2  0  0  0  0  0  0
  181.2570  180.2370  139.1180 N   0  0  0  0  0  0  0  0  0  0  0  0
  188.4610  178.3000  137.6450 C   0  0  0  0  0  2  0  0  0  0  0  0
  187.5750  178.7880  138.6530 O   0  0  0  0  0  0  0  0  0  0  0  0
  185.5720  177.4110  137.9280 C   0  0  0  0  0  0  0  0  0  0  0  0
  183.5480  179.2140  144.5470 C   0  0  0  0  0  3  0  0  0  0  0  0
  184.0110  178.6670  141.8380 C   0  0  0  0  0  0  0  0  0  0  0  0
  182.7270  178.5070  142.3830 C   0  0  0  0  0  3  0  0  0  0  0  0
  182.4960  178.7820  143.7340 C   0  0  0  0  0  3  0  0  0  0  0  0
  184.8300  179.3690  144.0100 C   0  0  0  0  0  3  0  0  0  0  0  0
  185.0600  179.0940  142.6590 C   0  0  0  0  0  3  0  0  0  0  0  0
  1 12  1  0  0  0  0
  2  6  1  0  0  0  0
  2 12  1  0  0  0  0
  3 21  2  0  0  0  0
  3 16  1  0  0  0  0
  4 14  2  0  0  0  0
  7  9  1  0  0  0  0
  7 11  1  0  0  0  0
  8 10  1  0  0  0  0
  8 17  1  0  0  0  0
 10 19  1  0  0  0  0
 11 14  1  1  0  0  0
 11 16  1  0  0  0  0
 12 23  1  1  0  0  0
 13  5  1  6  0  0  0
 13  7  1  0  0  0  0
 13  4  1  0  0  0  0
 14 18  1  0  0  0  0
 15  1  2  0  0  0  0
 16  2  2  0  0  0  0
 17 21  1  0  0  0  0
 18  6  2  0  0  0  0
 19 20  1  0  0  0  0
 20 15  1  0  0  0  0
 21 15  1  0  0  0  0
 23 24  2  0  0  0  0
 23 27  1  0  0  0  0
 24 25  1  0  0  0  0
 25 22  2  0  0  0  0
 26 22  1  0  0  0  0
 27 26  2  0  0  0  0
M  END
>  <MODEL>
9

>  <REMARK>
 VINA RESULT:      -6.3      5.158      8.199
  Name = 
  1 active torsions:
  status: ('A' for Active; 'I' for Inactive)
    1  A    between atoms: C_9  and  C_15
                            x       y       z     vdW  Elec       q    Type
                         _______ _______ _______ _____ _____    ______ ____

>  <TORSDO>
F 1

$$$$
