=
 OpenBabel10262423453D

 34 37  0  0  1  0  0  0  0  0999 V2000
  190.3690  177.3470  139.8670 C   0  0  2  0  0  3  0  0  0  0  0  0
  188.1310  177.6220  141.1170 C   0  0  2  0  0  3  0  0  0  0  0  0
  187.0200  178.4560  141.2710 O   0  0  0  0  0  1  0  0  0  0  0  0
  190.7200  176.4030  141.0250 C   0  0  0  0  0  2  0  0  0  0  0  0
  190.9820  176.9430  143.2990 O   0  0  0  0  0  0  0  0  0  0  0  0
  188.8170  177.4440  142.4760 C   0  0  2  0  0  3  0  0  0  0  0  0
  189.1040  178.2190  140.0880 C   0  0  2  0  0  3  0  0  0  0  0  0
  190.2290  176.9270  142.3390 C   0  0  0  0  0  0  0  0  0  0  0  0
  189.1540  176.0860  138.0470 C   0  0  0  0  0  2  0  0  0  0  0  0
  191.4790  176.5460  137.6790 C   0  0  0  0  0  0  0  0  0  0  0  0
  189.5140  175.1850  136.8680 C   0  0  1  0  0  3  0  0  0  0  0  0
  191.0970  175.7430  136.1430 S   0  0  0  0  0  0  0  0  0  0  0  0
  190.3830  176.6340  138.5860 N   0  0  0  0  0  0  0  0  0  0  0  0
  189.6500  173.7530  137.3460 C   0  0  0  0  0  1  0  0  0  0  0  0
  193.0380  176.7740  138.1330 S   0  0  0  0  0  0  0  0  0  0  0  0
  189.0230  179.5190  138.0870 O   0  0  0  0  0  0  0  0  0  0  0  0
  187.1900  178.1160  138.4230 N   0  0  0  0  0  2  0  0  0  0  0  0
  188.4440  178.6720  138.8180 C   0  0  0  0  0  0  0  0  0  0  0  0
  186.5320  178.4740  137.1780 C   0  0  0  0  0  2  0  0  0  0  0  0
  184.1060  177.2750  138.6610 F   0  0  0  0  0  0  0  0  0  0  0  0
  185.5680  177.4010  136.8020 C   0  0  0  0  0  0  0  0  0  0  0  0
  184.1400  177.4930  137.2950 C   0  0  1  0  0  3  0  0  0  0  0  0
  183.8580  175.1320  136.5080 C   0  0  0  0  0  2  0  0  0  0  0  0
  185.1070  175.2370  135.6390 C   0  0  0  0  0  2  0  0  0  0  0  0
  186.0150  176.3440  136.1050 C   0  0  0  0  0  3  0  0  0  0  0  0
  183.2040  176.5040  136.5960 C   0  0  0  0  0  2  0  0  0  0  0  0
  187.9780  176.5130  143.3460 C   0  0  0  0  0  2  0  0  0  0  0  0
  185.8820  178.2850  145.8790 C   0  0  0  0  0  0  0  0  0  0  0  0
  186.7540  178.4130  146.9630 C   0  0  0  0  0  3  0  0  0  0  0  0
  187.5640  177.1830  144.6120 C   0  0  0  0  0  0  0  0  0  0  0  0
  188.0530  177.9110  146.8570 C   0  0  0  0  0  3  0  0  0  0  0  0
  186.3010  177.6770  144.7360 N   0  0  0  0  0  0  0  0  0  0  0  0
  188.4640  177.2920  145.6770 C   0  0  0  0  0  3  0  0  0  0  0  0
  184.5560  178.7890  145.9710 N   0  0  0  0  0  1  0  0  0  0  0  0
  1 13  1  6  0  0  0
  1  7  1  0  0  0  0
  1  4  1  0  0  0  0
  2  3  1  1  0  0  0
  2  6  1  0  0  0  0
  4  8  1  0  0  0  0
  6 27  1  1  0  0  0
  7 18  1  6  0  0  0
  7  2  1  0  0  0  0
  8  6  1  0  0  0  0
  8  5  2  0  0  0  0
  9 13  1  0  0  0  0
 10 15  2  0  0  0  0
 10 13  1  0  0  0  0
 11 14  1  1  0  0  0
 11  9  1  0  0  0  0
 12 11  1  0  0  0  0
 12 10  1  0  0  0  0
 16 18  2  0  0  0  0
 17 18  1  0  0  0  0
 19 17  1  0  0  0  0
 21 19  1  0  0  0  0
 21 22  1  0  0  0  0
 22 20  1  1  0  0  0
 23 26  1  0  0  0  0
 24 25  1  0  0  0  0
 24 23  1  0  0  0  0
 25 21  2  0  0  0  0
 26 22  1  0  0  0  0
 27 30  1  0  0  0  0
 28 34  1  0  0  0  0
 28 29  1  0  0  0  0
 30 32  1  0  0  0  0
 30 33  2  0  0  0  0
 31 29  2  0  0  0  0
 32 28  2  0  0  0  0
 33 31  1  0  0  0  0
M  END
>  <MODEL>
1

>  <REMARK>
 VINA RESULT:      -7.8      0.000      0.000
  Name = 
  6 active torsions:
  status: ('A' for Active; 'I' for Inactive)
    1  A    between atoms: C_3  and  C_13
    2  A    between atoms: C_3  and  N_17
    3  A    between atoms: C_4  and  N_15
    4  A    between atoms: C_12  and  C_28
    5  A    between atoms: C_26  and  C_28
    6  A    between atoms: C_29  and  C_31
                            x       y       z     vdW  Elec       q    Type
                         _______ _______ _______ _____ _____    ______ ____

>  <TORSDO>
F 6

$$$$
=
 OpenBabel10262423453D

 34 37  0  0  1  0  0  0  0  0999 V2000
  189.4910  176.6080  136.1680 C   0  0  2  0  0  3  0  0  0  0  0  0
  191.2150  176.3260  138.0650 C   0  0  2  0  0  3  0  0  0  0  0  0
  191.8540  176.9880  139.1160 O   0  0  0  0  0  1  0  0  0  0  0  0
  190.1970  175.3900  135.5570 C   0  0  0  0  0  2  0  0  0  0  0  0
  192.4140  175.2440  134.7860 O   0  0  0  0  0  0  0  0  0  0  0  0
  192.2720  175.8030  137.0860 C   0  0  2  0  0  3  0  0  0  0  0  0
  190.2370  177.2750  137.3550 C   0  0  2  0  0  3  0  0  0  0  0  0
  191.6820  175.4590  135.7390 C   0  0  0  0  0  0  0  0  0  0  0  0
  187.7240  175.1910  137.2850 C   0  0  0  0  0  2  0  0  0  0  0  0
  186.9650  177.1320  136.0990 C   0  0  0  0  0  0  0  0  0  0  0  0
  186.2170  174.9730  137.1710 C   0  0  1  0  0  3  0  0  0  0  0  0
  185.4100  176.5520  136.7300 S   0  0  0  0  0  0  0  0  0  0  0  0
  188.0810  176.3150  136.4430 N   0  0  0  0  0  0  0  0  0  0  0  0
  185.9330  173.9390  136.1000 C   0  0  0  0  0  1  0  0  0  0  0  0
  187.0110  178.2560  134.9070 S   0  0  0  0  0  0  0  0  0  0  0  0
  188.9840  179.2060  137.9900 O   0  0  0  0  0  0  0  0  0  0  0  0
  188.8680  177.4220  139.4890 N   0  0  0  0  0  2  0  0  0  0  0  0
  189.3410  178.0360  138.2910 C   0  0  0  0  0  0  0  0  0  0  0  0
  187.9560  178.0880  140.4020 C   0  0  0  0  0  2  0  0  0  0  0  0
  186.4960  178.4800  143.0920 F   0  0  0  0  0  0  0  0  0  0  0  0
  188.3640  177.8000  141.8060 C   0  0  0  0  0  0  0  0  0  0  0  0
  187.3060  177.3950  142.8090 C   0  0  1  0  0  3  0  0  0  0  0  0
  189.0480  177.7280  144.5790 C   0  0  0  0  0  2  0  0  0  0  0  0
  190.1620  177.6780  143.5390 C   0  0  0  0  0  2  0  0  0  0  0  0
  189.6470  177.9880  142.1580 C   0  0  0  0  0  3  0  0  0  0  0  0
  187.8980  176.8470  144.1100 C   0  0  0  0  0  2  0  0  0  0  0  0
  192.9710  174.5920  137.6980 C   0  0  0  0  0  2  0  0  0  0  0  0
  196.3760  175.1030  136.2510 C   0  0  0  0  0  0  0  0  0  0  0  0
  196.7030  173.8300  135.7790 C   0  0  0  0  0  3  0  0  0  0  0  0
  194.2690  174.3170  137.0180 C   0  0  0  0  0  0  0  0  0  0  0  0
  195.7880  172.7880  135.9370 C   0  0  0  0  0  3  0  0  0  0  0  0
  195.1760  175.3180  136.8560 N   0  0  0  0  0  0  0  0  0  0  0  0
  194.5620  173.0280  136.5600 C   0  0  0  0  0  3  0  0  0  0  0  0
  197.2980  176.1750  136.1010 N   0  0  0  0  0  1  0  0  0  0  0  0
  1  4  1  1  0  0  0
  1 13  1  0  0  0  0
  1  7  1  0  0  0  0
  2  3  1  1  0  0  0
  4  8  1  0  0  0  0
  5  8  2  0  0  0  0
  6 27  1  1  0  0  0
  6  2  1  0  0  0  0
  7  2  1  0  0  0  0
  7 18  1  1  0  0  0
  8  6  1  0  0  0  0
 10 13  1  0  0  0  0
 10 12  1  0  0  0  0
 11 14  1  6  0  0  0
 11  9  1  0  0  0  0
 12 11  1  0  0  0  0
 13  9  1  0  0  0  0
 15 10  2  0  0  0  0
 16 18  2  0  0  0  0
 17 19  1  0  0  0  0
 18 17  1  0  0  0  0
 19 21  1  0  0  0  0
 21 25  2  0  0  0  0
 21 22  1  0  0  0  0
 22 20  1  1  0  0  0
 22 26  1  0  0  0  0
 24 23  1  0  0  0  0
 25 24  1  0  0  0  0
 26 23  1  0  0  0  0
 28 32  1  0  0  0  0
 29 31  1  0  0  0  0
 29 28  2  0  0  0  0
 30 27  1  0  0  0  0
 31 33  2  0  0  0  0
 32 30  2  0  0  0  0
 33 30  1  0  0  0  0
 34 28  1  0  0  0  0
M  END
>  <MODEL>
2

>  <REMARK>
 VINA RESULT:      -7.7      3.485      8.134
  Name = 
  6 active torsions:
  status: ('A' for Active; 'I' for Inactive)
    1  A    between atoms: C_3  and  C_13
    2  A    between atoms: C_3  and  N_17
    3  A    between atoms: C_4  and  N_15
    4  A    between atoms: C_12  and  C_28
    5  A    between atoms: C_26  and  C_28
    6  A    between atoms: C_29  and  C_31
                            x       y       z     vdW  Elec       q    Type
                         _______ _______ _______ _____ _____    ______ ____

>  <TORSDO>
F 6

$$$$
=
 OpenBabel10262423453D

 34 37  0  0  1  0  0  0  0  0999 V2000
  189.4350  177.0340  136.1670 C   0  0  2  0  0  3  0  0  0  0  0  0
  191.0230  176.2770  138.0520 C   0  0  2  0  0  3  0  0  0  0  0  0
  191.6750  176.6970  139.2140 O   0  0  0  0  0  1  0  0  0  0  0  0
  190.0400  175.8520  135.3970 C   0  0  0  0  0  2  0  0  0  0  0  0
  192.2650  175.5800  134.6870 O   0  0  0  0  0  0  0  0  0  0  0  0
  192.0670  175.7950  137.0390 C   0  0  2  0  0  3  0  0  0  0  0  0
  190.1870  177.4260  137.4680 C   0  0  2  0  0  3  0  0  0  0  0  0
  191.5130  175.7280  135.6360 C   0  0  0  0  0  0  0  0  0  0  0  0
  187.0870  177.9590  136.0650 C   0  0  0  0  0  2  0  0  0  0  0  0
  187.3130  175.6360  136.6200 C   0  0  0  0  0  0  0  0  0  0  0  0
  185.7040  177.5810  136.5910 C   0  0  1  0  0  3  0  0  0  0  0  0
  185.5420  175.7610  136.6100 S   0  0  0  0  0  0  0  0  0  0  0  0
  187.9900  176.8600  136.3450 N   0  0  0  0  0  0  0  0  0  0  0  0
  185.5290  178.1230  137.9960 C   0  0  0  0  0  1  0  0  0  0  0  0
  188.0520  174.3340  137.2870 S   0  0  0  0  0  0  0  0  0  0  0  0
  189.0600  179.3500  138.3210 O   0  0  0  0  0  0  0  0  0  0  0  0
  188.7930  177.4110  139.5910 N   0  0  0  0  0  2  0  0  0  0  0  0
  189.3290  178.1300  138.4810 C   0  0  0  0  0  0  0  0  0  0  0  0
  187.9130  178.0260  140.5690 C   0  0  0  0  0  2  0  0  0  0  0  0
  186.6230  178.3020  143.3580 F   0  0  0  0  0  0  0  0  0  0  0  0
  188.4410  177.7670  141.9390 C   0  0  0  0  0  0  0  0  0  0  0  0
  187.4900  177.2810  143.0120 C   0  0  1  0  0  3  0  0  0  0  0  0
  189.3230  177.7420  144.6560 C   0  0  0  0  0  2  0  0  0  0  0  0
  190.3610  177.7780  143.5400 C   0  0  0  0  0  2  0  0  0  0  0  0
  189.7280  178.0500  142.2010 C   0  0  0  0  0  3  0  0  0  0  0  0
  188.2120  176.7770  144.2640 C   0  0  0  0  0  2  0  0  0  0  0  0
  192.6050  174.4350  137.4780 C   0  0  0  0  0  2  0  0  0  0  0  0
  196.1390  175.3240  136.6590 C   0  0  0  0  0  0  0  0  0  0  0  0
  196.8700  174.4150  137.4280 C   0  0  0  0  0  3  0  0  0  0  0  0
  194.0950  174.4130  137.4610 C   0  0  0  0  0  0  0  0  0  0  0  0
  196.1890  173.4930  138.2250 C   0  0  0  0  0  3  0  0  0  0  0  0
  194.7790  175.3050  136.6920 N   0  0  0  0  0  0  0  0  0  0  0  0
  194.7930  173.4890  138.2450 C   0  0  0  0  0  3  0  0  0  0  0  0
  196.8170  176.2710  135.8440 N   0  0  0  0  0  1  0  0  0  0  0  0
  1  4  1  1  0  0  0
  1 13  1  0  0  0  0
  1  7  1  0  0  0  0
  2  3  1  1  0  0  0
  4  8  1  0  0  0  0
  5  8  2  0  0  0  0
  6 27  1  1  0  0  0
  6  2  1  0  0  0  0
  7  2  1  0  0  0  0
  7 18  1  1  0  0  0
  8  6  1  0  0  0  0
  9 13  1  0  0  0  0
  9 11  1  0  0  0  0
 10 15  2  0  0  0  0
 11 12  1  0  0  0  0
 11 14  1  1  0  0  0
 12 10  1  0  0  0  0
 13 10  1  0  0  0  0
 16 18  2  0  0  0  0
 17 19  1  0  0  0  0
 18 17  1  0  0  0  0
 19 21  1  0  0  0  0
 21 25  2  0  0  0  0
 21 22  1  0  0  0  0
 22 20  1  1  0  0  0
 22 26  1  0  0  0  0
 24 23  1  0  0  0  0
 25 24  1  0  0  0  0
 26 23  1  0  0  0  0
 28 32  2  0  0  0  0
 28 29  1  0  0  0  0
 29 31  2  0  0  0  0
 30 27  1  0  0  0  0
 30 33  2  0  0  0  0
 31 33  1  0  0  0  0
 32 30  1  0  0  0  0
 34 28  1  0  0  0  0
M  END
>  <MODEL>
3

>  <REMARK>
 VINA RESULT:      -7.7      3.300      7.934
  Name = 
  6 active torsions:
  status: ('A' for Active; 'I' for Inactive)
    1  A    between atoms: C_3  and  C_13
    2  A    between atoms: C_3  and  N_17
    3  A    between atoms: C_4  and  N_15
    4  A    between atoms: C_12  and  C_28
    5  A    between atoms: C_26  and  C_28
    6  A    between atoms: C_29  and  C_31
                            x       y       z     vdW  Elec       q    Type
                         _______ _______ _______ _____ _____    ______ ____

>  <TORSDO>
F 6

$$$$
=
 OpenBabel10262423453D

 34 37  0  0  1  0  0  0  0  0999 V2000
  183.6280  177.6960  137.4270 C   0  0  2  0  0  3  0  0  0  0  0  0
  186.0660  177.1790  138.0890 C   0  0  2  0  0  3  0  0  0  0  0  0
  187.2280  177.7300  138.6340 O   0  0  0  0  0  1  0  0  0  0  0  0
  183.7780  176.4670  136.5200 C   0  0  0  0  0  2  0  0  0  0  0  0
  185.2090  176.2020  134.6730 O   0  0  0  0  0  0  0  0  0  0  0  0
  186.3770  176.6360  136.6890 C   0  0  2  0  0  3  0  0  0  0  0  0
  184.9540  178.2370  138.0290 C   0  0  2  0  0  3  0  0  0  0  0  0
  185.1270  176.4160  135.8720 C   0  0  0  0  0  0  0  0  0  0  0  0
  182.5800  176.3160  139.2630 C   0  0  0  0  0  2  0  0  0  0  0  0
  181.5580  178.4320  138.7820 C   0  0  0  0  0  0  0  0  0  0  0  0
  181.2360  176.2370  139.9860 C   0  0  1  0  0  3  0  0  0  0  0  0
  180.5320  177.9170  140.1350 S   0  0  0  0  0  0  0  0  0  0  0  0
  182.5660  177.4920  138.4170 N   0  0  0  0  0  0  0  0  0  0  0  0
  180.2870  175.3550  139.2000 C   0  0  0  0  0  1  0  0  0  0  0  0
  181.0990  179.6730  137.8140 S   0  0  0  0  0  0  0  0  0  0  0  0
  184.4160  180.2120  139.2570 O   0  0  0  0  0  0  0  0  0  0  0  0
  184.9740  178.3620  140.5650 N   0  0  0  0  0  2  0  0  0  0  0  0
  184.7760  179.0060  139.3060 C   0  0  0  0  0  0  0  0  0  0  0  0
  184.7630  179.0400  141.8320 C   0  0  0  0  0  2  0  0  0  0  0  0
  185.2600  179.7630  144.7900 F   0  0  0  0  0  0  0  0  0  0  0  0
  185.6390  178.4290  142.8720 C   0  0  0  0  0  0  0  0  0  0  0  0
  185.1960  178.4640  144.3180 C   0  0  1  0  0  3  0  0  0  0  0  0
  187.5120  177.7130  144.9060 C   0  0  0  0  0  2  0  0  0  0  0  0
  187.7650  177.2580  143.4720 C   0  0  0  0  0  2  0  0  0  0  0  0
  186.8340  177.9370  142.5030 C   0  0  0  0  0  3  0  0  0  0  0  0
  186.0310  177.5510  145.2190 C   0  0  0  0  0  2  0  0  0  0  0  0
  187.1800  175.3440  136.8170 C   0  0  0  0  0  2  0  0  0  0  0  0
  190.9070  175.1700  136.9880 C   0  0  0  0  0  0  0  0  0  0  0  0
  191.3000  175.9410  135.8910 C   0  0  0  0  0  3  0  0  0  0  0  0
  188.6170  175.5670  136.4890 C   0  0  0  0  0  0  0  0  0  0  0  0
  190.3240  176.5300  135.0850 C   0  0  0  0  0  3  0  0  0  0  0  0
  189.5840  175.0000  137.2610 N   0  0  0  0  0  0  0  0  0  0  0  0
  188.9730  176.3440  135.3820 C   0  0  0  0  0  3  0  0  0  0  0  0
  191.8880  174.5620  137.8170 N   0  0  0  0  0  1  0  0  0  0  0  0
  1  4  1  1  0  0  0
  1  7  1  0  0  0  0
  1 13  1  0  0  0  0
  2  3  1  6  0  0  0
  5  8  2  0  0  0  0
  6 27  1  1  0  0  0
  6  2  1  0  0  0  0
  7  2  1  0  0  0  0
  7 18  1  1  0  0  0
  8  4  1  0  0  0  0
  8  6  1  0  0  0  0
  9 11  1  0  0  0  0
 10 12  1  0  0  0  0
 11 14  1  6  0  0  0
 11 12  1  0  0  0  0
 13 10  1  0  0  0  0
 13  9  1  0  0  0  0
 15 10  2  0  0  0  0
 16 18  2  0  0  0  0
 17 19  1  0  0  0  0
 18 17  1  0  0  0  0
 19 21  1  0  0  0  0
 21 22  1  0  0  0  0
 22 20  1  1  0  0  0
 22 26  1  0  0  0  0
 23 26  1  0  0  0  0
 24 23  1  0  0  0  0
 25 21  2  0  0  0  0
 25 24  1  0  0  0  0
 28 32  1  0  0  0  0
 28 34  1  0  0  0  0
 29 28  2  0  0  0  0
 30 27  1  0  0  0  0
 30 32  2  0  0  0  0
 31 33  2  0  0  0  0
 31 29  1  0  0  0  0
 33 30  1  0  0  0  0
M  END
>  <MODEL>
4

>  <REMARK>
 VINA RESULT:      -7.7      3.916      8.374
  Name = 
  6 active torsions:
  status: ('A' for Active; 'I' for Inactive)
    1  A    between atoms: C_3  and  C_13
    2  A    between atoms: C_3  and  N_17
    3  A    between atoms: C_4  and  N_15
    4  A    between atoms: C_12  and  C_28
    5  A    between atoms: C_26  and  C_28
    6  A    between atoms: C_29  and  C_31
                            x       y       z     vdW  Elec       q    Type
                         _______ _______ _______ _____ _____    ______ ____

>  <TORSDO>
F 6

$$$$
=
 OpenBabel10262423453D

 34 37  0  0  1  0  0  0  0  0999 V2000
  189.8800  176.9220  137.4720 C   0  0  2  0  0  3  0  0  0  0  0  0
  188.8280  177.3110  139.7940 C   0  0  2  0  0  3  0  0  0  0  0  0
  187.9720  178.1440  140.5190 O   0  0  0  0  0  1  0  0  0  0  0  0
  190.9300  176.1220  138.2550 C   0  0  0  0  0  2  0  0  0  0  0  0
  192.4620  176.9230  139.8480 O   0  0  0  0  0  0  0  0  0  0  0  0
  190.2050  177.3000  140.4680 C   0  0  2  0  0  3  0  0  0  0  0  0
  188.9370  177.7980  138.3410 C   0  0  2  0  0  3  0  0  0  0  0  0
  191.2870  176.7880  139.5470 C   0  0  0  0  0  0  0  0  0  0  0  0
  188.6560  174.7810  136.9280 C   0  0  0  0  0  2  0  0  0  0  0  0
  188.7820  176.4280  135.1890 C   0  0  0  0  0  0  0  0  0  0  0  0
  188.2280  174.0140  135.6790 C   0  0  1  0  0  3  0  0  0  0  0  0
  187.8020  175.2030  134.3580 S   0  0  0  0  0  0  0  0  0  0  0  0
  189.1770  176.0670  136.5100 N   0  0  0  0  0  0  0  0  0  0  0  0
  189.3630  173.1230  135.2150 C   0  0  0  0  0  1  0  0  0  0  0  0
  189.4830  177.6460  134.3460 S   0  0  0  0  0  0  0  0  0  0  0  0
  187.4660  179.1600  137.0440 O   0  0  0  0  0  0  0  0  0  0  0  0
  186.5430  177.1530  137.7940 N   0  0  0  0  0  2  0  0  0  0  0  0
  187.6120  178.0930  137.6980 C   0  0  0  0  0  0  0  0  0  0  0  0
  185.2590  177.3590  137.1460 C   0  0  0  0  0  2  0  0  0  0  0  0
  185.1380  179.1960  139.6220 F   0  0  0  0  0  0  0  0  0  0  0  0
  184.2080  177.5620  138.1840 C   0  0  0  0  0  0  0  0  0  0  0  0
  184.0500  178.9300  138.8100 C   0  0  1  0  0  3  0  0  0  0  0  0
  182.5540  177.8370  140.4960 C   0  0  0  0  0  2  0  0  0  0  0  0
  182.3740  176.6190  139.5960 C   0  0  0  0  0  2  0  0  0  0  0  0
  183.4870  176.5030  138.5900 C   0  0  0  0  0  3  0  0  0  0  0  0
  182.7610  179.0670  139.6230 C   0  0  0  0  0  2  0  0  0  0  0  0
  190.1350  176.4640  141.7430 C   0  0  0  0  0  2  0  0  0  0  0  0
  189.6340  177.9560  145.1300 C   0  0  0  0  0  0  0  0  0  0  0  0
  190.7020  178.8500  145.2330 C   0  0  0  0  0  3  0  0  0  0  0  0
  190.3380  177.3100  142.9540 C   0  0  0  0  0  0  0  0  0  0  0  0
  191.6000  178.9650  144.1710 C   0  0  0  0  0  3  0  0  0  0  0  0
  189.4750  177.2110  144.0030 N   0  0  0  0  0  0  0  0  0  0  0  0
  191.4210  178.1920  143.0220 C   0  0  0  0  0  3  0  0  0  0  0  0
  188.7110  177.8250  146.2040 N   0  0  0  0  0  1  0  0  0  0  0  0
  1 13  1  1  0  0  0
  1  4  1  0  0  0  0
  1  7  1  0  0  0  0
  2  6  1  0  0  0  0
  2  3  1  1  0  0  0
  4  8  1  0  0  0  0
  6 27  1  1  0  0  0
  7 18  1  6  0  0  0
  7  2  1  0  0  0  0
  8  5  2  0  0  0  0
  8  6  1  0  0  0  0
 10 13  1  0  0  0  0
 11 14  1  6  0  0  0
 11  9  1  0  0  0  0
 12 10  1  0  0  0  0
 12 11  1  0  0  0  0
 13  9  1  0  0  0  0
 15 10  2  0  0  0  0
 16 18  2  0  0  0  0
 18 17  1  0  0  0  0
 19 17  1  0  0  0  0
 19 21  1  0  0  0  0
 21 25  2  0  0  0  0
 21 22  1  0  0  0  0
 22 20  1  1  0  0  0
 22 26  1  0  0  0  0
 24 23  1  0  0  0  0
 25 24  1  0  0  0  0
 26 23  1  0  0  0  0
 27 30  1  0  0  0  0
 28 29  1  0  0  0  0
 28 34  1  0  0  0  0
 30 33  2  0  0  0  0
 30 32  1  0  0  0  0
 31 29  2  0  0  0  0
 32 28  2  0  0  0  0
 33 31  1  0  0  0  0
M  END
>  <MODEL>
5

>  <REMARK>
 VINA RESULT:      -7.7      2.293      3.186
  Name = 
  6 active torsions:
  status: ('A' for Active; 'I' for Inactive)
    1  A    between atoms: C_3  and  C_13
    2  A    between atoms: C_3  and  N_17
    3  A    between atoms: C_4  and  N_15
    4  A    between atoms: C_12  and  C_28
    5  A    between atoms: C_26  and  C_28
    6  A    between atoms: C_29  and  C_31
                            x       y       z     vdW  Elec       q    Type
                         _______ _______ _______ _____ _____    ______ ____

>  <TORSDO>
F 6

$$$$
=
 OpenBabel10262423453D

 34 37  0  0  1  0  0  0  0  0999 V2000
  181.9210  178.5600  140.4340 C   0  0  2  0  0  3  0  0  0  0  0  0
  184.3020  178.7390  141.4080 C   0  0  2  0  0  3  0  0  0  0  0  0
  185.5880  178.1960  141.3500 O   0  0  0  0  0  1  0  0  0  0  0  0
  181.5080  179.2820  141.7240 C   0  0  0  0  0  2  0  0  0  0  0  0
  181.6720  178.4950  143.9340 O   0  0  0  0  0  0  0  0  0  0  0  0
  183.7720  178.6200  142.8410 C   0  0  2  0  0  3  0  0  0  0  0  0
  183.3740  178.0130  140.4220 C   0  0  2  0  0  3  0  0  0  0  0  0
  182.2720  178.7810  142.9100 C   0  0  0  0  0  0  0  0  0  0  0  0
  182.0710  180.7140  139.1240 C   0  0  0  0  0  2  0  0  0  0  0  0
  180.9160  178.8890  138.0790 C   0  0  0  0  0  0  0  0  0  0  0  0
  181.3430  181.3740  137.9540 C   0  0  1  0  0  3  0  0  0  0  0  0
  180.8060  180.0860  136.7730 S   0  0  0  0  0  0  0  0  0  0  0  0
  181.5770  179.3580  139.2520 N   0  0  0  0  0  0  0  0  0  0  0  0
  180.1330  182.1290  138.4690 C   0  0  0  0  0  1  0  0  0  0  0  0
  179.9820  177.5430  138.0550 S   0  0  0  0  0  0  0  0  0  0  0  0
  184.7190  178.7440  138.5890 O   0  0  0  0  0  0  0  0  0  0  0  0
  183.6760  176.6800  138.2820 N   0  0  0  0  0  2  0  0  0  0  0  0
  183.9550  177.8520  139.0460 C   0  0  0  0  0  0  0  0  0  0  0  0
  184.2540  176.4440  136.9700 C   0  0  0  0  0  2  0  0  0  0  0  0
  186.2740  175.2420  134.9720 F   0  0  0  0  0  0  0  0  0  0  0  0
  185.0590  175.1900  137.0030 C   0  0  0  0  0  0  0  0  0  0  0  0
  186.4220  175.1750  136.3460 C   0  0  1  0  0  3  0  0  0  0  0  0
  186.3830  172.6870  136.6290 C   0  0  0  0  0  2  0  0  0  0  0  0
  185.2680  172.7880  137.6650 C   0  0  0  0  0  2  0  0  0  0  0  0
  184.5160  174.0870  137.5440 C   0  0  0  0  0  3  0  0  0  0  0  0
  187.2460  173.9390  136.7110 C   0  0  0  0  0  2  0  0  0  0  0  0
  184.4710  179.6500  143.7240 C   0  0  0  0  0  2  0  0  0  0  0  0
  187.2510  177.7980  145.3950 C   0  0  0  0  0  0  0  0  0  0  0  0
  186.8440  177.7730  146.7300 C   0  0  0  0  0  3  0  0  0  0  0  0
  185.2880  178.9890  144.7820 C   0  0  0  0  0  0  0  0  0  0  0  0
  185.6350  178.3720  147.0860 C   0  0  0  0  0  3  0  0  0  0  0  0
  186.4720  178.4010  144.4560 N   0  0  0  0  0  0  0  0  0  0  0  0
  184.8490  178.9850  146.1100 C   0  0  0  0  0  3  0  0  0  0  0  0
  188.4810  177.1940  145.0150 N   0  0  0  0  0  1  0  0  0  0  0  0
  1 13  1  6  0  0  0
  1  4  1  0  0  0  0
  2  3  1  1  0  0  0
  2  6  1  0  0  0  0
  4  8  1  0  0  0  0
  6  8  1  0  0  0  0
  6 27  1  1  0  0  0
  7 18  1  6  0  0  0
  7  1  1  0  0  0  0
  7  2  1  0  0  0  0
  8  5  2  0  0  0  0
  9 13  1  0  0  0  0
 10 13  1  0  0  0  0
 11 14  1  1  0  0  0
 11  9  1  0  0  0  0
 12 11  1  0  0  0  0
 12 10  1  0  0  0  0
 15 10  2  0  0  0  0
 16 18  2  0  0  0  0
 17 18  1  0  0  0  0
 19 21  1  0  0  0  0
 19 17  1  0  0  0  0
 21 25  2  0  0  0  0
 22 20  1  6  0  0  0
 22 26  1  0  0  0  0
 22 21  1  0  0  0  0
 23 26  1  0  0  0  0
 23 24  1  0  0  0  0
 25 24  1  0  0  0  0
 27 30  1  0  0  0  0
 28 29  1  0  0  0  0
 29 31  2  0  0  0  0
 30 33  2  0  0  0  0
 32 30  1  0  0  0  0
 32 28  2  0  0  0  0
 33 31  1  0  0  0  0
 34 28  1  0  0  0  0
M  END
>  <MODEL>
6

>  <REMARK>
 VINA RESULT:      -7.6      4.438      6.586
  Name = 
  6 active torsions:
  status: ('A' for Active; 'I' for Inactive)
    1  A    between atoms: C_3  and  C_13
    2  A    between atoms: C_3  and  N_17
    3  A    between atoms: C_4  and  N_15
    4  A    between atoms: C_12  and  C_28
    5  A    between atoms: C_26  and  C_28
    6  A    between atoms: C_29  and  C_31
                            x       y       z     vdW  Elec       q    Type
                         _______ _______ _______ _____ _____    ______ ____

>  <TORSDO>
F 6

$$$$
=
 OpenBabel10262423453D

 34 37  0  0  1  0  0  0  0  0999 V2000
  190.4370  177.1780  139.8850 C   0  0  2  0  0  3  0  0  0  0  0  0
  188.2640  177.5600  141.2200 C   0  0  2  0  0  3  0  0  0  0  0  0
  187.2210  178.4630  141.4420 O   0  0  0  0  0  1  0  0  0  0  0  0
  190.7560  176.1680  140.9960 C   0  0  0  0  0  2  0  0  0  0  0  0
  191.1290  176.6020  143.2770 O   0  0  0  0  0  0  0  0  0  0  0  0
  188.9790  177.2840  142.5470 C   0  0  2  0  0  3  0  0  0  0  0  0
  189.2440  178.1270  140.1810 C   0  0  2  0  0  3  0  0  0  0  0  0
  190.3450  176.6760  142.3430 C   0  0  0  0  0  0  0  0  0  0  0  0
  189.0910  176.0020  138.1000 C   0  0  0  0  0  2  0  0  0  0  0  0
  191.3940  176.4520  137.6010 C   0  0  0  0  0  0  0  0  0  0  0  0
  189.3640  175.1430  136.8670 C   0  0  1  0  0  3  0  0  0  0  0  0
  190.9030  175.7120  136.0630 S   0  0  0  0  0  0  0  0  0  0  0  0
  190.3590  176.5160  138.5790 N   0  0  0  0  0  0  0  0  0  0  0  0
  189.5110  173.6930  137.2800 C   0  0  0  0  0  1  0  0  0  0  0  0
  192.9810  176.6450  137.9620 S   0  0  0  0  0  0  0  0  0  0  0  0
  189.2210  179.4410  138.1870 O   0  0  0  0  0  0  0  0  0  0  0  0
  187.2400  178.2910  138.6300 N   0  0  0  0  0  2  0  0  0  0  0  0
  188.5770  178.6730  138.9500 C   0  0  0  0  0  0  0  0  0  0  0  0
  186.5650  178.7420  137.4250 C   0  0  0  0  0  2  0  0  0  0  0  0
  186.4360  178.6000  134.3460 F   0  0  0  0  0  0  0  0  0  0  0  0
  186.4050  177.5930  136.4880 C   0  0  0  0  0  0  0  0  0  0  0  0
  187.0720  177.6560  135.1320 C   0  0  1  0  0  3  0  0  0  0  0  0
  185.7100  175.6450  134.5180 C   0  0  0  0  0  2  0  0  0  0  0  0
  185.4240  175.3500  135.9870 C   0  0  0  0  0  2  0  0  0  0  0  0
  185.6080  176.5730  136.8450 C   0  0  0  0  0  3  0  0  0  0  0  0
  187.0760  176.3080  134.4070 C   0  0  0  0  0  2  0  0  0  0  0  0
  188.1040  176.3800  143.4120 C   0  0  0  0  0  2  0  0  0  0  0  0
  186.1740  178.0920  146.1120 C   0  0  0  0  0  0  0  0  0  0  0  0
  187.1220  178.2250  147.1300 C   0  0  0  0  0  3  0  0  0  0  0  0
  187.7740  177.0310  144.7120 C   0  0  0  0  0  0  0  0  0  0  0  0
  188.4160  177.7460  146.9230 C   0  0  0  0  0  3  0  0  0  0  0  0
  186.5170  177.5030  144.9340 N   0  0  0  0  0  0  0  0  0  0  0  0
  188.7490  177.1440  145.7090 C   0  0  0  0  0  3  0  0  0  0  0  0
  184.8510  178.5730  146.3070 N   0  0  0  0  0  1  0  0  0  0  0  0
  1 13  1  6  0  0  0
  1  7  1  0  0  0  0
  1  4  1  0  0  0  0
  2  3  1  1  0  0  0
  2  6  1  0  0  0  0
  4  8  1  0  0  0  0
  6 27  1  1  0  0  0
  7 18  1  6  0  0  0
  7  2  1  0  0  0  0
  8  6  1  0  0  0  0
  8  5  2  0  0  0  0
  9 13  1  0  0  0  0
 10 15  2  0  0  0  0
 10 13  1  0  0  0  0
 11 14  1  1  0  0  0
 11  9  1  0  0  0  0
 12 11  1  0  0  0  0
 12 10  1  0  0  0  0
 16 18  2  0  0  0  0
 17 18  1  0  0  0  0
 19 17  1  0  0  0  0
 21 25  2  0  0  0  0
 21 19  1  0  0  0  0
 22 20  1  6  0  0  0
 22 21  1  0  0  0  0
 23 24  1  0  0  0  0
 24 25  1  0  0  0  0
 26 23  1  0  0  0  0
 26 22  1  0  0  0  0
 27 30  1  0  0  0  0
 28 34  1  0  0  0  0
 28 29  1  0  0  0  0
 30 32  1  0  0  0  0
 30 33  2  0  0  0  0
 31 29  2  0  0  0  0
 32 28  2  0  0  0  0
 33 31  1  0  0  0  0
M  END
>  <MODEL>
7

>  <REMARK>
 VINA RESULT:      -7.5      1.104      1.440
  Name = 
  6 active torsions:
  status: ('A' for Active; 'I' for Inactive)
    1  A    between atoms: C_3  and  C_13
    2  A    between atoms: C_3  and  N_17
    3  A    between atoms: C_4  and  N_15
    4  A    between atoms: C_12  and  C_28
    5  A    between atoms: C_26  and  C_28
    6  A    between atoms: C_29  and  C_31
                            x       y       z     vdW  Elec       q    Type
                         _______ _______ _______ _____ _____    ______ ____

>  <TORSDO>
F 6

$$$$
=
 OpenBabel10262423453D

 34 37  0  0  1  0  0  0  0  0999 V2000
  189.4290  176.4960  139.5000 C   0  0  2  0  0  3  0  0  0  0  0  0
  191.2990  177.3350  141.0660 C   0  0  2  0  0  3  0  0  0  0  0  0
  192.6450  177.1760  141.4010 O   0  0  0  0  0  1  0  0  0  0  0  0
  188.4910  177.0700  140.5710 C   0  0  0  0  0  2  0  0  0  0  0  0
  188.2320  176.3570  142.7960 O   0  0  0  0  0  0  0  0  0  0  0  0
  190.4390  177.0700  142.3070 C   0  0  2  0  0  3  0  0  0  0  0  0
  190.9180  176.3790  139.9250 C   0  0  2  0  0  3  0  0  0  0  0  0
  188.9950  176.8030  141.9550 C   0  0  0  0  0  0  0  0  0  0  0  0
  189.2930  178.6110  138.1280 C   0  0  0  0  0  2  0  0  0  0  0  0
  189.1350  176.5350  136.9370 C   0  0  0  0  0  0  0  0  0  0  0  0
  188.7870  179.0290  136.7490 C   0  0  1  0  0  3  0  0  0  0  0  0
  189.0600  177.6620  135.5670 S   0  0  0  0  0  0  0  0  0  0  0  0
  189.2300  177.1660  138.2120 N   0  0  0  0  0  0  0  0  0  0  0  0
  187.3070  179.3470  136.8260 C   0  0  0  0  0  1  0  0  0  0  0  0
  188.7180  174.9620  136.7440 S   0  0  0  0  0  0  0  0  0  0  0  0
  192.5630  177.4260  138.5470 O   0  0  0  0  0  0  0  0  0  0  0  0
  192.0600  175.2220  137.9740 N   0  0  0  0  0  2  0  0  0  0  0  0
  191.8840  176.3900  138.7750 C   0  0  0  0  0  0  0  0  0  0  0  0
  193.0190  175.1560  136.8850 C   0  0  0  0  0  2  0  0  0  0  0  0
  192.7630  172.1120  136.4520 F   0  0  0  0  0  0  0  0  0  0  0  0
  193.9690  174.0340  137.1300 C   0  0  0  0  0  0  0  0  0  0  0  0
  193.9260  172.8260  136.2200 C   0  0  1  0  0  3  0  0  0  0  0  0
  195.4240  171.6920  137.8770 C   0  0  0  0  0  2  0  0  0  0  0  0
  195.8030  173.0310  138.5000 C   0  0  0  0  0  2  0  0  0  0  0  0
  194.7790  174.0930  138.2000 C   0  0  0  0  0  3  0  0  0  0  0  0
  195.1340  171.9030  136.3970 C   0  0  0  0  0  2  0  0  0  0  0  0
  190.5560  178.2530  143.2630 C   0  0  0  0  0  2  0  0  0  0  0  0
  191.4070  176.6900  146.5470 C   0  0  0  0  0  0  0  0  0  0  0  0
  190.2940  177.0000  147.3320 C   0  0  0  0  0  3  0  0  0  0  0  0
  190.4490  177.8120  144.6840 C   0  0  0  0  0  0  0  0  0  0  0  0
  189.2450  177.7320  146.7710 C   0  0  0  0  0  3  0  0  0  0  0  0
  191.4610  177.1000  145.2500 N   0  0  0  0  0  0  0  0  0  0  0  0
  189.3200  178.1430  145.4390 C   0  0  0  0  0  3  0  0  0  0  0  0
  192.4830  175.9470  147.1030 N   0  0  0  0  0  1  0  0  0  0  0  0
  1 13  1  6  0  0  0
  1  7  1  0  0  0  0
  1  4  1  0  0  0  0
  2  3  1  1  0  0  0
  2  6  1  0  0  0  0
  4  8  1  0  0  0  0
  6 27  1  1  0  0  0
  7 18  1  6  0  0  0
  7  2  1  0  0  0  0
  8  6  1  0  0  0  0
  8  5  2  0  0  0  0
  9 13  1  0  0  0  0
 10 13  1  0  0  0  0
 11 14  1  1  0  0  0
 11  9  1  0  0  0  0
 12 11  1  0  0  0  0
 12 10  1  0  0  0  0
 15 10  2  0  0  0  0
 16 18  2  0  0  0  0
 17 18  1  0  0  0  0
 19 21  1  0  0  0  0
 19 17  1  0  0  0  0
 21 25  2  0  0  0  0
 22 26  1  0  0  0  0
 22 20  1  1  0  0  0
 22 21  1  0  0  0  0
 23 24  1  0  0  0  0
 25 24  1  0  0  0  0
 26 23  1  0  0  0  0
 27 30  1  0  0  0  0
 28 34  1  0  0  0  0
 28 29  1  0  0  0  0
 30 32  1  0  0  0  0
 30 33  2  0  0  0  0
 31 29  2  0  0  0  0
 32 28  2  0  0  0  0
 33 31  1  0  0  0  0
M  END
>  <MODEL>
8

>  <REMARK>
 VINA RESULT:      -7.4      3.580      6.158
  Name = 
  6 active torsions:
  status: ('A' for Active; 'I' for Inactive)
    1  A    between atoms: C_3  and  C_13
    2  A    between atoms: C_3  and  N_17
    3  A    between atoms: C_4  and  N_15
    4  A    between atoms: C_12  and  C_28
    5  A    between atoms: C_26  and  C_28
    6  A    between atoms: C_29  and  C_31
                            x       y       z     vdW  Elec       q    Type
                         _______ _______ _______ _____ _____    ______ ____

>  <TORSDO>
F 6

$$$$
=
 OpenBabel10262423453D

 34 37  0  0  1  0  0  0  0  0999 V2000
  189.4740  178.2370  140.3180 C   0  0  2  0  0  3  0  0  0  0  0  0
  187.8330  177.4070  142.1250 C   0  0  2  0  0  3  0  0  0  0  0  0
  186.5120  177.4910  142.5740 O   0  0  0  0  0  1  0  0  0  0  0  0
  190.5510  177.8430  141.3370 C   0  0  0  0  0  2  0  0  0  0  0  0
  190.9450  178.7820  143.4570 O   0  0  0  0  0  0  0  0  0  0  0  0
  188.7740  177.8560  143.2490 C   0  0  2  0  0  3  0  0  0  0  0  0
  188.0240  178.2770  140.8730 C   0  0  2  0  0  3  0  0  0  0  0  0
  190.1510  178.2000  142.7350 C   0  0  0  0  0  0  0  0  0  0  0  0
  190.0240  176.0760  139.1330 C   0  0  0  0  0  2  0  0  0  0  0  0
  189.2260  177.8840  137.7730 C   0  0  0  0  0  0  0  0  0  0  0  0
  190.3430  175.6210  137.7100 C   0  0  1  0  0  3  0  0  0  0  0  0
  189.3880  176.6320  136.5250 S   0  0  0  0  0  0  0  0  0  0  0  0
  189.6140  177.4650  139.0790 N   0  0  0  0  0  0  0  0  0  0  0  0
  191.8250  175.7880  137.4440 C   0  0  0  0  0  1  0  0  0  0  0  0
  189.0420  179.4570  137.3550 S   0  0  0  0  0  0  0  0  0  0  0  0
  186.9960  177.0530  139.0990 O   0  0  0  0  0  0  0  0  0  0  0  0
  185.9060  179.0300  139.6910 N   0  0  0  0  0  2  0  0  0  0  0  0
  186.9640  178.0800  139.8280 C   0  0  0  0  0  0  0  0  0  0  0  0
  184.8240  178.8630  138.7370 C   0  0  0  0  0  2  0  0  0  0  0  0
  183.6320  177.0620  140.9400 F   0  0  0  0  0  0  0  0  0  0  0  0
  183.5200  178.9040  139.4570 C   0  0  0  0  0  0  0  0  0  0  0  0
  183.4600  178.4340  140.8940 C   0  0  1  0  0  3  0  0  0  0  0  0
  180.9660  178.5160  140.6770 C   0  0  0  0  0  2  0  0  0  0  0  0
  181.0690  179.3990  139.4380 C   0  0  0  0  0  2  0  0  0  0  0  0
  182.4200  179.2810  138.7830 C   0  0  0  0  0  3  0  0  0  0  0  0
  182.1490  178.8080  141.5900 C   0  0  0  0  0  2  0  0  0  0  0  0
  188.8460  176.7630  144.3120 C   0  0  0  0  0  2  0  0  0  0  0  0
  186.8040  178.3200  147.0230 C   0  0  0  0  0  0  0  0  0  0  0  0
  187.6500  178.2370  148.1310 C   0  0  0  0  0  3  0  0  0  0  0  0
  188.4420  177.2830  145.6490 C   0  0  0  0  0  0  0  0  0  0  0  0
  188.9140  177.6620  147.9830 C   0  0  0  0  0  3  0  0  0  0  0  0
  187.2140  177.8450  145.8150 N   0  0  0  0  0  0  0  0  0  0  0  0
  189.3160  177.1810  146.7360 C   0  0  0  0  0  3  0  0  0  0  0  0
  185.5130  178.9010  147.1570 N   0  0  0  0  0  1  0  0  0  0  0  0
  1 13  1  6  0  0  0
  1  7  1  0  0  0  0
  1  4  1  0  0  0  0
  2  3  1  1  0  0  0
  2  6  1  0  0  0  0
  4  8  1  0  0  0  0
  6 27  1  1  0  0  0
  7 18  1  6  0  0  0
  7  2  1  0  0  0  0
  8  6  1  0  0  0  0
  8  5  2  0  0  0  0
 10 13  1  0  0  0  0
 11 14  1  6  0  0  0
 11  9  1  0  0  0  0
 12 11  1  0  0  0  0
 12 10  1  0  0  0  0
 13  9  1  0  0  0  0
 15 10  2  0  0  0  0
 16 18  2  0  0  0  0
 17 18  1  0  0  0  0
 19 21  1  0  0  0  0
 19 17  1  0  0  0  0
 21 22  1  0  0  0  0
 22 20  1  6  0  0  0
 22 26  1  0  0  0  0
 23 26  1  0  0  0  0
 24 23  1  0  0  0  0
 25 24  1  0  0  0  0
 25 21  2  0  0  0  0
 27 30  1  0  0  0  0
 28 34  1  0  0  0  0
 28 29  1  0  0  0  0
 30 32  1  0  0  0  0
 30 33  2  0  0  0  0
 31 29  2  0  0  0  0
 32 28  2  0  0  0  0
 33 31  1  0  0  0  0
M  END
>  <MODEL>
9

>  <REMARK>
 VINA RESULT:      -7.2      2.262      2.887
  Name = 
  6 active torsions:
  status: ('A' for Active; 'I' for Inactive)
    1  A    between atoms: C_3  and  C_13
    2  A    between atoms: C_3  and  N_17
    3  A    between atoms: C_4  and  N_15
    4  A    between atoms: C_12  and  C_28
    5  A    between atoms: C_26  and  C_28
    6  A    between atoms: C_29  and  C_31
                            x       y       z     vdW  Elec       q    Type
                         _______ _______ _______ _____ _____    ______ ____

>  <TORSDO>
F 6

$$$$
