=
 OpenBabel10272414383D

 43 50  0  0  1  0  0  0  0  0999 V2000
  182.2190  179.5400  138.1780 C   0  0  0  0  0  0  0  0  0  0  0  0
  184.0530  176.6810  134.5790 C   0  0  1  0  0  3  0  0  0  0  0  0
  183.7120  176.6450  137.5550 O   0  0  0  0  0  0  0  0  0  0  0  0
  183.5040  178.3650  139.9570 C   0  0  2  0  0  3  0  0  0  0  0  0
  181.5600  176.8090  134.7650 C   0  0  0  0  0  2  0  0  0  0  0  0
  185.1860  176.0560  135.4110 C   0  0  1  0  0  3  0  0  0  0  0  0
  186.1780  175.5940  134.5470 O   0  0  0  0  0  1  0  0  0  0  0  0
  185.0880  176.9830  137.7580 C   0  0  1  0  0  3  0  0  0  0  0  0
  182.7750  175.9070  134.8760 C   0  0  2  0  0  3  0  0  0  0  0  0
  185.8040  177.0380  136.4050 C   0  0  0  0  0  2  0  0  0  0  0  0
  184.9100  178.3720  139.8050 O   0  0  0  0  0  0  0  0  0  0  0  0
  185.2290  178.3660  138.4300 C   0  0  0  0  0  2  0  0  0  0  0  0
  182.9000  177.4730  136.7800 C   0  0  0  0  0  0  0  0  0  0  0  0
  182.4350  178.5300  137.3760 C   0  0  0  0  0  0  0  0  0  0  0  0
  182.8940  179.5490  139.4120 O   0  0  0  0  0  0  0  0  0  0  0  0
  182.8690  177.3660  135.2830 C   0  0  1  0  0  0  0  0  0  0  0  0
  180.5140  181.7790  135.7330 C   0  0  0  0  0  3  0  0  0  0  0  0
  179.9820  183.4110  137.4550 N   0  0  0  0  0  0  0  0  0  0  0  0
  180.4020  184.0710  135.2790 F   0  0  0  0  0  0  0  0  0  0  0  0
  180.9910  181.5780  138.7470 C   0  0  0  0  0  3  0  0  0  0  0  0
  180.8130  180.6870  136.4300 C   0  0  0  0  0  3  0  0  0  0  0  0
  181.3400  180.6710  137.8130 C   0  0  0  0  0  0  0  0  0  0  0  0
  180.7580  183.1560  136.2500 C   0  0  2  0  0  3  0  0  0  0  0  0
  180.1120  182.7510  138.5640 C   0  0  0  0  0  3  0  0  0  0  0  0
  183.1000  178.2150  141.4290 C   0  0  2  0  0  3  0  0  0  0  0  0
  181.7020  178.7620  141.6730 C   0  0  0  0  0  1  0  0  0  0  0  0
  184.0690  178.9870  142.3160 C   0  0  2  0  0  3  0  0  0  0  0  0
  184.5740  178.1130  143.4540 C   0  0  2  0  0  3  0  0  0  0  0  0
  183.4880  179.1370  143.7110 C   0  0  0  0  0  2  0  0  0  0  0  0
  185.9150  178.6470  143.9220 C   0  0  0  0  0  2  0  0  0  0  0  0
  186.7380  177.5520  144.4150 N   0  0  0  0  0  0  0  0  0  0  0  0
  189.0300  177.6380  145.1950 C   0  0  0  0  0  2  0  0  0  0  0  0
  186.7480  177.6360  145.8680 C   0  0  0  0  0  2  0  0  0  0  0  0
  188.1070  177.8220  143.9950 C   0  0  1  0  0  3  0  0  0  0  0  0
  188.1220  177.2180  146.3220 C   0  0  0  0  0  2  0  0  0  0  0  0
  188.4850  176.9230  142.8180 C   0  0  2  0  0  3  0  0  0  0  0  0
  189.2190  175.8080  143.2420 O   0  0  0  0  0  1  0  0  0  0  0  0
  189.1780  177.7430  141.7230 C   0  0  1  0  0  3  0  0  0  0  0  0
  188.6730  177.4330  140.3240 C   0  0  1  0  0  3  0  0  0  0  0  0
  188.1920  178.6740  141.0520 C   0  0  0  0  0  2  0  0  0  0  0  0
  189.7440  177.8240  139.3260 C   0  0  0  0  0  2  0  0  0  0  0  0
  189.1670  177.8140  137.9230 C   0  0  0  0  0  2  0  0  0  0  0  0
  189.2730  176.4170  137.3500 C   0  0  0  0  0  1  0  0  0  0  0  0
  1 15  1  0  0  0  0
  2  9  1  0  0  0  0
  2 16  1  0  0  0  0
  2  6  1  0  0  0  0
  3  8  1  0  0  0  0
  4 25  1  0  0  0  0
  5  9  1  0  0  0  0
  5 16  1  0  0  0  0
  6 10  1  0  0  0  0
  7  6  1  0  0  0  0
  8 12  1  0  0  0  0
  9 16  1  0  0  0  0
 10  8  1  0  0  0  0
 11  4  1  0  0  0  0
 12 11  1  0  0  0  0
 13 14  2  0  0  0  0
 13  3  1  0  0  0  0
 14  1  2  0  0  0  0
 15  4  1  0  0  0  0
 16 13  1  0  0  0  0
 17 23  1  0  0  0  0
 17 21  2  0  0  0  0
 18 24  2  0  0  0  0
 19 23  1  0  0  0  0
 21 22  1  0  0  0  0
 22  1  1  0  0  0  0
 22 20  2  0  0  0  0
 23 18  1  0  0  0  0
 24 20  1  0  0  0  0
 25 26  1  0  0  0  0
 25 27  1  0  0  0  0
 27 28  1  0  0  0  0
 27 29  1  0  0  0  0
 28 29  1  0  0  0  0
 28 30  1  0  0  0  0
 30 31  1  0  0  0  0
 31 33  1  0  0  0  0
 32 35  1  0  0  0  0
 33 35  1  0  0  0  0
 34 31  1  0  0  0  0
 34 32  1  0  0  0  0
 36 37  1  0  0  0  0
 36 34  1  0  0  0  0
 38 36  1  0  0  0  0
 39 40  1  0  0  0  0
 39 38  1  0  0  0  0
 40 38  1  0  0  0  0
 41 39  1  0  0  0  0
 42 41  1  0  0  0  0
 43 42  1  0  0  0  0
M  END
>  <MODEL>
1

>  <REMARK>
 VINA RESULT:      -8.0      0.000      0.000
  Name = 
  9 active torsions:
  status: ('A' for Active; 'I' for Inactive)
    1  A    between atoms: C_1  and  C_35
    2  A    between atoms: C_2  and  C_6
    3  A    between atoms: C_2  and  C_13
    4  A    between atoms: C_3  and  N_4
    5  A    between atoms: C_3  and  C_12
    6  A    between atoms: C_11  and  C_14
    7  A    between atoms: C_14  and  C_22
    8  A    between atoms: C_26  and  C_29
    9  A    between atoms: C_29  and  C_36
                            x       y       z     vdW  Elec       q    Type
                         _______ _______ _______ _____ _____    ______ ____

>  <TORSDO>
F 9

$$$$
=
 OpenBabel10272414383D

 43 50  0  0  1  0  0  0  0  0999 V2000
  187.3370  176.7990  137.8090 C   0  0  0  0  0  0  0  0  0  0  0  0
  188.7610  172.8800  135.1440 C   0  0  1  0  0  3  0  0  0  0  0  0
  189.6180  174.4030  137.5770 O   0  0  0  0  0  0  0  0  0  0  0  0
  189.5750  177.0700  138.8650 C   0  0  2  0  0  3  0  0  0  0  0  0
  186.7540  172.5840  136.6100 C   0  0  0  0  0  2  0  0  0  0  0  0
  190.2720  173.0520  135.3710 C   0  0  1  0  0  3  0  0  0  0  0  0
  190.9600  172.4050  134.3460 O   0  0  0  0  0  1  0  0  0  0  0  0
  190.6560  175.0660  136.8480 C   0  0  1  0  0  3  0  0  0  0  0  0
  188.1860  172.1550  136.3530 C   0  0  2  0  0  3  0  0  0  0  0  0
  190.7030  174.5170  135.4180 C   0  0  0  0  0  2  0  0  0  0  0  0
  190.6530  177.2750  137.9740 O   0  0  0  0  0  0  0  0  0  0  0  0
  190.3980  176.5850  136.7690 C   0  0  0  0  0  2  0  0  0  0  0  0
  188.2950  174.4920  137.1400 C   0  0  0  0  0  0  0  0  0  0  0  0
  187.6660  175.5830  137.4570 C   0  0  0  0  0  0  0  0  0  0  0  0
  188.3420  177.6140  138.3600 O   0  0  0  0  0  0  0  0  0  0  0  0
  187.7570  173.5830  136.0740 C   0  0  1  0  0  0  0  0  0  0  0  0
  184.3310  178.7300  138.8740 C   0  0  0  0  0  3  0  0  0  0  0  0
  182.9720  177.7760  137.0980 N   0  0  0  0  0  0  0  0  0  0  0  0
  182.0380  178.3480  139.1340 F   0  0  0  0  0  0  0  0  0  0  0  0
  185.2050  176.8680  136.6100 C   0  0  0  0  0  3  0  0  0  0  0  0
  185.5740  178.4690  138.4800 C   0  0  0  0  0  3  0  0  0  0  0  0
  185.9770  177.3440  137.6070 C   0  0  0  0  0  0  0  0  0  0  0  0
  183.1780  177.8470  138.5370 C   0  0  2  0  0  3  0  0  0  0  0  0
  183.8400  177.3070  136.2550 C   0  0  0  0  0  3  0  0  0  0  0  0
  189.8670  177.6680  140.2470 C   0  0  2  0  0  3  0  0  0  0  0  0
  191.3490  177.5880  140.5780 C   0  0  0  0  0  1  0  0  0  0  0  0
  189.1030  176.8990  141.3180 C   0  0  2  0  0  3  0  0  0  0  0  0
  189.2760  177.5540  142.6800 C   0  0  2  0  0  3  0  0  0  0  0  0
  190.0730  176.3150  142.3290 C   0  0  0  0  0  2  0  0  0  0  0  0
  188.0930  177.1810  143.5550 C   0  0  0  0  0  2  0  0  0  0  0  0
  188.1320  177.9470  144.7920 N   0  0  0  0  0  0  0  0  0  0  0  0
  187.2570  177.3260  146.9640 C   0  0  0  0  0  2  0  0  0  0  0  0
  189.2090  177.4040  145.6060 C   0  0  0  0  0  2  0  0  0  0  0  0
  186.9020  177.6530  145.5180 C   0  0  1  0  0  3  0  0  0  0  0  0
  188.7550  177.4780  147.0400 C   0  0  0  0  0  2  0  0  0  0  0  0
  185.9280  178.8240  145.4000 C   0  0  2  0  0  3  0  0  0  0  0  0
  185.7110  179.4350  146.6430 O   0  0  0  0  0  1  0  0  0  0  0  0
  184.6420  178.3780  144.6950 C   0  0  1  0  0  3  0  0  0  0  0  0
  183.9480  179.4960  143.9350 C   0  0  1  0  0  3  0  0  0  0  0  0
  184.7960  178.4790  143.1940 C   0  0  0  0  0  2  0  0  0  0  0  0
  182.4850  179.1370  143.7760 C   0  0  0  0  0  2  0  0  0  0  0  0
  182.1950  178.7950  142.3270 C   0  0  0  0  0  2  0  0  0  0  0  0
  180.7040  178.6000  142.1490 C   0  0  0  0  0  1  0  0  0  0  0  0
  1 15  1  0  0  0  0
  2  6  1  0  0  0  0
  2 16  1  0  0  0  0
  2  9  1  0  0  0  0
  4 25  1  0  0  0  0
  6 10  1  0  0  0  0
  7  6  1  0  0  0  0
  8  3  1  0  0  0  0
  9  5  1  0  0  0  0
 10  8  1  0  0  0  0
 11  4  1  0  0  0  0
 12  8  1  0  0  0  0
 12 11  1  0  0  0  0
 13 14  2  0  0  0  0
 13  3  1  0  0  0  0
 14  1  2  0  0  0  0
 15  4  1  0  0  0  0
 16  9  1  0  0  0  0
 16  5  1  0  0  0  0
 16 13  1  0  0  0  0
 18 23  1  0  0  0  0
 20 22  2  0  0  0  0
 21 17  2  0  0  0  0
 22  1  1  0  0  0  0
 22 21  1  0  0  0  0
 23 17  1  0  0  0  0
 23 19  1  0  0  0  0
 24 20  1  0  0  0  0
 24 18  2  0  0  0  0
 25 26  1  0  0  0  0
 25 27  1  0  0  0  0
 27 29  1  0  0  0  0
 27 28  1  0  0  0  0
 28 30  1  0  0  0  0
 29 28  1  0  0  0  0
 30 31  1  0  0  0  0
 31 34  1  0  0  0  0
 31 33  1  0  0  0  0
 32 35  1  0  0  0  0
 33 35  1  0  0  0  0
 34 32  1  0  0  0  0
 36 34  1  0  0  0  0
 36 37  1  0  0  0  0
 38 36  1  0  0  0  0
 39 38  1  0  0  0  0
 40 39  1  0  0  0  0
 40 38  1  0  0  0  0
 41 39  1  0  0  0  0
 42 41  1  0  0  0  0
 43 42  1  0  0  0  0
M  END
>  <MODEL>
2

>  <REMARK>
 VINA RESULT:      -7.8      3.107      6.060
  Name = 
  9 active torsions:
  status: ('A' for Active; 'I' for Inactive)
    1  A    between atoms: C_1  and  C_35
    2  A    between atoms: C_2  and  C_6
    3  A    between atoms: C_2  and  C_13
    4  A    between atoms: C_3  and  N_4
    5  A    between atoms: C_3  and  C_12
    6  A    between atoms: C_11  and  C_14
    7  A    between atoms: C_14  and  C_22
    8  A    between atoms: C_26  and  C_29
    9  A    between atoms: C_29  and  C_36
                            x       y       z     vdW  Elec       q    Type
                         _______ _______ _______ _____ _____    ______ ____

>  <TORSDO>
F 9

$$$$
=
 OpenBabel10272414383D

 43 50  0  0  1  0  0  0  0  0999 V2000
  188.3490  176.6750  138.2380 C   0  0  0  0  0  0  0  0  0  0  0  0
  191.7780  174.4290  135.4660 C   0  0  1  0  0  3  0  0  0  0  0  0
  191.1790  174.9510  138.3550 O   0  0  0  0  0  0  0  0  0  0  0  0
  189.8510  176.8320  140.2170 C   0  0  2  0  0  3  0  0  0  0  0  0
  189.5740  173.2680  135.7030 C   0  0  0  0  0  2  0  0  0  0  0  0
  192.9720  174.7210  136.3910 C   0  0  1  0  0  3  0  0  0  0  0  0
  194.1480  174.6550  135.6460 O   0  0  0  0  0  1  0  0  0  0  0  0
  192.1510  176.0000  138.4090 C   0  0  1  0  0  3  0  0  0  0  0  0
  191.0590  173.2000  136.0050 C   0  0  2  0  0  3  0  0  0  0  0  0
  192.8800  176.0890  137.0650 C   0  0  0  0  0  2  0  0  0  0  0  0
  191.0580  177.5390  140.0170 O   0  0  0  0  0  0  0  0  0  0  0  0
  191.4840  177.3650  138.6830 C   0  0  0  0  0  2  0  0  0  0  0  0
  190.1470  175.0080  137.4170 C   0  0  0  0  0  0  0  0  0  0  0  0
  189.1420  175.7700  137.7260 C   0  0  0  0  0  0  0  0  0  0  0  0
  188.7810  177.3400  139.3990 O   0  0  0  0  0  0  0  0  0  0  0  0
  190.3410  174.5370  136.0050 C   0  0  1  0  0  0  0  0  0  0  0  0
  185.0390  178.3900  138.2060 C   0  0  0  0  0  3  0  0  0  0  0  0
  184.2760  177.0860  136.3000 N   0  0  0  0  0  0  0  0  0  0  0  0
  182.7930  177.7990  137.9240 F   0  0  0  0  0  0  0  0  0  0  0  0
  186.6170  176.3700  136.5370 C   0  0  0  0  0  3  0  0  0  0  0  0
  186.3570  178.2170  138.1850 C   0  0  0  0  0  3  0  0  0  0  0  0
  187.0580  177.0440  137.6170 C   0  0  0  0  0  0  0  0  0  0  0  0
  184.0830  177.3540  137.7180 C   0  0  2  0  0  3  0  0  0  0  0  0
  185.3690  176.6130  135.7850 C   0  0  0  0  0  3  0  0  0  0  0  0
  189.4220  176.8580  141.6890 C   0  0  2  0  0  3  0  0  0  0  0  0
  188.1050  177.5970  141.8650 C   0  0  0  0  0  1  0  0  0  0  0  0
  190.4770  177.5710  142.5260 C   0  0  2  0  0  3  0  0  0  0  0  0
  190.2340  177.3460  144.0100 C   0  0  2  0  0  3  0  0  0  0  0  0
  189.8280  178.6550  143.3660 C   0  0  0  0  0  2  0  0  0  0  0  0
  191.5470  177.5160  144.7520 C   0  0  0  0  0  2  0  0  0  0  0  0
  191.3300  177.3570  146.1830 N   0  0  0  0  0  0  0  0  0  0  0  0
  189.9950  175.6840  147.3170 C   0  0  0  0  0  2  0  0  0  0  0  0
  192.1960  176.2790  146.6360 C   0  0  0  0  0  2  0  0  0  0  0  0
  189.9680  176.8700  146.3590 C   0  0  1  0  0  3  0  0  0  0  0  0
  191.4430  175.5340  147.7070 C   0  0  0  0  0  2  0  0  0  0  0  0
  189.0630  178.0000  146.8470 C   0  0  2  0  0  3  0  0  0  0  0  0
  189.4900  178.5000  148.0840 O   0  0  0  0  0  1  0  0  0  0  0  0
  187.5960  177.5520  146.8310 C   0  0  1  0  0  3  0  0  0  0  0  0
  186.7230  178.3690  145.8940 C   0  0  1  0  0  3  0  0  0  0  0  0
  187.2240  176.9990  145.4730 C   0  0  0  0  0  2  0  0  0  0  0  0
  185.2840  178.2550  146.3520 C   0  0  0  0  0  2  0  0  0  0  0  0
  184.3760  178.9870  145.3830 C   0  0  0  0  0  2  0  0  0  0  0  0
  184.7830  178.6480  143.9650 C   0  0  0  0  0  1  0  0  0  0  0  0
  1 15  1  0  0  0  0
  2  9  1  0  0  0  0
  2 16  1  0  0  0  0
  2  6  1  0  0  0  0
  3  8  1  0  0  0  0
  4 25  1  0  0  0  0
  5  9  1  0  0  0  0
  5 16  1  0  0  0  0
  6 10  1  0  0  0  0
  7  6  1  0  0  0  0
  8 12  1  0  0  0  0
  9 16  1  0  0  0  0
 10  8  1  0  0  0  0
 11  4  1  0  0  0  0
 12 11  1  0  0  0  0
 13 14  2  0  0  0  0
 13  3  1  0  0  0  0
 14  1  2  0  0  0  0
 15  4  1  0  0  0  0
 16 13  1  0  0  0  0
 18 23  1  0  0  0  0
 20 22  2  0  0  0  0
 21 17  2  0  0  0  0
 22 21  1  0  0  0  0
 22  1  1  0  0  0  0
 23 19  1  0  0  0  0
 23 17  1  0  0  0  0
 24 18  2  0  0  0  0
 24 20  1  0  0  0  0
 25 26  1  0  0  0  0
 25 27  1  0  0  0  0
 27 29  1  0  0  0  0
 27 28  1  0  0  0  0
 28 30  1  0  0  0  0
 29 28  1  0  0  0  0
 30 31  1  0  0  0  0
 31 34  1  0  0  0  0
 31 33  1  0  0  0  0
 32 35  1  0  0  0  0
 33 35  1  0  0  0  0
 34 36  1  0  0  0  0
 34 32  1  0  0  0  0
 36 37  1  0  0  0  0
 38 36  1  0  0  0  0
 39 41  1  0  0  0  0
 39 38  1  0  0  0  0
 40 39  1  0  0  0  0
 40 38  1  0  0  0  0
 42 41  1  0  0  0  0
 43 42  1  0  0  0  0
M  END
>  <MODEL>
3

>  <REMARK>
 VINA RESULT:      -7.7      3.644      6.809
  Name = 
  9 active torsions:
  status: ('A' for Active; 'I' for Inactive)
    1  A    between atoms: C_1  and  C_35
    2  A    between atoms: C_2  and  C_6
    3  A    between atoms: C_2  and  C_13
    4  A    between atoms: C_3  and  N_4
    5  A    between atoms: C_3  and  C_12
    6  A    between atoms: C_11  and  C_14
    7  A    between atoms: C_14  and  C_22
    8  A    between atoms: C_26  and  C_29
    9  A    between atoms: C_29  and  C_36
                            x       y       z     vdW  Elec       q    Type
                         _______ _______ _______ _____ _____    ______ ____

>  <TORSDO>
F 9

$$$$
=
 OpenBabel10272414383D

 43 50  0  0  1  0  0  0  0  0999 V2000
  184.2370  176.1100  137.3790 C   0  0  0  0  0  0  0  0  0  0  0  0
  180.2770  178.6580  138.8990 C   0  0  1  0  0  3  0  0  0  0  0  0
  183.0560  179.1650  137.9000 O   0  0  0  0  0  0  0  0  0  0  0  0
  185.7850  178.0240  137.7480 C   0  0  2  0  0  3  0  0  0  0  0  0
  180.1510  177.6200  136.6260 C   0  0  0  0  0  2  0  0  0  0  0  0
  181.0520  179.8260  139.5330 C   0  0  1  0  0  3  0  0  0  0  0  0
  180.2380  180.4490  140.4770 O   0  0  0  0  0  1  0  0  0  0  0  0
  183.5280  179.4320  139.2240 C   0  0  1  0  0  3  0  0  0  0  0  0
  180.1750  178.9220  137.4030 C   0  0  2  0  0  3  0  0  0  0  0  0
  182.3510  179.3830  140.2040 C   0  0  0  0  0  2  0  0  0  0  0  0
  185.8320  178.5290  139.0680 O   0  0  0  0  0  0  0  0  0  0  0  0
  184.5650  178.3780  139.6690 C   0  0  0  0  0  2  0  0  0  0  0  0
  182.4330  177.9480  137.6160 C   0  0  0  0  0  0  0  0  0  0  0  0
  183.2270  176.9400  137.4150 C   0  0  0  0  0  0  0  0  0  0  0  0
  185.5060  176.6130  137.7160 O   0  0  0  0  0  0  0  0  0  0  0  0
  180.9750  177.7280  137.8910 C   0  0  1  0  0  0  0  0  0  0  0  0
  185.4580  172.5980  137.1120 C   0  0  0  0  0  3  0  0  0  0  0  0
  183.6010  171.9610  135.6770 N   0  0  0  0  0  0  0  0  0  0  0  0
  185.6770  170.9700  135.4470 F   0  0  0  0  0  0  0  0  0  0  0  0
  183.0420  174.2790  136.2800 C   0  0  0  0  0  3  0  0  0  0  0  0
  185.0470  173.7400  137.6530 C   0  0  0  0  0  3  0  0  0  0  0  0
  184.0790  174.6790  137.0420 C   0  0  0  0  0  0  0  0  0  0  0  0
  185.0410  172.1570  135.7490 C   0  0  2  0  0  3  0  0  0  0  0  0
  182.7230  172.8980  135.8650 C   0  0  0  0  0  3  0  0  0  0  0  0
  187.0910  178.3030  136.9930 C   0  0  2  0  0  3  0  0  0  0  0  0
  186.8990  178.1550  135.4920 C   0  0  0  0  0  1  0  0  0  0  0  0
  188.1650  177.3140  137.4300 C   0  0  2  0  0  3  0  0  0  0  0  0
  189.3100  178.0330  138.1280 C   0  0  2  0  0  3  0  0  0  0  0  0
  189.4590  177.5910  136.6860 C   0  0  0  0  0  2  0  0  0  0  0  0
  190.0140  177.0520  139.0470 C   0  0  0  0  0  2  0  0  0  0  0  0
  190.3020  177.6910  140.3230 N   0  0  0  0  0  0  0  0  0  0  0  0
  190.5750  176.6460  142.4910 C   0  0  0  0  0  2  0  0  0  0  0  0
  191.7200  177.5060  140.5920 C   0  0  0  0  0  2  0  0  0  0  0  0
  189.6030  176.9300  141.3520 C   0  0  1  0  0  3  0  0  0  0  0  0
  191.8630  177.3100  142.0780 C   0  0  0  0  0  2  0  0  0  0  0  0
  188.3590  177.6880  141.8140 C   0  0  2  0  0  3  0  0  0  0  0  0
  188.3580  179.0070  141.3400 O   0  0  0  0  0  1  0  0  0  0  0  0
  188.2010  177.5740  143.3350 C   0  0  1  0  0  3  0  0  0  0  0  0
  186.7540  177.5920  143.7970 C   0  0  1  0  0  3  0  0  0  0  0  0
  187.5100  176.2800  143.7020 C   0  0  0  0  0  2  0  0  0  0  0  0
  186.7130  178.0420  145.2420 C   0  0  0  0  0  2  0  0  0  0  0  0
  185.4160  178.7780  145.5160 C   0  0  0  0  0  2  0  0  0  0  0  0
  184.5620  178.7650  144.2660 C   0  0  0  0  0  1  0  0  0  0  0  0
  1 14  2  0  0  0  0
  1 15  1  0  0  0  0
  2  6  1  0  0  0  0
  3  8  1  0  0  0  0
  4 11  1  0  0  0  0
  5  9  1  0  0  0  0
  5 16  1  0  0  0  0
  6 10  1  0  0  0  0
  6  7  1  0  0  0  0
  8 12  1  0  0  0  0
  8 10  1  0  0  0  0
  9 16  1  0  0  0  0
  9  2  1  0  0  0  0
 11 12  1  0  0  0  0
 13 16  1  0  0  0  0
 13  3  1  0  0  0  0
 14 13  2  0  0  0  0
 15  4  1  0  0  0  0
 16  2  1  0  0  0  0
 17 21  2  0  0  0  0
 18 23  1  0  0  0  0
 18 24  2  0  0  0  0
 19 23  1  0  0  0  0
 20 22  2  0  0  0  0
 22  1  1  0  0  0  0
 22 21  1  0  0  0  0
 23 17  1  0  0  0  0
 24 20  1  0  0  0  0
 25 27  1  0  0  0  0
 25  4  1  0  0  0  0
 26 25  1  0  0  0  0
 27 28  1  0  0  0  0
 28 30  1  0  0  0  0
 29 27  1  0  0  0  0
 29 28  1  0  0  0  0
 30 31  1  0  0  0  0
 31 33  1  0  0  0  0
 31 34  1  0  0  0  0
 33 35  1  0  0  0  0
 34 36  1  0  0  0  0
 34 32  1  0  0  0  0
 35 32  1  0  0  0  0
 36 38  1  0  0  0  0
 37 36  1  0  0  0  0
 38 40  1  0  0  0  0
 38 39  1  0  0  0  0
 39 41  1  0  0  0  0
 40 39  1  0  0  0  0
 41 42  1  0  0  0  0
 43 42  1  0  0  0  0
M  END
>  <MODEL>
4

>  <REMARK>
 VINA RESULT:      -7.6      3.522      6.657
  Name = 
  9 active torsions:
  status: ('A' for Active; 'I' for Inactive)
    1  A    between atoms: C_1  and  C_35
    2  A    between atoms: C_2  and  C_6
    3  A    between atoms: C_2  and  C_13
    4  A    between atoms: C_3  and  N_4
    5  A    between atoms: C_3  and  C_12
    6  A    between atoms: C_11  and  C_14
    7  A    between atoms: C_14  and  C_22
    8  A    between atoms: C_26  and  C_29
    9  A    between atoms: C_29  and  C_36
                            x       y       z     vdW  Elec       q    Type
                         _______ _______ _______ _____ _____    ______ ____

>  <TORSDO>
F 9

$$$$
=
 OpenBabel10272414383D

 43 50  0  0  1  0  0  0  0  0999 V2000
  187.7220  177.6560  144.0390 C   0  0  0  0  0  0  0  0  0  0  0  0
  190.9520  176.4330  147.5810 C   0  0  1  0  0  3  0  0  0  0  0  0
  190.9510  177.4450  144.7620 O   0  0  0  0  0  0  0  0  0  0  0  0
  189.4180  177.4560  142.2280 C   0  0  2  0  0  3  0  0  0  0  0  0
  189.7280  178.5970  147.8630 C   0  0  0  0  0  2  0  0  0  0  0  0
  192.0510  175.9060  146.6430 C   0  0  1  0  0  3  0  0  0  0  0  0
  192.8740  175.0350  147.3560 O   0  0  0  0  0  1  0  0  0  0  0  0
  191.2740  176.1470  144.2520 C   0  0  1  0  0  3  0  0  0  0  0  0
  191.0820  177.9480  147.6480 C   0  0  2  0  0  3  0  0  0  0  0  0
  191.4920  175.1810  145.4200 C   0  0  0  0  0  2  0  0  0  0  0  0
  190.0360  176.1900  142.1040 O   0  0  0  0  0  0  0  0  0  0  0  0
  190.1300  175.5920  143.3780 C   0  0  0  0  0  2  0  0  0  0  0  0
  189.8160  177.6170  145.5550 C   0  0  0  0  0  0  0  0  0  0  0  0
  188.6880  177.7110  144.9180 C   0  0  0  0  0  0  0  0  0  0  0  0
  188.0650  177.3540  142.7080 O   0  0  0  0  0  0  0  0  0  0  0  0
  189.8370  177.3390  147.0300 C   0  0  1  0  0  0  0  0  0  0  0  0
  184.1550  178.4090  143.2550 C   0  0  0  0  0  3  0  0  0  0  0  0
  183.6230  178.7890  145.5960 N   0  0  0  0  0  0  0  0  0  0  0  0
  182.5310  179.9540  143.9240 F   0  0  0  0  0  0  0  0  0  0  0  0
  185.9600  178.0320  145.6950 C   0  0  0  0  0  3  0  0  0  0  0  0
  185.3130  177.7570  143.3080 C   0  0  0  0  0  3  0  0  0  0  0  0
  186.3020  177.8550  144.4030 C   0  0  0  0  0  0  0  0  0  0  0  0
  183.7460  179.4070  144.2850 C   0  0  2  0  0  3  0  0  0  0  0  0
  184.6000  178.2250  146.2370 C   0  0  0  0  0  3  0  0  0  0  0  0
  189.4300  178.2190  140.8980 C   0  0  2  0  0  3  0  0  0  0  0  0
  188.2420  179.1630  140.7960 C   0  0  0  0  0  1  0  0  0  0  0  0
  189.3530  177.2380  139.7340 C   0  0  2  0  0  3  0  0  0  0  0  0
  190.6920  177.1430  139.0180 C   0  0  2  0  0  3  0  0  0  0  0  0
  189.5720  177.9710  138.4230 C   0  0  0  0  0  2  0  0  0  0  0  0
  190.7750  175.7990  138.3170 C   0  0  0  0  0  2  0  0  0  0  0  0
  191.6220  175.9100  137.1370 N   0  0  0  0  0  0  0  0  0  0  0  0
  192.5950  174.1230  135.8230 C   0  0  0  0  0  2  0  0  0  0  0  0
  190.7830  175.6570  135.9750 C   0  0  0  0  0  2  0  0  0  0  0  0
  192.5710  174.8050  137.1860 C   0  0  1  0  0  3  0  0  0  0  0  0
  191.6300  174.9140  134.9770 C   0  0  0  0  0  2  0  0  0  0  0  0
  193.9480  175.3110  137.6160 C   0  0  2  0  0  3  0  0  0  0  0  0
  194.2300  176.5640  137.0550 O   0  0  0  0  0  1  0  0  0  0  0  0
  195.0180  174.2500  137.3320 C   0  0  1  0  0  3  0  0  0  0  0  0
  196.1840  174.2900  138.3050 C   0  0  1  0  0  3  0  0  0  0  0  0
  195.0890  173.2510  138.4670 C   0  0  0  0  0  2  0  0  0  0  0  0
  197.3860  173.6490  137.6460 C   0  0  0  0  0  2  0  0  0  0  0  0
  198.6530  174.3590  138.0840 C   0  0  0  0  0  2  0  0  0  0  0  0
  198.4090  175.0380  139.4150 C   0  0  0  0  0  1  0  0  0  0  0  0
  1 22  1  0  0  0  0
  1 14  2  0  0  0  0
  2  9  1  0  0  0  0
  3 13  1  0  0  0  0
  4 15  1  0  0  0  0
  6  7  1  0  0  0  0
  6  2  1  0  0  0  0
  8  3  1  0  0  0  0
  8 10  1  0  0  0  0
  9  5  1  0  0  0  0
 10  6  1  0  0  0  0
 11  4  1  0  0  0  0
 11 12  1  0  0  0  0
 12  8  1  0  0  0  0
 13 16  1  0  0  0  0
 14 13  2  0  0  0  0
 15  1  1  0  0  0  0
 16  2  1  0  0  0  0
 16  9  1  0  0  0  0
 16  5  1  0  0  0  0
 17 21  2  0  0  0  0
 17 23  1  0  0  0  0
 18 24  2  0  0  0  0
 19 23  1  0  0  0  0
 20 24  1  0  0  0  0
 21 22  1  0  0  0  0
 22 20  2  0  0  0  0
 23 18  1  0  0  0  0
 25  4  1  0  0  0  0
 26 25  1  0  0  0  0
 27 25  1  0  0  0  0
 28 27  1  0  0  0  0
 29 28  1  0  0  0  0
 29 27  1  0  0  0  0
 30 28  1  0  0  0  0
 31 34  1  0  0  0  0
 31 30  1  0  0  0  0
 32 34  1  0  0  0  0
 33 31  1  0  0  0  0
 34 36  1  0  0  0  0
 35 32  1  0  0  0  0
 35 33  1  0  0  0  0
 37 36  1  0  0  0  0
 38 36  1  0  0  0  0
 38 39  1  0  0  0  0
 38 40  1  0  0  0  0
 39 40  1  0  0  0  0
 41 42  1  0  0  0  0
 41 39  1  0  0  0  0
 42 43  1  0  0  0  0
M  END
>  <MODEL>
5

>  <REMARK>
 VINA RESULT:      -7.4      5.376      9.871
  Name = 
  9 active torsions:
  status: ('A' for Active; 'I' for Inactive)
    1  A    between atoms: C_1  and  C_35
    2  A    between atoms: C_2  and  C_6
    3  A    between atoms: C_2  and  C_13
    4  A    between atoms: C_3  and  N_4
    5  A    between atoms: C_3  and  C_12
    6  A    between atoms: C_11  and  C_14
    7  A    between atoms: C_14  and  C_22
    8  A    between atoms: C_26  and  C_29
    9  A    between atoms: C_29  and  C_36
                            x       y       z     vdW  Elec       q    Type
                         _______ _______ _______ _____ _____    ______ ____

>  <TORSDO>
F 9

$$$$
=
 OpenBabel10272414383D

 43 50  0  0  1  0  0  0  0  0999 V2000
  185.8620  177.8550  138.3310 C   0  0  0  0  0  0  0  0  0  0  0  0
  188.4590  175.3720  134.9290 C   0  0  1  0  0  3  0  0  0  0  0  0
  188.6770  176.1830  137.8050 O   0  0  0  0  0  0  0  0  0  0  0  0
  187.8520  178.2310  139.7790 C   0  0  2  0  0  3  0  0  0  0  0  0
  186.4580  174.2170  135.8920 C   0  0  0  0  0  2  0  0  0  0  0  0
  189.8520  175.7710  135.4450 C   0  0  1  0  0  3  0  0  0  0  0  0
  190.7720  175.6410  134.4070 O   0  0  0  0  0  1  0  0  0  0  0  0
  189.5820  177.2430  137.4800 C   0  0  1  0  0  3  0  0  0  0  0  0
  187.9700  174.1970  135.7650 C   0  0  2  0  0  3  0  0  0  0  0  0
  189.8990  177.2010  135.9820 C   0  0  0  0  0  2  0  0  0  0  0  0
  188.9250  178.9280  139.1770 O   0  0  0  0  0  0  0  0  0  0  0  0
  188.9650  178.6210  137.8000 C   0  0  0  0  0  2  0  0  0  0  0  0
  187.4210  176.1310  137.1980 C   0  0  0  0  0  0  0  0  0  0  0  0
  186.5140  176.9100  137.7060 C   0  0  0  0  0  0  0  0  0  0  0  0
  186.5760  178.6410  139.2530 O   0  0  0  0  0  0  0  0  0  0  0  0
  187.2280  175.5190  135.8410 C   0  0  1  0  0  0  0  0  0  0  0  0
  182.5500  179.3330  139.1980 C   0  0  0  0  0  3  0  0  0  0  0  0
  181.4120  178.0150  137.5010 N   0  0  0  0  0  0  0  0  0  0  0  0
  180.3490  178.5910  139.4710 F   0  0  0  0  0  0  0  0  0  0  0  0
  183.7760  177.4610  137.1130 C   0  0  0  0  0  3  0  0  0  0  0  0
  183.8280  179.2530  138.8390 C   0  0  0  0  0  3  0  0  0  0  0  0
  184.4350  178.1430  138.0710 C   0  0  0  0  0  0  0  0  0  0  0  0
  181.5690  178.2420  138.9300 C   0  0  2  0  0  3  0  0  0  0  0  0
  182.3660  177.6300  136.7100 C   0  0  0  0  0  3  0  0  0  0  0  0
  187.8540  178.4050  141.3020 C   0  0  2  0  0  3  0  0  0  0  0  0
  188.5680  179.6840  141.7090 C   0  0  0  0  0  1  0  0  0  0  0  0
  188.5760  177.2340  141.9580 C   0  0  2  0  0  3  0  0  0  0  0  0
  189.5970  177.7270  142.9720 C   0  0  2  0  0  3  0  0  0  0  0  0
  190.0510  177.2680  141.6020 C   0  0  0  0  0  2  0  0  0  0  0  0
  189.8390  176.6320  143.9940 C   0  0  0  0  0  2  0  0  0  0  0  0
  190.3450  177.2120  145.2300 N   0  0  0  0  0  0  0  0  0  0  0  0
  190.2240  176.2990  147.4700 C   0  0  0  0  0  2  0  0  0  0  0  0
  191.5980  176.5420  145.5430 C   0  0  0  0  0  2  0  0  0  0  0  0
  189.4200  176.8360  146.2910 C   0  0  1  0  0  3  0  0  0  0  0  0
  191.6640  176.4150  147.0420 C   0  0  0  0  0  2  0  0  0  0  0  0
  188.5410  178.0260  146.6700 C   0  0  2  0  0  3  0  0  0  0  0  0
  188.9150  178.5640  147.9090 O   0  0  0  0  0  1  0  0  0  0  0  0
  187.0580  177.6430  146.5830 C   0  0  1  0  0  3  0  0  0  0  0  0
  186.2870  178.4380  145.5430 C   0  0  1  0  0  3  0  0  0  0  0  0
  186.7480  177.0250  145.2370 C   0  0  0  0  0  2  0  0  0  0  0  0
  184.8180  178.4160  145.9090 C   0  0  0  0  0  2  0  0  0  0  0  0
  184.0100  179.1260  144.8400 C   0  0  0  0  0  2  0  0  0  0  0  0
  184.8810  179.3490  143.6220 C   0  0  0  0  0  1  0  0  0  0  0  0
  1 15  1  0  0  0  0
  2  6  1  0  0  0  0
  2  9  1  0  0  0  0
  2 16  1  0  0  0  0
  4 25  1  0  0  0  0
  6 10  1  0  0  0  0
  7  6  1  0  0  0  0
  8 12  1  0  0  0  0
  8  3  1  0  0  0  0
  9 16  1  0  0  0  0
  9  5  1  0  0  0  0
 10  8  1  0  0  0  0
 11  4  1  0  0  0  0
 12 11  1  0  0  0  0
 13 14  2  0  0  0  0
 13  3  1  0  0  0  0
 14  1  2  0  0  0  0
 15  4  1  0  0  0  0
 16  5  1  0  0  0  0
 16 13  1  0  0  0  0
 18 23  1  0  0  0  0
 20 22  2  0  0  0  0
 21 17  2  0  0  0  0
 22  1  1  0  0  0  0
 22 21  1  0  0  0  0
 23 17  1  0  0  0  0
 23 19  1  0  0  0  0
 24 20  1  0  0  0  0
 24 18  2  0  0  0  0
 25 26  1  0  0  0  0
 25 27  1  0  0  0  0
 27 28  1  0  0  0  0
 28 30  1  0  0  0  0
 29 27  1  0  0  0  0
 29 28  1  0  0  0  0
 30 31  1  0  0  0  0
 31 33  1  0  0  0  0
 31 34  1  0  0  0  0
 33 35  1  0  0  0  0
 34 36  1  0  0  0  0
 34 32  1  0  0  0  0
 35 32  1  0  0  0  0
 36 37  1  0  0  0  0
 38 36  1  0  0  0  0
 39 41  1  0  0  0  0
 39 38  1  0  0  0  0
 40 39  1  0  0  0  0
 40 38  1  0  0  0  0
 42 41  1  0  0  0  0
 43 42  1  0  0  0  0
M  END
>  <MODEL>
6

>  <REMARK>
 VINA RESULT:      -7.4      2.775      5.200
  Name = 
  9 active torsions:
  status: ('A' for Active; 'I' for Inactive)
    1  A    between atoms: C_1  and  C_35
    2  A    between atoms: C_2  and  C_6
    3  A    between atoms: C_2  and  C_13
    4  A    between atoms: C_3  and  N_4
    5  A    between atoms: C_3  and  C_12
    6  A    between atoms: C_11  and  C_14
    7  A    between atoms: C_14  and  C_22
    8  A    between atoms: C_26  and  C_29
    9  A    between atoms: C_29  and  C_36
                            x       y       z     vdW  Elec       q    Type
                         _______ _______ _______ _____ _____    ______ ____

>  <TORSDO>
F 9

$$$$
=
 OpenBabel10272414383D

 43 50  0  0  1  0  0  0  0  0999 V2000
  184.7980  177.3070  137.6330 C   0  0  0  0  0  0  0  0  0  0  0  0
  185.0130  172.7960  135.6130 C   0  0  1  0  0  3  0  0  0  0  0  0
  186.6980  174.6100  137.2980 O   0  0  0  0  0  0  0  0  0  0  0  0
  187.2670  177.4490  137.9190 C   0  0  2  0  0  3  0  0  0  0  0  0
  183.5410  173.0700  137.6180 C   0  0  0  0  0  2  0  0  0  0  0  0
  186.5290  172.7900  135.3550 C   0  0  1  0  0  3  0  0  0  0  0  0
  186.8120  171.8700  134.3460 O   0  0  0  0  0  1  0  0  0  0  0  0
  187.5090  174.9690  136.1750 C   0  0  1  0  0  3  0  0  0  0  0  0
  184.7840  172.4000  137.0650 C   0  0  2  0  0  3  0  0  0  0  0  0
  187.0680  174.1610  134.9500 C   0  0  0  0  0  2  0  0  0  0  0  0
  188.0300  177.3270  136.7350 O   0  0  0  0  0  0  0  0  0  0  0  0
  187.3610  176.4680  135.8370 C   0  0  0  0  0  2  0  0  0  0  0  0
  185.3170  174.8030  137.2490 C   0  0  0  0  0  0  0  0  0  0  0  0
  184.9060  176.0130  137.4820 C   0  0  0  0  0  0  0  0  0  0  0  0
  185.9860  178.0590  137.6790 O   0  0  0  0  0  0  0  0  0  0  0  0
  184.4050  173.7970  136.6100 C   0  0  1  0  0  0  0  0  0  0  0  0
  182.2970  179.5280  139.2790 C   0  0  0  0  0  3  0  0  0  0  0  0
  180.5070  178.7410  137.8340 N   0  0  0  0  0  0  0  0  0  0  0  0
  180.0800  179.3830  140.0130 F   0  0  0  0  0  0  0  0  0  0  0  0
  182.4830  177.6120  136.9020 C   0  0  0  0  0  3  0  0  0  0  0  0
  183.3970  179.1430  138.6390 C   0  0  0  0  0  3  0  0  0  0  0  0
  183.4910  177.9930  137.7120 C   0  0  0  0  0  0  0  0  0  0  0  0
  181.0130  178.7740  139.1980 C   0  0  2  0  0  3  0  0  0  0  0  0
  181.1280  178.1940  136.8340 C   0  0  0  0  0  3  0  0  0  0  0  0
  188.0190  178.2480  138.9910 C   0  0  2  0  0  3  0  0  0  0  0  0
  189.3220  178.8100  138.4440 C   0  0  0  0  0  1  0  0  0  0  0  0
  188.3550  177.3460  140.1720 C   0  0  2  0  0  3  0  0  0  0  0  0
  188.3490  178.1340  141.4730 C   0  0  2  0  0  3  0  0  0  0  0  0
  189.6630  177.7840  140.8050 C   0  0  0  0  0  2  0  0  0  0  0  0
  188.0800  177.1780  142.6210 C   0  0  0  0  0  2  0  0  0  0  0  0
  188.1110  177.9020  143.8840 N   0  0  0  0  0  0  0  0  0  0  0  0
  187.4730  177.1050  146.0810 C   0  0  0  0  0  2  0  0  0  0  0  0
  189.3000  177.4720  144.6020 C   0  0  0  0  0  2  0  0  0  0  0  0
  186.9800  177.4320  144.6760 C   0  0  1  0  0  3  0  0  0  0  0  0
  188.9420  177.4400  146.0650 C   0  0  0  0  0  2  0  0  0  0  0  0
  185.8640  178.4750  144.6710 C   0  0  2  0  0  3  0  0  0  0  0  0
  185.3960  178.7300  145.9670 O   0  0  0  0  0  1  0  0  0  0  0  0
  184.7630  178.0730  143.6820 C   0  0  1  0  0  3  0  0  0  0  0  0
  183.7880  179.1950  143.3700 C   0  0  1  0  0  3  0  0  0  0  0  0
  184.8970  178.8520  142.3920 C   0  0  0  0  0  2  0  0  0  0  0  0
  182.4890  178.5870  142.8860 C   0  0  0  0  0  2  0  0  0  0  0  0
  181.3160  179.3900  143.4160 C   0  0  0  0  0  2  0  0  0  0  0  0
  180.1820  178.4480  143.7610 C   0  0  0  0  0  1  0  0  0  0  0  0
  1 15  1  0  0  0  0
  1 22  1  0  0  0  0
  2 16  1  0  0  0  0
  2  9  1  0  0  0  0
  4 25  1  0  0  0  0
  6  2  1  0  0  0  0
  7  6  1  0  0  0  0
  8  3  1  0  0  0  0
  9  5  1  0  0  0  0
 10  6  1  0  0  0  0
 10  8  1  0  0  0  0
 11  4  1  0  0  0  0
 12  8  1  0  0  0  0
 12 11  1  0  0  0  0
 13  3  1  0  0  0  0
 13 14  2  0  0  0  0
 14  1  2  0  0  0  0
 15  4  1  0  0  0  0
 16  9  1  0  0  0  0
 16 13  1  0  0  0  0
 16  5  1  0  0  0  0
 18 23  1  0  0  0  0
 20 22  2  0  0  0  0
 21 17  2  0  0  0  0
 22 21  1  0  0  0  0
 23 17  1  0  0  0  0
 23 19  1  0  0  0  0
 24 20  1  0  0  0  0
 24 18  2  0  0  0  0
 25 27  1  0  0  0  0
 26 25  1  0  0  0  0
 27 29  1  0  0  0  0
 27 28  1  0  0  0  0
 28 30  1  0  0  0  0
 29 28  1  0  0  0  0
 30 31  1  0  0  0  0
 31 33  1  0  0  0  0
 31 34  1  0  0  0  0
 33 35  1  0  0  0  0
 34 32  1  0  0  0  0
 35 32  1  0  0  0  0
 36 34  1  0  0  0  0
 36 37  1  0  0  0  0
 38 36  1  0  0  0  0
 39 38  1  0  0  0  0
 40 39  1  0  0  0  0
 40 38  1  0  0  0  0
 41 39  1  0  0  0  0
 41 42  1  0  0  0  0
 42 43  1  0  0  0  0
M  END
>  <MODEL>
7

>  <REMARK>
 VINA RESULT:      -7.3      2.493      4.963
  Name = 
  9 active torsions:
  status: ('A' for Active; 'I' for Inactive)
    1  A    between atoms: C_1  and  C_35
    2  A    between atoms: C_2  and  C_6
    3  A    between atoms: C_2  and  C_13
    4  A    between atoms: C_3  and  N_4
    5  A    between atoms: C_3  and  C_12
    6  A    between atoms: C_11  and  C_14
    7  A    between atoms: C_14  and  C_22
    8  A    between atoms: C_26  and  C_29
    9  A    between atoms: C_29  and  C_36
                            x       y       z     vdW  Elec       q    Type
                         _______ _______ _______ _____ _____    ______ ____

>  <TORSDO>
F 9

$$$$
=
 OpenBabel10272414383D

 43 50  0  0  1  0  0  0  0  0999 V2000
  189.4410  176.8930  139.4270 C   0  0  0  0  0  0  0  0  0  0  0  0
  192.7560  174.2920  136.8320 C   0  0  1  0  0  3  0  0  0  0  0  0
  190.2610  175.8870  136.3750 O   0  0  0  0  0  0  0  0  0  0  0  0
  187.7260  176.7670  137.6270 C   0  0  2  0  0  3  0  0  0  0  0  0
  193.4790  176.5380  137.6650 C   0  0  0  0  0  2  0  0  0  0  0  0
  191.7780  173.7800  135.7610 C   0  0  1  0  0  3  0  0  0  0  0  0
  192.3050  172.6260  135.1830 O   0  0  0  0  0  1  0  0  0  0  0  0
  189.4750  174.6980  136.2450 C   0  0  1  0  0  3  0  0  0  0  0  0
  193.1880  175.6980  136.4370 C   0  0  2  0  0  3  0  0  0  0  0  0
  190.3910  173.4720  136.3210 C   0  0  0  0  0  2  0  0  0  0  0  0
  187.3370  175.4640  137.2400 O   0  0  0  0  0  0  0  0  0  0  0  0
  188.4360  174.5900  137.3810 C   0  0  0  0  0  2  0  0  0  0  0  0
  191.0120  176.1000  137.5320 C   0  0  0  0  0  0  0  0  0  0  0  0
  190.3570  176.5570  138.5570 C   0  0  0  0  0  0  0  0  0  0  0  0
  188.0970  176.8330  139.0160 O   0  0  0  0  0  0  0  0  0  0  0  0
  192.3770  175.5010  137.7050 C   0  0  1  0  0  0  0  0  0  0  0  0
  191.7220  177.1530  142.3640 C   0  0  0  0  0  3  0  0  0  0  0  0
  189.8820  177.6640  143.8680 N   0  0  0  0  0  0  0  0  0  0  0  0
  191.7300  176.4880  144.6070 F   0  0  0  0  0  0  0  0  0  0  0  0
  188.7790  177.6100  141.6710 C   0  0  0  0  0  3  0  0  0  0  0  0
  191.2040  177.3770  141.1610 C   0  0  0  0  0  3  0  0  0  0  0  0
  189.7680  177.2830  140.8150 C   0  0  0  0  0  0  0  0  0  0  0  0
  190.9030  176.6880  143.5200 C   0  0  2  0  0  3  0  0  0  0  0  0
  188.9230  178.0380  143.0770 C   0  0  0  0  0  3  0  0  0  0  0  0
  186.6170  177.7900  137.3480 C   0  0  2  0  0  3  0  0  0  0  0  0
  187.0770  178.8380  136.3470 C   0  0  0  0  0  1  0  0  0  0  0  0
  186.2340  178.5060  138.6370 C   0  0  2  0  0  3  0  0  0  0  0  0
  184.8130  178.1540  139.0490 C   0  0  2  0  0  3  0  0  0  0  0  0
  185.0980  179.4780  138.3720 C   0  0  0  0  0  2  0  0  0  0  0  0
  184.6760  178.3540  140.5480 C   0  0  0  0  0  2  0  0  0  0  0  0
  183.4200  177.7790  141.0100 N   0  0  0  0  0  0  0  0  0  0  0  0
  181.3100  178.9060  141.3900 C   0  0  0  0  0  2  0  0  0  0  0  0
  182.5670  177.6060  139.8450 C   0  0  0  0  0  2  0  0  0  0  0  0
  182.7640  178.7880  141.8320 C   0  0  1  0  0  3  0  0  0  0  0  0
  181.1560  177.8900  140.2880 C   0  0  0  0  0  2  0  0  0  0  0  0
  182.9020  178.4330  143.3120 C   0  0  2  0  0  3  0  0  0  0  0  0
  181.7540  178.7880  144.0330 O   0  0  0  0  0  1  0  0  0  0  0  0
  184.1990  179.0220  143.8820 C   0  0  1  0  0  3  0  0  0  0  0  0
  184.7190  178.2760  145.0990 C   0  0  1  0  0  3  0  0  0  0  0  0
  185.3390  178.0380  143.7350 C   0  0  0  0  0  2  0  0  0  0  0  0
  185.6070  179.2090  145.8950 C   0  0  0  0  0  2  0  0  0  0  0  0
  186.1750  178.4790  147.0960 C   0  0  0  0  0  2  0  0  0  0  0  0
  187.5060  177.8620  146.7230 C   0  0  0  0  0  1  0  0  0  0  0  0
  1 22  1  0  0  0  0
  2 16  1  0  0  0  0
  3 13  1  0  0  0  0
  4 15  1  0  0  0  0
  5 16  1  0  0  0  0
  6 10  1  0  0  0  0
  6  2  1  0  0  0  0
  7  6  1  0  0  0  0
  8 10  1  0  0  0  0
  8  3  1  0  0  0  0
  8 12  1  0  0  0  0
  9  2  1  0  0  0  0
  9  5  1  0  0  0  0
  9 16  1  0  0  0  0
 11 12  1  0  0  0  0
 11  4  1  0  0  0  0
 13 16  1  0  0  0  0
 13 14  2  0  0  0  0
 14  1  2  0  0  0  0
 15  1  1  0  0  0  0
 17 23  1  0  0  0  0
 20 24  1  0  0  0  0
 21 17  2  0  0  0  0
 22 21  1  0  0  0  0
 22 20  2  0  0  0  0
 23 18  1  0  0  0  0
 23 19  1  0  0  0  0
 24 18  2  0  0  0  0
 25  4  1  0  0  0  0
 25 27  1  0  0  0  0
 26 25  1  0  0  0  0
 27 28  1  0  0  0  0
 28 30  1  0  0  0  0
 29 27  1  0  0  0  0
 29 28  1  0  0  0  0
 30 31  1  0  0  0  0
 31 34  1  0  0  0  0
 32 34  1  0  0  0  0
 33 35  1  0  0  0  0
 33 31  1  0  0  0  0
 34 36  1  0  0  0  0
 35 32  1  0  0  0  0
 36 38  1  0  0  0  0
 36 37  1  0  0  0  0
 38 39  1  0  0  0  0
 39 41  1  0  0  0  0
 40 38  1  0  0  0  0
 40 39  1  0  0  0  0
 41 42  1  0  0  0  0
 43 42  1  0  0  0  0
M  END
>  <MODEL>
8

>  <REMARK>
 VINA RESULT:      -7.3      4.075      8.488
  Name = 
  9 active torsions:
  status: ('A' for Active; 'I' for Inactive)
    1  A    between atoms: C_1  and  C_35
    2  A    between atoms: C_2  and  C_6
    3  A    between atoms: C_2  and  C_13
    4  A    between atoms: C_3  and  N_4
    5  A    between atoms: C_3  and  C_12
    6  A    between atoms: C_11  and  C_14
    7  A    between atoms: C_14  and  C_22
    8  A    between atoms: C_26  and  C_29
    9  A    between atoms: C_29  and  C_36
                            x       y       z     vdW  Elec       q    Type
                         _______ _______ _______ _____ _____    ______ ____

>  <TORSDO>
F 9

$$$$
=
 OpenBabel10272414383D

 43 50  0  0  1  0  0  0  0  0999 V2000
  184.4370  174.3970  136.5000 C   0  0  0  0  0  0  0  0  0  0  0  0
  189.2980  174.1150  135.6220 C   0  0  1  0  0  3  0  0  0  0  0  0
  187.3770  175.7340  137.2530 O   0  0  0  0  0  0  0  0  0  0  0  0
  184.5880  176.7240  137.3730 C   0  0  2  0  0  3  0  0  0  0  0  0
  188.3050  172.3360  137.0740 C   0  0  0  0  0  2  0  0  0  0  0  0
  189.5920  175.6180  135.7700 C   0  0  1  0  0  3  0  0  0  0  0  0
  190.7710  175.9170  135.0900 O   0  0  0  0  0  1  0  0  0  0  0  0
  187.4420  176.8220  136.3250 C   0  0  1  0  0  3  0  0  0  0  0  0
  189.2690  173.5060  137.0170 C   0  0  2  0  0  3  0  0  0  0  0  0
  188.4650  176.4990  135.2320 C   0  0  0  0  0  2  0  0  0  0  0  0
  185.1210  177.6810  136.4790 O   0  0  0  0  0  0  0  0  0  0  0  0
  186.0760  177.0590  135.6470 C   0  0  0  0  0  2  0  0  0  0  0  0
  187.0040  174.4650  136.8100 C   0  0  0  0  0  0  0  0  0  0  0  0
  185.7280  174.2680  136.6630 C   0  0  0  0  0  0  0  0  0  0  0  0
  183.8800  175.6750  136.6870 O   0  0  0  0  0  0  0  0  0  0  0  0
  187.9960  173.5250  136.1900 C   0  0  1  0  0  0  0  0  0  0  0  0
  183.3100  170.8460  136.6250 C   0  0  0  0  0  3  0  0  0  0  0  0
  182.0280  171.0820  134.5740 N   0  0  0  0  0  0  0  0  0  0  0  0
  183.0280  169.0720  135.1270 F   0  0  0  0  0  0  0  0  0  0  0  0
  182.8150  173.3760  134.9790 C   0  0  0  0  0  3  0  0  0  0  0  0
  183.5210  172.1040  136.9990 C   0  0  0  0  0  3  0  0  0  0  0  0
  183.5710  173.2710  136.0910 C   0  0  0  0  0  0  0  0  0  0  0  0
  183.1770  170.4420  135.1960 C   0  0  2  0  0  3  0  0  0  0  0  0
  181.8860  172.3640  134.4370 C   0  0  0  0  0  3  0  0  0  0  0  0
  183.6580  177.3750  138.4040 C   0  0  2  0  0  3  0  0  0  0  0  0
  182.6200  178.2570  137.7280 C   0  0  0  0  0  1  0  0  0  0  0  0
  184.4680  178.2470  139.3570 C   0  0  2  0  0  3  0  0  0  0  0  0
  183.8970  178.1820  140.7650 C   0  0  2  0  0  3  0  0  0  0  0  0
  183.6050  179.3790  139.8840 C   0  0  0  0  0  2  0  0  0  0  0  0
  184.9980  178.5210  141.7540 C   0  0  0  0  0  2  0  0  0  0  0  0
  184.6200  178.0710  143.0870 N   0  0  0  0  0  0  0  0  0  0  0  0
  184.9110  179.2300  145.1940 C   0  0  0  0  0  2  0  0  0  0  0  0
  183.3800  178.7470  143.4380 C   0  0  0  0  0  2  0  0  0  0  0  0
  185.6240  178.5820  144.0120 C   0  0  1  0  0  3  0  0  0  0  0  0
  183.4430  179.0380  144.9140 C   0  0  0  0  0  2  0  0  0  0  0  0
  186.5690  177.4600  144.4370 C   0  0  2  0  0  3  0  0  0  0  0  0
  186.5680  177.2900  145.8280 O   0  0  0  0  0  1  0  0  0  0  0  0
  187.9630  177.6820  143.8390 C   0  0  1  0  0  3  0  0  0  0  0  0
  189.0040  176.6970  144.3450 C   0  0  1  0  0  3  0  0  0  0  0  0
  188.3680  176.5050  142.9800 C   0  0  0  0  0  2  0  0  0  0  0  0
  190.3760  177.3120  144.1730 C   0  0  0  0  0  2  0  0  0  0  0  0
  191.1390  177.2410  145.4820 C   0  0  0  0  0  2  0  0  0  0  0  0
  190.1770  176.9150  146.6030 C   0  0  0  0  0  1  0  0  0  0  0  0
  1 14  2  0  0  0  0
  1 15  1  0  0  0  0
  2  6  1  0  0  0  0
  2 16  1  0  0  0  0
  2  9  1  0  0  0  0
  4 25  1  0  0  0  0
  7  6  1  0  0  0  0
  8  3  1  0  0  0  0
  9  5  1  0  0  0  0
 10  6  1  0  0  0  0
 10  8  1  0  0  0  0
 11  4  1  0  0  0  0
 12  8  1  0  0  0  0
 12 11  1  0  0  0  0
 13  3  1  0  0  0  0
 14 13  2  0  0  0  0
 15  4  1  0  0  0  0
 16 13  1  0  0  0  0
 16  9  1  0  0  0  0
 16  5  1  0  0  0  0
 17 21  2  0  0  0  0
 18 23  1  0  0  0  0
 19 23  1  0  0  0  0
 20 22  2  0  0  0  0
 22  1  1  0  0  0  0
 22 21  1  0  0  0  0
 23 17  1  0  0  0  0
 24 18  2  0  0  0  0
 24 20  1  0  0  0  0
 25 27  1  0  0  0  0
 26 25  1  0  0  0  0
 27 29  1  0  0  0  0
 27 28  1  0  0  0  0
 28 30  1  0  0  0  0
 29 28  1  0  0  0  0
 30 31  1  0  0  0  0
 31 33  1  0  0  0  0
 31 34  1  0  0  0  0
 33 35  1  0  0  0  0
 34 36  1  0  0  0  0
 34 32  1  0  0  0  0
 35 32  1  0  0  0  0
 36 37  1  0  0  0  0
 38 39  1  0  0  0  0
 38 36  1  0  0  0  0
 40 38  1  0  0  0  0
 40 39  1  0  0  0  0
 41 39  1  0  0  0  0
 41 42  1  0  0  0  0
 42 43  1  0  0  0  0
M  END
>  <MODEL>
9

>  <REMARK>
 VINA RESULT:      -7.1      3.924      6.535
  Name = 
  9 active torsions:
  status: ('A' for Active; 'I' for Inactive)
    1  A    between atoms: C_1  and  C_35
    2  A    between atoms: C_2  and  C_6
    3  A    between atoms: C_2  and  C_13
    4  A    between atoms: C_3  and  N_4
    5  A    between atoms: C_3  and  C_12
    6  A    between atoms: C_11  and  C_14
    7  A    between atoms: C_14  and  C_22
    8  A    between atoms: C_26  and  C_29
    9  A    between atoms: C_29  and  C_36
                            x       y       z     vdW  Elec       q    Type
                         _______ _______ _______ _____ _____    ______ ____

>  <TORSDO>
F 9

$$$$
