=
 OpenBabel10272400423D

 25 29  0  0  1  0  0  0  0  0999 V2000
  187.0660  177.5890  145.0720 C   0  0  0  0  0  0  0  0  0  0  0  0
  188.2830  177.1250  144.5750 C   0  0  0  0  0  0  0  0  0  0  0  0
  188.0250  177.9410  147.2450 C   0  0  0  0  0  3  0  0  0  0  0  0
  185.7250  177.6750  144.4380 C   0  0  1  0  0  3  0  0  0  0  0  0
  183.5130  179.4890  144.0980 C   0  0  0  0  0  3  0  0  0  0  0  0
  189.2220  177.4980  146.7630 N   0  0  0  0  0  0  0  0  0  0  0  0
  184.9480  178.2700  145.5840 C   0  0  0  0  0  0  0  0  0  0  0  0
  183.6910  178.9760  145.3230 C   0  0  0  0  0  3  0  0  0  0  0  0
  190.6600  176.6330  144.9910 N   0  0  0  0  0  0  0  0  0  0  0  0
  191.8470  176.7500  145.8210 C   0  0  0  0  0  1  0  0  0  0  0  0
  188.4160  176.6250  143.1650 C   0  0  0  0  0  2  0  0  0  0  0  0
  184.5780  179.3840  143.0640 C   0  0  0  0  0  3  0  0  0  0  0  0
  186.9350  177.9670  146.3820 C   0  0  0  0  0  0  0  0  0  0  0  0
  185.6260  178.4260  146.6800 N   0  0  0  0  0  0  0  0  0  0  0  0
  190.7920  176.0410  143.6620 C   0  0  0  0  0  2  0  0  0  0  0  0
  185.6460  178.5890  143.2420 C   0  0  0  0  0  3  0  0  0  0  0  0
  189.8610  176.7430  142.6770 C   0  0  1  0  0  3  0  0  0  0  0  0
  189.3790  177.0800  145.4660 C   0  0  0  0  0  0  0  0  0  0  0  0
  189.9880  176.1320  141.3630 N   0  0  0  0  0  2  0  0  0  0  0  0
  189.3660  178.2170  140.3640 O   0  0  0  0  0  0  0  0  0  0  0  0
  189.4130  177.3620  139.2390 C   0  0  2  0  0  0  0  0  0  0  0  0
  188.2770  176.5780  139.1510 F   0  0  0  0  0  0  0  0  0  0  0  0
  190.3110  177.1740  140.3930 C   0  0  2  0  0  0  0  0  0  0  0  0
  189.9200  178.0880  138.0070 C   0  0  0  0  0  1  0  0  0  0  0  0
  191.6300  177.6280  140.3200 O   0  0  0  0  0  1  0  0  0  0  0  0
  1 13  1  0  0  0  0
  2  1  2  0  0  0  0
  2 18  1  0  0  0  0
  4 16  1  6  0  0  0
  4  1  1  0  0  0  0
  4  7  1  0  0  0  0
  5  8  2  0  0  0  0
  6  3  1  0  0  0  0
  7 14  2  0  0  0  0
  8  7  1  0  0  0  0
  9 18  1  0  0  0  0
  9 10  1  0  0  0  0
 11  2  1  0  0  0  0
 12 16  2  0  0  0  0
 12  5  1  0  0  0  0
 13 14  1  0  0  0  0
 13  3  2  0  0  0  0
 15  9  1  0  0  0  0
 17 19  1  6  0  0  0
 17 11  1  0  0  0  0
 17 15  1  0  0  0  0
 18  6  2  0  0  0  0
 20 23  1  0  0  0  0
 21 24  1  6  0  0  0
 21 20  1  0  0  0  0
 21 23  1  0  0  0  0
 22 21  1  0  0  0  0
 23 25  1  6  0  0  0
 23 19  1  0  0  0  0
M  END
>  <MODEL>
1

>  <REMARK>
 VINA RESULT:      -9.4      0.000      0.000
  Name = 
  2 active torsions:
  status: ('A' for Active; 'I' for Inactive)
    1  A    between atoms: N_6  and  C_15
    2  A    between atoms: N_6  and  C_23
                            x       y       z     vdW  Elec       q    Type
                         _______ _______ _______ _____ _____    ______ ____

>  <TORSDO>
F 2

$$$$
=
 OpenBabel10272400423D

 25 29  0  0  1  0  0  0  0  0999 V2000
  188.7300  177.6710  144.8830 C   0  0  0  0  0  0  0  0  0  0  0  0
  188.1650  177.9440  143.6380 C   0  0  0  0  0  0  0  0  0  0  0  0
  186.5580  177.5100  145.8950 C   0  0  0  0  0  3  0  0  0  0  0  0
  190.1490  177.6360  145.3210 C   0  0  1  0  0  3  0  0  0  0  0  0
  191.9960  176.0210  146.8310 C   0  0  0  0  0  3  0  0  0  0  0  0
  185.9970  177.7670  144.6780 N   0  0  0  0  0  0  0  0  0  0  0  0
  189.9510  177.2740  146.7700 C   0  0  0  0  0  0  0  0  0  0  0  0
  191.0510  176.6680  147.5260 C   0  0  0  0  0  3  0  0  0  0  0  0
  186.1260  178.2490  142.2900 N   0  0  0  0  0  0  0  0  0  0  0  0
  184.6880  178.1230  142.1300 C   0  0  0  0  0  1  0  0  0  0  0  0
  189.0150  178.2420  142.4370 C   0  0  0  0  0  2  0  0  0  0  0  0
  191.8970  175.8860  145.3520 C   0  0  0  0  0  3  0  0  0  0  0  0
  187.9450  177.4800  145.9900 C   0  0  0  0  0  0  0  0  0  0  0  0
  188.7120  177.1950  147.1490 N   0  0  0  0  0  0  0  0  0  0  0  0
  186.9260  178.6480  141.1330 C   0  0  0  0  0  2  0  0  0  0  0  0
  190.9960  176.5880  144.6460 C   0  0  0  0  0  3  0  0  0  0  0  0
  188.2670  177.9200  141.1440 C   0  0  1  0  0  3  0  0  0  0  0  0
  186.7540  177.9950  143.5580 C   0  0  0  0  0  0  0  0  0  0  0  0
  189.0600  178.3400  139.9980 N   0  0  0  0  0  2  0  0  0  0  0  0
  190.1290  176.2050  140.1760 O   0  0  0  0  0  0  0  0  0  0  0  0
  191.0030  176.8910  139.3020 C   0  0  2  0  0  0  0  0  0  0  0  0
  191.8320  177.7580  139.9910 F   0  0  0  0  0  0  0  0  0  0  0  0
  189.5510  177.1510  139.3080 C   0  0  2  0  0  0  0  0  0  0  0  0
  191.5920  175.9620  138.2580 C   0  0  0  0  0  1  0  0  0  0  0  0
  188.7440  176.5720  138.3270 O   0  0  0  0  0  1  0  0  0  0  0  0
  1  4  1  0  0  0  0
  1 13  1  0  0  0  0
  2  1  2  0  0  0  0
  3 13  2  0  0  0  0
  4 16  1  6  0  0  0
  4  7  1  0  0  0  0
  5  8  2  0  0  0  0
  6  3  1  0  0  0  0
  7 14  2  0  0  0  0
  7  8  1  0  0  0  0
  9 18  1  0  0  0  0
 10  9  1  0  0  0  0
 11  2  1  0  0  0  0
 12  5  1  0  0  0  0
 13 14  1  0  0  0  0
 15 17  1  0  0  0  0
 15  9  1  0  0  0  0
 16 12  2  0  0  0  0
 17 19  1  6  0  0  0
 17 11  1  0  0  0  0
 18  2  1  0  0  0  0
 18  6  2  0  0  0  0
 21 24  1  6  0  0  0
 21 23  1  0  0  0  0
 21 22  1  0  0  0  0
 21 20  1  0  0  0  0
 23 25  1  6  0  0  0
 23 19  1  0  0  0  0
 23 20  1  0  0  0  0
M  END
>  <MODEL>
2

>  <REMARK>
 VINA RESULT:      -9.4      2.007      4.665
  Name = 
  2 active torsions:
  status: ('A' for Active; 'I' for Inactive)
    1  A    between atoms: N_6  and  C_15
    2  A    between atoms: N_6  and  C_23
                            x       y       z     vdW  Elec       q    Type
                         _______ _______ _______ _____ _____    ______ ____

>  <TORSDO>
F 2

$$$$
=
 OpenBabel10272400423D

 25 29  0  0  1  0  0  0  0  0999 V2000
  185.7240  178.0200  144.4290 C   0  0  0  0  0  0  0  0  0  0  0  0
  186.8950  177.7460  145.1340 C   0  0  0  0  0  0  0  0  0  0  0  0
  184.6430  178.8120  146.4220 C   0  0  0  0  0  3  0  0  0  0  0  0
  185.3590  177.7640  143.0110 C   0  0  1  0  0  3  0  0  0  0  0  0
  184.1600  179.0550  140.7330 C   0  0  0  0  0  3  0  0  0  0  0  0
  185.7900  178.5570  147.1170 N   0  0  0  0  0  0  0  0  0  0  0  0
  183.9620  178.3290  143.0110 C   0  0  0  0  0  0  0  0  0  0  0  0
  183.3430  178.7390  141.7470 C   0  0  0  0  0  3  0  0  0  0  0  0
  188.0980  177.7830  147.2830 N   0  0  0  0  0  0  0  0  0  0  0  0
  188.2070  178.2300  148.6610 C   0  0  0  0  0  1  0  0  0  0  0  0
  188.0840  177.1160  144.4690 C   0  0  0  0  0  2  0  0  0  0  0  0
  185.6370  179.0370  140.9080 C   0  0  0  0  0  3  0  0  0  0  0  0
  184.6170  178.5200  145.0630 C   0  0  0  0  0  0  0  0  0  0  0  0
  183.5420  178.7470  144.1660 N   0  0  0  0  0  0  0  0  0  0  0  0
  189.2270  177.0730  146.6870 C   0  0  0  0  0  2  0  0  0  0  0  0
  186.2030  178.4940  141.9980 C   0  0  0  0  0  3  0  0  0  0  0  0
  189.3740  177.4550  145.2170 C   0  0  1  0  0  3  0  0  0  0  0  0
  186.9040  178.0250  146.5200 C   0  0  0  0  0  0  0  0  0  0  0  0
  190.4890  176.7260  144.6310 N   0  0  0  0  0  2  0  0  0  0  0  0
  190.1150  178.0020  142.6390 O   0  0  0  0  0  0  0  0  0  0  0  0
  191.0260  177.0210  142.1850 C   0  0  2  0  0  0  0  0  0  0  0  0
  190.3950  175.8130  141.9520 F   0  0  0  0  0  0  0  0  0  0  0  0
  191.0690  177.5380  143.5650 C   0  0  2  0  0  0  0  0  0  0  0  0
  191.9790  177.5820  141.1460 C   0  0  0  0  0  1  0  0  0  0  0  0
  192.0140  178.5080  143.9090 O   0  0  0  0  0  1  0  0  0  0  0  0
  1 13  2  0  0  0  0
  1  2  1  0  0  0  0
  2 18  2  0  0  0  0
  3  6  2  0  0  0  0
  4 16  1  6  0  0  0
  4  7  1  0  0  0  0
  4  1  1  0  0  0  0
  5 12  1  0  0  0  0
  5  8  2  0  0  0  0
  7 14  2  0  0  0  0
  8  7  1  0  0  0  0
  9 10  1  0  0  0  0
 11  2  1  0  0  0  0
 11 17  1  0  0  0  0
 12 16  2  0  0  0  0
 13  3  1  0  0  0  0
 14 13  1  0  0  0  0
 15  9  1  0  0  0  0
 17 19  1  6  0  0  0
 17 15  1  0  0  0  0
 18  6  1  0  0  0  0
 18  9  1  0  0  0  0
 20 23  1  0  0  0  0
 21 24  1  6  0  0  0
 21 20  1  0  0  0  0
 21 23  1  0  0  0  0
 22 21  1  0  0  0  0
 23 25  1  1  0  0  0
 23 19  1  0  0  0  0
M  END
>  <MODEL>
3

>  <REMARK>
 VINA RESULT:      -9.2      1.889      3.089
  Name = 
  2 active torsions:
  status: ('A' for Active; 'I' for Inactive)
    1  A    between atoms: N_6  and  C_15
    2  A    between atoms: N_6  and  C_23
                            x       y       z     vdW  Elec       q    Type
                         _______ _______ _______ _____ _____    ______ ____

>  <TORSDO>
F 2

$$$$
=
 OpenBabel10272400423D

 25 29  0  0  1  0  0  0  0  0999 V2000
  187.7780  177.5820  144.4210 C   0  0  0  0  0  0  0  0  0  0  0  0
  188.6110  177.3830  143.3210 C   0  0  0  0  0  0  0  0  0  0  0  0
  189.6690  177.9330  145.8590 C   0  0  0  0  0  3  0  0  0  0  0  0
  186.3020  177.4740  144.5560 C   0  0  1  0  0  3  0  0  0  0  0  0
  184.0380  178.8830  145.6450 C   0  0  0  0  0  3  0  0  0  0  0  0
  190.4910  177.7490  144.7850 N   0  0  0  0  0  0  0  0  0  0  0  0
  186.1620  177.8310  146.0140 C   0  0  0  0  0  0  0  0  0  0  0  0
  184.8770  178.3180  146.5230 C   0  0  0  0  0  3  0  0  0  0  0  0
  190.9030  177.2950  142.4240 N   0  0  0  0  0  0  0  0  0  0  0  0
  192.3250  177.5600  142.5640 C   0  0  0  0  0  1  0  0  0  0  0  0
  188.0590  177.0240  141.9710 C   0  0  0  0  0  2  0  0  0  0  0  0
  184.4250  179.0500  144.2180 C   0  0  0  0  0  3  0  0  0  0  0  0
  188.2960  177.8290  145.6650 C   0  0  0  0  0  0  0  0  0  0  0  0
  187.2830  178.0220  146.6390 N   0  0  0  0  0  0  0  0  0  0  0  0
  190.4010  176.8400  141.1290 C   0  0  0  0  0  2  0  0  0  0  0  0
  185.5160  178.4480  143.7160 C   0  0  0  0  0  3  0  0  0  0  0  0
  189.0230  177.4370  140.8590 C   0  0  1  0  0  3  0  0  0  0  0  0
  190.0060  177.4680  143.5330 C   0  0  0  0  0  0  0  0  0  0  0  0
  188.5270  176.9610  139.5760 N   0  0  0  0  0  2  0  0  0  0  0  0
  186.8550  178.5050  138.8320 O   0  0  0  0  0  0  0  0  0  0  0  0
  187.2770  177.9290  137.6120 C   0  0  2  0  0  0  0  0  0  0  0  0
  186.7130  176.6810  137.4190 F   0  0  0  0  0  0  0  0  0  0  0  0
  188.2050  178.1150  138.7420 C   0  0  2  0  0  0  0  0  0  0  0  0
  187.2610  178.9410  136.4820 C   0  0  0  0  0  1  0  0  0  0  0  0
  189.0870  179.1980  138.7370 O   0  0  0  0  0  1  0  0  0  0  0  0
  1  4  1  0  0  0  0
  1 13  1  0  0  0  0
  2 18  1  0  0  0  0
  2  1  2  0  0  0  0
  4 16  1  6  0  0  0
  4  7  1  0  0  0  0
  5  8  2  0  0  0  0
  6  3  1  0  0  0  0
  7  8  1  0  0  0  0
  7 14  2  0  0  0  0
  9 10  1  0  0  0  0
  9 18  1  0  0  0  0
 11  2  1  0  0  0  0
 12  5  1  0  0  0  0
 13  3  2  0  0  0  0
 13 14  1  0  0  0  0
 15  9  1  0  0  0  0
 16 12  2  0  0  0  0
 17 19  1  6  0  0  0
 17 15  1  0  0  0  0
 17 11  1  0  0  0  0
 18  6  2  0  0  0  0
 21 24  1  6  0  0  0
 21 23  1  0  0  0  0
 21 20  1  0  0  0  0
 22 21  1  0  0  0  0
 23 25  1  6  0  0  0
 23 20  1  0  0  0  0
 23 19  1  0  0  0  0
M  END
>  <MODEL>
4

>  <REMARK>
 VINA RESULT:      -9.1      1.671      2.210
  Name = 
  2 active torsions:
  status: ('A' for Active; 'I' for Inactive)
    1  A    between atoms: N_6  and  C_15
    2  A    between atoms: N_6  and  C_23
                            x       y       z     vdW  Elec       q    Type
                         _______ _______ _______ _____ _____    ______ ____

>  <TORSDO>
F 2

$$$$
=
 OpenBabel10272400423D

 25 29  0  0  1  0  0  0  0  0999 V2000
  188.7110  177.6530  144.8900 C   0  0  0  0  0  0  0  0  0  0  0  0
  188.1350  177.9750  143.6620 C   0  0  0  0  0  0  0  0  0  0  0  0
  186.5490  177.4730  145.9190 C   0  0  0  0  0  3  0  0  0  0  0  0
  190.1350  177.5920  145.3110 C   0  0  1  0  0  3  0  0  0  0  0  0
  191.9830  175.9100  146.7430 C   0  0  0  0  0  3  0  0  0  0  0  0
  185.9770  177.7780  144.7170 N   0  0  0  0  0  0  0  0  0  0  0  0
  189.9480  177.1800  146.7490 C   0  0  0  0  0  0  0  0  0  0  0  0
  191.0510  176.5380  147.4710 C   0  0  0  0  0  3  0  0  0  0  0  0
  186.0860  178.3430  142.3460 N   0  0  0  0  0  0  0  0  0  0  0  0
  184.6450  178.2340  142.1970 C   0  0  0  0  0  1  0  0  0  0  0  0
  188.9760  178.3090  142.4630 C   0  0  0  0  0  2  0  0  0  0  0  0
  191.8680  175.8280  145.2620 C   0  0  0  0  0  3  0  0  0  0  0  0
  187.9360  177.4290  145.9970 C   0  0  0  0  0  0  0  0  0  0  0  0
  188.7130  177.0970  147.1370 N   0  0  0  0  0  0  0  0  0  0  0  0
  186.8770  178.7770  141.1960 C   0  0  0  0  0  2  0  0  0  0  0  0
  190.9660  176.5610  144.5910 C   0  0  0  0  0  3  0  0  0  0  0  0
  188.2120  178.0380  141.1660 C   0  0  1  0  0  3  0  0  0  0  0  0
  186.7250  178.0400  143.5970 C   0  0  0  0  0  0  0  0  0  0  0  0
  188.9970  178.4930  140.0280 N   0  0  0  0  0  2  0  0  0  0  0  0
  189.7310  177.7080  137.8880 O   0  0  0  0  0  0  0  0  0  0  0  0
  188.4510  177.1170  137.9880 C   0  0  2  0  0  0  0  0  0  0  0  0
  187.4490  178.0270  137.7030 F   0  0  0  0  0  0  0  0  0  0  0  0
  189.2920  177.3450  139.1760 C   0  0  2  0  0  0  0  0  0  0  0  0
  188.4190  175.7420  137.3460 C   0  0  0  0  0  1  0  0  0  0  0  0
  190.0170  176.2830  139.7210 O   0  0  0  0  0  1  0  0  0  0  0  0
  1  4  1  0  0  0  0
  1 13  1  0  0  0  0
  2  1  2  0  0  0  0
  3 13  2  0  0  0  0
  4 16  1  6  0  0  0
  4  7  1  0  0  0  0
  5  8  2  0  0  0  0
  6  3  1  0  0  0  0
  7 14  2  0  0  0  0
  7  8  1  0  0  0  0
  9 18  1  0  0  0  0
 10  9  1  0  0  0  0
 11  2  1  0  0  0  0
 12  5  1  0  0  0  0
 13 14  1  0  0  0  0
 15  9  1  0  0  0  0
 16 12  2  0  0  0  0
 17 19  1  6  0  0  0
 17 15  1  0  0  0  0
 17 11  1  0  0  0  0
 18  2  1  0  0  0  0
 18  6  2  0  0  0  0
 20 21  1  0  0  0  0
 20 23  1  0  0  0  0
 21 24  1  6  0  0  0
 21 23  1  0  0  0  0
 22 21  1  0  0  0  0
 23 25  1  1  0  0  0
 23 19  1  0  0  0  0
M  END
>  <MODEL>
5

>  <REMARK>
 VINA RESULT:      -9.0      1.904      4.611
  Name = 
  2 active torsions:
  status: ('A' for Active; 'I' for Inactive)
    1  A    between atoms: N_6  and  C_15
    2  A    between atoms: N_6  and  C_23
                            x       y       z     vdW  Elec       q    Type
                         _______ _______ _______ _____ _____    ______ ____

>  <TORSDO>
F 2

$$$$
=
 OpenBabel10272400423D

 25 29  0  0  1  0  0  0  0  0999 V2000
  184.3060  178.8700  143.3720 C   0  0  0  0  0  0  0  0  0  0  0  0
  184.0650  178.9270  142.0000 C   0  0  0  0  0  0  0  0  0  0  0  0
  181.9520  178.7880  143.8390 C   0  0  0  0  0  3  0  0  0  0  0  0
  185.5750  178.9570  144.1410 C   0  0  1  0  0  3  0  0  0  0  0  0
  186.9900  177.6630  146.2900 C   0  0  0  0  0  3  0  0  0  0  0  0
  181.7080  178.8330  142.4970 N   0  0  0  0  0  0  0  0  0  0  0  0
  185.0260  178.8160  145.5370 C   0  0  0  0  0  0  0  0  0  0  0  0
  185.9050  178.3750  146.6240 C   0  0  0  0  0  3  0  0  0  0  0  0
  182.4210  178.9450  140.1660 N   0  0  0  0  0  0  0  0  0  0  0  0
  181.0650  178.7430  139.6840 C   0  0  0  0  0  1  0  0  0  0  0  0
  185.1850  179.0670  141.0100 C   0  0  0  0  0  2  0  0  0  0  0  0
  187.2580  177.2980  144.8730 C   0  0  0  0  0  3  0  0  0  0  0  0
  183.2730  178.8250  144.2710 C   0  0  0  0  0  0  0  0  0  0  0  0
  183.7320  178.7510  145.6110 N   0  0  0  0  0  0  0  0  0  0  0  0
  183.4810  179.1890  139.1900 C   0  0  0  0  0  2  0  0  0  0  0  0
  186.5590  177.8480  143.8670 C   0  0  0  0  0  3  0  0  0  0  0  0
  184.7770  178.5210  139.6410 C   0  0  1  0  0  3  0  0  0  0  0  0
  182.7170  178.9130  141.5720 C   0  0  0  0  0  0  0  0  0  0  0  0
  185.8280  178.7880  138.6710 N   0  0  0  0  0  2  0  0  0  0  0  0
  187.1510  177.0710  137.6530 O   0  0  0  0  0  0  0  0  0  0  0  0
  186.7320  177.8170  136.5270 C   0  0  2  0  0  0  0  0  0  0  0  0
  187.4800  178.9710  136.3780 F   0  0  0  0  0  0  0  0  0  0  0  0
  185.8820  177.6790  137.7240 C   0  0  2  0  0  0  0  0  0  0  0  0
  186.4850  176.9230  135.3260 C   0  0  0  0  0  1  0  0  0  0  0  0
  184.8340  176.7560  137.7210 O   0  0  0  0  0  1  0  0  0  0  0  0
  1  4  1  0  0  0  0
  1 13  1  0  0  0  0
  2  1  2  0  0  0  0
  3 13  2  0  0  0  0
  4 16  1  6  0  0  0
  4  7  1  0  0  0  0
  5  8  2  0  0  0  0
  6  3  1  0  0  0  0
  7 14  2  0  0  0  0
  7  8  1  0  0  0  0
  9 18  1  0  0  0  0
 10  9  1  0  0  0  0
 11  2  1  0  0  0  0
 12  5  1  0  0  0  0
 13 14  1  0  0  0  0
 15 17  1  0  0  0  0
 15  9  1  0  0  0  0
 16 12  2  0  0  0  0
 17 19  1  6  0  0  0
 17 11  1  0  0  0  0
 18  2  1  0  0  0  0
 18  6  2  0  0  0  0
 20 23  1  0  0  0  0
 21 24  1  6  0  0  0
 21 20  1  0  0  0  0
 21 23  1  0  0  0  0
 22 21  1  0  0  0  0
 23 25  1  6  0  0  0
 23 19  1  0  0  0  0
M  END
>  <MODEL>
6

>  <REMARK>
 VINA RESULT:      -8.6      3.466      5.898
  Name = 
  2 active torsions:
  status: ('A' for Active; 'I' for Inactive)
    1  A    between atoms: N_6  and  C_15
    2  A    between atoms: N_6  and  C_23
                            x       y       z     vdW  Elec       q    Type
                         _______ _______ _______ _____ _____    ______ ____

>  <TORSDO>
F 2

$$$$
=
 OpenBabel10272400423D

 25 29  0  0  1  0  0  0  0  0999 V2000
  188.1930  177.5590  144.2540 C   0  0  0  0  0  0  0  0  0  0  0  0
  187.5930  177.8410  143.0280 C   0  0  0  0  0  0  0  0  0  0  0  0
  190.3730  177.5500  143.2480 C   0  0  0  0  0  3  0  0  0  0  0  0
  187.5980  177.2740  145.5860 C   0  0  1  0  0  3  0  0  0  0  0  0
  187.8650  177.9880  148.3630 C   0  0  0  0  0  3  0  0  0  0  0  0
  189.7940  177.8360  142.0450 N   0  0  0  0  0  0  0  0  0  0  0  0
  188.8620  177.0750  146.3820 C   0  0  0  0  0  0  0  0  0  0  0  0
  188.8360  177.2290  147.8400 C   0  0  0  0  0  3  0  0  0  0  0  0
  187.8650  178.2890  140.6220 N   0  0  0  0  0  0  0  0  0  0  0  0
  188.7110  178.6180  139.4860 C   0  0  0  0  0  1  0  0  0  0  0  0
  186.1010  177.9350  142.8860 C   0  0  0  0  0  2  0  0  0  0  0  0
  186.8850  178.6860  147.4880 C   0  0  0  0  0  3  0  0  0  0  0  0
  189.5490  177.3950  144.3570 C   0  0  0  0  0  0  0  0  0  0  0  0
  189.9590  177.1350  145.6900 N   0  0  0  0  0  0  0  0  0  0  0  0
  186.4160  178.2790  140.4340 C   0  0  0  0  0  2  0  0  0  0  0  0
  186.7970  178.4050  146.1770 C   0  0  0  0  0  3  0  0  0  0  0  0
  185.7190  178.8030  141.6860 C   0  0  1  0  0  3  0  0  0  0  0  0
  188.4370  177.9740  141.9020 C   0  0  0  0  0  0  0  0  0  0  0  0
  184.2770  178.7690  141.4940 N   0  0  0  0  0  2  0  0  0  0  0  0
  182.6160  178.9380  139.7770 O   0  0  0  0  0  0  0  0  0  0  0  0
  183.4320  177.8940  139.2850 C   0  0  2  0  0  0  0  0  0  0  0  0
  183.1600  176.6960  139.9210 F   0  0  0  0  0  0  0  0  0  0  0  0
  183.9890  179.0030  140.0820 C   0  0  2  0  0  0  0  0  0  0  0  0
  183.5370  177.9320  137.7720 C   0  0  0  0  0  1  0  0  0  0  0  0
  184.6430  180.0540  139.4350 O   0  0  0  0  0  1  0  0  0  0  0  0
  1 13  1  0  0  0  0
  1  4  1  0  0  0  0
  2  1  2  0  0  0  0
  3 13  2  0  0  0  0
  4 16  1  1  0  0  0
  4  7  1  0  0  0  0
  6  3  1  0  0  0  0
  7  8  1  0  0  0  0
  8  5  2  0  0  0  0
  9 18  1  0  0  0  0
 10  9  1  0  0  0  0
 11  2  1  0  0  0  0
 12  5  1  0  0  0  0
 13 14  1  0  0  0  0
 14  7  2  0  0  0  0
 15  9  1  0  0  0  0
 15 17  1  0  0  0  0
 16 12  2  0  0  0  0
 17 19  1  6  0  0  0
 17 11  1  0  0  0  0
 18  6  2  0  0  0  0
 18  2  1  0  0  0  0
 20 23  1  0  0  0  0
 21 24  1  6  0  0  0
 21 20  1  0  0  0  0
 21 22  1  0  0  0  0
 21 23  1  0  0  0  0
 23 25  1  6  0  0  0
 23 19  1  0  0  0  0
M  END
>  <MODEL>
7

>  <REMARK>
 VINA RESULT:      -8.4      3.035      5.159
  Name = 
  2 active torsions:
  status: ('A' for Active; 'I' for Inactive)
    1  A    between atoms: N_6  and  C_15
    2  A    between atoms: N_6  and  C_23
                            x       y       z     vdW  Elec       q    Type
                         _______ _______ _______ _____ _____    ______ ____

>  <TORSDO>
F 2

$$$$
=
 OpenBabel10272400423D

 25 29  0  0  1  0  0  0  0  0999 V2000
  184.4400  178.3250  143.0880 C   0  0  0  0  0  0  0  0  0  0  0  0
  185.5060  178.0660  143.9480 C   0  0  0  0  0  0  0  0  0  0  0  0
  183.1510  179.2670  144.8820 C   0  0  0  0  0  3  0  0  0  0  0  0
  184.2430  177.9910  141.6540 C   0  0  1  0  0  3  0  0  0  0  0  0
  183.3750  179.1690  139.1730 C   0  0  0  0  0  3  0  0  0  0  0  0
  184.1940  179.0260  145.7280 N   0  0  0  0  0  0  0  0  0  0  0  0
  182.8760  178.5910  141.4470 C   0  0  0  0  0  0  0  0  0  0  0  0
  182.4310  178.9370  140.0940 C   0  0  0  0  0  3  0  0  0  0  0  0
  186.4370  178.2050  146.2240 N   0  0  0  0  0  0  0  0  0  0  0  0
  186.3920  178.7340  147.5760 C   0  0  0  0  0  1  0  0  0  0  0  0
  186.7460  177.3640  143.4740 C   0  0  0  0  0  2  0  0  0  0  0  0
  184.8190  179.1230  139.5310 C   0  0  0  0  0  3  0  0  0  0  0  0
  183.2810  178.8920  143.5490 C   0  0  0  0  0  0  0  0  0  0  0  0
  182.3320  179.0900  142.5140 N   0  0  0  0  0  0  0  0  0  0  0  0
  187.6070  177.4300  145.8150 C   0  0  0  0  0  2  0  0  0  0  0  0
  185.2290  178.6340  140.7120 C   0  0  0  0  0  3  0  0  0  0  0  0
  187.9450  177.7160  144.3550 C   0  0  1  0  0  3  0  0  0  0  0  0
  185.3550  178.4300  145.3060 C   0  0  0  0  0  0  0  0  0  0  0  0
  189.0990  176.9240  143.9560 N   0  0  0  0  0  2  0  0  0  0  0  0
  189.4690  177.9240  141.8120 O   0  0  0  0  0  0  0  0  0  0  0  0
  190.6230  177.1220  141.9580 C   0  0  2  0  0  0  0  0  0  0  0  0
  190.3550  175.7930  141.6830 F   0  0  0  0  0  0  0  0  0  0  0  0
  189.9640  177.7480  143.1180 C   0  0  2  0  0  0  0  0  0  0  0  0
  191.8440  177.7830  141.3440 C   0  0  0  0  0  1  0  0  0  0  0  0
  190.4960  178.9190  143.6630 O   0  0  0  0  0  1  0  0  0  0  0  0
  1 13  2  0  0  0  0
  1  2  1  0  0  0  0
  2 18  2  0  0  0  0
  3  6  2  0  0  0  0
  4 16  1  6  0  0  0
  4  1  1  0  0  0  0
  5 12  1  0  0  0  0
  5  8  2  0  0  0  0
  7  4  1  0  0  0  0
  7 14  2  0  0  0  0
  8  7  1  0  0  0  0
  9 10  1  0  0  0  0
 11  2  1  0  0  0  0
 11 17  1  0  0  0  0
 12 16  2  0  0  0  0
 13  3  1  0  0  0  0
 14 13  1  0  0  0  0
 15  9  1  0  0  0  0
 17 19  1  6  0  0  0
 17 15  1  0  0  0  0
 18  6  1  0  0  0  0
 18  9  1  0  0  0  0
 20 21  1  0  0  0  0
 20 23  1  0  0  0  0
 21 24  1  6  0  0  0
 21 23  1  0  0  0  0
 22 21  1  0  0  0  0
 23 25  1  1  0  0  0
 23 19  1  0  0  0  0
M  END
>  <MODEL>
8

>  <REMARK>
 VINA RESULT:      -8.4      2.343      4.034
  Name = 
  2 active torsions:
  status: ('A' for Active; 'I' for Inactive)
    1  A    between atoms: N_6  and  C_15
    2  A    between atoms: N_6  and  C_23
                            x       y       z     vdW  Elec       q    Type
                         _______ _______ _______ _____ _____    ______ ____

>  <TORSDO>
F 2

$$$$
=
 OpenBabel10272400423D

 25 29  0  0  1  0  0  0  0  0999 V2000
  187.8220  177.8610  144.4180 C   0  0  0  0  0  0  0  0  0  0  0  0
  186.6480  178.2640  143.7810 C   0  0  0  0  0  0  0  0  0  0  0  0
  186.7040  177.7710  146.5410 C   0  0  0  0  0  3  0  0  0  0  0  0
  189.2040  177.6990  143.8980 C   0  0  1  0  0  3  0  0  0  0  0  0
  191.4170  175.8550  143.9380 C   0  0  0  0  0  3  0  0  0  0  0  0
  185.5490  178.1550  145.9240 N   0  0  0  0  0  0  0  0  0  0  0  0
  189.8900  177.2440  145.1600 C   0  0  0  0  0  0  0  0  0  0  0  0
  191.1560  176.5100  145.0770 C   0  0  0  0  0  3  0  0  0  0  0  0
  184.2520  178.8050  143.9620 N   0  0  0  0  0  0  0  0  0  0  0  0
  183.0070  178.7880  144.7110 C   0  0  0  0  0  1  0  0  0  0  0  0
  186.6220  178.5930  142.3170 C   0  0  0  0  0  2  0  0  0  0  0  0
  190.4300  175.8380  142.8240 C   0  0  0  0  0  3  0  0  0  0  0  0
  187.8540  177.6410  145.7700 C   0  0  0  0  0  0  0  0  0  0  0  0
  189.1330  177.2200  146.2140 N   0  0  0  0  0  0  0  0  0  0  0  0
  184.2220  179.2340  142.5650 C   0  0  0  0  0  2  0  0  0  0  0  0
  189.3600  176.6490  142.8280 C   0  0  0  0  0  3  0  0  0  0  0  0
  185.2160  178.4190  141.7420 C   0  0  1  0  0  3  0  0  0  0  0  0
  185.4910  178.4150  144.5790 C   0  0  0  0  0  0  0  0  0  0  0  0
  185.1900  178.8700  140.3580 N   0  0  0  0  0  2  0  0  0  0  0  0
  183.9870  178.4450  138.3310 O   0  0  0  0  0  0  0  0  0  0  0  0
  183.1390  179.3710  138.9800 C   0  0  2  0  0  0  0  0  0  0  0  0
  183.6060  180.6660  138.8460 F   0  0  0  0  0  0  0  0  0  0  0  0
  183.9530  178.4040  139.7380 C   0  0  2  0  0  0  0  0  0  0  0  0
  181.6760  179.0710  138.7120 C   0  0  0  0  0  1  0  0  0  0  0  0
  183.3570  177.2430  140.2370 O   0  0  0  0  0  1  0  0  0  0  0  0
  1 13  1  0  0  0  0
  2  1  2  0  0  0  0
  2 18  1  0  0  0  0
  4 16  1  6  0  0  0
  4  1  1  0  0  0  0
  4  7  1  0  0  0  0
  5  8  2  0  0  0  0
  6  3  1  0  0  0  0
  7 14  2  0  0  0  0
  8  7  1  0  0  0  0
  9 18  1  0  0  0  0
  9 10  1  0  0  0  0
 11  2  1  0  0  0  0
 12 16  2  0  0  0  0
 12  5  1  0  0  0  0
 13 14  1  0  0  0  0
 13  3  2  0  0  0  0
 15  9  1  0  0  0  0
 17 19  1  6  0  0  0
 17 11  1  0  0  0  0
 17 15  1  0  0  0  0
 18  6  2  0  0  0  0
 20 21  1  0  0  0  0
 20 23  1  0  0  0  0
 21 24  1  6  0  0  0
 21 23  1  0  0  0  0
 22 21  1  0  0  0  0
 23 25  1  1  0  0  0
 23 19  1  0  0  0  0
M  END
>  <MODEL>
9

>  <REMARK>
 VINA RESULT:      -8.3      2.999      5.800
  Name = 
  2 active torsions:
  status: ('A' for Active; 'I' for Inactive)
    1  A    between atoms: N_6  and  C_15
    2  A    between atoms: N_6  and  C_23
                            x       y       z     vdW  Elec       q    Type
                         _______ _______ _______ _____ _____    ______ ____

>  <TORSDO>
F 2

$$$$
