=
 OpenBabel10272413263D

 32 37  0  0  1  0  0  0  0  0999 V2000
  190.5640  176.4050  139.5480 C   0  0  1  0  0  3  0  0  0  0  0  0
  193.2800  173.7150  137.1910 F   0  0  0  0  0  0  0  0  0  0  0  0
  189.4300  178.0370  138.0320 C   0  0  1  0  0  3  0  0  0  0  0  0
  188.5810  178.6130  139.1790 C   0  0  1  0  0  3  0  0  0  0  0  0
  187.3620  178.6310  136.6480 C   0  0  2  0  0  3  0  0  0  0  0  0
  193.1720  174.7150  138.1030 C   0  0  0  0  0  3  0  0  0  0  0  0
  192.2790  176.9780  139.2440 S   0  0  0  0  0  0  0  0  0  0  0  0
  192.4710  175.8370  137.8900 C   0  0  0  0  0  0  0  0  0  0  0  0
  190.1210  175.8930  137.0080 C   0  0  2  0  0  3  0  0  0  0  0  0
  186.5830  177.8710  137.7120 C   0  0  0  0  0  2  0  0  0  0  0  0
  187.1030  178.1890  139.1180 C   0  0  0  0  0  2  0  0  0  0  0  0
  191.6090  176.1250  136.6880 C   0  0  2  0  0  3  0  0  0  0  0  0
  189.0640  176.6150  135.7070 S   0  0  0  0  0  0  0  0  0  0  0  0
  189.9860  177.1770  140.7250 C   0  0  0  0  0  0  0  0  0  0  0  0
  189.1440  178.2230  140.5270 C   0  0  0  0  0  3  0  0  0  0  0  0
  186.7710  178.4710  135.4080 F   0  0  0  0  0  0  0  0  0  0  0  0
  189.6750  176.5710  138.3010 C   0  0  1  0  0  3  0  0  0  0  0  0
  188.8310  178.1840  136.6280 C   0  0  2  0  0  3  0  0  0  0  0  0
  189.6640  178.5170  143.7080 C   0  0  0  0  0  2  0  0  0  0  0  0
  190.4190  176.8200  142.1460 C   0  0  1  0  0  0  0  0  0  0  0  0
  190.7620  175.4680  142.2310 O   0  0  0  0  0  1  0  0  0  0  0  0
  191.1690  178.6490  143.6040 C   0  0  0  0  0  2  0  0  0  0  0  0
  191.6280  177.6580  142.5430 C   0  0  0  0  0  2  0  0  0  0  0  0
  189.3610  177.1220  143.2100 C   0  0  2  0  0  3  0  0  0  0  0  0
  187.9140  176.9610  142.7470 C   0  0  0  0  0  2  0  0  0  0  0  0
  187.0590  177.2660  145.1160 C   0  0  0  0  0  3  0  0  0  0  0  0
  185.9660  178.3740  143.3510 N   0  0  0  0  0  0  0  0  0  0  0  0
  186.0850  177.8890  145.8920 C   0  0  0  0  0  3  0  0  0  0  0  0
  186.9700  177.5530  143.7370 C   0  0  0  0  0  0  0  0  0  0  0  0
  185.1940  178.7440  144.7690 S   0  0  0  0  0  0  0  0  0  0  0  0
  193.0780  176.0550  134.6710 C   0  0  0  0  0  2  0  0  0  0  0  0
  192.0760  175.5350  135.3790 C   0  0  0  0  0  3  0  0  0  0  0  0
  1  7  1  6  0  0  0
  1 14  1  0  0  0  0
  2  6  1  0  0  0  0
  3 17  1  0  0  0  0
  3  4  1  0  0  0  0
  4 15  1  0  0  0  0
  5 10  1  0  0  0  0
  8  6  2  0  0  0  0
  8  7  1  0  0  0  0
  9 17  1  0  0  0  0
 10 11  1  0  0  0  0
 11  4  1  0  0  0  0
 12  9  1  0  0  0  0
 12  8  1  0  0  0  0
 13 18  1  0  0  0  0
 13  9  1  0  0  0  0
 14 20  1  0  0  0  0
 15 14  2  0  0  0  0
 16  5  1  0  0  0  0
 17  1  1  0  0  0  0
 18  5  1  0  0  0  0
 18  3  1  0  0  0  0
 20 21  1  0  0  0  0
 20 23  1  0  0  0  0
 20 24  1  0  0  0  0
 22 19  1  0  0  0  0
 23 22  1  0  0  0  0
 24 19  1  0  0  0  0
 25 24  1  0  0  0  0
 25 29  1  0  0  0  0
 26 28  2  0  0  0  0
 27 29  2  0  0  0  0
 27 30  1  0  0  0  0
 29 26  1  0  0  0  0
 30 28  1  0  0  0  0
 31 32  2  0  0  0  0
 32 12  1  0  0  0  0
M  END
>  <MODEL>
1

>  <REMARK>
 VINA RESULT:      -7.9      0.000      0.000
  Name = 
  4 active torsions:
  status: ('A' for Active; 'I' for Inactive)
    1  A    between atoms: C_8  and  C_28
    2  A    between atoms: C_19  and  C_24
    3  A    between atoms: C_23  and  C_24
    4  A    between atoms: C_25  and  C_26
                            x       y       z     vdW  Elec       q    Type
                         _______ _______ _______ _____ _____    ______ ____

>  <TORSDO>
F 4

$$$$
=
 OpenBabel10272413263D

 32 37  0  0  1  0  0  0  0  0999 V2000
  189.5530  176.6670  140.2900 C   0  0  1  0  0  3  0  0  0  0  0  0
  191.2770  174.2270  136.9380 F   0  0  0  0  0  0  0  0  0  0  0  0
  187.9260  178.3410  139.3970 C   0  0  1  0  0  3  0  0  0  0  0  0
  187.5380  178.8160  140.8090 C   0  0  1  0  0  3  0  0  0  0  0  0
  185.4900  178.9360  138.8900 C   0  0  2  0  0  3  0  0  0  0  0  0
  191.4900  175.1660  137.8940 C   0  0  0  0  0  3  0  0  0  0  0  0
  191.0340  177.3220  139.4330 S   0  0  0  0  0  0  0  0  0  0  0  0
  190.7430  176.2710  138.0250 C   0  0  0  0  0  0  0  0  0  0  0  0
  188.2320  176.2900  138.0490 C   0  0  2  0  0  3  0  0  0  0  0  0
  185.1570  178.0850  140.1070 C   0  0  0  0  0  2  0  0  0  0  0  0
  186.1430  178.3400  141.2520 C   0  0  0  0  0  2  0  0  0  0  0  0
  189.5020  176.5970  137.2340 C   0  0  2  0  0  3  0  0  0  0  0  0
  186.7680  177.0460  137.2660 S   0  0  0  0  0  0  0  0  0  0  0  0
  189.4260  177.3450  141.6470 C   0  0  0  0  0  0  0  0  0  0  0  0
  188.5540  178.3680  141.8360 C   0  0  0  0  0  3  0  0  0  0  0  0
  184.4950  178.8280  137.9360 F   0  0  0  0  0  0  0  0  0  0  0  0
  188.2720  176.8730  139.4590 C   0  0  1  0  0  3  0  0  0  0  0  0
  186.8590  178.5480  138.3150 C   0  0  2  0  0  3  0  0  0  0  0  0
  190.1980  178.5070  144.6220 C   0  0  0  0  0  2  0  0  0  0  0  0
  190.3460  176.9220  142.7900 C   0  0  1  0  0  0  0  0  0  0  0  0
  190.7050  175.5780  142.6610 O   0  0  0  0  0  1  0  0  0  0  0  0
  191.5620  178.6870  143.9900 C   0  0  0  0  0  2  0  0  0  0  0  0
  191.6120  177.7700  142.7750 C   0  0  0  0  0  2  0  0  0  0  0  0
  189.7440  177.1340  144.1810 C   0  0  2  0  0  3  0  0  0  0  0  0
  188.2280  176.9580  144.2630 C   0  0  0  0  0  2  0  0  0  0  0  0
  186.5230  178.2430  145.6350 C   0  0  0  0  0  3  0  0  0  0  0  0
  188.3540  177.2420  146.7250 N   0  0  0  0  0  0  0  0  0  0  0  0
  186.1920  178.6550  146.9230 C   0  0  0  0  0  3  0  0  0  0  0  0
  187.7030  177.4710  145.5600 C   0  0  0  0  0  0  0  0  0  0  0  0
  187.4200  178.0140  147.8540 S   0  0  0  0  0  0  0  0  0  0  0  0
  189.7280  176.8950  134.7650 C   0  0  0  0  0  2  0  0  0  0  0  0
  189.4750  176.1030  135.8070 C   0  0  0  0  0  3  0  0  0  0  0  0
  1  7  1  6  0  0  0
  1 14  1  0  0  0  0
  2  6  1  0  0  0  0
  3 17  1  0  0  0  0
  3  4  1  0  0  0  0
  4 11  1  0  0  0  0
  4 15  1  0  0  0  0
  5 10  1  0  0  0  0
  6  8  2  0  0  0  0
  8  7  1  0  0  0  0
  9 17  1  0  0  0  0
 10 11  1  0  0  0  0
 12  8  1  0  0  0  0
 12  9  1  0  0  0  0
 13  9  1  0  0  0  0
 13 18  1  0  0  0  0
 14 15  2  0  0  0  0
 14 20  1  0  0  0  0
 16  5  1  0  0  0  0
 17  1  1  0  0  0  0
 18  5  1  0  0  0  0
 18  3  1  0  0  0  0
 20 24  1  0  0  0  0
 21 20  1  0  0  0  0
 22 19  1  0  0  0  0
 23 20  1  0  0  0  0
 23 22  1  0  0  0  0
 24 25  1  0  0  0  0
 24 19  1  0  0  0  0
 25 29  1  0  0  0  0
 26 28  2  0  0  0  0
 27 30  1  0  0  0  0
 28 30  1  0  0  0  0
 29 26  1  0  0  0  0
 29 27  2  0  0  0  0
 31 32  2  0  0  0  0
 32 12  1  0  0  0  0
M  END
>  <MODEL>
2

>  <REMARK>
 VINA RESULT:      -7.4      1.865      2.180
  Name = 
  4 active torsions:
  status: ('A' for Active; 'I' for Inactive)
    1  A    between atoms: C_8  and  C_28
    2  A    between atoms: C_19  and  C_24
    3  A    between atoms: C_23  and  C_24
    4  A    between atoms: C_25  and  C_26
                            x       y       z     vdW  Elec       q    Type
                         _______ _______ _______ _____ _____    ______ ____

>  <TORSDO>
F 4

$$$$
=
 OpenBabel10272413263D

 32 37  0  0  1  0  0  0  0  0999 V2000
  187.4980  177.6230  141.1390 C   0  0  1  0  0  3  0  0  0  0  0  0
  183.5280  177.7310  143.2360 F   0  0  0  0  0  0  0  0  0  0  0  0
  189.3420  178.1420  142.7440 C   0  0  1  0  0  3  0  0  0  0  0  0
  190.4270  177.8850  141.6840 C   0  0  1  0  0  3  0  0  0  0  0  0
  191.1490  177.2590  144.3250 C   0  0  2  0  0  3  0  0  0  0  0  0
  184.3580  178.3070  142.3290 C   0  0  0  0  0  3  0  0  0  0  0  0
  186.6410  179.2380  141.2590 S   0  0  0  0  0  0  0  0  0  0  0  0
  185.6240  178.6530  142.5990 C   0  0  0  0  0  0  0  0  0  0  0  0
  187.2950  177.1480  143.7160 C   0  0  2  0  0  3  0  0  0  0  0  0
  191.2540  176.0910  143.3550 C   0  0  0  0  0  2  0  0  0  0  0  0
  191.1930  176.5670  141.9000 C   0  0  0  0  0  2  0  0  0  0  0  0
  186.3640  178.3640  143.8800 C   0  0  2  0  0  3  0  0  0  0  0  0
  188.4680  177.0460  145.1100 S   0  0  0  0  0  0  0  0  0  0  0  0
  188.5250  177.6910  140.0180 C   0  0  0  0  0  0  0  0  0  0  0  0
  189.8410  177.8830  140.2890 C   0  0  0  0  0  3  0  0  0  0  0  0
  191.3820  176.8360  145.6210 F   0  0  0  0  0  0  0  0  0  0  0  0
  188.1700  177.2300  142.4680 C   0  0  1  0  0  3  0  0  0  0  0  0
  189.7820  177.9470  144.2000 C   0  0  2  0  0  3  0  0  0  0  0  0
  189.9720  177.6330  137.0680 C   0  0  0  0  0  2  0  0  0  0  0  0
  188.0610  177.6180  138.5650 C   0  0  1  0  0  0  0  0  0  0  0  0
  186.7410  177.1670  138.4910 O   0  0  0  0  0  1  0  0  0  0  0  0
  189.2750  178.9690  136.9100 C   0  0  0  0  0  2  0  0  0  0  0  0
  188.1420  179.0000  137.9280 C   0  0  0  0  0  2  0  0  0  0  0  0
  188.9310  176.7230  137.6800 C   0  0  2  0  0  3  0  0  0  0  0  0
  189.5460  175.5160  138.3880 C   0  0  0  0  0  2  0  0  0  0  0  0
  189.5640  174.0220  136.3380 C   0  0  0  0  0  3  0  0  0  0  0  0
  191.5610  174.3420  137.5410 N   0  0  0  0  0  0  0  0  0  0  0  0
  190.3660  173.2090  135.5410 C   0  0  0  0  0  3  0  0  0  0  0  0
  190.2440  174.6280  137.4160 C   0  0  0  0  0  0  0  0  0  0  0  0
  191.8630  173.3220  136.2710 S   0  0  0  0  0  0  0  0  0  0  0  0
  185.6980  179.2560  146.1150 C   0  0  0  0  0  2  0  0  0  0  0  0
  185.5330  178.3610  145.1410 C   0  0  0  0  0  3  0  0  0  0  0  0
  1 14  1  6  0  0  0
  1  7  1  0  0  0  0
  1 17  1  0  0  0  0
  3 18  1  0  0  0  0
  4 11  1  0  0  0  0
  4  3  1  0  0  0  0
  5 16  1  0  0  0  0
  6  8  2  0  0  0  0
  6  2  1  0  0  0  0
  7  8  1  0  0  0  0
  8 12  1  0  0  0  0
  9 12  1  0  0  0  0
  9 13  1  0  0  0  0
 10  5  1  0  0  0  0
 11 10  1  0  0  0  0
 12 32  1  0  0  0  0
 14 15  2  0  0  0  0
 15  4  1  0  0  0  0
 17  3  1  0  0  0  0
 17  9  1  0  0  0  0
 18  5  1  0  0  0  0
 18 13  1  0  0  0  0
 19 24  1  0  0  0  0
 20 14  1  0  0  0  0
 21 20  1  0  0  0  0
 22 19  1  0  0  0  0
 22 23  1  0  0  0  0
 23 20  1  0  0  0  0
 24 25  1  0  0  0  0
 24 20  1  0  0  0  0
 26 29  1  0  0  0  0
 28 30  1  0  0  0  0
 28 26  2  0  0  0  0
 29 27  2  0  0  0  0
 29 25  1  0  0  0  0
 30 27  1  0  0  0  0
 32 31  2  0  0  0  0
M  END
>  <MODEL>
3

>  <REMARK>
 VINA RESULT:      -6.9      3.533      8.144
  Name = 
  4 active torsions:
  status: ('A' for Active; 'I' for Inactive)
    1  A    between atoms: C_8  and  C_28
    2  A    between atoms: C_19  and  C_24
    3  A    between atoms: C_23  and  C_24
    4  A    between atoms: C_25  and  C_26
                            x       y       z     vdW  Elec       q    Type
                         _______ _______ _______ _____ _____    ______ ____

>  <TORSDO>
F 4

$$$$
=
 OpenBabel10272413263D

 32 37  0  0  1  0  0  0  0  0999 V2000
  188.8500  177.9660  142.3710 C   0  0  1  0  0  3  0  0  0  0  0  0
  191.9820  177.1860  145.4940 F   0  0  0  0  0  0  0  0  0  0  0  0
  186.5690  177.5620  143.3100 C   0  0  1  0  0  3  0  0  0  0  0  0
  185.8810  178.0380  142.0190 C   0  0  1  0  0  3  0  0  0  0  0  0
  184.4690  178.5400  144.3940 C   0  0  2  0  0  3  0  0  0  0  0  0
  191.4080  176.7940  144.3280 C   0  0  0  0  0  3  0  0  0  0  0  0
  189.4680  176.2500  142.5490 S   0  0  0  0  0  0  0  0  0  0  0  0
  190.0910  176.5930  144.1820 C   0  0  0  0  0  0  0  0  0  0  0  0
  188.3200  178.2060  144.9340 C   0  0  2  0  0  3  0  0  0  0  0  0
  184.7740  179.7850  143.5740 C   0  0  0  0  0  2  0  0  0  0  0  0
  185.2190  179.4220  142.1530 C   0  0  0  0  0  2  0  0  0  0  0  0
  189.0350  176.8720  145.2210 C   0  0  2  0  0  3  0  0  0  0  0  0
  186.8010  178.3460  145.9350 S   0  0  0  0  0  0  0  0  0  0  0  0
  188.2030  178.1190  141.0020 C   0  0  0  0  0  0  0  0  0  0  0  0
  186.8540  178.0750  140.8600 C   0  0  0  0  0  3  0  0  0  0  0  0
  183.9030  178.8860  145.6080 F   0  0  0  0  0  0  0  0  0  0  0  0
  187.8540  178.3350  143.4870 C   0  0  1  0  0  3  0  0  0  0  0  0
  185.7360  177.6960  144.5900 C   0  0  2  0  0  3  0  0  0  0  0  0
  189.5140  176.0570  138.8050 C   0  0  0  0  0  2  0  0  0  0  0  0
  189.0840  178.2460  139.7620 C   0  0  1  0  0  0  0  0  0  0  0  0
  189.0750  179.5590  139.2830 O   0  0  0  0  0  1  0  0  0  0  0  0
  190.8160  176.5380  139.4120 C   0  0  0  0  0  2  0  0  0  0  0  0
  190.5180  177.8610  140.1060 C   0  0  0  0  0  2  0  0  0  0  0  0
  188.6860  177.3080  138.6200 C   0  0  2  0  0  3  0  0  0  0  0  0
  187.1890  177.0160  138.5150 C   0  0  0  0  0  2  0  0  0  0  0  0
  187.3140  178.0430  136.1980 C   0  0  0  0  0  3  0  0  0  0  0  0
  185.6860  176.4010  136.6400 N   0  0  0  0  0  0  0  0  0  0  0  0
  186.7390  178.0380  134.9300 C   0  0  0  0  0  3  0  0  0  0  0  0
  186.7220  177.1380  137.1050 C   0  0  0  0  0  0  0  0  0  0  0  0
  185.5290  176.8960  135.0660 S   0  0  0  0  0  0  0  0  0  0  0  0
  189.5090  177.6690  147.5390 C   0  0  0  0  0  2  0  0  0  0  0  0
  189.4480  176.6690  146.6580 C   0  0  0  0  0  3  0  0  0  0  0  0
  1 14  1  6  0  0  0
  1  7  1  0  0  0  0
  1 17  1  0  0  0  0
  3 17  1  0  0  0  0
  3 18  1  0  0  0  0
  4 11  1  0  0  0  0
  4  3  1  0  0  0  0
  5 18  1  0  0  0  0
  5 16  1  0  0  0  0
  6  2  1  0  0  0  0
  7  8  1  0  0  0  0
  8  6  2  0  0  0  0
  8 12  1  0  0  0  0
  9 12  1  0  0  0  0
  9 13  1  0  0  0  0
 10  5  1  0  0  0  0
 11 10  1  0  0  0  0
 12 32  1  0  0  0  0
 15 14  2  0  0  0  0
 15  4  1  0  0  0  0
 17  9  1  0  0  0  0
 18 13  1  0  0  0  0
 19 22  1  0  0  0  0
 20 23  1  0  0  0  0
 20 14  1  0  0  0  0
 21 20  1  0  0  0  0
 22 23  1  0  0  0  0
 24 19  1  0  0  0  0
 24 20  1  0  0  0  0
 25 24  1  0  0  0  0
 26 29  1  0  0  0  0
 27 29  2  0  0  0  0
 28 30  1  0  0  0  0
 28 26  2  0  0  0  0
 29 25  1  0  0  0  0
 30 27  1  0  0  0  0
 32 31  2  0  0  0  0
M  END
>  <MODEL>
4

>  <REMARK>
 VINA RESULT:      -6.6      3.606      7.334
  Name = 
  4 active torsions:
  status: ('A' for Active; 'I' for Inactive)
    1  A    between atoms: C_8  and  C_28
    2  A    between atoms: C_19  and  C_24
    3  A    between atoms: C_23  and  C_24
    4  A    between atoms: C_25  and  C_26
                            x       y       z     vdW  Elec       q    Type
                         _______ _______ _______ _____ _____    ______ ____

>  <TORSDO>
F 4

$$$$
=
 OpenBabel10272413263D

 32 37  0  0  1  0  0  0  0  0999 V2000
  183.5550  177.1750  137.5620 C   0  0  1  0  0  3  0  0  0  0  0  0
  180.2680  174.4460  136.1780 F   0  0  0  0  0  0  0  0  0  0  0  0
  185.7870  176.1550  137.0880 C   0  0  1  0  0  3  0  0  0  0  0  0
  186.5370  177.4050  137.5820 C   0  0  1  0  0  3  0  0  0  0  0  0
  187.7980  175.9800  135.5160 C   0  0  2  0  0  3  0  0  0  0  0  0
  180.9170  175.0130  137.2270 C   0  0  0  0  0  3  0  0  0  0  0  0
  182.9680  175.8870  138.7270 S   0  0  0  0  0  0  0  0  0  0  0  0
  182.2450  174.9470  137.3980 C   0  0  0  0  0  0  0  0  0  0  0  0
  183.9310  175.4570  135.6090 C   0  0  2  0  0  3  0  0  0  0  0  0
  187.5110  177.4370  135.1850 C   0  0  0  0  0  2  0  0  0  0  0  0
  187.1570  178.2360  136.4440 C   0  0  0  0  0  2  0  0  0  0  0  0
  183.2330  174.3540  136.4270 C   0  0  2  0  0  3  0  0  0  0  0  0
  185.3870  174.7840  134.7380 S   0  0  0  0  0  0  0  0  0  0  0  0
  184.2760  178.2610  138.3480 C   0  0  0  0  0  0  0  0  0  0  0  0
  185.6320  178.3000  138.4000 C   0  0  0  0  0  3  0  0  0  0  0  0
  188.2850  175.3170  134.4040 F   0  0  0  0  0  0  0  0  0  0  0  0
  184.4760  176.5880  136.4760 C   0  0  1  0  0  3  0  0  0  0  0  0
  186.5420  175.2920  136.0700 C   0  0  2  0  0  3  0  0  0  0  0  0
  181.8800  178.1340  140.5930 C   0  0  0  0  0  2  0  0  0  0  0  0
  183.4640  179.2750  139.1510 C   0  0  1  0  0  0  0  0  0  0  0  0
  184.0970  180.5210  139.1540 O   0  0  0  0  0  1  0  0  0  0  0  0
  181.0780  178.8080  139.4990 C   0  0  0  0  0  2  0  0  0  0  0  0
  182.0790  179.4310  138.5350 C   0  0  0  0  0  2  0  0  0  0  0  0
  183.2080  178.8550  140.6000 C   0  0  2  0  0  3  0  0  0  0  0  0
  184.3240  178.0310  141.2420 C   0  0  0  0  0  2  0  0  0  0  0  0
  183.3860  178.8960  143.4350 C   0  0  0  0  0  3  0  0  0  0  0  0
  185.6200  178.1590  143.3540 N   0  0  0  0  0  0  0  0  0  0  0  0
  183.6910  179.1520  144.7690 C   0  0  0  0  0  3  0  0  0  0  0  0
  184.4550  178.3520  142.6910 C   0  0  0  0  0  0  0  0  0  0  0  0
  185.2860  178.6740  144.8920 S   0  0  0  0  0  0  0  0  0  0  0  0
  182.7760  171.9250  136.0730 C   0  0  0  0  0  2  0  0  0  0  0  0
  182.7430  173.1780  135.6170 C   0  0  0  0  0  3  0  0  0  0  0  0
  1 14  1  1  0  0  0
  1  7  1  0  0  0  0
  2  6  1  0  0  0  0
  3  4  1  0  0  0  0
  4 15  1  0  0  0  0
  5 18  1  0  0  0  0
  6  8  2  0  0  0  0
  8  7  1  0  0  0  0
  9 12  1  0  0  0  0
  9 17  1  0  0  0  0
 10  5  1  0  0  0  0
 10 11  1  0  0  0  0
 11  4  1  0  0  0  0
 12  8  1  0  0  0  0
 13  9  1  0  0  0  0
 13 18  1  0  0  0  0
 14 15  2  0  0  0  0
 14 20  1  0  0  0  0
 16  5  1  0  0  0  0
 17  3  1  0  0  0  0
 17  1  1  0  0  0  0
 18  3  1  0  0  0  0
 19 24  1  0  0  0  0
 20 21  1  0  0  0  0
 20 24  1  0  0  0  0
 22 19  1  0  0  0  0
 23 20  1  0  0  0  0
 23 22  1  0  0  0  0
 24 25  1  0  0  0  0
 25 29  1  0  0  0  0
 26 28  2  0  0  0  0
 27 30  1  0  0  0  0
 28 30  1  0  0  0  0
 29 27  2  0  0  0  0
 29 26  1  0  0  0  0
 32 31  2  0  0  0  0
 32 12  1  0  0  0  0
M  END
>  <MODEL>
5

>  <REMARK>
 VINA RESULT:      -6.6      4.600      7.123
  Name = 
  4 active torsions:
  status: ('A' for Active; 'I' for Inactive)
    1  A    between atoms: C_8  and  C_28
    2  A    between atoms: C_19  and  C_24
    3  A    between atoms: C_23  and  C_24
    4  A    between atoms: C_25  and  C_26
                            x       y       z     vdW  Elec       q    Type
                         _______ _______ _______ _____ _____    ______ ____

>  <TORSDO>
F 4

$$$$
=
 OpenBabel10272413263D

 32 37  0  0  1  0  0  0  0  0999 V2000
  187.5760  177.3900  142.0620 C   0  0  1  0  0  3  0  0  0  0  0  0
  185.5800  177.6680  138.0480 F   0  0  0  0  0  0  0  0  0  0  0  0
  186.3790  178.8200  143.7270 C   0  0  1  0  0  3  0  0  0  0  0  0
  187.2770  178.3420  144.8810 C   0  0  1  0  0  3  0  0  0  0  0  0
  184.6330  178.9750  145.5900 C   0  0  2  0  0  3  0  0  0  0  0  0
  186.6690  177.9570  138.8060 C   0  0  0  0  0  3  0  0  0  0  0  0
  188.0960  178.7450  140.9420 S   0  0  0  0  0  0  0  0  0  0  0  0
  186.6020  178.5920  139.9840 C   0  0  0  0  0  0  0  0  0  0  0  0
  185.0230  177.9760  141.8370 C   0  0  2  0  0  3  0  0  0  0  0  0
  185.0470  177.5500  145.9280 C   0  0  0  0  0  2  0  0  0  0  0  0
  186.5670  177.3760  145.8470 C   0  0  0  0  0  2  0  0  0  0  0  0
  185.3390  178.9770  140.7100 C   0  0  2  0  0  3  0  0  0  0  0  0
  183.7460  178.6490  142.9530 S   0  0  0  0  0  0  0  0  0  0  0  0
  188.6590  177.1700  143.1080 C   0  0  0  0  0  0  0  0  0  0  0  0
  188.5310  177.6750  144.3610 C   0  0  0  0  0  3  0  0  0  0  0  0
  183.2860  179.1600  145.8380 F   0  0  0  0  0  0  0  0  0  0  0  0
  186.2230  177.6910  142.7360 C   0  0  1  0  0  3  0  0  0  0  0  0
  184.9850  179.3110  144.1340 C   0  0  2  0  0  3  0  0  0  0  0  0
  191.6950  178.0280  142.1890 C   0  0  0  0  0  2  0  0  0  0  0  0
  189.9410  176.4360  142.7210 C   0  0  1  0  0  0  0  0  0  0  0  0
  189.8980  175.1080  143.1530 O   0  0  0  0  0  1  0  0  0  0  0  0
  191.2830  177.3700  140.8880 C   0  0  0  0  0  2  0  0  0  0  0  0
  190.1090  176.4540  141.2070 C   0  0  0  0  0  2  0  0  0  0  0  0
  191.2150  177.0840  143.2680 C   0  0  2  0  0  3  0  0  0  0  0  0
  191.0600  177.7710  144.6260 C   0  0  0  0  0  2  0  0  0  0  0  0
  192.0990  175.6160  145.4710 C   0  0  0  0  0  3  0  0  0  0  0  0
  191.4640  177.2690  147.0220 N   0  0  0  0  0  0  0  0  0  0  0  0
  192.4860  174.9240  146.6150 C   0  0  0  0  0  3  0  0  0  0  0  0
  191.5500  176.8910  145.7240 C   0  0  0  0  0  0  0  0  0  0  0  0
  192.0970  175.9800  147.8480 S   0  0  0  0  0  0  0  0  0  0  0  0
  183.0820  178.5720  139.7220 C   0  0  0  0  0  2  0  0  0  0  0  0
  184.1610  179.3460  139.8410 C   0  0  0  0  0  3  0  0  0  0  0  0
  1  7  1  6  0  0  0
  1 17  1  0  0  0  0
  1 14  1  0  0  0  0
  2  6  1  0  0  0  0
  3 18  1  0  0  0  0
  3  4  1  0  0  0  0
  4 11  1  0  0  0  0
  5 16  1  0  0  0  0
  5 10  1  0  0  0  0
  6  8  2  0  0  0  0
  8 12  1  0  0  0  0
  8  7  1  0  0  0  0
  9 17  1  0  0  0  0
  9 13  1  0  0  0  0
 11 10  1  0  0  0  0
 12  9  1  0  0  0  0
 13 18  1  0  0  0  0
 14 15  2  0  0  0  0
 15  4  1  0  0  0  0
 17  3  1  0  0  0  0
 18  5  1  0  0  0  0
 19 24  1  0  0  0  0
 20 14  1  0  0  0  0
 20 21  1  0  0  0  0
 20 24  1  0  0  0  0
 22 23  1  0  0  0  0
 22 19  1  0  0  0  0
 23 20  1  0  0  0  0
 24 25  1  0  0  0  0
 25 29  1  0  0  0  0
 26 29  1  0  0  0  0
 26 28  2  0  0  0  0
 27 30  1  0  0  0  0
 28 30  1  0  0  0  0
 29 27  2  0  0  0  0
 31 32  2  0  0  0  0
 32 12  1  0  0  0  0
M  END
>  <MODEL>
6

>  <REMARK>
 VINA RESULT:      -6.5      3.512      6.687
  Name = 
  4 active torsions:
  status: ('A' for Active; 'I' for Inactive)
    1  A    between atoms: C_8  and  C_28
    2  A    between atoms: C_19  and  C_24
    3  A    between atoms: C_23  and  C_24
    4  A    between atoms: C_25  and  C_26
                            x       y       z     vdW  Elec       q    Type
                         _______ _______ _______ _____ _____    ______ ____

>  <TORSDO>
F 4

$$$$
=
 OpenBabel10272413263D

 32 37  0  0  1  0  0  0  0  0999 V2000
  187.3430  177.7430  140.8720 C   0  0  1  0  0  3  0  0  0  0  0  0
  183.4740  177.7670  143.1520 F   0  0  0  0  0  0  0  0  0  0  0  0
  189.2660  178.1340  142.4210 C   0  0  1  0  0  3  0  0  0  0  0  0
  190.2970  177.9320  141.2980 C   0  0  1  0  0  3  0  0  0  0  0  0
  191.1280  177.1280  143.8580 C   0  0  2  0  0  3  0  0  0  0  0  0
  184.2710  178.3890  142.2470 C   0  0  0  0  0  3  0  0  0  0  0  0
  186.5180  179.3580  141.1350 S   0  0  0  0  0  0  0  0  0  0  0  0
  185.5530  178.7010  142.4800 C   0  0  0  0  0  0  0  0  0  0  0  0
  187.2490  177.1060  143.4200 C   0  0  2  0  0  3  0  0  0  0  0  0
  191.1710  176.0240  142.8120 C   0  0  0  0  0  2  0  0  0  0  0  0
  191.0520  176.5930  141.3940 C   0  0  0  0  0  2  0  0  0  0  0  0
  186.3460  178.3200  143.7050 C   0  0  2  0  0  3  0  0  0  0  0  0
  188.4820  176.8990  144.7500 S   0  0  0  0  0  0  0  0  0  0  0  0
  188.3200  177.8690  139.7120 C   0  0  0  0  0  0  0  0  0  0  0  0
  189.6490  178.0270  139.9340 C   0  0  0  0  0  3  0  0  0  0  0  0
  191.4120  176.6190  145.1120 F   0  0  0  0  0  0  0  0  0  0  0  0
  188.0680  177.2570  142.1420 C   0  0  1  0  0  3  0  0  0  0  0  0
  189.7680  177.8400  143.8400 C   0  0  2  0  0  3  0  0  0  0  0  0
  189.5610  177.3470  136.7150 C   0  0  0  0  0  2  0  0  0  0  0  0
  187.7890  177.8960  138.2800 C   0  0  1  0  0  0  0  0  0  0  0  0
  186.3940  177.8280  138.2700 O   0  0  0  0  0  1  0  0  0  0  0  0
  189.2540  178.8200  136.5370 C   0  0  0  0  0  2  0  0  0  0  0  0
  188.2210  179.1870  137.5940 C   0  0  0  0  0  2  0  0  0  0  0  0
  188.3380  176.7750  137.3950 C   0  0  2  0  0  3  0  0  0  0  0  0
  188.6260  175.4610  138.1200 C   0  0  0  0  0  2  0  0  0  0  0  0
  188.7710  173.2490  136.8860 C   0  0  0  0  0  3  0  0  0  0  0  0
  186.6650  174.2520  137.1990 N   0  0  0  0  0  0  0  0  0  0  0  0
  188.0260  172.2720  136.2310 C   0  0  0  0  0  3  0  0  0  0  0  0
  188.0020  174.3120  137.4060 C   0  0  0  0  0  0  0  0  0  0  0  0
  186.4610  172.8380  136.3610 S   0  0  0  0  0  0  0  0  0  0  0  0
  185.4620  179.2820  145.8330 C   0  0  0  0  0  2  0  0  0  0  0  0
  185.5730  178.2470  144.9990 C   0  0  0  0  0  3  0  0  0  0  0  0
  1 14  1  6  0  0  0
  1  7  1  0  0  0  0
  1 17  1  0  0  0  0
  3 18  1  0  0  0  0
  4 11  1  0  0  0  0
  4  3  1  0  0  0  0
  5 16  1  0  0  0  0
  6  8  2  0  0  0  0
  6  2  1  0  0  0  0
  7  8  1  0  0  0  0
  8 12  1  0  0  0  0
  9 12  1  0  0  0  0
  9 13  1  0  0  0  0
 10  5  1  0  0  0  0
 11 10  1  0  0  0  0
 12 32  1  0  0  0  0
 14 15  2  0  0  0  0
 15  4  1  0  0  0  0
 17  3  1  0  0  0  0
 17  9  1  0  0  0  0
 18  5  1  0  0  0  0
 18 13  1  0  0  0  0
 19 24  1  0  0  0  0
 20 14  1  0  0  0  0
 21 20  1  0  0  0  0
 22 19  1  0  0  0  0
 22 23  1  0  0  0  0
 23 20  1  0  0  0  0
 24 25  1  0  0  0  0
 24 20  1  0  0  0  0
 26 29  1  0  0  0  0
 27 29  2  0  0  0  0
 28 30  1  0  0  0  0
 28 26  2  0  0  0  0
 29 25  1  0  0  0  0
 30 27  1  0  0  0  0
 32 31  2  0  0  0  0
M  END
>  <MODEL>
7

>  <REMARK>
 VINA RESULT:      -6.3      3.610      7.906
  Name = 
  4 active torsions:
  status: ('A' for Active; 'I' for Inactive)
    1  A    between atoms: C_8  and  C_28
    2  A    between atoms: C_19  and  C_24
    3  A    between atoms: C_23  and  C_24
    4  A    between atoms: C_25  and  C_26
                            x       y       z     vdW  Elec       q    Type
                         _______ _______ _______ _____ _____    ______ ____

>  <TORSDO>
F 4

$$$$
=
 OpenBabel10272413263D

 32 37  0  0  1  0  0  0  0  0999 V2000
  188.1700  177.3230  139.8440 C   0  0  1  0  0  3  0  0  0  0  0  0
  186.7250  176.9100  144.0750 F   0  0  0  0  0  0  0  0  0  0  0  0
  190.6050  177.8850  139.8100 C   0  0  1  0  0  3  0  0  0  0  0  0
  190.6690  177.8090  138.2740 C   0  0  1  0  0  3  0  0  0  0  0  0
  193.0170  177.0540  139.6180 C   0  0  2  0  0  3  0  0  0  0  0  0
  186.6960  177.6260  142.9230 C   0  0  0  0  0  3  0  0  0  0  0  0
  187.6070  178.8400  140.7050 S   0  0  0  0  0  0  0  0  0  0  0  0
  187.7970  178.0640  142.2970 C   0  0  0  0  0  0  0  0  0  0  0  0
  189.8000  176.6380  141.7880 C   0  0  2  0  0  3  0  0  0  0  0  0
  192.4440  175.9770  138.7080 C   0  0  0  0  0  2  0  0  0  0  0  0
  191.3930  176.5550  137.7530 C   0  0  0  0  0  2  0  0  0  0  0  0
  189.2190  177.7480  142.6850 C   0  0  2  0  0  3  0  0  0  0  0  0
  191.6110  176.5380  141.9860 S   0  0  0  0  0  0  0  0  0  0  0  0
  188.1450  177.5690  138.3420 C   0  0  0  0  0  0  0  0  0  0  0  0
  189.2850  177.8600  137.6650 C   0  0  0  0  0  3  0  0  0  0  0  0
  194.0820  176.5570  140.3460 F   0  0  0  0  0  0  0  0  0  0  0  0
  189.5770  176.8940  140.3010 C   0  0  1  0  0  3  0  0  0  0  0  0
  191.9280  177.6220  140.5390 C   0  0  2  0  0  3  0  0  0  0  0  0
  187.0850  176.6160  135.3820 C   0  0  0  0  0  2  0  0  0  0  0  0
  186.8110  177.5640  137.5990 C   0  0  1  0  0  0  0  0  0  0  0  0
  185.7490  177.7180  138.4940 O   0  0  0  0  0  1  0  0  0  0  0  0
  186.8370  178.1000  135.2020 C   0  0  0  0  0  2  0  0  0  0  0  0
  186.7750  178.7110  136.5960 C   0  0  0  0  0  2  0  0  0  0  0  0
  186.5690  176.3030  136.7680 C   0  0  2  0  0  3  0  0  0  0  0  0
  187.1710  175.0220  137.3460 C   0  0  0  0  0  2  0  0  0  0  0  0
  185.1360  173.5540  137.7200 C   0  0  0  0  0  3  0  0  0  0  0  0
  186.6750  172.9730  136.0380 N   0  0  0  0  0  0  0  0  0  0  0  0
  184.4820  172.4020  137.2920 C   0  0  0  0  0  3  0  0  0  0  0  0
  186.3240  173.8410  137.0150 C   0  0  0  0  0  0  0  0  0  0  0  0
  185.4650  171.8420  136.0640 S   0  0  0  0  0  0  0  0  0  0  0  0
  190.2300  178.4230  144.8650 C   0  0  0  0  0  2  0  0  0  0  0  0
  189.4810  177.5740  144.1610 C   0  0  0  0  0  3  0  0  0  0  0  0
  1 14  1  6  0  0  0
  1 17  1  0  0  0  0
  1  7  1  0  0  0  0
  3 17  1  0  0  0  0
  3 18  1  0  0  0  0
  4  3  1  0  0  0  0
  5 16  1  0  0  0  0
  5 18  1  0  0  0  0
  6  2  1  0  0  0  0
  7  8  1  0  0  0  0
  8 12  1  0  0  0  0
  8  6  2  0  0  0  0
  9 13  1  0  0  0  0
  9 12  1  0  0  0  0
 10  5  1  0  0  0  0
 11  4  1  0  0  0  0
 11 10  1  0  0  0  0
 12 32  1  0  0  0  0
 15  4  1  0  0  0  0
 15 14  2  0  0  0  0
 17  9  1  0  0  0  0
 18 13  1  0  0  0  0
 19 24  1  0  0  0  0
 20 14  1  0  0  0  0
 20 21  1  0  0  0  0
 22 19  1  0  0  0  0
 22 23  1  0  0  0  0
 23 20  1  0  0  0  0
 24 25  1  0  0  0  0
 24 20  1  0  0  0  0
 27 30  1  0  0  0  0
 27 29  2  0  0  0  0
 28 26  2  0  0  0  0
 29 25  1  0  0  0  0
 29 26  1  0  0  0  0
 30 28  1  0  0  0  0
 32 31  2  0  0  0  0
M  END
>  <MODEL>
8

>  <REMARK>
 VINA RESULT:      -6.2      3.571      7.189
  Name = 
  4 active torsions:
  status: ('A' for Active; 'I' for Inactive)
    1  A    between atoms: C_8  and  C_28
    2  A    between atoms: C_19  and  C_24
    3  A    between atoms: C_23  and  C_24
    4  A    between atoms: C_25  and  C_26
                            x       y       z     vdW  Elec       q    Type
                         _______ _______ _______ _____ _____    ______ ____

>  <TORSDO>
F 4

$$$$
=
 OpenBabel10272413263D

 32 37  0  0  1  0  0  0  0  0999 V2000
  188.7410  177.4900  140.4990 C   0  0  1  0  0  3  0  0  0  0  0  0
  184.2750  177.9460  140.5940 F   0  0  0  0  0  0  0  0  0  0  0  0
  189.7140  178.0080  142.7430 C   0  0  1  0  0  3  0  0  0  0  0  0
  191.1340  177.6260  142.2890 C   0  0  1  0  0  3  0  0  0  0  0  0
  190.5570  177.1290  144.9930 C   0  0  2  0  0  3  0  0  0  0  0  0
  185.4620  178.4170  140.1360 C   0  0  0  0  0  3  0  0  0  0  0  0
  188.0460  179.1540  140.1720 S   0  0  0  0  0  0  0  0  0  0  0  0
  186.4990  178.7100  140.9340 C   0  0  0  0  0  0  0  0  0  0  0  0
  187.3800  177.1900  142.7270 C   0  0  2  0  0  3  0  0  0  0  0  0
  190.9930  175.8990  144.2100 C   0  0  0  0  0  2  0  0  0  0  0  0
  191.6210  176.2850  142.8670 C   0  0  0  0  0  2  0  0  0  0  0  0
  186.5690  178.4620  142.4190 C   0  0  2  0  0  3  0  0  0  0  0  0
  187.8000  177.1120  144.5010 S   0  0  0  0  0  0  0  0  0  0  0  0
  190.1610  177.4320  139.9550 C   0  0  0  0  0  0  0  0  0  0  0  0
  191.2300  177.5690  140.7800 C   0  0  0  0  0  3  0  0  0  0  0  0
  190.1580  176.7760  146.2680 F   0  0  0  0  0  0  0  0  0  0  0  0
  188.7210  177.1460  142.0010 C   0  0  1  0  0  3  0  0  0  0  0  0
  189.4460  177.8810  144.2470 C   0  0  2  0  0  3  0  0  0  0  0  0
  190.4330  174.9500  137.8180 C   0  0  0  0  0  2  0  0  0  0  0  0
  190.3870  177.2930  138.4510 C   0  0  1  0  0  0  0  0  0  0  0  0
  190.1090  178.4970  137.7980 O   0  0  0  0  0  1  0  0  0  0  0  0
  191.8470  175.4750  137.6780 C   0  0  0  0  0  2  0  0  0  0  0  0
  191.8370  176.9130  138.1790 C   0  0  0  0  0  2  0  0  0  0  0  0
  189.5580  176.1830  137.8000 C   0  0  2  0  0  3  0  0  0  0  0  0
  188.1870  175.9440  138.4320 C   0  0  0  0  0  2  0  0  0  0  0  0
  186.7250  177.3400  136.8990 C   0  0  0  0  0  3  0  0  0  0  0  0
  186.4130  175.0080  136.9710 N   0  0  0  0  0  0  0  0  0  0  0  0
  185.6820  177.2860  135.9780 C   0  0  0  0  0  3  0  0  0  0  0  0
  187.1040  176.0840  137.4180 C   0  0  0  0  0  0  0  0  0  0  0  0
  185.3250  175.6570  135.9040 S   0  0  0  0  0  0  0  0  0  0  0  0
  184.8570  179.7270  143.7240 C   0  0  0  0  0  2  0  0  0  0  0  0
  185.2670  178.5830  143.1740 C   0  0  0  0  0  3  0  0  0  0  0  0
  1 14  1  1  0  0  0
  1 17  1  0  0  0  0
  3 18  1  0  0  0  0
  4  3  1  0  0  0  0
  4 11  1  0  0  0  0
  5 16  1  0  0  0  0
  6  2  1  0  0  0  0
  6  8  2  0  0  0  0
  7  1  1  0  0  0  0
  7  8  1  0  0  0  0
  8 12  1  0  0  0  0
  9 13  1  0  0  0  0
 10  5  1  0  0  0  0
 11 10  1  0  0  0  0
 12  9  1  0  0  0  0
 12 32  1  0  0  0  0
 14 15  2  0  0  0  0
 15  4  1  0  0  0  0
 17  9  1  0  0  0  0
 17  3  1  0  0  0  0
 18 13  1  0  0  0  0
 18  5  1  0  0  0  0
 20 14  1  0  0  0  0
 21 20  1  0  0  0  0
 22 19  1  0  0  0  0
 22 23  1  0  0  0  0
 23 20  1  0  0  0  0
 24 19  1  0  0  0  0
 24 25  1  0  0  0  0
 24 20  1  0  0  0  0
 26 29  1  0  0  0  0
 27 29  2  0  0  0  0
 28 26  2  0  0  0  0
 29 25  1  0  0  0  0
 30 28  1  0  0  0  0
 30 27  1  0  0  0  0
 32 31  2  0  0  0  0
M  END
>  <MODEL>
9

>  <REMARK>
 VINA RESULT:      -6.1      3.203      7.344
  Name = 
  4 active torsions:
  status: ('A' for Active; 'I' for Inactive)
    1  A    between atoms: C_8  and  C_28
    2  A    between atoms: C_19  and  C_24
    3  A    between atoms: C_23  and  C_24
    4  A    between atoms: C_25  and  C_26
                            x       y       z     vdW  Elec       q    Type
                         _______ _______ _______ _____ _____    ______ ____

>  <TORSDO>
F 4

$$$$
