=
 OpenBabel10272402063D

 32 35  0  0  1  0  0  0  0  0999 V2000
  189.2770  175.8410  136.7200 C   0  0  1  0  0  3  0  0  0  0  0  0
  189.5290  176.3360  139.2110 C   0  0  2  0  0  3  0  0  0  0  0  0
  189.7000  176.9670  135.7710 C   0  0  0  0  0  2  0  0  0  0  0  0
  188.5830  176.3520  137.9990 C   0  0  1  0  0  3  0  0  0  0  0  0
  188.8060  176.8450  140.4690 C   0  0  1  0  0  3  0  0  0  0  0  0
  191.6730  177.2560  140.1680 C   0  0  0  0  0  0  0  0  0  0  0  0
  191.1710  177.2060  141.4260 C   0  0  0  0  0  0  0  0  0  0  0  0
  187.8950  177.6990  137.8640 C   0  0  0  0  0  0  0  0  0  0  0  0
  189.7440  176.7750  141.6830 C   0  0  0  0  0  2  0  0  0  0  0  0
  187.2430  178.2760  139.0800 C   0  0  0  0  0  2  0  0  0  0  0  0
  187.9100  178.4100  136.7290 C   0  0  0  0  0  3  0  0  0  0  0  0
  190.7800  177.1830  138.9650 C   0  0  0  0  0  2  0  0  0  0  0  0
  188.2170  178.2580  140.2640 C   0  0  1  0  0  3  0  0  0  0  0  0
  188.5190  177.8800  135.4640 C   0  0  0  0  0  2  0  0  0  0  0  0
  193.4330  177.3770  139.8210 S   0  0  0  0  0  1  0  0  0  0  0  0
  187.5130  178.7760  141.5170 C   0  0  0  0  0  2  0  0  0  0  0  0
  186.1810  179.0940  141.2490 O   0  0  0  0  0  1  0  0  0  0  0  0
  188.9560  174.1220  135.1240 O   0  0  0  0  0  0  0  0  0  0  0  0
  188.4660  174.7850  136.0270 C   0  0  0  0  0  0  0  0  0  0  0  0
  184.2650  174.3050  137.3980 S   0  0  0  0  0  0  0  0  0  0  0  0
  185.4810  172.9770  137.7540 C   0  0  0  0  0  2  0  0  0  0  0  0
  184.6210  174.4180  135.6080 C   0  0  1  0  0  3  0  0  0  0  0  0
  187.0490  174.5470  136.4560 C   0  0  1  0  0  3  0  0  0  0  0  0
  186.0670  174.8500  135.3170 C   0  0  0  0  0  2  0  0  0  0  0  0
  186.8530  173.1600  137.0910 C   0  0  2  0  0  3  0  0  0  0  0  0
  187.1190  172.0130  136.1250 C   0  0  0  0  0  1  0  0  0  0  0  0
  184.2640  173.1180  134.8900 C   0  0  0  0  0  2  0  0  0  0  0  0
  182.9180  171.4370  135.9120 F   0  0  0  0  0  0  0  0  0  0  0  0
  182.8640  172.6570  135.2630 C   0  0  0  0  0  2  0  0  0  0  0  0
  191.9370  177.4600  142.5760 O   0  0  0  0  0  0  0  0  0  0  0  0
  191.4000  177.7640  143.8580 C   0  0  0  0  0  2  0  0  0  0  0  0
  191.2160  179.2630  144.0080 C   0  0  0  0  0  1  0  0  0  0  0  0
  1 19  1  6  0  0  0
  1  4  1  0  0  0  0
  2 12  1  6  0  0  0
  2  5  1  0  0  0  0
  3  1  1  0  0  0  0
  4  8  1  6  0  0  0
  4  2  1  0  0  0  0
  5  9  1  1  0  0  0
  6  7  2  0  0  0  0
  7  9  1  0  0  0  0
  7 30  1  0  0  0  0
  8 10  1  0  0  0  0
 10 13  1  0  0  0  0
 11  8  2  0  0  0  0
 12  6  1  0  0  0  0
 13  5  1  0  0  0  0
 13 16  1  1  0  0  0
 14  3  1  0  0  0  0
 14 11  1  0  0  0  0
 15  6  1  0  0  0  0
 17 16  1  0  0  0  0
 18 19  2  0  0  0  0
 20 21  1  0  0  0  0
 22 27  1  6  0  0  0
 22 20  1  0  0  0  0
 23 19  1  6  0  0  0
 23 25  1  0  0  0  0
 24 22  1  0  0  0  0
 24 23  1  0  0  0  0
 25 26  1  6  0  0  0
 25 21  1  0  0  0  0
 27 29  1  0  0  0  0
 29 28  1  0  0  0  0
 30 31  1  0  0  0  0
 31 32  1  0  0  0  0
M  END
>  <MODEL>
1

>  <REMARK>
 VINA RESULT:      -5.4      0.000      0.000
  Name = 
  7 active torsions:
  status: ('A' for Active; 'I' for Inactive)
    1  A    between atoms: C_1  and  C_27
    2  A    between atoms: C_7  and  C_15
    3  A    between atoms: C_7  and  C_26
    4  A    between atoms: C_9  and  O_11
    5  A    between atoms: O_11  and  C_12
    6  A    between atoms: C_13  and  C_29
    7  A    between atoms: C_16  and  C_27
                            x       y       z     vdW  Elec       q    Type
                         _______ _______ _______ _____ _____    ______ ____

>  <TORSDO>
F 7

$$$$
=
 OpenBabel10272402063D

 32 35  0  0  1  0  0  0  0  0999 V2000
  188.3370  177.0360  138.1510 C   0  0  1  0  0  3  0  0  0  0  0  0
  187.4070  174.7360  137.5500 C   0  0  2  0  0  3  0  0  0  0  0  0
  187.7760  178.2130  137.3450 C   0  0  0  0  0  2  0  0  0  0  0  0
  188.5300  175.7590  137.3090 C   0  0  1  0  0  3  0  0  0  0  0  0
  187.6320  173.4750  136.7010 C   0  0  1  0  0  3  0  0  0  0  0  0
  184.9270  174.3140  137.3750 C   0  0  0  0  0  0  0  0  0  0  0  0
  185.1350  172.9990  137.1240 C   0  0  0  0  0  0  0  0  0  0  0  0
  188.7410  175.9930  135.8230 C   0  0  0  0  0  0  0  0  0  0  0  0
  186.5340  172.4400  136.9890 C   0  0  0  0  0  2  0  0  0  0  0  0
  188.8880  174.7950  134.9400 C   0  0  0  0  0  2  0  0  0  0  0  0
  188.7340  177.2150  135.2740 C   0  0  0  0  0  3  0  0  0  0  0  0
  186.0290  175.3220  137.2350 C   0  0  0  0  0  2  0  0  0  0  0  0
  187.7460  173.8040  135.1960 C   0  0  1  0  0  3  0  0  0  0  0  0
  188.6220  178.4610  136.1020 C   0  0  0  0  0  2  0  0  0  0  0  0
  183.3440  174.9670  137.9260 S   0  0  0  0  0  1  0  0  0  0  0  0
  187.9520  172.5520  134.3460 C   0  0  0  0  0  2  0  0  0  0  0  0
  189.1750  171.9450  134.6350 O   0  0  0  0  0  1  0  0  0  0  0  0
  190.4500  178.0800  138.3750 O   0  0  0  0  0  0  0  0  0  0  0  0
  189.5810  177.4020  138.9060 C   0  0  0  0  0  0  0  0  0  0  0  0
  190.1490  175.7860  143.0080 S   0  0  0  0  0  0  0  0  0  0  0  0
  188.5830  176.6500  142.5920 C   0  0  0  0  0  2  0  0  0  0  0  0
  191.2630  177.1000  142.3950 C   0  0  1  0  0  3  0  0  0  0  0  0
  189.7490  176.9300  140.3190 C   0  0  1  0  0  3  0  0  0  0  0  0
  191.1100  177.3520  140.8870 C   0  0  0  0  0  2  0  0  0  0  0  0
  188.5570  177.3180  141.2120 C   0  0  2  0  0  3  0  0  0  0  0  0
  188.3870  178.8230  141.3680 C   0  0  0  0  0  1  0  0  0  0  0  0
  191.0950  178.3860  143.2030 C   0  0  0  0  0  2  0  0  0  0  0  0
  190.0660  178.3130  145.3510 F   0  0  0  0  0  0  0  0  0  0  0  0
  191.2660  178.1210  144.6900 C   0  0  0  0  0  2  0  0  0  0  0  0
  184.1020  172.0510  137.0560 O   0  0  0  0  0  0  0  0  0  0  0  0
  183.9610  171.0750  136.0300 C   0  0  0  0  0  2  0  0  0  0  0  0
  183.7320  171.7500  134.6910 C   0  0  0  0  0  1  0  0  0  0  0  0
  1 19  1  6  0  0  0
  2 12  1  6  0  0  0
  3  1  1  0  0  0  0
  4  8  1  6  0  0  0
  4  2  1  0  0  0  0
  4  1  1  0  0  0  0
  5  9  1  6  0  0  0
  5  2  1  0  0  0  0
  6 15  1  0  0  0  0
  7  6  2  0  0  0  0
  9  7  1  0  0  0  0
 10 13  1  0  0  0  0
 10  8  1  0  0  0  0
 11  8  2  0  0  0  0
 11 14  1  0  0  0  0
 12  6  1  0  0  0  0
 13 16  1  6  0  0  0
 13  5  1  0  0  0  0
 14  3  1  0  0  0  0
 16 17  1  0  0  0  0
 18 19  2  0  0  0  0
 21 20  1  0  0  0  0
 22 20  1  0  0  0  0
 22 27  1  1  0  0  0
 23 19  1  6  0  0  0
 23 24  1  0  0  0  0
 23 25  1  0  0  0  0
 24 22  1  0  0  0  0
 25 26  1  1  0  0  0
 25 21  1  0  0  0  0
 27 29  1  0  0  0  0
 29 28  1  0  0  0  0
 30  7  1  0  0  0  0
 31 30  1  0  0  0  0
 32 31  1  0  0  0  0
M  END
>  <MODEL>
2

>  <REMARK>
 VINA RESULT:      -5.3      3.084      8.144
  Name = 
  7 active torsions:
  status: ('A' for Active; 'I' for Inactive)
    1  A    between atoms: C_1  and  C_27
    2  A    between atoms: C_7  and  C_15
    3  A    between atoms: C_7  and  C_26
    4  A    between atoms: C_9  and  O_11
    5  A    between atoms: O_11  and  C_12
    6  A    between atoms: C_13  and  C_29
    7  A    between atoms: C_16  and  C_27
                            x       y       z     vdW  Elec       q    Type
                         _______ _______ _______ _____ _____    ______ ____

>  <TORSDO>
F 7

$$$$
=
 OpenBabel10272402063D

 32 35  0  0  1  0  0  0  0  0999 V2000
  184.0210  176.3980  136.2970 C   0  0  1  0  0  3  0  0  0  0  0  0
  183.0830  178.4490  137.4930 C   0  0  2  0  0  3  0  0  0  0  0  0
  183.0010  175.3130  135.9370 C   0  0  0  0  0  2  0  0  0  0  0  0
  183.7410  177.0690  137.6570 C   0  0  1  0  0  3  0  0  0  0  0  0
  182.8230  179.0910  138.8650 C   0  0  1  0  0  3  0  0  0  0  0  0
  181.0640  179.6820  136.6220 C   0  0  0  0  0  0  0  0  0  0  0  0
  181.1630  180.6080  137.6060 C   0  0  0  0  0  0  0  0  0  0  0  0
  182.9710  176.2140  138.6500 C   0  0  0  0  0  0  0  0  0  0  0  0
  182.2140  180.4900  138.6880 C   0  0  0  0  0  2  0  0  0  0  0  0
  182.6240  176.8210  139.9720 C   0  0  0  0  0  2  0  0  0  0  0  0
  182.5400  174.9800  138.3610 C   0  0  0  0  0  3  0  0  0  0  0  0
  181.7680  178.3610  136.7140 C   0  0  0  0  0  2  0  0  0  0  0  0
  181.9580  178.1870  139.7710 C   0  0  1  0  0  3  0  0  0  0  0  0
  182.8770  174.2990  137.0680 C   0  0  0  0  0  2  0  0  0  0  0  0
  180.1200  179.9540  135.1150 S   0  0  0  0  0  1  0  0  0  0  0  0
  181.6810  178.8290  141.1300 C   0  0  0  0  0  2  0  0  0  0  0  0
  182.7910  178.7250  141.9690 O   0  0  0  0  0  1  0  0  0  0  0  0
  185.7020  174.9180  135.5300 O   0  0  0  0  0  0  0  0  0  0  0  0
  185.4360  175.9090  136.1950 C   0  0  0  0  0  0  0  0  0  0  0  0
  188.5280  178.0820  138.5370 S   0  0  0  0  0  0  0  0  0  0  0  0
  187.9260  178.8020  136.9600 C   0  0  0  0  0  2  0  0  0  0  0  0
  188.9080  176.4260  137.8600 C   0  0  1  0  0  3  0  0  0  0  0  0
  186.5230  176.6500  136.9160 C   0  0  1  0  0  3  0  0  0  0  0  0
  187.6630  175.7060  137.3190 C   0  0  0  0  0  2  0  0  0  0  0  0
  186.9930  177.8960  136.1470 C   0  0  2  0  0  3  0  0  0  0  0  0
  187.6300  177.5690  134.8020 C   0  0  0  0  0  1  0  0  0  0  0  0
  190.0180  176.5000  136.8130 C   0  0  0  0  0  2  0  0  0  0  0  0
  191.3800  175.5300  138.5120 F   0  0  0  0  0  0  0  0  0  0  0  0
  191.3890  176.4370  137.4680 C   0  0  0  0  0  2  0  0  0  0  0  0
  180.3790  181.7720  137.6560 O   0  0  0  0  0  0  0  0  0  0  0  0
  180.8880  183.0990  137.5800 C   0  0  0  0  0  2  0  0  0  0  0  0
  180.8390  183.5970  136.1480 C   0  0  0  0  0  1  0  0  0  0  0  0
  1 19  1  1  0  0  0
  1  4  1  0  0  0  0
  2 12  1  1  0  0  0
  2  4  1  0  0  0  0
  2  5  1  0  0  0  0
  3  1  1  0  0  0  0
  3 14  1  0  0  0  0
  4  8  1  1  0  0  0
  5  9  1  6  0  0  0
  5 13  1  0  0  0  0
  6 12  1  0  0  0  0
  6  7  2  0  0  0  0
  7 30  1  0  0  0  0
  7  9  1  0  0  0  0
  8 10  1  0  0  0  0
 11  8  2  0  0  0  0
 13 10  1  0  0  0  0
 13 16  1  1  0  0  0
 14 11  1  0  0  0  0
 15  6  1  0  0  0  0
 16 17  1  0  0  0  0
 18 19  2  0  0  0  0
 21 20  1  0  0  0  0
 22 27  1  6  0  0  0
 22 20  1  0  0  0  0
 23 19  1  6  0  0  0
 23 24  1  0  0  0  0
 24 22  1  0  0  0  0
 25 26  1  6  0  0  0
 25 23  1  0  0  0  0
 25 21  1  0  0  0  0
 27 29  1  0  0  0  0
 29 28  1  0  0  0  0
 31 30  1  0  0  0  0
 32 31  1  0  0  0  0
M  END
>  <MODEL>
3

>  <REMARK>
 VINA RESULT:      -5.1      4.784      7.946
  Name = 
  7 active torsions:
  status: ('A' for Active; 'I' for Inactive)
    1  A    between atoms: C_1  and  C_27
    2  A    between atoms: C_7  and  C_15
    3  A    between atoms: C_7  and  C_26
    4  A    between atoms: C_9  and  O_11
    5  A    between atoms: O_11  and  C_12
    6  A    between atoms: C_13  and  C_29
    7  A    between atoms: C_16  and  C_27
                            x       y       z     vdW  Elec       q    Type
                         _______ _______ _______ _____ _____    ______ ____

>  <TORSDO>
F 7

$$$$
=
 OpenBabel10272402063D

 32 35  0  0  1  0  0  0  0  0999 V2000
  183.3720  176.0450  137.9680 C   0  0  1  0  0  3  0  0  0  0  0  0
  182.8610  177.2610  140.1530 C   0  0  2  0  0  3  0  0  0  0  0  0
  184.0550  176.8840  136.8830 C   0  0  0  0  0  2  0  0  0  0  0  0
  182.3230  176.8350  138.7770 C   0  0  1  0  0  3  0  0  0  0  0  0
  181.7900  178.0400  140.9350 C   0  0  1  0  0  3  0  0  0  0  0  0
  184.6120  178.6200  141.3540 C   0  0  0  0  0  0  0  0  0  0  0  0
  183.7560  178.8880  142.3690 C   0  0  0  0  0  0  0  0  0  0  0  0
  181.7010  178.0140  138.0480 C   0  0  0  0  0  0  0  0  0  0  0  0
  182.3200  178.4150  142.3270 C   0  0  0  0  0  2  0  0  0  0  0  0
  180.7110  178.8520  138.7920 C   0  0  0  0  0  2  0  0  0  0  0  0
  182.0530  178.3630  136.8040 C   0  0  0  0  0  3  0  0  0  0  0  0
  184.1230  178.1160  140.0290 C   0  0  0  0  0  2  0  0  0  0  0  0
  181.2830  179.2700  140.1500 C   0  0  1  0  0  3  0  0  0  0  0  0
  183.0170  177.5520  135.9900 C   0  0  0  0  0  2  0  0  0  0  0  0
  186.3950  178.8040  141.5040 S   0  0  0  0  0  1  0  0  0  0  0  0
  180.2330  180.0580  140.9310 C   0  0  0  0  0  2  0  0  0  0  0  0
  180.0160  181.3110  140.3550 O   0  0  0  0  0  1  0  0  0  0  0  0
  181.6310  174.4860  137.5880 O   0  0  0  0  0  0  0  0  0  0  0  0
  182.8120  174.7610  137.4290 C   0  0  0  0  0  0  0  0  0  0  0  0
  185.6550  171.9980  135.4180 S   0  0  0  0  0  0  0  0  0  0  0  0
  184.8620  173.3360  134.4420 C   0  0  0  0  0  2  0  0  0  0  0  0
  184.1070  171.3360  136.1310 C   0  0  1  0  0  3  0  0  0  0  0  0
  183.7150  173.8180  136.6910 C   0  0  1  0  0  3  0  0  0  0  0  0
  183.3760  172.3580  137.0160 C   0  0  0  0  0  2  0  0  0  0  0  0
  183.7720  174.1210  135.1840 C   0  0  2  0  0  3  0  0  0  0  0  0
  182.4330  173.9380  134.4820 C   0  0  0  0  0  1  0  0  0  0  0  0
  183.1930  170.7760  135.0430 C   0  0  0  0  0  2  0  0  0  0  0  0
  181.7470  168.8850  135.1790 F   0  0  0  0  0  0  0  0  0  0  0  0
  181.9330  170.1740  135.6460 C   0  0  0  0  0  2  0  0  0  0  0  0
  184.1390  179.5350  143.5550 O   0  0  0  0  0  0  0  0  0  0  0  0
  183.7510  179.1310  144.8630 C   0  0  0  0  0  2  0  0  0  0  0  0
  184.9460  178.5810  145.6190 C   0  0  0  0  0  1  0  0  0  0  0  0
  1 19  1  6  0  0  0
  1  4  1  0  0  0  0
  2 12  1  6  0  0  0
  2  5  1  0  0  0  0
  3  1  1  0  0  0  0
  4  8  1  6  0  0  0
  4  2  1  0  0  0  0
  5  9  1  1  0  0  0
  6 15  1  0  0  0  0
  6  7  2  0  0  0  0
  7 30  1  0  0  0  0
  8 10  1  0  0  0  0
  9  7  1  0  0  0  0
 10 13  1  0  0  0  0
 11  8  2  0  0  0  0
 12  6  1  0  0  0  0
 13 16  1  1  0  0  0
 13  5  1  0  0  0  0
 14 11  1  0  0  0  0
 14  3  1  0  0  0  0
 17 16  1  0  0  0  0
 19 18  2  0  0  0  0
 20 22  1  0  0  0  0
 21 25  1  0  0  0  0
 21 20  1  0  0  0  0
 22 27  1  6  0  0  0
 22 24  1  0  0  0  0
 23 24  1  0  0  0  0
 23 19  1  1  0  0  0
 25 26  1  6  0  0  0
 25 23  1  0  0  0  0
 27 29  1  0  0  0  0
 28 29  1  0  0  0  0
 30 31  1  0  0  0  0
 31 32  1  0  0  0  0
M  END
>  <MODEL>
4

>  <REMARK>
 VINA RESULT:      -4.8      4.875      6.023
  Name = 
  7 active torsions:
  status: ('A' for Active; 'I' for Inactive)
    1  A    between atoms: C_1  and  C_27
    2  A    between atoms: C_7  and  C_15
    3  A    between atoms: C_7  and  C_26
    4  A    between atoms: C_9  and  O_11
    5  A    between atoms: O_11  and  C_12
    6  A    between atoms: C_13  and  C_29
    7  A    between atoms: C_16  and  C_27
                            x       y       z     vdW  Elec       q    Type
                         _______ _______ _______ _____ _____    ______ ____

>  <TORSDO>
F 7

$$$$
=
 OpenBabel10272402063D

 32 35  0  0  1  0  0  0  0  0999 V2000
  188.1750  175.2810  135.1620 C   0  0  1  0  0  3  0  0  0  0  0  0
  190.2130  175.2740  136.6970 C   0  0  2  0  0  3  0  0  0  0  0  0
  187.9580  176.5610  134.3480 C   0  0  0  0  0  2  0  0  0  0  0  0
  188.7040  175.5470  136.5850 C   0  0  1  0  0  3  0  0  0  0  0  0
  190.7070  175.5420  138.1280 C   0  0  1  0  0  3  0  0  0  0  0  0
  192.4990  175.9420  135.8680 C   0  0  0  0  0  0  0  0  0  0  0  0
  193.0540  175.6580  137.0710 C   0  0  0  0  0  0  0  0  0  0  0  0
  188.3540  176.9090  137.1590 C   0  0  0  0  0  0  0  0  0  0  0  0
  192.2040  175.2160  138.2410 C   0  0  0  0  0  2  0  0  0  0  0  0
  188.8770  177.2510  138.5170 C   0  0  0  0  0  2  0  0  0  0  0  0
  187.6610  177.8270  136.4720 C   0  0  0  0  0  3  0  0  0  0  0  0
  191.0180  176.1250  135.7130 C   0  0  0  0  0  2  0  0  0  0  0  0
  190.3850  176.9810  138.5900 C   0  0  1  0  0  3  0  0  0  0  0  0
  187.0820  177.5420  135.1190 C   0  0  0  0  0  2  0  0  0  0  0  0
  193.4620  176.0900  134.3570 S   0  0  0  0  0  1  0  0  0  0  0  0
  190.8900  177.2590  140.0040 C   0  0  0  0  0  2  0  0  0  0  0  0
  190.3790  176.3290  140.9110 O   0  0  0  0  0  1  0  0  0  0  0  0
  187.0550  173.2130  134.8850 O   0  0  0  0  0  0  0  0  0  0  0  0
  186.9610  174.3980  135.1720 C   0  0  0  0  0  0  0  0  0  0  0  0
  183.0710  176.3270  136.1270 S   0  0  0  0  0  0  0  0  0  0  0  0
  184.0960  175.6510  137.4920 C   0  0  0  0  0  2  0  0  0  0  0  0
  183.0990  174.8150  135.0980 C   0  0  1  0  0  3  0  0  0  0  0  0
  185.6300  174.9830  135.5400 C   0  0  1  0  0  3  0  0  0  0  0  0
  184.5150  174.4360  134.6390 C   0  0  0  0  0  2  0  0  0  0  0  0
  185.3300  174.8560  137.0440 C   0  0  2  0  0  3  0  0  0  0  0  0
  185.2160  173.4120  137.5150 C   0  0  0  0  0  1  0  0  0  0  0  0
  182.4030  173.6540  135.8050 C   0  0  0  0  0  2  0  0  0  0  0  0
  183.0960  171.3750  135.9030 F   0  0  0  0  0  0  0  0  0  0  0  0
  182.6150  172.3510  135.0500 C   0  0  0  0  0  2  0  0  0  0  0  0
  194.4390  175.6660  137.3060 O   0  0  0  0  0  0  0  0  0  0  0  0
  195.2460  174.5010  137.4420 C   0  0  0  0  0  2  0  0  0  0  0  0
  195.6870  174.3340  138.8840 C   0  0  0  0  0  1  0  0  0  0  0  0
  1 19  1  1  0  0  0
  1  4  1  0  0  0  0
  2 12  1  6  0  0  0
  2  5  1  0  0  0  0
  3 14  1  0  0  0  0
  3  1  1  0  0  0  0
  4  2  1  0  0  0  0
  4  8  1  6  0  0  0
  5  9  1  6  0  0  0
  5 13  1  0  0  0  0
  6  7  2  0  0  0  0
  7 30  1  0  0  0  0
  7  9  1  0  0  0  0
  8 10  1  0  0  0  0
 10 13  1  0  0  0  0
 11  8  2  0  0  0  0
 12  6  1  0  0  0  0
 13 16  1  1  0  0  0
 14 11  1  0  0  0  0
 15  6  1  0  0  0  0
 16 17  1  0  0  0  0
 18 19  2  0  0  0  0
 20 21  1  0  0  0  0
 22 27  1  1  0  0  0
 22 20  1  0  0  0  0
 23 19  1  1  0  0  0
 23 25  1  0  0  0  0
 24 22  1  0  0  0  0
 24 23  1  0  0  0  0
 25 21  1  0  0  0  0
 25 26  1  6  0  0  0
 29 27  1  0  0  0  0
 29 28  1  0  0  0  0
 30 31  1  0  0  0  0
 31 32  1  0  0  0  0
M  END
>  <MODEL>
5

>  <REMARK>
 VINA RESULT:      -4.6      2.500      3.637
  Name = 
  7 active torsions:
  status: ('A' for Active; 'I' for Inactive)
    1  A    between atoms: C_1  and  C_27
    2  A    between atoms: C_7  and  C_15
    3  A    between atoms: C_7  and  C_26
    4  A    between atoms: C_9  and  O_11
    5  A    between atoms: O_11  and  C_12
    6  A    between atoms: C_13  and  C_29
    7  A    between atoms: C_16  and  C_27
                            x       y       z     vdW  Elec       q    Type
                         _______ _______ _______ _____ _____    ______ ____

>  <TORSDO>
F 7

$$$$
=
 OpenBabel10272402063D

 32 35  0  0  1  0  0  0  0  0999 V2000
  190.2440  176.8800  139.3740 C   0  0  1  0  0  3  0  0  0  0  0  0
  189.2960  176.8790  141.7440 C   0  0  2  0  0  3  0  0  0  0  0  0
  190.5720  178.2570  138.7880 C   0  0  0  0  0  2  0  0  0  0  0  0
  188.9690  176.8750  140.2410 C   0  0  1  0  0  3  0  0  0  0  0  0
  188.0060  176.8680  142.5790 C   0  0  1  0  0  3  0  0  0  0  0  0
  190.4000  178.1620  143.6130 C   0  0  0  0  0  0  0  0  0  0  0  0
  189.4970  177.6960  144.5100 C   0  0  0  0  0  0  0  0  0  0  0  0
  187.9560  177.9560  139.9030 C   0  0  0  0  0  0  0  0  0  0  0  0
  188.3440  176.8190  144.0760 C   0  0  0  0  0  2  0  0  0  0  0  0
  186.7180  178.0380  140.7370 C   0  0  0  0  0  2  0  0  0  0  0  0
  188.1620  178.8660  138.9420 C   0  0  0  0  0  3  0  0  0  0  0  0
  190.1460  178.0890  142.1360 C   0  0  0  0  0  2  0  0  0  0  0  0
  187.0800  178.0540  142.2270 C   0  0  1  0  0  3  0  0  0  0  0  0
  189.3660  178.8250  138.0490 C   0  0  0  0  0  2  0  0  0  0  0  0
  191.9820  178.8690  144.0940 S   0  0  0  0  0  1  0  0  0  0  0  0
  185.8040  178.0590  143.0670 C   0  0  0  0  0  2  0  0  0  0  0  0
  184.9530  179.0940  142.6790 O   0  0  0  0  0  1  0  0  0  0  0  0
  189.2570  175.0460  138.2480 O   0  0  0  0  0  0  0  0  0  0  0  0
  190.2120  175.8060  138.3260 C   0  0  0  0  0  0  0  0  0  0  0  0
  193.6500  175.6630  135.5110 S   0  0  0  0  0  0  0  0  0  0  0  0
  192.0910  174.8020  135.0670 C   0  0  0  0  0  2  0  0  0  0  0  0
  193.8140  174.9190  137.1740 C   0  0  1  0  0  3  0  0  0  0  0  0
  191.3610  175.6760  137.3710 C   0  0  1  0  0  3  0  0  0  0  0  0
  192.6510  175.2880  138.1070 C   0  0  0  0  0  2  0  0  0  0  0  0
  191.0310  174.7660  136.1760 C   0  0  2  0  0  3  0  0  0  0  0  0
  190.7500  173.3240  136.5780 C   0  0  0  0  0  1  0  0  0  0  0  0
  194.0100  173.4060  137.0850 C   0  0  0  0  0  2  0  0  0  0  0  0
  195.3480  173.7600  139.0250 F   0  0  0  0  0  0  0  0  0  0  0  0
  195.2120  172.9640  137.9030 C   0  0  0  0  0  2  0  0  0  0  0  0
  189.6000  177.9110  145.8940 O   0  0  0  0  0  0  0  0  0  0  0  0
  188.6910  177.4020  146.8640 C   0  0  0  0  0  2  0  0  0  0  0  0
  188.9610  178.0330  148.2170 C   0  0  0  0  0  1  0  0  0  0  0  0
  1 19  1  6  0  0  0
  1  4  1  0  0  0  0
  2 12  1  6  0  0  0
  2  5  1  0  0  0  0
  3  1  1  0  0  0  0
  4  8  1  6  0  0  0
  4  2  1  0  0  0  0
  5  9  1  1  0  0  0
  6 15  1  0  0  0  0
  6  7  2  0  0  0  0
  7 30  1  0  0  0  0
  8 10  1  0  0  0  0
  9  7  1  0  0  0  0
 10 13  1  0  0  0  0
 11  8  2  0  0  0  0
 12  6  1  0  0  0  0
 13  5  1  0  0  0  0
 13 16  1  1  0  0  0
 14  3  1  0  0  0  0
 14 11  1  0  0  0  0
 17 16  1  0  0  0  0
 18 19  2  0  0  0  0
 20 22  1  0  0  0  0
 21 20  1  0  0  0  0
 21 25  1  0  0  0  0
 22 27  1  6  0  0  0
 22 24  1  0  0  0  0
 23 24  1  0  0  0  0
 23 19  1  1  0  0  0
 25 26  1  1  0  0  0
 25 23  1  0  0  0  0
 27 29  1  0  0  0  0
 29 28  1  0  0  0  0
 30 31  1  0  0  0  0
 31 32  1  0  0  0  0
M  END
>  <MODEL>
6

>  <REMARK>
 VINA RESULT:      -4.5      4.375      5.565
  Name = 
  7 active torsions:
  status: ('A' for Active; 'I' for Inactive)
    1  A    between atoms: C_1  and  C_27
    2  A    between atoms: C_7  and  C_15
    3  A    between atoms: C_7  and  C_26
    4  A    between atoms: C_9  and  O_11
    5  A    between atoms: O_11  and  C_12
    6  A    between atoms: C_13  and  C_29
    7  A    between atoms: C_16  and  C_27
                            x       y       z     vdW  Elec       q    Type
                         _______ _______ _______ _____ _____    ______ ____

>  <TORSDO>
F 7

$$$$
=
 OpenBabel10272402063D

 32 35  0  0  1  0  0  0  0  0999 V2000
  190.3240  176.5840  137.8800 C   0  0  1  0  0  3  0  0  0  0  0  0
  188.0020  175.6670  137.3480 C   0  0  2  0  0  3  0  0  0  0  0  0
  191.2860  176.6930  136.6920 C   0  0  0  0  0  2  0  0  0  0  0  0
  189.4260  175.3320  137.8230 C   0  0  1  0  0  3  0  0  0  0  0  0
  187.1330  174.4000  137.3080 C   0  0  1  0  0  3  0  0  0  0  0  0
  186.6220  176.5780  135.4450 C   0  0  0  0  0  0  0  0  0  0  0  0
  185.5870  175.7640  135.7630 C   0  0  0  0  0  0  0  0  0  0  0  0
  189.9990  174.1630  137.0390 C   0  0  0  0  0  0  0  0  0  0  0  0
  185.7000  174.7550  136.8830 C   0  0  0  0  0  2  0  0  0  0  0  0
  189.1590  172.9340  136.9030 C   0  0  0  0  0  2  0  0  0  0  0  0
  191.1840  174.2200  136.4170 C   0  0  0  0  0  3  0  0  0  0  0  0
  188.0050  176.3260  135.9670 C   0  0  0  0  0  2  0  0  0  0  0  0
  187.7530  173.3020  136.4150 C   0  0  1  0  0  3  0  0  0  0  0  0
  192.0910  175.4090  136.5350 C   0  0  0  0  0  2  0  0  0  0  0  0
  186.4370  178.0380  134.4110 S   0  0  0  0  0  1  0  0  0  0  0  0
  186.8840  172.0470  136.3570 C   0  0  0  0  0  2  0  0  0  0  0  0
  187.6050  170.9600  135.8630 O   0  0  0  0  0  1  0  0  0  0  0  0
  192.2440  176.8470  139.2400 O   0  0  0  0  0  0  0  0  0  0  0  0
  191.0300  176.7060  139.1990 C   0  0  0  0  0  0  0  0  0  0  0  0
  188.6940  176.3170  142.9610 S   0  0  0  0  0  0  0  0  0  0  0  0
  187.9960  177.2880  141.5680 C   0  0  0  0  0  2  0  0  0  0  0  0
  190.3160  177.1610  142.9910 C   0  0  1  0  0  3  0  0  0  0  0  0
  190.2310  176.6570  140.4670 C   0  0  1  0  0  3  0  0  0  0  0  0
  191.1070  176.9730  141.6860 C   0  0  0  0  0  2  0  0  0  0  0  0
  188.9500  177.5050  140.3860 C   0  0  2  0  0  3  0  0  0  0  0  0
  189.2240  178.9930  140.2080 C   0  0  0  0  0  1  0  0  0  0  0  0
  190.1640  178.6380  143.3510 C   0  0  0  0  0  2  0  0  0  0  0  0
  191.9290  178.1410  144.8740 F   0  0  0  0  0  0  0  0  0  0  0  0
  191.3900  179.1470  144.0920 C   0  0  0  0  0  2  0  0  0  0  0  0
  184.3240  175.8440  135.1540 O   0  0  0  0  0  0  0  0  0  0  0  0
  183.1410  176.3100  135.7940 C   0  0  0  0  0  2  0  0  0  0  0  0
  182.6470  177.5780  135.1240 C   0  0  0  0  0  1  0  0  0  0  0  0
  1 19  1  1  0  0  0
  2 12  1  6  0  0  0
  2  4  1  0  0  0  0
  3  1  1  0  0  0  0
  4  8  1  6  0  0  0
  4  1  1  0  0  0  0
  5  9  1  6  0  0  0
  5  2  1  0  0  0  0
  6  7  2  0  0  0  0
  6 12  1  0  0  0  0
  7  9  1  0  0  0  0
 10  8  1  0  0  0  0
 11 14  1  0  0  0  0
 11  8  2  0  0  0  0
 13 16  1  1  0  0  0
 13 10  1  0  0  0  0
 13  5  1  0  0  0  0
 14  3  1  0  0  0  0
 15  6  1  0  0  0  0
 17 16  1  0  0  0  0
 19 18  2  0  0  0  0
 20 22  1  0  0  0  0
 21 20  1  0  0  0  0
 22 27  1  6  0  0  0
 23 19  1  6  0  0  0
 23 24  1  0  0  0  0
 24 22  1  0  0  0  0
 25 26  1  1  0  0  0
 25 23  1  0  0  0  0
 25 21  1  0  0  0  0
 27 29  1  0  0  0  0
 29 28  1  0  0  0  0
 30  7  1  0  0  0  0
 30 31  1  0  0  0  0
 32 31  1  0  0  0  0
M  END
>  <MODEL>
7

>  <REMARK>
 VINA RESULT:      -4.4      3.571      7.886
  Name = 
  7 active torsions:
  status: ('A' for Active; 'I' for Inactive)
    1  A    between atoms: C_1  and  C_27
    2  A    between atoms: C_7  and  C_15
    3  A    between atoms: C_7  and  C_26
    4  A    between atoms: C_9  and  O_11
    5  A    between atoms: O_11  and  C_12
    6  A    between atoms: C_13  and  C_29
    7  A    between atoms: C_16  and  C_27
                            x       y       z     vdW  Elec       q    Type
                         _______ _______ _______ _____ _____    ______ ____

>  <TORSDO>
F 7

$$$$
=
 OpenBabel10272402063D

 32 35  0  0  1  0  0  0  0  0999 V2000
  192.8820  174.3380  136.8640 C   0  0  1  0  0  3  0  0  0  0  0  0
  190.8930  175.5080  137.9560 C   0  0  2  0  0  3  0  0  0  0  0  0
  194.0340  175.2490  136.4290 C   0  0  0  0  0  2  0  0  0  0  0  0
  191.4920  174.9690  136.6450 C   0  0  1  0  0  3  0  0  0  0  0  0
  189.5070  176.1240  137.7040 C   0  0  1  0  0  3  0  0  0  0  0  0
  191.1960  177.1560  139.8390 C   0  0  0  0  0  0  0  0  0  0  0  0
  189.8560  177.3080  139.9660 C   0  0  0  0  0  0  0  0  0  0  0  0
  191.4250  176.0160  135.5470 C   0  0  0  0  0  0  0  0  0  0  0  0
  188.8970  176.6110  139.0270 C   0  0  0  0  0  2  0  0  0  0  0  0
  190.1170  176.7030  135.3140 C   0  0  0  0  0  2  0  0  0  0  0  0
  192.4970  176.3880  134.8350 C   0  0  0  0  0  3  0  0  0  0  0  0
  191.8030  176.5500  138.6080 C   0  0  0  0  0  2  0  0  0  0  0  0
  189.5560  177.2390  136.6360 C   0  0  1  0  0  3  0  0  0  0  0  0
  193.8310  175.7220  134.9950 C   0  0  0  0  0  2  0  0  0  0  0  0
  192.3610  177.6250  141.1270 S   0  0  0  0  0  1  0  0  0  0  0  0
  188.1850  177.8680  136.3960 C   0  0  0  0  0  2  0  0  0  0  0  0
  188.1150  179.1460  136.9520 O   0  0  0  0  0  1  0  0  0  0  0  0
  191.9660  172.3820  135.8920 O   0  0  0  0  0  0  0  0  0  0  0  0
  192.9760  172.9690  136.2560 C   0  0  0  0  0  0  0  0  0  0  0  0
  197.0640  171.2890  135.7790 S   0  0  0  0  0  0  0  0  0  0  0  0
  195.7130  170.6830  134.6940 C   0  0  0  0  0  2  0  0  0  0  0  0
  196.1690  171.0470  137.3550 C   0  0  1  0  0  3  0  0  0  0  0  0
  194.3220  172.3270  136.0970 C   0  0  1  0  0  3  0  0  0  0  0  0
  194.9010  171.9090  137.4550 C   0  0  0  0  0  2  0  0  0  0  0  0
  194.3130  171.1960  135.0540 C   0  0  2  0  0  3  0  0  0  0  0  0
  193.4150  170.0280  135.4400 C   0  0  0  0  0  1  0  0  0  0  0  0
  195.8690  169.5700  137.5990 C   0  0  0  0  0  2  0  0  0  0  0  0
  193.8490  168.6700  138.4880 F   0  0  0  0  0  0  0  0  0  0  0  0
  194.9830  169.3880  138.8210 C   0  0  0  0  0  2  0  0  0  0  0  0
  189.2540  178.0360  141.0060 O   0  0  0  0  0  0  0  0  0  0  0  0
  188.2740  177.5180  141.8980 C   0  0  0  0  0  2  0  0  0  0  0  0
  188.9100  176.5280  142.8570 C   0  0  0  0  0  1  0  0  0  0  0  0
  1 19  1  6  0  0  0
  2 12  1  6  0  0  0
  3  1  1  0  0  0  0
  4  8  1  6  0  0  0
  4  1  1  0  0  0  0
  4  2  1  0  0  0  0
  5  2  1  0  0  0  0
  5  9  1  1  0  0  0
  6  7  2  0  0  0  0
  6 15  1  0  0  0  0
  7 30  1  0  0  0  0
  9  7  1  0  0  0  0
 10  8  1  0  0  0  0
 10 13  1  0  0  0  0
 11 14  1  0  0  0  0
 11  8  2  0  0  0  0
 12  6  1  0  0  0  0
 13 16  1  6  0  0  0
 13  5  1  0  0  0  0
 14  3  1  0  0  0  0
 16 17  1  0  0  0  0
 18 19  2  0  0  0  0
 20 22  1  0  0  0  0
 21 25  1  0  0  0  0
 21 20  1  0  0  0  0
 22 24  1  0  0  0  0
 22 27  1  6  0  0  0
 23 19  1  1  0  0  0
 23 24  1  0  0  0  0
 25 26  1  1  0  0  0
 25 23  1  0  0  0  0
 27 29  1  0  0  0  0
 28 29  1  0  0  0  0
 30 31  1  0  0  0  0
 31 32  1  0  0  0  0
M  END
>  <MODEL>
8

>  <REMARK>
 VINA RESULT:      -4.4      5.098      6.811
  Name = 
  7 active torsions:
  status: ('A' for Active; 'I' for Inactive)
    1  A    between atoms: C_1  and  C_27
    2  A    between atoms: C_7  and  C_15
    3  A    between atoms: C_7  and  C_26
    4  A    between atoms: C_9  and  O_11
    5  A    between atoms: O_11  and  C_12
    6  A    between atoms: C_13  and  C_29
    7  A    between atoms: C_16  and  C_27
                            x       y       z     vdW  Elec       q    Type
                         _______ _______ _______ _____ _____    ______ ____

>  <TORSDO>
F 7

$$$$
=
 OpenBabel10272402063D

 32 35  0  0  1  0  0  0  0  0999 V2000
  188.5030  177.5660  139.1990 C   0  0  1  0  0  3  0  0  0  0  0  0
  186.5370  176.3540  138.1130 C   0  0  2  0  0  3  0  0  0  0  0  0
  188.7640  178.9920  138.7030 C   0  0  0  0  0  2  0  0  0  0  0  0
  188.0550  176.6040  138.0810 C   0  0  1  0  0  3  0  0  0  0  0  0
  186.1250  175.3880  136.9910 C   0  0  1  0  0  3  0  0  0  0  0  0
  184.2640  177.4260  137.9180 C   0  0  0  0  0  0  0  0  0  0  0  0
  183.7450  176.3030  137.3660 C   0  0  0  0  0  0  0  0  0  0  0  0
  188.5130  176.9830  136.6830 C   0  0  0  0  0  0  0  0  0  0  0  0
  184.6170  175.1040  137.0640 C   0  0  0  0  0  2  0  0  0  0  0  0
  188.0720  176.1200  135.5440 C   0  0  0  0  0  2  0  0  0  0  0  0
  189.2310  178.0850  136.4310 C   0  0  0  0  0  3  0  0  0  0  0  0
  185.7450  177.6560  137.9820 C   0  0  0  0  0  2  0  0  0  0  0  0
  186.5560  175.9020  135.5990 C   0  0  1  0  0  3  0  0  0  0  0  0
  189.7320  178.9800  137.5260 C   0  0  0  0  0  2  0  0  0  0  0  0
  183.2470  178.7160  138.6500 S   0  0  0  0  0  1  0  0  0  0  0  0
  186.1320  174.9550  134.4780 C   0  0  0  0  0  2  0  0  0  0  0  0
  186.8040  173.7350  134.5700 O   0  0  0  0  0  1  0  0  0  0  0  0
  190.2830  176.0470  139.5650 O   0  0  0  0  0  0  0  0  0  0  0  0
  189.6590  177.0140  139.9820 C   0  0  0  0  0  0  0  0  0  0  0  0
  190.8540  179.1330  143.7020 S   0  0  0  0  0  0  0  0  0  0  0  0
  191.5280  177.4580  143.3680 C   0  0  0  0  0  2  0  0  0  0  0  0
  189.0990  178.6900  143.4410 C   0  0  1  0  0  3  0  0  0  0  0  0
  190.0440  177.6600  141.2790 C   0  0  1  0  0  3  0  0  0  0  0  0
  188.8140  178.2150  142.0080 C   0  0  0  0  0  2  0  0  0  0  0  0
  190.9220  176.7460  142.1510 C   0  0  2  0  0  3  0  0  0  0  0  0
  190.2110  175.4750  142.5960 C   0  0  0  0  0  1  0  0  0  0  0  0
  188.6270  177.6730  144.4790 C   0  0  0  0  0  2  0  0  0  0  0  0
  187.1020  176.0070  143.7160 F   0  0  0  0  0  0  0  0  0  0  0  0
  187.1760  177.2860  144.2390 C   0  0  0  0  0  2  0  0  0  0  0  0
  182.3750  176.1270  137.1110 O   0  0  0  0  0  0  0  0  0  0  0  0
  181.5600  175.1270  137.7120 C   0  0  0  0  0  2  0  0  0  0  0  0
  181.3860  175.4130  139.1920 C   0  0  0  0  0  1  0  0  0  0  0  0
  1 19  1  6  0  0  0
  2 12  1  6  0  0  0
  3  1  1  0  0  0  0
  4  8  1  6  0  0  0
  4  2  1  0  0  0  0
  4  1  1  0  0  0  0
  5  9  1  6  0  0  0
  5  2  1  0  0  0  0
  6 12  1  0  0  0  0
  6 15  1  0  0  0  0
  7  6  2  0  0  0  0
  9  7  1  0  0  0  0
 10 13  1  0  0  0  0
 10  8  1  0  0  0  0
 11  8  2  0  0  0  0
 11 14  1  0  0  0  0
 13 16  1  6  0  0  0
 13  5  1  0  0  0  0
 14  3  1  0  0  0  0
 16 17  1  0  0  0  0
 18 19  2  0  0  0  0
 21 20  1  0  0  0  0
 22 20  1  0  0  0  0
 22 27  1  1  0  0  0
 23 19  1  6  0  0  0
 23 24  1  0  0  0  0
 23 25  1  0  0  0  0
 24 22  1  0  0  0  0
 25 26  1  1  0  0  0
 25 21  1  0  0  0  0
 28 29  1  0  0  0  0
 29 27  1  0  0  0  0
 30  7  1  0  0  0  0
 30 31  1  0  0  0  0
 31 32  1  0  0  0  0
M  END
>  <MODEL>
9

>  <REMARK>
 VINA RESULT:      -4.4      3.172      7.679
  Name = 
  7 active torsions:
  status: ('A' for Active; 'I' for Inactive)
    1  A    between atoms: C_1  and  C_27
    2  A    between atoms: C_7  and  C_15
    3  A    between atoms: C_7  and  C_26
    4  A    between atoms: C_9  and  O_11
    5  A    between atoms: O_11  and  C_12
    6  A    between atoms: C_13  and  C_29
    7  A    between atoms: C_16  and  C_27
                            x       y       z     vdW  Elec       q    Type
                         _______ _______ _______ _____ _____    ______ ____

>  <TORSDO>
F 7

$$$$
