=
 OpenBabel10272401333D

 55 63  0  0  1  0  0  0  0  0999 V2000
  186.5550  174.4750  137.1400 C   0  0  0  0  0  2  0  0  0  0  0  0
  182.4990  176.5880  139.2500 C   0  0  0  0  0  2  0  0  0  0  0  0
  181.0400  175.6550  136.9090 O   0  0  0  0  0  0  0  0  0  0  0  0
  185.2670  179.5690  141.9060 O   0  0  0  0  0  0  0  0  0  0  0  0
  184.2030  179.5170  140.9820 C   0  0  2  0  0  3  0  0  0  0  0  0
  181.0530  174.0250  134.3460 C   0  0  0  0  0  2  0  0  0  0  0  0
  180.0200  173.0200  134.8480 C   0  0  0  0  0  2  0  0  0  0  0  0
  182.6300  172.0480  134.4160 C   0  0  1  0  0  3  0  0  0  0  0  0
  181.9540  171.3020  135.5810 C   0  0  0  0  0  2  0  0  0  0  0  0
  183.1050  175.6470  135.7550 C   0  0  0  0  0  2  0  0  0  0  0  0
  185.2720  178.3220  142.5550 C   0  0  2  0  0  0  0  0  0  0  0  0
  184.8170  177.2920  141.5360 C   0  0  0  0  0  2  0  0  0  0  0  0
  180.5760  172.2070  136.3780 S   0  0  0  0  0  0  0  0  0  0  0  0
  186.8620  176.6080  135.8620 C   0  0  0  0  0  3  0  0  0  0  0  0
  182.5130  173.5650  134.4830 C   0  0  2  0  0  3  0  0  0  0  0  0
  186.4270  178.1090  138.1840 C   0  0  0  0  0  0  0  0  0  0  0  0
  185.1080  173.9990  137.1300 C   0  0  0  0  0  2  0  0  0  0  0  0
  186.3950  176.7120  138.2400 C   0  0  0  0  0  3  0  0  0  0  0  0
  184.8740  172.2750  135.5420 C   0  0  2  0  0  3  0  0  0  0  0  0
  182.5900  177.7270  140.2540 C   0  0  0  0  0  2  0  0  0  0  0  0
  184.0980  171.7020  134.3460 C   0  0  0  0  0  2  0  0  0  0  0  0
  182.6280  177.1220  137.8300 C   0  0  0  0  0  2  0  0  0  0  0  0
  182.1780  176.0930  136.8440 C   0  0  0  0  0  0  0  0  0  0  0  0
  186.8900  178.0070  135.8070 C   0  0  0  0  0  3  0  0  0  0  0  0
  184.3580  178.3680  143.5970 F   0  0  0  0  0  0  0  0  0  0  0  0
  184.0420  178.0890  140.5150 C   0  0  1  0  0  0  0  0  0  0  0  0
  186.6130  175.9610  137.0800 C   0  0  0  0  0  0  0  0  0  0  0  0
  183.2340  174.1160  135.7290 C   0  0  1  0  0  3  0  0  0  0  0  0
  184.6600  173.7280  135.7640 N   0  0  1  0  0  0  0  0  0  0  0  0
  184.6690  179.1220  139.5810 C   0  0  2  0  0  3  0  0  0  0  0  0
  186.1740  178.9050  139.4160 C   0  0  0  0  0  2  0  0  0  0  0  0
  186.6700  178.7560  136.9670 C   0  0  0  0  0  3  0  0  0  0  0  0
  186.8750  170.7980  135.8560 C   0  0  0  0  0  3  0  0  0  0  0  0
  189.0390  171.3530  134.9020 C   0  0  0  0  0  0  0  0  0  0  0  0
  187.1410  172.8310  134.5680 C   0  0  0  0  0  3  0  0  0  0  0  0
  188.4890  172.5240  134.3600 C   0  0  0  0  0  3  0  0  0  0  0  0
  188.2240  170.4940  135.6500 C   0  0  0  0  0  3  0  0  0  0  0  0
  186.3290  171.9700  135.3210 C   0  0  0  0  0  0  0  0  0  0  0  0
  190.4610  171.0350  134.6990 C   0  0  0  0  0  0  0  0  0  0  0  0
  191.3340  171.9430  134.7450 O   0  0  0  0  0  1  0  0  0  0  0  0
  190.8560  169.7290  134.4410 O   0  0  0  0  0  0  0  0  0  0  0  0
  186.7040  178.0130  143.0730 C   0  0  2  0  0  0  0  0  0  0  0  0
  187.3290  179.2350  143.3380 O   0  0  0  0  0  1  0  0  0  0  0  0
  190.1360  177.1550  141.2260 C   0  0  0  0  0  2  0  0  0  0  0  0
  191.0700  177.6940  142.2920 C   0  0  2  0  0  3  0  0  0  0  0  0
  188.4510  176.3100  142.6340 O   0  0  0  0  0  0  0  0  0  0  0  0
  187.5980  177.2590  142.0450 C   0  0  2  0  0  3  0  0  0  0  0  0
  191.8880  176.6760  142.7830 O   0  0  0  0  0  1  0  0  0  0  0  0
  189.9540  177.9990  143.2940 C   0  0  0  0  0  0  0  0  0  0  0  0
  189.0700  177.4940  142.1930 C   0  0  2  0  0  0  0  0  0  0  0  0
  189.8490  178.4430  144.4250 O   0  0  0  0  0  0  0  0  0  0  0  0
  186.5970  177.2890  144.3050 O   0  0  0  0  0  0  0  0  0  0  0  0
  186.7720  177.8620  145.5720 C   0  0  0  0  0  0  0  0  0  0  0  0
  185.7370  178.7840  146.1020 C   0  0  0  0  0  1  0  0  0  0  0  0
  187.7970  177.6050  146.2630 O   0  0  0  0  0  0  0  0  0  0  0  0
  2 20  1  0  0  0  0
  4 11  1  0  0  0  0
  5  4  1  1  0  0  0
  6  7  1  0  0  0  0
  7 13  1  0  0  0  0
  8 21  1  1  0  0  0
  8 15  1  0  0  0  0
  8  9  1  0  0  0  0
  9 13  1  0  0  0  0
 10 23  1  0  0  0  0
 11 42  1  0  0  0  0
 11 25  1  1  0  0  0
 12 11  1  0  0  0  0
 14 27  1  0  0  0  0
 15  6  1  1  0  0  0
 15 28  1  0  0  0  0
 16 18  1  0  0  0  0
 16 31  1  0  0  0  0
 17  1  1  0  0  0  0
 19 38  1  6  0  0  0
 19 29  1  0  0  0  0
 21 19  1  0  0  0  0
 22  2  1  0  0  0  0
 23  3  2  0  0  0  0
 23 22  1  0  0  0  0
 24 14  2  0  0  0  0
 24 32  1  0  0  0  0
 26 20  1  6  0  0  0
 26  5  1  0  0  0  0
 26 12  1  0  0  0  0
 27  1  1  0  0  0  0
 27 18  2  0  0  0  0
 28 10  1  6  0  0  0
 28 29  1  0  0  0  0
 29 17  1  1  0  0  0
 30 31  1  1  0  0  0
 30 26  1  0  0  0  0
 30  5  1  0  0  0  0
 32 16  2  0  0  0  0
 34 37  2  0  0  0  0
 35 38  1  0  0  0  0
 36 35  2  0  0  0  0
 36 34  1  0  0  0  0
 37 33  1  0  0  0  0
 38 33  2  0  0  0  0
 39 40  1  0  0  0  0
 39 34  1  0  0  0  0
 41 39  2  0  0  0  0
 42 43  1  1  0  0  0
 42 52  1  0  0  0  0
 44 45  1  0  0  0  0
 45 48  1  1  0  0  0
 45 49  1  0  0  0  0
 47 50  1  0  0  0  0
 47 46  1  0  0  0  0
 47 42  1  1  0  0  0
 49 51  2  0  0  0  0
 50 44  1  6  0  0  0
 50 46  1  0  0  0  0
 50 49  1  0  0  0  0
 52 53  1  0  0  0  0
 53 54  1  0  0  0  0
 53 55  2  0  0  0  0
M  END
>  <MODEL>
1

>  <REMARK>
 VINA RESULT:      -5.2      0.000      0.000
  Name = 
  6 active torsions:
  status: ('A' for Active; 'I' for Inactive)
    1  A    between atoms: C_1  and  O_53
    2  A    between atoms: C_6  and  C_14
    3  A    between atoms: C_6  and  C_20
    4  A    between atoms: C_6  and  O_53
    5  A    between atoms: C_10  and  C_32
    6  A    between atoms: C_33  and  C_52
                            x       y       z     vdW  Elec       q    Type
                         _______ _______ _______ _____ _____    ______ ____

>  <TORSDO>
F 6

$$$$
=
 OpenBabel10272401333D

 55 63  0  0  1  0  0  0  0  0999 V2000
  187.7210  175.1590  137.7130 C   0  0  0  0  0  2  0  0  0  0  0  0
  183.9330  177.3790  140.1810 C   0  0  0  0  0  2  0  0  0  0  0  0
  182.4620  177.2100  137.6730 O   0  0  0  0  0  0  0  0  0  0  0  0
  186.9880  179.2510  143.4630 O   0  0  0  0  0  0  0  0  0  0  0  0
  185.9730  179.5650  142.5360 C   0  0  2  0  0  3  0  0  0  0  0  0
  182.3520  176.1860  134.8170 C   0  0  0  0  0  2  0  0  0  0  0  0
  181.1580  175.2710  135.0720 C   0  0  0  0  0  2  0  0  0  0  0  0
  183.6100  174.0180  134.4720 C   0  0  1  0  0  3  0  0  0  0  0  0
  182.7750  173.1550  135.4370 C   0  0  0  0  0  2  0  0  0  0  0  0
  184.5550  177.1270  136.5740 C   0  0  0  0  0  2  0  0  0  0  0  0
  186.7760  177.9080  143.8220 C   0  0  2  0  0  0  0  0  0  0  0  0
  186.2200  177.2050  142.5970 C   0  0  0  0  0  2  0  0  0  0  0  0
  181.5120  174.0730  136.3940 S   0  0  0  0  0  0  0  0  0  0  0  0
  188.4040  177.4420  136.9380 C   0  0  0  0  0  3  0  0  0  0  0  0
  183.7180  175.4850  134.8680 C   0  0  2  0  0  3  0  0  0  0  0  0
  188.0910  178.4590  139.5260 C   0  0  0  0  0  0  0  0  0  0  0  0
  186.2220  174.9290  137.5800 C   0  0  0  0  0  2  0  0  0  0  0  0
  187.8460  177.1060  139.2750 C   0  0  0  0  0  3  0  0  0  0  0  0
  185.8070  173.6440  135.6500 C   0  0  2  0  0  3  0  0  0  0  0  0
  184.1460  178.2470  141.4120 C   0  0  0  0  0  2  0  0  0  0  0  0
  185.0100  173.4700  134.3480 C   0  0  0  0  0  2  0  0  0  0  0  0
  184.2070  178.1780  138.9150 C   0  0  0  0  0  2  0  0  0  0  0  0
  183.6550  177.4680  137.7220 C   0  0  0  0  0  0  0  0  0  0  0  0
  188.6440  178.7980  137.1910 C   0  0  0  0  0  3  0  0  0  0  0  0
  185.8310  177.8720  144.8370 F   0  0  0  0  0  0  0  0  0  0  0  0
  185.6230  178.3140  141.7650 C   0  0  1  0  0  0  0  0  0  0  0  0
  188.0040  176.5960  137.9820 C   0  0  0  0  0  0  0  0  0  0  0  0
  184.4550  175.6360  136.2140 C   0  0  1  0  0  3  0  0  0  0  0  0
  185.8030  175.0300  136.1820 N   0  0  1  0  0  0  0  0  0  0  0  0
  186.4410  179.4120  141.0880 C   0  0  2  0  0  3  0  0  0  0  0  0
  187.9020  179.0030  140.8990 C   0  0  0  0  0  2  0  0  0  0  0  0
  188.4840  179.3060  138.4850 C   0  0  0  0  0  3  0  0  0  0  0  0
  188.0640  173.9530  134.6070 C   0  0  0  0  0  3  0  0  0  0  0  0
  189.8450  172.3260  134.8990 C   0  0  0  0  0  0  0  0  0  0  0  0
  187.6760  171.9640  135.9290 C   0  0  0  0  0  3  0  0  0  0  0  0
  188.9870  171.5450  135.6860 C   0  0  0  0  0  3  0  0  0  0  0  0
  189.3750  173.5320  134.3610 C   0  0  0  0  0  3  0  0  0  0  0  0
  187.2080  173.1690  135.3870 C   0  0  0  0  0  0  0  0  0  0  0  0
  191.2200  171.8810  134.6270 C   0  0  0  0  0  0  0  0  0  0  0  0
  192.1400  172.7200  134.4380 O   0  0  0  0  0  0  0  0  0  0  0  0
  191.5160  170.5250  134.5620 O   0  0  0  0  0  1  0  0  0  0  0  0
  188.1190  177.2760  144.2790 C   0  0  2  0  0  0  0  0  0  0  0  0
  189.0360  178.3150  144.4590 O   0  0  0  0  0  1  0  0  0  0  0  0
  190.4960  176.2880  141.2300 C   0  0  0  0  0  2  0  0  0  0  0  0
  191.4550  177.4570  141.3450 C   0  0  2  0  0  3  0  0  0  0  0  0
  190.0760  175.9560  143.5200 O   0  0  0  0  0  0  0  0  0  0  0  0
  188.7410  176.2960  143.2400 C   0  0  2  0  0  3  0  0  0  0  0  0
  192.7510  177.0010  141.5910 O   0  0  0  0  0  1  0  0  0  0  0  0
  190.8360  178.0000  142.6340 C   0  0  0  0  0  0  0  0  0  0  0  0
  189.8880  176.8530  142.4530 C   0  0  2  0  0  0  0  0  0  0  0  0
  191.0250  178.9210  143.4110 O   0  0  0  0  0  0  0  0  0  0  0  0
  187.9140  176.6350  145.5450 O   0  0  0  0  0  0  0  0  0  0  0  0
  188.3530  177.1560  146.7700 C   0  0  0  0  0  0  0  0  0  0  0  0
  189.7230  176.8440  147.2440 C   0  0  0  0  0  1  0  0  0  0  0  0
  187.5970  177.8850  147.4720 O   0  0  0  0  0  0  0  0  0  0  0  0
  1 27  1  0  0  0  0
  2 20  1  0  0  0  0
  3 23  2  0  0  0  0
  4 11  1  0  0  0  0
  5  4  1  1  0  0  0
  6  7  1  0  0  0  0
  7 13  1  0  0  0  0
  8 21  1  1  0  0  0
  8 15  1  0  0  0  0
  8  9  1  0  0  0  0
  9 13  1  0  0  0  0
 10 23  1  0  0  0  0
 11 42  1  0  0  0  0
 11 25  1  1  0  0  0
 12 11  1  0  0  0  0
 14 24  2  0  0  0  0
 14 27  1  0  0  0  0
 15  6  1  1  0  0  0
 15 28  1  0  0  0  0
 16 31  1  0  0  0  0
 17  1  1  0  0  0  0
 18 16  1  0  0  0  0
 19 38  1  6  0  0  0
 19 29  1  0  0  0  0
 21 19  1  0  0  0  0
 22  2  1  0  0  0  0
 23 22  1  0  0  0  0
 24 32  1  0  0  0  0
 26 20  1  6  0  0  0
 26  5  1  0  0  0  0
 26 12  1  0  0  0  0
 27 18  2  0  0  0  0
 28 10  1  6  0  0  0
 29 28  1  0  0  0  0
 29 17  1  1  0  0  0
 30 31  1  1  0  0  0
 30 26  1  0  0  0  0
 30  5  1  0  0  0  0
 32 16  2  0  0  0  0
 33 38  1  0  0  0  0
 34 36  2  0  0  0  0
 36 35  1  0  0  0  0
 37 33  2  0  0  0  0
 37 34  1  0  0  0  0
 38 35  2  0  0  0  0
 39 34  1  0  0  0  0
 40 39  2  0  0  0  0
 41 39  1  0  0  0  0
 42 43  1  1  0  0  0
 42 52  1  0  0  0  0
 44 45  1  0  0  0  0
 45 48  1  1  0  0  0
 45 49  1  0  0  0  0
 47 46  1  0  0  0  0
 47 42  1  1  0  0  0
 49 51  2  0  0  0  0
 50 44  1  6  0  0  0
 50 49  1  0  0  0  0
 50 47  1  0  0  0  0
 50 46  1  0  0  0  0
 52 53  1  0  0  0  0
 53 54  1  0  0  0  0
 53 55  2  0  0  0  0
M  END
>  <MODEL>
2

>  <REMARK>
 VINA RESULT:      -4.3      1.546      2.070
  Name = 
  6 active torsions:
  status: ('A' for Active; 'I' for Inactive)
    1  A    between atoms: C_1  and  O_53
    2  A    between atoms: C_6  and  C_14
    3  A    between atoms: C_6  and  C_20
    4  A    between atoms: C_6  and  O_53
    5  A    between atoms: C_10  and  C_32
    6  A    between atoms: C_33  and  C_52
                            x       y       z     vdW  Elec       q    Type
                         _______ _______ _______ _____ _____    ______ ____

>  <TORSDO>
F 6

$$$$
=
 OpenBabel10272401333D

 55 63  0  0  1  0  0  0  0  0999 V2000
  187.5360  174.5910  137.3590 C   0  0  0  0  0  2  0  0  0  0  0  0
  183.7630  176.9930  139.6750 C   0  0  0  0  0  2  0  0  0  0  0  0
  182.2100  176.4610  137.2700 O   0  0  0  0  0  0  0  0  0  0  0  0
  186.8670  179.3610  142.5680 O   0  0  0  0  0  0  0  0  0  0  0  0
  185.8090  179.5230  141.6500 C   0  0  2  0  0  3  0  0  0  0  0  0
  182.0330  175.0760  134.5730 C   0  0  0  0  0  2  0  0  0  0  0  0
  180.8810  174.1660  134.9900 C   0  0  0  0  0  2  0  0  0  0  0  0
  183.3530  172.9210  134.4560 C   0  0  1  0  0  3  0  0  0  0  0  0
  182.5840  172.1630  135.5550 C   0  0  0  0  0  2  0  0  0  0  0  0
  184.2640  176.3000  136.1070 C   0  0  0  0  0  2  0  0  0  0  0  0
  186.7150  178.0700  143.1030 C   0  0  2  0  0  0  0  0  0  0  0  0
  186.1400  177.1990  142.0000 C   0  0  0  0  0  2  0  0  0  0  0  0
  181.3250  173.1580  136.4380 S   0  0  0  0  0  0  0  0  0  0  0  0
  188.1100  176.7750  136.2730 C   0  0  0  0  0  3  0  0  0  0  0  0
  183.4240  174.4290  134.6580 C   0  0  2  0  0  3  0  0  0  0  0  0
  187.8540  178.1050  138.7220 C   0  0  0  0  0  0  0  0  0  0  0  0
  186.0410  174.3010  137.3160 C   0  0  0  0  0  2  0  0  0  0  0  0
  187.6490  176.7240  138.6550 C   0  0  0  0  0  3  0  0  0  0  0  0
  185.6030  172.7670  135.5830 C   0  0  2  0  0  3  0  0  0  0  0  0
  183.9900  178.0180  140.7760 C   0  0  0  0  0  2  0  0  0  0  0  0
  184.7660  172.4040  134.3460 C   0  0  0  0  0  2  0  0  0  0  0  0
  183.9640  177.6320  138.3080 C   0  0  0  0  0  2  0  0  0  0  0  0
  183.3940  176.7590  137.2380 C   0  0  0  0  0  0  0  0  0  0  0  0
  188.3110  178.1590  136.3430 C   0  0  0  0  0  3  0  0  0  0  0  0
  185.8090  178.1360  144.1510 F   0  0  0  0  0  0  0  0  0  0  0  0
  185.4750  178.1740  141.0590 C   0  0  1  0  0  0  0  0  0  0  0  0
  187.7780  176.0580  137.4310 C   0  0  0  0  0  0  0  0  0  0  0  0
  184.2020  174.7730  135.9430 C   0  0  1  0  0  3  0  0  0  0  0  0
  185.5690  174.2100  135.9350 N   0  0  1  0  0  0  0  0  0  0  0  0
  186.2290  179.2000  140.2150 C   0  0  2  0  0  3  0  0  0  0  0  0
  187.6960  178.8140  140.0220 C   0  0  0  0  0  2  0  0  0  0  0  0
  188.1800  178.8240  137.5670 C   0  0  0  0  0  3  0  0  0  0  0  0
  187.8750  173.1170  134.5850 C   0  0  0  0  0  3  0  0  0  0  0  0
  189.6560  171.4860  134.8510 C   0  0  0  0  0  0  0  0  0  0  0  0
  187.4720  171.0840  135.8360 C   0  0  0  0  0  3  0  0  0  0  0  0
  188.7890  170.6760  135.6000 C   0  0  0  0  0  3  0  0  0  0  0  0
  189.1900  172.7070  134.3460 C   0  0  0  0  0  3  0  0  0  0  0  0
  187.0090  172.3050  135.3260 C   0  0  0  0  0  0  0  0  0  0  0  0
  191.0360  171.0530  134.5860 C   0  0  0  0  0  0  0  0  0  0  0  0
  191.9700  171.8960  134.5140 O   0  0  0  0  0  1  0  0  0  0  0  0
  191.3240  169.7070  134.3990 O   0  0  0  0  0  0  0  0  0  0  0  0
  188.0950  177.5420  143.5820 C   0  0  2  0  0  0  0  0  0  0  0  0
  188.0680  176.1470  143.4920 O   0  0  0  0  0  1  0  0  0  0  0  0
  189.9270  177.0220  147.0890 C   0  0  0  0  0  2  0  0  0  0  0  0
  191.0760  176.1720  146.5840 C   0  0  2  0  0  3  0  0  0  0  0  0
  189.7070  178.4500  145.2320 O   0  0  0  0  0  0  0  0  0  0  0  0
  188.4270  177.8950  145.0630 C   0  0  2  0  0  3  0  0  0  0  0  0
  192.2950  176.8030  146.8320 O   0  0  0  0  0  1  0  0  0  0  0  0
  190.7010  176.3190  145.1080 C   0  0  0  0  0  0  0  0  0  0  0  0
  189.5590  177.1180  145.6610 C   0  0  2  0  0  0  0  0  0  0  0  0
  191.1250  175.9520  144.0240 O   0  0  0  0  0  0  0  0  0  0  0  0
  189.1050  178.0280  142.6890 O   0  0  0  0  0  0  0  0  0  0  0  0
  189.8270  177.2180  141.8020 C   0  0  0  0  0  0  0  0  0  0  0  0
  191.1330  177.6920  141.2830 C   0  0  0  0  0  1  0  0  0  0  0  0
  189.3790  176.0930  141.4410 O   0  0  0  0  0  0  0  0  0  0  0  0
  1 27  1  0  0  0  0
  2 20  1  0  0  0  0
  4 11  1  0  0  0  0
  5  4  1  1  0  0  0
  6  7  1  0  0  0  0
  7 13  1  0  0  0  0
  8 21  1  1  0  0  0
  8 15  1  0  0  0  0
  8  9  1  0  0  0  0
  9 13  1  0  0  0  0
 10 23  1  0  0  0  0
 11 42  1  0  0  0  0
 11 25  1  1  0  0  0
 12 11  1  0  0  0  0
 14 24  2  0  0  0  0
 14 27  1  0  0  0  0
 15  6  1  1  0  0  0
 15 28  1  0  0  0  0
 16 31  1  0  0  0  0
 17  1  1  0  0  0  0
 18 16  1  0  0  0  0
 19 38  1  6  0  0  0
 19 29  1  0  0  0  0
 21 19  1  0  0  0  0
 22  2  1  0  0  0  0
 23  3  2  0  0  0  0
 23 22  1  0  0  0  0
 24 32  1  0  0  0  0
 26 20  1  6  0  0  0
 26  5  1  0  0  0  0
 26 12  1  0  0  0  0
 27 18  2  0  0  0  0
 28 10  1  6  0  0  0
 29 28  1  0  0  0  0
 29 17  1  1  0  0  0
 30 31  1  1  0  0  0
 30 26  1  0  0  0  0
 30  5  1  0  0  0  0
 32 16  2  0  0  0  0
 33 38  1  0  0  0  0
 34 36  2  0  0  0  0
 36 35  1  0  0  0  0
 37 33  2  0  0  0  0
 37 34  1  0  0  0  0
 38 35  2  0  0  0  0
 39 34  1  0  0  0  0
 40 39  1  0  0  0  0
 41 39  2  0  0  0  0
 42 43  1  6  0  0  0
 45 48  1  6  0  0  0
 45 44  1  0  0  0  0
 46 50  1  0  0  0  0
 47 42  1  6  0  0  0
 47 46  1  0  0  0  0
 47 50  1  0  0  0  0
 49 50  1  0  0  0  0
 49 45  1  0  0  0  0
 50 44  1  1  0  0  0
 51 49  2  0  0  0  0
 52 42  1  0  0  0  0
 53 52  1  0  0  0  0
 54 53  1  0  0  0  0
 55 53  2  0  0  0  0
M  END
>  <MODEL>
3

>  <REMARK>
 VINA RESULT:      -4.0      1.504      2.481
  Name = 
  6 active torsions:
  status: ('A' for Active; 'I' for Inactive)
    1  A    between atoms: C_1  and  O_53
    2  A    between atoms: C_6  and  C_14
    3  A    between atoms: C_6  and  C_20
    4  A    between atoms: C_6  and  O_53
    5  A    between atoms: C_10  and  C_32
    6  A    between atoms: C_33  and  C_52
                            x       y       z     vdW  Elec       q    Type
                         _______ _______ _______ _____ _____    ______ ____

>  <TORSDO>
F 6

$$$$
=
 OpenBabel10272401333D

 55 63  0  0  1  0  0  0  0  0999 V2000
  187.4790  175.3990  137.4030 C   0  0  0  0  0  2  0  0  0  0  0  0
  182.7310  175.4460  139.0850 C   0  0  0  0  0  2  0  0  0  0  0  0
  182.1000  173.8080  136.7610 O   0  0  0  0  0  0  0  0  0  0  0  0
  183.5230  179.5220  141.6080 O   0  0  0  0  0  0  0  0  0  0  0  0
  182.6970  178.9210  140.6360 C   0  0  2  0  0  3  0  0  0  0  0  0
  183.1100  172.2440  134.3630 C   0  0  0  0  0  2  0  0  0  0  0  0
  182.6280  170.8980  134.8950 C   0  0  0  0  0  2  0  0  0  0  0  0
  185.4160  171.2580  134.6980 C   0  0  1  0  0  3  0  0  0  0  0  0
  185.0640  170.3440  135.8880 C   0  0  0  0  0  2  0  0  0  0  0  0
  184.0240  174.7190  135.7290 C   0  0  0  0  0  2  0  0  0  0  0  0
  184.0520  178.4640  142.3670 C   0  0  2  0  0  0  0  0  0  0  0  0
  184.2280  177.2880  141.4220 C   0  0  0  0  0  2  0  0  0  0  0  0
  183.3560  170.5300  136.5210 S   0  0  0  0  0  0  0  0  0  0  0  0
  186.8650  177.3500  135.9550 C   0  0  0  0  0  3  0  0  0  0  0  0
  184.5960  172.5400  134.6210 C   0  0  2  0  0  3  0  0  0  0  0  0
  185.5680  178.5880  138.1040 C   0  0  0  0  0  0  0  0  0  0  0  0
  186.4310  174.2940  137.3560 C   0  0  0  0  0  2  0  0  0  0  0  0
  186.1880  177.3490  138.2850 C   0  0  0  0  0  3  0  0  0  0  0  0
  187.1790  172.5820  135.9210 C   0  0  2  0  0  3  0  0  0  0  0  0
  182.1860  176.5440  139.9850 C   0  0  0  0  0  2  0  0  0  0  0  0
  186.8740  171.6460  134.7410 C   0  0  0  0  0  2  0  0  0  0  0  0
  182.7240  175.9010  137.6320 C   0  0  0  0  0  2  0  0  0  0  0  0
  182.9010  174.7300  136.7200 C   0  0  0  0  0  0  0  0  0  0  0  0
  186.2400  178.5890  135.7750 C   0  0  0  0  0  3  0  0  0  0  0  0
  183.1320  178.1270  143.3490 F   0  0  0  0  0  0  0  0  0  0  0  0
  183.2680  177.5660  140.2920 C   0  0  1  0  0  0  0  0  0  0  0  0
  186.8390  176.7290  137.2120 C   0  0  0  0  0  0  0  0  0  0  0  0
  184.8580  173.4330  135.8490 C   0  0  1  0  0  3  0  0  0  0  0  0
  186.2890  173.7700  135.9990 N   0  0  1  0  0  0  0  0  0  0  0  0
  183.4200  178.7210  139.3030 C   0  0  2  0  0  3  0  0  0  0  0  0
  184.8590  179.2340  139.2420 C   0  0  0  0  0  2  0  0  0  0  0  0
  185.5890  179.2060  136.8490 C   0  0  0  0  0  3  0  0  0  0  0  0
  189.3890  173.1230  136.9700 C   0  0  0  0  0  3  0  0  0  0  0  0
  191.3270  173.7280  135.6350 C   0  0  0  0  0  0  0  0  0  0  0  0
  189.2090  173.2230  134.5580 C   0  0  0  0  0  3  0  0  0  0  0  0
  190.5560  173.5890  134.4720 C   0  0  0  0  0  3  0  0  0  0  0  0
  190.7350  173.4930  136.8830 C   0  0  0  0  0  3  0  0  0  0  0  0
  188.6200  172.9920  135.8100 C   0  0  0  0  0  0  0  0  0  0  0  0
  192.7390  174.1290  135.5490 C   0  0  0  0  0  0  0  0  0  0  0  0
  193.2170  174.9710  136.3570 O   0  0  0  0  0  1  0  0  0  0  0  0
  193.5610  173.5940  134.5660 O   0  0  0  0  0  0  0  0  0  0  0  0
  185.4070  178.8990  142.9890 C   0  0  2  0  0  0  0  0  0  0  0  0
  186.1130  179.6060  142.0110 O   0  0  0  0  0  1  0  0  0  0  0  0
  188.4120  176.3060  142.5730 C   0  0  0  0  0  2  0  0  0  0  0  0
  189.2120  177.0970  141.5560 C   0  0  2  0  0  3  0  0  0  0  0  0
  187.5930  178.1050  143.8480 O   0  0  0  0  0  0  0  0  0  0  0  0
  186.3110  177.7100  143.4310 C   0  0  2  0  0  3  0  0  0  0  0  0
  190.4730  177.4070  142.0630 O   0  0  0  0  0  1  0  0  0  0  0  0
  188.3050  178.3290  141.6150 C   0  0  0  0  0  0  0  0  0  0  0  0
  187.5270  177.4900  142.5840 C   0  0  2  0  0  0  0  0  0  0  0  0
  188.2500  179.4380  141.1090 O   0  0  0  0  0  0  0  0  0  0  0  0
  185.1430  179.7890  144.0810 O   0  0  0  0  0  0  0  0  0  0  0  0
  184.8590  179.3660  145.3880 C   0  0  0  0  0  0  0  0  0  0  0  0
  185.9740  179.1670  146.3450 C   0  0  0  0  0  1  0  0  0  0  0  0
  183.6700  179.1530  145.7560 O   0  0  0  0  0  0  0  0  0  0  0  0
  2 20  1  0  0  0  0
  4 11  1  0  0  0  0
  5  4  1  1  0  0  0
  6  7  1  0  0  0  0
  7 13  1  0  0  0  0
  8 21  1  1  0  0  0
  8  9  1  0  0  0  0
  9 13  1  0  0  0  0
 10 23  1  0  0  0  0
 11 42  1  0  0  0  0
 11 25  1  1  0  0  0
 12 11  1  0  0  0  0
 14 27  1  0  0  0  0
 15  6  1  1  0  0  0
 15  8  1  0  0  0  0
 15 28  1  0  0  0  0
 16 18  1  0  0  0  0
 16 31  1  0  0  0  0
 17  1  1  0  0  0  0
 19 38  1  6  0  0  0
 19 29  1  0  0  0  0
 21 19  1  0  0  0  0
 22  2  1  0  0  0  0
 23  3  2  0  0  0  0
 23 22  1  0  0  0  0
 24 14  2  0  0  0  0
 24 32  1  0  0  0  0
 26 20  1  6  0  0  0
 26  5  1  0  0  0  0
 26 12  1  0  0  0  0
 27  1  1  0  0  0  0
 27 18  2  0  0  0  0
 28 10  1  6  0  0  0
 28 29  1  0  0  0  0
 29 17  1  1  0  0  0
 30 31  1  1  0  0  0
 30 26  1  0  0  0  0
 30  5  1  0  0  0  0
 32 16  2  0  0  0  0
 34 37  2  0  0  0  0
 35 38  1  0  0  0  0
 36 35  2  0  0  0  0
 36 34  1  0  0  0  0
 37 33  1  0  0  0  0
 38 33  2  0  0  0  0
 39 34  1  0  0  0  0
 39 40  1  0  0  0  0
 41 39  2  0  0  0  0
 42 43  1  6  0  0  0
 42 52  1  0  0  0  0
 45 49  1  0  0  0  0
 45 48  1  1  0  0  0
 45 44  1  0  0  0  0
 47 42  1  6  0  0  0
 47 46  1  0  0  0  0
 49 50  1  0  0  0  0
 50 44  1  1  0  0  0
 50 47  1  0  0  0  0
 50 46  1  0  0  0  0
 51 49  2  0  0  0  0
 52 53  1  0  0  0  0
 53 55  2  0  0  0  0
 53 54  1  0  0  0  0
M  END
>  <MODEL>
4

>  <REMARK>
 VINA RESULT:      -3.6      1.722      2.353
  Name = 
  6 active torsions:
  status: ('A' for Active; 'I' for Inactive)
    1  A    between atoms: C_1  and  O_53
    2  A    between atoms: C_6  and  C_14
    3  A    between atoms: C_6  and  C_20
    4  A    between atoms: C_6  and  O_53
    5  A    between atoms: C_10  and  C_32
    6  A    between atoms: C_33  and  C_52
                            x       y       z     vdW  Elec       q    Type
                         _______ _______ _______ _____ _____    ______ ____

>  <TORSDO>
F 6

$$$$
=
 OpenBabel10272401333D

 55 63  0  0  1  0  0  0  0  0999 V2000
  187.0310  174.2360  136.9910 C   0  0  0  0  0  2  0  0  0  0  0  0
  183.1130  176.4750  139.2300 C   0  0  0  0  0  2  0  0  0  0  0  0
  181.5270  175.4920  136.9950 O   0  0  0  0  0  0  0  0  0  0  0  0
  186.0500  179.4960  141.6500 O   0  0  0  0  0  0  0  0  0  0  0  0
  184.9400  179.4300  140.7820 C   0  0  2  0  0  3  0  0  0  0  0  0
  181.3900  173.7830  134.4880 C   0  0  0  0  0  2  0  0  0  0  0  0
  180.3710  172.8100  135.0710 C   0  0  0  0  0  2  0  0  0  0  0  0
  182.9420  171.7860  134.5420 C   0  0  1  0  0  3  0  0  0  0  0  0
  182.3140  171.0860  135.7630 C   0  0  0  0  0  2  0  0  0  0  0  0
  183.5320  175.4170  135.7410 C   0  0  0  0  0  2  0  0  0  0  0  0
  186.0700  178.2690  142.3380 C   0  0  2  0  0  0  0  0  0  0  0  0
  185.5510  177.2150  141.3760 C   0  0  0  0  0  2  0  0  0  0  0  0
  180.9900  172.0370  136.5970 S   0  0  0  0  0  0  0  0  0  0  0  0
  187.3020  176.3240  135.6320 C   0  0  0  0  0  3  0  0  0  0  0  0
  182.8490  173.3060  134.5670 C   0  0  2  0  0  3  0  0  0  0  0  0
  187.0040  177.9020  137.9240 C   0  0  0  0  0  0  0  0  0  0  0  0
  185.5790  173.7820  137.0670 C   0  0  0  0  0  2  0  0  0  0  0  0
  186.9550  176.5090  138.0260 C   0  0  0  0  0  3  0  0  0  0  0  0
  185.2430  172.0130  135.5490 C   0  0  2  0  0  3  0  0  0  0  0  0
  183.2700  177.6430  140.1920 C   0  0  0  0  0  2  0  0  0  0  0  0
  184.4000  171.4150  134.4120 C   0  0  0  0  0  2  0  0  0  0  0  0
  183.1790  176.9630  137.7900 C   0  0  0  0  0  2  0  0  0  0  0  0
  182.6660  175.9110  136.8600 C   0  0  0  0  0  0  0  0  0  0  0  0
  187.3460  177.7190  135.5320 C   0  0  0  0  0  3  0  0  0  0  0  0
  185.2100  178.3620  143.4220 F   0  0  0  0  0  0  0  0  0  0  0  0
  184.7380  177.9920  140.3690 C   0  0  1  0  0  0  0  0  0  0  0  0
  187.1060  175.7190  136.8810 C   0  0  0  0  0  0  0  0  0  0  0  0
  183.6390  173.8840  135.7570 C   0  0  1  0  0  3  0  0  0  0  0  0
  185.0600  173.4750  135.7350 N   0  0  1  0  0  0  0  0  0  0  0  0
  185.3310  178.9860  139.3720 C   0  0  2  0  0  3  0  0  0  0  0  0
  186.8230  178.7410  139.1410 C   0  0  0  0  0  2  0  0  0  0  0  0
  187.1940  178.5080  136.6770 C   0  0  0  0  0  3  0  0  0  0  0  0
  187.1820  170.4280  135.6390 C   0  0  0  0  0  3  0  0  0  0  0  0
  189.3560  171.0110  134.7260 C   0  0  0  0  0  0  0  0  0  0  0  0
  187.5190  172.5950  134.6150 C   0  0  0  0  0  3  0  0  0  0  0  0
  188.8500  172.2620  134.3470 C   0  0  0  0  0  3  0  0  0  0  0  0
  188.5140  170.0970  135.3740 C   0  0  0  0  0  3  0  0  0  0  0  0
  186.6800  171.6790  135.2660 C   0  0  0  0  0  0  0  0  0  0  0  0
  190.7600  170.6630  134.4610 C   0  0  0  0  0  0  0  0  0  0  0  0
  191.1120  169.4590  134.3460 O   0  0  0  0  0  1  0  0  0  0  0  0
  191.7190  171.6620  134.3460 O   0  0  0  0  0  0  0  0  0  0  0  0
  187.5220  177.9550  142.7940 C   0  0  2  0  0  0  0  0  0  0  0  0
  187.6650  176.5650  142.8190 O   0  0  0  0  0  1  0  0  0  0  0  0
  189.1460  177.7010  146.4300 C   0  0  0  0  0  2  0  0  0  0  0  0
  190.1650  176.6230  146.1130 C   0  0  2  0  0  3  0  0  0  0  0  0
  189.2040  178.8510  144.3800 O   0  0  0  0  0  0  0  0  0  0  0  0
  187.8600  178.4730  144.2240 C   0  0  2  0  0  3  0  0  0  0  0  0
  191.4590  177.0980  146.3320 O   0  0  0  0  0  1  0  0  0  0  0  0
  189.8610  176.6020  144.6130 C   0  0  0  0  0  0  0  0  0  0  0  0
  188.8400  177.6350  144.9860 C   0  0  2  0  0  0  0  0  0  0  0  0
  190.2570  176.0190  143.6170 O   0  0  0  0  0  0  0  0  0  0  0  0
  188.4300  178.4820  141.8190 O   0  0  0  0  0  0  0  0  0  0  0  0
  189.5840  177.8170  141.3810 C   0  0  0  0  0  0  0  0  0  0  0  0
  189.4760  176.8110  140.2960 C   0  0  0  0  0  1  0  0  0  0  0  0
  190.7100  178.0640  141.8980 O   0  0  0  0  0  0  0  0  0  0  0  0
  1 17  1  0  0  0  0
  2 20  1  0  0  0  0
  4 11  1  0  0  0  0
  5  4  1  1  0  0  0
  6  7  1  0  0  0  0
  7 13  1  0  0  0  0
  8 21  1  1  0  0  0
  8 15  1  0  0  0  0
  8  9  1  0  0  0  0
  9 13  1  0  0  0  0
 10 23  1  0  0  0  0
 11 42  1  0  0  0  0
 11 25  1  1  0  0  0
 12 11  1  0  0  0  0
 14 27  1  0  0  0  0
 15  6  1  1  0  0  0
 15 28  1  0  0  0  0
 16 18  1  0  0  0  0
 16 31  1  0  0  0  0
 19 38  1  6  0  0  0
 19 29  1  0  0  0  0
 21 19  1  0  0  0  0
 22  2  1  0  0  0  0
 23  3  2  0  0  0  0
 23 22  1  0  0  0  0
 24 14  2  0  0  0  0
 24 32  1  0  0  0  0
 26 20  1  6  0  0  0
 26  5  1  0  0  0  0
 26 12  1  0  0  0  0
 27  1  1  0  0  0  0
 27 18  2  0  0  0  0
 28 10  1  6  0  0  0
 29 28  1  0  0  0  0
 29 17  1  1  0  0  0
 30 31  1  1  0  0  0
 30 26  1  0  0  0  0
 30  5  1  0  0  0  0
 32 16  2  0  0  0  0
 34 37  2  0  0  0  0
 35 38  1  0  0  0  0
 36 35  2  0  0  0  0
 36 34  1  0  0  0  0
 37 33  1  0  0  0  0
 38 33  2  0  0  0  0
 39 34  1  0  0  0  0
 40 39  1  0  0  0  0
 41 39  2  0  0  0  0
 42 43  1  1  0  0  0
 45 48  1  6  0  0  0
 45 44  1  0  0  0  0
 46 50  1  0  0  0  0
 47 42  1  6  0  0  0
 47 46  1  0  0  0  0
 47 50  1  0  0  0  0
 49 50  1  0  0  0  0
 49 45  1  0  0  0  0
 50 44  1  1  0  0  0
 51 49  2  0  0  0  0
 52 42  1  0  0  0  0
 53 52  1  0  0  0  0
 53 55  2  0  0  0  0
 54 53  1  0  0  0  0
M  END
>  <MODEL>
5

>  <REMARK>
 VINA RESULT:      -3.6      1.090      2.093
  Name = 
  6 active torsions:
  status: ('A' for Active; 'I' for Inactive)
    1  A    between atoms: C_1  and  O_53
    2  A    between atoms: C_6  and  C_14
    3  A    between atoms: C_6  and  C_20
    4  A    between atoms: C_6  and  O_53
    5  A    between atoms: C_10  and  C_32
    6  A    between atoms: C_33  and  C_52
                            x       y       z     vdW  Elec       q    Type
                         _______ _______ _______ _____ _____    ______ ____

>  <TORSDO>
F 6

$$$$
=
 OpenBabel10272401333D

 55 63  0  0  1  0  0  0  0  0999 V2000
  187.3780  175.4280  137.3980 C   0  0  0  0  0  2  0  0  0  0  0  0
  182.6060  175.5020  139.0080 C   0  0  0  0  0  2  0  0  0  0  0  0
  182.0090  173.8250  136.7030 O   0  0  0  0  0  0  0  0  0  0  0  0
  183.3610  179.6190  141.4750 O   0  0  0  0  0  0  0  0  0  0  0  0
  182.5490  179.0020  140.5010 C   0  0  2  0  0  3  0  0  0  0  0  0
  183.0540  172.2220  134.3460 C   0  0  0  0  0  2  0  0  0  0  0  0
  182.5640  170.8850  134.8940 C   0  0  0  0  0  2  0  0  0  0  0  0
  185.3550  171.2430  134.7310 C   0  0  1  0  0  3  0  0  0  0  0  0
  184.9860  170.3480  135.9310 C   0  0  0  0  0  2  0  0  0  0  0  0
  183.9480  174.7190  135.6850 C   0  0  0  0  0  2  0  0  0  0  0  0
  183.8790  178.5730  142.2590 C   0  0  2  0  0  0  0  0  0  0  0  0
  184.0690  177.3820  141.3370 C   0  0  0  0  0  2  0  0  0  0  0  0
  183.2690  170.5440  136.5360 S   0  0  0  0  0  0  0  0  0  0  0  0
  186.7860  177.3540  135.9090 C   0  0  0  0  0  3  0  0  0  0  0  0
  184.5360  172.5220  134.6210 C   0  0  2  0  0  3  0  0  0  0  0  0
  185.4570  178.6280  138.0170 C   0  0  0  0  0  0  0  0  0  0  0  0
  186.3310  174.3220  137.3540 C   0  0  0  0  0  2  0  0  0  0  0  0
  186.0740  177.3920  138.2280 C   0  0  0  0  0  3  0  0  0  0  0  0
  187.0990  172.5870  135.9580 C   0  0  2  0  0  3  0  0  0  0  0  0
  182.0480  176.6150  139.8820 C   0  0  0  0  0  2  0  0  0  0  0  0
  186.8120  171.6310  134.7900 C   0  0  0  0  0  2  0  0  0  0  0  0
  182.6200  175.9320  137.5490 C   0  0  0  0  0  2  0  0  0  0  0  0
  182.8100  174.7460  136.6590 C   0  0  0  0  0  0  0  0  0  0  0  0
  186.1630  178.5900  135.6990 C   0  0  0  0  0  3  0  0  0  0  0  0
  182.9440  178.2530  143.2330 F   0  0  0  0  0  0  0  0  0  0  0  0
  183.1250  177.6410  140.1880 C   0  0  1  0  0  0  0  0  0  0  0  0
  186.7400  176.7550  137.1750 C   0  0  0  0  0  0  0  0  0  0  0  0
  184.7800  173.4360  135.8380 C   0  0  1  0  0  3  0  0  0  0  0  0
  186.2090  173.7750  136.0030 N   0  0  1  0  0  0  0  0  0  0  0  0
  183.2920  178.7800  139.1830 C   0  0  2  0  0  3  0  0  0  0  0  0
  184.7310  179.2930  139.1340 C   0  0  0  0  0  2  0  0  0  0  0  0
  185.4960  179.2250  136.7520 C   0  0  0  0  0  3  0  0  0  0  0  0
  189.0890  173.2950  134.6090 C   0  0  0  0  0  3  0  0  0  0  0  0
  191.2300  173.7900  135.6450 C   0  0  0  0  0  0  0  0  0  0  0  0
  189.3420  173.1000  137.0080 C   0  0  0  0  0  3  0  0  0  0  0  0
  190.6780  173.4950  136.9010 C   0  0  0  0  0  3  0  0  0  0  0  0
  190.4270  173.6870  134.5020 C   0  0  0  0  0  3  0  0  0  0  0  0
  188.5420  172.9950  135.8610 C   0  0  0  0  0  0  0  0  0  0  0  0
  192.6400  174.1900  135.5260 C   0  0  0  0  0  0  0  0  0  0  0  0
  193.0070  175.3500  135.8550 O   0  0  0  0  0  1  0  0  0  0  0  0
  193.5820  173.2950  135.0360 O   0  0  0  0  0  0  0  0  0  0  0  0
  185.2250  179.0200  142.8940 C   0  0  2  0  0  0  0  0  0  0  0  0
  185.1360  180.3910  143.1520 O   0  0  0  0  0  1  0  0  0  0  0  0
  188.9970  177.9950  142.0900 C   0  0  0  0  0  2  0  0  0  0  0  0
  189.2270  177.1280  143.3130 C   0  0  2  0  0  3  0  0  0  0  0  0
  186.7400  177.4600  141.7030 O   0  0  0  0  0  0  0  0  0  0  0  0
  186.4600  178.8110  141.9670 C   0  0  2  0  0  3  0  0  0  0  0  0
  189.5270  175.8190  142.9320 O   0  0  0  0  0  1  0  0  0  0  0  0
  187.7800  177.2130  143.8010 C   0  0  0  0  0  0  0  0  0  0  0  0
  187.6140  178.0980  142.6010 C   0  0  2  0  0  0  0  0  0  0  0  0
  187.1070  176.7790  144.7210 O   0  0  0  0  0  0  0  0  0  0  0  0
  185.3880  178.3390  144.1440 O   0  0  0  0  0  0  0  0  0  0  0  0
  184.9590  178.8470  145.3780 C   0  0  0  0  0  0  0  0  0  0  0  0
  185.9670  179.2740  146.3780 C   0  0  0  0  0  1  0  0  0  0  0  0
  183.7280  178.9440  145.6460 O   0  0  0  0  0  0  0  0  0  0  0  0
  2 20  1  0  0  0  0
  4 11  1  0  0  0  0
  5  4  1  1  0  0  0
  6  7  1  0  0  0  0
  7 13  1  0  0  0  0
  8 21  1  1  0  0  0
  8  9  1  0  0  0  0
  9 13  1  0  0  0  0
 10 23  1  0  0  0  0
 11 42  1  0  0  0  0
 11 25  1  1  0  0  0
 12 11  1  0  0  0  0
 14 27  1  0  0  0  0
 15  6  1  1  0  0  0
 15  8  1  0  0  0  0
 15 28  1  0  0  0  0
 16 18  1  0  0  0  0
 16 31  1  0  0  0  0
 17  1  1  0  0  0  0
 19 38  1  6  0  0  0
 19 29  1  0  0  0  0
 21 19  1  0  0  0  0
 22  2  1  0  0  0  0
 23  3  2  0  0  0  0
 23 22  1  0  0  0  0
 24 14  2  0  0  0  0
 24 32  1  0  0  0  0
 26 20  1  6  0  0  0
 26  5  1  0  0  0  0
 26 12  1  0  0  0  0
 27  1  1  0  0  0  0
 27 18  2  0  0  0  0
 28 10  1  6  0  0  0
 28 29  1  0  0  0  0
 29 17  1  1  0  0  0
 30 31  1  1  0  0  0
 30 26  1  0  0  0  0
 30  5  1  0  0  0  0
 32 16  2  0  0  0  0
 33 38  1  0  0  0  0
 34 36  2  0  0  0  0
 36 35  1  0  0  0  0
 37 33  2  0  0  0  0
 37 34  1  0  0  0  0
 38 35  2  0  0  0  0
 39 34  1  0  0  0  0
 39 40  1  0  0  0  0
 41 39  2  0  0  0  0
 42 43  1  1  0  0  0
 42 52  1  0  0  0  0
 44 45  1  0  0  0  0
 45 48  1  6  0  0  0
 45 49  1  0  0  0  0
 46 47  1  0  0  0  0
 46 50  1  0  0  0  0
 47 50  1  0  0  0  0
 47 42  1  1  0  0  0
 49 51  2  0  0  0  0
 50 44  1  6  0  0  0
 50 49  1  0  0  0  0
 52 53  1  0  0  0  0
 53 55  2  0  0  0  0
 53 54  1  0  0  0  0
M  END
>  <MODEL>
6

>  <REMARK>
 VINA RESULT:      -3.4      1.709      2.362
  Name = 
  6 active torsions:
  status: ('A' for Active; 'I' for Inactive)
    1  A    between atoms: C_1  and  O_53
    2  A    between atoms: C_6  and  C_14
    3  A    between atoms: C_6  and  C_20
    4  A    between atoms: C_6  and  O_53
    5  A    between atoms: C_10  and  C_32
    6  A    between atoms: C_33  and  C_52
                            x       y       z     vdW  Elec       q    Type
                         _______ _______ _______ _____ _____    ______ ____

>  <TORSDO>
F 6

$$$$
=
 OpenBabel10272401333D

 55 63  0  0  1  0  0  0  0  0999 V2000
  186.6790  174.3610  137.2920 C   0  0  0  0  0  2  0  0  0  0  0  0
  184.2200  178.0500  139.6820 C   0  0  0  0  0  2  0  0  0  0  0  0
  182.4580  178.1090  137.3650 O   0  0  0  0  0  0  0  0  0  0  0  0
  188.1350  179.1090  142.3590 O   0  0  0  0  0  0  0  0  0  0  0  0
  187.1700  179.6460  141.4810 C   0  0  2  0  0  3  0  0  0  0  0  0
  181.6300  176.8540  134.7270 C   0  0  0  0  0  2  0  0  0  0  0  0
  180.2440  176.4550  135.2230 C   0  0  0  0  0  2  0  0  0  0  0  0
  182.0300  174.3580  134.6270 C   0  0  1  0  0  3  0  0  0  0  0  0
  181.0900  173.9650  135.7830 C   0  0  0  0  0  2  0  0  0  0  0  0
  184.2350  177.1640  136.1220 C   0  0  0  0  0  2  0  0  0  0  0  0
  187.5340  177.9800  142.9440 C   0  0  2  0  0  0  0  0  0  0  0  0
  186.6170  177.3750  141.8960 C   0  0  0  0  0  2  0  0  0  0  0  0
  180.3480  175.3760  136.6840 S   0  0  0  0  0  0  0  0  0  0  0  0
  187.9780  176.1480  136.1090 C   0  0  0  0  0  3  0  0  0  0  0  0
  182.6760  175.7290  134.7750 C   0  0  2  0  0  3  0  0  0  0  0  0
  188.3730  177.5130  138.5200 C   0  0  0  0  0  0  0  0  0  0  0  0
  185.1850  174.6590  137.3220 C   0  0  0  0  0  2  0  0  0  0  0  0
  187.6570  176.3130  138.5080 C   0  0  0  0  0  3  0  0  0  0  0  0
  184.1100  173.3800  135.6620 C   0  0  2  0  0  3  0  0  0  0  0  0
  184.8750  178.9290  140.7370 C   0  0  0  0  0  2  0  0  0  0  0  0
  183.1350  173.3410  134.4750 C   0  0  0  0  0  2  0  0  0  0  0  0
  184.5760  178.5440  138.2870 C   0  0  0  0  0  2  0  0  0  0  0  0
  183.6630  177.9360  137.2720 C   0  0  0  0  0  0  0  0  0  0  0  0
  188.6910  177.3530  136.1230 C   0  0  0  0  0  3  0  0  0  0  0  0
  186.7760  178.4010  144.0260 F   0  0  0  0  0  0  0  0  0  0  0  0
  186.3210  178.5150  140.9510 C   0  0  1  0  0  0  0  0  0  0  0  0
  187.4610  175.6280  137.3040 C   0  0  0  0  0  0  0  0  0  0  0  0
  183.5930  175.7720  136.0130 C   0  0  1  0  0  3  0  0  0  0  0  0
  184.6430  174.7320  135.9660 N   0  0  1  0  0  0  0  0  0  0  0  0
  187.3620  179.1660  140.0420 C   0  0  2  0  0  3  0  0  0  0  0  0
  188.5620  178.2490  139.8000 C   0  0  0  0  0  2  0  0  0  0  0  0
  188.8850  178.0370  137.3280 C   0  0  0  0  0  3  0  0  0  0  0  0
  185.0930  171.0760  135.7440 C   0  0  0  0  0  3  0  0  0  0  0  0
  187.2710  170.5770  134.7890 C   0  0  0  0  0  0  0  0  0  0  0  0
  186.3770  172.8330  134.6850 C   0  0  0  0  0  3  0  0  0  0  0  0
  187.3960  171.9190  134.4000 C   0  0  0  0  0  3  0  0  0  0  0  0
  186.1140  170.1630  135.4630 C   0  0  0  0  0  3  0  0  0  0  0  0
  185.2220  172.4150  135.3620 C   0  0  0  0  0  0  0  0  0  0  0  0
  188.3470  169.6160  134.5060 C   0  0  0  0  0  0  0  0  0  0  0  0
  188.1000  168.3840  134.4180 O   0  0  0  0  0  1  0  0  0  0  0  0
  189.6550  170.0570  134.3460 O   0  0  0  0  0  0  0  0  0  0  0  0
  188.6350  176.9760  143.3810 C   0  0  2  0  0  0  0  0  0  0  0  0
  188.0000  175.7880  143.7530 O   0  0  0  0  0  1  0  0  0  0  0  0
  189.1180  178.4070  147.0750 C   0  0  0  0  0  2  0  0  0  0  0  0
  187.7410  178.0520  147.6020 C   0  0  2  0  0  3  0  0  0  0  0  0
  189.4500  176.5400  145.6820 O   0  0  0  0  0  0  0  0  0  0  0  0
  189.4690  177.4480  144.6100 C   0  0  2  0  0  3  0  0  0  0  0  0
  187.8440  177.1730  148.6810 O   0  0  0  0  0  1  0  0  0  0  0  0
  187.3180  177.2910  146.3440 C   0  0  0  0  0  0  0  0  0  0  0  0
  188.6740  177.7020  145.8540 C   0  0  2  0  0  0  0  0  0  0  0  0
  186.3470  176.6680  145.9460 O   0  0  0  0  0  0  0  0  0  0  0  0
  189.4760  176.7000  142.2540 O   0  0  0  0  0  0  0  0  0  0  0  0
  190.8760  176.7720  142.2810 C   0  0  0  0  0  0  0  0  0  0  0  0
  191.6390  175.7880  143.0860 C   0  0  0  0  0  1  0  0  0  0  0  0
  191.4910  177.6640  141.6300 O   0  0  0  0  0  0  0  0  0  0  0  0
  1 27  1  0  0  0  0
  1 17  1  0  0  0  0
  2 20  1  0  0  0  0
  4 11  1  0  0  0  0
  5  4  1  1  0  0  0
  6  7  1  0  0  0  0
  7 13  1  0  0  0  0
  8 21  1  1  0  0  0
  8 15  1  0  0  0  0
  8  9  1  0  0  0  0
  9 13  1  0  0  0  0
 10 23  1  0  0  0  0
 11 42  1  0  0  0  0
 11 25  1  1  0  0  0
 12 11  1  0  0  0  0
 14 24  2  0  0  0  0
 14 27  1  0  0  0  0
 15  6  1  1  0  0  0
 15 28  1  0  0  0  0
 16 31  1  0  0  0  0
 18 16  1  0  0  0  0
 19 38  1  6  0  0  0
 19 29  1  0  0  0  0
 21 19  1  0  0  0  0
 22  2  1  0  0  0  0
 23  3  2  0  0  0  0
 23 22  1  0  0  0  0
 24 32  1  0  0  0  0
 26 20  1  6  0  0  0
 26  5  1  0  0  0  0
 26 12  1  0  0  0  0
 27 18  2  0  0  0  0
 28 10  1  6  0  0  0
 29 28  1  0  0  0  0
 29 17  1  1  0  0  0
 30 31  1  1  0  0  0
 30 26  1  0  0  0  0
 30  5  1  0  0  0  0
 32 16  2  0  0  0  0
 34 37  2  0  0  0  0
 35 38  1  0  0  0  0
 36 35  2  0  0  0  0
 36 34  1  0  0  0  0
 37 33  1  0  0  0  0
 38 33  2  0  0  0  0
 39 34  1  0  0  0  0
 40 39  1  0  0  0  0
 41 39  2  0  0  0  0
 42 43  1  1  0  0  0
 44 45  1  0  0  0  0
 45 48  1  1  0  0  0
 46 50  1  0  0  0  0
 47 42  1  6  0  0  0
 47 46  1  0  0  0  0
 47 50  1  0  0  0  0
 49 45  1  0  0  0  0
 50 49  1  0  0  0  0
 50 44  1  1  0  0  0
 51 49  2  0  0  0  0
 52 53  1  0  0  0  0
 52 42  1  0  0  0  0
 53 54  1  0  0  0  0
 55 53  2  0  0  0  0
M  END
>  <MODEL>
7

>  <REMARK>
 VINA RESULT:      -3.3      1.677      3.175
  Name = 
  6 active torsions:
  status: ('A' for Active; 'I' for Inactive)
    1  A    between atoms: C_1  and  O_53
    2  A    between atoms: C_6  and  C_14
    3  A    between atoms: C_6  and  C_20
    4  A    between atoms: C_6  and  O_53
    5  A    between atoms: C_10  and  C_32
    6  A    between atoms: C_33  and  C_52
                            x       y       z     vdW  Elec       q    Type
                         _______ _______ _______ _____ _____    ______ ____

>  <TORSDO>
F 6

$$$$
=
 OpenBabel10272401333D

 55 63  0  0  1  0  0  0  0  0999 V2000
  187.0030  174.4340  136.8080 C   0  0  0  0  0  2  0  0  0  0  0  0
  182.6040  175.7170  138.8980 C   0  0  0  0  0  2  0  0  0  0  0  0
  181.3630  174.2060  136.7400 O   0  0  0  0  0  0  0  0  0  0  0  0
  184.6130  179.5560  141.0960 O   0  0  0  0  0  0  0  0  0  0  0  0
  183.5730  179.1450  140.2370 C   0  0  2  0  0  3  0  0  0  0  0  0
  181.7160  172.3560  134.3580 C   0  0  0  0  0  2  0  0  0  0  0  0
  180.9760  171.1920  135.0100 C   0  0  0  0  0  2  0  0  0  0  0  0
  183.7340  170.8420  134.5460 C   0  0  1  0  0  3  0  0  0  0  0  0
  183.2910  170.0860  135.8140 C   0  0  0  0  0  2  0  0  0  0  0  0
  183.3380  174.5730  135.4890 C   0  0  0  0  0  2  0  0  0  0  0  0
  184.9430  178.4270  141.8660 C   0  0  2  0  0  0  0  0  0  0  0  0
  184.7310  177.2110  140.9810 C   0  0  0  0  0  2  0  0  0  0  0  0
  181.7520  170.7120  136.5840 S   0  0  0  0  0  0  0  0  0  0  0  0
  186.7420  176.4230  135.3080 C   0  0  0  0  0  3  0  0  0  0  0  0
  183.2470  172.2830  134.4650 C   0  0  2  0  0  3  0  0  0  0  0  0
  186.0070  178.0200  137.4850 C   0  0  0  0  0  0  0  0  0  0  0  0
  185.7190  173.6230  136.9200 C   0  0  0  0  0  2  0  0  0  0  0  0
  186.3220  176.6730  137.6840 C   0  0  0  0  0  3  0  0  0  0  0  0
  185.8790  171.7290  135.5280 C   0  0  2  0  0  3  0  0  0  0  0  0
  182.4360  176.9480  139.7760 C   0  0  0  0  0  2  0  0  0  0  0  0
  185.2390  170.8570  134.4370 C   0  0  0  0  0  2  0  0  0  0  0  0
  182.5620  176.1070  137.4270 C   0  0  0  0  0  2  0  0  0  0  0  0
  182.3560  174.8980  136.5740 C   0  0  0  0  0  0  0  0  0  0  0  0
  186.4230  177.7720  135.1110 C   0  0  0  0  0  3  0  0  0  0  0  0
  184.0710  178.3640  142.9430 F   0  0  0  0  0  0  0  0  0  0  0  0
  183.7590  177.6790  139.9250 C   0  0  1  0  0  0  0  0  0  0  0  0
  186.6910  175.8740  136.5960 C   0  0  0  0  0  0  0  0  0  0  0  0
  183.8400  173.1260  135.6110 C   0  0  1  0  0  3  0  0  0  0  0  0
  185.3190  173.1020  135.6130 N   0  0  1  0  0  0  0  0  0  0  0  0
  184.0880  178.7240  138.8600 C   0  0  2  0  0  3  0  0  0  0  0  0
  185.5950  178.8620  138.6420 C   0  0  0  0  0  2  0  0  0  0  0  0
  186.0520  178.5690  136.1990 C   0  0  0  0  0  3  0  0  0  0  0  0
  187.9110  172.8580  134.5920 C   0  0  0  0  0  3  0  0  0  0  0  0
  190.1250  171.8760  134.7830 C   0  0  0  0  0  0  0  0  0  0  0  0
  188.1940  170.7270  135.7040 C   0  0  0  0  0  3  0  0  0  0  0  0
  189.5700  170.7830  135.4640 C   0  0  0  0  0  3  0  0  0  0  0  0
  189.2870  172.9110  134.3490 C   0  0  0  0  0  3  0  0  0  0  0  0
  187.3590  171.7640  135.2650 C   0  0  0  0  0  0  0  0  0  0  0  0
  191.5700  171.9300  134.5130 C   0  0  0  0  0  0  0  0  0  0  0  0
  192.1500  173.0370  134.3460 O   0  0  0  0  0  0  0  0  0  0  0  0
  192.3110  170.7580  134.4270 O   0  0  0  0  0  1  0  0  0  0  0  0
  186.4180  178.5350  142.3390 C   0  0  2  0  0  0  0  0  0  0  0  0
  186.7990  179.8750  142.2310 O   0  0  0  0  0  1  0  0  0  0  0  0
  190.0390  177.2530  141.2550 C   0  0  0  0  0  2  0  0  0  0  0  0
  190.7570  177.5820  142.5500 C   0  0  2  0  0  3  0  0  0  0  0  0
  187.9660  176.6060  142.1600 O   0  0  0  0  0  0  0  0  0  0  0  0
  187.4190  177.7070  141.4790 C   0  0  2  0  0  3  0  0  0  0  0  0
  191.2850  176.4240  143.1210 O   0  0  0  0  0  1  0  0  0  0  0  0
  189.4870  178.0020  143.2930 C   0  0  0  0  0  0  0  0  0  0  0  0
  188.8310  177.7010  141.9790 C   0  0  2  0  0  0  0  0  0  0  0  0
  189.1780  178.3950  144.4060 O   0  0  0  0  0  0  0  0  0  0  0  0
  186.4830  178.1610  143.7210 O   0  0  0  0  0  0  0  0  0  0  0  0
  185.8210  178.8440  144.7510 C   0  0  0  0  0  0  0  0  0  0  0  0
  185.7220  178.2170  146.0920 C   0  0  0  0  0  1  0  0  0  0  0  0
  185.3080  179.9810  144.5500 O   0  0  0  0  0  0  0  0  0  0  0  0
  1 17  1  0  0  0  0
  2 20  1  0  0  0  0
  4 11  1  0  0  0  0
  5  4  1  1  0  0  0
  6  7  1  0  0  0  0
  7 13  1  0  0  0  0
  8 21  1  1  0  0  0
  8  9  1  0  0  0  0
  9 13  1  0  0  0  0
 10 23  1  0  0  0  0
 11 42  1  0  0  0  0
 11 25  1  1  0  0  0
 12 11  1  0  0  0  0
 14 27  1  0  0  0  0
 15  6  1  1  0  0  0
 15  8  1  0  0  0  0
 15 28  1  0  0  0  0
 16 18  1  0  0  0  0
 16 31  1  0  0  0  0
 19 38  1  6  0  0  0
 19 29  1  0  0  0  0
 21 19  1  0  0  0  0
 22  2  1  0  0  0  0
 23  3  2  0  0  0  0
 23 22  1  0  0  0  0
 24 14  2  0  0  0  0
 24 32  1  0  0  0  0
 26 20  1  6  0  0  0
 26  5  1  0  0  0  0
 26 12  1  0  0  0  0
 27  1  1  0  0  0  0
 27 18  2  0  0  0  0
 28 10  1  6  0  0  0
 28 29  1  0  0  0  0
 29 17  1  1  0  0  0
 30 31  1  1  0  0  0
 30 26  1  0  0  0  0
 30  5  1  0  0  0  0
 32 16  2  0  0  0  0
 33 38  1  0  0  0  0
 34 36  2  0  0  0  0
 36 35  1  0  0  0  0
 37 33  2  0  0  0  0
 37 34  1  0  0  0  0
 38 35  2  0  0  0  0
 39 34  1  0  0  0  0
 40 39  2  0  0  0  0
 41 39  1  0  0  0  0
 42 43  1  6  0  0  0
 42 52  1  0  0  0  0
 44 45  1  0  0  0  0
 45 48  1  1  0  0  0
 45 49  1  0  0  0  0
 47 50  1  0  0  0  0
 47 46  1  0  0  0  0
 47 42  1  1  0  0  0
 49 51  2  0  0  0  0
 50 44  1  6  0  0  0
 50 46  1  0  0  0  0
 50 49  1  0  0  0  0
 52 53  1  0  0  0  0
 53 54  1  0  0  0  0
 55 53  2  0  0  0  0
M  END
>  <MODEL>
8

>  <REMARK>
 VINA RESULT:      -3.2      1.034      1.383
  Name = 
  6 active torsions:
  status: ('A' for Active; 'I' for Inactive)
    1  A    between atoms: C_1  and  O_53
    2  A    between atoms: C_6  and  C_14
    3  A    between atoms: C_6  and  C_20
    4  A    between atoms: C_6  and  O_53
    5  A    between atoms: C_10  and  C_32
    6  A    between atoms: C_33  and  C_52
                            x       y       z     vdW  Elec       q    Type
                         _______ _______ _______ _____ _____    ______ ____

>  <TORSDO>
F 6

$$$$
