=
 OpenBabel10262423403D

 34 40  0  0  1  0  0  0  0  0999 V2000
  190.3190  176.8900  146.5810 N   0  0  1  0  0  0  0  0  0  0  0  0
  191.2370  175.3680  144.9720 C   0  0  1  0  0  3  0  0  0  0  0  0
  189.6690  177.2550  144.1900 C   0  0  0  0  0  0  0  0  0  0  0  0
  188.9390  177.8010  141.9380 C   0  0  0  0  0  0  0  0  0  0  0  0
  192.3230  175.6730  147.2000 C   0  0  0  0  0  3  0  0  0  0  0  0
  192.2190  174.9770  146.0540 C   0  0  0  0  0  3  0  0  0  0  0  0
  191.5820  177.4010  142.0900 S   0  0  0  0  0  0  0  0  0  0  0  0
  190.7590  176.8220  145.1750 C   0  0  1  0  0  3  0  0  0  0  0  0
  189.3670  177.9070  140.2120 S   0  0  0  0  0  0  0  0  0  0  0  0
  191.5140  176.9290  147.4170 C   0  0  0  0  0  2  0  0  0  0  0  0
  188.3800  177.6270  144.6680 C   0  0  0  0  0  0  0  0  0  0  0  0
  189.5060  178.0650  146.8350 C   0  0  0  0  0  2  0  0  0  0  0  0
  191.8080  175.1390  143.7400 F   0  0  0  0  0  0  0  0  0  0  0  0
  187.6360  177.9910  142.3840 C   0  0  0  0  0  3  0  0  0  0  0  0
  187.3370  177.9220  143.7510 C   0  0  0  0  0  0  0  0  0  0  0  0
  190.8290  176.8630  140.5240 C   0  0  1  0  0  3  0  0  0  0  0  0
  189.9520  177.4690  142.8220 C   0  0  0  0  0  0  0  0  0  0  0  0
  188.1720  177.8340  146.1460 C   0  0  0  0  0  2  0  0  0  0  0  0
  183.6030  178.6210  143.6360 C   0  0  0  0  0  0  0  0  0  0  0  0
  183.3090  178.7590  144.9950 C   0  0  0  0  0  3  0  0  0  0  0  0
  185.9380  178.1870  144.1750 C   0  0  0  0  0  0  0  0  0  0  0  0
  184.3230  178.6200  145.9450 C   0  0  0  0  0  3  0  0  0  0  0  0
  184.9110  178.3420  143.2290 C   0  0  0  0  0  3  0  0  0  0  0  0
  185.6300  178.3400  145.5370 C   0  0  0  0  0  3  0  0  0  0  0  0
  182.6220  178.7590  142.7130 F   0  0  0  0  0  0  0  0  0  0  0  0
  191.7880  177.0190  139.4460 N   0  0  0  0  0  2  0  0  0  0  0  0
  191.1770  176.4640  138.2480 C   0  0  0  0  0  2  0  0  0  0  0  0
  193.5530  175.9520  137.3470 C   0  0  0  0  0  2  0  0  0  0  0  0
  192.1290  175.5330  137.5740 C   0  0  0  0  0  0  0  0  0  0  0  0
  194.5230  174.8130  137.6980 C   0  0  1  0  0  3  0  0  0  0  0  0
  194.0810  173.4430  137.2540 C   0  0  1  0  0  3  0  0  0  0  0  0
  192.7290  173.4040  136.5240 C   0  0  0  0  0  2  0  0  0  0  0  0
  191.7360  174.3170  137.1820 C   0  0  0  0  0  3  0  0  0  0  0  0
  194.9900  174.2190  136.5090 O   0  0  0  0  0  0  0  0  0  0  0  0
  1 12  1  6  0  0  0
  1 10  1  0  0  0  0
  2 13  1  6  0  0  0
  2  8  1  0  0  0  0
  2  6  1  0  0  0  0
  3 11  1  0  0  0  0
  4 14  2  0  0  0  0
  4 17  1  0  0  0  0
  5 10  1  0  0  0  0
  6  5  2  0  0  0  0
  7 17  1  0  0  0  0
  8  3  1  6  0  0  0
  8  1  1  0  0  0  0
  9 16  1  0  0  0  0
  9  4  1  0  0  0  0
 11 18  1  0  0  0  0
 14 15  1  0  0  0  0
 15 21  1  0  0  0  0
 15 11  2  0  0  0  0
 16 26  1  6  0  0  0
 16  7  1  0  0  0  0
 17  3  2  0  0  0  0
 18 12  1  0  0  0  0
 19 20  1  0  0  0  0
 20 22  2  0  0  0  0
 21 24  2  0  0  0  0
 23 19  2  0  0  0  0
 23 21  1  0  0  0  0
 24 22  1  0  0  0  0
 25 19  1  0  0  0  0
 27 26  1  0  0  0  0
 28 29  1  0  0  0  0
 29 27  1  0  0  0  0
 30 28  1  6  0  0  0
 31 32  1  6  0  0  0
 31 30  1  0  0  0  0
 32 33  1  0  0  0  0
 33 29  2  0  0  0  0
 34 31  1  0  0  0  0
 34 30  1  0  0  0  0
M  END
>  <MODEL>
1

>  <REMARK>
 VINA RESULT:     -10.3      0.000      0.000
  Name = 
  4 active torsions:
  status: ('A' for Active; 'I' for Inactive)
    1  A    between atoms: C_3  and  C_13
    2  A    between atoms: C_3  and  N_17
    3  A    between atoms: C_12  and  C_28
    4  A    between atoms: N_17  and  C_29
                            x       y       z     vdW  Elec       q    Type
                         _______ _______ _______ _____ _____    ______ ____

>  <TORSDO>
F 4

$$$$
=
 OpenBabel10262423403D

 34 40  0  0  1  0  0  0  0  0999 V2000
  190.1800  176.9160  146.3760 N   0  0  1  0  0  0  0  0  0  0  0  0
  191.0810  175.3970  144.7540 C   0  0  1  0  0  3  0  0  0  0  0  0
  189.5140  177.2930  143.9900 C   0  0  0  0  0  0  0  0  0  0  0  0
  188.7690  177.8500  141.7460 C   0  0  0  0  0  0  0  0  0  0  0  0
  192.1850  175.6900  146.9750 C   0  0  0  0  0  3  0  0  0  0  0  0
  192.0700  174.9990  145.8260 C   0  0  0  0  0  3  0  0  0  0  0  0
  191.4120  177.4420  141.8780 S   0  0  0  0  0  0  0  0  0  0  0  0
  190.6090  176.8520  144.9660 C   0  0  1  0  0  3  0  0  0  0  0  0
  189.1860  177.9630  140.0180 S   0  0  0  0  0  0  0  0  0  0  0  0
  191.3810  176.9470  147.2030 C   0  0  0  0  0  2  0  0  0  0  0  0
  188.2300  177.6670  144.4790 C   0  0  0  0  0  0  0  0  0  0  0  0
  189.3720  178.0920  146.6400 C   0  0  0  0  0  2  0  0  0  0  0  0
  191.6430  175.1710  143.5160 F   0  0  0  0  0  0  0  0  0  0  0  0
  187.4710  178.0430  142.2020 C   0  0  0  0  0  3  0  0  0  0  0  0
  187.1800  177.9700  143.5710 C   0  0  0  0  0  0  0  0  0  0  0  0
  190.6460  176.9130  140.3150 C   0  0  1  0  0  3  0  0  0  0  0  0
  189.7880  177.5120  142.6220 C   0  0  0  0  0  0  0  0  0  0  0  0
  188.0330  177.8680  145.9600 C   0  0  0  0  0  2  0  0  0  0  0  0
  183.4450  178.6610  143.4870 C   0  0  0  0  0  0  0  0  0  0  0  0
  183.1650  178.8140  144.8470 C   0  0  0  0  0  3  0  0  0  0  0  0
  185.7850  178.2370  144.0060 C   0  0  0  0  0  0  0  0  0  0  0  0
  184.1880  178.6870  145.7880 C   0  0  0  0  0  3  0  0  0  0  0  0
  184.7490  178.3800  143.0690 C   0  0  0  0  0  3  0  0  0  0  0  0
  185.4910  178.4050  145.3700 C   0  0  0  0  0  3  0  0  0  0  0  0
  182.4540  178.7880  142.5720 F   0  0  0  0  0  0  0  0  0  0  0  0
  191.5980  177.0700  139.2300 N   0  0  0  0  0  2  0  0  0  0  0  0
  191.5760  175.8360  138.4620 C   0  0  0  0  0  2  0  0  0  0  0  0
  189.4580  174.8420  137.3460 C   0  0  0  0  0  2  0  0  0  0  0  0
  190.5170  175.9050  137.4140 C   0  0  0  0  0  0  0  0  0  0  0  0
  188.0690  175.4620  137.1240 C   0  0  1  0  0  3  0  0  0  0  0  0
  188.0330  176.5990  136.1370 C   0  0  1  0  0  3  0  0  0  0  0  0
  189.3900  176.9590  135.5110 C   0  0  0  0  0  2  0  0  0  0  0  0
  190.4830  176.9150  136.5390 C   0  0  0  0  0  3  0  0  0  0  0  0
  187.6900  175.2810  135.7790 O   0  0  0  0  0  0  0  0  0  0  0  0
  1 12  1  6  0  0  0
  1 10  1  0  0  0  0
  2 13  1  6  0  0  0
  2  8  1  0  0  0  0
  2  6  1  0  0  0  0
  3 11  1  0  0  0  0
  4 14  2  0  0  0  0
  4 17  1  0  0  0  0
  5 10  1  0  0  0  0
  6  5  2  0  0  0  0
  7 17  1  0  0  0  0
  8  3  1  6  0  0  0
  8  1  1  0  0  0  0
  9 16  1  0  0  0  0
  9  4  1  0  0  0  0
 11 18  1  0  0  0  0
 14 15  1  0  0  0  0
 15 21  1  0  0  0  0
 15 11  2  0  0  0  0
 16 26  1  6  0  0  0
 16  7  1  0  0  0  0
 17  3  2  0  0  0  0
 18 12  1  0  0  0  0
 19 20  1  0  0  0  0
 20 22  2  0  0  0  0
 21 24  2  0  0  0  0
 23 19  2  0  0  0  0
 23 21  1  0  0  0  0
 24 22  1  0  0  0  0
 25 19  1  0  0  0  0
 27 26  1  0  0  0  0
 28 29  1  0  0  0  0
 29 27  1  0  0  0  0
 30 28  1  6  0  0  0
 31 32  1  6  0  0  0
 31 30  1  0  0  0  0
 32 33  1  0  0  0  0
 33 29  2  0  0  0  0
 34 31  1  0  0  0  0
 34 30  1  0  0  0  0
M  END
>  <MODEL>
2

>  <REMARK>
 VINA RESULT:     -10.0      1.757      2.436
  Name = 
  4 active torsions:
  status: ('A' for Active; 'I' for Inactive)
    1  A    between atoms: C_3  and  C_13
    2  A    between atoms: C_3  and  N_17
    3  A    between atoms: C_12  and  C_28
    4  A    between atoms: N_17  and  C_29
                            x       y       z     vdW  Elec       q    Type
                         _______ _______ _______ _____ _____    ______ ____

>  <TORSDO>
F 4

$$$$
=
 OpenBabel10262423403D

 34 40  0  0  1  0  0  0  0  0999 V2000
  186.8570  178.3440  146.8800 N   0  0  1  0  0  0  0  0  0  0  0  0
  188.4310  176.7160  146.0910 C   0  0  1  0  0  3  0  0  0  0  0  0
  187.1460  178.1700  144.3970 C   0  0  0  0  0  0  0  0  0  0  0  0
  187.2950  178.1850  141.9730 C   0  0  0  0  0  0  0  0  0  0  0  0
  188.5560  177.5780  148.4320 C   0  0  0  0  0  3  0  0  0  0  0  0
  188.9510  176.6800  147.5110 C   0  0  0  0  0  3  0  0  0  0  0  0
  189.7000  178.2280  143.1480 S   0  0  0  0  0  0  0  0  0  0  0  0
  187.8050  178.0920  145.7780 C   0  0  1  0  0  3  0  0  0  0  0  0
  188.3430  178.0450  140.5380 S   0  0  0  0  0  0  0  0  0  0  0  0
  187.6340  178.7130  148.0570 C   0  0  0  0  0  2  0  0  0  0  0  0
  185.7490  178.4210  144.2860 C   0  0  0  0  0  0  0  0  0  0  0  0
  185.9240  179.4060  146.5550 C   0  0  0  0  0  2  0  0  0  0  0  0
  189.4460  176.3590  145.2300 F   0  0  0  0  0  0  0  0  0  0  0  0
  185.9110  178.2510  141.8670 C   0  0  0  0  0  3  0  0  0  0  0  0
  185.1170  178.3840  143.0140 C   0  0  0  0  0  0  0  0  0  0  0  0
  189.6460  177.3090  141.5790 C   0  0  1  0  0  3  0  0  0  0  0  0
  187.9150  178.1760  143.2120 C   0  0  0  0  0  0  0  0  0  0  0  0
  184.9760  178.8550  145.5040 C   0  0  0  0  0  2  0  0  0  0  0  0
  181.6810  178.5820  141.4030 C   0  0  0  0  0  0  0  0  0  0  0  0
  180.8690  178.8030  142.5170 C   0  0  0  0  0  3  0  0  0  0  0  0
  183.6470  178.5030  142.8380 C   0  0  0  0  0  0  0  0  0  0  0  0
  181.4380  178.8830  143.7900 C   0  0  0  0  0  3  0  0  0  0  0  0
  183.0630  178.4380  141.5620 C   0  0  0  0  0  3  0  0  0  0  0  0
  182.8190  178.7370  143.9490 C   0  0  0  0  0  3  0  0  0  0  0  0
  181.1310  178.5090  140.1670 F   0  0  0  0  0  0  0  0  0  0  0  0
  190.9310  177.4140  140.9110 N   0  0  0  0  0  2  0  0  0  0  0  0
  190.6600  177.5710  139.4900 C   0  0  0  0  0  2  0  0  0  0  0  0
  190.6660  175.4120  138.0560 C   0  0  0  0  0  2  0  0  0  0  0  0
  191.4080  176.5410  138.7110 C   0  0  0  0  0  0  0  0  0  0  0  0
  191.1820  175.1700  136.6290 C   0  0  1  0  0  3  0  0  0  0  0  0
  192.6770  175.2560  136.4710 C   0  0  1  0  0  3  0  0  0  0  0  0
  193.4480  175.5730  137.7630 C   0  0  0  0  0  2  0  0  0  0  0  0
  192.7350  176.6190  138.5700 C   0  0  0  0  0  3  0  0  0  0  0  0
  192.0050  174.0270  136.6210 O   0  0  0  0  0  0  0  0  0  0  0  0
  1 12  1  6  0  0  0
  1 10  1  0  0  0  0
  2 13  1  6  0  0  0
  2  6  1  0  0  0  0
  4 17  1  0  0  0  0
  6  5  2  0  0  0  0
  7 17  1  0  0  0  0
  8  3  1  6  0  0  0
  8  2  1  0  0  0  0
  8  1  1  0  0  0  0
  9 16  1  0  0  0  0
  9  4  1  0  0  0  0
 10  5  1  0  0  0  0
 11  3  1  0  0  0  0
 11 18  1  0  0  0  0
 14  4  2  0  0  0  0
 14 15  1  0  0  0  0
 15 11  2  0  0  0  0
 16 26  1  6  0  0  0
 16  7  1  0  0  0  0
 17  3  2  0  0  0  0
 18 12  1  0  0  0  0
 19 23  2  0  0  0  0
 19 20  1  0  0  0  0
 20 22  2  0  0  0  0
 21 15  1  0  0  0  0
 21 24  2  0  0  0  0
 22 24  1  0  0  0  0
 23 21  1  0  0  0  0
 25 19  1  0  0  0  0
 27 26  1  0  0  0  0
 28 29  1  0  0  0  0
 29 27  1  0  0  0  0
 30 28  1  1  0  0  0
 31 34  1  0  0  0  0
 31 30  1  0  0  0  0
 31 32  1  1  0  0  0
 32 33  1  0  0  0  0
 33 29  2  0  0  0  0
 34 30  1  0  0  0  0
M  END
>  <MODEL>
3

>  <REMARK>
 VINA RESULT:      -9.7      1.992      2.934
  Name = 
  4 active torsions:
  status: ('A' for Active; 'I' for Inactive)
    1  A    between atoms: C_3  and  C_13
    2  A    between atoms: C_3  and  N_17
    3  A    between atoms: C_12  and  C_28
    4  A    between atoms: N_17  and  C_29
                            x       y       z     vdW  Elec       q    Type
                         _______ _______ _______ _____ _____    ______ ____

>  <TORSDO>
F 4

$$$$
=
 OpenBabel10262423403D

 34 40  0  0  1  0  0  0  0  0999 V2000
  191.7090  175.2370  137.3450 N   0  0  1  0  0  0  0  0  0  0  0  0
  192.6810  176.8730  138.8030 C   0  0  1  0  0  3  0  0  0  0  0  0
  190.1270  176.5460  138.7790 C   0  0  0  0  0  0  0  0  0  0  0  0
  188.4290  177.6790  140.0970 C   0  0  0  0  0  0  0  0  0  0  0  0
  194.0550  174.9880  137.9090 C   0  0  0  0  0  3  0  0  0  0  0  0
  193.9960  176.1720  138.5460 C   0  0  0  0  0  3  0  0  0  0  0  0
  190.4870  176.8340  141.5850 S   0  0  0  0  0  0  0  0  0  0  0  0
  191.5030  175.8870  138.6530 C   0  0  1  0  0  3  0  0  0  0  0  0
  187.9800  178.3810  141.6710 S   0  0  0  0  0  0  0  0  0  0  0  0
  192.7920  174.2710  137.4960 C   0  0  0  0  0  2  0  0  0  0  0  0
  189.2200  176.5240  137.6810 C   0  0  0  0  0  0  0  0  0  0  0  0
  190.5100  174.5600  136.8860 C   0  0  0  0  0  2  0  0  0  0  0  0
  192.7330  177.4930  140.0320 F   0  0  0  0  0  0  0  0  0  0  0  0
  187.6180  177.8130  138.9750 C   0  0  0  0  0  3  0  0  0  0  0  0
  187.9900  177.2290  137.7570 C   0  0  0  0  0  0  0  0  0  0  0  0
  189.7380  178.3910  142.1530 C   0  0  1  0  0  3  0  0  0  0  0  0
  189.6500  177.0300  140.0180 C   0  0  0  0  0  0  0  0  0  0  0  0
  189.5160  175.6410  136.4970 C   0  0  0  0  0  2  0  0  0  0  0  0
  184.9330  176.8640  135.5300 C   0  0  0  0  0  0  0  0  0  0  0  0
  185.3420  177.5570  134.3880 C   0  0  0  0  0  3  0  0  0  0  0  0
  187.0600  177.3600  136.6060 C   0  0  0  0  0  0  0  0  0  0  0  0
  186.6070  178.1450  134.3460 C   0  0  0  0  0  3  0  0  0  0  0  0
  185.7890  176.7610  136.6300 C   0  0  0  0  0  3  0  0  0  0  0  0
  187.4630  178.0440  135.4470 C   0  0  0  0  0  3  0  0  0  0  0  0
  183.7070  176.2890  135.5700 F   0  0  0  0  0  0  0  0  0  0  0  0
  189.8550  178.4890  143.5960 N   0  0  0  0  0  2  0  0  0  0  0  0
  189.6210  177.1580  144.1340 C   0  0  0  0  0  2  0  0  0  0  0  0
  189.3990  176.9350  146.7070 C   0  0  0  0  0  2  0  0  0  0  0  0
  188.7900  177.2460  145.3700 C   0  0  0  0  0  0  0  0  0  0  0  0
  188.9710  177.9700  147.7600 C   0  0  1  0  0  3  0  0  0  0  0  0
  187.5260  178.3860  147.6900 C   0  0  1  0  0  3  0  0  0  0  0  0
  186.7100  177.7110  146.5760 C   0  0  0  0  0  2  0  0  0  0  0  0
  187.5070  177.6170  145.3080 C   0  0  0  0  0  3  0  0  0  0  0  0
  187.9840  177.4060  148.5910 O   0  0  0  0  0  0  0  0  0  0  0  0
  1 12  1  1  0  0  0
  1 10  1  0  0  0  0
  1  8  1  0  0  0  0
  2 13  1  1  0  0  0
  3 17  1  0  0  0  0
  4  9  1  0  0  0  0
  5  6  2  0  0  0  0
  6  2  1  0  0  0  0
  7 16  1  0  0  0  0
  8  3  1  6  0  0  0
  8  2  1  0  0  0  0
  9 16  1  0  0  0  0
 10  5  1  0  0  0  0
 11 15  1  0  0  0  0
 11  3  2  0  0  0  0
 14  4  1  0  0  0  0
 15 14  2  0  0  0  0
 16 26  1  1  0  0  0
 17  4  2  0  0  0  0
 17  7  1  0  0  0  0
 18 12  1  0  0  0  0
 18 11  1  0  0  0  0
 19 25  1  0  0  0  0
 19 23  1  0  0  0  0
 20 19  2  0  0  0  0
 21 23  2  0  0  0  0
 21 15  1  0  0  0  0
 22 20  1  0  0  0  0
 22 24  2  0  0  0  0
 24 21  1  0  0  0  0
 26 27  1  0  0  0  0
 27 29  1  0  0  0  0
 29 28  1  0  0  0  0
 30 28  1  6  0  0  0
 30 34  1  0  0  0  0
 31 32  1  6  0  0  0
 31 30  1  0  0  0  0
 31 34  1  0  0  0  0
 33 29  2  0  0  0  0
 33 32  1  0  0  0  0
M  END
>  <MODEL>
4

>  <REMARK>
 VINA RESULT:      -9.2      4.126      8.460
  Name = 
  4 active torsions:
  status: ('A' for Active; 'I' for Inactive)
    1  A    between atoms: C_3  and  C_13
    2  A    between atoms: C_3  and  N_17
    3  A    between atoms: C_12  and  C_28
    4  A    between atoms: N_17  and  C_29
                            x       y       z     vdW  Elec       q    Type
                         _______ _______ _______ _____ _____    ______ ____

>  <TORSDO>
F 4

$$$$
=
 OpenBabel10262423403D

 34 40  0  0  1  0  0  0  0  0999 V2000
  184.4740  178.6390  144.6490 N   0  0  1  0  0  0  0  0  0  0  0  0
  186.3870  177.2080  144.4450 C   0  0  1  0  0  3  0  0  0  0  0  0
  185.4700  178.4130  142.3610 C   0  0  0  0  0  0  0  0  0  0  0  0
  186.2940  178.3570  140.0770 C   0  0  0  0  0  0  0  0  0  0  0  0
  185.7440  178.1670  146.6600 C   0  0  0  0  0  3  0  0  0  0  0  0
  186.4860  177.2960  145.9520 C   0  0  0  0  0  3  0  0  0  0  0  0
  188.2480  178.7650  141.8620 S   0  0  0  0  0  0  0  0  0  0  0  0
  185.7170  178.4750  143.8720 C   0  0  1  0  0  3  0  0  0  0  0  0
  187.7130  178.3040  139.0000 S   0  0  0  0  0  0  0  0  0  0  0  0
  184.8380  179.1540  145.9640 C   0  0  0  0  0  2  0  0  0  0  0  0
  184.1420  178.4700  141.8520 C   0  0  0  0  0  0  0  0  0  0  0  0
  183.5520  179.5540  144.0030 C   0  0  0  0  0  2  0  0  0  0  0  0
  187.6390  176.9590  143.9250 F   0  0  0  0  0  0  0  0  0  0  0  0
  184.9980  178.2320  139.5900 C   0  0  0  0  0  3  0  0  0  0  0  0
  183.9030  178.3000  140.4620 C   0  0  0  0  0  0  0  0  0  0  0  0
  188.7470  177.7900  140.4100 C   0  0  1  0  0  3  0  0  0  0  0  0
  186.5350  178.4770  141.4350 C   0  0  0  0  0  0  0  0  0  0  0  0
  183.0110  178.8420  142.7760 C   0  0  0  0  0  2  0  0  0  0  0  0
  180.6090  176.9060  139.1790 C   0  0  0  0  0  0  0  0  0  0  0  0
  179.9870  178.0650  138.7090 C   0  0  0  0  0  3  0  0  0  0  0  0
  182.5390  178.2150  139.8800 C   0  0  0  0  0  0  0  0  0  0  0  0
  180.6360  179.2960  138.8130 C   0  0  0  0  0  3  0  0  0  0  0  0
  181.8800  176.9810  139.7560 C   0  0  0  0  0  3  0  0  0  0  0  0
  181.9060  179.3700  139.3910 C   0  0  0  0  0  3  0  0  0  0  0  0
  179.9820  175.7100  139.0750 F   0  0  0  0  0  0  0  0  0  0  0  0
  190.1460  178.0400  140.1140 N   0  0  0  0  0  2  0  0  0  0  0  0
  190.8890  176.8640  140.5390 C   0  0  0  0  0  2  0  0  0  0  0  0
  191.9430  178.0380  142.5960 C   0  0  0  0  0  2  0  0  0  0  0  0
  191.1320  176.9170  142.0100 C   0  0  0  0  0  0  0  0  0  0  0  0
  191.2840  178.5830  143.8730 C   0  0  1  0  0  3  0  0  0  0  0  0
  190.7100  177.5340  144.7890 C   0  0  1  0  0  3  0  0  0  0  0  0
  190.8730  176.0860  144.2990 C   0  0  0  0  0  2  0  0  0  0  0  0
  190.6210  175.9870  142.8230 C   0  0  0  0  0  3  0  0  0  0  0  0
  191.9820  178.1010  144.9970 O   0  0  0  0  0  0  0  0  0  0  0  0
  1 12  1  6  0  0  0
  1 10  1  0  0  0  0
  2 13  1  6  0  0  0
  2  6  1  0  0  0  0
  4 17  1  0  0  0  0
  6  5  2  0  0  0  0
  8  3  1  6  0  0  0
  8  2  1  0  0  0  0
  8  1  1  0  0  0  0
  9  4  1  0  0  0  0
  9 16  1  0  0  0  0
 10  5  1  0  0  0  0
 11  3  1  0  0  0  0
 11 18  1  0  0  0  0
 14  4  2  0  0  0  0
 14 15  1  0  0  0  0
 15 11  2  0  0  0  0
 16 26  1  6  0  0  0
 16  7  1  0  0  0  0
 17  7  1  0  0  0  0
 17  3  2  0  0  0  0
 18 12  1  0  0  0  0
 19 23  1  0  0  0  0
 20 22  1  0  0  0  0
 20 19  2  0  0  0  0
 21 15  1  0  0  0  0
 22 24  2  0  0  0  0
 23 21  2  0  0  0  0
 24 21  1  0  0  0  0
 25 19  1  0  0  0  0
 26 27  1  0  0  0  0
 27 29  1  0  0  0  0
 29 28  1  0  0  0  0
 29 33  2  0  0  0  0
 30 28  1  6  0  0  0
 30 31  1  0  0  0  0
 30 34  1  0  0  0  0
 31 32  1  6  0  0  0
 31 34  1  0  0  0  0
 33 32  1  0  0  0  0
M  END
>  <MODEL>
5

>  <REMARK>
 VINA RESULT:      -9.2      3.516      5.887
  Name = 
  4 active torsions:
  status: ('A' for Active; 'I' for Inactive)
    1  A    between atoms: C_3  and  C_13
    2  A    between atoms: C_3  and  N_17
    3  A    between atoms: C_12  and  C_28
    4  A    between atoms: N_17  and  C_29
                            x       y       z     vdW  Elec       q    Type
                         _______ _______ _______ _____ _____    ______ ____

>  <TORSDO>
F 4

$$$$
=
 OpenBabel10262423403D

 34 40  0  0  1  0  0  0  0  0999 V2000
  188.1930  177.1360  135.1040 N   0  0  1  0  0  0  0  0  0  0  0  0
  186.7860  176.5610  136.9570 C   0  0  1  0  0  3  0  0  0  0  0  0
  189.2970  176.9830  137.3480 C   0  0  0  0  0  0  0  0  0  0  0  0
  190.5530  176.9170  139.4260 C   0  0  0  0  0  0  0  0  0  0  0  0
  185.8090  177.5060  134.8620 C   0  0  0  0  0  3  0  0  0  0  0  0
  185.6250  176.9040  136.0510 C   0  0  0  0  0  3  0  0  0  0  0  0
  188.2840  178.3220  139.6430 S   0  0  0  0  0  0  0  0  0  0  0  0
  188.0430  177.3610  136.5530 C   0  0  1  0  0  3  0  0  0  0  0  0
  190.5730  177.2680  141.1720 S   0  0  0  0  0  0  0  0  0  0  0  0
  187.1860  177.9410  134.4230 C   0  0  0  0  0  2  0  0  0  0  0  0
  190.4280  176.4360  136.6790 C   0  0  0  0  0  0  0  0  0  0  0  0
  189.5160  177.5070  134.6350 C   0  0  0  0  0  2  0  0  0  0  0  0
  186.4060  176.7510  138.2680 F   0  0  0  0  0  0  0  0  0  0  0  0
  191.5840  176.2220  138.8050 C   0  0  0  0  0  3  0  0  0  0  0  0
  191.5480  175.9820  137.4250 C   0  0  0  0  0  0  0  0  0  0  0  0
  188.7560  177.4190  141.1490 C   0  0  1  0  0  3  0  0  0  0  0  0
  189.4380  177.3240  138.7110 C   0  0  0  0  0  0  0  0  0  0  0  0
  190.4820  176.4650  135.1730 C   0  0  0  0  0  2  0  0  0  0  0  0
  194.9430  175.3120  135.8560 C   0  0  0  0  0  0  0  0  0  0  0  0
  194.8480  173.9490  135.5700 C   0  0  0  0  0  3  0  0  0  0  0  0
  192.7020  175.2800  136.8060 C   0  0  0  0  0  0  0  0  0  0  0  0
  193.6840  173.2490  135.8910 C   0  0  0  0  0  3  0  0  0  0  0  0
  193.8740  175.9750  136.4660 C   0  0  0  0  0  3  0  0  0  0  0  0
  192.6150  173.9110  136.5020 C   0  0  0  0  0  3  0  0  0  0  0  0
  196.0710  175.9940  135.5410 F   0  0  0  0  0  0  0  0  0  0  0  0
  188.3060  178.1530  142.3180 N   0  0  0  0  0  2  0  0  0  0  0  0
  187.7660  177.1780  143.2520 C   0  0  0  0  0  2  0  0  0  0  0  0
  186.2550  177.7330  145.2840 C   0  0  0  0  0  2  0  0  0  0  0  0
  186.4640  177.6610  143.7990 C   0  0  0  0  0  0  0  0  0  0  0  0
  185.5670  179.0490  145.6790 C   0  0  1  0  0  3  0  0  0  0  0  0
  184.4590  179.4880  144.7590 C   0  0  1  0  0  3  0  0  0  0  0  0
  184.1930  178.5500  143.5710 C   0  0  0  0  0  2  0  0  0  0  0  0
  185.4810  178.0530  142.9810 C   0  0  0  0  0  3  0  0  0  0  0  0
  184.2110  178.7980  145.9610 O   0  0  0  0  0  0  0  0  0  0  0  0
  1 10  1  6  0  0  0
  1  8  1  0  0  0  0
  2 13  1  1  0  0  0
  3 17  1  0  0  0  0
  4  9  1  0  0  0  0
  5  6  2  0  0  0  0
  6  2  1  0  0  0  0
  7 16  1  0  0  0  0
  8  2  1  0  0  0  0
  8  3  1  1  0  0  0
 10  5  1  0  0  0  0
 11  3  2  0  0  0  0
 11 15  1  0  0  0  0
 12  1  1  0  0  0  0
 12 18  1  0  0  0  0
 14  4  1  0  0  0  0
 15 14  2  0  0  0  0
 16  9  1  0  0  0  0
 16 26  1  1  0  0  0
 17  4  2  0  0  0  0
 17  7  1  0  0  0  0
 18 11  1  0  0  0  0
 19 23  1  0  0  0  0
 20 19  2  0  0  0  0
 20 22  1  0  0  0  0
 21 15  1  0  0  0  0
 22 24  2  0  0  0  0
 23 21  2  0  0  0  0
 24 21  1  0  0  0  0
 25 19  1  0  0  0  0
 26 27  1  0  0  0  0
 27 29  1  0  0  0  0
 29 28  1  0  0  0  0
 30 28  1  6  0  0  0
 30 34  1  0  0  0  0
 31 32  1  6  0  0  0
 31 30  1  0  0  0  0
 31 34  1  0  0  0  0
 33 32  1  0  0  0  0
 33 29  2  0  0  0  0
M  END
>  <MODEL>
6

>  <REMARK>
 VINA RESULT:      -9.1      4.235     10.564
  Name = 
  4 active torsions:
  status: ('A' for Active; 'I' for Inactive)
    1  A    between atoms: C_3  and  C_13
    2  A    between atoms: C_3  and  N_17
    3  A    between atoms: C_12  and  C_28
    4  A    between atoms: N_17  and  C_29
                            x       y       z     vdW  Elec       q    Type
                         _______ _______ _______ _____ _____    ______ ____

>  <TORSDO>
F 4

$$$$
=
 OpenBabel10262423403D

 34 40  0  0  1  0  0  0  0  0999 V2000
  192.0370  176.8230  139.9990 N   0  0  1  0  0  0  0  0  0  0  0  0
  190.2490  175.9590  138.6560 C   0  0  1  0  0  3  0  0  0  0  0  0
  189.7120  177.4830  140.6620 C   0  0  0  0  0  0  0  0  0  0  0  0
  187.5530  178.2620  141.4550 C   0  0  0  0  0  0  0  0  0  0  0  0
  192.5750  176.0800  137.7540 C   0  0  0  0  0  3  0  0  0  0  0  0
  191.3130  175.6310  137.6320 C   0  0  0  0  0  3  0  0  0  0  0  0
  187.8400  178.5540  138.8090 S   0  0  0  0  0  0  0  0  0  0  0  0
  190.6830  177.1620  139.5210 C   0  0  1  0  0  3  0  0  0  0  0  0
  185.9180  178.8280  141.0270 S   0  0  0  0  0  0  0  0  0  0  0  0
  192.9590  177.0050  138.8840 C   0  0  0  0  0  2  0  0  0  0  0  0
  190.1460  177.3950  142.0150 C   0  0  0  0  0  0  0  0  0  0  0  0
  192.4410  177.6630  141.1110 C   0  0  0  0  0  2  0  0  0  0  0  0
  189.0450  176.1460  138.0110 F   0  0  0  0  0  0  0  0  0  0  0  0
  187.9200  178.0060  142.7700 C   0  0  0  0  0  3  0  0  0  0  0  0
  189.2200  177.5830  143.0750 C   0  0  0  0  0  0  0  0  0  0  0  0
  186.1450  178.1680  139.3430 C   0  0  1  0  0  3  0  0  0  0  0  0
  188.4370  178.0380  140.4130 C   0  0  0  0  0  0  0  0  0  0  0  0
  191.6150  177.2330  142.3110 C   0  0  0  0  0  2  0  0  0  0  0  0
  191.1380  176.6460  146.2190 C   0  0  0  0  0  0  0  0  0  0  0  0
  190.1920  176.9210  147.2090 C   0  0  0  0  0  3  0  0  0  0  0  0
  189.5720  177.3750  144.5040 C   0  0  0  0  0  0  0  0  0  0  0  0
  188.9350  177.4140  146.8530 C   0  0  0  0  0  3  0  0  0  0  0  0
  190.8280  176.8670  144.8740 C   0  0  0  0  0  3  0  0  0  0  0  0
  188.6250  177.6370  145.5090 C   0  0  0  0  0  3  0  0  0  0  0  0
  192.3570  176.1630  146.5620 F   0  0  0  0  0  0  0  0  0  0  0  0
  185.1970  178.7880  138.4360 N   0  0  0  0  0  2  0  0  0  0  0  0
  184.2050  177.7790  138.1000 C   0  0  0  0  0  2  0  0  0  0  0  0
  182.4870  177.4150  140.0070 C   0  0  0  0  0  2  0  0  0  0  0  0
  182.9000  178.1110  138.7410 C   0  0  0  0  0  0  0  0  0  0  0  0
  181.8990  178.4130  141.0170 C   0  0  1  0  0  3  0  0  0  0  0  0
  180.9910  179.4570  140.4230 C   0  0  1  0  0  3  0  0  0  0  0  0
  180.7980  179.3580  138.9010 C   0  0  0  0  0  2  0  0  0  0  0  0
  182.0940  179.0400  138.2150 C   0  0  0  0  0  3  0  0  0  0  0  0
  180.4970  178.2870  141.0310 O   0  0  0  0  0  0  0  0  0  0  0  0
  1 10  1  6  0  0  0
  1 12  1  0  0  0  0
  2 13  1  6  0  0  0
  2  8  1  0  0  0  0
  3 11  1  0  0  0  0
  4 14  2  0  0  0  0
  5 10  1  0  0  0  0
  6  5  2  0  0  0  0
  6  2  1  0  0  0  0
  7 16  1  0  0  0  0
  7 17  1  0  0  0  0
  8  1  1  0  0  0  0
  8  3  1  1  0  0  0
  9  4  1  0  0  0  0
 11 18  1  0  0  0  0
 11 15  2  0  0  0  0
 12 18  1  0  0  0  0
 14 15  1  0  0  0  0
 15 21  1  0  0  0  0
 16 26  1  6  0  0  0
 16  9  1  0  0  0  0
 17  3  2  0  0  0  0
 17  4  1  0  0  0  0
 19 25  1  0  0  0  0
 19 20  1  0  0  0  0
 21 23  1  0  0  0  0
 21 24  2  0  0  0  0
 22 20  2  0  0  0  0
 23 19  2  0  0  0  0
 24 22  1  0  0  0  0
 27 26  1  0  0  0  0
 27 29  1  0  0  0  0
 29 28  1  0  0  0  0
 30 28  1  6  0  0  0
 30 34  1  0  0  0  0
 31 32  1  6  0  0  0
 31 30  1  0  0  0  0
 31 34  1  0  0  0  0
 33 29  2  0  0  0  0
 33 32  1  0  0  0  0
M  END
>  <MODEL>
7

>  <REMARK>
 VINA RESULT:      -9.1      4.053      7.980
  Name = 
  4 active torsions:
  status: ('A' for Active; 'I' for Inactive)
    1  A    between atoms: C_3  and  C_13
    2  A    between atoms: C_3  and  N_17
    3  A    between atoms: C_12  and  C_28
    4  A    between atoms: N_17  and  C_29
                            x       y       z     vdW  Elec       q    Type
                         _______ _______ _______ _____ _____    ______ ____

>  <TORSDO>
F 4

$$$$
=
 OpenBabel10262423403D

 34 40  0  0  1  0  0  0  0  0999 V2000
  188.1550  177.0560  134.9730 N   0  0  1  0  0  0  0  0  0  0  0  0
  186.8740  176.4430  136.9040 C   0  0  1  0  0  3  0  0  0  0  0  0
  189.3860  176.9550  137.1530 C   0  0  0  0  0  0  0  0  0  0  0  0
  190.7560  176.9450  139.1590 C   0  0  0  0  0  0  0  0  0  0  0  0
  185.7500  177.3410  134.8630 C   0  0  0  0  0  3  0  0  0  0  0  0
  185.6530  176.7400  136.0620 C   0  0  0  0  0  3  0  0  0  0  0  0
  188.4550  178.2720  139.4960 S   0  0  0  0  0  0  0  0  0  0  0  0
  188.0770  177.2850  136.4280 C   0  0  1  0  0  3  0  0  0  0  0  0
  190.8610  177.3070  140.9000 S   0  0  0  0  0  0  0  0  0  0  0  0
  187.0840  177.8210  134.3460 C   0  0  0  0  0  2  0  0  0  0  0  0
  190.4970  176.4430  136.4250 C   0  0  0  0  0  0  0  0  0  0  0  0
  189.4360  177.4700  134.4310 C   0  0  0  0  0  2  0  0  0  0  0  0
  186.5600  176.6270  138.2340 F   0  0  0  0  0  0  0  0  0  0  0  0
  191.7750  176.2830  138.4840 C   0  0  0  0  0  3  0  0  0  0  0  0
  191.6720  176.0330  137.1090 C   0  0  0  0  0  0  0  0  0  0  0  0
  189.0410  177.3940  140.9770 C   0  0  1  0  0  3  0  0  0  0  0  0
  189.5900  177.3080  138.5060 C   0  0  0  0  0  0  0  0  0  0  0  0
  190.4660  176.4660  134.9180 C   0  0  0  0  0  2  0  0  0  0  0  0
  195.0440  175.4530  135.4570 C   0  0  0  0  0  0  0  0  0  0  0  0
  194.9360  174.1120  135.0800 C   0  0  0  0  0  3  0  0  0  0  0  0
  192.8140  175.3690  136.4300 C   0  0  0  0  0  0  0  0  0  0  0  0
  193.7710  173.3990  135.3670 C   0  0  0  0  0  3  0  0  0  0  0  0
  193.9860  176.0790  136.1230 C   0  0  0  0  0  3  0  0  0  0  0  0
  192.7150  174.0240  136.0350 C   0  0  0  0  0  3  0  0  0  0  0  0
  196.1720  176.1480  135.1750 F   0  0  0  0  0  0  0  0  0  0  0  0
  188.6310  178.1190  142.1660 N   0  0  0  0  0  2  0  0  0  0  0  0
  188.1090  177.1380  143.1040 C   0  0  0  0  0  2  0  0  0  0  0  0
  187.8520  178.0150  145.5310 C   0  0  0  0  0  2  0  0  0  0  0  0
  188.6860  177.3710  144.4600 C   0  0  0  0  0  0  0  0  0  0  0  0
  188.0210  177.2850  146.8730 C   0  0  1  0  0  3  0  0  0  0  0  0
  189.4310  176.8650  147.1940 C   0  0  1  0  0  3  0  0  0  0  0  0
  190.4750  177.2320  146.1280 C   0  0  0  0  0  2  0  0  0  0  0  0
  189.9370  176.9960  144.7460 C   0  0  0  0  0  3  0  0  0  0  0  0
  188.8600  178.0440  147.7110 O   0  0  0  0  0  0  0  0  0  0  0  0
  1 10  1  6  0  0  0
  1  8  1  0  0  0  0
  2 13  1  1  0  0  0
  3 17  1  0  0  0  0
  4  9  1  0  0  0  0
  5  6  2  0  0  0  0
  6  2  1  0  0  0  0
  7 16  1  0  0  0  0
  8  2  1  0  0  0  0
  8  3  1  1  0  0  0
  9 16  1  0  0  0  0
 10  5  1  0  0  0  0
 11 15  1  0  0  0  0
 11  3  2  0  0  0  0
 12 18  1  0  0  0  0
 12  1  1  0  0  0  0
 14  4  1  0  0  0  0
 15 14  2  0  0  0  0
 16 26  1  1  0  0  0
 17  4  2  0  0  0  0
 17  7  1  0  0  0  0
 18 11  1  0  0  0  0
 19 23  1  0  0  0  0
 20 22  1  0  0  0  0
 20 19  2  0  0  0  0
 21 15  1  0  0  0  0
 22 24  2  0  0  0  0
 23 21  2  0  0  0  0
 24 21  1  0  0  0  0
 25 19  1  0  0  0  0
 26 27  1  0  0  0  0
 27 29  1  0  0  0  0
 29 33  2  0  0  0  0
 29 28  1  0  0  0  0
 30 28  1  6  0  0  0
 30 31  1  0  0  0  0
 30 34  1  0  0  0  0
 31 32  1  6  0  0  0
 31 34  1  0  0  0  0
 33 32  1  0  0  0  0
M  END
>  <MODEL>
8

>  <REMARK>
 VINA RESULT:      -8.9      4.130     10.379
  Name = 
  4 active torsions:
  status: ('A' for Active; 'I' for Inactive)
    1  A    between atoms: C_3  and  C_13
    2  A    between atoms: C_3  and  N_17
    3  A    between atoms: C_12  and  C_28
    4  A    between atoms: N_17  and  C_29
                            x       y       z     vdW  Elec       q    Type
                         _______ _______ _______ _____ _____    ______ ____

>  <TORSDO>
F 4

$$$$
=
 OpenBabel10262423403D

 34 40  0  0  1  0  0  0  0  0999 V2000
  192.0650  177.0630  140.5700 N   0  0  1  0  0  0  0  0  0  0  0  0
  190.4940  176.1210  139.0230 C   0  0  1  0  0  3  0  0  0  0  0  0
  189.6500  177.6160  140.9430 C   0  0  0  0  0  0  0  0  0  0  0  0
  187.3770  178.2960  141.4650 C   0  0  0  0  0  0  0  0  0  0  0  0
  192.9040  176.3490  138.4100 C   0  0  0  0  0  3  0  0  0  0  0  0
  191.6880  175.8430  138.1370 C   0  0  0  0  0  3  0  0  0  0  0  0
  187.9700  178.6050  138.8720 S   0  0  0  0  0  0  0  0  0  0  0  0
  190.7650  177.3410  139.9300 C   0  0  1  0  0  3  0  0  0  0  0  0
  185.7830  178.7880  140.8400 S   0  0  0  0  0  0  0  0  0  0  0  0
  193.1060  177.2880  139.5740 C   0  0  0  0  0  2  0  0  0  0  0  0
  189.9200  177.5460  142.3390 C   0  0  0  0  0  0  0  0  0  0  0  0
  192.2930  177.9190  141.7190 C   0  0  0  0  0  2  0  0  0  0  0  0
  189.3700  176.2540  138.2360 F   0  0  0  0  0  0  0  0  0  0  0  0
  187.5930  178.0550  142.8160 C   0  0  0  0  0  3  0  0  0  0  0  0
  188.8640  177.6910  143.2780 C   0  0  0  0  0  0  0  0  0  0  0  0
  186.2420  178.1410  139.1980 C   0  0  1  0  0  3  0  0  0  0  0  0
  188.3910  178.1140  140.5390 C   0  0  0  0  0  0  0  0  0  0  0  0
  191.3480  177.4500  142.8120 C   0  0  0  0  0  2  0  0  0  0  0  0
  190.4520  176.9140  146.6420 C   0  0  0  0  0  0  0  0  0  0  0  0
  189.3600  177.0650  147.5010 C   0  0  0  0  0  3  0  0  0  0  0  0
  189.0490  177.4970  144.7400 C   0  0  0  0  0  0  0  0  0  0  0  0
  188.1130  177.4240  146.9860 C   0  0  0  0  0  3  0  0  0  0  0  0
  190.2950  177.1230  145.2690 C   0  0  0  0  0  3  0  0  0  0  0  0
  187.9570  177.6350  145.6130 C   0  0  0  0  0  3  0  0  0  0  0  0
  191.6620  176.5610  147.1400 F   0  0  0  0  0  0  0  0  0  0  0  0
  185.3830  178.7200  138.1810 N   0  0  0  0  0  2  0  0  0  0  0  0
  184.4960  177.6630  137.7210 C   0  0  0  0  0  2  0  0  0  0  0  0
  186.0610  177.3060  135.6850 C   0  0  0  0  0  2  0  0  0  0  0  0
  185.2300  176.7440  136.8020 C   0  0  0  0  0  0  0  0  0  0  0  0
  187.4130  176.5820  135.5880 C   0  0  1  0  0  3  0  0  0  0  0  0
  187.3480  175.0890  135.7750 C   0  0  1  0  0  3  0  0  0  0  0  0
  185.9410  174.5290  136.0360 C   0  0  0  0  0  2  0  0  0  0  0  0
  185.1730  175.4190  136.9700 C   0  0  0  0  0  3  0  0  0  0  0  0
  187.3820  175.6870  134.5010 O   0  0  0  0  0  0  0  0  0  0  0  0
  1 10  1  6  0  0  0
  1 12  1  0  0  0  0
  2 13  1  6  0  0  0
  2  8  1  0  0  0  0
  3 11  1  0  0  0  0
  4 14  2  0  0  0  0
  5 10  1  0  0  0  0
  6  5  2  0  0  0  0
  6  2  1  0  0  0  0
  7 16  1  0  0  0  0
  7 17  1  0  0  0  0
  8  1  1  0  0  0  0
  8  3  1  1  0  0  0
  9  4  1  0  0  0  0
 11 18  1  0  0  0  0
 11 15  2  0  0  0  0
 12 18  1  0  0  0  0
 14 15  1  0  0  0  0
 15 21  1  0  0  0  0
 16 26  1  6  0  0  0
 16  9  1  0  0  0  0
 17  3  2  0  0  0  0
 17  4  1  0  0  0  0
 19 25  1  0  0  0  0
 19 20  1  0  0  0  0
 21 23  1  0  0  0  0
 21 24  2  0  0  0  0
 22 20  2  0  0  0  0
 23 19  2  0  0  0  0
 24 22  1  0  0  0  0
 27 26  1  0  0  0  0
 28 29  1  0  0  0  0
 29 33  2  0  0  0  0
 29 27  1  0  0  0  0
 30 28  1  6  0  0  0
 30 31  1  0  0  0  0
 31 32  1  6  0  0  0
 32 33  1  0  0  0  0
 34 30  1  0  0  0  0
 34 31  1  0  0  0  0
M  END
>  <MODEL>
9

>  <REMARK>
 VINA RESULT:      -8.9      3.597      6.047
  Name = 
  4 active torsions:
  status: ('A' for Active; 'I' for Inactive)
    1  A    between atoms: C_3  and  C_13
    2  A    between atoms: C_3  and  N_17
    3  A    between atoms: C_12  and  C_28
    4  A    between atoms: N_17  and  C_29
                            x       y       z     vdW  Elec       q    Type
                         _______ _______ _______ _____ _____    ______ ____

>  <TORSDO>
F 4

$$$$
