=
 OpenBabel10272415153D

 34 38  0  0  1  0  0  0  0  0999 V2000
  185.4270  178.8040  143.0470 C   0  0  1  0  0  3  0  0  0  0  0  0
  185.3620  179.5650  146.7100 C   0  0  0  0  0  3  0  0  0  0  0  0
  188.4790  177.5560  147.4960 C   0  0  0  0  0  0  0  0  0  0  0  0
  183.5910  179.4050  145.1620 O   0  0  0  0  0  0  0  0  0  0  0  0
  183.3910  178.2620  141.6370 C   0  0  0  0  0  3  0  0  0  0  0  0
  181.1550  178.5780  142.5090 C   0  0  0  0  0  3  0  0  0  0  0  0
  188.9920  176.1570  147.3680 C   0  0  0  0  0  1  0  0  0  0  0  0
  182.0050  178.2210  141.4600 C   0  0  0  0  0  3  0  0  0  0  0  0
  183.0750  179.0110  143.9240 C   0  0  0  0  0  0  0  0  0  0  0  0
  183.9370  178.6390  142.8740 C   0  0  0  0  0  0  0  0  0  0  0  0
  181.6900  178.9770  143.7370 C   0  0  0  0  0  3  0  0  0  0  0  0
  186.7810  179.3440  147.1630 C   0  0  0  0  0  2  0  0  0  0  0  0
  189.3600  178.5430  148.1960 C   0  0  0  0  0  1  0  0  0  0  0  0
  187.2640  177.9080  147.0210 C   0  0  0  0  0  0  0  0  0  0  0  0
  186.3840  176.8720  146.3520 C   0  0  0  0  0  2  0  0  0  0  0  0
  184.9420  179.2430  145.4860 C   0  0  0  0  0  0  0  0  0  0  0  0
  186.1640  177.1310  144.8530 C   0  0  0  0  0  2  0  0  0  0  0  0
  185.8900  178.6040  144.5020 C   0  0  1  0  0  3  0  0  0  0  0  0
  186.1750  177.9470  142.1340 N   0  0  0  0  0  2  0  0  0  0  0  0
  190.0700  178.0610  139.2390 C   0  0  0  0  0  2  0  0  0  0  0  0
  189.0310  177.2850  142.2220 C   0  0  0  0  0  2  0  0  0  0  0  0
  187.0100  178.8090  141.3130 C   0  0  1  0  0  3  0  0  0  0  0  0
  190.3090  176.7550  140.0360 C   0  0  0  0  0  2  0  0  0  0  0  0
  188.4840  178.5410  141.5820 C   0  0  2  0  0  3  0  0  0  0  0  0
  190.3900  176.9750  141.5660 C   0  0  2  0  0  3  0  0  0  0  0  0
  187.8080  177.9600  140.3550 C   0  0  2  0  0  3  0  0  0  0  0  0
  188.6040  178.5620  139.2120 C   0  0  0  0  0  2  0  0  0  0  0  0
  190.9290  175.8360  142.1680 O   0  0  0  0  0  0  0  0  0  0  0  0
  190.5360  175.9070  143.5110 C   0  0  0  0  0  2  0  0  0  0  0  0
  191.6860  176.3810  144.3920 C   0  0  2  0  0  3  0  0  0  0  0  0
  192.0220  175.3480  145.4510 C   0  0  0  0  0  1  0  0  0  0  0  0
  191.3490  177.6450  145.0200 N   0  0  0  0  0  2  0  0  0  0  0  0
  191.9360  178.6530  144.2460 N   0  0  0  0  0  2  0  0  0  0  0  0
  190.9640  179.5570  143.9820 O   0  0  0  0  0  1  0  0  0  0  0  0
  1 19  1  6  0  0  0
  1 18  1  0  0  0  0
  2 12  1  0  0  0  0
  3 13  1  0  0  0  0
  4 16  1  0  0  0  0
  5 10  1  0  0  0  0
  6 11  2  0  0  0  0
  7  3  1  0  0  0  0
  8  5  2  0  0  0  0
  8  6  1  0  0  0  0
  9  4  1  0  0  0  0
 10  1  1  0  0  0  0
 10  9  2  0  0  0  0
 11  9  1  0  0  0  0
 14 12  1  0  0  0  0
 14  3  2  0  0  0  0
 15 14  1  0  0  0  0
 16  2  2  0  0  0  0
 17 15  1  0  0  0  0
 18 17  1  1  0  0  0
 18 16  1  0  0  0  0
 20 23  1  0  0  0  0
 22 24  1  0  0  0  0
 22 19  1  1  0  0  0
 23 25  1  0  0  0  0
 24 21  1  1  0  0  0
 25 28  1  1  0  0  0
 25 21  1  0  0  0  0
 26 27  1  6  0  0  0
 26 22  1  0  0  0  0
 26 24  1  0  0  0  0
 27 20  1  0  0  0  0
 28 29  1  0  0  0  0
 29 30  1  0  0  0  0
 30 32  1  0  0  0  0
 30 31  1  1  0  0  0
 33 32  1  0  0  0  0
 34 33  1  0  0  0  0
M  END
>  <MODEL>
1

>  <REMARK>
 VINA RESULT:      -7.8      0.000      0.000
  Name = 
  7 active torsions:
  status: ('A' for Active; 'I' for Inactive)
    1  A    between atoms: C_1  and  N_9
    2  A    between atoms: C_7  and  N_21
    3  A    between atoms: C_7  and  C_29
    4  A    between atoms: C_8  and  N_9
    5  A    between atoms: N_11  and  N_21
    6  A    between atoms: O_26  and  C_28
    7  A    between atoms: O_26  and  C_29
                            x       y       z     vdW  Elec       q    Type
                         _______ _______ _______ _____ _____    ______ ____

>  <TORSDO>
F 7

$$$$
=
 OpenBabel10272415153D

 34 38  0  0  1  0  0  0  0  0999 V2000
  188.8800  176.5710  138.4640 C   0  0  1  0  0  3  0  0  0  0  0  0
  190.2270  173.5930  136.6410 C   0  0  0  0  0  3  0  0  0  0  0  0
  193.7650  174.9370  136.4300 C   0  0  0  0  0  0  0  0  0  0  0  0
  188.0600  174.5240  136.6370 O   0  0  0  0  0  0  0  0  0  0  0  0
  186.6390  177.6650  138.0090 C   0  0  0  0  0  3  0  0  0  0  0  0
  185.0040  176.5990  136.5790 C   0  0  0  0  0  3  0  0  0  0  0  0
  194.5010  176.1240  135.8940 C   0  0  0  0  0  1  0  0  0  0  0  0
  185.3720  177.6520  137.4190 C   0  0  0  0  0  3  0  0  0  0  0  0
  187.1740  175.5700  136.9070 C   0  0  0  0  0  0  0  0  0  0  0  0
  187.5560  176.6350  137.7440 C   0  0  0  0  0  0  0  0  0  0  0  0
  185.9010  175.5580  136.3280 C   0  0  0  0  0  3  0  0  0  0  0  0
  191.7070  173.6250  136.9150 C   0  0  0  0  0  2  0  0  0  0  0  0
  194.5880  173.8430  137.0360 C   0  0  0  0  0  1  0  0  0  0  0  0
  192.4190  174.8450  136.3500 C   0  0  0  0  0  0  0  0  0  0  0  0
  191.6230  175.9560  135.6950 C   0  0  0  0  0  2  0  0  0  0  0  0
  189.4110  174.5880  136.9930 C   0  0  0  0  0  0  0  0  0  0  0  0
  190.7180  176.7200  136.6730 C   0  0  0  0  0  2  0  0  0  0  0  0
  189.9630  175.8200  137.6670 C   0  0  1  0  0  3  0  0  0  0  0  0
  189.3450  177.8950  138.8620 N   0  0  0  0  0  2  0  0  0  0  0  0
  189.2590  176.3730  143.4700 C   0  0  0  0  0  2  0  0  0  0  0  0
  187.8800  178.4160  141.3480 C   0  0  0  0  0  2  0  0  0  0  0  0
  190.1430  177.7340  140.0660 C   0  0  1  0  0  3  0  0  0  0  0  0
  187.7540  176.6000  143.1860 C   0  0  0  0  0  2  0  0  0  0  0  0
  189.3790  178.2300  141.2850 C   0  0  2  0  0  3  0  0  0  0  0  0
  187.4190  178.0530  142.7730 C   0  0  2  0  0  3  0  0  0  0  0  0
  189.4650  176.7460  140.9830 C   0  0  2  0  0  3  0  0  0  0  0  0
  190.1500  176.1860  142.2150 C   0  0  0  0  0  2  0  0  0  0  0  0
  186.0400  178.2530  142.8620 O   0  0  0  0  0  0  0  0  0  0  0  0
  185.7320  178.0970  144.2200 C   0  0  0  0  0  2  0  0  0  0  0  0
  184.2560  178.3770  144.4800 C   0  0  2  0  0  3  0  0  0  0  0  0
  183.6200  179.0830  143.2970 C   0  0  0  0  0  1  0  0  0  0  0  0
  184.1020  179.1800  145.6790 N   0  0  0  0  0  2  0  0  0  0  0  0
  184.7980  178.5230  146.7000 N   0  0  0  0  0  2  0  0  0  0  0  0
  185.5700  179.4560  147.3060 O   0  0  0  0  0  1  0  0  0  0  0  0
  1 19  1  6  0  0  0
  2 12  1  0  0  0  0
  2 16  2  0  0  0  0
  3 13  1  0  0  0  0
  4  9  1  0  0  0  0
  4 16  1  0  0  0  0
  6  8  1  0  0  0  0
  7  3  1  0  0  0  0
  8  5  2  0  0  0  0
  9 10  2  0  0  0  0
 10  5  1  0  0  0  0
 10  1  1  0  0  0  0
 11  6  2  0  0  0  0
 11  9  1  0  0  0  0
 14  3  2  0  0  0  0
 14 12  1  0  0  0  0
 15 14  1  0  0  0  0
 15 17  1  0  0  0  0
 16 18  1  0  0  0  0
 18 17  1  6  0  0  0
 18  1  1  0  0  0  0
 21 25  1  0  0  0  0
 22 19  1  6  0  0  0
 22 26  1  0  0  0  0
 22 24  1  0  0  0  0
 23 20  1  0  0  0  0
 24 21  1  6  0  0  0
 25 28  1  6  0  0  0
 25 23  1  0  0  0  0
 26 24  1  0  0  0  0
 26 27  1  1  0  0  0
 27 20  1  0  0  0  0
 28 29  1  0  0  0  0
 29 30  1  0  0  0  0
 30 31  1  6  0  0  0
 30 32  1  0  0  0  0
 32 33  1  0  0  0  0
 33 34  1  0  0  0  0
M  END
>  <MODEL>
2

>  <REMARK>
 VINA RESULT:      -7.2      3.632      8.250
  Name = 
  7 active torsions:
  status: ('A' for Active; 'I' for Inactive)
    1  A    between atoms: C_1  and  N_9
    2  A    between atoms: C_7  and  N_21
    3  A    between atoms: C_7  and  C_29
    4  A    between atoms: C_8  and  N_9
    5  A    between atoms: N_11  and  N_21
    6  A    between atoms: O_26  and  C_28
    7  A    between atoms: O_26  and  C_29
                            x       y       z     vdW  Elec       q    Type
                         _______ _______ _______ _____ _____    ______ ____

>  <TORSDO>
F 7

$$$$
=
 OpenBabel10272415153D

 34 38  0  0  1  0  0  0  0  0999 V2000
  185.9520  179.0160  143.0160 C   0  0  1  0  0  3  0  0  0  0  0  0
  185.3460  179.3430  146.6940 C   0  0  0  0  0  3  0  0  0  0  0  0
  188.5100  177.5100  147.6910 C   0  0  0  0  0  0  0  0  0  0  0  0
  183.8120  179.2240  144.9070 O   0  0  0  0  0  0  0  0  0  0  0  0
  184.1750  178.4810  141.2900 C   0  0  0  0  0  3  0  0  0  0  0  0
  181.8260  178.5170  141.8720 C   0  0  0  0  0  3  0  0  0  0  0  0
  189.1640  176.1790  147.4910 C   0  0  0  0  0  1  0  0  0  0  0  0
  182.8340  178.3510  140.9190 C   0  0  0  0  0  3  0  0  0  0  0  0
  183.4990  178.9350  143.5760 C   0  0  0  0  0  0  0  0  0  0  0  0
  184.5190  178.7560  142.6230 C   0  0  0  0  0  0  0  0  0  0  0  0
  182.1590  178.8140  143.1970 C   0  0  0  0  0  3  0  0  0  0  0  0
  186.7090  179.1850  147.3140 C   0  0  0  0  0  2  0  0  0  0  0  0
  189.1970  178.4760  148.6050 C   0  0  0  0  0  1  0  0  0  0  0  0
  187.3380  177.8170  147.0920 C   0  0  0  0  0  0  0  0  0  0  0  0
  186.6530  176.7990  146.2040 C   0  0  0  0  0  2  0  0  0  0  0  0
  185.1180  179.1320  145.3970 C   0  0  0  0  0  0  0  0  0  0  0  0
  186.6040  177.2100  144.7240 C   0  0  0  0  0  2  0  0  0  0  0  0
  186.2410  178.6870  144.4920 C   0  0  1  0  0  3  0  0  0  0  0  0
  186.8900  178.3320  142.1320 N   0  0  0  0  0  2  0  0  0  0  0  0
  191.6760  177.5380  142.2760 C   0  0  0  0  0  2  0  0  0  0  0  0
  188.9470  176.8720  140.6370 C   0  0  0  0  0  2  0  0  0  0  0  0
  187.9780  177.8300  142.9550 C   0  0  1  0  0  3  0  0  0  0  0  0
  191.4180  177.6280  140.7520 C   0  0  0  0  0  2  0  0  0  0  0  0
  188.8790  176.9080  142.1470 C   0  0  2  0  0  3  0  0  0  0  0  0
  190.4050  176.5770  140.2370 C   0  0  2  0  0  3  0  0  0  0  0  0
  189.2880  178.3440  142.4120 C   0  0  2  0  0  3  0  0  0  0  0  0
  190.5930  178.1910  143.1710 C   0  0  0  0  0  2  0  0  0  0  0  0
  190.4820  176.5050  138.8440 O   0  0  0  0  0  0  0  0  0  0  0  0
  190.2260  177.8050  138.3920 C   0  0  0  0  0  2  0  0  0  0  0  0
  189.0560  177.8220  137.4160 C   0  0  2  0  0  3  0  0  0  0  0  0
  189.4870  177.3500  136.0400 C   0  0  0  0  0  1  0  0  0  0  0  0
  188.4950  179.1580  137.3290 N   0  0  0  0  0  2  0  0  0  0  0  0
  187.1160  179.0080  137.1370 N   0  0  0  0  0  2  0  0  0  0  0  0
  186.5920  178.6590  138.3350 O   0  0  0  0  0  1  0  0  0  0  0  0
  1 19  1  6  0  0  0
  1 18  1  0  0  0  0
  2 12  1  0  0  0  0
  3 13  1  0  0  0  0
  4 16  1  0  0  0  0
  5 10  1  0  0  0  0
  6 11  2  0  0  0  0
  7  3  1  0  0  0  0
  8  5  2  0  0  0  0
  8  6  1  0  0  0  0
  9  4  1  0  0  0  0
 10  1  1  0  0  0  0
 10  9  2  0  0  0  0
 11  9  1  0  0  0  0
 14 12  1  0  0  0  0
 14  3  2  0  0  0  0
 15 14  1  0  0  0  0
 16  2  2  0  0  0  0
 17 15  1  0  0  0  0
 18 17  1  6  0  0  0
 18 16  1  0  0  0  0
 20 27  1  0  0  0  0
 22 19  1  6  0  0  0
 23 20  1  0  0  0  0
 24 21  1  6  0  0  0
 24 26  1  0  0  0  0
 24 22  1  0  0  0  0
 25 28  1  6  0  0  0
 25 21  1  0  0  0  0
 25 23  1  0  0  0  0
 26 22  1  0  0  0  0
 26 27  1  1  0  0  0
 29 28  1  0  0  0  0
 30 31  1  6  0  0  0
 30 29  1  0  0  0  0
 32 30  1  0  0  0  0
 33 32  1  0  0  0  0
 33 34  1  0  0  0  0
M  END
>  <MODEL>
3

>  <REMARK>
 VINA RESULT:      -7.0      2.105      3.649
  Name = 
  7 active torsions:
  status: ('A' for Active; 'I' for Inactive)
    1  A    between atoms: C_1  and  N_9
    2  A    between atoms: C_7  and  N_21
    3  A    between atoms: C_7  and  C_29
    4  A    between atoms: C_8  and  N_9
    5  A    between atoms: N_11  and  N_21
    6  A    between atoms: O_26  and  C_28
    7  A    between atoms: O_26  and  C_29
                            x       y       z     vdW  Elec       q    Type
                         _______ _______ _______ _____ _____    ______ ____

>  <TORSDO>
F 7

$$$$
=
 OpenBabel10272415153D

 34 38  0  0  1  0  0  0  0  0999 V2000
  183.6600  178.1700  139.4340 C   0  0  1  0  0  3  0  0  0  0  0  0
  184.9140  176.3800  136.3960 C   0  0  0  0  0  3  0  0  0  0  0  0
  188.5650  176.6110  137.3890 C   0  0  0  0  0  0  0  0  0  0  0  0
  182.9930  177.7170  136.6860 O   0  0  0  0  0  0  0  0  0  0  0  0
  181.8060  179.8980  139.4440 C   0  0  0  0  0  3  0  0  0  0  0  0
  180.4200  180.2440  137.4900 C   0  0  0  0  0  3  0  0  0  0  0  0
  189.5910  177.6490  137.7160 C   0  0  0  0  0  1  0  0  0  0  0  0
  180.7370  180.5440  138.8170 C   0  0  0  0  0  3  0  0  0  0  0  0
  182.2480  178.6550  137.4070 C   0  0  0  0  0  0  0  0  0  0  0  0
  182.5810  178.9630  138.7400 C   0  0  0  0  0  0  0  0  0  0  0  0
  181.1720  179.2980  136.7880 C   0  0  0  0  0  3  0  0  0  0  0  0
  186.2670  175.8590  136.8010 C   0  0  0  0  0  2  0  0  0  0  0  0
  189.0260  175.1870  137.3440 C   0  0  0  0  0  1  0  0  0  0  0  0
  187.2830  176.9450  137.1210 C   0  0  0  0  0  0  0  0  0  0  0  0
  186.8620  178.4000  137.1380 C   0  0  0  0  0  2  0  0  0  0  0  0
  184.2080  177.2140  137.1620 C   0  0  0  0  0  0  0  0  0  0  0  0
  185.8790  178.7410  138.2700 C   0  0  0  0  0  2  0  0  0  0  0  0
  184.7690  177.6960  138.4770 C   0  0  1  0  0  3  0  0  0  0  0  0
  184.2210  178.8960  140.5680 N   0  0  0  0  0  2  0  0  0  0  0  0
  184.3740  178.7870  145.4190 C   0  0  0  0  0  2  0  0  0  0  0  0
  185.9840  177.9590  142.7160 C   0  0  0  0  0  2  0  0  0  0  0  0
  183.5190  178.4520  141.7610 C   0  0  1  0  0  3  0  0  0  0  0  0
  185.8600  179.0410  145.0630 C   0  0  0  0  0  2  0  0  0  0  0  0
  184.4820  177.7840  142.7320 C   0  0  2  0  0  3  0  0  0  0  0  0
  186.4780  177.9340  144.1760 C   0  0  2  0  0  3  0  0  0  0  0  0
  184.0340  179.2160  142.9550 C   0  0  2  0  0  3  0  0  0  0  0  0
  183.3550  179.1530  144.3100 C   0  0  0  0  0  2  0  0  0  0  0  0
  187.8680  178.0590  144.1810 O   0  0  0  0  0  0  0  0  0  0  0  0
  188.3020  177.3050  145.2790 C   0  0  0  0  0  2  0  0  0  0  0  0
  189.6660  177.7820  145.7630 C   0  0  2  0  0  3  0  0  0  0  0  0
  190.6270  177.9530  144.6010 C   0  0  0  0  0  1  0  0  0  0  0  0
  190.2130  176.8430  146.7250 N   0  0  0  0  0  2  0  0  0  0  0  0
  191.6070  176.9120  146.6140 N   0  0  0  0  0  2  0  0  0  0  0  0
  192.1080  176.6690  147.8480 O   0  0  0  0  0  1  0  0  0  0  0  0
  1 19  1  1  0  0  0
  2 12  1  0  0  0  0
  2 16  2  0  0  0  0
  3  7  1  0  0  0  0
  4 16  1  0  0  0  0
  4  9  1  0  0  0  0
  6  8  2  0  0  0  0
  8  5  1  0  0  0  0
  9 10  1  0  0  0  0
 10  1  1  0  0  0  0
 10  5  2  0  0  0  0
 11  9  2  0  0  0  0
 11  6  1  0  0  0  0
 12 14  1  0  0  0  0
 13  3  1  0  0  0  0
 14 15  1  0  0  0  0
 14  3  2  0  0  0  0
 15 17  1  0  0  0  0
 16 18  1  0  0  0  0
 18 17  1  6  0  0  0
 18  1  1  0  0  0  0
 21 25  1  0  0  0  0
 22 19  1  6  0  0  0
 22 24  1  0  0  0  0
 22 26  1  0  0  0  0
 23 20  1  0  0  0  0
 24 21  1  6  0  0  0
 24 26  1  0  0  0  0
 25 28  1  6  0  0  0
 25 23  1  0  0  0  0
 26 27  1  1  0  0  0
 27 20  1  0  0  0  0
 28 29  1  0  0  0  0
 29 30  1  0  0  0  0
 30 31  1  6  0  0  0
 30 32  1  0  0  0  0
 33 32  1  0  0  0  0
 33 34  1  0  0  0  0
M  END
>  <MODEL>
4

>  <REMARK>
 VINA RESULT:      -6.9      3.278      6.679
  Name = 
  7 active torsions:
  status: ('A' for Active; 'I' for Inactive)
    1  A    between atoms: C_1  and  N_9
    2  A    between atoms: C_7  and  N_21
    3  A    between atoms: C_7  and  C_29
    4  A    between atoms: C_8  and  N_9
    5  A    between atoms: N_11  and  N_21
    6  A    between atoms: O_26  and  C_28
    7  A    between atoms: O_26  and  C_29
                            x       y       z     vdW  Elec       q    Type
                         _______ _______ _______ _____ _____    ______ ____

>  <TORSDO>
F 7

$$$$
=
 OpenBabel10272415153D

 34 38  0  0  1  0  0  0  0  0999 V2000
  185.9430  179.0500  142.7820 C   0  0  1  0  0  3  0  0  0  0  0  0
  185.1160  179.2270  146.4280 C   0  0  0  0  0  3  0  0  0  0  0  0
  188.3120  177.5260  147.5500 C   0  0  0  0  0  0  0  0  0  0  0  0
  183.6920  179.0870  144.5530 O   0  0  0  0  0  0  0  0  0  0  0  0
  184.2950  178.4810  140.9420 C   0  0  0  0  0  3  0  0  0  0  0  0
  181.9190  178.3790  141.3900 C   0  0  0  0  0  3  0  0  0  0  0  0
  189.0450  176.2380  147.3490 C   0  0  0  0  0  1  0  0  0  0  0  0
  182.9850  178.2950  140.4920 C   0  0  0  0  0  3  0  0  0  0  0  0
  183.4700  178.8260  143.1980 C   0  0  0  0  0  0  0  0  0  0  0  0
  184.5500  178.7300  142.3000 C   0  0  0  0  0  0  0  0  0  0  0  0
  182.1610  178.6490  142.7400 C   0  0  0  0  0  3  0  0  0  0  0  0
  186.4490  179.1180  147.1190 C   0  0  0  0  0  2  0  0  0  0  0  0
  188.8950  178.4960  148.5300 C   0  0  0  0  0  1  0  0  0  0  0  0
  187.1610  177.7930  146.8940 C   0  0  0  0  0  0  0  0  0  0  0  0
  186.5810  176.7700  145.9390 C   0  0  0  0  0  2  0  0  0  0  0  0
  184.9730  179.0470  145.1140 C   0  0  0  0  0  0  0  0  0  0  0  0
  186.5930  177.2260  144.4710 C   0  0  0  0  0  2  0  0  0  0  0  0
  186.1660  178.6890  144.2620 C   0  0  1  0  0  3  0  0  0  0  0  0
  186.9620  178.4430  141.9340 N   0  0  0  0  0  2  0  0  0  0  0  0
  191.6760  177.4300  142.4970 C   0  0  0  0  0  2  0  0  0  0  0  0
  189.1240  177.0600  140.5140 C   0  0  0  0  0  2  0  0  0  0  0  0
  187.9370  177.8110  142.8080 C   0  0  1  0  0  3  0  0  0  0  0  0
  191.5910  177.6910  140.9740 C   0  0  0  0  0  2  0  0  0  0  0  0
  188.8920  176.9400  142.0040 C   0  0  2  0  0  3  0  0  0  0  0  0
  190.6080  176.7460  140.2420 C   0  0  2  0  0  3  0  0  0  0  0  0
  189.3150  178.3210  142.4670 C   0  0  2  0  0  3  0  0  0  0  0  0
  190.5220  178.0320  143.3390 C   0  0  0  0  0  2  0  0  0  0  0  0
  190.8360  176.8170  138.8660 O   0  0  0  0  0  0  0  0  0  0  0  0
  192.2160  176.6370  138.7110 C   0  0  0  0  0  2  0  0  0  0  0  0
  192.5550  176.2240  137.2840 C   0  0  2  0  0  3  0  0  0  0  0  0
  192.1720  174.7780  137.0300 C   0  0  0  0  0  1  0  0  0  0  0  0
  193.9710  176.4140  137.0300 N   0  0  0  0  0  2  0  0  0  0  0  0
  194.6460  175.3870  137.7000 N   0  0  0  0  0  2  0  0  0  0  0  0
  195.8680  175.2850  137.1250 O   0  0  0  0  0  1  0  0  0  0  0  0
  1 19  1  6  0  0  0
  1 18  1  0  0  0  0
  2 12  1  0  0  0  0
  3 13  1  0  0  0  0
  4 16  1  0  0  0  0
  5 10  1  0  0  0  0
  6 11  2  0  0  0  0
  7  3  1  0  0  0  0
  8  5  2  0  0  0  0
  8  6  1  0  0  0  0
  9  4  1  0  0  0  0
 10  1  1  0  0  0  0
 10  9  2  0  0  0  0
 11  9  1  0  0  0  0
 14 12  1  0  0  0  0
 14  3  2  0  0  0  0
 15 14  1  0  0  0  0
 16  2  2  0  0  0  0
 17 15  1  0  0  0  0
 18 17  1  6  0  0  0
 18 16  1  0  0  0  0
 20 27  1  0  0  0  0
 22 19  1  6  0  0  0
 23 20  1  0  0  0  0
 24 21  1  6  0  0  0
 24 26  1  0  0  0  0
 24 22  1  0  0  0  0
 25 28  1  6  0  0  0
 25 21  1  0  0  0  0
 25 23  1  0  0  0  0
 26 22  1  0  0  0  0
 26 27  1  1  0  0  0
 29 28  1  0  0  0  0
 30 31  1  1  0  0  0
 30 29  1  0  0  0  0
 32 30  1  0  0  0  0
 32 33  1  0  0  0  0
 34 33  1  0  0  0  0
M  END
>  <MODEL>
5

>  <REMARK>
 VINA RESULT:      -6.9      2.665      3.643
  Name = 
  7 active torsions:
  status: ('A' for Active; 'I' for Inactive)
    1  A    between atoms: C_1  and  N_9
    2  A    between atoms: C_7  and  N_21
    3  A    between atoms: C_7  and  C_29
    4  A    between atoms: C_8  and  N_9
    5  A    between atoms: N_11  and  N_21
    6  A    between atoms: O_26  and  C_28
    7  A    between atoms: O_26  and  C_29
                            x       y       z     vdW  Elec       q    Type
                         _______ _______ _______ _____ _____    ______ ____

>  <TORSDO>
F 7

$$$$
=
 OpenBabel10272415153D

 34 38  0  0  1  0  0  0  0  0999 V2000
  184.0300  177.8800  142.0120 C   0  0  1  0  0  3  0  0  0  0  0  0
  183.1460  176.8580  138.5220 C   0  0  0  0  0  3  0  0  0  0  0  0
  186.5480  177.7070  137.0820 C   0  0  0  0  0  0  0  0  0  0  0  0
  181.7800  177.7020  140.2490 O   0  0  0  0  0  0  0  0  0  0  0  0
  182.5060  179.1570  143.5840 C   0  0  0  0  0  3  0  0  0  0  0  0
  180.1670  179.4840  143.0550 C   0  0  0  0  0  3  0  0  0  0  0  0
  187.4680  178.8790  136.9550 C   0  0  0  0  0  1  0  0  0  0  0  0
  181.2440  179.6470  143.9300 C   0  0  0  0  0  3  0  0  0  0  0  0
  181.6140  178.3460  141.4780 C   0  0  0  0  0  0  0  0  0  0  0  0
  182.7060  178.5190  142.3500 C   0  0  0  0  0  0  0  0  0  0  0  0
  180.3520  178.8300  141.8340 C   0  0  0  0  0  3  0  0  0  0  0  0
  184.4730  176.5800  137.8660 C   0  0  0  0  0  2  0  0  0  0  0  0
  186.9680  176.4350  136.4140 C   0  0  0  0  0  1  0  0  0  0  0  0
  185.3770  177.7980  137.7510 C   0  0  0  0  0  0  0  0  0  0  0  0
  184.9680  179.1130  138.3820 C   0  0  0  0  0  2  0  0  0  0  0  0
  183.0460  177.4020  139.7360 C   0  0  0  0  0  0  0  0  0  0  0  0
  184.9270  179.0700  139.9180 C   0  0  0  0  0  2  0  0  0  0  0  0
  184.2880  177.7950  140.4960 C   0  0  1  0  0  3  0  0  0  0  0  0
  185.1380  178.5350  142.6980 N   0  0  0  0  0  2  0  0  0  0  0  0
  188.3930  177.5930  146.1730 C   0  0  0  0  0  2  0  0  0  0  0  0
  187.8280  177.4010  142.9760 C   0  0  0  0  0  2  0  0  0  0  0  0
  185.3570  177.8260  143.9480 C   0  0  1  0  0  3  0  0  0  0  0  0
  189.3030  178.0390  145.0030 C   0  0  0  0  0  2  0  0  0  0  0  0
  186.6880  177.0900  143.9200 C   0  0  2  0  0  3  0  0  0  0  0  0
  189.1480  177.1650  143.7350 C   0  0  2  0  0  3  0  0  0  0  0  0
  186.5570  178.4140  144.6480 C   0  0  2  0  0  3  0  0  0  0  0  0
  186.9160  178.0530  146.0770 C   0  0  0  0  0  2  0  0  0  0  0  0
  190.2140  177.4130  142.8700 O   0  0  0  0  0  0  0  0  0  0  0  0
  190.0270  176.5370  141.7920 C   0  0  0  0  0  2  0  0  0  0  0  0
  190.4310  177.1950  140.4780 C   0  0  2  0  0  3  0  0  0  0  0  0
  189.2410  177.8630  139.8160 C   0  0  0  0  0  1  0  0  0  0  0  0
  191.0110  176.2110  139.5820 N   0  0  0  0  0  2  0  0  0  0  0  0
  190.2610  176.2460  138.4010 N   0  0  0  0  0  2  0  0  0  0  0  0
  190.1820  174.9700  137.9540 O   0  0  0  0  0  1  0  0  0  0  0  0
  1 10  1  0  0  0  0
  1 19  1  1  0  0  0
  2 16  2  0  0  0  0
  3 14  2  0  0  0  0
  4  9  1  0  0  0  0
  5  8  1  0  0  0  0
  6  8  2  0  0  0  0
  7  3  1  0  0  0  0
  9 11  2  0  0  0  0
  9 10  1  0  0  0  0
 10  5  2  0  0  0  0
 11  6  1  0  0  0  0
 12  2  1  0  0  0  0
 13  3  1  0  0  0  0
 14 12  1  0  0  0  0
 14 15  1  0  0  0  0
 15 17  1  0  0  0  0
 16  4  1  0  0  0  0
 16 18  1  0  0  0  0
 18 17  1  6  0  0  0
 18  1  1  0  0  0  0
 21 25  1  0  0  0  0
 22 19  1  6  0  0  0
 22 26  1  0  0  0  0
 23 20  1  0  0  0  0
 24 21  1  6  0  0  0
 24 22  1  0  0  0  0
 24 26  1  0  0  0  0
 25 28  1  6  0  0  0
 25 23  1  0  0  0  0
 26 27  1  1  0  0  0
 27 20  1  0  0  0  0
 29 28  1  0  0  0  0
 30 31  1  6  0  0  0
 30 29  1  0  0  0  0
 32 30  1  0  0  0  0
 33 32  1  0  0  0  0
 34 33  1  0  0  0  0
M  END
>  <MODEL>
6

>  <REMARK>
 VINA RESULT:      -6.9      2.664      6.079
  Name = 
  7 active torsions:
  status: ('A' for Active; 'I' for Inactive)
    1  A    between atoms: C_1  and  N_9
    2  A    between atoms: C_7  and  N_21
    3  A    between atoms: C_7  and  C_29
    4  A    between atoms: C_8  and  N_9
    5  A    between atoms: N_11  and  N_21
    6  A    between atoms: O_26  and  C_28
    7  A    between atoms: O_26  and  C_29
                            x       y       z     vdW  Elec       q    Type
                         _______ _______ _______ _____ _____    ______ ____

>  <TORSDO>
F 7

$$$$
=
 OpenBabel10272415153D

 34 38  0  0  1  0  0  0  0  0999 V2000
  190.0240  176.9200  138.0930 C   0  0  1  0  0  3  0  0  0  0  0  0
  187.7810  177.4290  135.1410 C   0  0  0  0  0  3  0  0  0  0  0  0
  184.6240  176.4100  136.9750 C   0  0  0  0  0  0  0  0  0  0  0  0
  190.0600  176.8280  135.2310 O   0  0  0  0  0  0  0  0  0  0  0  0
  192.3280  175.8680  138.0060 C   0  0  0  0  0  3  0  0  0  0  0  0
  193.4250  175.4510  135.8890 C   0  0  0  0  0  3  0  0  0  0  0  0
  184.0720  175.2380  137.7230 C   0  0  0  0  0  1  0  0  0  0  0  0
  193.4400  175.4220  137.2850 C   0  0  0  0  0  3  0  0  0  0  0  0
  191.1800  176.3640  135.9270 C   0  0  0  0  0  0  0  0  0  0  0  0
  191.1840  176.3250  137.3340 C   0  0  0  0  0  0  0  0  0  0  0  0
  192.2980  175.9260  135.2120 C   0  0  0  0  0  3  0  0  0  0  0  0
  186.4130  177.6210  135.7400 C   0  0  0  0  0  2  0  0  0  0  0  0
  183.7100  177.5770  136.7660 C   0  0  0  0  0  1  0  0  0  0  0  0
  185.8850  176.4060  136.4880 C   0  0  0  0  0  0  0  0  0  0  0  0
  186.7680  175.1900  136.6860 C   0  0  0  0  0  2  0  0  0  0  0  0
  188.8370  177.0620  135.8690 C   0  0  0  0  0  0  0  0  0  0  0  0
  187.9720  175.4510  137.6040 C   0  0  0  0  0  2  0  0  0  0  0  0
  188.6840  176.7900  137.3450 C   0  0  1  0  0  3  0  0  0  0  0  0
  189.9260  176.3770  139.4440 N   0  0  0  0  0  2  0  0  0  0  0  0
  190.4560  177.7220  144.0780 C   0  0  0  0  0  2  0  0  0  0  0  0
  188.2900  177.3350  141.6820 C   0  0  0  0  0  2  0  0  0  0  0  0
  190.6170  177.2950  140.3350 C   0  0  1  0  0  3  0  0  0  0  0  0
  189.0920  176.9900  144.1170 C   0  0  0  0  0  2  0  0  0  0  0  0
  189.6450  177.9090  141.3310 C   0  0  2  0  0  3  0  0  0  0  0  0
  188.0330  177.6120  143.1750 C   0  0  2  0  0  3  0  0  0  0  0  0
  190.5500  176.7640  141.7450 C   0  0  2  0  0  3  0  0  0  0  0  0
  191.3650  177.3660  142.8740 C   0  0  0  0  0  2  0  0  0  0  0  0
  186.7700  177.1200  143.5120 O   0  0  0  0  0  0  0  0  0  0  0  0
  186.3700  177.8640  144.6290 C   0  0  0  0  0  2  0  0  0  0  0  0
  184.8920  178.2250  144.5430 C   0  0  2  0  0  3  0  0  0  0  0  0
  184.5420  178.7610  143.1680 C   0  0  0  0  0  1  0  0  0  0  0  0
  184.5550  179.2050  145.5590 N   0  0  0  0  0  2  0  0  0  0  0  0
  184.8640  178.6300  146.7970 N   0  0  0  0  0  2  0  0  0  0  0  0
  185.6070  179.5380  147.4720 O   0  0  0  0  0  1  0  0  0  0  0  0
  1 19  1  1  0  0  0
  2 12  1  0  0  0  0
  2 16  2  0  0  0  0
  3  7  1  0  0  0  0
  4 16  1  0  0  0  0
  4  9  1  0  0  0  0
  6  8  1  0  0  0  0
  8  5  2  0  0  0  0
  9 10  2  0  0  0  0
 10  5  1  0  0  0  0
 10  1  1  0  0  0  0
 11  6  2  0  0  0  0
 11  9  1  0  0  0  0
 12 14  1  0  0  0  0
 13  3  1  0  0  0  0
 14 15  1  0  0  0  0
 14  3  2  0  0  0  0
 15 17  1  0  0  0  0
 16 18  1  0  0  0  0
 18 17  1  6  0  0  0
 18  1  1  0  0  0  0
 20 23  1  0  0  0  0
 21 25  1  0  0  0  0
 22 19  1  6  0  0  0
 22 24  1  0  0  0  0
 22 26  1  0  0  0  0
 24 21  1  6  0  0  0
 24 26  1  0  0  0  0
 25 28  1  1  0  0  0
 25 23  1  0  0  0  0
 26 27  1  1  0  0  0
 27 20  1  0  0  0  0
 28 29  1  0  0  0  0
 30 31  1  6  0  0  0
 30 29  1  0  0  0  0
 30 32  1  0  0  0  0
 32 33  1  0  0  0  0
 33 34  1  0  0  0  0
M  END
>  <MODEL>
7

>  <REMARK>
 VINA RESULT:      -6.7      3.633      8.819
  Name = 
  7 active torsions:
  status: ('A' for Active; 'I' for Inactive)
    1  A    between atoms: C_1  and  N_9
    2  A    between atoms: C_7  and  N_21
    3  A    between atoms: C_7  and  C_29
    4  A    between atoms: C_8  and  N_9
    5  A    between atoms: N_11  and  N_21
    6  A    between atoms: O_26  and  C_28
    7  A    between atoms: O_26  and  C_29
                            x       y       z     vdW  Elec       q    Type
                         _______ _______ _______ _____ _____    ______ ____

>  <TORSDO>
F 7

$$$$
=
 OpenBabel10272415153D

 34 38  0  0  1  0  0  0  0  0999 V2000
  183.5370  178.2400  139.5090 C   0  0  1  0  0  3  0  0  0  0  0  0
  184.8270  176.3920  136.5220 C   0  0  0  0  0  3  0  0  0  0  0  0
  188.4640  176.6220  137.5660 C   0  0  0  0  0  0  0  0  0  0  0  0
  182.9100  177.7430  136.7590 O   0  0  0  0  0  0  0  0  0  0  0  0
  181.6920  179.9770  139.4610 C   0  0  0  0  0  3  0  0  0  0  0  0
  180.3380  180.2960  137.4800 C   0  0  0  0  0  3  0  0  0  0  0  0
  189.4900  177.6600  137.8910 C   0  0  0  0  0  1  0  0  0  0  0  0
  180.6350  180.6170  138.8060 C   0  0  0  0  0  3  0  0  0  0  0  0
  182.1590  178.6970  137.4530 C   0  0  0  0  0  0  0  0  0  0  0  0
  182.4720  179.0260  138.7850 C   0  0  0  0  0  0  0  0  0  0  0  0
  181.0950  179.3340  136.8070 C   0  0  0  0  0  3  0  0  0  0  0  0
  186.1720  175.8710  136.9570 C   0  0  0  0  0  2  0  0  0  0  0  0
  188.9190  175.1960  137.5530 C   0  0  0  0  0  1  0  0  0  0  0  0
  187.1880  176.9570  137.2730 C   0  0  0  0  0  0  0  0  0  0  0  0
  186.7740  178.4150  137.2590 C   0  0  0  0  0  2  0  0  0  0  0  0
  184.1140  177.2420  137.2630 C   0  0  0  0  0  0  0  0  0  0  0  0
  185.7770  178.7800  138.3700 C   0  0  0  0  0  2  0  0  0  0  0  0
  184.6580  177.7440  138.5770 C   0  0  1  0  0  3  0  0  0  0  0  0
  184.0840  178.9830  140.6390 N   0  0  0  0  0  2  0  0  0  0  0  0
  184.4660  178.7040  145.4700 C   0  0  0  0  0  2  0  0  0  0  0  0
  185.9770  178.0350  142.6680 C   0  0  0  0  0  2  0  0  0  0  0  0
  183.4540  178.4690  141.8450 C   0  0  1  0  0  3  0  0  0  0  0  0
  185.9240  179.0250  145.0570 C   0  0  0  0  0  2  0  0  0  0  0  0
  184.4850  177.8040  142.7450 C   0  0  2  0  0  3  0  0  0  0  0  0
  186.5380  177.9740  144.1020 C   0  0  2  0  0  3  0  0  0  0  0  0
  183.9970  179.2090  143.0420 C   0  0  2  0  0  3  0  0  0  0  0  0
  183.3840  179.0710  144.4230 C   0  0  0  0  0  2  0  0  0  0  0  0
  187.9220  178.1510  144.0500 O   0  0  0  0  0  0  0  0  0  0  0  0
  188.4660  176.9140  144.4180 C   0  0  0  0  0  2  0  0  0  0  0  0
  189.9890  176.9780  144.4570 C   0  0  2  0  0  3  0  0  0  0  0  0
  190.4770  178.4080  144.3220 C   0  0  0  0  0  1  0  0  0  0  0  0
  190.5530  176.1590  143.4000 N   0  0  0  0  0  2  0  0  0  0  0  0
  190.8410  177.0160  142.3320 N   0  0  0  0  0  2  0  0  0  0  0  0
  190.1910  176.5220  141.2520 O   0  0  0  0  0  1  0  0  0  0  0  0
  1 19  1  1  0  0  0
  2 12  1  0  0  0  0
  2 16  2  0  0  0  0
  3  7  1  0  0  0  0
  4 16  1  0  0  0  0
  4  9  1  0  0  0  0
  6  8  2  0  0  0  0
  8  5  1  0  0  0  0
  9 10  1  0  0  0  0
 10  5  2  0  0  0  0
 10  1  1  0  0  0  0
 11  9  2  0  0  0  0
 11  6  1  0  0  0  0
 12 14  1  0  0  0  0
 13  3  1  0  0  0  0
 14  3  2  0  0  0  0
 15 14  1  0  0  0  0
 15 17  1  0  0  0  0
 16 18  1  0  0  0  0
 18 17  1  6  0  0  0
 18  1  1  0  0  0  0
 21 25  1  0  0  0  0
 22 19  1  6  0  0  0
 22 24  1  0  0  0  0
 22 26  1  0  0  0  0
 23 20  1  0  0  0  0
 24 21  1  6  0  0  0
 24 26  1  0  0  0  0
 25 28  1  6  0  0  0
 25 23  1  0  0  0  0
 26 27  1  1  0  0  0
 27 20  1  0  0  0  0
 28 29  1  0  0  0  0
 29 30  1  0  0  0  0
 30 31  1  6  0  0  0
 32 30  1  0  0  0  0
 33 32  1  0  0  0  0
 34 33  1  0  0  0  0
M  END
>  <MODEL>
8

>  <REMARK>
 VINA RESULT:      -6.6      3.175      6.592
  Name = 
  7 active torsions:
  status: ('A' for Active; 'I' for Inactive)
    1  A    between atoms: C_1  and  N_9
    2  A    between atoms: C_7  and  N_21
    3  A    between atoms: C_7  and  C_29
    4  A    between atoms: C_8  and  N_9
    5  A    between atoms: N_11  and  N_21
    6  A    between atoms: O_26  and  C_28
    7  A    between atoms: O_26  and  C_29
                            x       y       z     vdW  Elec       q    Type
                         _______ _______ _______ _____ _____    ______ ____

>  <TORSDO>
F 7

$$$$
=
 OpenBabel10272415153D

 34 38  0  0  1  0  0  0  0  0999 V2000
  186.0100  178.7490  142.8960 C   0  0  1  0  0  3  0  0  0  0  0  0
  185.5970  179.3290  146.5700 C   0  0  0  0  0  3  0  0  0  0  0  0
  188.7460  177.4500  147.5320 C   0  0  0  0  0  0  0  0  0  0  0  0
  183.9730  179.1510  144.8690 O   0  0  0  0  0  0  0  0  0  0  0  0
  184.1330  178.1700  141.2940 C   0  0  0  0  0  3  0  0  0  0  0  0
  181.8180  178.3260  141.9830 C   0  0  0  0  0  3  0  0  0  0  0  0
  189.3460  176.0880  147.3880 C   0  0  0  0  0  1  0  0  0  0  0  0
  182.7720  178.0650  140.9960 C   0  0  0  0  0  3  0  0  0  0  0  0
  183.5860  178.7910  143.5750 C   0  0  0  0  0  0  0  0  0  0  0  0
  184.5520  178.5150  142.5880 C   0  0  0  0  0  0  0  0  0  0  0  0
  182.2260  178.6930  143.2690 C   0  0  0  0  0  3  0  0  0  0  0  0
  186.9830  179.1610  147.1330 C   0  0  0  0  0  2  0  0  0  0  0  0
  189.5070  178.4470  148.3490 C   0  0  0  0  0  1  0  0  0  0  0  0
  187.5560  177.7610  146.9710 C   0  0  0  0  0  0  0  0  0  0  0  0
  186.7950  176.7130  146.1840 C   0  0  0  0  0  2  0  0  0  0  0  0
  185.2990  179.0440  145.3010 C   0  0  0  0  0  0  0  0  0  0  0  0
  186.6870  177.0320  144.6840 C   0  0  0  0  0  2  0  0  0  0  0  0
  186.3610  178.5040  144.3750 C   0  0  1  0  0  3  0  0  0  0  0  0
  186.8800  177.9780  142.0150 N   0  0  0  0  0  2  0  0  0  0  0  0
  188.5100  177.8340  137.4450 C   0  0  0  0  0  2  0  0  0  0  0  0
  189.3200  177.2800  140.5460 C   0  0  0  0  0  2  0  0  0  0  0  0
  187.0970  178.7680  140.8140 C   0  0  1  0  0  3  0  0  0  0  0  0
  189.1840  176.5830  138.0590 C   0  0  0  0  0  2  0  0  0  0  0  0
  188.4780  178.4980  140.2370 C   0  0  2  0  0  3  0  0  0  0  0  0
  190.0950  176.9050  139.2680 C   0  0  2  0  0  3  0  0  0  0  0  0
  187.2500  177.8440  139.6320 C   0  0  2  0  0  3  0  0  0  0  0  0
  187.2630  178.3550  138.2040 C   0  0  0  0  0  2  0  0  0  0  0  0
  190.9060  175.8020  139.5420 O   0  0  0  0  0  0  0  0  0  0  0  0
  191.4400  175.4200  138.3050 C   0  0  0  0  0  2  0  0  0  0  0  0
  192.5410  176.3790  137.8670 C   0  0  2  0  0  3  0  0  0  0  0  0
  192.8650  176.2000  136.3960 C   0  0  0  0  0  1  0  0  0  0  0  0
  193.7340  176.1730  138.6670 N   0  0  0  0  0  2  0  0  0  0  0  0
  194.5920  175.3620  137.9150 N   0  0  0  0  0  2  0  0  0  0  0  0
  194.6310  174.1590  138.5350 O   0  0  0  0  0  1  0  0  0  0  0  0
  1 19  1  6  0  0  0
  1 18  1  0  0  0  0
  2 12  1  0  0  0  0
  3 13  1  0  0  0  0
  4 16  1  0  0  0  0
  5 10  1  0  0  0  0
  6 11  2  0  0  0  0
  7  3  1  0  0  0  0
  8  5  2  0  0  0  0
  8  6  1  0  0  0  0
  9  4  1  0  0  0  0
 10  1  1  0  0  0  0
 10  9  2  0  0  0  0
 11  9  1  0  0  0  0
 14 12  1  0  0  0  0
 14  3  2  0  0  0  0
 15 14  1  0  0  0  0
 16  2  2  0  0  0  0
 17 15  1  0  0  0  0
 18 17  1  6  0  0  0
 18 16  1  0  0  0  0
 20 23  1  0  0  0  0
 20 27  1  0  0  0  0
 22 19  1  1  0  0  0
 23 25  1  0  0  0  0
 24 21  1  1  0  0  0
 24 22  1  0  0  0  0
 25 28  1  1  0  0  0
 25 21  1  0  0  0  0
 26 27  1  6  0  0  0
 26 24  1  0  0  0  0
 26 22  1  0  0  0  0
 29 28  1  0  0  0  0
 30 31  1  6  0  0  0
 30 29  1  0  0  0  0
 30 32  1  0  0  0  0
 33 34  1  0  0  0  0
 33 32  1  0  0  0  0
M  END
>  <MODEL>
9

>  <REMARK>
 VINA RESULT:      -6.5      2.372      3.306
  Name = 
  7 active torsions:
  status: ('A' for Active; 'I' for Inactive)
    1  A    between atoms: C_1  and  N_9
    2  A    between atoms: C_7  and  N_21
    3  A    between atoms: C_7  and  C_29
    4  A    between atoms: C_8  and  N_9
    5  A    between atoms: N_11  and  N_21
    6  A    between atoms: O_26  and  C_28
    7  A    between atoms: O_26  and  C_29
                            x       y       z     vdW  Elec       q    Type
                         _______ _______ _______ _____ _____    ______ ____

>  <TORSDO>
F 7

$$$$
