=
 OpenBabel10272415113D

 34 37  0  0  1  0  0  0  0  0999 V2000
  187.3910  178.2730  138.9120 C   0  0  2  0  0  3  0  0  0  0  0  0
  190.8160  176.7730  139.7660 N   0  0  0  0  0  2  0  0  0  0  0  0
  189.8750  177.3220  137.6280 C   0  0  0  0  0  2  0  0  0  0  0  0
  186.5110  177.7700  136.5270 C   0  0  0  0  0  0  0  0  0  0  0  0
  187.0620  178.0500  134.8590 S   0  0  0  0  0  0  0  0  0  0  0  0
  185.5100  176.9210  136.7260 C   0  0  0  0  0  2  0  0  0  0  0  0
  188.8430  178.1390  136.8850 C   0  0  2  0  0  3  0  0  0  0  0  0
  187.5500  177.9130  137.4960 N   0  0  0  0  0  0  0  0  0  0  0  0
  188.7520  177.6920  135.4330 C   0  0  0  0  0  2  0  0  0  0  0  0
  191.3780  177.4010  140.9510 C   0  0  0  0  0  2  0  0  0  0  0  0
  190.4360  177.1860  142.1250 C   0  0  2  0  0  3  0  0  0  0  0  0
  189.3440  178.2130  142.1150 C   0  0  0  0  0  3  0  0  0  0  0  0
  189.9110  177.7080  139.1060 C   0  0  1  0  0  3  0  0  0  0  0  0
  188.5120  178.4140  141.0860 C   0  0  0  0  0  3  0  0  0  0  0  0
  188.5090  177.6560  139.7790 C   0  0  1  0  0  3  0  0  0  0  0  0
  191.1880  177.2490  143.4180 C   0  0  0  0  0  0  0  0  0  0  0  0
  191.4020  178.5670  144.0790 C   0  0  0  0  0  1  0  0  0  0  0  0
  191.6280  176.2350  143.9370 O   0  0  0  0  0  0  0  0  0  0  0  0
  186.0160  177.9170  139.4800 C   0  0  0  0  0  2  0  0  0  0  0  0
  185.5900  178.9100  140.5550 C   0  0  0  0  0  2  0  0  0  0  0  0
  183.3140  178.0460  141.0120 C   0  0  0  0  0  1  0  0  0  0  0  0
  184.6990  178.2450  141.5920 C   0  0  2  0  0  3  0  0  0  0  0  0
  184.6140  179.0640  142.7540 O   0  0  0  0  0  0  0  0  0  0  0  0
  185.5300  179.6230  146.2650 N   0  0  0  0  0  2  0  0  0  0  0  0
  187.1050  177.7810  146.3840 C   0  0  0  0  0  0  0  0  0  0  0  0
  185.8790  178.4010  146.9710 C   0  0  0  0  0  2  0  0  0  0  0  0
  184.5900  179.2890  145.2010 C   0  0  1  0  0  3  0  0  0  0  0  0
  186.3860  178.0330  143.9540 C   0  0  0  0  0  3  0  0  0  0  0  0
  185.2530  178.7600  143.9640 C   0  0  0  0  0  0  0  0  0  0  0  0
  187.2640  177.6090  145.0660 C   0  0  0  0  0  3  0  0  0  0  0  0
  183.5770  178.4460  145.6340 F   0  0  0  0  0  0  0  0  0  0  0  0
  188.1380  177.2680  147.3030 C   0  0  0  0  0  0  0  0  0  0  0  0
  189.3800  176.7800  146.8010 N   0  0  0  0  0  1  0  0  0  0  0  0
  187.9320  177.2560  148.5450 O   0  0  0  0  0  0  0  0  0  0  0  0
  1 19  1  1  0  0  0
  1 15  1  0  0  0  0
  2 10  1  0  0  0  0
  4  6  2  0  0  0  0
  4  8  1  0  0  0  0
  5  9  1  0  0  0  0
  5  4  1  0  0  0  0
  7  9  1  6  0  0  0
  7  8  1  0  0  0  0
  7  3  1  0  0  0  0
  8  1  1  0  0  0  0
 10 11  1  0  0  0  0
 11 16  1  1  0  0  0
 12 11  1  0  0  0  0
 13  3  1  6  0  0  0
 13  2  1  0  0  0  0
 13 15  1  0  0  0  0
 14 12  2  0  0  0  0
 15 14  1  1  0  0  0
 16 18  2  0  0  0  0
 16 17  1  0  0  0  0
 19 20  1  0  0  0  0
 20 22  1  0  0  0  0
 22 21  1  6  0  0  0
 22 23  1  0  0  0  0
 23 29  1  0  0  0  0
 24 26  1  0  0  0  0
 25 26  1  0  0  0  0
 25 32  1  0  0  0  0
 27 31  1  1  0  0  0
 27 24  1  0  0  0  0
 28 29  2  0  0  0  0
 28 30  1  0  0  0  0
 29 27  1  0  0  0  0
 30 25  2  0  0  0  0
 32 34  2  0  0  0  0
 33 32  1  0  0  0  0
M  END
>  <MODEL>
1

>  <REMARK>
 VINA RESULT:      -8.9      0.000      0.000
  Name = 
  7 active torsions:
  status: ('A' for Active; 'I' for Inactive)
    1  A    between atoms: C_1  and  C_9
    2  A    between atoms: C_3  and  C_25
    3  A    between atoms: O_6  and  C_28
    4  A    between atoms: O_6  and  C_30
    5  A    between atoms: C_7  and  C_11
    6  A    between atoms: C_8  and  C_9
    7  A    between atoms: C_8  and  C_30
                            x       y       z     vdW  Elec       q    Type
                         _______ _______ _______ _____ _____    ______ ____

>  <TORSDO>
F 7

$$$$
=
 OpenBabel10272415113D

 34 37  0  0  1  0  0  0  0  0999 V2000
  185.4190  178.1210  141.9710 C   0  0  2  0  0  3  0  0  0  0  0  0
  184.5520  179.0700  145.5840 N   0  0  0  0  0  2  0  0  0  0  0  0
  183.1210  178.8680  143.6690 C   0  0  0  0  0  2  0  0  0  0  0  0
  183.7700  178.9740  140.1620 C   0  0  0  0  0  0  0  0  0  0  0  0
  182.0360  178.7960  139.8050 S   0  0  0  0  0  0  0  0  0  0  0  0
  184.4500  179.9210  139.5280 C   0  0  0  0  0  2  0  0  0  0  0  0
  182.9470  178.2720  142.2910 C   0  0  2  0  0  3  0  0  0  0  0  0
  184.1130  178.6000  141.4970 N   0  0  0  0  0  0  0  0  0  0  0  0
  181.7320  178.8720  141.5980 C   0  0  0  0  0  2  0  0  0  0  0  0
  185.3020  178.2570  146.5290 C   0  0  0  0  0  2  0  0  0  0  0  0
  186.7900  178.4720  146.3040 C   0  0  2  0  0  3  0  0  0  0  0  0
  187.2810  177.6020  145.1860 C   0  0  0  0  0  3  0  0  0  0  0  0
  184.3870  178.3320  144.3360 C   0  0  1  0  0  3  0  0  0  0  0  0
  186.7770  177.6160  143.9470 C   0  0  0  0  0  3  0  0  0  0  0  0
  185.6550  178.4960  143.4490 C   0  0  1  0  0  3  0  0  0  0  0  0
  187.5570  178.1810  147.5560 C   0  0  0  0  0  0  0  0  0  0  0  0
  188.4570  176.9950  147.6050 C   0  0  0  0  0  1  0  0  0  0  0  0
  187.4530  178.9020  148.5360 O   0  0  0  0  0  0  0  0  0  0  0  0
  186.5900  178.5930  141.1060 C   0  0  0  0  0  2  0  0  0  0  0  0
  187.6690  177.5220  141.0100 C   0  0  0  0  0  2  0  0  0  0  0  0
  189.0100  178.2070  139.0410 C   0  0  0  0  0  1  0  0  0  0  0  0
  188.9920  178.1180  140.5540 C   0  0  2  0  0  3  0  0  0  0  0  0
  190.0700  177.2980  140.9940 O   0  0  0  0  0  0  0  0  0  0  0  0
  191.8320  178.6010  143.9400 N   0  0  0  0  0  2  0  0  0  0  0  0
  191.5460  176.5980  145.2780 C   0  0  0  0  0  0  0  0  0  0  0  0
  191.3230  178.0730  145.1950 C   0  0  0  0  0  2  0  0  0  0  0  0
  190.7460  178.6000  142.9650 C   0  0  1  0  0  3  0  0  0  0  0  0
  190.7360  176.0790  142.9210 C   0  0  0  0  0  3  0  0  0  0  0  0
  190.5270  177.2640  142.3180 C   0  0  0  0  0  0  0  0  0  0  0  0
  191.2410  175.7650  144.2750 C   0  0  0  0  0  3  0  0  0  0  0  0
  189.5660  179.1100  143.4860 F   0  0  0  0  0  0  0  0  0  0  0  0
  192.0460  176.0360  146.5470 C   0  0  0  0  0  0  0  0  0  0  0  0
  191.9700  176.7880  147.7560 N   0  0  0  0  0  1  0  0  0  0  0  0
  192.5460  174.8800  146.5750 O   0  0  0  0  0  0  0  0  0  0  0  0
  1 19  1  6  0  0  0
  1 15  1  0  0  0  0
  2 10  1  0  0  0  0
  4  8  1  0  0  0  0
  5  4  1  0  0  0  0
  5  9  1  0  0  0  0
  6  4  2  0  0  0  0
  7  9  1  6  0  0  0
  7  3  1  0  0  0  0
  8  1  1  0  0  0  0
  8  7  1  0  0  0  0
 11 10  1  0  0  0  0
 11 16  1  1  0  0  0
 12 11  1  0  0  0  0
 13  3  1  6  0  0  0
 13  2  1  0  0  0  0
 14 12  2  0  0  0  0
 15 14  1  1  0  0  0
 15 13  1  0  0  0  0
 16 17  1  0  0  0  0
 16 18  2  0  0  0  0
 20 19  1  0  0  0  0
 22 21  1  6  0  0  0
 22 23  1  0  0  0  0
 22 20  1  0  0  0  0
 23 29  1  0  0  0  0
 24 26  1  0  0  0  0
 25 32  1  0  0  0  0
 26 25  1  0  0  0  0
 27 31  1  1  0  0  0
 27 24  1  0  0  0  0
 28 30  1  0  0  0  0
 29 28  2  0  0  0  0
 29 27  1  0  0  0  0
 30 25  2  0  0  0  0
 32 34  2  0  0  0  0
 32 33  1  0  0  0  0
M  END
>  <MODEL>
2

>  <REMARK>
 VINA RESULT:      -8.8      2.850      5.879
  Name = 
  7 active torsions:
  status: ('A' for Active; 'I' for Inactive)
    1  A    between atoms: C_1  and  C_9
    2  A    between atoms: C_3  and  C_25
    3  A    between atoms: O_6  and  C_28
    4  A    between atoms: O_6  and  C_30
    5  A    between atoms: C_7  and  C_11
    6  A    between atoms: C_8  and  C_9
    7  A    between atoms: C_8  and  C_30
                            x       y       z     vdW  Elec       q    Type
                         _______ _______ _______ _____ _____    ______ ____

>  <TORSDO>
F 7

$$$$
=
 OpenBabel10272415113D

 34 37  0  0  1  0  0  0  0  0999 V2000
  187.4290  177.8770  139.7700 C   0  0  2  0  0  3  0  0  0  0  0  0
  183.9470  179.3060  140.5080 N   0  0  0  0  0  2  0  0  0  0  0  0
  184.8890  178.5640  138.4290 C   0  0  0  0  0  2  0  0  0  0  0  0
  188.2580  178.1490  137.3300 C   0  0  0  0  0  0  0  0  0  0  0  0
  187.7010  177.6580  135.7120 S   0  0  0  0  0  0  0  0  0  0  0  0
  189.2190  179.0590  137.4150 C   0  0  0  0  0  2  0  0  0  0  0  0
  185.9500  177.7170  137.7650 C   0  0  2  0  0  3  0  0  0  0  0  0
  187.2380  178.0690  138.3260 N   0  0  0  0  0  0  0  0  0  0  0  0
  186.0030  178.0010  136.2710 C   0  0  0  0  0  2  0  0  0  0  0  0
  183.4290  178.7910  141.7650 C   0  0  0  0  0  2  0  0  0  0  0  0
  184.3730  179.1790  142.8920 C   0  0  2  0  0  3  0  0  0  0  0  0
  185.5120  178.2090  142.9790 C   0  0  0  0  0  3  0  0  0  0  0  0
  184.8880  178.3460  139.9420 C   0  0  1  0  0  3  0  0  0  0  0  0
  186.3410  177.9310  141.9650 C   0  0  0  0  0  3  0  0  0  0  0  0
  186.2930  178.5360  140.5820 C   0  0  1  0  0  3  0  0  0  0  0  0
  183.6400  179.2280  144.1960 C   0  0  0  0  0  0  0  0  0  0  0  0
  182.1880  178.8990  144.2340 C   0  0  0  0  0  1  0  0  0  0  0  0
  184.2170  179.5350  145.2280 O   0  0  0  0  0  0  0  0  0  0  0  0
  188.7920  178.3580  140.2720 C   0  0  0  0  0  2  0  0  0  0  0  0
  189.7450  177.1870  140.4810 C   0  0  0  0  0  2  0  0  0  0  0  0
  192.1690  177.4860  140.9010 C   0  0  0  0  0  1  0  0  0  0  0  0
  190.7920  177.5150  141.5330 C   0  0  2  0  0  3  0  0  0  0  0  0
  190.7340  176.5600  142.5890 O   0  0  0  0  0  0  0  0  0  0  0  0
  190.8840  176.5050  146.2570 N   0  0  0  0  0  2  0  0  0  0  0  0
  188.7360  177.5830  146.5870 C   0  0  0  0  0  0  0  0  0  0  0  0
  190.2000  177.6280  146.8790 C   0  0  0  0  0  2  0  0  0  0  0  0
  191.3520  176.9230  144.9400 C   0  0  1  0  0  3  0  0  0  0  0  0
  188.9790  177.0810  144.1030 C   0  0  0  0  0  3  0  0  0  0  0  0
  190.2890  176.8630  143.8830 C   0  0  0  0  0  0  0  0  0  0  0  0
  188.2520  177.3770  145.3560 C   0  0  0  0  0  3  0  0  0  0  0  0
  191.9730  178.1630  144.9650 F   0  0  0  0  0  0  0  0  0  0  0  0
  187.7940  177.8560  147.6890 C   0  0  0  0  0  0  0  0  0  0  0  0
  186.4690  178.3070  147.4190 N   0  0  0  0  0  1  0  0  0  0  0  0
  188.1540  177.6920  148.8850 O   0  0  0  0  0  0  0  0  0  0  0  0
  1 19  1  1  0  0  0
  1 15  1  0  0  0  0
  2 10  1  0  0  0  0
  4  6  2  0  0  0  0
  4  8  1  0  0  0  0
  5  9  1  0  0  0  0
  5  4  1  0  0  0  0
  7  9  1  6  0  0  0
  7  8  1  0  0  0  0
  7  3  1  0  0  0  0
  8  1  1  0  0  0  0
 10 11  1  0  0  0  0
 11 12  1  0  0  0  0
 11 16  1  1  0  0  0
 13  3  1  6  0  0  0
 13  2  1  0  0  0  0
 13 15  1  0  0  0  0
 14 12  2  0  0  0  0
 15 14  1  1  0  0  0
 16 17  1  0  0  0  0
 16 18  2  0  0  0  0
 19 20  1  0  0  0  0
 20 22  1  0  0  0  0
 22 21  1  6  0  0  0
 22 23  1  0  0  0  0
 23 29  1  0  0  0  0
 24 26  1  0  0  0  0
 25 26  1  0  0  0  0
 25 32  1  0  0  0  0
 27 31  1  1  0  0  0
 27 24  1  0  0  0  0
 28 30  1  0  0  0  0
 29 28  2  0  0  0  0
 29 27  1  0  0  0  0
 30 25  2  0  0  0  0
 32 34  2  0  0  0  0
 33 32  1  0  0  0  0
M  END
>  <MODEL>
3

>  <REMARK>
 VINA RESULT:      -8.8      2.158      5.205
  Name = 
  7 active torsions:
  status: ('A' for Active; 'I' for Inactive)
    1  A    between atoms: C_1  and  C_9
    2  A    between atoms: C_3  and  C_25
    3  A    between atoms: O_6  and  C_28
    4  A    between atoms: O_6  and  C_30
    5  A    between atoms: C_7  and  C_11
    6  A    between atoms: C_8  and  C_9
    7  A    between atoms: C_8  and  C_30
                            x       y       z     vdW  Elec       q    Type
                         _______ _______ _______ _____ _____    ______ ____

>  <TORSDO>
F 7

$$$$
=
 OpenBabel10272415113D

 34 37  0  0  1  0  0  0  0  0999 V2000
  183.8560  178.5530  140.9170 C   0  0  2  0  0  3  0  0  0  0  0  0
  183.3170  179.3140  144.6370 N   0  0  0  0  0  2  0  0  0  0  0  0
  181.7120  179.1390  142.8610 C   0  0  0  0  0  2  0  0  0  0  0  0
  182.0100  179.4170  139.3160 C   0  0  0  0  0  0  0  0  0  0  0  0
  180.2560  179.1890  139.1210 S   0  0  0  0  0  0  0  0  0  0  0  0
  182.5910  180.4160  138.6640 C   0  0  0  0  0  2  0  0  0  0  0  0
  181.4240  178.5950  141.4810 C   0  0  2  0  0  3  0  0  0  0  0  0
  182.4940  179.0010  140.5940 N   0  0  0  0  0  0  0  0  0  0  0  0
  180.1270  179.1770  140.9370 C   0  0  0  0  0  2  0  0  0  0  0  0
  184.1820  178.4920  145.4670 C   0  0  0  0  0  2  0  0  0  0  0  0
  185.6330  178.7720  145.1090 C   0  0  2  0  0  3  0  0  0  0  0  0
  186.0410  177.9690  143.9110 C   0  0  0  0  0  3  0  0  0  0  0  0
  183.0550  178.6240  143.3780 C   0  0  1  0  0  3  0  0  0  0  0  0
  185.4170  178.0160  142.7270 C   0  0  0  0  0  3  0  0  0  0  0  0
  184.2230  178.8740  142.3810 C   0  0  1  0  0  3  0  0  0  0  0  0
  186.5290  178.4580  146.2660 C   0  0  0  0  0  0  0  0  0  0  0  0
  187.7880  177.6970  146.0340 C   0  0  0  0  0  1  0  0  0  0  0  0
  186.2390  178.8170  147.3980 O   0  0  0  0  0  0  0  0  0  0  0  0
  184.9200  179.1050  139.9660 C   0  0  0  0  0  2  0  0  0  0  0  0
  185.3980  178.0340  138.9930 C   0  0  0  0  0  2  0  0  0  0  0  0
  186.7970  178.4590  136.9920 C   0  0  0  0  0  1  0  0  0  0  0  0
  186.8060  178.3300  138.5020 C   0  0  2  0  0  3  0  0  0  0  0  0
  187.6840  177.2760  138.8840 O   0  0  0  0  0  0  0  0  0  0  0  0
  190.6840  176.2770  140.7490 N   0  0  0  0  0  2  0  0  0  0  0  0
  190.4780  177.9970  142.4470 C   0  0  0  0  0  0  0  0  0  0  0  0
  191.3550  177.3900  141.4010 C   0  0  0  0  0  2  0  0  0  0  0  0
  189.9920  176.7820  139.5690 C   0  0  1  0  0  3  0  0  0  0  0  0
  188.3720  178.0600  141.0180 C   0  0  0  0  0  3  0  0  0  0  0  0
  188.6620  177.4040  139.8780 C   0  0  0  0  0  0  0  0  0  0  0  0
  189.1940  178.3050  142.2220 C   0  0  0  0  0  3  0  0  0  0  0  0
  190.7850  177.6310  138.8110 F   0  0  0  0  0  0  0  0  0  0  0  0
  191.0780  178.3430  143.7490 C   0  0  0  0  0  0  0  0  0  0  0  0
  191.4320  177.3230  144.6810 N   0  0  0  0  0  1  0  0  0  0  0  0
  191.2860  179.5480  144.0520 O   0  0  0  0  0  0  0  0  0  0  0  0
  1 19  1  6  0  0  0
  1 15  1  0  0  0  0
  2 10  1  0  0  0  0
  4  8  1  0  0  0  0
  5  4  1  0  0  0  0
  5  9  1  0  0  0  0
  6  4  2  0  0  0  0
  7  9  1  6  0  0  0
  7  3  1  0  0  0  0
  8  1  1  0  0  0  0
  8  7  1  0  0  0  0
 11 10  1  0  0  0  0
 11 16  1  1  0  0  0
 12 11  1  0  0  0  0
 13  3  1  6  0  0  0
 13  2  1  0  0  0  0
 14 12  2  0  0  0  0
 15 14  1  1  0  0  0
 15 13  1  0  0  0  0
 16 18  2  0  0  0  0
 17 16  1  0  0  0  0
 20 19  1  0  0  0  0
 22 21  1  6  0  0  0
 22 23  1  0  0  0  0
 22 20  1  0  0  0  0
 23 29  1  0  0  0  0
 24 26  1  0  0  0  0
 25 32  1  0  0  0  0
 26 25  1  0  0  0  0
 27 31  1  1  0  0  0
 27 29  1  0  0  0  0
 27 24  1  0  0  0  0
 28 30  1  0  0  0  0
 29 28  2  0  0  0  0
 30 25  2  0  0  0  0
 32 34  2  0  0  0  0
 32 33  1  0  0  0  0
M  END
>  <MODEL>
4

>  <REMARK>
 VINA RESULT:      -8.8      3.084      6.388
  Name = 
  7 active torsions:
  status: ('A' for Active; 'I' for Inactive)
    1  A    between atoms: C_1  and  C_9
    2  A    between atoms: C_3  and  C_25
    3  A    between atoms: O_6  and  C_28
    4  A    between atoms: O_6  and  C_30
    5  A    between atoms: C_7  and  C_11
    6  A    between atoms: C_8  and  C_9
    7  A    between atoms: C_8  and  C_30
                            x       y       z     vdW  Elec       q    Type
                         _______ _______ _______ _____ _____    ______ ____

>  <TORSDO>
F 7

$$$$
=
 OpenBabel10272415113D

 34 37  0  0  1  0  0  0  0  0999 V2000
  190.1160  177.3450  143.5730 C   0  0  2  0  0  3  0  0  0  0  0  0
  186.3840  177.5920  144.4230 N   0  0  0  0  0  2  0  0  0  0  0  0
  188.2730  177.3330  145.8800 C   0  0  0  0  0  2  0  0  0  0  0  0
  191.5880  176.1340  145.3290 C   0  0  0  0  0  0  0  0  0  0  0  0
  191.9820  176.3420  147.0520 S   0  0  0  0  0  0  0  0  0  0  0  0
  191.9100  174.9880  144.7440 C   0  0  0  0  0  2  0  0  0  0  0  0
  189.7660  177.5050  146.0400 C   0  0  2  0  0  3  0  0  0  0  0  0
  190.4250  176.8590  144.9250 N   0  0  0  0  0  0  0  0  0  0  0  0
  190.2480  176.8300  147.3160 C   0  0  0  0  0  2  0  0  0  0  0  0
  185.7250  178.5830  143.5880 C   0  0  0  0  0  2  0  0  0  0  0  0
  185.8760  178.1870  142.1280 C   0  0  2  0  0  3  0  0  0  0  0  0
  187.2010  178.6400  141.5960 C   0  0  0  0  0  3  0  0  0  0  0  0
  187.7960  177.9350  144.5590 C   0  0  1  0  0  3  0  0  0  0  0  0
  188.3800  178.3000  142.1310 C   0  0  0  0  0  3  0  0  0  0  0  0
  188.5930  177.4090  143.3320 C   0  0  1  0  0  3  0  0  0  0  0  0
  184.7670  178.7720  141.3090 C   0  0  0  0  0  0  0  0  0  0  0  0
  183.3560  178.4120  141.6220 C   0  0  0  0  0  1  0  0  0  0  0  0
  185.0060  179.5380  140.3880 O   0  0  0  0  0  0  0  0  0  0  0  0
  190.7990  176.5410  142.4660 C   0  0  0  0  0  2  0  0  0  0  0  0
  191.6890  177.4320  141.6080 C   0  0  0  0  0  2  0  0  0  0  0  0
  192.9120  177.1120  139.4760 C   0  0  0  0  0  1  0  0  0  0  0  0
  191.5470  177.0890  140.1330 C   0  0  2  0  0  3  0  0  0  0  0  0
  190.6970  178.0380  139.4950 O   0  0  0  0  0  0  0  0  0  0  0  0
  187.4120  178.4130  137.9000 N   0  0  0  0  0  2  0  0  0  0  0  0
  187.5200  176.3270  136.6670 C   0  0  0  0  0  0  0  0  0  0  0  0
  187.3390  177.8070  136.5800 C   0  0  0  0  0  2  0  0  0  0  0  0
  188.7930  178.8130  138.1490 C   0  0  1  0  0  3  0  0  0  0  0  0
  189.5140  176.3990  138.2480 C   0  0  0  0  0  3  0  0  0  0  0  0
  189.6640  177.6850  138.6170 C   0  0  0  0  0  0  0  0  0  0  0  0
  188.5040  175.7610  137.3770 C   0  0  0  0  0  3  0  0  0  0  0  0
  189.3560  179.4750  137.0690 F   0  0  0  0  0  0  0  0  0  0  0  0
  186.6250  175.4650  135.8720 C   0  0  0  0  0  0  0  0  0  0  0  0
  185.3240  175.9150  135.4990 N   0  0  0  0  0  1  0  0  0  0  0  0
  187.0030  174.3190  135.5120 O   0  0  0  0  0  0  0  0  0  0  0  0
  1 19  1  6  0  0  0
  1  8  1  0  0  0  0
  2 13  1  0  0  0  0
  4  5  1  0  0  0  0
  5  9  1  0  0  0  0
  6  4  2  0  0  0  0
  7  3  1  6  0  0  0
  7  9  1  0  0  0  0
  8  4  1  0  0  0  0
  8  7  1  0  0  0  0
 10  2  1  0  0  0  0
 11 16  1  6  0  0  0
 11 10  1  0  0  0  0
 12 11  1  0  0  0  0
 12 14  2  0  0  0  0
 13  3  1  1  0  0  0
 15 14  1  6  0  0  0
 15  1  1  0  0  0  0
 15 13  1  0  0  0  0
 16 17  1  0  0  0  0
 18 16  2  0  0  0  0
 20 19  1  0  0  0  0
 22 21  1  6  0  0  0
 22 20  1  0  0  0  0
 23 22  1  0  0  0  0
 24 27  1  0  0  0  0
 25 30  2  0  0  0  0
 26 25  1  0  0  0  0
 26 24  1  0  0  0  0
 27 31  1  6  0  0  0
 27 29  1  0  0  0  0
 28 29  2  0  0  0  0
 29 23  1  0  0  0  0
 30 28  1  0  0  0  0
 32 25  1  0  0  0  0
 33 32  1  0  0  0  0
 34 32  2  0  0  0  0
M  END
>  <MODEL>
5

>  <REMARK>
 VINA RESULT:      -8.6      3.744      8.529
  Name = 
  7 active torsions:
  status: ('A' for Active; 'I' for Inactive)
    1  A    between atoms: C_1  and  C_9
    2  A    between atoms: C_3  and  C_25
    3  A    between atoms: O_6  and  C_28
    4  A    between atoms: O_6  and  C_30
    5  A    between atoms: C_7  and  C_11
    6  A    between atoms: C_8  and  C_9
    7  A    between atoms: C_8  and  C_30
                            x       y       z     vdW  Elec       q    Type
                         _______ _______ _______ _____ _____    ______ ____

>  <TORSDO>
F 7

$$$$
=
 OpenBabel10272415113D

 34 37  0  0  1  0  0  0  0  0999 V2000
  187.4800  177.1420  144.9700 C   0  0  2  0  0  3  0  0  0  0  0  0
  190.7560  178.3600  143.3900 N   0  0  0  0  0  2  0  0  0  0  0  0
  190.1730  178.1070  145.7040 C   0  0  0  0  0  2  0  0  0  0  0  0
  187.0320  177.9570  147.3890 C   0  0  0  0  0  0  0  0  0  0  0  0
  187.8480  177.8430  148.9660 S   0  0  0  0  0  0  0  0  0  0  0  0
  186.0390  178.8280  147.2560 C   0  0  0  0  0  2  0  0  0  0  0  0
  189.2570  177.4330  146.7000 C   0  0  2  0  0  3  0  0  0  0  0  0
  187.8870  177.6530  146.2870 N   0  0  0  0  0  0  0  0  0  0  0  0
  189.4270  178.0470  148.0820 C   0  0  0  0  0  2  0  0  0  0  0  0
  191.0890  177.5730  142.2130 C   0  0  0  0  0  2  0  0  0  0  0  0
  189.9690  177.7000  141.1930 C   0  0  2  0  0  3  0  0  0  0  0  0
  188.8640  176.7380  141.5060 C   0  0  0  0  0  3  0  0  0  0  0  0
  189.9460  177.5530  144.2980 C   0  0  1  0  0  3  0  0  0  0  0  0
  188.2120  176.6970  142.6750 C   0  0  0  0  0  3  0  0  0  0  0  0
  188.4530  177.5980  143.8630 C   0  0  1  0  0  3  0  0  0  0  0  0
  190.4890  177.4520  139.8110 C   0  0  0  0  0  0  0  0  0  0  0  0
  189.6550  177.8300  138.6350 C   0  0  0  0  0  1  0  0  0  0  0  0
  191.5860  176.9440  139.6360 O   0  0  0  0  0  0  0  0  0  0  0  0
  186.0400  177.5000  144.5970 C   0  0  0  0  0  2  0  0  0  0  0  0
  185.9920  178.7540  143.7320 C   0  0  0  0  0  2  0  0  0  0  0  0
  183.7160  179.2140  144.5980 C   0  0  0  0  0  1  0  0  0  0  0  0
  184.5620  179.0960  143.3460 C   0  0  2  0  0  3  0  0  0  0  0  0
  184.0280  178.0750  142.5070 O   0  0  0  0  0  0  0  0  0  0  0  0
  184.4950  179.7030  139.2500 N   0  0  0  0  0  2  0  0  0  0  0  0
  183.7210  177.8130  137.9400 C   0  0  0  0  0  0  0  0  0  0  0  0
  184.8390  178.7740  138.1860 C   0  0  0  0  0  2  0  0  0  0  0  0
  184.9760  179.1550  140.5140 C   0  0  1  0  0  3  0  0  0  0  0  0
  183.2840  177.2890  140.3930 C   0  0  0  0  0  3  0  0  0  0  0  0
  184.0550  178.1310  141.1080 C   0  0  0  0  0  0  0  0  0  0  0  0
  183.0980  177.1640  138.9310 C   0  0  0  0  0  3  0  0  0  0  0  0
  186.2760  178.6780  140.4250 F   0  0  0  0  0  0  0  0  0  0  0  0
  183.3490  177.5140  136.5440 C   0  0  0  0  0  0  0  0  0  0  0  0
  184.3050  176.9700  135.6380 N   0  0  0  0  0  1  0  0  0  0  0  0
  182.1780  177.7380  136.1390 O   0  0  0  0  0  0  0  0  0  0  0  0
  1 19  1  6  0  0  0
  1  8  1  0  0  0  0
  2 13  1  0  0  0  0
  4  5  1  0  0  0  0
  6  4  2  0  0  0  0
  7  3  1  6  0  0  0
  7  9  1  0  0  0  0
  8  7  1  0  0  0  0
  8  4  1  0  0  0  0
  9  5  1  0  0  0  0
 10  2  1  0  0  0  0
 11 16  1  6  0  0  0
 11 12  1  0  0  0  0
 11 10  1  0  0  0  0
 12 14  2  0  0  0  0
 13  3  1  1  0  0  0
 15 14  1  6  0  0  0
 15 13  1  0  0  0  0
 15  1  1  0  0  0  0
 17 16  1  0  0  0  0
 18 16  2  0  0  0  0
 20 19  1  0  0  0  0
 22 20  1  0  0  0  0
 22 21  1  1  0  0  0
 23 22  1  0  0  0  0
 24 27  1  0  0  0  0
 25 26  1  0  0  0  0
 25 30  2  0  0  0  0
 26 24  1  0  0  0  0
 27 31  1  6  0  0  0
 27 29  1  0  0  0  0
 28 29  2  0  0  0  0
 29 23  1  0  0  0  0
 30 28  1  0  0  0  0
 32 25  1  0  0  0  0
 33 32  1  0  0  0  0
 34 32  2  0  0  0  0
M  END
>  <MODEL>
6

>  <REMARK>
 VINA RESULT:      -8.5      3.466      7.469
  Name = 
  7 active torsions:
  status: ('A' for Active; 'I' for Inactive)
    1  A    between atoms: C_1  and  C_9
    2  A    between atoms: C_3  and  C_25
    3  A    between atoms: O_6  and  C_28
    4  A    between atoms: O_6  and  C_30
    5  A    between atoms: C_7  and  C_11
    6  A    between atoms: C_8  and  C_9
    7  A    between atoms: C_8  and  C_30
                            x       y       z     vdW  Elec       q    Type
                         _______ _______ _______ _____ _____    ______ ____

>  <TORSDO>
F 7

$$$$
=
 OpenBabel10272415113D

 34 37  0  0  1  0  0  0  0  0999 V2000
  187.4440  177.8710  139.4200 C   0  0  2  0  0  3  0  0  0  0  0  0
  184.0710  179.2190  140.6520 N   0  0  0  0  0  2  0  0  0  0  0  0
  184.7000  178.4240  138.4770 C   0  0  0  0  0  2  0  0  0  0  0  0
  187.8660  178.0700  136.8710 C   0  0  0  0  0  0  0  0  0  0  0  0
  187.0800  177.4980  135.3810 S   0  0  0  0  0  0  0  0  0  0  0  0
  188.7950  179.0130  136.7710 C   0  0  0  0  0  2  0  0  0  0  0  0
  185.6740  177.5840  137.6830 C   0  0  2  0  0  3  0  0  0  0  0  0
  187.0200  177.9980  138.0190 N   0  0  0  0  0  0  0  0  0  0  0  0
  185.4800  177.8100  136.1900 C   0  0  0  0  0  2  0  0  0  0  0  0
  183.7780  178.7390  141.9930 C   0  0  0  0  0  2  0  0  0  0  0  0
  184.8730  179.2010  142.9410 C   0  0  2  0  0  3  0  0  0  0  0  0
  186.0460  178.2710  142.8790 C   0  0  0  0  0  3  0  0  0  0  0  0
  184.9460  178.2660  139.9780 C   0  0  1  0  0  3  0  0  0  0  0  0
  186.7140  177.9790  141.7570 C   0  0  0  0  0  3  0  0  0  0  0  0
  186.4270  178.5260  140.3790 C   0  0  1  0  0  3  0  0  0  0  0  0
  184.3530  179.2790  144.3430 C   0  0  0  0  0  0  0  0  0  0  0  0
  185.2830  179.0460  145.4830 C   0  0  0  0  0  1  0  0  0  0  0  0
  183.1780  179.5310  144.5630 O   0  0  0  0  0  0  0  0  0  0  0  0
  188.8500  178.4130  139.6820 C   0  0  0  0  0  2  0  0  0  0  0  0
  189.8590  177.2790  139.8240 C   0  0  0  0  0  2  0  0  0  0  0  0
  192.1520  177.2950  140.7640 C   0  0  0  0  0  1  0  0  0  0  0  0
  190.6800  177.4340  141.0940 C   0  0  2  0  0  3  0  0  0  0  0  0
  190.3070  176.4330  142.0370 O   0  0  0  0  0  0  0  0  0  0  0  0
  189.9050  178.0830  145.2910 N   0  0  0  0  0  2  0  0  0  0  0  0
  191.3590  176.5620  146.4970 C   0  0  0  0  0  0  0  0  0  0  0  0
  189.9960  177.1680  146.4170 C   0  0  0  0  0  2  0  0  0  0  0  0
  189.4100  177.3450  144.1350 C   0  0  1  0  0  3  0  0  0  0  0  0
  191.5490  176.0160  144.0180 C   0  0  0  0  0  3  0  0  0  0  0  0
  190.4770  176.5700  143.4210 C   0  0  0  0  0  0  0  0  0  0  0  0
  191.9800  176.0400  145.4320 C   0  0  0  0  0  3  0  0  0  0  0  0
  188.3210  176.5420  144.4440 F   0  0  0  0  0  0  0  0  0  0  0  0
  192.0050  176.4650  147.8200 C   0  0  0  0  0  0  0  0  0  0  0  0
  192.6650  175.2670  148.2220 N   0  0  0  0  0  1  0  0  0  0  0  0
  191.9800  177.4460  148.6100 O   0  0  0  0  0  0  0  0  0  0  0  0
  1 19  1  6  0  0  0
  1 15  1  0  0  0  0
  2 10  1  0  0  0  0
  4  8  1  0  0  0  0
  5  9  1  0  0  0  0
  5  4  1  0  0  0  0
  6  4  2  0  0  0  0
  7  9  1  6  0  0  0
  7  8  1  0  0  0  0
  7  3  1  0  0  0  0
  8  1  1  0  0  0  0
 10 11  1  0  0  0  0
 11 16  1  1  0  0  0
 12 11  1  0  0  0  0
 13  3  1  6  0  0  0
 13 15  1  0  0  0  0
 13  2  1  0  0  0  0
 14 12  2  0  0  0  0
 15 14  1  1  0  0  0
 16 18  2  0  0  0  0
 16 17  1  0  0  0  0
 19 20  1  0  0  0  0
 20 22  1  0  0  0  0
 22 21  1  6  0  0  0
 22 23  1  0  0  0  0
 23 29  1  0  0  0  0
 24 26  1  0  0  0  0
 25 32  1  0  0  0  0
 26 25  1  0  0  0  0
 27 31  1  1  0  0  0
 27 24  1  0  0  0  0
 28 30  1  0  0  0  0
 29 28  2  0  0  0  0
 29 27  1  0  0  0  0
 30 25  2  0  0  0  0
 32 33  1  0  0  0  0
 32 34  2  0  0  0  0
M  END
>  <MODEL>
7

>  <REMARK>
 VINA RESULT:      -8.3      2.190      5.075
  Name = 
  7 active torsions:
  status: ('A' for Active; 'I' for Inactive)
    1  A    between atoms: C_1  and  C_9
    2  A    between atoms: C_3  and  C_25
    3  A    between atoms: O_6  and  C_28
    4  A    between atoms: O_6  and  C_30
    5  A    between atoms: C_7  and  C_11
    6  A    between atoms: C_8  and  C_9
    7  A    between atoms: C_8  and  C_30
                            x       y       z     vdW  Elec       q    Type
                         _______ _______ _______ _____ _____    ______ ____

>  <TORSDO>
F 7

$$$$
=
 OpenBabel10272415113D

 34 37  0  0  1  0  0  0  0  0999 V2000
  190.1030  176.5410  139.2740 C   0  0  2  0  0  3  0  0  0  0  0  0
  187.0360  177.3750  137.1280 N   0  0  0  0  0  2  0  0  0  0  0  0
  188.8290  175.8370  136.7050 C   0  0  0  0  0  2  0  0  0  0  0  0
  192.1500  175.6050  137.9890 C   0  0  0  0  0  0  0  0  0  0  0  0
  192.4900  174.2100  136.9390 S   0  0  0  0  0  0  0  0  0  0  0  0
  193.0350  176.5930  138.0310 C   0  0  0  0  0  2  0  0  0  0  0  0
  189.9390  175.0090  137.3090 C   0  0  2  0  0  3  0  0  0  0  0  0
  190.7540  175.8690  138.1410 N   0  0  0  0  0  0  0  0  0  0  0  0
  190.8340  174.4370  136.2190 C   0  0  0  0  0  2  0  0  0  0  0  0
  185.8500  177.5330  137.9550 C   0  0  0  0  0  2  0  0  0  0  0  0
  186.0800  178.6590  138.9500 C   0  0  2  0  0  3  0  0  0  0  0  0
  186.8300  178.1560  140.1460 C   0  0  0  0  0  3  0  0  0  0  0  0
  187.9770  176.4830  137.7970 C   0  0  1  0  0  3  0  0  0  0  0  0
  188.0230  177.5520  140.0840 C   0  0  0  0  0  3  0  0  0  0  0  0
  188.8230  177.2800  138.8320 C   0  0  1  0  0  3  0  0  0  0  0  0
  184.7750  179.2560  139.3770 C   0  0  0  0  0  0  0  0  0  0  0  0
  183.9110  178.5180  140.3410 C   0  0  0  0  0  1  0  0  0  0  0  0
  184.4100  180.3380  138.9440 O   0  0  0  0  0  0  0  0  0  0  0  0
  191.0320  177.4890  140.0350 C   0  0  0  0  0  2  0  0  0  0  0  0
  191.3540  176.9480  141.4230 C   0  0  0  0  0  2  0  0  0  0  0  0
  191.5940  178.4790  143.3560 C   0  0  0  0  0  1  0  0  0  0  0  0
  190.6040  177.7180  142.4980 C   0  0  2  0  0  3  0  0  0  0  0  0
  189.8630  176.8150  143.3140 O   0  0  0  0  0  0  0  0  0  0  0  0
  188.0590  176.9580  146.5080 N   0  0  0  0  0  2  0  0  0  0  0  0
  186.1520  178.1780  145.6350 C   0  0  0  0  0  0  0  0  0  0  0  0
  187.2430  178.1520  146.6560 C   0  0  0  0  0  2  0  0  0  0  0  0
  189.1810  177.2720  145.6300 C   0  0  1  0  0  3  0  0  0  0  0  0
  187.6230  177.5230  143.6630 C   0  0  0  0  0  3  0  0  0  0  0  0
  188.8310  177.2160  144.1720 C   0  0  0  0  0  0  0  0  0  0  0  0
  186.3720  177.9320  144.3380 C   0  0  0  0  0  3  0  0  0  0  0  0
  189.7920  178.4730  145.9590 F   0  0  0  0  0  0  0  0  0  0  0  0
  184.7970  178.5680  146.0690 C   0  0  0  0  0  0  0  0  0  0  0  0
  183.8730  179.1390  145.1450 N   0  0  0  0  0  1  0  0  0  0  0  0
  184.4420  178.3990  147.2660 O   0  0  0  0  0  0  0  0  0  0  0  0
  1 19  1  6  0  0  0
  2 13  1  0  0  0  0
  2 10  1  0  0  0  0
  3  7  1  0  0  0  0
  4  6  2  0  0  0  0
  4  8  1  0  0  0  0
  5  4  1  0  0  0  0
  7  9  1  6  0  0  0
  7  8  1  0  0  0  0
  8  1  1  0  0  0  0
  9  5  1  0  0  0  0
 10 11  1  0  0  0  0
 11 16  1  1  0  0  0
 11 12  1  0  0  0  0
 13  3  1  6  0  0  0
 13 15  1  0  0  0  0
 14 12  2  0  0  0  0
 15  1  1  0  0  0  0
 15 14  1  1  0  0  0
 16 17  1  0  0  0  0
 18 16  2  0  0  0  0
 19 20  1  0  0  0  0
 20 22  1  0  0  0  0
 22 23  1  0  0  0  0
 22 21  1  1  0  0  0
 23 29  1  0  0  0  0
 24 26  1  0  0  0  0
 25 32  1  0  0  0  0
 25 26  1  0  0  0  0
 27 31  1  1  0  0  0
 27 24  1  0  0  0  0
 28 29  2  0  0  0  0
 28 30  1  0  0  0  0
 29 27  1  0  0  0  0
 30 25  2  0  0  0  0
 32 34  2  0  0  0  0
 33 32  1  0  0  0  0
M  END
>  <MODEL>
8

>  <REMARK>
 VINA RESULT:      -8.2      2.436      5.186
  Name = 
  7 active torsions:
  status: ('A' for Active; 'I' for Inactive)
    1  A    between atoms: C_1  and  C_9
    2  A    between atoms: C_3  and  C_25
    3  A    between atoms: O_6  and  C_28
    4  A    between atoms: O_6  and  C_30
    5  A    between atoms: C_7  and  C_11
    6  A    between atoms: C_8  and  C_9
    7  A    between atoms: C_8  and  C_30
                            x       y       z     vdW  Elec       q    Type
                         _______ _______ _______ _____ _____    ______ ____

>  <TORSDO>
F 7

$$$$
=
 OpenBabel10272415113D

 34 37  0  0  1  0  0  0  0  0999 V2000
  185.3450  178.7590  141.1560 C   0  0  2  0  0  3  0  0  0  0  0  0
  187.5980  177.4490  138.3420 N   0  0  0  0  0  2  0  0  0  0  0  0
  185.4040  178.4130  138.2240 C   0  0  0  0  0  2  0  0  0  0  0  0
  182.8050  178.7770  140.6410 C   0  0  0  0  0  0  0  0  0  0  0  0
  181.7370  179.5170  139.4260 S   0  0  0  0  0  0  0  0  0  0  0  0
  182.3150  177.8080  141.4040 C   0  0  0  0  0  2  0  0  0  0  0  0
  184.3760  179.2800  138.9140 C   0  0  2  0  0  3  0  0  0  0  0  0
  184.1810  178.7790  140.2590 N   0  0  0  0  0  0  0  0  0  0  0  0
  183.0390  179.2010  138.1930 C   0  0  0  0  0  2  0  0  0  0  0  0
  188.9860  177.8160  138.5740 C   0  0  0  0  0  2  0  0  0  0  0  0
  189.4470  177.2230  139.8950 C   0  0  2  0  0  3  0  0  0  0  0  0
  189.0370  178.1030  141.0360 C   0  0  0  0  0  3  0  0  0  0  0  0
  186.7250  178.4220  138.9910 C   0  0  1  0  0  3  0  0  0  0  0  0
  187.7740  178.4680  141.2870 C   0  0  0  0  0  3  0  0  0  0  0  0
  186.5540  178.0630  140.4950 C   0  0  1  0  0  3  0  0  0  0  0  0
  190.9330  177.0380  139.8970 C   0  0  0  0  0  0  0  0  0  0  0  0
  191.7010  177.2890  141.1480 C   0  0  0  0  0  1  0  0  0  0  0  0
  191.5220  176.6860  138.8860 O   0  0  0  0  0  0  0  0  0  0  0  0
  185.0490  178.1350  142.5210 C   0  0  0  0  0  2  0  0  0  0  0  0
  185.1600  179.1700  143.6350 C   0  0  0  0  0  2  0  0  0  0  0  0
  183.7640  178.7580  145.6400 C   0  0  0  0  0  1  0  0  0  0  0  0
  185.1160  178.5080  145.0030 C   0  0  2  0  0  3  0  0  0  0  0  0
  186.1400  179.0450  145.8340 O   0  0  0  0  0  0  0  0  0  0  0  0
  189.0960  178.1680  147.8270 N   0  0  0  0  0  2  0  0  0  0  0  0
  190.1920  176.9130  146.0630 C   0  0  0  0  0  0  0  0  0  0  0  0
  189.6740  176.8840  147.4650 C   0  0  0  0  0  2  0  0  0  0  0  0
  187.6680  178.1310  147.5270 C   0  0  1  0  0  3  0  0  0  0  0  0
  188.1490  178.0490  145.0540 C   0  0  0  0  0  3  0  0  0  0  0  0
  187.3550  178.3950  146.0840 C   0  0  0  0  0  0  0  0  0  0  0  0
  189.4770  177.3970  145.0400 C   0  0  0  0  0  3  0  0  0  0  0  0
  187.0620  176.9660  147.9730 F   0  0  0  0  0  0  0  0  0  0  0  0
  191.5110  176.3090  145.7920 C   0  0  0  0  0  0  0  0  0  0  0  0
  191.8500  175.8620  144.4820 N   0  0  0  0  0  1  0  0  0  0  0  0
  192.3530  176.1830  146.7200 O   0  0  0  0  0  0  0  0  0  0  0  0
  1 19  1  1  0  0  0
  2 10  1  0  0  0  0
  2 13  1  0  0  0  0
  3  7  1  0  0  0  0
  4  6  2  0  0  0  0
  5  4  1  0  0  0  0
  7  9  1  6  0  0  0
  7  8  1  0  0  0  0
  8  4  1  0  0  0  0
  8  1  1  0  0  0  0
  9  5  1  0  0  0  0
 10 11  1  0  0  0  0
 11 16  1  6  0  0  0
 11 12  1  0  0  0  0
 12 14  2  0  0  0  0
 13  3  1  6  0  0  0
 13 15  1  0  0  0  0
 15  1  1  0  0  0  0
 15 14  1  1  0  0  0
 16 17  1  0  0  0  0
 18 16  2  0  0  0  0
 19 20  1  0  0  0  0
 20 22  1  0  0  0  0
 22 21  1  1  0  0  0
 22 23  1  0  0  0  0
 23 29  1  0  0  0  0
 25 26  1  0  0  0  0
 26 24  1  0  0  0  0
 27 24  1  0  0  0  0
 27 31  1  6  0  0  0
 28 29  2  0  0  0  0
 29 27  1  0  0  0  0
 30 28  1  0  0  0  0
 30 25  2  0  0  0  0
 32 25  1  0  0  0  0
 32 34  2  0  0  0  0
 33 32  1  0  0  0  0
M  END
>  <MODEL>
9

>  <REMARK>
 VINA RESULT:      -8.2      2.449      4.008
  Name = 
  7 active torsions:
  status: ('A' for Active; 'I' for Inactive)
    1  A    between atoms: C_1  and  C_9
    2  A    between atoms: C_3  and  C_25
    3  A    between atoms: O_6  and  C_28
    4  A    between atoms: O_6  and  C_30
    5  A    between atoms: C_7  and  C_11
    6  A    between atoms: C_8  and  C_9
    7  A    between atoms: C_8  and  C_30
                            x       y       z     vdW  Elec       q    Type
                         _______ _______ _______ _____ _____    ______ ____

>  <TORSDO>
F 7

$$$$
