=
 OpenBabel10272402113D

 32 37  0  0  1  0  0  0  0  0999 V2000
  186.2660  178.2430  144.7580 C   0  0  0  0  0  0  0  0  0  0  0  0
  188.6210  177.7380  144.4920 C   0  0  0  0  0  0  0  0  0  0  0  0
  185.1090  178.6370  145.6450 C   0  0  0  0  0  2  0  0  0  0  0  0
  187.5410  178.0270  145.3180 C   0  0  0  0  0  0  0  0  0  0  0  0
  189.9480  177.5330  145.0990 C   0  0  0  0  0  0  0  0  0  0  0  0
  190.7640  177.1140  140.0740 C   0  0  0  0  0  2  0  0  0  0  0  0
  188.4370  177.6250  143.1110 C   0  0  0  0  0  0  0  0  0  0  0  0
  191.9930  177.0060  142.1600 O   0  0  0  0  0  0  0  0  0  0  0  0
  190.9290  177.6220  142.8400 C   0  0  2  0  0  3  0  0  0  0  0  0
  187.7510  177.9090  146.8140 C   0  0  1  0  0  3  0  0  0  0  0  0
  191.0340  177.4130  144.3280 C   0  0  0  0  0  3  0  0  0  0  0  0
  189.0490  178.3320  147.1980 O   0  0  0  0  0  0  0  0  0  0  0  0
  186.6890  178.6790  147.5880 C   0  0  0  0  0  2  0  0  0  0  0  0
  187.1970  177.8150  142.5830 N   0  0  0  0  0  0  0  0  0  0  0  0
  186.1200  178.1480  143.3520 C   0  0  0  0  0  0  0  0  0  0  0  0
  189.5850  177.1260  142.2710 C   0  0  2  0  0  3  0  0  0  0  0  0
  190.0370  177.4980  146.6000 C   0  0  1  0  0  3  0  0  0  0  0  0
  185.3120  178.2370  147.1080 C   0  0  0  0  0  2  0  0  0  0  0  0
  192.0040  177.5590  140.8630 C   0  0  0  0  0  2  0  0  0  0  0  0
  189.5010  177.5610  140.8100 C   0  0  0  0  0  2  0  0  0  0  0  0
  183.4880  178.8820  140.7060 C   0  0  0  0  0  0  0  0  0  0  0  0
  183.3810  179.1070  139.3390 O   0  0  0  0  0  1  0  0  0  0  0  0
  184.8220  178.3870  142.6820 C   0  0  0  0  0  0  0  0  0  0  0  0
  182.3350  178.9130  141.4940 C   0  0  0  0  0  3  0  0  0  0  0  0
  183.6550  178.4280  143.4570 C   0  0  0  0  0  3  0  0  0  0  0  0
  184.7370  178.6230  141.2920 C   0  0  0  0  0  0  0  0  0  0  0  0
  186.1660  178.5480  140.2590 Cl  0  0  0  0  0  0  0  0  0  0  0  0
  182.4130  178.6850  142.8740 C   0  0  0  0  0  0  0  0  0  0  0  0
  179.9820  178.3710  143.2080 C   0  0  0  0  0  1  0  0  0  0  0  0
  181.2760  178.7110  143.6870 O   0  0  0  0  0  0  0  0  0  0  0  0
  189.9980  176.0700  147.1370 C   0  0  0  0  0  2  0  0  0  0  0  0
  191.2790  175.6700  147.5110 O   0  0  0  0  0  1  0  0  0  0  0  0
  1  4  1  0  0  0  0
  1  3  1  0  0  0  0
  2  5  1  0  0  0  0
  2  4  2  0  0  0  0
  3 18  1  0  0  0  0
  4 10  1  0  0  0  0
  5 17  1  0  0  0  0
  6 20  1  0  0  0  0
  6 19  1  0  0  0  0
  7  2  1  0  0  0  0
  8  9  1  0  0  0  0
  9 11  1  1  0  0  0
 10 12  1  0  0  0  0
 10 13  1  1  0  0  0
 11  5  2  0  0  0  0
 14  7  2  0  0  0  0
 14 15  1  0  0  0  0
 15  1  2  0  0  0  0
 16 20  1  6  0  0  0
 16  9  1  0  0  0  0
 16  7  1  0  0  0  0
 17 31  1  1  0  0  0
 17 12  1  0  0  0  0
 18 13  1  0  0  0  0
 19  8  1  0  0  0  0
 21 26  2  0  0  0  0
 21 24  1  0  0  0  0
 22 21  1  0  0  0  0
 23 15  1  0  0  0  0
 23 25  2  0  0  0  0
 24 28  2  0  0  0  0
 26 23  1  0  0  0  0
 27 26  1  0  0  0  0
 28 25  1  0  0  0  0
 28 30  1  0  0  0  0
 29 30  1  0  0  0  0
 31 32  1  0  0  0  0
M  END
>  <MODEL>
1

>  <REMARK>
 VINA RESULT:     -10.5      0.000      0.000
  Name = 
  3 active torsions:
  status: ('A' for Active; 'I' for Inactive)
    1  A    between atoms: C_13  and  C_29
    2  A    between atoms: O_15  and  C_26
    3  A    between atoms: C_16  and  C_27
                            x       y       z     vdW  Elec       q    Type
                         _______ _______ _______ _____ _____    ______ ____

>  <TORSDO>
F 3

$$$$
=
 OpenBabel10272402113D

 32 37  0  0  1  0  0  0  0  0999 V2000
  189.3670  177.2970  143.4210 C   0  0  0  0  0  0  0  0  0  0  0  0
  187.5360  177.7820  144.9320 C   0  0  0  0  0  0  0  0  0  0  0  0
  190.7550  176.7480  143.1880 C   0  0  0  0  0  2  0  0  0  0  0  0
  188.8400  177.3470  144.7270 C   0  0  0  0  0  0  0  0  0  0  0  0
  187.0010  177.8110  146.3040 C   0  0  0  0  0  0  0  0  0  0  0  0
  183.0910  179.3120  143.3790 C   0  0  0  0  0  2  0  0  0  0  0  0
  186.7590  178.2040  143.8480 C   0  0  0  0  0  0  0  0  0  0  0  0
  183.6060  178.9190  145.7150 O   0  0  0  0  0  0  0  0  0  0  0  0
  184.7580  178.1980  145.3590 C   0  0  2  0  0  3  0  0  0  0  0  0
  189.7050  177.1250  145.9500 C   0  0  1  0  0  3  0  0  0  0  0  0
  185.7060  178.0680  146.5220 C   0  0  0  0  0  3  0  0  0  0  0  0
  188.9580  176.5900  147.0320 O   0  0  0  0  0  0  0  0  0  0  0  0
  190.8980  176.2320  145.6340 C   0  0  0  0  0  2  0  0  0  0  0  0
  187.2860  178.1710  142.5930 N   0  0  0  0  0  0  0  0  0  0  0  0
  188.5440  177.7060  142.3430 C   0  0  0  0  0  0  0  0  0  0  0  0
  185.4240  178.8450  144.1280 C   0  0  2  0  0  3  0  0  0  0  0  0
  187.9460  177.5090  147.4340 C   0  0  1  0  0  3  0  0  0  0  0  0
  191.6400  176.8070  144.4340 C   0  0  0  0  0  2  0  0  0  0  0  0
  182.6560  178.6680  144.7030 C   0  0  0  0  0  2  0  0  0  0  0  0
  184.4490  178.7480  142.9570 C   0  0  0  0  0  2  0  0  0  0  0  0
  188.6340  177.8870  138.5450 C   0  0  0  0  0  0  0  0  0  0  0  0
  187.8140  178.2130  137.4710 O   0  0  0  0  0  1  0  0  0  0  0  0
  189.0110  177.6570  140.9390 C   0  0  0  0  0  0  0  0  0  0  0  0
  189.9420  177.4650  138.3000 C   0  0  0  0  0  3  0  0  0  0  0  0
  190.3190  177.2300  140.6730 C   0  0  0  0  0  3  0  0  0  0  0  0
  188.1580  177.9840  139.8620 C   0  0  0  0  0  0  0  0  0  0  0  0
  186.5130  178.5630  140.1360 Cl  0  0  0  0  0  0  0  0  0  0  0  0
  190.7920  177.1350  139.3640 C   0  0  0  0  0  0  0  0  0  0  0  0
  192.6250  176.4490  137.8500 C   0  0  0  0  0  1  0  0  0  0  0  0
  192.1060  176.7080  139.1470 O   0  0  0  0  0  0  0  0  0  0  0  0
  188.5230  178.7830  148.0460 C   0  0  0  0  0  2  0  0  0  0  0  0
  189.5020  178.4560  148.9830 O   0  0  0  0  0  1  0  0  0  0  0  0
  1  4  1  0  0  0  0
  2  5  1  0  0  0  0
  3  1  1  0  0  0  0
  3 18  1  0  0  0  0
  4  2  2  0  0  0  0
  4 10  1  0  0  0  0
  5 11  2  0  0  0  0
  5 17  1  0  0  0  0
  6 19  1  0  0  0  0
  7 16  1  0  0  0  0
  7  2  1  0  0  0  0
  9  8  1  0  0  0  0
  9 11  1  1  0  0  0
 10 13  1  6  0  0  0
 10 12  1  0  0  0  0
 12 17  1  0  0  0  0
 14  7  2  0  0  0  0
 15 14  1  0  0  0  0
 15  1  2  0  0  0  0
 16 20  1  6  0  0  0
 16  9  1  0  0  0  0
 17 31  1  6  0  0  0
 18 13  1  0  0  0  0
 19  8  1  0  0  0  0
 20  6  1  0  0  0  0
 21 26  1  0  0  0  0
 22 21  1  0  0  0  0
 23 15  1  0  0  0  0
 24 21  2  0  0  0  0
 24 28  1  0  0  0  0
 25 23  1  0  0  0  0
 26 27  1  0  0  0  0
 26 23  2  0  0  0  0
 28 25  2  0  0  0  0
 29 30  1  0  0  0  0
 30 28  1  0  0  0  0
 31 32  1  0  0  0  0
M  END
>  <MODEL>
2

>  <REMARK>
 VINA RESULT:     -10.3      1.727      6.187
  Name = 
  3 active torsions:
  status: ('A' for Active; 'I' for Inactive)
    1  A    between atoms: C_13  and  C_29
    2  A    between atoms: O_15  and  C_26
    3  A    between atoms: C_16  and  C_27
                            x       y       z     vdW  Elec       q    Type
                         _______ _______ _______ _____ _____    ______ ____

>  <TORSDO>
F 3

$$$$
=
 OpenBabel10272402113D

 32 37  0  0  1  0  0  0  0  0999 V2000
  187.6930  177.9690  142.0520 C   0  0  0  0  0  0  0  0  0  0  0  0
  185.5200  178.3510  141.0500 C   0  0  0  0  0  0  0  0  0  0  0  0
  189.1950  177.8780  141.9150 C   0  0  0  0  0  2  0  0  0  0  0  0
  186.8940  178.1920  140.9120 C   0  0  0  0  0  0  0  0  0  0  0  0
  184.7070  178.5990  139.8460 C   0  0  0  0  0  0  0  0  0  0  0  0
  181.3620  178.7690  143.7030 C   0  0  0  0  0  2  0  0  0  0  0  0
  184.9260  178.2540  142.3110 C   0  0  0  0  0  0  0  0  0  0  0  0
  181.4120  178.9940  141.2900 O   0  0  0  0  0  0  0  0  0  0  0  0
  182.8080  179.1530  141.3150 C   0  0  2  0  0  3  0  0  0  0  0  0
  187.4500  178.0760  139.5080 C   0  0  1  0  0  3  0  0  0  0  0  0
  183.4120  178.9150  139.9560 C   0  0  0  0  0  3  0  0  0  0  0  0
  186.7550  178.9120  138.5970 O   0  0  0  0  0  0  0  0  0  0  0  0
  188.9430  178.3750  139.4730 C   0  0  0  0  0  2  0  0  0  0  0  0
  185.7050  178.0180  143.4030 N   0  0  0  0  0  0  0  0  0  0  0  0
  187.0620  177.9040  143.3190 C   0  0  0  0  0  0  0  0  0  0  0  0
  183.4210  178.2420  142.3980 C   0  0  2  0  0  3  0  0  0  0  0  0
  185.3890  178.5180  138.5090 C   0  0  1  0  0  3  0  0  0  0  0  0
  189.6450  177.4990  140.5030 C   0  0  0  0  0  2  0  0  0  0  0  0
  180.9270  179.5830  142.4760 C   0  0  0  0  0  2  0  0  0  0  0  0
  182.8890  178.6960  143.7550 C   0  0  0  0  0  2  0  0  0  0  0  0
  188.0730  177.8550  146.9850 C   0  0  0  0  0  0  0  0  0  0  0  0
  187.5590  178.1610  148.2390 O   0  0  0  0  0  1  0  0  0  0  0  0
  187.8310  177.7020  144.5670 C   0  0  0  0  0  0  0  0  0  0  0  0
  189.3770  177.3660  146.8840 C   0  0  0  0  0  3  0  0  0  0  0  0
  189.1440  177.2180  144.4850 C   0  0  0  0  0  3  0  0  0  0  0  0
  187.2930  178.0290  145.8320 C   0  0  0  0  0  0  0  0  0  0  0  0
  185.6340  178.6070  146.0010 Cl  0  0  0  0  0  0  0  0  0  0  0  0
  189.9200  177.0450  145.6320 C   0  0  0  0  0  0  0  0  0  0  0  0
  191.9900  176.1090  146.6110 C   0  0  0  0  0  1  0  0  0  0  0  0
  191.2230  176.5550  145.5010 O   0  0  0  0  0  0  0  0  0  0  0  0
  185.2190  177.1420  137.8690 C   0  0  0  0  0  2  0  0  0  0  0  0
  185.6560  177.1790  136.5460 O   0  0  0  0  0  1  0  0  0  0  0  0
  1 15  1  0  0  0  0
  2  7  2  0  0  0  0
  3  1  1  0  0  0  0
  4  2  1  0  0  0  0
  4  1  2  0  0  0  0
  5 11  2  0  0  0  0
  5  2  1  0  0  0  0
  6 20  1  0  0  0  0
  7 16  1  0  0  0  0
  7 14  1  0  0  0  0
  8  9  1  0  0  0  0
  8 19  1  0  0  0  0
  9 11  1  6  0  0  0
  9 16  1  0  0  0  0
 10 13  1  1  0  0  0
 10  4  1  0  0  0  0
 12 10  1  0  0  0  0
 13 18  1  0  0  0  0
 15 14  2  0  0  0  0
 15 23  1  0  0  0  0
 16 20  1  1  0  0  0
 17 31  1  1  0  0  0
 17 12  1  0  0  0  0
 17  5  1  0  0  0  0
 18  3  1  0  0  0  0
 19  6  1  0  0  0  0
 21 22  1  0  0  0  0
 23 26  1  0  0  0  0
 24 21  1  0  0  0  0
 25 23  2  0  0  0  0
 25 28  1  0  0  0  0
 26 27  1  0  0  0  0
 26 21  2  0  0  0  0
 28 24  2  0  0  0  0
 30 28  1  0  0  0  0
 30 29  1  0  0  0  0
 32 31  1  0  0  0  0
M  END
>  <MODEL>
3

>  <REMARK>
 VINA RESULT:      -9.8      2.063      8.003
  Name = 
  3 active torsions:
  status: ('A' for Active; 'I' for Inactive)
    1  A    between atoms: C_13  and  C_29
    2  A    between atoms: O_15  and  C_26
    3  A    between atoms: C_16  and  C_27
                            x       y       z     vdW  Elec       q    Type
                         _______ _______ _______ _____ _____    ______ ____

>  <TORSDO>
F 3

$$$$
=
 OpenBabel10272402113D

 32 37  0  0  1  0  0  0  0  0999 V2000
  186.1820  178.2590  142.8330 C   0  0  0  0  0  0  0  0  0  0  0  0
  186.1630  178.2820  140.4100 C   0  0  0  0  0  0  0  0  0  0  0  0
  185.4320  178.3060  144.1440 C   0  0  0  0  0  2  0  0  0  0  0  0
  185.4840  178.4010  141.6170 C   0  0  0  0  0  0  0  0  0  0  0  0
  185.4100  178.4170  139.1520 C   0  0  0  0  0  0  0  0  0  0  0  0
  190.1850  177.3690  137.6720 C   0  0  0  0  0  2  0  0  0  0  0  0
  187.5430  178.0590  140.4010 C   0  0  0  0  0  0  0  0  0  0  0  0
  188.0080  177.8130  136.7050 O   0  0  0  0  0  0  0  0  0  0  0  0
  187.3890  177.5800  137.9450 C   0  0  2  0  0  3  0  0  0  0  0  0
  184.0450  178.8690  141.5680 C   0  0  1  0  0  3  0  0  0  0  0  0
  185.9950  178.1500  137.9790 C   0  0  0  0  0  3  0  0  0  0  0  0
  183.3620  178.3520  140.4370 O   0  0  0  0  0  0  0  0  0  0  0  0
  183.2990  178.5140  142.8480 C   0  0  0  0  0  2  0  0  0  0  0  0
  188.2110  177.9450  141.5820 N   0  0  0  0  0  0  0  0  0  0  0  0
  187.5760  178.0070  142.7880 C   0  0  0  0  0  0  0  0  0  0  0  0
  188.2740  178.1250  139.0840 C   0  0  2  0  0  3  0  0  0  0  0  0
  183.9660  178.8270  139.2370 C   0  0  1  0  0  3  0  0  0  0  0  0
  184.0910  179.0350  144.0410 C   0  0  0  0  0  2  0  0  0  0  0  0
  189.1200  176.9470  136.6510 C   0  0  0  0  0  2  0  0  0  0  0  0
  189.5850  177.3440  139.0790 C   0  0  0  0  0  2  0  0  0  0  0  0
  190.5060  177.5770  145.1730 C   0  0  0  0  0  0  0  0  0  0  0  0
  191.8960  177.5620  145.1670 O   0  0  0  0  0  1  0  0  0  0  0  0
  188.3770  177.8180  144.0180 C   0  0  0  0  0  0  0  0  0  0  0  0
  189.8280  177.3750  146.3770 C   0  0  0  0  0  3  0  0  0  0  0  0
  187.7140  177.6080  145.2350 C   0  0  0  0  0  3  0  0  0  0  0  0
  189.7890  177.7970  143.9870 C   0  0  0  0  0  0  0  0  0  0  0  0
  190.6790  178.0910  142.4920 Cl  0  0  0  0  0  0  0  0  0  0  0  0
  188.4280  177.3900  146.4140 C   0  0  0  0  0  0  0  0  0  0  0  0
  188.0170  177.9010  148.8000 C   0  0  0  0  0  1  0  0  0  0  0  0
  187.7230  177.1900  147.6050 O   0  0  0  0  0  0  0  0  0  0  0  0
  183.7920  180.3320  139.0520 C   0  0  0  0  0  2  0  0  0  0  0  0
  182.5080  180.6060  138.5840 O   0  0  0  0  0  1  0  0  0  0  0  0
  1  3  1  0  0  0  0
  2  4  1  0  0  0  0
  4  1  2  0  0  0  0
  5 17  1  0  0  0  0
  5  2  1  0  0  0  0
  6 20  1  0  0  0  0
  7  2  2  0  0  0  0
  7 14  1  0  0  0  0
  8  9  1  0  0  0  0
  9 11  1  6  0  0  0
  9 16  1  0  0  0  0
 10  4  1  0  0  0  0
 10 13  1  1  0  0  0
 11  5  2  0  0  0  0
 12 10  1  0  0  0  0
 13 18  1  0  0  0  0
 14 15  2  0  0  0  0
 15  1  1  0  0  0  0
 15 23  1  0  0  0  0
 16 20  1  1  0  0  0
 16  7  1  0  0  0  0
 17 31  1  1  0  0  0
 17 12  1  0  0  0  0
 18  3  1  0  0  0  0
 19  8  1  0  0  0  0
 19  6  1  0  0  0  0
 21 24  1  0  0  0  0
 22 21  1  0  0  0  0
 23 25  2  0  0  0  0
 24 28  2  0  0  0  0
 25 28  1  0  0  0  0
 26 23  1  0  0  0  0
 26 21  2  0  0  0  0
 27 26  1  0  0  0  0
 28 30  1  0  0  0  0
 30 29  1  0  0  0  0
 32 31  1  0  0  0  0
M  END
>  <MODEL>
4

>  <REMARK>
 VINA RESULT:      -9.4      2.240      6.703
  Name = 
  3 active torsions:
  status: ('A' for Active; 'I' for Inactive)
    1  A    between atoms: C_13  and  C_29
    2  A    between atoms: O_15  and  C_26
    3  A    between atoms: C_16  and  C_27
                            x       y       z     vdW  Elec       q    Type
                         _______ _______ _______ _____ _____    ______ ____

>  <TORSDO>
F 3

$$$$
=
 OpenBabel10272402113D

 32 37  0  0  1  0  0  0  0  0999 V2000
  189.6680  177.6080  142.8490 C   0  0  0  0  0  0  0  0  0  0  0  0
  187.9720  177.9260  141.1470 C   0  0  0  0  0  0  0  0  0  0  0  0
  191.1220  177.4600  143.2290 C   0  0  0  0  0  2  0  0  0  0  0  0
  189.3020  177.7150  141.4920 C   0  0  0  0  0  0  0  0  0  0  0  0
  187.6160  178.0510  139.7240 C   0  0  0  0  0  0  0  0  0  0  0  0
  183.2110  178.7700  142.2080 C   0  0  0  0  0  2  0  0  0  0  0  0
  186.9930  177.9970  142.1430 C   0  0  0  0  0  0  0  0  0  0  0  0
  184.0630  178.7050  139.9400 O   0  0  0  0  0  0  0  0  0  0  0  0
  185.3800  178.8280  140.4110 C   0  0  2  0  0  3  0  0  0  0  0  0
  190.2780  177.4170  140.3730 C   0  0  1  0  0  3  0  0  0  0  0  0
  186.3800  178.4140  139.3630 C   0  0  0  0  0  3  0  0  0  0  0  0
  189.9750  178.1580  139.2010 O   0  0  0  0  0  0  0  0  0  0  0  0
  191.7160  177.6690  140.8050 C   0  0  0  0  0  2  0  0  0  0  0  0
  187.3540  177.8710  143.4490 N   0  0  0  0  0  0  0  0  0  0  0  0
  188.6540  177.7110  143.8340 C   0  0  0  0  0  0  0  0  0  0  0  0
  185.5450  178.0360  141.7240 C   0  0  2  0  0  3  0  0  0  0  0  0
  188.6910  177.7930  138.7040 C   0  0  1  0  0  3  0  0  0  0  0  0
  191.9840  176.9030  142.0950 C   0  0  0  0  0  2  0  0  0  0  0  0
  183.2560  179.4440  140.8290 C   0  0  0  0  0  2  0  0  0  0  0  0
  184.6290  178.6630  142.7720 C   0  0  0  0  0  2  0  0  0  0  0  0
  188.3430  177.9350  147.6170 C   0  0  0  0  0  0  0  0  0  0  0  0
  187.4110  178.2620  148.5950 O   0  0  0  0  0  1  0  0  0  0  0  0
  188.9570  177.6390  145.2800 C   0  0  0  0  0  0  0  0  0  0  0  0
  189.6290  177.5520  148.0030 C   0  0  0  0  0  3  0  0  0  0  0  0
  190.2450  177.2620  145.6860 C   0  0  0  0  0  3  0  0  0  0  0  0
  187.9980  177.9840  146.2580 C   0  0  0  0  0  0  0  0  0  0  0  0
  186.3500  178.4300  145.8100 Cl  0  0  0  0  0  0  0  0  0  0  0  0
  190.5870  177.2130  147.0380 C   0  0  0  0  0  0  0  0  0  0  0  0
  192.3500  175.4910  147.2620 C   0  0  0  0  0  1  0  0  0  0  0  0
  191.8830  176.8270  147.3950 O   0  0  0  0  0  0  0  0  0  0  0  0
  188.6510  176.3560  138.1900 C   0  0  0  0  0  2  0  0  0  0  0  0
  188.6180  176.3530  136.7970 O   0  0  0  0  0  1  0  0  0  0  0  0
  1  3  1  0  0  0  0
  1 15  1  0  0  0  0
  2  4  1  0  0  0  0
  2  7  2  0  0  0  0
  4  1  2  0  0  0  0
  5  2  1  0  0  0  0
  6 20  1  0  0  0  0
  7 14  1  0  0  0  0
  8  9  1  0  0  0  0
  8 19  1  0  0  0  0
  9 11  1  6  0  0  0
  9 16  1  0  0  0  0
 10 13  1  1  0  0  0
 10  4  1  0  0  0  0
 11  5  2  0  0  0  0
 12 10  1  0  0  0  0
 13 18  1  0  0  0  0
 14 15  2  0  0  0  0
 15 23  1  0  0  0  0
 16  7  1  0  0  0  0
 16 20  1  1  0  0  0
 17 31  1  1  0  0  0
 17 12  1  0  0  0  0
 17  5  1  0  0  0  0
 18  3  1  0  0  0  0
 19  6  1  0  0  0  0
 21 24  1  0  0  0  0
 21 22  1  0  0  0  0
 23 25  2  0  0  0  0
 23 26  1  0  0  0  0
 25 28  1  0  0  0  0
 26 21  2  0  0  0  0
 27 26  1  0  0  0  0
 28 30  1  0  0  0  0
 28 24  2  0  0  0  0
 29 30  1  0  0  0  0
 32 31  1  0  0  0  0
M  END
>  <MODEL>
5

>  <REMARK>
 VINA RESULT:      -9.3      2.115      7.526
  Name = 
  3 active torsions:
  status: ('A' for Active; 'I' for Inactive)
    1  A    between atoms: C_13  and  C_29
    2  A    between atoms: O_15  and  C_26
    3  A    between atoms: C_16  and  C_27
                            x       y       z     vdW  Elec       q    Type
                         _______ _______ _______ _____ _____    ______ ____

>  <TORSDO>
F 3

$$$$
=
 OpenBabel10272402113D

 32 37  0  0  1  0  0  0  0  0999 V2000
  188.5640  177.6610  143.3760 C   0  0  0  0  0  0  0  0  0  0  0  0
  186.5390  178.1340  144.6200 C   0  0  0  0  0  0  0  0  0  0  0  0
  189.9980  177.1850  143.3510 C   0  0  0  0  0  2  0  0  0  0  0  0
  187.8810  177.7680  144.6040 C   0  0  0  0  0  0  0  0  0  0  0  0
  185.8410  178.2240  145.9140 C   0  0  0  0  0  0  0  0  0  0  0  0
  182.2400  179.2680  142.4430 C   0  0  0  0  0  2  0  0  0  0  0  0
  185.8790  178.4290  143.4240 C   0  0  0  0  0  0  0  0  0  0  0  0
  182.4880  179.0730  144.8460 O   0  0  0  0  0  0  0  0  0  0  0  0
  183.7120  178.4020  144.6850 C   0  0  2  0  0  3  0  0  0  0  0  0
  188.6010  177.6860  145.9340 C   0  0  1  0  0  3  0  0  0  0  0  0
  184.5170  178.4130  145.9580 C   0  0  0  0  0  3  0  0  0  0  0  0
  187.7580  177.1820  146.9580 O   0  0  0  0  0  0  0  0  0  0  0  0
  189.8690  176.8500  145.8290 C   0  0  0  0  0  2  0  0  0  0  0  0
  186.5550  178.3420  142.2460 N   0  0  0  0  0  0  0  0  0  0  0  0
  187.8580  177.9410  142.1810 C   0  0  0  0  0  0  0  0  0  0  0  0
  184.4870  179.0020  143.4940 C   0  0  2  0  0  3  0  0  0  0  0  0
  186.6560  178.0610  147.1660 C   0  0  1  0  0  3  0  0  0  0  0  0
  190.7200  177.3860  144.6840 C   0  0  0  0  0  2  0  0  0  0  0  0
  181.6830  178.6930  143.7530 C   0  0  0  0  0  2  0  0  0  0  0  0
  183.6680  178.7630  142.2280 C   0  0  0  0  0  2  0  0  0  0  0  0
  188.4030  177.8790  138.4180 C   0  0  0  0  0  0  0  0  0  0  0  0
  187.7080  178.0940  137.2330 O   0  0  0  0  0  1  0  0  0  0  0  0
  188.4940  177.8240  140.8500 C   0  0  0  0  0  0  0  0  0  0  0  0
  189.7480  177.5070  138.3600 C   0  0  0  0  0  3  0  0  0  0  0  0
  189.8410  177.4450  140.7720 C   0  0  0  0  0  3  0  0  0  0  0  0
  187.7660  178.0380  139.6580 C   0  0  0  0  0  0  0  0  0  0  0  0
  186.0790  178.5520  139.6930 Cl  0  0  0  0  0  0  0  0  0  0  0  0
  190.4740  177.2880  139.5380 C   0  0  0  0  0  0  0  0  0  0  0  0
  192.7670  177.3790  140.4640 C   0  0  0  0  0  1  0  0  0  0  0  0
  191.8210  176.9140  139.5100 O   0  0  0  0  0  0  0  0  0  0  0  0
  187.0840  179.4080  147.7420 C   0  0  0  0  0  2  0  0  0  0  0  0
  185.9810  180.2550  147.8380 O   0  0  0  0  0  1  0  0  0  0  0  0
  1  4  1  0  0  0  0
  2  5  1  0  0  0  0
  3  1  1  0  0  0  0
  3 18  1  0  0  0  0
  4  2  2  0  0  0  0
  4 10  1  0  0  0  0
  5 11  2  0  0  0  0
  5 17  1  0  0  0  0
  6 19  1  0  0  0  0
  7 16  1  0  0  0  0
  7  2  1  0  0  0  0
  9  8  1  0  0  0  0
  9 11  1  1  0  0  0
 10 13  1  6  0  0  0
 10 12  1  0  0  0  0
 12 17  1  0  0  0  0
 14  7  2  0  0  0  0
 15 14  1  0  0  0  0
 15  1  2  0  0  0  0
 16 20  1  6  0  0  0
 16  9  1  0  0  0  0
 17 31  1  6  0  0  0
 18 13  1  0  0  0  0
 19  8  1  0  0  0  0
 20  6  1  0  0  0  0
 21 26  1  0  0  0  0
 22 21  1  0  0  0  0
 23 15  1  0  0  0  0
 24 21  2  0  0  0  0
 24 28  1  0  0  0  0
 25 23  1  0  0  0  0
 26 27  1  0  0  0  0
 26 23  2  0  0  0  0
 28 25  2  0  0  0  0
 30 28  1  0  0  0  0
 30 29  1  0  0  0  0
 31 32  1  0  0  0  0
M  END
>  <MODEL>
6

>  <REMARK>
 VINA RESULT:      -9.2      1.628      6.284
  Name = 
  3 active torsions:
  status: ('A' for Active; 'I' for Inactive)
    1  A    between atoms: C_13  and  C_29
    2  A    between atoms: O_15  and  C_26
    3  A    between atoms: C_16  and  C_27
                            x       y       z     vdW  Elec       q    Type
                         _______ _______ _______ _____ _____    ______ ____

>  <TORSDO>
F 3

$$$$
=
 OpenBabel10272402113D

 32 37  0  0  1  0  0  0  0  0999 V2000
  188.0710  177.6560  142.2120 C   0  0  0  0  0  0  0  0  0  0  0  0
  185.8300  178.2220  142.9410 C   0  0  0  0  0  0  0  0  0  0  0  0
  189.4570  177.1470  142.5320 C   0  0  0  0  0  2  0  0  0  0  0  0
  187.1280  177.8260  143.2460 C   0  0  0  0  0  0  0  0  0  0  0  0
  184.8570  178.3770  144.0360 C   0  0  0  0  0  0  0  0  0  0  0  0
  182.1810  179.3720  139.8000 C   0  0  0  0  0  2  0  0  0  0  0  0
  185.4710  178.4870  141.6170 C   0  0  0  0  0  0  0  0  0  0  0  0
  181.8660  179.2620  142.2010 O   0  0  0  0  0  0  0  0  0  0  0  0
  183.0730  178.5580  142.3460 C   0  0  2  0  0  3  0  0  0  0  0  0
  187.5220  177.7780  144.7070 C   0  0  1  0  0  3  0  0  0  0  0  0
  183.5660  178.5990  143.7690 C   0  0  0  0  0  3  0  0  0  0  0  0
  186.4520  177.3330  145.5260 O   0  0  0  0  0  0  0  0  0  0  0  0
  188.7540  176.9100  144.9240 C   0  0  0  0  0  2  0  0  0  0  0  0
  186.3960  178.3400  140.6290 N   0  0  0  0  0  0  0  0  0  0  0  0
  187.6660  177.9070  140.8780 C   0  0  0  0  0  0  0  0  0  0  0  0
  184.1180  179.0940  141.3470 C   0  0  2  0  0  3  0  0  0  0  0  0
  185.3590  178.2440  145.4470 C   0  0  1  0  0  3  0  0  0  0  0  0
  189.8600  177.3820  143.9890 C   0  0  0  0  0  2  0  0  0  0  0  0
  181.3210  178.8590  140.9640 C   0  0  0  0  0  2  0  0  0  0  0  0
  183.6040  178.8260  139.9350 C   0  0  0  0  0  2  0  0  0  0  0  0
  189.0350  177.5880  137.3440 C   0  0  0  0  0  0  0  0  0  0  0  0
  188.6120  177.6710  136.0230 O   0  0  0  0  0  1  0  0  0  0  0  0
  188.5860  177.7250  139.7330 C   0  0  0  0  0  0  0  0  0  0  0  0
  190.3720  177.2900  137.6140 C   0  0  0  0  0  3  0  0  0  0  0  0
  189.9300  177.4190  139.9840 C   0  0  0  0  0  3  0  0  0  0  0  0
  188.1330  177.8040  138.3970 C   0  0  0  0  0  0  0  0  0  0  0  0
  186.4610  178.2220  138.0180 Cl  0  0  0  0  0  0  0  0  0  0  0  0
  190.8270  177.2050  138.9370 C   0  0  0  0  0  0  0  0  0  0  0  0
  193.0860  176.4600  138.2550 C   0  0  0  0  0  1  0  0  0  0  0  0
  192.1600  176.9070  139.2360 O   0  0  0  0  0  0  0  0  0  0  0  0
  185.6860  179.6020  146.0630 C   0  0  0  0  0  2  0  0  0  0  0  0
  185.7150  179.4960  147.4530 O   0  0  0  0  0  1  0  0  0  0  0  0
  1  3  1  0  0  0  0
  1  4  1  0  0  0  0
  2  4  2  0  0  0  0
  2  5  1  0  0  0  0
  3 18  1  0  0  0  0
  4 10  1  0  0  0  0
  5 17  1  0  0  0  0
  6 20  1  0  0  0  0
  6 19  1  0  0  0  0
  7  2  1  0  0  0  0
  8  9  1  0  0  0  0
  9 11  1  1  0  0  0
 10 13  1  6  0  0  0
 10 12  1  0  0  0  0
 11  5  2  0  0  0  0
 14 15  1  0  0  0  0
 14  7  2  0  0  0  0
 15  1  2  0  0  0  0
 16 20  1  6  0  0  0
 16  7  1  0  0  0  0
 16  9  1  0  0  0  0
 17 12  1  0  0  0  0
 17 31  1  6  0  0  0
 18 13  1  0  0  0  0
 19  8  1  0  0  0  0
 21 24  2  0  0  0  0
 21 26  1  0  0  0  0
 22 21  1  0  0  0  0
 23 25  1  0  0  0  0
 23 15  1  0  0  0  0
 24 28  1  0  0  0  0
 26 23  2  0  0  0  0
 27 26  1  0  0  0  0
 28 30  1  0  0  0  0
 28 25  2  0  0  0  0
 29 30  1  0  0  0  0
 31 32  1  0  0  0  0
M  END
>  <MODEL>
7

>  <REMARK>
 VINA RESULT:      -9.1      2.104      6.762
  Name = 
  3 active torsions:
  status: ('A' for Active; 'I' for Inactive)
    1  A    between atoms: C_13  and  C_29
    2  A    between atoms: O_15  and  C_26
    3  A    between atoms: C_16  and  C_27
                            x       y       z     vdW  Elec       q    Type
                         _______ _______ _______ _____ _____    ______ ____

>  <TORSDO>
F 3

$$$$
=
 OpenBabel10272402113D

 32 37  0  0  1  0  0  0  0  0999 V2000
  187.5780  177.7690  141.5950 C   0  0  0  0  0  0  0  0  0  0  0  0
  189.6860  177.1790  142.6340 C   0  0  0  0  0  0  0  0  0  0  0  0
  186.7260  177.8950  140.3530 C   0  0  0  0  0  2  0  0  0  0  0  0
  188.9250  177.3680  141.4860 C   0  0  0  0  0  0  0  0  0  0  0  0
  191.0860  176.7440  142.4960 C   0  0  0  0  0  0  0  0  0  0  0  0
  190.3090  176.9670  147.5400 C   0  0  0  0  0  2  0  0  0  0  0  0
  189.1280  177.4210  143.8930 C   0  0  0  0  0  0  0  0  0  0  0  0
  192.0690  176.4250  145.9650 O   0  0  0  0  0  0  0  0  0  0  0  0
  191.1320  176.3210  144.9240 C   0  0  2  0  0  3  0  0  0  0  0  0
  189.6410  177.3160  140.1530 C   0  0  1  0  0  3  0  0  0  0  0  0
  191.7980  176.3980  143.5750 C   0  0  0  0  0  3  0  0  0  0  0  0
  190.6720  176.3410  140.1480 O   0  0  0  0  0  0  0  0  0  0  0  0
  188.6690  177.0690  139.0070 C   0  0  0  0  0  2  0  0  0  0  0  0
  187.8320  177.8280  143.9850 N   0  0  0  0  0  0  0  0  0  0  0  0
  187.0360  177.9790  142.8870 C   0  0  0  0  0  0  0  0  0  0  0  0
  190.0330  177.3890  145.0980 C   0  0  2  0  0  3  0  0  0  0  0  0
  191.6680  176.6710  141.1120 C   0  0  1  0  0  3  0  0  0  0  0  0
  187.5490  178.1000  139.0800 C   0  0  0  0  0  2  0  0  0  0  0  0
  191.4130  175.9820  147.1320 C   0  0  0  0  0  2  0  0  0  0  0  0
  189.2950  177.1010  146.4020 C   0  0  0  0  0  2  0  0  0  0  0  0
  183.7460  178.9600  144.5230 C   0  0  0  0  0  0  0  0  0  0  0  0
  183.2140  179.2210  145.7800 O   0  0  0  0  0  1  0  0  0  0  0  0
  185.6240  178.3730  143.0890 C   0  0  0  0  0  0  0  0  0  0  0  0
  182.9170  179.0390  143.4020 C   0  0  0  0  0  3  0  0  0  0  0  0
  184.7750  178.4520  141.9770 C   0  0  0  0  0  3  0  0  0  0  0  0
  185.1010  178.6250  144.3770 C   0  0  0  0  0  0  0  0  0  0  0  0
  186.1290  178.5780  145.8100 Cl  0  0  0  0  0  0  0  0  0  0  0  0
  183.4280  178.7850  142.1220 C   0  0  0  0  0  0  0  0  0  0  0  0
  183.1180  179.2540  139.7130 C   0  0  0  0  0  1  0  0  0  0  0  0
  182.6200  178.8560  140.9830 O   0  0  0  0  0  0  0  0  0  0  0  0
  192.4320  177.9410  140.7500 C   0  0  0  0  0  2  0  0  0  0  0  0
  193.5110  177.6260  139.9270 O   0  0  0  0  0  1  0  0  0  0  0  0
  1 15  1  0  0  0  0
  2  7  2  0  0  0  0
  3  1  1  0  0  0  0
  4  1  2  0  0  0  0
  4  2  1  0  0  0  0
  5  2  1  0  0  0  0
  5 11  2  0  0  0  0
  7 14  1  0  0  0  0
  7 16  1  0  0  0  0
  8 19  1  0  0  0  0
  9 11  1  6  0  0  0
  9 16  1  0  0  0  0
  9  8  1  0  0  0  0
 10 13  1  6  0  0  0
 10  4  1  0  0  0  0
 12 10  1  0  0  0  0
 12 17  1  0  0  0  0
 13 18  1  0  0  0  0
 15 23  1  0  0  0  0
 15 14  2  0  0  0  0
 16 20  1  1  0  0  0
 17 31  1  6  0  0  0
 17  5  1  0  0  0  0
 18  3  1  0  0  0  0
 19  6  1  0  0  0  0
 20  6  1  0  0  0  0
 21 22  1  0  0  0  0
 23 26  2  0  0  0  0
 24 21  2  0  0  0  0
 25 28  2  0  0  0  0
 25 23  1  0  0  0  0
 26 21  1  0  0  0  0
 26 27  1  0  0  0  0
 28 24  1  0  0  0  0
 29 30  1  0  0  0  0
 30 28  1  0  0  0  0
 32 31  1  0  0  0  0
M  END
>  <MODEL>
8

>  <REMARK>
 VINA RESULT:      -9.1      1.954      4.943
  Name = 
  3 active torsions:
  status: ('A' for Active; 'I' for Inactive)
    1  A    between atoms: C_13  and  C_29
    2  A    between atoms: O_15  and  C_26
    3  A    between atoms: C_16  and  C_27
                            x       y       z     vdW  Elec       q    Type
                         _______ _______ _______ _____ _____    ______ ____

>  <TORSDO>
F 3

$$$$
=
 OpenBabel10272402113D

 32 37  0  0  1  0  0  0  0  0999 V2000
  189.7290  176.9710  144.3000 C   0  0  0  0  0  0  0  0  0  0  0  0
  187.6960  177.6390  145.4380 C   0  0  0  0  0  0  0  0  0  0  0  0
  191.0970  176.3310  144.3410 C   0  0  0  0  0  2  0  0  0  0  0  0
  188.9850  177.1200  145.4880 C   0  0  0  0  0  0  0  0  0  0  0  0
  186.9320  177.7700  146.6900 C   0  0  0  0  0  0  0  0  0  0  0  0
  183.7030  179.3350  143.0550 C   0  0  0  0  0  2  0  0  0  0  0  0
  187.1510  178.0460  144.2170 C   0  0  0  0  0  0  0  0  0  0  0  0
  183.7730  179.0380  145.4600 O   0  0  0  0  0  0  0  0  0  0  0  0
  184.9200  178.2340  145.3450 C   0  0  2  0  0  3  0  0  0  0  0  0
  189.6060  176.9130  146.8540 C   0  0  1  0  0  3  0  0  0  0  0  0
  185.6390  178.1120  146.6630 C   0  0  0  0  0  3  0  0  0  0  0  0
  188.6480  176.4800  147.8060 O   0  0  0  0  0  0  0  0  0  0  0  0
  190.7740  175.9380  146.7930 C   0  0  0  0  0  2  0  0  0  0  0  0
  187.8860  177.9170  143.0780 N   0  0  0  0  0  0  0  0  0  0  0  0
  189.1360  177.3690  143.0760 C   0  0  0  0  0  0  0  0  0  0  0  0
  185.8320  178.7760  144.2270 C   0  0  2  0  0  3  0  0  0  0  0  0
  187.6430  177.4740  147.9820 C   0  0  1  0  0  3  0  0  0  0  0  0
  191.7510  176.4060  145.7220 C   0  0  0  0  0  2  0  0  0  0  0  0
  183.0010  178.7880  144.3060 C   0  0  0  0  0  2  0  0  0  0  0  0
  185.0740  178.6740  142.9060 C   0  0  0  0  0  2  0  0  0  0  0  0
  191.7780  177.5350  140.3460 C   0  0  0  0  0  0  0  0  0  0  0  0
  193.0880  177.9570  140.1500 O   0  0  0  0  0  1  0  0  0  0  0  0
  189.8370  177.2190  141.7810 C   0  0  0  0  0  0  0  0  0  0  0  0
  191.0760  176.9760  139.2760 C   0  0  0  0  0  3  0  0  0  0  0  0
  189.1460  176.6660  140.6940 C   0  0  0  0  0  3  0  0  0  0  0  0
  191.1660  177.6630  141.6020 C   0  0  0  0  0  0  0  0  0  0  0  0
  192.0980  178.3340  142.9420 Cl  0  0  0  0  0  0  0  0  0  0  0  0
  189.7560  176.5380  139.4450 C   0  0  0  0  0  0  0  0  0  0  0  0
  187.9600  176.6560  137.7470 C   0  0  0  0  0  1  0  0  0  0  0  0
  189.0280  175.9760  138.3910 O   0  0  0  0  0  0  0  0  0  0  0  0
  188.1860  178.7440  148.6340 C   0  0  0  0  0  2  0  0  0  0  0  0
  189.3470  178.4510  149.3450 O   0  0  0  0  0  1  0  0  0  0  0  0
  1  3  1  0  0  0  0
  1  4  1  0  0  0  0
  2  4  2  0  0  0  0
  2  5  1  0  0  0  0
  3 18  1  0  0  0  0
  4 10  1  0  0  0  0
  5 17  1  0  0  0  0
  6 19  1  0  0  0  0
  7 16  1  0  0  0  0
  7  2  1  0  0  0  0
  9  8  1  0  0  0  0
  9 11  1  1  0  0  0
 10 13  1  6  0  0  0
 10 12  1  0  0  0  0
 11  5  2  0  0  0  0
 12 17  1  0  0  0  0
 14  7  2  0  0  0  0
 15 14  1  0  0  0  0
 15  1  2  0  0  0  0
 16 20  1  6  0  0  0
 16  9  1  0  0  0  0
 17 31  1  6  0  0  0
 18 13  1  0  0  0  0
 19  8  1  0  0  0  0
 20  6  1  0  0  0  0
 21 26  1  0  0  0  0
 22 21  1  0  0  0  0
 23 15  1  0  0  0  0
 24 28  1  0  0  0  0
 24 21  2  0  0  0  0
 25 23  1  0  0  0  0
 26 23  2  0  0  0  0
 26 27  1  0  0  0  0
 28 25  2  0  0  0  0
 29 30  1  0  0  0  0
 30 28  1  0  0  0  0
 31 32  1  0  0  0  0
M  END
>  <MODEL>
9

>  <REMARK>
 VINA RESULT:      -9.1      2.162      6.208
  Name = 
  3 active torsions:
  status: ('A' for Active; 'I' for Inactive)
    1  A    between atoms: C_13  and  C_29
    2  A    between atoms: O_15  and  C_26
    3  A    between atoms: C_16  and  C_27
                            x       y       z     vdW  Elec       q    Type
                         _______ _______ _______ _____ _____    ______ ____

>  <TORSDO>
F 3

$$$$
