=
 OpenBabel10272402123D

 32 37  0  0  1  0  0  0  0  0999 V2000
  189.3840  177.6380  143.3140 C   0  0  2  0  0  3  0  0  0  0  0  0
  187.4210  177.5850  144.8410 C   0  0  0  0  0  0  0  0  0  0  0  0
  190.6640  176.8610  143.0010 C   0  0  0  0  0  2  0  0  0  0  0  0
  188.7570  177.0020  144.5540 C   0  0  2  0  0  3  0  0  0  0  0  0
  186.9780  177.7070  146.1630 C   0  0  0  0  0  0  0  0  0  0  0  0
  183.1970  179.3740  143.2270 C   0  0  0  0  0  2  0  0  0  0  0  0
  186.5860  177.8960  143.7630 C   0  0  0  0  0  0  0  0  0  0  0  0
  183.4890  178.8050  145.5680 O   0  0  0  0  0  0  0  0  0  0  0  0
  184.8110  178.4140  145.3400 C   0  0  0  0  0  0  0  0  0  0  0  0
  189.6730  177.1580  145.7640 C   0  0  1  0  0  3  0  0  0  0  0  0
  185.6660  178.1290  146.4120 C   0  0  0  0  0  3  0  0  0  0  0  0
  189.0430  176.6150  146.9070 O   0  0  0  0  0  0  0  0  0  0  0  0
  190.9830  176.4230  145.4760 C   0  0  0  0  0  2  0  0  0  0  0  0
  187.1080  177.8320  142.4240 N   0  0  0  0  0  0  0  0  0  0  0  0
  188.3800  177.6760  142.1670 C   0  0  0  0  0  0  0  0  0  0  0  0
  185.2770  178.3230  144.0150 C   0  0  0  0  0  0  0  0  0  0  0  0
  187.9480  177.4420  147.2920 C   0  0  1  0  0  3  0  0  0  0  0  0
  191.6290  176.9550  144.1900 C   0  0  0  0  0  2  0  0  0  0  0  0
  182.5400  178.8390  144.5010 C   0  0  0  0  0  2  0  0  0  0  0  0
  184.4160  178.6720  142.9700 O   0  0  0  0  0  0  0  0  0  0  0  0
  188.4590  178.2150  138.4010 C   0  0  0  0  0  0  0  0  0  0  0  0
  187.6850  178.7150  137.4090 F   0  0  0  0  0  0  0  0  0  0  0  0
  188.8160  177.7000  140.7530 C   0  0  0  0  0  0  0  0  0  0  0  0
  189.7140  177.6860  138.0950 C   0  0  0  0  0  3  0  0  0  0  0  0
  190.0680  177.1580  140.4260 C   0  0  0  0  0  3  0  0  0  0  0  0
  188.0000  178.2130  139.7240 C   0  0  0  0  0  0  0  0  0  0  0  0
  186.7250  178.6990  139.9990 O   0  0  0  0  0  1  0  0  0  0  0  0
  190.5240  177.1510  139.1060 C   0  0  0  0  0  0  0  0  0  0  0  0
  192.2160  176.1990  137.6000 C   0  0  0  0  0  2  0  0  0  0  0  0
  191.8460  176.5790  138.8180 C   0  0  0  0  0  3  0  0  0  0  0  0
  188.4200  178.7430  147.9370 C   0  0  0  0  0  2  0  0  0  0  0  0
  189.4970  178.4580  148.9640 C   0  0  0  0  0  1  0  0  0  0  0  0
  1  3  1  6  0  0  0
  1  4  1  0  0  0  0
  2  5  1  0  0  0  0
  3 18  1  0  0  0  0
  4  2  1  1  0  0  0
  4 10  1  0  0  0  0
  5 11  2  0  0  0  0
  5 17  1  0  0  0  0
  6 19  1  0  0  0  0
  7 16  1  0  0  0  0
  7  2  2  0  0  0  0
  9  8  1  0  0  0  0
  9 11  1  0  0  0  0
 10 13  1  6  0  0  0
 10 12  1  0  0  0  0
 12 17  1  0  0  0  0
 14  7  1  0  0  0  0
 15 14  2  0  0  0  0
 15  1  1  0  0  0  0
 16  9  2  0  0  0  0
 17 31  1  6  0  0  0
 18 13  1  0  0  0  0
 19  8  1  0  0  0  0
 20  6  1  0  0  0  0
 20 16  1  0  0  0  0
 21 26  1  0  0  0  0
 22 21  1  0  0  0  0
 23 15  1  0  0  0  0
 24 21  2  0  0  0  0
 24 28  1  0  0  0  0
 25 23  1  0  0  0  0
 26 27  1  0  0  0  0
 26 23  2  0  0  0  0
 28 25  2  0  0  0  0
 29 30  2  0  0  0  0
 30 28  1  0  0  0  0
 31 32  1  0  0  0  0
M  END
>  <MODEL>
1

>  <REMARK>
 VINA RESULT:     -11.0      0.000      0.000
  Name = 
  3 active torsions:
  status: ('A' for Active; 'I' for Inactive)
    1  A    between atoms: C_13  and  C_29
    2  A    between atoms: C_15  and  C_26
    3  A    between atoms: C_16  and  C_27
                            x       y       z     vdW  Elec       q    Type
                         _______ _______ _______ _____ _____    ______ ____

>  <TORSDO>
F 3

$$$$
=
 OpenBabel10272402123D

 32 37  0  0  1  0  0  0  0  0999 V2000
  186.7940  177.7830  144.9120 C   0  0  2  0  0  3  0  0  0  0  0  0
  189.2440  177.7630  144.4860 C   0  0  0  0  0  0  0  0  0  0  0  0
  185.7550  178.4290  145.8320 C   0  0  0  0  0  2  0  0  0  0  0  0
  188.1730  178.2090  145.4140 C   0  0  2  0  0  3  0  0  0  0  0  0
  190.5040  177.4130  144.9850 C   0  0  0  0  0  0  0  0  0  0  0  0
  190.7870  176.9650  139.9440 C   0  0  0  0  0  2  0  0  0  0  0  0
  188.9970  177.8140  143.1110 C   0  0  0  0  0  0  0  0  0  0  0  0
  192.3480  176.9570  141.8030 O   0  0  0  0  0  0  0  0  0  0  0  0
  191.3140  177.2060  142.7110 C   0  0  0  0  0  0  0  0  0  0  0  0
  188.4290  177.6660  146.8170 C   0  0  1  0  0  3  0  0  0  0  0  0
  191.5440  177.1280  144.0900 C   0  0  0  0  0  3  0  0  0  0  0  0
  189.7330  178.0230  147.2310 O   0  0  0  0  0  0  0  0  0  0  0  0
  187.3860  178.2610  147.7630 C   0  0  0  0  0  2  0  0  0  0  0  0
  187.6670  178.1010  142.6430 N   0  0  0  0  0  0  0  0  0  0  0  0
  186.6280  178.1360  143.4380 C   0  0  0  0  0  0  0  0  0  0  0  0
  190.0350  177.5230  142.2190 C   0  0  0  0  0  0  0  0  0  0  0  0
  190.6950  177.2870  146.4800 C   0  0  1  0  0  3  0  0  0  0  0  0
  185.9670  177.9440  147.2710 C   0  0  0  0  0  2  0  0  0  0  0  0
  192.2050  177.2890  140.4210 C   0  0  0  0  0  2  0  0  0  0  0  0
  189.8260  177.5340  140.8360 O   0  0  0  0  0  0  0  0  0  0  0  0
  183.8370  178.7880  140.9360 C   0  0  0  0  0  0  0  0  0  0  0  0
  183.6600  178.9810  139.6070 F   0  0  0  0  0  0  0  0  0  0  0  0
  185.2960  178.3660  142.8390 C   0  0  0  0  0  0  0  0  0  0  0  0
  182.7330  178.8180  141.7890 C   0  0  0  0  0  3  0  0  0  0  0  0
  184.1780  178.4150  143.6830 C   0  0  0  0  0  3  0  0  0  0  0  0
  185.1210  178.5760  141.4550 C   0  0  0  0  0  0  0  0  0  0  0  0
  186.2130  178.6010  140.5930 O   0  0  0  0  0  1  0  0  0  0  0  0
  182.8980  178.6350  143.1690 C   0  0  0  0  0  0  0  0  0  0  0  0
  180.5010  178.7880  143.6860 C   0  0  0  0  0  2  0  0  0  0  0  0
  181.7590  178.6680  144.0960 C   0  0  0  0  0  3  0  0  0  0  0  0
  190.7540  175.8240  146.9120 C   0  0  0  0  0  2  0  0  0  0  0  0
  192.1240  175.4980  147.4710 C   0  0  0  0  0  1  0  0  0  0  0  0
  1  4  1  0  0  0  0
  1  3  1  1  0  0  0
  2  5  1  0  0  0  0
  3 18  1  0  0  0  0
  4  2  1  6  0  0  0
  4 10  1  0  0  0  0
  5 17  1  0  0  0  0
  6 19  1  0  0  0  0
  6 20  1  0  0  0  0
  7  2  2  0  0  0  0
  8  9  1  0  0  0  0
  9 11  1  0  0  0  0
 10 12  1  0  0  0  0
 10 13  1  1  0  0  0
 11  5  2  0  0  0  0
 14  7  1  0  0  0  0
 14 15  2  0  0  0  0
 15  1  1  0  0  0  0
 16  9  2  0  0  0  0
 16  7  1  0  0  0  0
 17 31  1  1  0  0  0
 17 12  1  0  0  0  0
 18 13  1  0  0  0  0
 19  8  1  0  0  0  0
 20 16  1  0  0  0  0
 21 26  2  0  0  0  0
 21 24  1  0  0  0  0
 22 21  1  0  0  0  0
 23 15  1  0  0  0  0
 23 25  2  0  0  0  0
 24 28  2  0  0  0  0
 26 23  1  0  0  0  0
 27 26  1  0  0  0  0
 28 25  1  0  0  0  0
 28 30  1  0  0  0  0
 29 30  2  0  0  0  0
 31 32  1  0  0  0  0
M  END
>  <MODEL>
2

>  <REMARK>
 VINA RESULT:     -10.8      1.982      6.131
  Name = 
  3 active torsions:
  status: ('A' for Active; 'I' for Inactive)
    1  A    between atoms: C_13  and  C_29
    2  A    between atoms: C_15  and  C_26
    3  A    between atoms: C_16  and  C_27
                            x       y       z     vdW  Elec       q    Type
                         _______ _______ _______ _____ _____    ______ ____

>  <TORSDO>
F 3

$$$$
=
 OpenBabel10272402123D

 32 37  0  0  1  0  0  0  0  0999 V2000
  187.6490  177.6250  142.2570 C   0  0  2  0  0  3  0  0  0  0  0  0
  185.5570  178.5350  141.2660 C   0  0  0  0  0  0  0  0  0  0  0  0
  189.1680  177.7890  142.1790 C   0  0  0  0  0  2  0  0  0  0  0  0
  187.0390  178.5030  141.1640 C   0  0  2  0  0  3  0  0  0  0  0  0
  184.7770  178.6510  140.1090 C   0  0  0  0  0  0  0  0  0  0  0  0
  181.5470  178.6120  144.0150 C   0  0  0  0  0  2  0  0  0  0  0  0
  184.9780  178.5660  142.5380 C   0  0  0  0  0  0  0  0  0  0  0  0
  181.4290  179.0820  141.6370 O   0  0  0  0  0  0  0  0  0  0  0  0
  182.8050  178.8810  141.4980 C   0  0  0  0  0  0  0  0  0  0  0  0
  187.4640  178.0180  139.7820 C   0  0  1  0  0  3  0  0  0  0  0  0
  183.3920  178.8200  140.2280 C   0  0  0  0  0  3  0  0  0  0  0  0
  186.8380  178.8100  138.7910 O   0  0  0  0  0  0  0  0  0  0  0  0
  188.9850  178.1330  139.6750 C   0  0  0  0  0  2  0  0  0  0  0  0
  185.8070  178.3650  143.6960 N   0  0  0  0  0  0  0  0  0  0  0  0
  187.0520  177.9700  143.6160 C   0  0  0  0  0  0  0  0  0  0  0  0
  183.5930  178.7290  142.6540 C   0  0  0  0  0  0  0  0  0  0  0  0
  185.4430  178.5240  138.7570 C   0  0  1  0  0  3  0  0  0  0  0  0
  189.6660  177.3400  140.8000 C   0  0  0  0  0  2  0  0  0  0  0  0
  180.8600  179.4110  142.9050 C   0  0  0  0  0  2  0  0  0  0  0  0
  182.9670  178.7360  143.9040 O   0  0  0  0  0  0  0  0  0  0  0  0
  187.9220  177.6050  147.3020 C   0  0  0  0  0  0  0  0  0  0  0  0
  187.3410  177.7180  148.5210 F   0  0  0  0  0  0  0  0  0  0  0  0
  187.7890  177.7230  144.8750 C   0  0  0  0  0  0  0  0  0  0  0  0
  189.2700  177.2550  147.2120 C   0  0  0  0  0  3  0  0  0  0  0  0
  189.1490  177.3860  144.8020 C   0  0  0  0  0  3  0  0  0  0  0  0
  187.1800  177.8520  146.1400 C   0  0  0  0  0  0  0  0  0  0  0  0
  185.8510  178.2480  146.2550 O   0  0  0  0  0  1  0  0  0  0  0  0
  189.8920  177.1480  145.9610 C   0  0  0  0  0  0  0  0  0  0  0  0
  191.9530  176.0540  146.7300 C   0  0  0  0  0  2  0  0  0  0  0  0
  191.3110  176.7900  145.8300 C   0  0  0  0  0  3  0  0  0  0  0  0
  185.1580  177.1660  138.1210 C   0  0  0  0  0  2  0  0  0  0  0  0
  185.5960  177.1640  136.6700 C   0  0  0  0  0  1  0  0  0  0  0  0
  1  3  1  1  0  0  0
  1 15  1  0  0  0  0
  2  7  1  0  0  0  0
  4  2  1  6  0  0  0
  4  1  1  0  0  0  0
  5 11  1  0  0  0  0
  5  2  2  0  0  0  0
  7 16  2  0  0  0  0
  7 14  1  0  0  0  0
  8 19  1  0  0  0  0
  9  8  1  0  0  0  0
  9 16  1  0  0  0  0
 10 13  1  1  0  0  0
 10  4  1  0  0  0  0
 11  9  2  0  0  0  0
 12 10  1  0  0  0  0
 13 18  1  0  0  0  0
 15 14  2  0  0  0  0
 15 23  1  0  0  0  0
 16 20  1  0  0  0  0
 17 31  1  1  0  0  0
 17 12  1  0  0  0  0
 17  5  1  0  0  0  0
 18  3  1  0  0  0  0
 19  6  1  0  0  0  0
 20  6  1  0  0  0  0
 21 22  1  0  0  0  0
 23 26  1  0  0  0  0
 24 21  1  0  0  0  0
 25 23  2  0  0  0  0
 25 28  1  0  0  0  0
 26 27  1  0  0  0  0
 26 21  2  0  0  0  0
 28 24  2  0  0  0  0
 30 28  1  0  0  0  0
 30 29  2  0  0  0  0
 32 31  1  0  0  0  0
M  END
>  <MODEL>
3

>  <REMARK>
 VINA RESULT:     -10.5      2.706      6.412
  Name = 
  3 active torsions:
  status: ('A' for Active; 'I' for Inactive)
    1  A    between atoms: C_13  and  C_29
    2  A    between atoms: C_15  and  C_26
    3  A    between atoms: C_16  and  C_27
                            x       y       z     vdW  Elec       q    Type
                         _______ _______ _______ _____ _____    ______ ____

>  <TORSDO>
F 3

$$$$
=
 OpenBabel10272402123D

 32 37  0  0  1  0  0  0  0  0999 V2000
  188.5350  177.3470  142.2500 C   0  0  2  0  0  3  0  0  0  0  0  0
  187.3140  178.1910  140.2540 C   0  0  0  0  0  0  0  0  0  0  0  0
  189.9070  177.4260  142.9220 C   0  0  0  0  0  2  0  0  0  0  0  0
  188.6420  178.0740  140.9090 C   0  0  2  0  0  3  0  0  0  0  0  0
  187.2150  178.1630  138.8580 C   0  0  0  0  0  0  0  0  0  0  0  0
  182.5130  178.8800  140.6100 C   0  0  0  0  0  2  0  0  0  0  0  0
  186.1970  178.4450  141.0560 C   0  0  0  0  0  0  0  0  0  0  0  0
  183.6240  178.9820  138.4540 O   0  0  0  0  0  0  0  0  0  0  0  0
  184.8600  178.6970  139.0430 C   0  0  0  0  0  0  0  0  0  0  0  0
  189.6260  177.3620  139.9870 C   0  0  1  0  0  3  0  0  0  0  0  0
  185.9790  178.4130  138.2510 C   0  0  0  0  0  3  0  0  0  0  0  0
  189.6600  178.0190  138.7350 O   0  0  0  0  0  0  0  0  0  0  0  0
  191.0080  177.3880  140.6410 C   0  0  0  0  0  2  0  0  0  0  0  0
  186.3270  178.3870  142.4870 N   0  0  0  0  0  0  0  0  0  0  0  0
  187.3970  177.9260  143.0830 C   0  0  0  0  0  0  0  0  0  0  0  0
  184.9600  178.6890  140.4460 C   0  0  0  0  0  0  0  0  0  0  0  0
  188.4350  177.7980  138.0410 C   0  0  1  0  0  3  0  0  0  0  0  0
  190.9570  176.7470  142.0350 C   0  0  0  0  0  2  0  0  0  0  0  0
  182.5530  179.5290  139.2240 C   0  0  0  0  0  2  0  0  0  0  0  0
  183.8110  178.9190  141.2090 O   0  0  0  0  0  0  0  0  0  0  0  0
  186.3100  178.0910  146.7250 C   0  0  0  0  0  0  0  0  0  0  0  0
  185.2260  178.4130  147.4710 F   0  0  0  0  0  0  0  0  0  0  0  0
  187.3930  177.8420  144.5600 C   0  0  0  0  0  0  0  0  0  0  0  0
  187.4820  177.6730  147.3600 C   0  0  0  0  0  3  0  0  0  0  0  0
  188.5670  177.4390  145.2130 C   0  0  0  0  0  3  0  0  0  0  0  0
  186.2630  178.1890  145.3290 C   0  0  0  0  0  0  0  0  0  0  0  0
  185.1010  178.6560  144.7210 O   0  0  0  0  0  1  0  0  0  0  0  0
  188.6180  177.3490  146.6060 C   0  0  0  0  0  0  0  0  0  0  0  0
  191.0290  176.8760  146.5950 C   0  0  0  0  0  2  0  0  0  0  0  0
  189.8700  176.9140  147.2410 C   0  0  0  0  0  3  0  0  0  0  0  0
  188.3380  176.3730  137.5030 C   0  0  0  0  0  2  0  0  0  0  0  0
  188.3540  176.3830  135.9880 C   0  0  0  0  0  1  0  0  0  0  0  0
  1  3  1  1  0  0  0
  1 15  1  0  0  0  0
  2  7  1  0  0  0  0
  4  2  1  6  0  0  0
  4  1  1  0  0  0  0
  5  2  2  0  0  0  0
  6 20  1  0  0  0  0
  7 14  1  0  0  0  0
  8  9  1  0  0  0  0
  8 19  1  0  0  0  0
  9 16  1  0  0  0  0
 10 13  1  1  0  0  0
 10  4  1  0  0  0  0
 11  5  1  0  0  0  0
 11  9  2  0  0  0  0
 12 10  1  0  0  0  0
 13 18  1  0  0  0  0
 14 15  2  0  0  0  0
 15 23  1  0  0  0  0
 16  7  2  0  0  0  0
 16 20  1  0  0  0  0
 17 31  1  1  0  0  0
 17 12  1  0  0  0  0
 17  5  1  0  0  0  0
 18  3  1  0  0  0  0
 19  6  1  0  0  0  0
 21 24  1  0  0  0  0
 21 22  1  0  0  0  0
 23 25  2  0  0  0  0
 23 26  1  0  0  0  0
 25 28  1  0  0  0  0
 26 21  2  0  0  0  0
 27 26  1  0  0  0  0
 28 30  1  0  0  0  0
 28 24  2  0  0  0  0
 29 30  2  0  0  0  0
 32 31  1  0  0  0  0
M  END
>  <MODEL>
4

>  <REMARK>
 VINA RESULT:     -10.3      2.623      6.638
  Name = 
  3 active torsions:
  status: ('A' for Active; 'I' for Inactive)
    1  A    between atoms: C_13  and  C_29
    2  A    between atoms: C_15  and  C_26
    3  A    between atoms: C_16  and  C_27
                            x       y       z     vdW  Elec       q    Type
                         _______ _______ _______ _____ _____    ______ ____

>  <TORSDO>
F 3

$$$$
=
 OpenBabel10272402123D

 32 37  0  0  1  0  0  0  0  0999 V2000
  189.1750  177.2580  142.9980 C   0  0  2  0  0  3  0  0  0  0  0  0
  188.4820  177.9690  140.7170 C   0  0  0  0  0  0  0  0  0  0  0  0
  190.3520  177.3710  143.9700 C   0  0  0  0  0  2  0  0  0  0  0  0
  189.6150  177.8850  141.6750 C   0  0  2  0  0  3  0  0  0  0  0  0
  188.7150  177.8400  139.3430 C   0  0  0  0  0  0  0  0  0  0  0  0
  183.7540  178.7320  139.8770 C   0  0  0  0  0  2  0  0  0  0  0  0
  187.2150  178.2910  141.2120 C   0  0  0  0  0  0  0  0  0  0  0  0
  185.3440  178.6660  138.0440 O   0  0  0  0  0  0  0  0  0  0  0  0
  186.3980  178.4110  138.9270 C   0  0  0  0  0  0  0  0  0  0  0  0
  190.7690  177.0980  141.0620 C   0  0  1  0  0  3  0  0  0  0  0  0
  187.6640  178.0590  138.4440 C   0  0  0  0  0  3  0  0  0  0  0  0
  191.1150  177.6630  139.8130 O   0  0  0  0  0  0  0  0  0  0  0  0
  191.9580  177.1560  142.0220 C   0  0  0  0  0  2  0  0  0  0  0  0
  187.0030  178.3350  142.6340 N   0  0  0  0  0  0  0  0  0  0  0  0
  187.8890  177.9080  143.4960 C   0  0  0  0  0  0  0  0  0  0  0  0
  186.1640  178.5030  140.3120 C   0  0  0  0  0  0  0  0  0  0  0  0
  190.0830  177.4040  138.8650 C   0  0  1  0  0  3  0  0  0  0  0  0
  191.5620  176.6190  143.4050 C   0  0  0  0  0  2  0  0  0  0  0  0
  184.1370  179.2780  138.5000 C   0  0  0  0  0  2  0  0  0  0  0  0
  184.8740  178.8000  140.7620 O   0  0  0  0  0  0  0  0  0  0  0  0
  185.9230  178.1060  146.7470 C   0  0  0  0  0  0  0  0  0  0  0  0
  184.6480  178.2520  147.1810 F   0  0  0  0  0  0  0  0  0  0  0  0
  187.5350  177.9310  144.9330 C   0  0  0  0  0  0  0  0  0  0  0  0
  186.9570  177.9840  147.6780 C   0  0  0  0  0  3  0  0  0  0  0  0
  188.5630  177.8250  145.8800 C   0  0  0  0  0  3  0  0  0  0  0  0
  186.2060  178.0930  145.3760 C   0  0  0  0  0  0  0  0  0  0  0  0
  185.1660  178.2670  144.4670 O   0  0  0  0  0  1  0  0  0  0  0  0
  188.2830  177.8470  147.2490 C   0  0  0  0  0  0  0  0  0  0  0  0
  190.5990  177.2870  147.8470 C   0  0  0  0  0  2  0  0  0  0  0  0
  189.3960  177.7240  148.2000 C   0  0  0  0  0  3  0  0  0  0  0  0
  190.0760  175.9450  138.4170 C   0  0  0  0  0  2  0  0  0  0  0  0
  190.3870  175.8500  136.9370 C   0  0  0  0  0  1  0  0  0  0  0  0
  1 15  1  0  0  0  0
  1  3  1  1  0  0  0
  2  7  1  0  0  0  0
  4  2  1  6  0  0  0
  4  1  1  0  0  0  0
  5  2  2  0  0  0  0
  6 20  1  0  0  0  0
  7 14  1  0  0  0  0
  8 19  1  0  0  0  0
  8  9  1  0  0  0  0
  9 16  1  0  0  0  0
 10  4  1  0  0  0  0
 10 13  1  1  0  0  0
 11  9  2  0  0  0  0
 11  5  1  0  0  0  0
 12 10  1  0  0  0  0
 13 18  1  0  0  0  0
 14 15  2  0  0  0  0
 15 23  1  0  0  0  0
 16 20  1  0  0  0  0
 16  7  2  0  0  0  0
 17 31  1  1  0  0  0
 17  5  1  0  0  0  0
 17 12  1  0  0  0  0
 18  3  1  0  0  0  0
 19  6  1  0  0  0  0
 21 22  1  0  0  0  0
 21 24  1  0  0  0  0
 23 26  1  0  0  0  0
 23 25  2  0  0  0  0
 25 28  1  0  0  0  0
 26 21  2  0  0  0  0
 27 26  1  0  0  0  0
 28 24  2  0  0  0  0
 28 30  1  0  0  0  0
 29 30  2  0  0  0  0
 32 31  1  0  0  0  0
M  END
>  <MODEL>
5

>  <REMARK>
 VINA RESULT:     -10.0      2.530      6.657
  Name = 
  3 active torsions:
  status: ('A' for Active; 'I' for Inactive)
    1  A    between atoms: C_13  and  C_29
    2  A    between atoms: C_15  and  C_26
    3  A    between atoms: C_16  and  C_27
                            x       y       z     vdW  Elec       q    Type
                         _______ _______ _______ _____ _____    ______ ____

>  <TORSDO>
F 3

$$$$
=
 OpenBabel10272402123D

 32 37  0  0  1  0  0  0  0  0999 V2000
  184.4700  178.1050  142.8880 C   0  0  2  0  0  3  0  0  0  0  0  0
  186.9210  178.2270  143.2920 C   0  0  0  0  0  0  0  0  0  0  0  0
  183.1680  178.8130  143.2690 C   0  0  0  0  0  2  0  0  0  0  0  0
  185.5910  178.7390  143.7110 C   0  0  2  0  0  3  0  0  0  0  0  0
  187.9490  178.0910  144.2330 C   0  0  0  0  0  0  0  0  0  0  0  0
  189.9160  176.7430  139.7600 C   0  0  0  0  0  2  0  0  0  0  0  0
  187.1480  178.0000  141.9310 C   0  0  0  0  0  0  0  0  0  0  0  0
  190.7630  177.2210  141.9840 O   0  0  0  0  0  0  0  0  0  0  0  0
  189.4790  177.5390  142.4370 C   0  0  0  0  0  0  0  0  0  0  0  0
  185.3740  178.4910  145.2010 C   0  0  1  0  0  3  0  0  0  0  0  0
  189.2340  177.7410  143.8010 C   0  0  0  0  0  3  0  0  0  0  0  0
  186.4550  179.0350  145.9330 O   0  0  0  0  0  0  0  0  0  0  0  0
  184.0610  179.1550  145.6150 C   0  0  0  0  0  2  0  0  0  0  0  0
  186.0450  178.0730  141.0100 N   0  0  0  0  0  0  0  0  0  0  0  0
  184.8000  178.1610  141.4010 C   0  0  0  0  0  0  0  0  0  0  0  0
  188.4320  177.6430  141.5030 C   0  0  0  0  0  0  0  0  0  0  0  0
  187.6300  178.2630  145.7010 C   0  0  1  0  0  3  0  0  0  0  0  0
  182.8970  178.6250  144.7660 C   0  0  0  0  0  2  0  0  0  0  0  0
  191.0840  177.2760  140.5930 C   0  0  0  0  0  2  0  0  0  0  0  0
  188.6980  177.3790  140.1560 O   0  0  0  0  0  0  0  0  0  0  0  0
  182.5860  179.1410  138.4660 C   0  0  0  0  0  0  0  0  0  0  0  0
  182.4560  180.1310  137.5500 F   0  0  0  0  0  0  0  0  0  0  0  0
  183.7410  178.1550  140.3680 C   0  0  0  0  0  0  0  0  0  0  0  0
  181.6870  178.0730  138.4580 C   0  0  0  0  0  3  0  0  0  0  0  0
  182.8200  177.0980  140.3560 C   0  0  0  0  0  3  0  0  0  0  0  0
  183.6060  179.1950  139.4250 C   0  0  0  0  0  0  0  0  0  0  0  0
  184.4590  180.2940  139.4460 O   0  0  0  0  0  1  0  0  0  0  0  0
  181.7970  177.0470  139.4060 C   0  0  0  0  0  0  0  0  0  0  0  0
  180.7560  175.0480  138.4300 C   0  0  0  0  0  2  0  0  0  0  0  0
  180.8640  175.9130  139.4310 C   0  0  0  0  0  3  0  0  0  0  0  0
  187.5740  176.9170  146.4200 C   0  0  0  0  0  2  0  0  0  0  0  0
  188.4800  176.9340  147.6350 C   0  0  0  0  0  1  0  0  0  0  0  0
  1  3  1  6  0  0  0
  1  4  1  0  0  0  0
  2  5  1  0  0  0  0
  3 18  1  0  0  0  0
  4  2  1  6  0  0  0
  4 10  1  0  0  0  0
  5 17  1  0  0  0  0
  6 20  1  0  0  0  0
  6 19  1  0  0  0  0
  7  2  2  0  0  0  0
  8  9  1  0  0  0  0
  9 11  1  0  0  0  0
 10 13  1  1  0  0  0
 10 12  1  0  0  0  0
 11  5  2  0  0  0  0
 14 15  2  0  0  0  0
 14  7  1  0  0  0  0
 15  1  1  0  0  0  0
 16  7  1  0  0  0  0
 16  9  2  0  0  0  0
 17 12  1  0  0  0  0
 17 31  1  6  0  0  0
 18 13  1  0  0  0  0
 19  8  1  0  0  0  0
 20 16  1  0  0  0  0
 21 26  1  0  0  0  0
 22 21  1  0  0  0  0
 23 15  1  0  0  0  0
 24 21  2  0  0  0  0
 24 28  1  0  0  0  0
 25 23  1  0  0  0  0
 26 27  1  0  0  0  0
 26 23  2  0  0  0  0
 28 30  1  0  0  0  0
 28 25  2  0  0  0  0
 29 30  2  0  0  0  0
 31 32  1  0  0  0  0
M  END
>  <MODEL>
6

>  <REMARK>
 VINA RESULT:      -9.5      2.997      6.114
  Name = 
  3 active torsions:
  status: ('A' for Active; 'I' for Inactive)
    1  A    between atoms: C_13  and  C_29
    2  A    between atoms: C_15  and  C_26
    3  A    between atoms: C_16  and  C_27
                            x       y       z     vdW  Elec       q    Type
                         _______ _______ _______ _____ _____    ______ ____

>  <TORSDO>
F 3

$$$$
=
 OpenBabel10272402123D

 32 37  0  0  1  0  0  0  0  0999 V2000
  189.0630  177.3940  141.5770 C   0  0  2  0  0  3  0  0  0  0  0  0
  189.2390  177.4830  139.0970 C   0  0  0  0  0  0  0  0  0  0  0  0
  189.7850  177.8790  142.8360 C   0  0  0  0  0  2  0  0  0  0  0  0
  189.9350  177.7680  140.3790 C   0  0  2  0  0  3  0  0  0  0  0  0
  189.9730  177.0890  137.9730 C   0  0  0  0  0  0  0  0  0  0  0  0
  185.1360  177.3870  136.4900 C   0  0  0  0  0  2  0  0  0  0  0  0
  187.8650  177.7300  139.0170 C   0  0  0  0  0  0  0  0  0  0  0  0
  187.2960  177.1380  135.4120 O   0  0  0  0  0  0  0  0  0  0  0  0
  187.9550  177.2310  136.6420 C   0  0  0  0  0  0  0  0  0  0  0  0
  191.2700  177.0320  140.4320 C   0  0  1  0  0  3  0  0  0  0  0  0
  189.3250  176.9580  136.7390 C   0  0  0  0  0  3  0  0  0  0  0  0
  192.0300  177.3490  139.2820 O   0  0  0  0  0  0  0  0  0  0  0  0
  192.0100  177.4620  141.6980 C   0  0  0  0  0  2  0  0  0  0  0  0
  187.1360  178.0560  140.2140 N   0  0  0  0  0  0  0  0  0  0  0  0
  187.6550  177.9550  141.4100 C   0  0  0  0  0  0  0  0  0  0  0  0
  187.2180  177.5920  137.7840 C   0  0  0  0  0  0  0  0  0  0  0  0
  191.4390  176.7500  138.1330 C   0  0  1  0  0  3  0  0  0  0  0  0
  191.1530  177.1930  142.9430 C   0  0  0  0  0  2  0  0  0  0  0  0
  185.9790  177.6640  135.2440 C   0  0  0  0  0  2  0  0  0  0  0  0
  185.8400  177.8010  137.6630 O   0  0  0  0  0  0  0  0  0  0  0  0
  184.8210  179.2480  143.5950 C   0  0  0  0  0  0  0  0  0  0  0  0
  183.6780  179.9670  143.4920 F   0  0  0  0  0  0  0  0  0  0  0  0
  186.7900  178.2440  142.5750 C   0  0  0  0  0  0  0  0  0  0  0  0
  185.2200  178.7650  144.8420 C   0  0  0  0  0  3  0  0  0  0  0  0
  187.1850  177.7800  143.8380 C   0  0  0  0  0  3  0  0  0  0  0  0
  185.6060  179.0030  142.4610 C   0  0  0  0  0  0  0  0  0  0  0  0
  185.2150  179.5370  141.2370 O   0  0  0  0  0  1  0  0  0  0  0  0
  186.4070  178.0310  144.9700 C   0  0  0  0  0  0  0  0  0  0  0  0
  188.1430  177.3340  146.5630 C   0  0  0  0  0  2  0  0  0  0  0  0
  186.8610  177.5140  146.2690 C   0  0  0  0  0  3  0  0  0  0  0  0
  191.6680  175.2410  138.0990 C   0  0  0  0  0  2  0  0  0  0  0  0
  193.0870  174.9370  137.6620 C   0  0  0  0  0  1  0  0  0  0  0  0
  1  3  1  1  0  0  0
  3 18  1  0  0  0  0
  4  2  1  6  0  0  0
  4 10  1  0  0  0  0
  4  1  1  0  0  0  0
  5 17  1  0  0  0  0
  5  2  2  0  0  0  0
  6 20  1  0  0  0  0
  7  2  1  0  0  0  0
  7 14  1  0  0  0  0
  8  9  1  0  0  0  0
  9 11  2  0  0  0  0
  9 16  1  0  0  0  0
 10 13  1  1  0  0  0
 11  5  1  0  0  0  0
 12 10  1  0  0  0  0
 13 18  1  0  0  0  0
 14 15  2  0  0  0  0
 15  1  1  0  0  0  0
 15 23  1  0  0  0  0
 16  7  2  0  0  0  0
 17 31  1  1  0  0  0
 17 12  1  0  0  0  0
 19  8  1  0  0  0  0
 19  6  1  0  0  0  0
 20 16  1  0  0  0  0
 21 24  1  0  0  0  0
 22 21  1  0  0  0  0
 23 25  2  0  0  0  0
 24 28  2  0  0  0  0
 25 28  1  0  0  0  0
 26 23  1  0  0  0  0
 26 21  2  0  0  0  0
 27 26  1  0  0  0  0
 28 30  1  0  0  0  0
 30 29  2  0  0  0  0
 32 31  1  0  0  0  0
M  END
>  <MODEL>
7

>  <REMARK>
 VINA RESULT:      -9.5      2.483      7.150
  Name = 
  3 active torsions:
  status: ('A' for Active; 'I' for Inactive)
    1  A    between atoms: C_13  and  C_29
    2  A    between atoms: C_15  and  C_26
    3  A    between atoms: C_16  and  C_27
                            x       y       z     vdW  Elec       q    Type
                         _______ _______ _______ _____ _____    ______ ____

>  <TORSDO>
F 3

$$$$
=
 OpenBabel10272402123D

 32 37  0  0  1  0  0  0  0  0999 V2000
  186.0120  178.6280  142.8310 C   0  0  2  0  0  3  0  0  0  0  0  0
  185.7380  178.2230  140.3920 C   0  0  0  0  0  0  0  0  0  0  0  0
  185.3490  178.2990  144.1700 C   0  0  0  0  0  2  0  0  0  0  0  0
  185.0990  178.0940  141.7280 C   0  0  2  0  0  3  0  0  0  0  0  0
  184.9530  178.4620  139.2590 C   0  0  0  0  0  0  0  0  0  0  0  0
  189.7310  178.0360  137.6240 C   0  0  0  0  0  2  0  0  0  0  0  0
  187.1120  177.9840  140.2870 C   0  0  0  0  0  0  0  0  0  0  0  0
  187.5260  178.1200  136.6150 O   0  0  0  0  0  0  0  0  0  0  0  0
  186.9190  178.1760  137.8730 C   0  0  0  0  0  0  0  0  0  0  0  0
  183.7550  178.8160  141.7430 C   0  0  1  0  0  3  0  0  0  0  0  0
  185.5490  178.4430  137.9920 C   0  0  0  0  0  3  0  0  0  0  0  0
  182.9540  178.3450  140.6760 O   0  0  0  0  0  0  0  0  0  0  0  0
  183.0730  178.5400  143.0830 C   0  0  0  0  0  2  0  0  0  0  0  0
  187.8940  177.8210  141.4830 N   0  0  0  0  0  0  0  0  0  0  0  0
  187.4210  178.0680  142.6780 C   0  0  0  0  0  0  0  0  0  0  0  0
  187.7070  177.9720  139.0200 C   0  0  0  0  0  0  0  0  0  0  0  0
  183.4890  178.8010  139.4360 C   0  0  1  0  0  3  0  0  0  0  0  0
  183.9750  178.9760  144.2470 C   0  0  0  0  0  2  0  0  0  0  0  0
  188.8440  177.5920  136.4600 C   0  0  0  0  0  2  0  0  0  0  0  0
  189.0820  177.7660  138.8690 O   0  0  0  0  0  0  0  0  0  0  0  0
  190.5610  177.9000  144.8190 C   0  0  0  0  0  0  0  0  0  0  0  0
  191.9080  177.9920  144.6950 F   0  0  0  0  0  0  0  0  0  0  0  0
  188.3370  177.9390  143.8330 C   0  0  0  0  0  0  0  0  0  0  0  0
  190.0010  177.6610  146.0750 C   0  0  0  0  0  3  0  0  0  0  0  0
  187.7910  177.6840  145.0990 C   0  0  0  0  0  3  0  0  0  0  0  0
  189.7380  178.0270  143.6940 C   0  0  0  0  0  0  0  0  0  0  0  0
  190.3210  178.2130  142.4440 O   0  0  0  0  0  1  0  0  0  0  0  0
  188.6120  177.5480  146.2210 C   0  0  0  0  0  0  0  0  0  0  0  0
  188.2260  178.0390  148.5970 C   0  0  0  0  0  2  0  0  0  0  0  0
  187.9880  177.2900  147.5260 C   0  0  0  0  0  3  0  0  0  0  0  0
  183.2320  180.2900  139.2210 C   0  0  0  0  0  2  0  0  0  0  0  0
  181.9210  180.4960  138.4900 C   0  0  0  0  0  1  0  0  0  0  0  0
  1  3  1  1  0  0  0
  3 18  1  0  0  0  0
  4  2  1  6  0  0  0
  4 10  1  0  0  0  0
  4  1  1  0  0  0  0
  5 17  1  0  0  0  0
  5  2  2  0  0  0  0
  6 20  1  0  0  0  0
  7  2  1  0  0  0  0
  7 14  1  0  0  0  0
  8  9  1  0  0  0  0
  9 11  2  0  0  0  0
  9 16  1  0  0  0  0
 10 13  1  1  0  0  0
 11  5  1  0  0  0  0
 12 10  1  0  0  0  0
 13 18  1  0  0  0  0
 14 15  2  0  0  0  0
 15  1  1  0  0  0  0
 15 23  1  0  0  0  0
 16  7  2  0  0  0  0
 17 31  1  1  0  0  0
 17 12  1  0  0  0  0
 19  8  1  0  0  0  0
 19  6  1  0  0  0  0
 20 16  1  0  0  0  0
 21 24  1  0  0  0  0
 22 21  1  0  0  0  0
 23 25  2  0  0  0  0
 24 28  2  0  0  0  0
 25 28  1  0  0  0  0
 26 23  1  0  0  0  0
 26 21  2  0  0  0  0
 27 26  1  0  0  0  0
 28 30  1  0  0  0  0
 30 29  2  0  0  0  0
 32 31  1  0  0  0  0
M  END
>  <MODEL>
8

>  <REMARK>
 VINA RESULT:      -9.5      2.680      7.517
  Name = 
  3 active torsions:
  status: ('A' for Active; 'I' for Inactive)
    1  A    between atoms: C_13  and  C_29
    2  A    between atoms: C_15  and  C_26
    3  A    between atoms: C_16  and  C_27
                            x       y       z     vdW  Elec       q    Type
                         _______ _______ _______ _____ _____    ______ ____

>  <TORSDO>
F 3

$$$$
=
 OpenBabel10272402123D

 32 37  0  0  1  0  0  0  0  0999 V2000
  185.5750  178.0140  142.6720 C   0  0  2  0  0  3  0  0  0  0  0  0
  187.7620  178.1570  141.4960 C   0  0  0  0  0  0  0  0  0  0  0  0
  184.8890  178.4710  143.9610 C   0  0  0  0  0  2  0  0  0  0  0  0
  187.0460  178.4140  142.7730 C   0  0  2  0  0  3  0  0  0  0  0  0
  189.1120  177.7880  141.5110 C   0  0  0  0  0  0  0  0  0  0  0  0
  187.7720  178.1180  136.6340 C   0  0  0  0  0  2  0  0  0  0  0  0
  187.0900  178.4060  140.2960 C   0  0  0  0  0  0  0  0  0  0  0  0
  189.8430  177.8930  137.8800 O   0  0  0  0  0  0  0  0  0  0  0  0
  189.1550  177.9590  139.0950 C   0  0  0  0  0  0  0  0  0  0  0  0
  187.7290  177.6770  143.9200 C   0  0  1  0  0  3  0  0  0  0  0  0
  189.8100  177.6840  140.3020 C   0  0  0  0  0  3  0  0  0  0  0  0
  189.1010  178.0200  143.9520 O   0  0  0  0  0  0  0  0  0  0  0  0
  187.0470  178.0800  145.2280 C   0  0  0  0  0  2  0  0  0  0  0  0
  185.6840  178.7060  140.3230 N   0  0  0  0  0  0  0  0  0  0  0  0
  184.9530  178.5780  141.4000 C   0  0  0  0  0  0  0  0  0  0  0  0
  187.7890  178.2960  139.0870 C   0  0  0  0  0  0  0  0  0  0  0  0
  189.7670  177.4460  142.8310 C   0  0  1  0  0  3  0  0  0  0  0  0
  185.5430  177.7830  145.1660 C   0  0  0  0  0  2  0  0  0  0  0  0
  189.2710  178.4230  136.6840 C   0  0  0  0  0  2  0  0  0  0  0  0
  187.1510  178.5070  137.8610 O   0  0  0  0  0  0  0  0  0  0  0  0
  181.5060  179.4210  140.0260 C   0  0  0  0  0  0  0  0  0  0  0  0
  180.9060  179.7380  138.8530 F   0  0  0  0  0  0  0  0  0  0  0  0
  183.5010  178.8420  141.2950 C   0  0  0  0  0  0  0  0  0  0  0  0
  180.7420  179.3480  141.1920 C   0  0  0  0  0  3  0  0  0  0  0  0
  182.7220  178.7890  142.4600 C   0  0  0  0  0  3  0  0  0  0  0  0
  182.8850  179.1820  140.0720 C   0  0  0  0  0  0  0  0  0  0  0  0
  183.6350  179.3090  138.9060 O   0  0  0  0  0  1  0  0  0  0  0  0
  181.3480  179.0360  142.4160 C   0  0  0  0  0  0  0  0  0  0  0  0
  180.0250  177.8320  144.1000 C   0  0  0  0  0  2  0  0  0  0  0  0
  180.5750  178.9580  143.6640 C   0  0  0  0  0  3  0  0  0  0  0  0
  189.9460  175.9380  142.9890 C   0  0  0  0  0  2  0  0  0  0  0  0
  191.2530  175.6370  143.6950 C   0  0  0  0  0  1  0  0  0  0  0  0
  1  4  1  0  0  0  0
  1  3  1  1  0  0  0
  2  5  1  0  0  0  0
  3 18  1  0  0  0  0
  4  2  1  6  0  0  0
  4 10  1  0  0  0  0
  5 17  1  0  0  0  0
  6 19  1  0  0  0  0
  6 20  1  0  0  0  0
  7 14  1  0  0  0  0
  7  2  2  0  0  0  0
  8  9  1  0  0  0  0
  9 11  1  0  0  0  0
 10 12  1  0  0  0  0
 10 13  1  1  0  0  0
 11  5  2  0  0  0  0
 14 15  2  0  0  0  0
 15  1  1  0  0  0  0
 16  9  2  0  0  0  0
 16  7  1  0  0  0  0
 17 31  1  1  0  0  0
 17 12  1  0  0  0  0
 18 13  1  0  0  0  0
 19  8  1  0  0  0  0
 20 16  1  0  0  0  0
 21 26  2  0  0  0  0
 21 24  1  0  0  0  0
 22 21  1  0  0  0  0
 23 15  1  0  0  0  0
 23 25  2  0  0  0  0
 24 28  2  0  0  0  0
 26 23  1  0  0  0  0
 27 26  1  0  0  0  0
 28 25  1  0  0  0  0
 28 30  1  0  0  0  0
 30 29  2  0  0  0  0
 31 32  1  0  0  0  0
M  END
>  <MODEL>
9

>  <REMARK>
 VINA RESULT:      -9.4      2.600      6.902
  Name = 
  3 active torsions:
  status: ('A' for Active; 'I' for Inactive)
    1  A    between atoms: C_13  and  C_29
    2  A    between atoms: C_15  and  C_26
    3  A    between atoms: C_16  and  C_27
                            x       y       z     vdW  Elec       q    Type
                         _______ _______ _______ _____ _____    ______ ____

>  <TORSDO>
F 3

$$$$
