=
 OpenBabel10272414043D

 43 48  0  0  1  0  0  0  0  0999 V2000
  184.8110  178.5320  143.9030 C   0  0  0  0  0  3  0  0  0  0  0  0
  191.2910  176.3530  146.8040 C   0  0  0  0  0  0  0  0  0  0  0  0
  187.1030  177.9090  144.4820 C   0  0  0  0  0  0  0  0  0  0  0  0
  187.7990  178.4780  141.7630 C   0  0  2  0  0  3  0  0  0  0  0  0
  189.0610  177.1520  146.3030 C   0  0  0  0  0  0  0  0  0  0  0  0
  191.5860  176.3130  145.4380 C   0  0  0  0  0  3  0  0  0  0  0  0
  192.3190  175.9480  147.7960 C   0  0  0  0  0  1  0  0  0  0  0  0
  189.3520  177.1180  144.9210 C   0  0  0  0  0  0  0  0  0  0  0  0
  190.0290  176.7700  147.2370 C   0  0  0  0  0  3  0  0  0  0  0  0
  190.6210  176.6930  144.4990 C   0  0  0  0  0  3  0  0  0  0  0  0
  188.5960  177.4080  142.5120 C   0  0  0  0  0  2  0  0  0  0  0  0
  188.3640  177.5080  143.9990 C   0  0  0  0  0  0  0  0  0  0  0  0
  186.8560  177.9260  145.8220 N   0  0  0  0  0  0  0  0  0  0  0  0
  186.0700  178.3220  143.5140 C   0  0  0  0  0  0  0  0  0  0  0  0
  186.4300  178.4710  142.1700 O   0  0  0  0  0  0  0  0  0  0  0  0
  187.7980  177.5610  146.7310 C   0  0  0  0  0  3  0  0  0  0  0  0
  182.5010  178.3330  140.8720 C   0  0  0  0  0  2  0  0  0  0  0  0
  181.2960  178.2110  141.6960 N   0  0  0  0  0  0  0  0  0  0  0  0
  182.3790  178.8680  143.6490 C   0  0  0  0  0  2  0  0  0  0  0  0
  183.7260  178.0290  141.7260 C   0  0  0  0  0  2  0  0  0  0  0  0
  183.7340  178.9410  142.9520 C   0  0  2  0  0  3  0  0  0  0  0  0
  181.3260  179.2100  142.6920 N   0  0  0  0  0  2  0  0  0  0  0  0
  180.4890  178.5480  139.4990 O   0  0  0  0  0  1  0  0  0  0  0  0
  180.1280  178.4480  140.8480 C   0  0  0  0  0  2  0  0  0  0  0  0
  187.8880  178.2530  140.2950 C   0  0  0  0  0  0  0  0  0  0  0  0
  186.9360  178.6150  139.5530 O   0  0  0  0  0  0  0  0  0  0  0  0
  189.0230  177.6410  139.7590 O   0  0  0  0  0  0  0  0  0  0  0  0
  189.1420  177.3330  138.3760 C   0  0  1  0  0  3  0  0  0  0  0  0
  189.8350  178.3430  137.7330 F   0  0  0  0  0  0  0  0  0  0  0  0
  189.9000  176.0270  138.2010 C   0  0  0  0  0  2  0  0  0  0  0  0
  189.3610  175.2340  137.0180 C   0  0  2  0  0  3  0  0  0  0  0  0
  188.1830  175.9770  135.1670 O   0  0  0  0  0  0  0  0  0  0  0  0
  190.2500  175.2980  135.9440 O   0  0  0  0  0  0  0  0  0  0  0  0
  188.0730  175.8400  136.5470 C   0  0  1  0  0  3  0  0  0  0  0  0
  189.5650  176.0020  134.9400 C   0  0  0  0  0  2  0  0  0  0  0  0
  185.6040  175.5070  137.0860 N   0  0  0  0  0  0  0  0  0  0  0  0
  186.9150  174.9540  136.8990 C   0  0  0  0  0  0  0  0  0  0  0  0
  183.3910  175.3420  138.1130 C   0  0  0  0  0  2  0  0  0  0  0  0
  184.1850  177.4040  137.6920 C   0  0  0  0  0  2  0  0  0  0  0  0
  183.0740  176.5650  137.4960 O   0  0  0  0  0  0  0  0  0  0  0  0
  185.3540  176.9270  136.8310 C   0  0  0  0  0  2  0  0  0  0  0  0
  184.4630  174.6150  137.3010 C   0  0  0  0  0  2  0  0  0  0  0  0
  187.1100  173.7190  137.0680 O   0  0  0  0  0  0  0  0  0  0  0  0
  2  9  1  0  0  0  0
  2  7  1  0  0  0  0
  3 13  1  0  0  0  0
  4 25  1  6  0  0  0
  4 15  1  0  0  0  0
  4 11  1  0  0  0  0
  5 16  1  0  0  0  0
  5  9  2  0  0  0  0
  6  2  2  0  0  0  0
  8  5  1  0  0  0  0
 10  8  2  0  0  0  0
 10  6  1  0  0  0  0
 11 12  1  0  0  0  0
 12  3  2  0  0  0  0
 12  8  1  0  0  0  0
 13 16  2  0  0  0  0
 14  1  2  0  0  0  0
 14  3  1  0  0  0  0
 15 14  1  0  0  0  0
 17 18  1  0  0  0  0
 17 20  1  0  0  0  0
 18 22  1  0  0  0  0
 20 21  1  0  0  0  0
 21 19  1  0  0  0  0
 21  1  1  1  0  0  0
 22 19  1  0  0  0  0
 23 24  1  0  0  0  0
 24 18  1  0  0  0  0
 26 25  2  0  0  0  0
 27 25  1  0  0  0  0
 28 29  1  6  0  0  0
 28 27  1  0  0  0  0
 30 28  1  0  0  0  0
 31 30  1  1  0  0  0
 32 34  1  0  0  0  0
 33 31  1  0  0  0  0
 34 37  1  6  0  0  0
 34 31  1  0  0  0  0
 35 32  1  0  0  0  0
 35 33  1  0  0  0  0
 36 42  1  0  0  0  0
 37 43  2  0  0  0  0
 37 36  1  0  0  0  0
 40 39  1  0  0  0  0
 40 38  1  0  0  0  0
 41 36  1  0  0  0  0
 41 39  1  0  0  0  0
 42 38  1  0  0  0  0
M  END
>  <MODEL>
1

>  <REMARK>
 VINA RESULT:     -10.2      0.000      0.000
  Name = 
  8 active torsions:
  status: ('A' for Active; 'I' for Inactive)
    1  A    between atoms: C_1  and  C_35
    2  A    between atoms: C_2  and  O_6
    3  A    between atoms: C_2  and  C_13
    4  A    between atoms: C_3  and  C_4
    5  A    between atoms: C_3  and  C_12
    6  A    between atoms: O_6  and  C_12
    7  A    between atoms: C_14  and  C_22
    8  A    between atoms: N_19  and  C_37
                            x       y       z     vdW  Elec       q    Type
                         _______ _______ _______ _____ _____    ______ ____

>  <TORSDO>
F 8

$$$$
=
 OpenBabel10272414043D

 43 48  0  0  1  0  0  0  0  0999 V2000
  184.8410  178.4360  143.4620 C   0  0  0  0  0  3  0  0  0  0  0  0
  191.1930  176.4800  146.7740 C   0  0  0  0  0  0  0  0  0  0  0  0
  187.1090  177.8780  144.1830 C   0  0  0  0  0  0  0  0  0  0  0  0
  187.9410  178.3810  141.4900 C   0  0  2  0  0  3  0  0  0  0  0  0
  188.9800  177.2170  146.1300 C   0  0  0  0  0  0  0  0  0  0  0  0
  191.5630  176.4060  145.4270 C   0  0  0  0  0  3  0  0  0  0  0  0
  192.1740  176.1260  147.8320 C   0  0  0  0  0  1  0  0  0  0  0  0
  189.3450  177.1480  144.7670 C   0  0  0  0  0  0  0  0  0  0  0  0
  189.9020  176.8830  147.1250 C   0  0  0  0  0  3  0  0  0  0  0  0
  190.6440  176.7380  144.4270 C   0  0  0  0  0  3  0  0  0  0  0  0
  188.7160  177.3510  142.3130 C   0  0  0  0  0  2  0  0  0  0  0  0
  188.4020  177.4890  143.7810 C   0  0  0  0  0  0  0  0  0  0  0  0
  186.7900  177.9310  145.5070 N   0  0  0  0  0  0  0  0  0  0  0  0
  186.1230  178.2410  143.1480 C   0  0  0  0  0  0  0  0  0  0  0  0
  186.5530  178.3570  141.8220 O   0  0  0  0  0  0  0  0  0  0  0  0
  187.6870  177.6130  146.4760 C   0  0  0  0  0  3  0  0  0  0  0  0
  182.5650  178.0120  140.4290 C   0  0  0  0  0  2  0  0  0  0  0  0
  181.3420  178.0810  141.2330 N   0  0  0  0  0  0  0  0  0  0  0  0
  182.4430  178.9050  143.1110 C   0  0  0  0  0  2  0  0  0  0  0  0
  183.7530  177.7360  141.3430 C   0  0  0  0  0  2  0  0  0  0  0  0
  183.8090  178.7940  142.4430 C   0  0  2  0  0  3  0  0  0  0  0  0
  181.4310  179.1950  142.0950 N   0  0  0  0  0  2  0  0  0  0  0  0
  180.5090  177.8860  139.0290 O   0  0  0  0  0  1  0  0  0  0  0  0
  180.2070  178.2880  140.3360 C   0  0  0  0  0  2  0  0  0  0  0  0
  188.1150  178.1140  140.0360 C   0  0  0  0  0  0  0  0  0  0  0  0
  187.4120  178.7450  139.2010 O   0  0  0  0  0  0  0  0  0  0  0  0
  189.0510  177.1670  139.6150 O   0  0  0  0  0  0  0  0  0  0  0  0
  190.3180  177.5310  139.0830 C   0  0  1  0  0  3  0  0  0  0  0  0
  191.3190  177.1160  139.9430 F   0  0  0  0  0  0  0  0  0  0  0  0
  190.5220  176.8670  137.7320 C   0  0  0  0  0  2  0  0  0  0  0  0
  190.1670  175.3870  137.7890 C   0  0  2  0  0  3  0  0  0  0  0  0
  190.3990  173.7580  136.1570 O   0  0  0  0  0  0  0  0  0  0  0  0
  191.2950  174.6280  138.1010 O   0  0  0  0  0  0  0  0  0  0  0  0
  189.7000  174.9260  136.4400 C   0  0  1  0  0  3  0  0  0  0  0  0
  191.5450  173.8500  136.9580 C   0  0  0  0  0  2  0  0  0  0  0  0
  187.3030  175.6440  135.9490 N   0  0  0  0  0  0  0  0  0  0  0  0
  188.2230  174.6660  136.4560 C   0  0  0  0  0  0  0  0  0  0  0  0
  185.0550  176.6040  135.9570 C   0  0  0  0  0  2  0  0  0  0  0  0
  186.7650  177.9800  135.4700 C   0  0  0  0  0  2  0  0  0  0  0  0
  185.5100  177.5410  135.0140 O   0  0  0  0  0  0  0  0  0  0  0  0
  187.7970  176.8640  135.3090 C   0  0  0  0  0  2  0  0  0  0  0  0
  185.8780  175.3210  135.8520 C   0  0  0  0  0  2  0  0  0  0  0  0
  187.7890  173.5920  136.9570 O   0  0  0  0  0  0  0  0  0  0  0  0
  2  9  1  0  0  0  0
  2  7  1  0  0  0  0
  3 13  1  0  0  0  0
  4 25  1  6  0  0  0
  4 15  1  0  0  0  0
  4 11  1  0  0  0  0
  5 16  1  0  0  0  0
  5  9  2  0  0  0  0
  6  2  2  0  0  0  0
  8  5  1  0  0  0  0
 10  8  2  0  0  0  0
 10  6  1  0  0  0  0
 11 12  1  0  0  0  0
 12  3  2  0  0  0  0
 12  8  1  0  0  0  0
 13 16  2  0  0  0  0
 14  1  2  0  0  0  0
 14  3  1  0  0  0  0
 15 14  1  0  0  0  0
 17 18  1  0  0  0  0
 17 20  1  0  0  0  0
 18 22  1  0  0  0  0
 20 21  1  0  0  0  0
 21 19  1  0  0  0  0
 21  1  1  1  0  0  0
 22 19  1  0  0  0  0
 23 24  1  0  0  0  0
 24 18  1  0  0  0  0
 26 25  2  0  0  0  0
 27 25  1  0  0  0  0
 28 27  1  0  0  0  0
 28 29  1  1  0  0  0
 30 28  1  0  0  0  0
 31 30  1  6  0  0  0
 31 33  1  0  0  0  0
 32 34  1  0  0  0  0
 32 35  1  0  0  0  0
 34 37  1  1  0  0  0
 34 31  1  0  0  0  0
 35 33  1  0  0  0  0
 36 37  1  0  0  0  0
 37 43  2  0  0  0  0
 40 39  1  0  0  0  0
 40 38  1  0  0  0  0
 41 39  1  0  0  0  0
 41 36  1  0  0  0  0
 42 36  1  0  0  0  0
 42 38  1  0  0  0  0
M  END
>  <MODEL>
2

>  <REMARK>
 VINA RESULT:     -10.2      1.266      1.558
  Name = 
  8 active torsions:
  status: ('A' for Active; 'I' for Inactive)
    1  A    between atoms: C_1  and  C_35
    2  A    between atoms: C_2  and  O_6
    3  A    between atoms: C_2  and  C_13
    4  A    between atoms: C_3  and  C_4
    5  A    between atoms: C_3  and  C_12
    6  A    between atoms: O_6  and  C_12
    7  A    between atoms: C_14  and  C_22
    8  A    between atoms: N_19  and  C_37
                            x       y       z     vdW  Elec       q    Type
                         _______ _______ _______ _____ _____    ______ ____

>  <TORSDO>
F 8

$$$$
=
 OpenBabel10272414043D

 43 48  0  0  1  0  0  0  0  0999 V2000
  184.8550  178.4070  143.3860 C   0  0  0  0  0  3  0  0  0  0  0  0
  191.2000  176.4660  146.7220 C   0  0  0  0  0  0  0  0  0  0  0  0
  187.1250  177.8780  144.1240 C   0  0  0  0  0  0  0  0  0  0  0  0
  187.9920  178.5430  141.4770 C   0  0  2  0  0  3  0  0  0  0  0  0
  188.9770  177.1720  146.0710 C   0  0  0  0  0  0  0  0  0  0  0  0
  191.5970  176.4730  145.3820 C   0  0  0  0  0  3  0  0  0  0  0  0
  192.1700  176.0870  147.7810 C   0  0  0  0  0  1  0  0  0  0  0  0
  189.3710  177.1830  144.7140 C   0  0  0  0  0  0  0  0  0  0  0  0
  189.8910  176.8130  147.0670 C   0  0  0  0  0  3  0  0  0  0  0  0
  190.6870  176.8290  144.3810 C   0  0  0  0  0  3  0  0  0  0  0  0
  188.7830  177.4950  142.2620 C   0  0  0  0  0  2  0  0  0  0  0  0
  188.4370  177.5480  143.7280 C   0  0  0  0  0  0  0  0  0  0  0  0
  186.7790  177.8530  145.4410 N   0  0  0  0  0  0  0  0  0  0  0  0
  186.1480  178.2650  143.0880 C   0  0  0  0  0  0  0  0  0  0  0  0
  186.6000  178.4630  141.7790 O   0  0  0  0  0  0  0  0  0  0  0  0
  187.6680  177.5110  146.4110 C   0  0  0  0  0  3  0  0  0  0  0  0
  182.5900  178.0410  140.3370 C   0  0  0  0  0  2  0  0  0  0  0  0
  181.3640  178.1150  141.1360 N   0  0  0  0  0  0  0  0  0  0  0  0
  182.4650  178.9070  143.0280 C   0  0  0  0  0  2  0  0  0  0  0  0
  183.7700  177.7410  141.2530 C   0  0  0  0  0  2  0  0  0  0  0  0
  183.8330  178.7870  142.3650 C   0  0  2  0  0  3  0  0  0  0  0  0
  181.4610  179.2180  142.0090 N   0  0  0  0  0  2  0  0  0  0  0  0
  180.6650  178.8250  138.9920 O   0  0  0  0  0  1  0  0  0  0  0  0
  180.2360  178.3440  140.2350 C   0  0  0  0  0  2  0  0  0  0  0  0
  188.2020  178.3570  140.0150 C   0  0  0  0  0  0  0  0  0  0  0  0
  187.2240  178.4800  139.2280 O   0  0  0  0  0  0  0  0  0  0  0  0
  189.4750  178.0460  139.5340 O   0  0  0  0  0  0  0  0  0  0  0  0
  189.6870  177.4760  138.2490 C   0  0  1  0  0  3  0  0  0  0  0  0
  189.7000  178.4770  137.2940 F   0  0  0  0  0  0  0  0  0  0  0  0
  191.0220  176.7500  138.2190 C   0  0  0  0  0  2  0  0  0  0  0  0
  191.1240  175.8380  137.0050 C   0  0  2  0  0  3  0  0  0  0  0  0
  191.4840  173.5510  136.9120 O   0  0  0  0  0  0  0  0  0  0  0  0
  189.8980  175.2230  136.7530 O   0  0  0  0  0  0  0  0  0  0  0  0
  192.1080  174.7390  137.2780 C   0  0  1  0  0  3  0  0  0  0  0  0
  190.1180  173.8540  136.9790 C   0  0  0  0  0  2  0  0  0  0  0  0
  194.6290  174.5020  136.9860 N   0  0  0  0  0  0  0  0  0  0  0  0
  193.3610  174.9440  136.4800 C   0  0  0  0  0  0  0  0  0  0  0  0
  197.0630  174.7300  137.0200 C   0  0  0  0  0  2  0  0  0  0  0  0
  196.0690  173.9740  138.8900 C   0  0  0  0  0  2  0  0  0  0  0  0
  197.0930  173.6930  137.9690 O   0  0  0  0  0  0  0  0  0  0  0  0
  194.7050  173.7470  138.2380 C   0  0  0  0  0  2  0  0  0  0  0  0
  195.8210  174.5920  136.1410 C   0  0  0  0  0  2  0  0  0  0  0  0
  193.2980  175.5470  135.3730 O   0  0  0  0  0  0  0  0  0  0  0  0
  2  9  1  0  0  0  0
  2  7  1  0  0  0  0
  3 13  1  0  0  0  0
  4 25  1  6  0  0  0
  4 15  1  0  0  0  0
  4 11  1  0  0  0  0
  5 16  1  0  0  0  0
  5  9  2  0  0  0  0
  6  2  2  0  0  0  0
  8  5  1  0  0  0  0
 10  8  2  0  0  0  0
 10  6  1  0  0  0  0
 11 12  1  0  0  0  0
 12  3  2  0  0  0  0
 12  8  1  0  0  0  0
 13 16  2  0  0  0  0
 14  1  2  0  0  0  0
 14  3  1  0  0  0  0
 15 14  1  0  0  0  0
 17 18  1  0  0  0  0
 17 20  1  0  0  0  0
 18 22  1  0  0  0  0
 20 21  1  0  0  0  0
 21 19  1  0  0  0  0
 21  1  1  1  0  0  0
 22 19  1  0  0  0  0
 23 24  1  0  0  0  0
 24 18  1  0  0  0  0
 26 25  2  0  0  0  0
 27 25  1  0  0  0  0
 28 29  1  6  0  0  0
 28 27  1  0  0  0  0
 30 28  1  0  0  0  0
 31 34  1  0  0  0  0
 31 30  1  1  0  0  0
 32 35  1  0  0  0  0
 32 34  1  0  0  0  0
 33 35  1  0  0  0  0
 33 31  1  0  0  0  0
 34 37  1  6  0  0  0
 36 41  1  0  0  0  0
 37 36  1  0  0  0  0
 38 40  1  0  0  0  0
 40 39  1  0  0  0  0
 41 39  1  0  0  0  0
 42 36  1  0  0  0  0
 42 38  1  0  0  0  0
 43 37  2  0  0  0  0
M  END
>  <MODEL>
3

>  <REMARK>
 VINA RESULT:     -10.1      2.876      4.836
  Name = 
  8 active torsions:
  status: ('A' for Active; 'I' for Inactive)
    1  A    between atoms: C_1  and  C_35
    2  A    between atoms: C_2  and  O_6
    3  A    between atoms: C_2  and  C_13
    4  A    between atoms: C_3  and  C_4
    5  A    between atoms: C_3  and  C_12
    6  A    between atoms: O_6  and  C_12
    7  A    between atoms: C_14  and  C_22
    8  A    between atoms: N_19  and  C_37
                            x       y       z     vdW  Elec       q    Type
                         _______ _______ _______ _____ _____    ______ ____

>  <TORSDO>
F 8

$$$$
=
 OpenBabel10272414043D

 43 48  0  0  1  0  0  0  0  0999 V2000
  185.1670  178.5780  144.0380 C   0  0  0  0  0  3  0  0  0  0  0  0
  191.5360  176.2580  147.0710 C   0  0  0  0  0  0  0  0  0  0  0  0
  187.4280  177.8880  144.6590 C   0  0  0  0  0  0  0  0  0  0  0  0
  188.1640  178.3260  141.9260 C   0  0  2  0  0  3  0  0  0  0  0  0
  189.3430  177.1240  146.5220 C   0  0  0  0  0  0  0  0  0  0  0  0
  191.8380  176.1550  145.7090 C   0  0  0  0  0  3  0  0  0  0  0  0
  192.5400  175.8510  148.0860 C   0  0  0  0  0  1  0  0  0  0  0  0
  189.6410  177.0260  145.1450 C   0  0  0  0  0  0  0  0  0  0  0  0
  190.2890  176.7400  147.4780 C   0  0  0  0  0  3  0  0  0  0  0  0
  190.8950  176.5370  144.7500 C   0  0  0  0  0  3  0  0  0  0  0  0
  188.9130  177.2550  142.7210 C   0  0  0  0  0  2  0  0  0  0  0  0
  188.6750  177.4190  144.2010 C   0  0  0  0  0  0  0  0  0  0  0  0
  187.1730  177.9660  145.9950 N   0  0  0  0  0  0  0  0  0  0  0  0
  186.4190  178.3040  143.6670 C   0  0  0  0  0  0  0  0  0  0  0  0
  186.7930  178.3880  142.3210 O   0  0  0  0  0  0  0  0  0  0  0  0
  188.0940  177.5990  146.9240 C   0  0  0  0  0  3  0  0  0  0  0  0
  182.8900  178.3690  140.9820 C   0  0  0  0  0  2  0  0  0  0  0  0
  181.6720  178.2970  141.7920 N   0  0  0  0  0  0  0  0  0  0  0  0
  182.7480  178.9710  143.7430 C   0  0  0  0  0  2  0  0  0  0  0  0
  184.0960  178.0530  141.8590 C   0  0  0  0  0  2  0  0  0  0  0  0
  184.1130  178.9920  143.0640 C   0  0  2  0  0  3  0  0  0  0  0  0
  181.7160  179.3180  142.7650 N   0  0  0  0  0  2  0  0  0  0  0  0
  180.4370  179.8950  140.5620 O   0  0  0  0  0  1  0  0  0  0  0  0
  180.5210  178.5450  140.9240 C   0  0  0  0  0  2  0  0  0  0  0  0
  188.2540  178.0420  140.4680 C   0  0  0  0  0  0  0  0  0  0  0  0
  189.1180  177.2260  140.0480 O   0  0  0  0  0  0  0  0  0  0  0  0
  187.3840  178.6840  139.5840 O   0  0  0  0  0  0  0  0  0  0  0  0
  186.8830  178.0520  138.4130 C   0  0  1  0  0  3  0  0  0  0  0  0
  185.6910  178.6470  138.0390 F   0  0  0  0  0  0  0  0  0  0  0  0
  187.8840  178.1970  137.2790 C   0  0  0  0  0  2  0  0  0  0  0  0
  187.9030  176.9530  136.4010 C   0  0  2  0  0  3  0  0  0  0  0  0
  188.2870  174.7450  136.9890 O   0  0  0  0  0  0  0  0  0  0  0  0
  186.6690  176.3040  136.4500 O   0  0  0  0  0  0  0  0  0  0  0  0
  188.9200  175.9820  136.9200 C   0  0  1  0  0  3  0  0  0  0  0  0
  186.9260  175.0690  137.0680 C   0  0  0  0  0  2  0  0  0  0  0  0
  191.4380  175.9030  136.5280 N   0  0  0  0  0  0  0  0  0  0  0  0
  190.1040  175.9180  136.0010 C   0  0  0  0  0  0  0  0  0  0  0  0
  193.8160  176.3750  136.2170 C   0  0  0  0  0  2  0  0  0  0  0  0
  193.0050  176.4910  138.3110 C   0  0  0  0  0  2  0  0  0  0  0  0
  194.0240  175.9190  137.5300 O   0  0  0  0  0  0  0  0  0  0  0  0
  191.6630  175.8410  137.9740 C   0  0  0  0  0  2  0  0  0  0  0  0
  192.5750  175.7080  135.6260 C   0  0  0  0  0  2  0  0  0  0  0  0
  189.9180  175.9160  134.7530 O   0  0  0  0  0  0  0  0  0  0  0  0
  2  9  1  0  0  0  0
  2  7  1  0  0  0  0
  3 13  1  0  0  0  0
  4 25  1  6  0  0  0
  4 15  1  0  0  0  0
  4 11  1  0  0  0  0
  5 16  1  0  0  0  0
  5  9  2  0  0  0  0
  6  2  2  0  0  0  0
  8  5  1  0  0  0  0
 10  8  2  0  0  0  0
 10  6  1  0  0  0  0
 11 12  1  0  0  0  0
 12  3  2  0  0  0  0
 12  8  1  0  0  0  0
 13 16  2  0  0  0  0
 14  1  2  0  0  0  0
 14  3  1  0  0  0  0
 15 14  1  0  0  0  0
 17 18  1  0  0  0  0
 17 20  1  0  0  0  0
 18 22  1  0  0  0  0
 20 21  1  0  0  0  0
 21 19  1  0  0  0  0
 21  1  1  1  0  0  0
 22 19  1  0  0  0  0
 23 24  1  0  0  0  0
 24 18  1  0  0  0  0
 26 25  2  0  0  0  0
 27 25  1  0  0  0  0
 28 29  1  6  0  0  0
 28 27  1  0  0  0  0
 30 28  1  0  0  0  0
 31 33  1  0  0  0  0
 31 34  1  0  0  0  0
 31 30  1  1  0  0  0
 32 35  1  0  0  0  0
 33 35  1  0  0  0  0
 34 37  1  6  0  0  0
 34 32  1  0  0  0  0
 36 41  1  0  0  0  0
 37 36  1  0  0  0  0
 38 40  1  0  0  0  0
 40 39  1  0  0  0  0
 41 39  1  0  0  0  0
 42 38  1  0  0  0  0
 42 36  1  0  0  0  0
 43 37  2  0  0  0  0
M  END
>  <MODEL>
4

>  <REMARK>
 VINA RESULT:     -10.1      1.793      3.663
  Name = 
  8 active torsions:
  status: ('A' for Active; 'I' for Inactive)
    1  A    between atoms: C_1  and  C_35
    2  A    between atoms: C_2  and  O_6
    3  A    between atoms: C_2  and  C_13
    4  A    between atoms: C_3  and  C_4
    5  A    between atoms: C_3  and  C_12
    6  A    between atoms: O_6  and  C_12
    7  A    between atoms: C_14  and  C_22
    8  A    between atoms: N_19  and  C_37
                            x       y       z     vdW  Elec       q    Type
                         _______ _______ _______ _____ _____    ______ ____

>  <TORSDO>
F 8

$$$$
=
 OpenBabel10272414043D

 43 48  0  0  1  0  0  0  0  0999 V2000
  190.8770  175.9850  137.6250 C   0  0  0  0  0  3  0  0  0  0  0  0
  184.3630  179.1800  139.2100 C   0  0  0  0  0  0  0  0  0  0  0  0
  188.9050  177.1220  138.5180 C   0  0  0  0  0  0  0  0  0  0  0  0
  190.3350  177.3660  140.9880 C   0  0  2  0  0  3  0  0  0  0  0  0
  186.3710  178.2300  138.2480 C   0  0  0  0  0  0  0  0  0  0  0  0
  184.9020  179.0290  140.4910 C   0  0  0  0  0  3  0  0  0  0  0  0
  183.0080  179.7650  139.0400 C   0  0  0  0  0  1  0  0  0  0  0  0
  186.9250  178.0760  139.5390 C   0  0  0  0  0  0  0  0  0  0  0  0
  185.0960  178.7800  138.0890 C   0  0  0  0  0  3  0  0  0  0  0  0
  186.1770  178.4790  140.6560 C   0  0  0  0  0  3  0  0  0  0  0  0
  188.8100  177.2590  141.0350 C   0  0  0  0  0  2  0  0  0  0  0  0
  188.2100  177.5220  139.6770 C   0  0  0  0  0  0  0  0  0  0  0  0
  188.3400  177.2820  137.2890 N   0  0  0  0  0  0  0  0  0  0  0  0
  190.2560  176.5460  138.6650 C   0  0  0  0  0  0  0  0  0  0  0  0
  190.8680  176.5790  139.9220 O   0  0  0  0  0  0  0  0  0  0  0  0
  187.1030  177.8220  137.1330 C   0  0  0  0  0  3  0  0  0  0  0  0
  193.8080  173.6880  136.7930 C   0  0  0  0  0  2  0  0  0  0  0  0
  194.6750  174.8010  136.3970 N   0  0  0  0  0  0  0  0  0  0  0  0
  193.2910  176.4150  137.3470 C   0  0  0  0  0  2  0  0  0  0  0  0
  192.3600  174.1630  136.8200 C   0  0  0  0  0  2  0  0  0  0  0  0
  192.2390  175.3810  137.7340 C   0  0  2  0  0  3  0  0  0  0  0  0
  194.6170  175.7950  137.3960 N   0  0  0  0  0  2  0  0  0  0  0  0
  196.8660  174.9330  137.2750 O   0  0  0  0  0  1  0  0  0  0  0  0
  196.0510  174.3140  136.3200 C   0  0  0  0  0  2  0  0  0  0  0  0
  190.9220  176.9230  142.2820 C   0  0  0  0  0  0  0  0  0  0  0  0
  190.5550  175.8280  142.7870 O   0  0  0  0  0  0  0  0  0  0  0  0
  191.8690  177.7260  142.9210 O   0  0  0  0  0  0  0  0  0  0  0  0
  191.5900  178.4170  144.1320 C   0  0  1  0  0  3  0  0  0  0  0  0
  191.7450  179.7770  143.9360 F   0  0  0  0  0  0  0  0  0  0  0  0
  190.1600  178.1410  144.5670 C   0  0  0  0  0  2  0  0  0  0  0  0
  190.0570  178.0410  146.0830 C   0  0  2  0  0  3  0  0  0  0  0  0
  189.6290  176.1880  147.4060 O   0  0  0  0  0  0  0  0  0  0  0  0
  191.2690  177.6150  146.6260 O   0  0  0  0  0  0  0  0  0  0  0  0
  189.0350  177.0090  146.4540 C   0  0  1  0  0  3  0  0  0  0  0  0
  191.0030  176.3540  147.1830 C   0  0  0  0  0  2  0  0  0  0  0  0
  186.6540  177.8810  146.1860 N   0  0  0  0  0  0  0  0  0  0  0  0
  187.8060  177.6620  147.0130 C   0  0  0  0  0  0  0  0  0  0  0  0
  184.6260  179.1640  145.7210 C   0  0  0  0  0  2  0  0  0  0  0  0
  185.6940  178.2480  143.9670 C   0  0  0  0  0  2  0  0  0  0  0  0
  184.4370  178.3530  144.5880 O   0  0  0  0  0  0  0  0  0  0  0  0
  186.6200  177.3740  144.8130 C   0  0  0  0  0  2  0  0  0  0  0  0
  185.4200  178.4000  146.7790 C   0  0  0  0  0  2  0  0  0  0  0  0
  187.8060  178.0540  148.2120 O   0  0  0  0  0  0  0  0  0  0  0  0
  1 14  2  0  0  0  0
  2  6  1  0  0  0  0
  3 14  1  0  0  0  0
  3 12  1  0  0  0  0
  4 11  1  0  0  0  0
  4 25  1  1  0  0  0
  5  8  1  0  0  0  0
  6 10  2  0  0  0  0
  7  2  1  0  0  0  0
  8 12  2  0  0  0  0
  8 10  1  0  0  0  0
  9  5  1  0  0  0  0
  9  2  2  0  0  0  0
 12 11  1  0  0  0  0
 13  3  2  0  0  0  0
 14 15  1  0  0  0  0
 15  4  1  0  0  0  0
 16 13  1  0  0  0  0
 16  5  2  0  0  0  0
 17 20  1  0  0  0  0
 18 17  1  0  0  0  0
 18 22  1  0  0  0  0
 19 22  1  0  0  0  0
 19 21  1  0  0  0  0
 20 21  1  0  0  0  0
 21  1  1  6  0  0  0
 24 18  1  0  0  0  0
 24 23  1  0  0  0  0
 25 26  2  0  0  0  0
 25 27  1  0  0  0  0
 27 28  1  0  0  0  0
 28 29  1  6  0  0  0
 28 30  1  0  0  0  0
 31 30  1  6  0  0  0
 31 34  1  0  0  0  0
 31 33  1  0  0  0  0
 33 35  1  0  0  0  0
 34 37  1  1  0  0  0
 34 32  1  0  0  0  0
 35 32  1  0  0  0  0
 36 42  1  0  0  0  0
 36 37  1  0  0  0  0
 37 43  2  0  0  0  0
 38 42  1  0  0  0  0
 39 40  1  0  0  0  0
 39 41  1  0  0  0  0
 40 38  1  0  0  0  0
 41 36  1  0  0  0  0
M  END
>  <MODEL>
5

>  <REMARK>
 VINA RESULT:      -9.5      3.734      9.745
  Name = 
  8 active torsions:
  status: ('A' for Active; 'I' for Inactive)
    1  A    between atoms: C_1  and  C_35
    2  A    between atoms: C_2  and  O_6
    3  A    between atoms: C_2  and  C_13
    4  A    between atoms: C_3  and  C_4
    5  A    between atoms: C_3  and  C_12
    6  A    between atoms: O_6  and  C_12
    7  A    between atoms: C_14  and  C_22
    8  A    between atoms: N_19  and  C_37
                            x       y       z     vdW  Elec       q    Type
                         _______ _______ _______ _____ _____    ______ ____

>  <TORSDO>
F 8

$$$$
=
 OpenBabel10272414043D

 43 48  0  0  1  0  0  0  0  0999 V2000
  187.9370  178.1800  146.0790 C   0  0  0  0  0  3  0  0  0  0  0  0
  181.5060  178.9320  142.4420 C   0  0  0  0  0  0  0  0  0  0  0  0
  186.0270  178.2670  144.5560 C   0  0  0  0  0  0  0  0  0  0  0  0
  187.7930  177.3230  142.5090 C   0  0  2  0  0  3  0  0  0  0  0  0
  183.3320  178.6660  144.0100 C   0  0  0  0  0  0  0  0  0  0  0  0
  182.3980  178.7860  141.3750 C   0  0  0  0  0  3  0  0  0  0  0  0
  180.0620  179.1530  142.1760 C   0  0  0  0  0  1  0  0  0  0  0  0
  184.2400  178.5150  142.9380 C   0  0  0  0  0  0  0  0  0  0  0  0
  181.9720  178.8750  143.7590 C   0  0  0  0  0  3  0  0  0  0  0  0
  183.7590  178.5790  141.6210 C   0  0  0  0  0  3  0  0  0  0  0  0
  186.6230  178.2220  142.1050 C   0  0  0  0  0  2  0  0  0  0  0  0
  185.6030  178.3050  143.2130 C   0  0  0  0  0  0  0  0  0  0  0  0
  185.1240  178.4200  145.5650 N   0  0  0  0  0  0  0  0  0  0  0  0
  187.4560  178.0420  144.8420 C   0  0  0  0  0  0  0  0  0  0  0  0
  188.3080  177.6990  143.7860 O   0  0  0  0  0  0  0  0  0  0  0  0
  183.8020  178.6160  145.3220 C   0  0  0  0  0  3  0  0  0  0  0  0
  190.9990  177.3390  148.1950 C   0  0  0  0  0  2  0  0  0  0  0  0
  191.3370  176.1640  147.3870 N   0  0  0  0  0  0  0  0  0  0  0  0
  189.9100  176.7610  145.6470 C   0  0  0  0  0  2  0  0  0  0  0  0
  189.5590  177.7480  147.9090 C   0  0  0  0  0  2  0  0  0  0  0  0
  189.3790  177.9710  146.4090 C   0  0  2  0  0  3  0  0  0  0  0  0
  191.3050  176.5290  146.0250 N   0  0  0  0  0  2  0  0  0  0  0  0
  193.1070  176.2700  148.9510 O   0  0  0  0  0  1  0  0  0  0  0  0
  192.7000  175.7500  147.7160 C   0  0  0  0  0  2  0  0  0  0  0  0
  188.8740  177.3980  141.4890 C   0  0  0  0  0  0  0  0  0  0  0  0
  189.9300  176.7300  141.6540 O   0  0  0  0  0  0  0  0  0  0  0  0
  188.7070  178.2090  140.3640 O   0  0  0  0  0  0  0  0  0  0  0  0
  188.5260  177.6750  139.0590 C   0  0  1  0  0  3  0  0  0  0  0  0
  187.5590  178.4040  138.3900 F   0  0  0  0  0  0  0  0  0  0  0  0
  189.8290  177.7560  138.2820 C   0  0  0  0  0  2  0  0  0  0  0  0
  190.5590  176.4190  138.2930 C   0  0  2  0  0  3  0  0  0  0  0  0
  191.8410  175.4320  136.6350 O   0  0  0  0  0  0  0  0  0  0  0  0
  191.9010  176.6010  138.6270 O   0  0  0  0  0  0  0  0  0  0  0  0
  190.5350  175.8180  136.9200 C   0  0  1  0  0  3  0  0  0  0  0  0
  192.6200  176.2370  137.4760 C   0  0  0  0  0  2  0  0  0  0  0  0
  188.2850  174.7600  136.3550 N   0  0  0  0  0  0  0  0  0  0  0  0
  189.6150  174.6340  136.8800 C   0  0  0  0  0  0  0  0  0  0  0  0
  185.9740  173.9660  136.2990 C   0  0  0  0  0  2  0  0  0  0  0  0
  186.3260  176.1490  135.8940 C   0  0  0  0  0  2  0  0  0  0  0  0
  185.6980  174.9990  135.3860 O   0  0  0  0  0  0  0  0  0  0  0  0
  187.8420  176.0190  135.7520 C   0  0  0  0  0  2  0  0  0  0  0  0
  187.4470  173.5700  136.2030 C   0  0  0  0  0  2  0  0  0  0  0  0
  190.0060  173.5300  137.3480 O   0  0  0  0  0  0  0  0  0  0  0  0
  2  9  1  0  0  0  0
  3 14  1  0  0  0  0
  3 13  1  0  0  0  0
  4 25  1  6  0  0  0
  4 15  1  0  0  0  0
  5 16  1  0  0  0  0
  6 10  1  0  0  0  0
  6  2  2  0  0  0  0
  7  2  1  0  0  0  0
  8 12  1  0  0  0  0
  8  5  1  0  0  0  0
  9  5  2  0  0  0  0
 10  8  2  0  0  0  0
 11  4  1  0  0  0  0
 11 12  1  0  0  0  0
 12  3  2  0  0  0  0
 14  1  2  0  0  0  0
 15 14  1  0  0  0  0
 16 13  2  0  0  0  0
 18 24  1  0  0  0  0
 18 17  1  0  0  0  0
 19 22  1  0  0  0  0
 19 21  1  0  0  0  0
 20 17  1  0  0  0  0
 21  1  1  1  0  0  0
 21 20  1  0  0  0  0
 22 18  1  0  0  0  0
 24 23  1  0  0  0  0
 25 26  2  0  0  0  0
 27 25  1  0  0  0  0
 28 29  1  6  0  0  0
 28 27  1  0  0  0  0
 30 28  1  0  0  0  0
 31 30  1  6  0  0  0
 31 33  1  0  0  0  0
 32 34  1  0  0  0  0
 32 35  1  0  0  0  0
 34 37  1  1  0  0  0
 34 31  1  0  0  0  0
 35 33  1  0  0  0  0
 36 37  1  0  0  0  0
 37 43  2  0  0  0  0
 40 39  1  0  0  0  0
 40 38  1  0  0  0  0
 41 39  1  0  0  0  0
 41 36  1  0  0  0  0
 42 38  1  0  0  0  0
 42 36  1  0  0  0  0
M  END
>  <MODEL>
6

>  <REMARK>
 VINA RESULT:      -9.5      2.363      6.632
  Name = 
  8 active torsions:
  status: ('A' for Active; 'I' for Inactive)
    1  A    between atoms: C_1  and  C_35
    2  A    between atoms: C_2  and  O_6
    3  A    between atoms: C_2  and  C_13
    4  A    between atoms: C_3  and  C_4
    5  A    between atoms: C_3  and  C_12
    6  A    between atoms: O_6  and  C_12
    7  A    between atoms: C_14  and  C_22
    8  A    between atoms: N_19  and  C_37
                            x       y       z     vdW  Elec       q    Type
                         _______ _______ _______ _____ _____    ______ ____

>  <TORSDO>
F 8

$$$$
=
 OpenBabel10272414043D

 43 48  0  0  1  0  0  0  0  0999 V2000
  187.9050  178.1650  146.0510 C   0  0  0  0  0  3  0  0  0  0  0  0
  181.5070  178.9180  142.3570 C   0  0  0  0  0  0  0  0  0  0  0  0
  186.0100  178.2570  144.5090 C   0  0  0  0  0  0  0  0  0  0  0  0
  187.8030  177.3470  142.4700 C   0  0  2  0  0  3  0  0  0  0  0  0
  183.3180  178.6460  143.9400 C   0  0  0  0  0  0  0  0  0  0  0  0
  182.4110  178.7890  141.2980 C   0  0  0  0  0  3  0  0  0  0  0  0
  180.0640  179.1320  142.0790 C   0  0  0  0  0  1  0  0  0  0  0  0
  184.2380  178.5120  142.8760 C   0  0  0  0  0  0  0  0  0  0  0  0
  181.9600  178.8490  143.6780 C   0  0  0  0  0  3  0  0  0  0  0  0
  183.7700  178.5870  141.5550 C   0  0  0  0  0  3  0  0  0  0  0  0
  186.6310  178.2440  142.0650 C   0  0  0  0  0  2  0  0  0  0  0  0
  185.5990  178.3080  143.1630 C   0  0  0  0  0  0  0  0  0  0  0  0
  185.0970  178.3940  145.5110 N   0  0  0  0  0  0  0  0  0  0  0  0
  187.4380  178.0380  144.8080 C   0  0  0  0  0  0  0  0  0  0  0  0
  188.3020  177.7120  143.7560 O   0  0  0  0  0  0  0  0  0  0  0  0
  183.7760  178.5840  145.2570 C   0  0  0  0  0  3  0  0  0  0  0  0
  190.9490  177.2890  148.1790 C   0  0  0  0  0  2  0  0  0  0  0  0
  191.3110  176.1460  147.3380 N   0  0  0  0  0  0  0  0  0  0  0  0
  189.9010  176.7840  145.5990 C   0  0  0  0  0  2  0  0  0  0  0  0
  189.5090  177.6910  147.8880 C   0  0  0  0  0  2  0  0  0  0  0  0
  189.3450  177.9620  146.3930 C   0  0  2  0  0  3  0  0  0  0  0  0
  191.2930  176.5550  145.9880 N   0  0  0  0  0  2  0  0  0  0  0  0
  193.1190  176.3520  148.8480 O   0  0  0  0  0  1  0  0  0  0  0  0
  192.6750  175.7360  147.6710 C   0  0  0  0  0  2  0  0  0  0  0  0
  188.8940  177.4410  141.4620 C   0  0  0  0  0  0  0  0  0  0  0  0
  190.0750  177.6580  141.8450 O   0  0  0  0  0  0  0  0  0  0  0  0
  188.5960  177.2890  140.1060 O   0  0  0  0  0  0  0  0  0  0  0  0
  188.6430  178.3740  139.1890 C   0  0  1  0  0  3  0  0  0  0  0  0
  189.9600  178.6530  138.8690 F   0  0  0  0  0  0  0  0  0  0  0  0
  187.8940  178.0090  137.9180 C   0  0  0  0  0  2  0  0  0  0  0  0
  188.1140  176.5480  137.5510 C   0  0  2  0  0  3  0  0  0  0  0  0
  187.8890  175.5010  135.4960 O   0  0  0  0  0  0  0  0  0  0  0  0
  189.3920  176.3660  137.0220 O   0  0  0  0  0  0  0  0  0  0  0  0
  187.1450  176.1440  136.4800 C   0  0  1  0  0  3  0  0  0  0  0  0
  189.1890  175.9900  135.6840 C   0  0  0  0  0  2  0  0  0  0  0  0
  184.7730  175.7010  137.3030 N   0  0  0  0  0  0  0  0  0  0  0  0
  186.1000  175.2230  137.0360 C   0  0  0  0  0  0  0  0  0  0  0  0
  182.6890  175.4950  138.5640 C   0  0  0  0  0  2  0  0  0  0  0  0
  183.2730  177.5500  137.8620 C   0  0  0  0  0  2  0  0  0  0  0  0
  182.2180  176.6210  137.8660 O   0  0  0  0  0  0  0  0  0  0  0  0
  184.3890  177.0660  136.9360 C   0  0  0  0  0  2  0  0  0  0  0  0
  183.7320  174.7620  137.7210 C   0  0  0  0  0  2  0  0  0  0  0  0
  186.4070  174.0300  137.3050 O   0  0  0  0  0  0  0  0  0  0  0  0
  2  9  1  0  0  0  0
  3 14  1  0  0  0  0
  3 13  1  0  0  0  0
  4 25  1  6  0  0  0
  4 15  1  0  0  0  0
  5 16  1  0  0  0  0
  6 10  1  0  0  0  0
  6  2  2  0  0  0  0
  7  2  1  0  0  0  0
  8 12  1  0  0  0  0
  8  5  1  0  0  0  0
  9  5  2  0  0  0  0
 10  8  2  0  0  0  0
 11  4  1  0  0  0  0
 11 12  1  0  0  0  0
 12  3  2  0  0  0  0
 14  1  2  0  0  0  0
 15 14  1  0  0  0  0
 16 13  2  0  0  0  0
 18 24  1  0  0  0  0
 18 17  1  0  0  0  0
 19 22  1  0  0  0  0
 19 21  1  0  0  0  0
 20 17  1  0  0  0  0
 21  1  1  1  0  0  0
 21 20  1  0  0  0  0
 22 18  1  0  0  0  0
 24 23  1  0  0  0  0
 25 26  2  0  0  0  0
 27 25  1  0  0  0  0
 28 29  1  6  0  0  0
 28 27  1  0  0  0  0
 30 28  1  0  0  0  0
 31 30  1  6  0  0  0
 32 35  1  0  0  0  0
 32 34  1  0  0  0  0
 33 31  1  0  0  0  0
 34 37  1  1  0  0  0
 34 31  1  0  0  0  0
 35 33  1  0  0  0  0
 36 42  1  0  0  0  0
 37 36  1  0  0  0  0
 37 43  2  0  0  0  0
 39 40  1  0  0  0  0
 40 38  1  0  0  0  0
 41 36  1  0  0  0  0
 41 39  1  0  0  0  0
 42 38  1  0  0  0  0
M  END
>  <MODEL>
7

>  <REMARK>
 VINA RESULT:      -9.5      2.132      6.416
  Name = 
  8 active torsions:
  status: ('A' for Active; 'I' for Inactive)
    1  A    between atoms: C_1  and  C_35
    2  A    between atoms: C_2  and  O_6
    3  A    between atoms: C_2  and  C_13
    4  A    between atoms: C_3  and  C_4
    5  A    between atoms: C_3  and  C_12
    6  A    between atoms: O_6  and  C_12
    7  A    between atoms: C_14  and  C_22
    8  A    between atoms: N_19  and  C_37
                            x       y       z     vdW  Elec       q    Type
                         _______ _______ _______ _____ _____    ______ ____

>  <TORSDO>
F 8

$$$$
=
 OpenBabel10272414043D

 43 48  0  0  1  0  0  0  0  0999 V2000
  187.8670  178.1760  145.8950 C   0  0  0  0  0  3  0  0  0  0  0  0
  181.4660  179.0690  142.2360 C   0  0  0  0  0  0  0  0  0  0  0  0
  185.9690  178.3220  144.3600 C   0  0  0  0  0  0  0  0  0  0  0  0
  187.7510  177.4540  142.2940 C   0  0  2  0  0  3  0  0  0  0  0  0
  183.2780  178.7440  143.8080 C   0  0  0  0  0  0  0  0  0  0  0  0
  182.3670  178.9620  141.1720 C   0  0  0  0  0  3  0  0  0  0  0  0
  180.0240  179.3010  141.9670 C   0  0  0  0  0  1  0  0  0  0  0  0
  184.1950  178.6320  142.7380 C   0  0  0  0  0  0  0  0  0  0  0  0
  181.9210  178.9620  143.5540 C   0  0  0  0  0  3  0  0  0  0  0  0
  183.7250  178.7450  141.4210 C   0  0  0  0  0  3  0  0  0  0  0  0
  186.5850  178.3680  141.9150 C   0  0  0  0  0  2  0  0  0  0  0  0
  185.5560  178.4110  143.0160 C   0  0  0  0  0  0  0  0  0  0  0  0
  185.0580  178.4380  145.3670 N   0  0  0  0  0  0  0  0  0  0  0  0
  187.3960  178.0850  144.6500 C   0  0  0  0  0  0  0  0  0  0  0  0
  188.2560  177.7810  143.5880 O   0  0  0  0  0  0  0  0  0  0  0  0
  183.7380  178.6440  145.1210 C   0  0  0  0  0  3  0  0  0  0  0  0
  190.9100  177.2440  147.9990 C   0  0  0  0  0  2  0  0  0  0  0  0
  191.2570  176.1070  147.1430 N   0  0  0  0  0  0  0  0  0  0  0  0
  189.8450  176.7800  145.4190 C   0  0  0  0  0  2  0  0  0  0  0  0
  189.4730  177.6650  147.7190 C   0  0  0  0  0  2  0  0  0  0  0  0
  189.3050  177.9540  146.2280 C   0  0  2  0  0  3  0  0  0  0  0  0
  191.2370  176.5320  145.7980 N   0  0  0  0  0  2  0  0  0  0  0  0
  193.1070  176.3470  148.5960 O   0  0  0  0  0  1  0  0  0  0  0  0
  192.6180  175.6800  147.4660 C   0  0  0  0  0  2  0  0  0  0  0  0
  188.8410  177.5660  141.2860 C   0  0  0  0  0  0  0  0  0  0  0  0
  189.8950  176.8910  141.4350 O   0  0  0  0  0  0  0  0  0  0  0  0
  188.6830  178.4190  140.1910 O   0  0  0  0  0  0  0  0  0  0  0  0
  188.2500  177.9550  138.9190 C   0  0  1  0  0  3  0  0  0  0  0  0
  186.8720  178.0410  138.8380 F   0  0  0  0  0  0  0  0  0  0  0  0
  188.8630  178.8080  137.8210 C   0  0  0  0  0  2  0  0  0  0  0  0
  188.6790  178.1610  136.4550 C   0  0  2  0  0  3  0  0  0  0  0  0
  187.8930  176.0470  135.9260 O   0  0  0  0  0  0  0  0  0  0  0  0
  187.3570  178.2920  136.0290 O   0  0  0  0  0  0  0  0  0  0  0  0
  188.9570  176.6910  136.5500 C   0  0  1  0  0  3  0  0  0  0  0  0
  186.8510  176.9820  135.9870 C   0  0  0  0  0  2  0  0  0  0  0  0
  191.4450  176.1410  136.6340 N   0  0  0  0  0  0  0  0  0  0  0  0
  190.2500  176.3550  135.8680 C   0  0  0  0  0  0  0  0  0  0  0  0
  193.8860  176.1640  136.7510 C   0  0  0  0  0  2  0  0  0  0  0  0
  192.7570  176.5670  138.6530 C   0  0  0  0  0  2  0  0  0  0  0  0
  193.7720  175.7700  138.0960 O   0  0  0  0  0  0  0  0  0  0  0  0
  191.3970  176.1410  138.0970 C   0  0  0  0  0  2  0  0  0  0  0  0
  192.6650  175.6870  135.9660 C   0  0  0  0  0  2  0  0  0  0  0  0
  190.2890  176.2990  134.6090 O   0  0  0  0  0  0  0  0  0  0  0  0
  2  9  1  0  0  0  0
  3 14  1  0  0  0  0
  3 13  1  0  0  0  0
  4 25  1  6  0  0  0
  4 15  1  0  0  0  0
  5 16  1  0  0  0  0
  6 10  1  0  0  0  0
  6  2  2  0  0  0  0
  7  2  1  0  0  0  0
  8 12  1  0  0  0  0
  8  5  1  0  0  0  0
  9  5  2  0  0  0  0
 10  8  2  0  0  0  0
 11  4  1  0  0  0  0
 11 12  1  0  0  0  0
 12  3  2  0  0  0  0
 14  1  2  0  0  0  0
 15 14  1  0  0  0  0
 16 13  2  0  0  0  0
 18 24  1  0  0  0  0
 18 17  1  0  0  0  0
 19 22  1  0  0  0  0
 19 21  1  0  0  0  0
 20 17  1  0  0  0  0
 21  1  1  1  0  0  0
 21 20  1  0  0  0  0
 22 18  1  0  0  0  0
 24 23  1  0  0  0  0
 25 26  2  0  0  0  0
 27 25  1  0  0  0  0
 28 29  1  1  0  0  0
 28 27  1  0  0  0  0
 30 28  1  0  0  0  0
 31 34  1  0  0  0  0
 31 30  1  1  0  0  0
 32 35  1  0  0  0  0
 32 34  1  0  0  0  0
 33 31  1  0  0  0  0
 34 37  1  6  0  0  0
 35 33  1  0  0  0  0
 36 41  1  0  0  0  0
 37 36  1  0  0  0  0
 38 40  1  0  0  0  0
 40 39  1  0  0  0  0
 41 39  1  0  0  0  0
 42 36  1  0  0  0  0
 42 38  1  0  0  0  0
 43 37  2  0  0  0  0
M  END
>  <MODEL>
8

>  <REMARK>
 VINA RESULT:      -9.4      2.632      7.279
  Name = 
  8 active torsions:
  status: ('A' for Active; 'I' for Inactive)
    1  A    between atoms: C_1  and  C_35
    2  A    between atoms: C_2  and  O_6
    3  A    between atoms: C_2  and  C_13
    4  A    between atoms: C_3  and  C_4
    5  A    between atoms: C_3  and  C_12
    6  A    between atoms: O_6  and  C_12
    7  A    between atoms: C_14  and  C_22
    8  A    between atoms: N_19  and  C_37
                            x       y       z     vdW  Elec       q    Type
                         _______ _______ _______ _____ _____    ______ ____

>  <TORSDO>
F 8

$$$$
=
 OpenBabel10272414043D

 43 48  0  0  1  0  0  0  0  0999 V2000
  189.1210  177.5880  140.0680 C   0  0  0  0  0  3  0  0  0  0  0  0
  191.4630  176.3900  147.0120 C   0  0  0  0  0  0  0  0  0  0  0  0
  189.4870  177.2170  142.4560 C   0  0  0  0  0  0  0  0  0  0  0  0
  186.6730  177.6160  142.8090 C   0  0  2  0  0  3  0  0  0  0  0  0
  191.0940  176.5590  144.6260 C   0  0  0  0  0  0  0  0  0  0  0  0
  190.1780  176.8890  147.2490 C   0  0  0  0  0  3  0  0  0  0  0  0
  192.3430  176.0370  148.1550 C   0  0  0  0  0  1  0  0  0  0  0  0
  189.7930  177.0610  144.8550 C   0  0  0  0  0  0  0  0  0  0  0  0
  191.9220  176.2270  145.7020 C   0  0  0  0  0  3  0  0  0  0  0  0
  189.3470  177.2240  146.1760 C   0  0  0  0  0  3  0  0  0  0  0  0
  187.6140  178.0050  143.9510 C   0  0  0  0  0  2  0  0  0  0  0  0
  188.9760  177.3870  143.7580 C   0  0  0  0  0  0  0  0  0  0  0  0
  190.7470  176.7330  142.2720 N   0  0  0  0  0  0  0  0  0  0  0  0
  188.6270  177.5550  141.3070 C   0  0  0  0  0  0  0  0  0  0  0  0
  187.2820  177.8630  141.5410 O   0  0  0  0  0  0  0  0  0  0  0  0
  191.5510  176.4040  143.3170 C   0  0  0  0  0  3  0  0  0  0  0  0
  188.2750  179.0130  136.6300 C   0  0  0  0  0  2  0  0  0  0  0  0
  187.9680  177.6950  136.0680 N   0  0  0  0  0  0  0  0  0  0  0  0
  187.8710  176.6610  138.1520 C   0  0  0  0  0  2  0  0  0  0  0  0
  189.0640  178.8370  137.9220 C   0  0  0  0  0  2  0  0  0  0  0  0
  188.2860  177.9360  138.8790 C   0  0  2  0  0  3  0  0  0  0  0  0
  187.1060  177.0160  136.9550 N   0  0  0  0  0  2  0  0  0  0  0  0
  186.0950  177.1120  134.7490 O   0  0  0  0  0  1  0  0  0  0  0  0
  187.2630  177.8830  134.8010 C   0  0  0  0  0  2  0  0  0  0  0  0
  185.3990  178.3780  142.9110 C   0  0  0  0  0  0  0  0  0  0  0  0
  184.7670  178.3850  144.0020 O   0  0  0  0  0  0  0  0  0  0  0  0
  184.9180  179.0720  141.7990 O   0  0  0  0  0  0  0  0  0  0  0  0
  184.1410  178.4460  140.7860 C   0  0  1  0  0  3  0  0  0  0  0  0
  183.7260  177.2010  141.2240 F   0  0  0  0  0  0  0  0  0  0  0  0
  182.9180  179.2920  140.4760 C   0  0  0  0  0  2  0  0  0  0  0  0
  182.8650  179.6600  138.9990 C   0  0  2  0  0  3  0  0  0  0  0  0
  181.0860  180.4600  137.7480 O   0  0  0  0  0  0  0  0  0  0  0  0
  183.0430  181.0340  138.8340 O   0  0  0  0  0  0  0  0  0  0  0  0
  181.5110  179.3330  138.4440 C   0  0  1  0  0  3  0  0  0  0  0  0
  181.8240  181.5050  138.3190 C   0  0  0  0  0  2  0  0  0  0  0  0
  181.1240  176.8600  137.9590 N   0  0  0  0  0  0  0  0  0  0  0  0
  181.5910  178.1470  137.5290 C   0  0  0  0  0  0  0  0  0  0  0  0
  181.2310  174.4250  137.7690 C   0  0  0  0  0  2  0  0  0  0  0  0
  180.6720  175.2810  139.7710 C   0  0  0  0  0  2  0  0  0  0  0  0
  180.2690  174.3570  138.7920 O   0  0  0  0  0  0  0  0  0  0  0  0
  180.4650  176.7060  139.2570 C   0  0  0  0  0  2  0  0  0  0  0  0
  181.0890  175.7450  137.0120 C   0  0  0  0  0  2  0  0  0  0  0  0
  182.1090  178.2810  136.3860 O   0  0  0  0  0  0  0  0  0  0  0  0
  1 14  2  0  0  0  0
  2  6  1  0  0  0  0
  2  7  1  0  0  0  0
  3 12  1  0  0  0  0
  4 25  1  6  0  0  0
  4 11  1  0  0  0  0
  5  8  1  0  0  0  0
  5  9  1  0  0  0  0
  8 10  1  0  0  0  0
  9  2  2  0  0  0  0
 10  6  2  0  0  0  0
 12 11  1  0  0  0  0
 12  8  2  0  0  0  0
 13  3  2  0  0  0  0
 13 16  1  0  0  0  0
 14 15  1  0  0  0  0
 14  3  1  0  0  0  0
 15  4  1  0  0  0  0
 16  5  2  0  0  0  0
 17 20  1  0  0  0  0
 18 17  1  0  0  0  0
 18 22  1  0  0  0  0
 19 21  1  0  0  0  0
 20 21  1  0  0  0  0
 21  1  1  1  0  0  0
 22 19  1  0  0  0  0
 23 24  1  0  0  0  0
 24 18  1  0  0  0  0
 25 26  2  0  0  0  0
 27 25  1  0  0  0  0
 28 29  1  1  0  0  0
 28 27  1  0  0  0  0
 30 28  1  0  0  0  0
 31 30  1  1  0  0  0
 32 35  1  0  0  0  0
 32 34  1  0  0  0  0
 33 31  1  0  0  0  0
 34 37  1  6  0  0  0
 34 31  1  0  0  0  0
 35 33  1  0  0  0  0
 36 41  1  0  0  0  0
 37 36  1  0  0  0  0
 38 40  1  0  0  0  0
 40 39  1  0  0  0  0
 41 39  1  0  0  0  0
 42 38  1  0  0  0  0
 42 36  1  0  0  0  0
 43 37  2  0  0  0  0
M  END
>  <MODEL>
9

>  <REMARK>
 VINA RESULT:      -9.3      2.606      5.771
  Name = 
  8 active torsions:
  status: ('A' for Active; 'I' for Inactive)
    1  A    between atoms: C_1  and  C_35
    2  A    between atoms: C_2  and  O_6
    3  A    between atoms: C_2  and  C_13
    4  A    between atoms: C_3  and  C_4
    5  A    between atoms: C_3  and  C_12
    6  A    between atoms: O_6  and  C_12
    7  A    between atoms: C_14  and  C_22
    8  A    between atoms: N_19  and  C_37
                            x       y       z     vdW  Elec       q    Type
                         _______ _______ _______ _____ _____    ______ ____

>  <TORSDO>
F 8

$$$$
