=
 OpenBabel10272400193D

 31 35  0  0  1  0  0  0  0  0999 V2000
  186.0310  178.2060  144.2930 C   0  0  0  0  0  0  0  0  0  0  0  0
  186.9900  178.0160  145.3380 C   0  0  0  0  0  0  0  0  0  0  0  0
  189.4700  177.5470  145.9850 C   0  0  0  0  0  2  0  0  0  0  0  0
  186.3670  177.9800  142.8830 C   0  0  0  0  0  0  0  0  0  0  0  0
  188.3290  177.3840  144.9930 C   0  0  0  0  0  2  0  0  0  0  0  0
  183.5810  178.8450  143.7580 C   0  0  0  0  0  0  0  0  0  0  0  0
  185.3160  178.7030  146.9740 C   0  0  0  0  0  3  0  0  0  0  0  0
  189.2260  176.7090  147.1310 N   0  0  0  0  0  0  0  0  0  0  0  0
  183.9740  178.6060  142.4890 C   0  0  0  0  0  0  0  0  0  0  0  0
  184.6600  178.6390  144.6940 C   0  0  0  0  0  0  0  0  0  0  0  0
  188.3270  177.0140  147.9960 C   0  0  0  0  0  3  0  0  0  0  0  0
  184.2720  178.3870  141.1380 C   0  0  0  0  0  2  0  0  0  0  0  0
  185.2990  178.1950  142.0720 C   0  0  0  0  0  0  0  0  0  0  0  0
  184.3910  178.8560  146.0030 N   0  0  0  0  0  0  0  0  0  0  0  0
  186.6070  178.2820  146.6870 C   0  0  0  0  0  0  0  0  0  0  0  0
  187.5340  178.2760  147.8680 C   0  0  0  0  0  2  0  0  0  0  0  0
  188.2430  177.9990  141.1330 C   0  0  0  0  0  0  0  0  0  0  0  0
  187.6150  178.7260  140.3190 O   0  0  0  0  0  0  0  0  0  0  0  0
  189.5510  177.5480  140.8020 N   0  0  0  0  0  1  0  0  0  0  0  0
  187.6660  177.6190  142.3880 N   0  0  0  0  0  2  0  0  0  0  0  0
  182.1950  179.2880  144.1270 C   0  0  0  0  0  2  0  0  0  0  0  0
  179.9820  178.0690  144.1770 C   0  0  0  0  0  1  0  0  0  0  0  0
  181.0940  178.6140  143.2980 C   0  0  1  0  0  3  0  0  0  0  0  0
  180.5190  179.5310  142.2240 C   0  0  0  0  0  2  0  0  0  0  0  0
  180.9360  177.1140  139.3470 C   0  0  0  0  0  0  0  0  0  0  0  0
  181.2650  179.3170  138.5230 C   0  0  0  0  0  3  0  0  0  0  0  0
  180.8730  175.6520  139.0910 C   0  0  0  0  0  1  0  0  0  0  0  0
  180.7130  177.6070  140.6350 C   0  0  0  0  0  3  0  0  0  0  0  0
  181.0470  179.8480  139.7970 C   0  0  0  0  0  3  0  0  0  0  0  0
  180.7710  178.9850  140.8600 C   0  0  0  0  0  0  0  0  0  0  0  0
  181.2060  177.9730  138.3270 N   0  0  0  0  0  0  0  0  0  0  0  0
  1 10  1  0  0  0  0
  1  2  2  0  0  0  0
  2 15  1  0  0  0  0
  3  8  1  0  0  0  0
  4  1  1  0  0  0  0
  5  2  1  0  0  0  0
  5  3  1  0  0  0  0
  6 21  1  0  0  0  0
  6 10  1  0  0  0  0
  8 11  2  0  0  0  0
  9  6  2  0  0  0  0
 10 14  2  0  0  0  0
 12 13  1  0  0  0  0
 12  9  1  0  0  0  0
 13  9  1  0  0  0  0
 13  4  2  0  0  0  0
 14  7  1  0  0  0  0
 15  7  2  0  0  0  0
 15 16  1  0  0  0  0
 16 11  1  0  0  0  0
 17 20  1  0  0  0  0
 18 17  2  0  0  0  0
 19 17  1  0  0  0  0
 20  4  1  0  0  0  0
 23 21  1  0  0  0  0
 23 22  1  1  0  0  0
 24 23  1  0  0  0  0
 25 28  1  0  0  0  0
 26 29  2  0  0  0  0
 27 25  1  0  0  0  0
 28 30  2  0  0  0  0
 29 30  1  0  0  0  0
 30 24  1  0  0  0  0
 31 26  1  0  0  0  0
 31 25  2  0  0  0  0
M  END
>  <MODEL>
1

>  <REMARK>
 VINA RESULT:     -10.0      0.000      0.000
  Name = 
  5 active torsions:
  status: ('A' for Active; 'I' for Inactive)
    1  A    between atoms: C_3  and  C_9
    2  A    between atoms: C_3  and  C_22
    3  A    between atoms: C_9  and  C_23
    4  A    between atoms: C_12  and  N_25
    5  A    between atoms: C_15  and  C_23
                            x       y       z     vdW  Elec       q    Type
                         _______ _______ _______ _____ _____    ______ ____

>  <TORSDO>
F 5

$$$$
=
 OpenBabel10272400193D

 31 35  0  0  1  0  0  0  0  0999 V2000
  186.9900  178.1010  141.9000 C   0  0  0  0  0  0  0  0  0  0  0  0
  187.9410  177.8930  140.8520 C   0  0  0  0  0  0  0  0  0  0  0  0
  188.7000  178.4720  138.4270 C   0  0  0  0  0  2  0  0  0  0  0  0
  185.7610  178.8740  141.6890 C   0  0  0  0  0  0  0  0  0  0  0  0
  187.5750  178.3210  139.4390 C   0  0  0  0  0  2  0  0  0  0  0  0
  186.4190  177.5920  144.3720 C   0  0  0  0  0  0  0  0  0  0  0  0
  189.3480  176.6400  142.4020 C   0  0  0  0  0  3  0  0  0  0  0  0
  189.1720  177.1640  138.0450 N   0  0  0  0  0  0  0  0  0  0  0  0
  185.3110  178.3100  144.0870 C   0  0  0  0  0  0  0  0  0  0  0  0
  187.2930  177.4910  143.2290 C   0  0  0  0  0  0  0  0  0  0  0  0
  189.8830  176.4560  138.8460 C   0  0  0  0  0  3  0  0  0  0  0  0
  184.1270  179.0360  143.9030 C   0  0  0  0  0  2  0  0  0  0  0  0
  184.9970  178.9190  142.8110 C   0  0  0  0  0  0  0  0  0  0  0  0
  188.4460  176.8020  143.3930 N   0  0  0  0  0  0  0  0  0  0  0  0
  189.1310  177.1560  141.1320 C   0  0  0  0  0  0  0  0  0  0  0  0
  190.2850  176.9830  140.1880 C   0  0  0  0  0  2  0  0  0  0  0  0
  184.1520  179.4610  139.7790 C   0  0  0  0  0  0  0  0  0  0  0  0
  183.2120  178.7460  140.2150 O   0  0  0  0  0  0  0  0  0  0  0  0
  183.9690  180.1990  138.5770 N   0  0  0  0  0  1  0  0  0  0  0  0
  185.4040  179.5460  140.4710 N   0  0  0  0  0  2  0  0  0  0  0  0
  186.6970  177.0000  145.7240 C   0  0  0  0  0  2  0  0  0  0  0  0
  186.1850  178.6940  147.5270 C   0  0  0  0  0  1  0  0  0  0  0  0
  187.2770  178.0060  146.7270 C   0  0  1  0  0  3  0  0  0  0  0  0
  188.3040  177.3800  147.6640 C   0  0  0  0  0  2  0  0  0  0  0  0
  191.2010  177.8770  145.2860 C   0  0  0  0  0  0  0  0  0  0  0  0
  191.7690  176.1370  146.7990 C   0  0  0  0  0  3  0  0  0  0  0  0
  191.5730  178.7400  144.1350 C   0  0  0  0  0  1  0  0  0  0  0  0
  189.9560  178.0330  145.9000 C   0  0  0  0  0  3  0  0  0  0  0  0
  190.5340  176.2630  147.4400 C   0  0  0  0  0  3  0  0  0  0  0  0
  189.6210  177.2170  146.9840 C   0  0  0  0  0  0  0  0  0  0  0  0
  192.0740  176.9400  145.7440 N   0  0  0  0  0  0  0  0  0  0  0  0
  1 10  1  0  0  0  0
  2 15  2  0  0  0  0
  2  1  1  0  0  0  0
  3  5  1  0  0  0  0
  4  1  2  0  0  0  0
  4 13  1  0  0  0  0
  5  2  1  0  0  0  0
  6 21  1  0  0  0  0
  7 14  2  0  0  0  0
  8  3  1  0  0  0  0
  8 11  2  0  0  0  0
  9  6  1  0  0  0  0
 10 14  1  0  0  0  0
 10  6  2  0  0  0  0
 11 16  1  0  0  0  0
 12  9  1  0  0  0  0
 13 12  1  0  0  0  0
 13  9  2  0  0  0  0
 15  7  1  0  0  0  0
 16 15  1  0  0  0  0
 17 18  2  0  0  0  0
 17 20  1  0  0  0  0
 19 17  1  0  0  0  0
 20  4  1  0  0  0  0
 21 23  1  0  0  0  0
 23 22  1  1  0  0  0
 23 24  1  0  0  0  0
 25 31  2  0  0  0  0
 25 28  1  0  0  0  0
 26 29  2  0  0  0  0
 27 25  1  0  0  0  0
 28 30  2  0  0  0  0
 30 29  1  0  0  0  0
 30 24  1  0  0  0  0
 31 26  1  0  0  0  0
M  END
>  <MODEL>
2

>  <REMARK>
 VINA RESULT:      -9.9      2.750      7.759
  Name = 
  5 active torsions:
  status: ('A' for Active; 'I' for Inactive)
    1  A    between atoms: C_3  and  C_9
    2  A    between atoms: C_3  and  C_22
    3  A    between atoms: C_9  and  C_23
    4  A    between atoms: C_12  and  N_25
    5  A    between atoms: C_15  and  C_23
                            x       y       z     vdW  Elec       q    Type
                         _______ _______ _______ _____ _____    ______ ____

>  <TORSDO>
F 5

$$$$
=
 OpenBabel10272400193D

 31 35  0  0  1  0  0  0  0  0999 V2000
  190.2860  177.2030  139.3740 C   0  0  0  0  0  0  0  0  0  0  0  0
  191.0210  176.7960  138.2150 C   0  0  0  0  0  0  0  0  0  0  0  0
  191.0150  176.3810  135.6430 C   0  0  0  0  0  2  0  0  0  0  0  0
  188.8400  177.4430  139.3280 C   0  0  0  0  0  0  0  0  0  0  0  0
  190.2520  176.4210  136.9580 C   0  0  0  0  0  2  0  0  0  0  0  0
  190.4440  177.7480  141.8980 C   0  0  0  0  0  0  0  0  0  0  0  0
  193.0720  176.8040  139.5370 C   0  0  0  0  0  3  0  0  0  0  0  0
  191.8660  175.2180  135.6230 N   0  0  0  0  0  0  0  0  0  0  0  0
  189.1140  177.9390  141.7670 C   0  0  0  0  0  0  0  0  0  0  0  0
  191.0510  177.3690  140.6440 C   0  0  0  0  0  0  0  0  0  0  0  0
  192.9340  175.1660  136.3330 C   0  0  0  0  0  3  0  0  0  0  0  0
  187.7320  178.1640  141.7470 C   0  0  0  0  0  2  0  0  0  0  0  0
  188.3500  177.7940  140.5450 C   0  0  0  0  0  0  0  0  0  0  0  0
  192.3870  177.1570  140.6450 N   0  0  0  0  0  0  0  0  0  0  0  0
  192.4320  176.6080  138.3210 C   0  0  0  0  0  0  0  0  0  0  0  0
  193.3580  176.3310  137.1720 C   0  0  0  0  0  2  0  0  0  0  0  0
  187.8080  178.4050  137.1840 C   0  0  0  0  0  0  0  0  0  0  0  0
  188.3540  179.5330  137.3060 O   0  0  0  0  0  0  0  0  0  0  0  0
  186.9640  178.1550  136.0680 N   0  0  0  0  0  1  0  0  0  0  0  0
  188.0240  177.3670  138.1480 N   0  0  0  0  0  2  0  0  0  0  0  0
  191.1850  177.9320  143.1910 C   0  0  0  0  0  2  0  0  0  0  0  0
  191.8090  175.6270  144.0160 C   0  0  0  0  0  1  0  0  0  0  0  0
  190.9050  176.8290  144.2210 C   0  0  1  0  0  3  0  0  0  0  0  0
  191.0040  177.3260  145.6590 C   0  0  0  0  0  2  0  0  0  0  0  0
  187.2720  177.8280  145.9920 C   0  0  0  0  0  0  0  0  0  0  0  0
  188.2110  177.7530  148.1720 C   0  0  0  0  0  3  0  0  0  0  0  0
  186.0740  177.9560  145.1230 C   0  0  0  0  0  1  0  0  0  0  0  0
  188.5340  177.6530  145.4200 C   0  0  0  0  0  3  0  0  0  0  0  0
  189.4900  177.5780  147.6380 C   0  0  0  0  0  3  0  0  0  0  0  0
  189.6500  177.5300  146.2510 C   0  0  0  0  0  0  0  0  0  0  0  0
  187.1380  177.8740  147.3460 N   0  0  0  0  0  0  0  0  0  0  0  0
  1 10  1  0  0  0  0
  2 15  2  0  0  0  0
  2  1  1  0  0  0  0
  3  5  1  0  0  0  0
  4  1  2  0  0  0  0
  4 13  1  0  0  0  0
  5  2  1  0  0  0  0
  6 21  1  0  0  0  0
  7 14  2  0  0  0  0
  8  3  1  0  0  0  0
  8 11  2  0  0  0  0
  9  6  1  0  0  0  0
 10 14  1  0  0  0  0
 10  6  2  0  0  0  0
 11 16  1  0  0  0  0
 12  9  1  0  0  0  0
 13 12  1  0  0  0  0
 13  9  2  0  0  0  0
 15  7  1  0  0  0  0
 16 15  1  0  0  0  0
 17 18  2  0  0  0  0
 17 20  1  0  0  0  0
 19 17  1  0  0  0  0
 20  4  1  0  0  0  0
 21 23  1  0  0  0  0
 23 22  1  1  0  0  0
 23 24  1  0  0  0  0
 24 30  1  0  0  0  0
 25 31  1  0  0  0  0
 27 25  1  0  0  0  0
 28 25  2  0  0  0  0
 28 30  1  0  0  0  0
 29 26  1  0  0  0  0
 30 29  2  0  0  0  0
 31 26  2  0  0  0  0
M  END
>  <MODEL>
3

>  <REMARK>
 VINA RESULT:      -9.1      4.313      9.024
  Name = 
  5 active torsions:
  status: ('A' for Active; 'I' for Inactive)
    1  A    between atoms: C_3  and  C_9
    2  A    between atoms: C_3  and  C_22
    3  A    between atoms: C_9  and  C_23
    4  A    between atoms: C_12  and  N_25
    5  A    between atoms: C_15  and  C_23
                            x       y       z     vdW  Elec       q    Type
                         _______ _______ _______ _____ _____    ______ ____

>  <TORSDO>
F 5

$$$$
=
 OpenBabel10272400193D

 31 35  0  0  1  0  0  0  0  0999 V2000
  187.2360  178.1860  139.0980 C   0  0  0  0  0  0  0  0  0  0  0  0
  187.5480  177.9050  137.7310 C   0  0  0  0  0  0  0  0  0  0  0  0
  186.7460  177.8950  135.2510 C   0  0  0  0  0  2  0  0  0  0  0  0
  185.8790  178.5480  139.5240 C   0  0  0  0  0  0  0  0  0  0  0  0
  186.4080  177.7930  136.7300 C   0  0  0  0  0  2  0  0  0  0  0  0
  188.1840  178.3200  141.5020 C   0  0  0  0  0  0  0  0  0  0  0  0
  189.8780  177.5420  138.3560 C   0  0  0  0  0  3  0  0  0  0  0  0
  187.4040  176.6840  134.8300 N   0  0  0  0  0  0  0  0  0  0  0  0
  186.9070  178.6360  141.8070 C   0  0  0  0  0  0  0  0  0  0  0  0
  188.3500  178.0910  140.0870 C   0  0  0  0  0  0  0  0  0  0  0  0
  188.6170  176.4360  135.1700 C   0  0  0  0  0  3  0  0  0  0  0  0
  185.6170  178.9730  142.2350 C   0  0  0  0  0  2  0  0  0  0  0  0
  185.8110  178.7450  140.8670 C   0  0  0  0  0  0  0  0  0  0  0  0
  189.5930  177.7740  139.6550 N   0  0  0  0  0  0  0  0  0  0  0  0
  188.8940  177.5890  137.3780 C   0  0  0  0  0  0  0  0  0  0  0  0
  189.4060  177.4190  135.9770 C   0  0  0  0  0  2  0  0  0  0  0  0
  183.4940  178.0420  138.7250 C   0  0  0  0  0  0  0  0  0  0  0  0
  183.2650  177.1890  139.6230 O   0  0  0  0  0  0  0  0  0  0  0  0
  182.4840  178.3380  137.7690 N   0  0  0  0  0  1  0  0  0  0  0  0
  184.7540  178.7210  138.6490 N   0  0  0  0  0  2  0  0  0  0  0  0
  189.2840  178.2410  142.5210 C   0  0  0  0  0  2  0  0  0  0  0  0
  189.6220  175.7720  142.9370 C   0  0  0  0  0  1  0  0  0  0  0  0
  189.1180  177.0830  143.5140 C   0  0  1  0  0  3  0  0  0  0  0  0
  189.7830  177.3590  144.8590 C   0  0  0  0  0  2  0  0  0  0  0  0
  186.5040  178.2340  146.5240 C   0  0  0  0  0  0  0  0  0  0  0  0
  188.1700  178.0570  148.2060 C   0  0  0  0  0  3  0  0  0  0  0  0
  185.0880  178.4850  146.1510 C   0  0  0  0  0  1  0  0  0  0  0  0
  187.4430  177.9350  145.5330 C   0  0  0  0  0  3  0  0  0  0  0  0
  189.1380  177.7550  147.2460 C   0  0  0  0  0  3  0  0  0  0  0  0
  188.7700  177.6960  145.8990 C   0  0  0  0  0  0  0  0  0  0  0  0
  186.8840  178.2890  147.8290 N   0  0  0  0  0  0  0  0  0  0  0  0
  1  4  2  0  0  0  0
  1 10  1  0  0  0  0
  2  1  1  0  0  0  0
  3  5  1  0  0  0  0
  4 13  1  0  0  0  0
  5  2  1  0  0  0  0
  6  9  1  0  0  0  0
  6 21  1  0  0  0  0
  7 14  2  0  0  0  0
  8 11  2  0  0  0  0
  8  3  1  0  0  0  0
  9 12  1  0  0  0  0
 10  6  2  0  0  0  0
 11 16  1  0  0  0  0
 13  9  2  0  0  0  0
 13 12  1  0  0  0  0
 14 10  1  0  0  0  0
 15  2  2  0  0  0  0
 15  7  1  0  0  0  0
 16 15  1  0  0  0  0
 17 18  2  0  0  0  0
 19 17  1  0  0  0  0
 20 17  1  0  0  0  0
 20  4  1  0  0  0  0
 21 23  1  0  0  0  0
 23 22  1  6  0  0  0
 23 24  1  0  0  0  0
 24 30  1  0  0  0  0
 25 31  1  0  0  0  0
 27 25  1  0  0  0  0
 28 30  1  0  0  0  0
 28 25  2  0  0  0  0
 29 26  1  0  0  0  0
 30 29  2  0  0  0  0
 31 26  2  0  0  0  0
M  END
>  <MODEL>
4

>  <REMARK>
 VINA RESULT:      -9.0      3.080      8.527
  Name = 
  5 active torsions:
  status: ('A' for Active; 'I' for Inactive)
    1  A    between atoms: C_3  and  C_9
    2  A    between atoms: C_3  and  C_22
    3  A    between atoms: C_9  and  C_23
    4  A    between atoms: C_12  and  N_25
    5  A    between atoms: C_15  and  C_23
                            x       y       z     vdW  Elec       q    Type
                         _______ _______ _______ _____ _____    ______ ____

>  <TORSDO>
F 5

$$$$
=
 OpenBabel10272400193D

 31 35  0  0  1  0  0  0  0  0999 V2000
  188.3170  177.6800  143.3430 C   0  0  0  0  0  0  0  0  0  0  0  0
  188.9650  177.3170  144.5660 C   0  0  0  0  0  0  0  0  0  0  0  0
  188.7240  176.7750  147.1030 C   0  0  0  0  0  2  0  0  0  0  0  0
  186.9010  178.0590  143.3000 C   0  0  0  0  0  0  0  0  0  0  0  0
  188.2160  177.5130  145.8740 C   0  0  0  0  0  2  0  0  0  0  0  0
  188.6390  178.0320  140.8000 C   0  0  0  0  0  0  0  0  0  0  0  0
  191.0320  176.9220  143.3310 C   0  0  0  0  0  3  0  0  0  0  0  0
  189.9420  177.3960  147.5590 N   0  0  0  0  0  0  0  0  0  0  0  0
  187.3340  178.3750  140.8530 C   0  0  0  0  0  0  0  0  0  0  0  0
  189.1450  177.6660  142.1010 C   0  0  0  0  0  0  0  0  0  0  0  0
  191.0440  177.2450  146.9180 C   0  0  0  0  0  3  0  0  0  0  0  0
  185.9860  178.7500  140.7930 C   0  0  0  0  0  2  0  0  0  0  0  0
  186.5070  178.3880  142.0420 C   0  0  0  0  0  0  0  0  0  0  0  0
  190.4430  177.2920  142.1750 N   0  0  0  0  0  0  0  0  0  0  0  0
  190.3380  176.9290  144.5330 C   0  0  0  0  0  0  0  0  0  0  0  0
  191.1110  176.3810  145.6980 C   0  0  0  0  0  2  0  0  0  0  0  0
  184.9730  179.0030  144.7050 C   0  0  0  0  0  0  0  0  0  0  0  0
  184.7580  179.9790  143.9390 O   0  0  0  0  0  0  0  0  0  0  0  0
  184.1750  178.8410  145.8710 N   0  0  0  0  0  1  0  0  0  0  0  0
  186.0060  178.0510  144.4230 N   0  0  0  0  0  2  0  0  0  0  0  0
  189.4410  178.0200  139.5300 C   0  0  0  0  0  2  0  0  0  0  0  0
  189.0330  179.2520  137.3620 C   0  0  0  0  0  1  0  0  0  0  0  0
  188.5830  178.1150  138.2610 C   0  0  1  0  0  3  0  0  0  0  0  0
  188.5400  176.8070  137.4790 C   0  0  0  0  0  2  0  0  0  0  0  0
  185.5870  174.4750  137.1090 C   0  0  0  0  0  0  0  0  0  0  0  0
  184.7640  176.6930  137.3100 C   0  0  0  0  0  3  0  0  0  0  0  0
  185.3160  173.0220  136.9540 C   0  0  0  0  0  1  0  0  0  0  0  0
  186.9030  174.9320  137.2070 C   0  0  0  0  0  3  0  0  0  0  0  0
  186.0660  177.1900  137.4110 C   0  0  0  0  0  3  0  0  0  0  0  0
  187.1420  176.3010  137.3570 C   0  0  0  0  0  0  0  0  0  0  0  0
  184.5530  175.3580  137.1620 N   0  0  0  0  0  0  0  0  0  0  0  0
  1  2  2  0  0  0  0
  2  5  1  0  0  0  0
  3  8  1  0  0  0  0
  4  1  1  0  0  0  0
  4 20  1  0  0  0  0
  5  3  1  0  0  0  0
  6  9  2  0  0  0  0
  6 10  1  0  0  0  0
  7 15  2  0  0  0  0
  9 13  1  0  0  0  0
 10 14  2  0  0  0  0
 10  1  1  0  0  0  0
 11  8  2  0  0  0  0
 12  9  1  0  0  0  0
 12 13  1  0  0  0  0
 13  4  2  0  0  0  0
 14  7  1  0  0  0  0
 15  2  1  0  0  0  0
 15 16  1  0  0  0  0
 16 11  1  0  0  0  0
 17 19  1  0  0  0  0
 18 17  2  0  0  0  0
 20 17  1  0  0  0  0
 21  6  1  0  0  0  0
 23 22  1  6  0  0  0
 23 21  1  0  0  0  0
 24 23  1  0  0  0  0
 25 31  2  0  0  0  0
 25 28  1  0  0  0  0
 26 29  2  0  0  0  0
 27 25  1  0  0  0  0
 28 30  2  0  0  0  0
 30 29  1  0  0  0  0
 30 24  1  0  0  0  0
 31 26  1  0  0  0  0
M  END
>  <MODEL>
5

>  <REMARK>
 VINA RESULT:      -8.9      3.147      5.686
  Name = 
  5 active torsions:
  status: ('A' for Active; 'I' for Inactive)
    1  A    between atoms: C_3  and  C_9
    2  A    between atoms: C_3  and  C_22
    3  A    between atoms: C_9  and  C_23
    4  A    between atoms: C_12  and  N_25
    5  A    between atoms: C_15  and  C_23
                            x       y       z     vdW  Elec       q    Type
                         _______ _______ _______ _____ _____    ______ ____

>  <TORSDO>
F 5

$$$$
=
 OpenBabel10272400193D

 31 35  0  0  1  0  0  0  0  0999 V2000
  187.1130  178.0510  143.3280 C   0  0  0  0  0  0  0  0  0  0  0  0
  188.5040  177.7180  143.3490 C   0  0  0  0  0  0  0  0  0  0  0  0
  190.5260  176.8120  144.7200 C   0  0  0  0  0  2  0  0  0  0  0  0
  186.2980  178.0480  144.5480 C   0  0  0  0  0  0  0  0  0  0  0  0
  189.1920  177.5420  144.6930 C   0  0  0  0  0  2  0  0  0  0  0  0
  185.1370  178.7980  141.8340 C   0  0  0  0  0  0  0  0  0  0  0  0
  188.5980  178.0400  140.9320 C   0  0  0  0  0  3  0  0  0  0  0  0
  191.5460  177.6670  144.1670 N   0  0  0  0  0  0  0  0  0  0  0  0
  184.4640  178.7770  143.0050 C   0  0  0  0  0  0  0  0  0  0  0  0
  186.5160  178.4140  142.0090 C   0  0  0  0  0  0  0  0  0  0  0  0
  191.6070  177.8930  142.9040 C   0  0  0  0  0  3  0  0  0  0  0  0
  183.6710  178.7900  144.1600 C   0  0  0  0  0  2  0  0  0  0  0  0
  185.0160  178.4210  144.2960 C   0  0  0  0  0  0  0  0  0  0  0  0
  187.2940  178.3870  140.9010 N   0  0  0  0  0  0  0  0  0  0  0  0
  189.2330  177.7110  142.1220 C   0  0  0  0  0  0  0  0  0  0  0  0
  190.6490  177.2400  141.9580 C   0  0  0  0  0  2  0  0  0  0  0  0
  186.5860  178.3900  147.0740 C   0  0  0  0  0  0  0  0  0  0  0  0
  185.9760  179.4910  147.0980 O   0  0  0  0  0  0  0  0  0  0  0  0
  187.1110  177.8560  148.2830 N   0  0  0  0  0  1  0  0  0  0  0  0
  186.7590  177.6620  145.8520 N   0  0  0  0  0  2  0  0  0  0  0  0
  184.5030  179.1590  140.5210 C   0  0  0  0  0  2  0  0  0  0  0  0
  182.5380  177.6170  140.1400 C   0  0  0  0  0  1  0  0  0  0  0  0
  183.9670  177.9490  139.7460 C   0  0  1  0  0  3  0  0  0  0  0  0
  184.0710  178.1220  138.2350 C   0  0  0  0  0  2  0  0  0  0  0  0
  187.6900  177.8870  137.1660 C   0  0  0  0  0  0  0  0  0  0  0  0
  186.6880  175.7530  136.8800 C   0  0  0  0  0  3  0  0  0  0  0  0
  188.8920  178.7550  137.0720 C   0  0  0  0  0  1  0  0  0  0  0  0
  186.4840  178.4130  137.6340 C   0  0  0  0  0  3  0  0  0  0  0  0
  185.4640  176.2420  137.3430 C   0  0  0  0  0  3  0  0  0  0  0  0
  185.3630  177.5830  137.7210 C   0  0  0  0  0  0  0  0  0  0  0  0
  187.7660  176.5780  136.8010 N   0  0  0  0  0  0  0  0  0  0  0  0
  1  2  1  0  0  0  0
  1  4  1  0  0  0  0
  2  5  1  0  0  0  0
  4 20  1  0  0  0  0
  5  3  1  0  0  0  0
  6 10  1  0  0  0  0
  6  9  2  0  0  0  0
  7 15  1  0  0  0  0
  8  3  1  0  0  0  0
  9 12  1  0  0  0  0
  9 13  1  0  0  0  0
 10  1  2  0  0  0  0
 11  8  2  0  0  0  0
 12 13  1  0  0  0  0
 13  4  2  0  0  0  0
 14  7  2  0  0  0  0
 14 10  1  0  0  0  0
 15  2  2  0  0  0  0
 16 15  1  0  0  0  0
 16 11  1  0  0  0  0
 17 18  2  0  0  0  0
 17 19  1  0  0  0  0
 20 17  1  0  0  0  0
 21  6  1  0  0  0  0
 23 22  1  6  0  0  0
 23 21  1  0  0  0  0
 24 23  1  0  0  0  0
 25 28  1  0  0  0  0
 26 29  2  0  0  0  0
 27 25  1  0  0  0  0
 28 30  2  0  0  0  0
 29 30  1  0  0  0  0
 30 24  1  0  0  0  0
 31 26  1  0  0  0  0
 31 25  2  0  0  0  0
M  END
>  <MODEL>
6

>  <REMARK>
 VINA RESULT:      -8.9      2.892      5.227
  Name = 
  5 active torsions:
  status: ('A' for Active; 'I' for Inactive)
    1  A    between atoms: C_3  and  C_9
    2  A    between atoms: C_3  and  C_22
    3  A    between atoms: C_9  and  C_23
    4  A    between atoms: C_12  and  N_25
    5  A    between atoms: C_15  and  C_23
                            x       y       z     vdW  Elec       q    Type
                         _______ _______ _______ _____ _____    ______ ____

>  <TORSDO>
F 5

$$$$
=
 OpenBabel10272400193D

 31 35  0  0  1  0  0  0  0  0999 V2000
  187.5030  178.0170  142.8610 C   0  0  0  0  0  0  0  0  0  0  0  0
  186.4940  178.4080  143.7980 C   0  0  0  0  0  0  0  0  0  0  0  0
  185.7620  178.5840  146.2930 C   0  0  0  0  0  2  0  0  0  0  0  0
  188.6970  177.2730  143.2750 C   0  0  0  0  0  0  0  0  0  0  0  0
  186.5720  177.8730  145.2200 C   0  0  0  0  0  2  0  0  0  0  0  0
  188.2040  178.0450  140.3710 C   0  0  0  0  0  0  0  0  0  0  0  0
  185.2590  179.4840  141.9900 C   0  0  0  0  0  3  0  0  0  0  0  0
  184.3660  178.2730  146.1160 N   0  0  0  0  0  0  0  0  0  0  0  0
  189.2670  177.3540  140.8380 C   0  0  0  0  0  0  0  0  0  0  0  0
  187.2900  178.3920  141.4330 C   0  0  0  0  0  0  0  0  0  0  0  0
  183.6890  178.7880  145.1550 C   0  0  0  0  0  3  0  0  0  0  0  0
  190.4090  176.6350  141.2110 C   0  0  0  0  0  2  0  0  0  0  0  0
  189.5020  176.9870  142.2190 C   0  0  0  0  0  0  0  0  0  0  0  0
  186.1870  179.0960  141.0900 N   0  0  0  0  0  0  0  0  0  0  0  0
  185.3720  179.1570  143.3340 C   0  0  0  0  0  0  0  0  0  0  0  0
  184.3150  179.7660  144.2100 C   0  0  0  0  0  2  0  0  0  0  0  0
  190.1890  177.3050  145.3630 C   0  0  0  0  0  0  0  0  0  0  0  0
  191.0700  178.0400  144.8460 O   0  0  0  0  0  0  0  0  0  0  0  0
  190.3520  176.8550  146.7020 N   0  0  0  0  0  1  0  0  0  0  0  0
  189.0230  176.9140  144.6270 N   0  0  0  0  0  2  0  0  0  0  0  0
  188.0260  178.4140  138.9260 C   0  0  0  0  0  2  0  0  0  0  0  0
  186.0400  177.4740  137.6790 C   0  0  0  0  0  1  0  0  0  0  0  0
  187.4940  177.2630  138.0610 C   0  0  1  0  0  3  0  0  0  0  0  0
  188.3390  177.0230  136.8150 C   0  0  0  0  0  2  0  0  0  0  0  0
  191.7960  175.8410  137.7830 C   0  0  0  0  0  0  0  0  0  0  0  0
  190.4520  173.9330  137.3460 C   0  0  0  0  0  3  0  0  0  0  0  0
  193.1070  176.4130  138.1870 C   0  0  0  0  0  1  0  0  0  0  0  0
  190.7260  176.6890  137.4900 C   0  0  0  0  0  3  0  0  0  0  0  0
  189.3570  174.7470  137.0450 C   0  0  0  0  0  3  0  0  0  0  0  0
  189.4990  176.1350  137.1160 C   0  0  0  0  0  0  0  0  0  0  0  0
  191.6380  174.4910  137.7060 N   0  0  0  0  0  0  0  0  0  0  0  0
  1  4  1  0  0  0  0
  1  2  2  0  0  0  0
  2  5  1  0  0  0  0
  4 20  1  0  0  0  0
  5  3  1  0  0  0  0
  6  9  2  0  0  0  0
  6 10  1  0  0  0  0
  7 15  2  0  0  0  0
  8  3  1  0  0  0  0
  9 12  1  0  0  0  0
  9 13  1  0  0  0  0
 10  1  1  0  0  0  0
 11  8  2  0  0  0  0
 12 13  1  0  0  0  0
 13  4  2  0  0  0  0
 14 10  2  0  0  0  0
 14  7  1  0  0  0  0
 15  2  1  0  0  0  0
 15 16  1  0  0  0  0
 16 11  1  0  0  0  0
 17 19  1  0  0  0  0
 18 17  2  0  0  0  0
 20 17  1  0  0  0  0
 21  6  1  0  0  0  0
 23 22  1  6  0  0  0
 23 21  1  0  0  0  0
 24 30  1  0  0  0  0
 24 23  1  0  0  0  0
 25 27  1  0  0  0  0
 26 31  2  0  0  0  0
 28 25  2  0  0  0  0
 29 30  2  0  0  0  0
 29 26  1  0  0  0  0
 30 28  1  0  0  0  0
 31 25  1  0  0  0  0
M  END
>  <MODEL>
7

>  <REMARK>
 VINA RESULT:      -8.7      3.254      7.081
  Name = 
  5 active torsions:
  status: ('A' for Active; 'I' for Inactive)
    1  A    between atoms: C_3  and  C_9
    2  A    between atoms: C_3  and  C_22
    3  A    between atoms: C_9  and  C_23
    4  A    between atoms: C_12  and  N_25
    5  A    between atoms: C_15  and  C_23
                            x       y       z     vdW  Elec       q    Type
                         _______ _______ _______ _____ _____    ______ ____

>  <TORSDO>
F 5

$$$$
=
 OpenBabel10272400193D

 31 35  0  0  1  0  0  0  0  0999 V2000
  187.3500  177.8210  143.7500 C   0  0  0  0  0  0  0  0  0  0  0  0
  188.4240  177.4680  142.8730 C   0  0  0  0  0  0  0  0  0  0  0  0
  190.6900  176.2190  142.5670 C   0  0  0  0  0  2  0  0  0  0  0  0
  187.3990  177.5350  145.1880 C   0  0  0  0  0  0  0  0  0  0  0  0
  189.7220  176.9570  143.4780 C   0  0  0  0  0  2  0  0  0  0  0  0
  185.0240  178.9440  143.9040 C   0  0  0  0  0  0  0  0  0  0  0  0
  187.1580  178.3670  140.9910 C   0  0  0  0  0  3  0  0  0  0  0  0
  191.3250  177.1650  141.6840 N   0  0  0  0  0  0  0  0  0  0  0  0
  185.1570  178.6510  145.2160 C   0  0  0  0  0  0  0  0  0  0  0  0
  186.1700  178.5040  143.1450 C   0  0  0  0  0  0  0  0  0  0  0  0
  190.6830  177.6910  140.7040 C   0  0  0  0  0  3  0  0  0  0  0  0
  185.1880  178.3950  146.5920 C   0  0  0  0  0  2  0  0  0  0  0  0
  186.2860  177.9810  145.8270 C   0  0  0  0  0  0  0  0  0  0  0  0
  186.1500  178.7340  141.8110 N   0  0  0  0  0  0  0  0  0  0  0  0
  188.3000  177.7470  141.4790 C   0  0  0  0  0  0  0  0  0  0  0  0
  189.2660  177.3050  140.4180 C   0  0  0  0  0  2  0  0  0  0  0  0
  189.1650  177.2630  147.0300 C   0  0  0  0  0  0  0  0  0  0  0  0
  188.8900  178.3540  147.5950 O   0  0  0  0  0  0  0  0  0  0  0  0
  190.1930  176.4390  147.5640 N   0  0  0  0  0  1  0  0  0  0  0  0
  188.4590  176.8350  145.8580 N   0  0  0  0  0  2  0  0  0  0  0  0
  183.8170  179.6250  143.3250 C   0  0  0  0  0  2  0  0  0  0  0  0
  181.6530  178.5580  144.0750 C   0  0  0  0  0  1  0  0  0  0  0  0
  182.6820  178.6580  142.9630 C   0  0  1  0  0  3  0  0  0  0  0  0
  182.0040  179.0130  141.6440 C   0  0  0  0  0  2  0  0  0  0  0  0
  183.9680  177.6100  138.7350 C   0  0  0  0  0  0  0  0  0  0  0  0
  182.2640  176.0560  139.3030 C   0  0  0  0  0  3  0  0  0  0  0  0
  185.1260  177.9780  137.8800 C   0  0  0  0  0  1  0  0  0  0  0  0
  183.5460  178.4740  139.7480 C   0  0  0  0  0  3  0  0  0  0  0  0
  181.8120  176.8930  140.3260 C   0  0  0  0  0  3  0  0  0  0  0  0
  182.4580  178.1120  140.5470 C   0  0  0  0  0  0  0  0  0  0  0  0
  183.3230  176.4280  138.5350 N   0  0  0  0  0  0  0  0  0  0  0  0
  1  4  1  0  0  0  0
  2  5  1  0  0  0  0
  2  1  1  0  0  0  0
  3  5  1  0  0  0  0
  4 13  2  0  0  0  0
  4 20  1  0  0  0  0
  6  9  2  0  0  0  0
  7 15  1  0  0  0  0
  7 14  2  0  0  0  0
  8  3  1  0  0  0  0
  9 13  1  0  0  0  0
  9 12  1  0  0  0  0
 10  1  2  0  0  0  0
 10  6  1  0  0  0  0
 11  8  2  0  0  0  0
 13 12  1  0  0  0  0
 14 10  1  0  0  0  0
 15  2  2  0  0  0  0
 16 11  1  0  0  0  0
 16 15  1  0  0  0  0
 17 19  1  0  0  0  0
 17 18  2  0  0  0  0
 20 17  1  0  0  0  0
 21  6  1  0  0  0  0
 23 21  1  0  0  0  0
 23 22  1  1  0  0  0
 24 23  1  0  0  0  0
 25 28  1  0  0  0  0
 26 29  2  0  0  0  0
 27 25  1  0  0  0  0
 28 30  2  0  0  0  0
 29 30  1  0  0  0  0
 30 24  1  0  0  0  0
 31 25  2  0  0  0  0
 31 26  1  0  0  0  0
M  END
>  <MODEL>
8

>  <REMARK>
 VINA RESULT:      -8.6      2.132      4.330
  Name = 
  5 active torsions:
  status: ('A' for Active; 'I' for Inactive)
    1  A    between atoms: C_3  and  C_9
    2  A    between atoms: C_3  and  C_22
    3  A    between atoms: C_9  and  C_23
    4  A    between atoms: C_12  and  N_25
    5  A    between atoms: C_15  and  C_23
                            x       y       z     vdW  Elec       q    Type
                         _______ _______ _______ _____ _____    ______ ____

>  <TORSDO>
F 5

$$$$
=
 OpenBabel10272400193D

 31 35  0  0  1  0  0  0  0  0999 V2000
  187.1230  178.0290  143.2340 C   0  0  0  0  0  0  0  0  0  0  0  0
  188.5100  177.6790  143.2020 C   0  0  0  0  0  0  0  0  0  0  0  0
  190.5710  176.7490  144.4960 C   0  0  0  0  0  2  0  0  0  0  0  0
  186.3550  178.0360  144.4840 C   0  0  0  0  0  0  0  0  0  0  0  0
  189.2470  177.4950  144.5200 C   0  0  0  0  0  2  0  0  0  0  0  0
  185.1000  178.8000  141.8170 C   0  0  0  0  0  0  0  0  0  0  0  0
  188.5150  177.9990  140.7830 C   0  0  0  0  0  3  0  0  0  0  0  0
  191.5800  177.5910  143.9030 N   0  0  0  0  0  0  0  0  0  0  0  0
  184.4730  178.7870  143.0120 C   0  0  0  0  0  0  0  0  0  0  0  0
  186.4810  178.3980  141.9390 C   0  0  0  0  0  0  0  0  0  0  0  0
  191.5960  177.8170  142.6400 C   0  0  0  0  0  3  0  0  0  0  0  0
  183.7250  178.8090  144.1960 C   0  0  0  0  0  2  0  0  0  0  0  0
  185.0690  178.4240  144.2810 C   0  0  0  0  0  0  0  0  0  0  0  0
  187.2150  178.3620  140.8020 N   0  0  0  0  0  0  0  0  0  0  0  0
  189.1910  177.6630  141.9480 C   0  0  0  0  0  0  0  0  0  0  0  0
  190.5950  177.1750  141.7310 C   0  0  0  0  0  2  0  0  0  0  0  0
  186.6190  178.2970  147.0230 C   0  0  0  0  0  0  0  0  0  0  0  0
  185.8980  179.3260  147.0940 O   0  0  0  0  0  0  0  0  0  0  0  0
  187.2030  177.7700  148.2070 N   0  0  0  0  0  1  0  0  0  0  0  0
  186.8610  177.6440  145.7700 N   0  0  0  0  0  2  0  0  0  0  0  0
  184.4220  179.1680  140.5280 C   0  0  0  0  0  2  0  0  0  0  0  0
  182.3880  177.6890  140.2810 C   0  0  0  0  0  1  0  0  0  0  0  0
  183.8000  177.9700  139.7980 C   0  0  1  0  0  3  0  0  0  0  0  0
  183.8180  178.1290  138.2820 C   0  0  0  0  0  2  0  0  0  0  0  0
  185.9070  175.3940  136.7170 C   0  0  0  0  0  0  0  0  0  0  0  0
  187.2490  177.3450  136.8980 C   0  0  0  0  0  3  0  0  0  0  0  0
  185.7680  173.9760  136.2980 C   0  0  0  0  0  1  0  0  0  0  0  0
  184.8240  176.0600  137.2940 C   0  0  0  0  0  3  0  0  0  0  0  0
  186.1890  178.0460  137.4790 C   0  0  0  0  0  3  0  0  0  0  0  0
  184.9690  177.3950  137.6790 C   0  0  0  0  0  0  0  0  0  0  0  0
  187.0880  176.0450  136.5330 N   0  0  0  0  0  0  0  0  0  0  0  0
  1  4  1  0  0  0  0
  2  1  1  0  0  0  0
  2  5  1  0  0  0  0
  3  5  1  0  0  0  0
  4 20  1  0  0  0  0
  6 10  1  0  0  0  0
  6  9  2  0  0  0  0
  7 14  2  0  0  0  0
  7 15  1  0  0  0  0
  8  3  1  0  0  0  0
  9 12  1  0  0  0  0
  9 13  1  0  0  0  0
 10  1  2  0  0  0  0
 11  8  2  0  0  0  0
 12 13  1  0  0  0  0
 13  4  2  0  0  0  0
 14 10  1  0  0  0  0
 15  2  2  0  0  0  0
 16 15  1  0  0  0  0
 16 11  1  0  0  0  0
 17 18  2  0  0  0  0
 17 19  1  0  0  0  0
 20 17  1  0  0  0  0
 21  6  1  0  0  0  0
 23 22  1  1  0  0  0
 23 21  1  0  0  0  0
 24 23  1  0  0  0  0
 25 28  1  0  0  0  0
 26 29  2  0  0  0  0
 27 25  1  0  0  0  0
 28 30  2  0  0  0  0
 29 30  1  0  0  0  0
 30 24  1  0  0  0  0
 31 25  2  0  0  0  0
 31 26  1  0  0  0  0
M  END
>  <MODEL>
9

>  <REMARK>
 VINA RESULT:      -8.6      3.056      4.963
  Name = 
  5 active torsions:
  status: ('A' for Active; 'I' for Inactive)
    1  A    between atoms: C_3  and  C_9
    2  A    between atoms: C_3  and  C_22
    3  A    between atoms: C_9  and  C_23
    4  A    between atoms: C_12  and  N_25
    5  A    between atoms: C_15  and  C_23
                            x       y       z     vdW  Elec       q    Type
                         _______ _______ _______ _____ _____    ______ ____

>  <TORSDO>
F 5

$$$$
