=
 OpenBabel10272413433D

 30 36  0  0  1  0  0  0  0  0999 V2000
  190.1230  177.2920  145.0980 C   0  0  0  0  0  0  0  0  0  0  0  0
  191.2050  176.5180  145.0610 C   0  0  0  0  0  3  0  0  0  0  0  0
  190.1550  178.4980  145.7890 O   0  0  0  0  0  1  0  0  0  0  0  0
  189.2790  176.3620  142.9400 C   0  0  2  0  0  3  0  0  0  0  0  0
  191.1510  175.1960  144.3500 C   0  0  0  0  0  2  0  0  0  0  0  0
  188.8880  176.8400  144.3650 C   0  0  2  0  0  3  0  0  0  0  0  0
  190.3780  175.2690  143.0180 C   0  0  0  0  0  2  0  0  0  0  0  0
  187.8580  177.8740  144.3550 N   0  0  2  0  0  0  0  0  0  0  0  0
  186.6560  177.3000  144.9840 C   0  0  2  0  0  3  0  0  0  0  0  0
  186.7540  177.3860  143.5080 C   0  0  1  0  0  3  0  0  0  0  0  0
  183.5740  178.4480  142.6420 N   0  0  0  0  0  0  0  0  0  0  0  0
  184.6850  178.8120  143.4880 C   0  0  1  0  0  0  0  0  0  0  0  0
  185.7170  178.2010  141.1080 S   0  0  0  0  0  0  0  0  0  0  0  0
  186.0510  178.5850  142.8620 C   0  0  2  0  0  3  0  0  0  0  0  0
  184.4660  180.0240  144.3520 C   0  0  0  0  0  2  0  0  0  0  0  0
  183.0210  177.7080  140.4710 N   0  0  0  0  0  1  0  0  0  0  0  0
  183.9570  178.1280  141.4550 C   0  0  0  0  0  0  0  0  0  0  0  0
  185.8520  178.4210  145.6530 C   0  0  0  0  0  2  0  0  0  0  0  0
  184.4980  178.6260  144.9780 C   0  0  2  0  0  3  0  0  0  0  0  0
  191.8910  177.3050  140.3400 S   0  0  0  0  0  0  0  0  0  0  0  0
  190.2490  177.1710  139.5590 C   0  0  1  0  0  3  0  0  0  0  0  0
  191.1710  177.7120  141.9140 C   0  0  0  0  0  0  0  0  0  0  0  0
  189.1430  177.2970  140.5950 C   0  0  2  0  0  3  0  0  0  0  0  0
  191.7520  178.6450  142.6620 C   0  0  0  0  0  2  0  0  0  0  0  0
  189.4670  178.4680  139.6830 C   0  0  2  0  0  3  0  0  0  0  0  0
  189.6910  177.5280  142.0060 C   0  0  1  0  0  3  0  0  0  0  0  0
  188.4270  178.5350  138.5800 C   0  0  0  0  0  2  0  0  0  0  0  0
  189.0670  178.9540  137.2640 C   0  0  0  0  0  2  0  0  0  0  0  0
  188.7780  177.9480  136.1590 C   0  0  0  0  0  2  0  0  0  0  0  0
  187.8330  176.8710  136.6570 C   0  0  0  0  0  1  0  0  0  0  0  0
  1  3  1  0  0  0  0
  2  1  2  0  0  0  0
  4  7  1  1  0  0  0
  4  6  1  0  0  0  0
  5  2  1  0  0  0  0
  6  1  1  6  0  0  0
  7  5  1  0  0  0  0
  8  6  1  6  0  0  0
  8  9  1  0  0  0  0
  9 18  1  1  0  0  0
 10  8  1  0  0  0  0
 10  9  1  0  0  0  0
 11 12  1  0  0  0  0
 12 15  1  0  0  0  0
 12 19  1  0  0  0  0
 13 17  1  0  0  0  0
 13 14  1  0  0  0  0
 14 12  1  0  0  0  0
 14 10  1  0  0  0  0
 15 19  1  0  0  0  0
 16 17  1  0  0  0  0
 17 11  2  0  0  0  0
 19 18  1  0  0  0  0
 20 22  1  0  0  0  0
 21 25  1  0  0  0  0
 21 20  1  0  0  0  0
 21 23  1  0  0  0  0
 22 26  1  0  0  0  0
 22 24  2  0  0  0  0
 23 26  1  0  0  0  0
 25 23  1  0  0  0  0
 26  4  1  0  0  0  0
 27 25  1  0  0  0  0
 28 27  1  0  0  0  0
 29 30  1  0  0  0  0
 29 28  1  0  0  0  0
M  END
>  <MODEL>
1

>  <REMARK>
 VINA RESULT:      -6.6      0.000      0.000
  Name = 
  5 active torsions:
  status: ('A' for Active; 'I' for Inactive)
    1  A    between atoms: N_1  and  C_22
    2  A    between atoms: C_7  and  C_15
    3  A    between atoms: C_15  and  C_16
    4  A    between atoms: C_16  and  C_25
    5  A    between atoms: C_19  and  C_29
                            x       y       z     vdW  Elec       q    Type
                         _______ _______ _______ _____ _____    ______ ____

>  <TORSDO>
F 5

$$$$
=
 OpenBabel10272413433D

 30 36  0  0  1  0  0  0  0  0999 V2000
  187.6220  175.7680  135.8440 C   0  0  0  0  0  0  0  0  0  0  0  0
  188.7330  175.9380  135.1310 C   0  0  0  0  0  3  0  0  0  0  0  0
  187.0280  174.5130  135.9160 O   0  0  0  0  0  1  0  0  0  0  0  0
  188.1800  177.6930  137.3320 C   0  0  2  0  0  3  0  0  0  0  0  0
  189.3450  177.3040  135.0210 C   0  0  0  0  0  2  0  0  0  0  0  0
  187.0450  176.9520  136.5750 C   0  0  2  0  0  3  0  0  0  0  0  0
  189.3240  178.0750  136.3570 C   0  0  0  0  0  2  0  0  0  0  0  0
  185.9400  176.5630  137.4440 N   0  0  2  0  0  0  0  0  0  0  0  0
  184.7460  176.4180  136.5940 C   0  0  2  0  0  3  0  0  0  0  0  0
  184.9420  177.6470  137.3970 C   0  0  1  0  0  3  0  0  0  0  0  0
  181.7580  178.2070  138.6370 N   0  0  0  0  0  0  0  0  0  0  0  0
  182.7730  177.1840  138.5770 C   0  0  1  0  0  0  0  0  0  0  0  0
  184.0180  179.4410  139.2490 S   0  0  0  0  0  0  0  0  0  0  0  0
  184.1930  177.6990  138.7340 C   0  0  2  0  0  3  0  0  0  0  0  0
  182.3960  175.8670  139.2010 C   0  0  0  0  0  2  0  0  0  0  0  0
  181.4230  180.5080  139.0390 N   0  0  0  0  0  1  0  0  0  0  0  0
  182.2500  179.3540  138.9540 C   0  0  0  0  0  0  0  0  0  0  0  0
  183.8090  175.3750  137.2140 C   0  0  0  0  0  2  0  0  0  0  0  0
  182.4940  175.9980  137.6780 C   0  0  2  0  0  3  0  0  0  0  0  0
  191.2170  177.4030  139.6050 S   0  0  0  0  0  0  0  0  0  0  0  0
  189.7890  178.0340  140.5460 C   0  0  1  0  0  3  0  0  0  0  0  0
  190.1570  176.5580  138.4540 C   0  0  0  0  0  0  0  0  0  0  0  0
  188.4840  177.6970  139.8430 C   0  0  2  0  0  3  0  0  0  0  0  0
  190.5070  175.3460  138.0310 C   0  0  0  0  0  2  0  0  0  0  0  0
  188.9190  176.9020  141.0620 C   0  0  2  0  0  3  0  0  0  0  0  0
  188.7050  176.8980  138.5550 C   0  0  1  0  0  3  0  0  0  0  0  0
  188.1330  177.3820  142.2680 C   0  0  0  0  0  2  0  0  0  0  0  0
  188.3210  176.4320  143.4430 C   0  0  0  0  0  2  0  0  0  0  0  0
  188.2900  177.1750  144.7700 C   0  0  0  0  0  2  0  0  0  0  0  0
  186.8590  177.4700  145.1790 C   0  0  0  0  0  1  0  0  0  0  0  0
  1  3  1  0  0  0  0
  2  1  2  0  0  0  0
  4  7  1  6  0  0  0
  4 26  1  0  0  0  0
  5  2  1  0  0  0  0
  5  7  1  0  0  0  0
  6  1  1  1  0  0  0
  6  4  1  0  0  0  0
  8  6  1  6  0  0  0
  9 18  1  1  0  0  0
  9 10  1  0  0  0  0
  9  8  1  0  0  0  0
 10  8  1  0  0  0  0
 10 14  1  0  0  0  0
 11 17  2  0  0  0  0
 12 11  1  0  0  0  0
 12 14  1  0  0  0  0
 12 15  1  0  0  0  0
 14 13  1  0  0  0  0
 17 16  1  0  0  0  0
 17 13  1  0  0  0  0
 18 19  1  0  0  0  0
 19 12  1  0  0  0  0
 19 15  1  0  0  0  0
 20 21  1  0  0  0  0
 21 25  1  0  0  0  0
 22 26  1  0  0  0  0
 22 20  1  0  0  0  0
 23 21  1  0  0  0  0
 23 25  1  0  0  0  0
 24 22  2  0  0  0  0
 25 27  1  0  0  0  0
 26 23  1  0  0  0  0
 27 28  1  0  0  0  0
 28 29  1  0  0  0  0
 29 30  1  0  0  0  0
M  END
>  <MODEL>
2

>  <REMARK>
 VINA RESULT:      -6.3      3.219      6.623
  Name = 
  5 active torsions:
  status: ('A' for Active; 'I' for Inactive)
    1  A    between atoms: N_1  and  C_22
    2  A    between atoms: C_7  and  C_15
    3  A    between atoms: C_15  and  C_16
    4  A    between atoms: C_16  and  C_25
    5  A    between atoms: C_19  and  C_29
                            x       y       z     vdW  Elec       q    Type
                         _______ _______ _______ _____ _____    ______ ____

>  <TORSDO>
F 5

$$$$
=
 OpenBabel10272413433D

 30 36  0  0  1  0  0  0  0  0999 V2000
  187.4950  177.3680  136.7660 C   0  0  0  0  0  0  0  0  0  0  0  0
  188.6330  177.8160  136.2400 C   0  0  0  0  0  3  0  0  0  0  0  0
  186.9430  176.1750  136.3130 O   0  0  0  0  0  1  0  0  0  0  0  0
  187.9120  178.5730  138.9120 C   0  0  2  0  0  3  0  0  0  0  0  0
  189.2010  179.1270  136.7030 C   0  0  0  0  0  2  0  0  0  0  0  0
  186.8420  178.1680  137.8620 C   0  0  2  0  0  3  0  0  0  0  0  0
  189.0880  179.3190  138.2280 C   0  0  0  0  0  2  0  0  0  0  0  0
  185.7100  177.4580  138.4480 N   0  0  2  0  0  0  0  0  0  0  0  0
  184.4860  178.1540  138.0150 C   0  0  2  0  0  3  0  0  0  0  0  0
  185.0370  178.3890  139.3710 C   0  0  1  0  0  3  0  0  0  0  0  0
  182.1720  178.3910  141.3160 N   0  0  0  0  0  0  0  0  0  0  0  0
  182.8740  177.5740  140.3550 C   0  0  1  0  0  0  0  0  0  0  0  0
  184.7030  178.4390  142.0890 S   0  0  0  0  0  0  0  0  0  0  0  0
  184.3850  177.5890  140.5050 C   0  0  2  0  0  3  0  0  0  0  0  0
  182.1860  176.2900  139.9790 C   0  0  0  0  0  2  0  0  0  0  0  0
  182.4800  179.7280  143.2350 N   0  0  0  0  0  1  0  0  0  0  0  0
  182.9650  178.8700  142.2100 C   0  0  0  0  0  0  0  0  0  0  0  0
  183.3320  177.1470  137.9450 C   0  0  0  0  0  2  0  0  0  0  0  0
  182.2520  177.4510  138.9810 C   0  0  2  0  0  3  0  0  0  0  0  0
  190.9570  177.3490  140.8370 S   0  0  0  0  0  0  0  0  0  0  0  0
  189.5820  177.6820  141.9870 C   0  0  1  0  0  3  0  0  0  0  0  0
  189.8330  177.0170  139.4990 C   0  0  0  0  0  0  0  0  0  0  0  0
  188.2490  177.6790  141.2540 C   0  0  2  0  0  3  0  0  0  0  0  0
  190.1040  176.0150  138.6680 C   0  0  0  0  0  2  0  0  0  0  0  0
  188.6520  176.4860  142.1020 C   0  0  2  0  0  3  0  0  0  0  0  0
  188.4060  177.3740  139.7620 C   0  0  1  0  0  3  0  0  0  0  0  0
  187.9130  176.5520  143.4260 C   0  0  0  0  0  2  0  0  0  0  0  0
  188.4990  177.6400  144.3140 C   0  0  0  0  0  2  0  0  0  0  0  0
  187.8670  177.6300  145.6980 C   0  0  0  0  0  2  0  0  0  0  0  0
  186.3590  177.7590  145.5930 C   0  0  0  0  0  1  0  0  0  0  0  0
  2  5  1  0  0  0  0
  2  1  2  0  0  0  0
  3  1  1  0  0  0  0
  4  7  1  6  0  0  0
  4 26  1  0  0  0  0
  5  7  1  0  0  0  0
  6  1  1  6  0  0  0
  6  4  1  0  0  0  0
  8  6  1  6  0  0  0
  8 10  1  0  0  0  0
  9 18  1  1  0  0  0
  9  8  1  0  0  0  0
  9 10  1  0  0  0  0
 10 14  1  0  0  0  0
 11 17  2  0  0  0  0
 12 14  1  0  0  0  0
 12 11  1  0  0  0  0
 13 17  1  0  0  0  0
 14 13  1  0  0  0  0
 15 12  1  0  0  0  0
 17 16  1  0  0  0  0
 18 19  1  0  0  0  0
 19 15  1  0  0  0  0
 19 12  1  0  0  0  0
 20 21  1  0  0  0  0
 21 25  1  0  0  0  0
 22 26  1  0  0  0  0
 22 20  1  0  0  0  0
 23 21  1  0  0  0  0
 23 25  1  0  0  0  0
 24 22  2  0  0  0  0
 25 27  1  0  0  0  0
 26 23  1  0  0  0  0
 27 28  1  0  0  0  0
 28 29  1  0  0  0  0
 30 29  1  0  0  0  0
M  END
>  <MODEL>
3

>  <REMARK>
 VINA RESULT:      -6.2      2.730      5.996
  Name = 
  5 active torsions:
  status: ('A' for Active; 'I' for Inactive)
    1  A    between atoms: N_1  and  C_22
    2  A    between atoms: C_7  and  C_15
    3  A    between atoms: C_15  and  C_16
    4  A    between atoms: C_16  and  C_25
    5  A    between atoms: C_19  and  C_29
                            x       y       z     vdW  Elec       q    Type
                         _______ _______ _______ _____ _____    ______ ____

>  <TORSDO>
F 5

$$$$
=
 OpenBabel10272413433D

 30 36  0  0  1  0  0  0  0  0999 V2000
  182.4350  178.7350  141.8750 C   0  0  0  0  0  0  0  0  0  0  0  0
  181.1670  179.1310  141.7900 C   0  0  0  0  0  3  0  0  0  0  0  0
  182.8900  178.1050  143.0280 O   0  0  0  0  0  1  0  0  0  0  0  0
  182.6260  178.5250  139.3950 C   0  0  2  0  0  3  0  0  0  0  0  0
  180.6930  179.8500  140.5610 C   0  0  0  0  0  2  0  0  0  0  0  0
  183.3450  178.9680  140.6990 C   0  0  2  0  0  3  0  0  0  0  0  0
  181.2560  179.2410  139.2610 C   0  0  0  0  0  2  0  0  0  0  0  0
  184.6400  178.3230  140.8810 N   0  0  2  0  0  0  0  0  0  0  0  0
  185.5810  179.3560  141.3480 C   0  0  2  0  0  3  0  0  0  0  0  0
  185.5770  178.9410  139.9260 C   0  0  1  0  0  3  0  0  0  0  0  0
  188.9640  178.7550  139.2270 N   0  0  0  0  0  0  0  0  0  0  0  0
  187.9820  178.2490  140.1560 C   0  0  1  0  0  0  0  0  0  0  0  0
  186.9160  178.0070  137.7260 S   0  0  0  0  0  0  0  0  0  0  0  0
  186.6410  177.9100  139.5280 C   0  0  2  0  0  3  0  0  0  0  0  0
  188.5240  177.3700  141.2500 C   0  0  0  0  0  2  0  0  0  0  0  0
  189.3570  179.1630  136.9370 N   0  0  0  0  0  1  0  0  0  0  0  0
  188.5520  178.6880  138.0090 C   0  0  0  0  0  0  0  0  0  0  0  0
  186.6600  178.7010  142.2180 C   0  0  0  0  0  2  0  0  0  0  0  0
  188.0400  178.7870  141.5700 C   0  0  2  0  0  3  0  0  0  0  0  0
  180.7420  175.8500  137.4530 S   0  0  0  0  0  0  0  0  0  0  0  0
  182.5180  175.7860  137.0460 C   0  0  1  0  0  3  0  0  0  0  0  0
  181.0770  176.5390  139.0580 C   0  0  0  0  0  0  0  0  0  0  0  0
  183.3480  176.4580  138.1280 C   0  0  2  0  0  3  0  0  0  0  0  0
  180.3640  176.1170  140.0980 C   0  0  0  0  0  2  0  0  0  0  0  0
  183.2870  174.9430  138.0490 C   0  0  2  0  0  3  0  0  0  0  0  0
  182.4860  176.9850  139.2790 C   0  0  1  0  0  3  0  0  0  0  0  0
  184.5630  174.4340  137.4020 C   0  0  0  0  0  2  0  0  0  0  0  0
  184.7730  172.9600  137.7210 C   0  0  0  0  0  2  0  0  0  0  0  0
  184.4950  172.0840  136.5080 C   0  0  0  0  0  2  0  0  0  0  0  0
  183.3530  171.1280  136.7950 C   0  0  0  0  0  1  0  0  0  0  0  0
  1  3  1  0  0  0  0
  2  1  2  0  0  0  0
  4  7  1  1  0  0  0
  4  6  1  0  0  0  0
  5  2  1  0  0  0  0
  6  1  1  1  0  0  0
  7  5  1  0  0  0  0
  8  6  1  6  0  0  0
  8  9  1  0  0  0  0
  9 18  1  1  0  0  0
 10  8  1  0  0  0  0
 10  9  1  0  0  0  0
 11 12  1  0  0  0  0
 12 15  1  0  0  0  0
 12 19  1  0  0  0  0
 13 17  1  0  0  0  0
 13 14  1  0  0  0  0
 14 10  1  0  0  0  0
 14 12  1  0  0  0  0
 15 19  1  0  0  0  0
 16 17  1  0  0  0  0
 17 11  2  0  0  0  0
 19 18  1  0  0  0  0
 20 22  1  0  0  0  0
 21 20  1  0  0  0  0
 21 25  1  0  0  0  0
 21 23  1  0  0  0  0
 22 26  1  0  0  0  0
 22 24  2  0  0  0  0
 23 26  1  0  0  0  0
 25 23  1  0  0  0  0
 26  4  1  0  0  0  0
 27 28  1  0  0  0  0
 27 25  1  0  0  0  0
 29 30  1  0  0  0  0
 29 28  1  0  0  0  0
M  END
>  <MODEL>
4

>  <REMARK>
 VINA RESULT:      -5.9      4.122      7.586
  Name = 
  5 active torsions:
  status: ('A' for Active; 'I' for Inactive)
    1  A    between atoms: N_1  and  C_22
    2  A    between atoms: C_7  and  C_15
    3  A    between atoms: C_15  and  C_16
    4  A    between atoms: C_16  and  C_25
    5  A    between atoms: C_19  and  C_29
                            x       y       z     vdW  Elec       q    Type
                         _______ _______ _______ _____ _____    ______ ____

>  <TORSDO>
F 5

$$$$
=
 OpenBabel10272413433D

 30 36  0  0  1  0  0  0  0  0999 V2000
  190.4980  176.4320  143.1400 C   0  0  0  0  0  0  0  0  0  0  0  0
  190.7360  176.9480  144.3430 C   0  0  0  0  0  3  0  0  0  0  0  0
  190.5170  175.0530  142.9590 O   0  0  0  0  0  1  0  0  0  0  0  0
  189.1470  178.4170  142.4600 C   0  0  2  0  0  3  0  0  0  0  0  0
  190.7580  178.4390  144.5220 C   0  0  0  0  0  2  0  0  0  0  0  0
  190.1940  177.3670  142.0000 C   0  0  2  0  0  3  0  0  0  0  0  0
  189.6370  179.1490  143.7370 C   0  0  0  0  0  2  0  0  0  0  0  0
  189.7850  176.6430  140.8010 N   0  0  2  0  0  0  0  0  0  0  0  0
  190.7680  176.9510  139.7480 C   0  0  2  0  0  3  0  0  0  0  0  0
  189.4600  177.6460  139.7710 C   0  0  1  0  0  3  0  0  0  0  0  0
  188.5860  177.6360  136.4210 N   0  0  0  0  0  0  0  0  0  0  0  0
  188.9740  176.7370  137.4800 C   0  0  1  0  0  0  0  0  0  0  0  0
  187.1390  178.3700  138.5110 S   0  0  0  0  0  0  0  0  0  0  0  0
  188.3850  177.0770  138.8380 C   0  0  2  0  0  3  0  0  0  0  0  0
  189.1100  175.2930  137.0790 C   0  0  0  0  0  2  0  0  0  0  0  0
  187.1980  179.4780  135.9250 N   0  0  0  0  0  1  0  0  0  0  0  0
  187.6960  178.4810  136.8080 C   0  0  0  0  0  0  0  0  0  0  0  0
  190.8610  175.7640  138.7820 C   0  0  0  0  0  2  0  0  0  0  0  0
  190.3570  176.1280  137.3870 C   0  0  2  0  0  3  0  0  0  0  0  0
  186.0130  178.7940  144.5840 S   0  0  0  0  0  0  0  0  0  0  0  0
  185.6580  179.2560  142.8570 C   0  0  1  0  0  3  0  0  0  0  0  0
  187.3260  177.7040  144.0820 C   0  0  0  0  0  0  0  0  0  0  0  0
  186.6890  178.6600  141.9120 C   0  0  2  0  0  3  0  0  0  0  0  0
  187.4630  176.5370  144.7040 C   0  0  0  0  0  2  0  0  0  0  0  0
  185.3070  178.0400  142.0170 C   0  0  2  0  0  3  0  0  0  0  0  0
  187.7320  177.8130  142.6480 C   0  0  1  0  0  3  0  0  0  0  0  0
  184.4800  178.4770  140.8220 C   0  0  0  0  0  2  0  0  0  0  0  0
  183.1150  177.8050  140.8400 C   0  0  0  0  0  2  0  0  0  0  0  0
  182.0170  178.7850  141.2260 C   0  0  0  0  0  2  0  0  0  0  0  0
  181.8140  178.7880  142.7300 C   0  0  0  0  0  1  0  0  0  0  0  0
  1  2  2  0  0  0  0
  2  5  1  0  0  0  0
  3  1  1  0  0  0  0
  4 26  1  0  0  0  0
  4  7  1  1  0  0  0
  6  4  1  0  0  0  0
  6  1  1  1  0  0  0
  7  5  1  0  0  0  0
  8  6  1  1  0  0  0
  9 18  1  6  0  0  0
  9 10  1  0  0  0  0
  9  8  1  0  0  0  0
 10  8  1  0  0  0  0
 11 17  2  0  0  0  0
 11 12  1  0  0  0  0
 12 14  1  0  0  0  0
 13 14  1  0  0  0  0
 14 10  1  0  0  0  0
 15 19  1  0  0  0  0
 15 12  1  0  0  0  0
 16 17  1  0  0  0  0
 17 13  1  0  0  0  0
 19 12  1  0  0  0  0
 19 18  1  0  0  0  0
 21 20  1  0  0  0  0
 22 20  1  0  0  0  0
 22 24  2  0  0  0  0
 23 25  1  0  0  0  0
 23 26  1  0  0  0  0
 23 21  1  0  0  0  0
 25 21  1  0  0  0  0
 26 22  1  0  0  0  0
 27 28  1  0  0  0  0
 27 25  1  0  0  0  0
 28 29  1  0  0  0  0
 29 30  1  0  0  0  0
M  END
>  <MODEL>
5

>  <REMARK>
 VINA RESULT:      -5.8      2.629      5.913
  Name = 
  5 active torsions:
  status: ('A' for Active; 'I' for Inactive)
    1  A    between atoms: N_1  and  C_22
    2  A    between atoms: C_7  and  C_15
    3  A    between atoms: C_15  and  C_16
    4  A    between atoms: C_16  and  C_25
    5  A    between atoms: C_19  and  C_29
                            x       y       z     vdW  Elec       q    Type
                         _______ _______ _______ _____ _____    ______ ____

>  <TORSDO>
F 5

$$$$
=
 OpenBabel10272413433D

 30 36  0  0  1  0  0  0  0  0999 V2000
  191.0840  176.8730  145.2760 C   0  0  0  0  0  0  0  0  0  0  0  0
  191.9450  176.0240  144.7190 C   0  0  0  0  0  3  0  0  0  0  0  0
  191.5520  177.9960  145.9480 O   0  0  0  0  0  1  0  0  0  0  0  0
  189.2830  176.2360  143.6690 C   0  0  2  0  0  3  0  0  0  0  0  0
  191.4340  174.7910  144.0320 C   0  0  0  0  0  2  0  0  0  0  0  0
  189.6100  176.5970  145.1440 C   0  0  2  0  0  3  0  0  0  0  0  0
  190.1710  175.0580  143.1890 C   0  0  0  0  0  2  0  0  0  0  0  0
  188.8050  177.7030  145.6500 N   0  0  2  0  0  0  0  0  0  0  0  0
  187.9200  177.1580  146.6940 C   0  0  2  0  0  3  0  0  0  0  0  0
  187.3980  177.4060  145.3300 C   0  0  1  0  0  3  0  0  0  0  0  0
  184.3030  178.8110  145.9930 N   0  0  0  0  0  0  0  0  0  0  0  0
  185.7020  178.9850  146.3020 C   0  0  1  0  0  0  0  0  0  0  0  0
  185.5550  178.5740  143.6730 S   0  0  0  0  0  0  0  0  0  0  0  0
  186.6390  178.7240  145.1350 C   0  0  2  0  0  3  0  0  0  0  0  0
  186.0150  180.1030  147.2590 C   0  0  0  0  0  2  0  0  0  0  0  0
  182.8030  178.3740  144.2260 N   0  0  0  0  0  1  0  0  0  0  0  0
  184.1100  178.6020  144.7380 C   0  0  0  0  0  0  0  0  0  0  0  0
  187.6140  178.2550  147.7200 C   0  0  0  0  0  2  0  0  0  0  0  0
  186.1380  178.6440  147.7110 C   0  0  2  0  0  3  0  0  0  0  0  0
  190.8200  177.3090  140.3580 S   0  0  0  0  0  0  0  0  0  0  0  0
  189.0030  177.2550  140.2170 C   0  0  1  0  0  3  0  0  0  0  0  0
  190.7320  177.6210  142.1070 C   0  0  0  0  0  0  0  0  0  0  0  0
  188.3500  177.3290  141.5880 C   0  0  2  0  0  3  0  0  0  0  0  0
  191.5790  178.4920  142.6460 C   0  0  0  0  0  2  0  0  0  0  0  0
  188.3710  178.5530  140.6890 C   0  0  2  0  0  3  0  0  0  0  0  0
  189.3770  177.4550  142.7170 C   0  0  1  0  0  3  0  0  0  0  0  0
  187.0070  178.7110  140.0420 C   0  0  0  0  0  2  0  0  0  0  0  0
  187.0210  178.1630  138.6220 C   0  0  0  0  0  2  0  0  0  0  0  0
  185.6170  178.0840  138.0420 C   0  0  0  0  0  2  0  0  0  0  0  0
  184.6220  178.7580  138.9680 C   0  0  0  0  0  1  0  0  0  0  0  0
  1  3  1  0  0  0  0
  2  1  2  0  0  0  0
  4  7  1  6  0  0  0
  4  6  1  0  0  0  0
  5  2  1  0  0  0  0
  6  1  1  6  0  0  0
  7  5  1  0  0  0  0
  8  6  1  6  0  0  0
  8  9  1  0  0  0  0
  9 18  1  1  0  0  0
 10  8  1  0  0  0  0
 10  9  1  0  0  0  0
 11 12  1  0  0  0  0
 12 15  1  0  0  0  0
 12 19  1  0  0  0  0
 13 17  1  0  0  0  0
 13 14  1  0  0  0  0
 14 10  1  0  0  0  0
 14 12  1  0  0  0  0
 15 19  1  0  0  0  0
 16 17  1  0  0  0  0
 17 11  2  0  0  0  0
 19 18  1  0  0  0  0
 20 22  1  0  0  0  0
 21 20  1  0  0  0  0
 21 25  1  0  0  0  0
 21 23  1  0  0  0  0
 22 24  2  0  0  0  0
 22 26  1  0  0  0  0
 23 26  1  0  0  0  0
 25 23  1  0  0  0  0
 26  4  1  0  0  0  0
 27 25  1  0  0  0  0
 28 27  1  0  0  0  0
 29 28  1  0  0  0  0
 29 30  1  0  0  0  0
M  END
>  <MODEL>
6

>  <REMARK>
 VINA RESULT:      -5.8      1.681      2.280
  Name = 
  5 active torsions:
  status: ('A' for Active; 'I' for Inactive)
    1  A    between atoms: N_1  and  C_22
    2  A    between atoms: C_7  and  C_15
    3  A    between atoms: C_15  and  C_16
    4  A    between atoms: C_16  and  C_25
    5  A    between atoms: C_19  and  C_29
                            x       y       z     vdW  Elec       q    Type
                         _______ _______ _______ _____ _____    ______ ____

>  <TORSDO>
F 5

$$$$
=
 OpenBabel10272413433D

 30 36  0  0  1  0  0  0  0  0999 V2000
  185.9850  174.5900  136.1160 C   0  0  0  0  0  0  0  0  0  0  0  0
  186.8710  174.3380  135.1560 C   0  0  0  0  0  3  0  0  0  0  0  0
  185.4300  173.5410  136.8410 O   0  0  0  0  0  1  0  0  0  0  0  0
  186.9120  176.8760  136.4930 C   0  0  2  0  0  3  0  0  0  0  0  0
  187.4340  175.4720  134.3470 C   0  0  0  0  0  2  0  0  0  0  0  0
  185.6190  176.0210  136.4040 C   0  0  2  0  0  3  0  0  0  0  0  0
  187.7620  176.7090  135.2060 C   0  0  0  0  0  2  0  0  0  0  0  0
  184.7780  176.1360  137.5910 N   0  0  2  0  0  0  0  0  0  0  0  0
  183.3790  176.0010  137.1510 C   0  0  2  0  0  3  0  0  0  0  0  0
  183.9470  177.3410  137.4270 C   0  0  1  0  0  3  0  0  0  0  0  0
  181.3560  178.8770  139.1340 N   0  0  0  0  0  0  0  0  0  0  0  0
  182.1790  177.6930  139.1770 C   0  0  1  0  0  0  0  0  0  0  0  0
  183.8260  179.7420  138.7390 S   0  0  0  0  0  0  0  0  0  0  0  0
  183.6340  177.9280  138.8080 C   0  0  2  0  0  3  0  0  0  0  0  0
  181.8480  176.7190  140.2750 C   0  0  0  0  0  2  0  0  0  0  0  0
  181.4280  181.2130  138.8150 N   0  0  0  0  0  1  0  0  0  0  0  0
  182.0510  179.9400  138.9240 C   0  0  0  0  0  0  0  0  0  0  0  0
  182.5480  175.3960  138.2890 C   0  0  0  0  0  2  0  0  0  0  0  0
  181.5110  176.3840  138.8190 C   0  0  2  0  0  3  0  0  0  0  0  0
  190.3980  177.3340  137.9460 S   0  0  0  0  0  0  0  0  0  0  0  0
  189.1960  178.3440  138.8730 C   0  0  1  0  0  3  0  0  0  0  0  0
  189.1420  176.1640  137.4800 C   0  0  0  0  0  0  0  0  0  0  0  0
  187.7810  177.8250  138.6710 C   0  0  2  0  0  3  0  0  0  0  0  0
  189.4400  174.8680  137.4850 C   0  0  0  0  0  2  0  0  0  0  0  0
  188.5190  177.5370  139.9660 C   0  0  2  0  0  3  0  0  0  0  0  0
  187.7380  176.5860  137.7720 C   0  0  1  0  0  3  0  0  0  0  0  0
  188.0090  178.4780  141.0420 C   0  0  0  0  0  2  0  0  0  0  0  0
  188.5800  178.0990  142.4010 C   0  0  0  0  0  2  0  0  0  0  0  0
  188.5280  176.5940  142.6260 C   0  0  0  0  0  2  0  0  0  0  0  0
  189.8920  176.0720  143.0340 C   0  0  0  0  0  1  0  0  0  0  0  0
  1  3  1  0  0  0  0
  2  1  2  0  0  0  0
  4  7  1  6  0  0  0
  4 26  1  0  0  0  0
  5  2  1  0  0  0  0
  5  7  1  0  0  0  0
  6  1  1  1  0  0  0
  6  4  1  0  0  0  0
  8  6  1  6  0  0  0
  9 10  1  0  0  0  0
  9  8  1  0  0  0  0
  9 18  1  1  0  0  0
 10  8  1  0  0  0  0
 10 14  1  0  0  0  0
 11 12  1  0  0  0  0
 12 15  1  0  0  0  0
 13 14  1  0  0  0  0
 13 17  1  0  0  0  0
 14 12  1  0  0  0  0
 16 17  1  0  0  0  0
 17 11  2  0  0  0  0
 18 19  1  0  0  0  0
 19 12  1  0  0  0  0
 19 15  1  0  0  0  0
 20 21  1  0  0  0  0
 21 25  1  0  0  0  0
 22 24  2  0  0  0  0
 22 26  1  0  0  0  0
 22 20  1  0  0  0  0
 23 21  1  0  0  0  0
 23 25  1  0  0  0  0
 25 27  1  0  0  0  0
 26 23  1  0  0  0  0
 27 28  1  0  0  0  0
 28 29  1  0  0  0  0
 29 30  1  0  0  0  0
M  END
>  <MODEL>
7

>  <REMARK>
 VINA RESULT:      -5.6      3.604      6.690
  Name = 
  5 active torsions:
  status: ('A' for Active; 'I' for Inactive)
    1  A    between atoms: N_1  and  C_22
    2  A    between atoms: C_7  and  C_15
    3  A    between atoms: C_15  and  C_16
    4  A    between atoms: C_16  and  C_25
    5  A    between atoms: C_19  and  C_29
                            x       y       z     vdW  Elec       q    Type
                         _______ _______ _______ _____ _____    ______ ____

>  <TORSDO>
F 5

$$$$
=
 OpenBabel10272413433D

 30 36  0  0  1  0  0  0  0  0999 V2000
  184.3510  178.7050  139.7180 C   0  0  0  0  0  0  0  0  0  0  0  0
  183.1060  179.1610  139.6050 C   0  0  0  0  0  3  0  0  0  0  0  0
  184.9260  178.5590  140.9760 O   0  0  0  0  0  1  0  0  0  0  0  0
  184.1910  177.4770  137.5510 C   0  0  2  0  0  3  0  0  0  0  0  0
  182.5070  179.3570  138.2420 C   0  0  0  0  0  2  0  0  0  0  0  0
  185.1030  178.3380  138.4660 C   0  0  2  0  0  3  0  0  0  0  0  0
  182.8550  178.2120  137.2690 C   0  0  0  0  0  2  0  0  0  0  0  0
  186.3760  177.6940  138.7690 N   0  0  2  0  0  0  0  0  0  0  0  0
  187.4330  178.7030  138.5760 C   0  0  2  0  0  3  0  0  0  0  0  0
  187.1720  177.6880  137.5280 C   0  0  1  0  0  3  0  0  0  0  0  0
  190.3810  176.7900  136.5880 N   0  0  0  0  0  0  0  0  0  0  0  0
  189.5430  176.8890  137.7590 C   0  0  1  0  0  0  0  0  0  0  0  0
  188.0770  175.6970  135.8790 S   0  0  0  0  0  0  0  0  0  0  0  0
  188.1010  176.4680  137.5340 C   0  0  2  0  0  3  0  0  0  0  0  0
  190.2140  176.5460  139.0610 C   0  0  0  0  0  2  0  0  0  0  0  0
  190.4090  176.0570  134.3460 N   0  0  0  0  0  1  0  0  0  0  0  0
  189.7710  176.2260  135.6050 C   0  0  0  0  0  0  0  0  0  0  0  0
  188.6070  178.3890  139.5120 C   0  0  0  0  0  2  0  0  0  0  0  0
  189.8620  178.0010  138.7350 C   0  0  2  0  0  3  0  0  0  0  0  0
  181.8310  174.5110  137.2260 S   0  0  0  0  0  0  0  0  0  0  0  0
  183.4840  174.0670  136.5990 C   0  0  1  0  0  3  0  0  0  0  0  0
  182.5130  175.7330  138.3240 C   0  0  0  0  0  0  0  0  0  0  0  0
  184.5450  175.0040  137.1550 C   0  0  2  0  0  3  0  0  0  0  0  0
  182.0030  175.8530  139.5460 C   0  0  0  0  0  2  0  0  0  0  0  0
  184.3970  173.6020  137.7210 C   0  0  2  0  0  3  0  0  0  0  0  0
  183.9580  176.0490  138.1070 C   0  0  1  0  0  3  0  0  0  0  0  0
  185.4920  172.7220  137.1450 C   0  0  0  0  0  2  0  0  0  0  0  0
  185.2000  172.3890  135.6890 C   0  0  0  0  0  2  0  0  0  0  0  0
  185.1010  170.8860  135.4720 C   0  0  0  0  0  2  0  0  0  0  0  0
  183.7240  170.3830  135.8630 C   0  0  0  0  0  1  0  0  0  0  0  0
  1  3  1  0  0  0  0
  2  1  2  0  0  0  0
  4  7  1  1  0  0  0
  4 26  1  0  0  0  0
  4  6  1  0  0  0  0
  5  2  1  0  0  0  0
  6  1  1  1  0  0  0
  7  5  1  0  0  0  0
  8  6  1  6  0  0  0
  9  8  1  0  0  0  0
  9 18  1  1  0  0  0
 10 14  1  0  0  0  0
 10  9  1  0  0  0  0
 10  8  1  0  0  0  0
 11 12  1  0  0  0  0
 12 19  1  0  0  0  0
 12 15  1  0  0  0  0
 13 14  1  0  0  0  0
 14 12  1  0  0  0  0
 16 17  1  0  0  0  0
 17 13  1  0  0  0  0
 17 11  2  0  0  0  0
 19 15  1  0  0  0  0
 19 18  1  0  0  0  0
 20 22  1  0  0  0  0
 21 23  1  0  0  0  0
 21 20  1  0  0  0  0
 21 25  1  0  0  0  0
 22 24  2  0  0  0  0
 23 25  1  0  0  0  0
 23 26  1  0  0  0  0
 26 22  1  0  0  0  0
 27 25  1  0  0  0  0
 28 27  1  0  0  0  0
 29 28  1  0  0  0  0
 29 30  1  0  0  0  0
M  END
>  <MODEL>
8

>  <REMARK>
 VINA RESULT:      -5.6      4.672      8.161
  Name = 
  5 active torsions:
  status: ('A' for Active; 'I' for Inactive)
    1  A    between atoms: N_1  and  C_22
    2  A    between atoms: C_7  and  C_15
    3  A    between atoms: C_15  and  C_16
    4  A    between atoms: C_16  and  C_25
    5  A    between atoms: C_19  and  C_29
                            x       y       z     vdW  Elec       q    Type
                         _______ _______ _______ _____ _____    ______ ____

>  <TORSDO>
F 5

$$$$
=
 OpenBabel10272413433D

 30 36  0  0  1  0  0  0  0  0999 V2000
  187.8810  176.0950  137.1840 C   0  0  0  0  0  0  0  0  0  0  0  0
  189.1920  176.2690  137.0320 C   0  0  0  0  0  3  0  0  0  0  0  0
  187.3460  174.8120  137.1810 O   0  0  0  0  0  1  0  0  0  0  0  0
  187.6540  178.2430  138.4350 C   0  0  2  0  0  3  0  0  0  0  0  0
  189.7590  177.6590  136.9930 C   0  0  0  0  0  2  0  0  0  0  0  0
  187.0100  177.3070  137.3770 C   0  0  2  0  0  3  0  0  0  0  0  0
  189.1110  178.5950  138.0330 C   0  0  0  0  0  2  0  0  0  0  0  0
  185.6370  176.9390  137.7040 N   0  0  2  0  0  0  0  0  0  0  0  0
  184.8500  177.0390  136.4620 C   0  0  2  0  0  3  0  0  0  0  0  0
  184.7950  178.1260  137.4680 C   0  0  1  0  0  3  0  0  0  0  0  0
  181.4160  178.8800  137.5220 N   0  0  0  0  0  0  0  0  0  0  0  0
  182.3170  177.7640  137.6760 C   0  0  1  0  0  0  0  0  0  0  0  0
  183.3390  179.7620  139.1120 S   0  0  0  0  0  0  0  0  0  0  0  0
  183.5980  178.0910  138.4250 C   0  0  2  0  0  3  0  0  0  0  0  0
  181.6570  176.4300  137.8970 C   0  0  0  0  0  2  0  0  0  0  0  0
  181.0840  181.1340  138.1360 N   0  0  0  0  0  1  0  0  0  0  0  0
  181.8140  179.9140  138.1780 C   0  0  0  0  0  0  0  0  0  0  0  0
  183.6900  176.0380  136.5180 C   0  0  0  0  0  2  0  0  0  0  0  0
  182.3350  176.7430  136.5590 C   0  0  2  0  0  3  0  0  0  0  0  0
  189.0030  178.8250  141.9440 S   0  0  0  0  0  0  0  0  0  0  0  0
  187.2090  179.1450  141.9020 C   0  0  1  0  0  3  0  0  0  0  0  0
  188.8890  177.6850  140.5840 C   0  0  0  0  0  0  0  0  0  0  0  0
  186.5640  178.4620  140.7060 C   0  0  2  0  0  3  0  0  0  0  0  0
  189.6170  176.5720  140.6170 C   0  0  0  0  0  2  0  0  0  0  0  0
  186.4120  177.8660  142.0950 C   0  0  2  0  0  3  0  0  0  0  0  0
  187.5750  177.6700  139.8730 C   0  0  1  0  0  3  0  0  0  0  0  0
  185.0330  178.2090  142.6290 C   0  0  0  0  0  2  0  0  0  0  0  0
  185.1430  179.0750  143.8770 C   0  0  0  0  0  2  0  0  0  0  0  0
  183.9390  178.8900  144.7890 C   0  0  0  0  0  2  0  0  0  0  0  0
  182.6550  178.8900  143.9800 C   0  0  0  0  0  1  0  0  0  0  0  0
  2  1  2  0  0  0  0
  3  1  1  0  0  0  0
  4  7  1  6  0  0  0
  4 26  1  0  0  0  0
  5  2  1  0  0  0  0
  5  7  1  0  0  0  0
  6  1  1  1  0  0  0
  6  4  1  0  0  0  0
  8  6  1  6  0  0  0
  9 18  1  1  0  0  0
  9 10  1  0  0  0  0
  9  8  1  0  0  0  0
 10  8  1  0  0  0  0
 10 14  1  0  0  0  0
 11 12  1  0  0  0  0
 11 17  2  0  0  0  0
 12 15  1  0  0  0  0
 12 14  1  0  0  0  0
 14 13  1  0  0  0  0
 16 17  1  0  0  0  0
 17 13  1  0  0  0  0
 18 19  1  0  0  0  0
 19 12  1  0  0  0  0
 19 15  1  0  0  0  0
 21 20  1  0  0  0  0
 21 25  1  0  0  0  0
 22 24  2  0  0  0  0
 22 20  1  0  0  0  0
 23 21  1  0  0  0  0
 23 25  1  0  0  0  0
 25 27  1  0  0  0  0
 26 22  1  0  0  0  0
 26 23  1  0  0  0  0
 27 28  1  0  0  0  0
 28 29  1  0  0  0  0
 30 29  1  0  0  0  0
M  END
>  <MODEL>
9

>  <REMARK>
 VINA RESULT:      -5.5      3.415      6.629
  Name = 
  5 active torsions:
  status: ('A' for Active; 'I' for Inactive)
    1  A    between atoms: N_1  and  C_22
    2  A    between atoms: C_7  and  C_15
    3  A    between atoms: C_15  and  C_16
    4  A    between atoms: C_16  and  C_25
    5  A    between atoms: C_19  and  C_29
                            x       y       z     vdW  Elec       q    Type
                         _______ _______ _______ _____ _____    ______ ____

>  <TORSDO>
F 5

$$$$
