=
 OpenBabel10272402023D

 28 31  0  0  1  0  0  0  0  0999 V2000
  189.7810  177.5160  141.5150 C   0  0  2  0  0  0  0  0  0  0  0  0
  191.0170  178.0200  143.5280 C   0  0  2  0  0  3  0  0  0  0  0  0
  190.3070  178.6690  142.3320 C   0  0  2  0  0  3  0  0  0  0  0  0
  192.3570  178.4090  143.5300 O   0  0  0  0  0  1  0  0  0  0  0  0
  190.9170  176.5470  143.3030 C   0  0  0  0  0  0  0  0  0  0  0  0
  188.1250  177.5350  143.2460 C   0  0  1  0  0  3  0  0  0  0  0  0
  188.5470  176.0980  142.9450 C   0  0  0  0  0  2  0  0  0  0  0  0
  191.3620  175.6550  144.1870 C   0  0  0  0  0  2  0  0  0  0  0  0
  188.7780  178.4190  142.1830 C   0  0  2  0  0  3  0  0  0  0  0  0
  189.9030  176.2110  142.2640 C   0  0  1  0  0  3  0  0  0  0  0  0
  189.0700  178.3500  139.3690 N   0  0  0  0  0  0  0  0  0  0  0  0
  189.8950  177.6230  140.0310 C   0  0  0  0  0  3  0  0  0  0  0  0
  189.1750  178.4640  137.9370 C   0  0  0  0  0  2  0  0  0  0  0  0
  187.8560  178.3020  137.3140 C   0  0  0  0  0  0  0  0  0  0  0  0
  186.7720  178.1710  136.8020 C   0  0  0  0  0  3  0  0  0  0  0  0
  186.3190  177.6830  143.1470 S   0  0  0  0  0  0  0  0  0  0  0  0
  186.1700  178.3030  144.8590 C   0  0  2  0  0  3  0  0  0  0  0  0
  186.4150  177.2190  145.9160 C   0  0  0  0  0  2  0  0  0  0  0  0
  188.3920  178.4330  148.9170 C   0  0  0  0  0  3  0  0  0  0  0  0
  187.5590  177.5040  146.8370 C   0  0  0  0  0  0  0  0  0  0  0  0
  189.9270  177.4030  147.3510 C   0  0  0  0  0  0  0  0  0  0  0  0
  187.3270  178.1600  148.0510 C   0  0  0  0  0  3  0  0  0  0  0  0
  188.8620  177.1310  146.4860 C   0  0  0  0  0  3  0  0  0  0  0  0
  191.1850  177.0380  147.0110 F   0  0  0  0  0  0  0  0  0  0  0  0
  189.6920  178.0530  148.5660 C   0  0  0  0  0  3  0  0  0  0  0  0
  184.9200  179.1550  145.1040 C   0  0  0  0  0  2  0  0  0  0  0  0
  182.6460  178.8050  144.1900 C   0  0  0  0  0  1  0  0  0  0  0  0
  184.0430  179.2880  143.8690 C   0  0  0  0  0  2  0  0  0  0  0  0
  1 12  1  6  0  0  0
  1  9  1  0  0  0  0
  1 10  1  0  0  0  0
  1  3  1  0  0  0  0
  2  4  1  6  0  0  0
  3  2  1  0  0  0  0
  5  2  1  0  0  0  0
  5  8  2  0  0  0  0
  7  6  1  0  0  0  0
  9  3  1  0  0  0  0
  9  6  1  0  0  0  0
 10  7  1  0  0  0  0
 10  5  1  0  0  0  0
 11 12  2  0  0  0  0
 13 11  1  0  0  0  0
 14 13  1  0  0  0  0
 15 14  3  0  0  0  0
 16  6  1  0  0  0  0
 16 17  1  0  0  0  0
 17 26  1  0  0  0  0
 17 18  1  0  0  0  0
 18 20  1  0  0  0  0
 20 22  1  0  0  0  0
 21 25  2  0  0  0  0
 22 19  2  0  0  0  0
 23 20  2  0  0  0  0
 23 21  1  0  0  0  0
 24 21  1  0  0  0  0
 25 19  1  0  0  0  0
 28 27  1  0  0  0  0
 28 26  1  0  0  0  0
M  END
>  <MODEL>
1

>  <REMARK>
 VINA RESULT:      -7.5      0.000      0.000
  Name = 
  9 active torsions:
  status: ('A' for Active; 'I' for Inactive)
    1  A    between atoms: C_1  and  C_11
    2  A    between atoms: C_6  and  N_8
    3  A    between atoms: C_6  and  C_22
    4  A    between atoms: C_9  and  C_18
    5  A    between atoms: C_10  and  S_14
    6  A    between atoms: C_10  and  C_18
    7  A    between atoms: C_10  and  C_25
    8  A    between atoms: S_14  and  C_17
    9  A    between atoms: C_20  and  C_25
                            x       y       z     vdW  Elec       q    Type
                         _______ _______ _______ _____ _____    ______ ____

>  <TORSDO>
F 9

$$$$
=
 OpenBabel10272402023D

 28 31  0  0  1  0  0  0  0  0999 V2000
  190.5190  177.4590  142.2930 C   0  0  2  0  0  0  0  0  0  0  0  0
  191.2490  178.4250  144.3840 C   0  0  2  0  0  3  0  0  0  0  0  0
  190.7160  178.7820  142.9890 C   0  0  2  0  0  3  0  0  0  0  0  0
  192.4990  179.0190  144.5610 O   0  0  0  0  0  1  0  0  0  0  0  0
  191.3900  176.9380  144.3910 C   0  0  0  0  0  0  0  0  0  0  0  0
  188.5610  177.4500  143.6730 C   0  0  1  0  0  3  0  0  0  0  0  0
  189.2190  176.0710  143.6940 C   0  0  0  0  0  2  0  0  0  0  0  0
  191.7610  176.2570  145.4750 C   0  0  0  0  0  2  0  0  0  0  0  0
  189.2940  178.2720  142.6130 C   0  0  2  0  0  3  0  0  0  0  0  0
  190.6580  176.3050  143.2570 C   0  0  1  0  0  3  0  0  0  0  0  0
  190.1240  176.8470  139.9960 N   0  0  0  0  0  0  0  0  0  0  0  0
  190.9150  177.3780  140.8570 C   0  0  0  0  0  3  0  0  0  0  0  0
  190.4940  176.7690  138.6070 C   0  0  0  0  0  2  0  0  0  0  0  0
  189.7370  177.7520  137.8220 C   0  0  0  0  0  0  0  0  0  0  0  0
  189.1170  178.5600  137.1770 C   0  0  0  0  0  3  0  0  0  0  0  0
  186.8080  177.2920  143.2300 S   0  0  0  0  0  0  0  0  0  0  0  0
  186.2350  177.7640  144.9000 C   0  0  2  0  0  3  0  0  0  0  0  0
  185.3540  179.0180  144.9020 C   0  0  0  0  0  2  0  0  0  0  0  0
  183.0980  178.7700  141.8630 C   0  0  0  0  0  3  0  0  0  0  0  0
  184.1250  178.9100  144.0560 C   0  0  0  0  0  0  0  0  0  0  0  0
  181.7130  178.7650  143.8500 C   0  0  0  0  0  0  0  0  0  0  0  0
  184.2430  178.8690  142.6620 C   0  0  0  0  0  3  0  0  0  0  0  0
  182.8570  178.8630  144.6480 C   0  0  0  0  0  3  0  0  0  0  0  0
  180.4890  178.7160  144.4260 F   0  0  0  0  0  0  0  0  0  0  0  0
  181.8340  178.7180  142.4580 C   0  0  0  0  0  3  0  0  0  0  0  0
  187.3430  177.7660  145.9580 C   0  0  0  0  0  2  0  0  0  0  0  0
  187.9710  178.1320  148.3250 C   0  0  0  0  0  1  0  0  0  0  0  0
  186.8930  178.3520  147.2860 C   0  0  0  0  0  2  0  0  0  0  0  0
  1 12  1  6  0  0  0
  1  9  1  0  0  0  0
  1  3  1  0  0  0  0
  1 10  1  0  0  0  0
  2  5  1  0  0  0  0
  2  4  1  6  0  0  0
  3  2  1  0  0  0  0
  5  8  2  0  0  0  0
  6  7  1  0  0  0  0
  9  3  1  0  0  0  0
  9  6  1  0  0  0  0
 10  7  1  0  0  0  0
 10  5  1  0  0  0  0
 11 12  2  0  0  0  0
 13 11  1  0  0  0  0
 14 13  1  0  0  0  0
 15 14  3  0  0  0  0
 16  6  1  0  0  0  0
 16 17  1  0  0  0  0
 17 18  1  0  0  0  0
 17 26  1  0  0  0  0
 19 25  2  0  0  0  0
 19 22  1  0  0  0  0
 20 23  1  0  0  0  0
 20 18  1  0  0  0  0
 21 24  1  0  0  0  0
 21 23  2  0  0  0  0
 22 20  2  0  0  0  0
 25 21  1  0  0  0  0
 26 28  1  0  0  0  0
 28 27  1  0  0  0  0
M  END
>  <MODEL>
2

>  <REMARK>
 VINA RESULT:      -7.1      2.411      4.625
  Name = 
  9 active torsions:
  status: ('A' for Active; 'I' for Inactive)
    1  A    between atoms: C_1  and  C_11
    2  A    between atoms: C_6  and  N_8
    3  A    between atoms: C_6  and  C_22
    4  A    between atoms: C_9  and  C_18
    5  A    between atoms: C_10  and  S_14
    6  A    between atoms: C_10  and  C_18
    7  A    between atoms: C_10  and  C_25
    8  A    between atoms: S_14  and  C_17
    9  A    between atoms: C_20  and  C_25
                            x       y       z     vdW  Elec       q    Type
                         _______ _______ _______ _____ _____    ______ ____

>  <TORSDO>
F 9

$$$$
=
 OpenBabel10272402023D

 28 31  0  0  1  0  0  0  0  0999 V2000
  189.9500  176.8670  137.7710 C   0  0  2  0  0  0  0  0  0  0  0  0
  187.5880  176.5600  137.3630 C   0  0  2  0  0  3  0  0  0  0  0  0
  188.8490  175.8400  137.8620 C   0  0  2  0  0  3  0  0  0  0  0  0
  187.0820  175.8790  136.2560 O   0  0  0  0  0  1  0  0  0  0  0  0
  188.0400  177.9240  136.9560 C   0  0  0  0  0  0  0  0  0  0  0  0
  188.8900  177.6320  139.7790 C   0  0  1  0  0  3  0  0  0  0  0  0
  189.2320  178.8220  138.8840 C   0  0  0  0  0  2  0  0  0  0  0  0
  187.1930  178.8640  136.5380 C   0  0  0  0  0  2  0  0  0  0  0  0
  189.5360  176.4020  139.1410 C   0  0  2  0  0  3  0  0  0  0  0  0
  189.3950  178.2420  137.4880 C   0  0  1  0  0  3  0  0  0  0  0  0
  192.2650  176.2810  138.0880 N   0  0  0  0  0  0  0  0  0  0  0  0
  191.2780  176.4010  137.2760 C   0  0  0  0  0  3  0  0  0  0  0  0
  193.5490  175.8270  137.6230 C   0  0  0  0  0  2  0  0  0  0  0  0
  193.4310  174.4940  137.0190 C   0  0  0  0  0  0  0  0  0  0  0  0
  193.3360  173.4000  136.5230 C   0  0  0  0  0  3  0  0  0  0  0  0
  189.5670  177.8920  141.4420 S   0  0  0  0  0  0  0  0  0  0  0  0
  187.9140  178.0530  142.2050 C   0  0  2  0  0  3  0  0  0  0  0  0
  187.5780  176.9050  143.1630 C   0  0  0  0  0  2  0  0  0  0  0  0
  188.5780  177.6660  146.7420 C   0  0  0  0  0  3  0  0  0  0  0  0
  187.4950  177.3070  144.6020 C   0  0  0  0  0  0  0  0  0  0  0  0
  186.1990  178.0560  146.5090 C   0  0  0  0  0  0  0  0  0  0  0  0
  188.6480  177.2940  145.3950 C   0  0  0  0  0  3  0  0  0  0  0  0
  186.2690  177.6840  145.1630 C   0  0  0  0  0  3  0  0  0  0  0  0
  185.0130  178.4230  147.0490 F   0  0  0  0  0  0  0  0  0  0  0  0
  187.3530  178.0470  147.2980 C   0  0  0  0  0  3  0  0  0  0  0  0
  186.8020  178.3920  141.2070 C   0  0  0  0  0  2  0  0  0  0  0  0
  184.4200  178.3100  141.8780 C   0  0  0  0  0  1  0  0  0  0  0  0
  185.6610  179.1750  141.8360 C   0  0  0  0  0  2  0  0  0  0  0  0
  1 12  1  6  0  0  0
  1  3  1  0  0  0  0
  1  9  1  0  0  0  0
  2  4  1  6  0  0  0
  2  3  1  0  0  0  0
  3  9  1  0  0  0  0
  5  2  1  0  0  0  0
  5 10  1  0  0  0  0
  6 16  1  0  0  0  0
  7  6  1  0  0  0  0
  8  5  2  0  0  0  0
  9  6  1  0  0  0  0
 10  1  1  0  0  0  0
 10  7  1  0  0  0  0
 12 11  2  0  0  0  0
 13 11  1  0  0  0  0
 14 13  1  0  0  0  0
 15 14  3  0  0  0  0
 16 17  1  0  0  0  0
 17 18  1  0  0  0  0
 18 20  1  0  0  0  0
 19 25  1  0  0  0  0
 20 23  2  0  0  0  0
 20 22  1  0  0  0  0
 21 24  1  0  0  0  0
 21 25  2  0  0  0  0
 22 19  2  0  0  0  0
 23 21  1  0  0  0  0
 26 28  1  0  0  0  0
 26 17  1  0  0  0  0
 28 27  1  0  0  0  0
M  END
>  <MODEL>
3

>  <REMARK>
 VINA RESULT:      -6.9      3.301      5.077
  Name = 
  9 active torsions:
  status: ('A' for Active; 'I' for Inactive)
    1  A    between atoms: C_1  and  C_11
    2  A    between atoms: C_6  and  N_8
    3  A    between atoms: C_6  and  C_22
    4  A    between atoms: C_9  and  C_18
    5  A    between atoms: C_10  and  S_14
    6  A    between atoms: C_10  and  C_18
    7  A    between atoms: C_10  and  C_25
    8  A    between atoms: S_14  and  C_17
    9  A    between atoms: C_20  and  C_25
                            x       y       z     vdW  Elec       q    Type
                         _______ _______ _______ _____ _____    ______ ____

>  <TORSDO>
F 9

$$$$
=
 OpenBabel10272402023D

 28 31  0  0  1  0  0  0  0  0999 V2000
  183.0680  177.5750  138.9570 C   0  0  2  0  0  0  0  0  0  0  0  0
  181.3120  178.4080  140.3920 C   0  0  2  0  0  3  0  0  0  0  0  0
  182.2360  177.2050  140.1590 C   0  0  2  0  0  3  0  0  0  0  0  0
  179.9840  177.9880  140.3040 O   0  0  0  0  0  1  0  0  0  0  0  0
  181.6140  179.3660  139.2860 C   0  0  0  0  0  0  0  0  0  0  0  0
  184.2130  178.8680  140.6180 C   0  0  1  0  0  3  0  0  0  0  0  0
  184.0290  179.6970  139.3480 C   0  0  0  0  0  2  0  0  0  0  0  0
  181.0480  180.5700  139.2050 C   0  0  0  0  0  2  0  0  0  0  0  0
  183.7700  177.4440  140.2830 C   0  0  2  0  0  3  0  0  0  0  0  0
  182.8900  179.0290  138.5930 C   0  0  1  0  0  3  0  0  0  0  0  0
  182.9880  175.2910  138.1960 N   0  0  0  0  0  0  0  0  0  0  0  0
  183.3290  176.5040  137.9520 C   0  0  0  0  0  3  0  0  0  0  0  0
  183.2300  174.2500  137.2300 C   0  0  0  0  0  2  0  0  0  0  0  0
  184.4720  173.5360  137.5500 C   0  0  0  0  0  0  0  0  0  0  0  0
  185.4920  172.9490  137.8110 C   0  0  0  0  0  3  0  0  0  0  0  0
  185.9590  178.8710  141.1110 S   0  0  0  0  0  0  0  0  0  0  0  0
  185.5640  178.8920  142.8960 C   0  0  2  0  0  3  0  0  0  0  0  0
  185.7960  177.5400  143.5810 C   0  0  0  0  0  2  0  0  0  0  0  0
  189.2590  177.3560  145.1160 C   0  0  0  0  0  3  0  0  0  0  0  0
  186.8990  177.5430  144.5920 C   0  0  0  0  0  0  0  0  0  0  0  0
  187.6500  177.7140  146.8910 C   0  0  0  0  0  0  0  0  0  0  0  0
  188.2230  177.3580  144.1770 C   0  0  0  0  0  3  0  0  0  0  0  0
  186.6140  177.7160  145.9510 C   0  0  0  0  0  3  0  0  0  0  0  0
  187.3730  177.8850  148.2050 F   0  0  0  0  0  0  0  0  0  0  0  0
  188.9720  177.5340  146.4730 C   0  0  0  0  0  3  0  0  0  0  0  0
  184.2190  179.5470  143.2250 C   0  0  0  0  0  2  0  0  0  0  0  0
  181.9560  178.8320  143.9300 C   0  0  0  0  0  1  0  0  0  0  0  0
  183.4290  178.7830  144.2740 C   0  0  0  0  0  2  0  0  0  0  0  0
  1 12  1  6  0  0  0
  1  3  1  0  0  0  0
  1  9  1  0  0  0  0
  2  4  1  6  0  0  0
  3  9  1  0  0  0  0
  3  2  1  0  0  0  0
  5  2  1  0  0  0  0
  6 16  1  0  0  0  0
  7  6  1  0  0  0  0
  8  5  2  0  0  0  0
  9  6  1  0  0  0  0
 10  1  1  0  0  0  0
 10  5  1  0  0  0  0
 10  7  1  0  0  0  0
 12 11  2  0  0  0  0
 13 14  1  0  0  0  0
 13 11  1  0  0  0  0
 14 15  3  0  0  0  0
 16 17  1  0  0  0  0
 17 26  1  0  0  0  0
 17 18  1  0  0  0  0
 18 20  1  0  0  0  0
 19 25  1  0  0  0  0
 20 23  2  0  0  0  0
 21 24  1  0  0  0  0
 22 20  1  0  0  0  0
 22 19  2  0  0  0  0
 23 21  1  0  0  0  0
 25 21  2  0  0  0  0
 26 28  1  0  0  0  0
 27 28  1  0  0  0  0
M  END
>  <MODEL>
4

>  <REMARK>
 VINA RESULT:      -6.9      4.308      6.367
  Name = 
  9 active torsions:
  status: ('A' for Active; 'I' for Inactive)
    1  A    between atoms: C_1  and  C_11
    2  A    between atoms: C_6  and  N_8
    3  A    between atoms: C_6  and  C_22
    4  A    between atoms: C_9  and  C_18
    5  A    between atoms: C_10  and  S_14
    6  A    between atoms: C_10  and  C_18
    7  A    between atoms: C_10  and  C_25
    8  A    between atoms: S_14  and  C_17
    9  A    between atoms: C_20  and  C_25
                            x       y       z     vdW  Elec       q    Type
                         _______ _______ _______ _____ _____    ______ ____

>  <TORSDO>
F 9

$$$$
=
 OpenBabel10272402023D

 28 31  0  0  1  0  0  0  0  0999 V2000
  188.6540  177.3320  143.7670 C   0  0  2  0  0  0  0  0  0  0  0  0
  190.8830  176.4680  143.4190 C   0  0  2  0  0  3  0  0  0  0  0  0
  189.4030  176.0640  143.4390 C   0  0  2  0  0  3  0  0  0  0  0  0
  191.5740  175.7190  144.3710 O   0  0  0  0  0  1  0  0  0  0  0  0
  190.9100  177.9140  143.7950 C   0  0  0  0  0  0  0  0  0  0  0  0
  189.1050  177.7510  141.4510 C   0  0  1  0  0  3  0  0  0  0  0  0
  189.3600  179.0170  142.2690 C   0  0  0  0  0  2  0  0  0  0  0  0
  192.0340  178.6300  143.8080 C   0  0  0  0  0  2  0  0  0  0  0  0
  188.4610  176.7380  142.3970 C   0  0  2  0  0  3  0  0  0  0  0  0
  189.5610  178.5380  143.6990 C   0  0  1  0  0  3  0  0  0  0  0  0
  187.4050  178.0310  145.7050 N   0  0  0  0  0  0  0  0  0  0  0  0
  187.5070  177.2220  144.7140 C   0  0  0  0  0  3  0  0  0  0  0  0
  186.2990  177.9370  146.6220 C   0  0  0  0  0  2  0  0  0  0  0  0
  185.0690  178.4300  145.9900 C   0  0  0  0  0  0  0  0  0  0  0  0
  184.0590  178.8340  145.4710 C   0  0  0  0  0  3  0  0  0  0  0  0
  187.9750  178.1190  140.0800 S   0  0  0  0  0  0  0  0  0  0  0  0
  189.2340  177.7520  138.8060 C   0  0  2  0  0  3  0  0  0  0  0  0
  190.6120  177.4320  139.3960 C   0  0  0  0  0  2  0  0  0  0  0  0
  193.5050  175.6420  137.7190 C   0  0  0  0  0  3  0  0  0  0  0  0
  191.3920  176.4150  138.6230 C   0  0  0  0  0  0  0  0  0  0  0  0
  191.4860  174.3570  137.3450 C   0  0  0  0  0  0  0  0  0  0  0  0
  192.7700  176.5860  138.4430 C   0  0  0  0  0  3  0  0  0  0  0  0
  190.7510  175.3010  138.0690 C   0  0  0  0  0  3  0  0  0  0  0  0
  190.8640  173.2780  136.8130 F   0  0  0  0  0  0  0  0  0  0  0  0
  192.8630  174.5270  137.1710 C   0  0  0  0  0  3  0  0  0  0  0  0
  189.2570  178.7560  137.6500 C   0  0  0  0  0  2  0  0  0  0  0  0
  189.3120  177.4570  135.5430 C   0  0  0  0  0  1  0  0  0  0  0  0
  188.4420  178.2980  136.4510 C   0  0  0  0  0  2  0  0  0  0  0  0
  1 12  1  1  0  0  0
  2  3  1  0  0  0  0
  2  5  1  0  0  0  0
  2  4  1  1  0  0  0
  3  1  1  0  0  0  0
  5  8  2  0  0  0  0
  6  7  1  0  0  0  0
  6  9  1  0  0  0  0
  7 10  1  0  0  0  0
  9  3  1  0  0  0  0
  9  1  1  0  0  0  0
 10  1  1  0  0  0  0
 10  5  1  0  0  0  0
 11 13  1  0  0  0  0
 12 11  2  0  0  0  0
 14 13  1  0  0  0  0
 15 14  3  0  0  0  0
 16  6  1  0  0  0  0
 17 18  1  0  0  0  0
 17 16  1  0  0  0  0
 19 22  1  0  0  0  0
 20 18  1  0  0  0  0
 21 23  2  0  0  0  0
 22 20  2  0  0  0  0
 23 20  1  0  0  0  0
 24 21  1  0  0  0  0
 25 21  1  0  0  0  0
 25 19  2  0  0  0  0
 26 17  1  0  0  0  0
 27 28  1  0  0  0  0
 28 26  1  0  0  0  0
M  END
>  <MODEL>
5

>  <REMARK>
 VINA RESULT:      -6.6      3.284      7.559
  Name = 
  9 active torsions:
  status: ('A' for Active; 'I' for Inactive)
    1  A    between atoms: C_1  and  C_11
    2  A    between atoms: C_6  and  N_8
    3  A    between atoms: C_6  and  C_22
    4  A    between atoms: C_9  and  C_18
    5  A    between atoms: C_10  and  S_14
    6  A    between atoms: C_10  and  C_18
    7  A    between atoms: C_10  and  C_25
    8  A    between atoms: S_14  and  C_17
    9  A    between atoms: C_20  and  C_25
                            x       y       z     vdW  Elec       q    Type
                         _______ _______ _______ _____ _____    ______ ____

>  <TORSDO>
F 9

$$$$
=
 OpenBabel10272402023D

 28 31  0  0  1  0  0  0  0  0999 V2000
  190.3530  177.0260  138.2460 C   0  0  2  0  0  0  0  0  0  0  0  0
  188.3190  175.9740  137.4750 C   0  0  2  0  0  3  0  0  0  0  0  0
  189.5520  175.7530  138.3620 C   0  0  2  0  0  3  0  0  0  0  0  0
  188.2890  174.9950  136.4820 O   0  0  0  0  0  1  0  0  0  0  0  0
  188.5080  177.3200  136.8540 C   0  0  0  0  0  0  0  0  0  0  0  0
  188.6700  177.7800  139.7760 C   0  0  1  0  0  3  0  0  0  0  0  0
  188.9210  178.8460  138.7100 C   0  0  0  0  0  2  0  0  0  0  0  0
  187.5880  177.8840  136.0710 C   0  0  0  0  0  2  0  0  0  0  0  0
  189.7380  176.7030  139.5820 C   0  0  2  0  0  3  0  0  0  0  0  0
  189.5660  178.1080  137.5470 C   0  0  1  0  0  3  0  0  0  0  0  0
  192.3530  176.1150  137.2590 N   0  0  0  0  0  0  0  0  0  0  0  0
  191.8350  176.8920  138.1400 C   0  0  0  0  0  3  0  0  0  0  0  0
  193.7820  175.9820  137.1450 C   0  0  0  0  0  2  0  0  0  0  0  0
  194.2130  174.6640  137.6280 C   0  0  0  0  0  0  0  0  0  0  0  0
  194.5660  173.5830  138.0270 C   0  0  0  0  0  3  0  0  0  0  0  0
  188.8250  178.5100  141.4300 S   0  0  0  0  0  0  0  0  0  0  0  0
  189.5750  177.0030  142.1400 C   0  0  2  0  0  3  0  0  0  0  0  0
  188.5850  176.1640  142.9570 C   0  0  0  0  0  2  0  0  0  0  0  0
  187.2730  178.0340  145.9850 C   0  0  0  0  0  3  0  0  0  0  0  0
  187.6880  176.9640  143.8490 C   0  0  0  0  0  0  0  0  0  0  0  0
  185.5950  178.1220  144.2410 C   0  0  0  0  0  0  0  0  0  0  0  0
  188.1070  177.2890  145.1440 C   0  0  0  0  0  3  0  0  0  0  0  0
  186.4280  177.3780  143.4000 C   0  0  0  0  0  3  0  0  0  0  0  0
  184.3780  178.5240  143.8030 F   0  0  0  0  0  0  0  0  0  0  0  0
  186.0170  178.4510  145.5320 C   0  0  0  0  0  3  0  0  0  0  0  0
  190.9200  177.2470  142.8320 C   0  0  0  0  0  2  0  0  0  0  0  0
  191.6050  176.5490  145.1060 C   0  0  0  0  0  1  0  0  0  0  0  0
  191.3670  176.0750  143.6890 C   0  0  0  0  0  2  0  0  0  0  0  0
  1 12  1  6  0  0  0
  1  3  1  0  0  0  0
  1  9  1  0  0  0  0
  2  4  1  6  0  0  0
  2  3  1  0  0  0  0
  3  9  1  0  0  0  0
  5  2  1  0  0  0  0
  5 10  1  0  0  0  0
  6 16  1  0  0  0  0
  7  6  1  0  0  0  0
  8  5  2  0  0  0  0
  9  6  1  0  0  0  0
 10  1  1  0  0  0  0
 10  7  1  0  0  0  0
 11 12  2  0  0  0  0
 13 11  1  0  0  0  0
 13 14  1  0  0  0  0
 14 15  3  0  0  0  0
 16 17  1  0  0  0  0
 17 26  1  0  0  0  0
 17 18  1  0  0  0  0
 18 20  1  0  0  0  0
 20 22  1  0  0  0  0
 21 25  2  0  0  0  0
 22 19  2  0  0  0  0
 23 20  2  0  0  0  0
 23 21  1  0  0  0  0
 24 21  1  0  0  0  0
 25 19  1  0  0  0  0
 26 28  1  0  0  0  0
 28 27  1  0  0  0  0
M  END
>  <MODEL>
6

>  <REMARK>
 VINA RESULT:      -6.5      3.331      5.850
  Name = 
  9 active torsions:
  status: ('A' for Active; 'I' for Inactive)
    1  A    between atoms: C_1  and  C_11
    2  A    between atoms: C_6  and  N_8
    3  A    between atoms: C_6  and  C_22
    4  A    between atoms: C_9  and  C_18
    5  A    between atoms: C_10  and  S_14
    6  A    between atoms: C_10  and  C_18
    7  A    between atoms: C_10  and  C_25
    8  A    between atoms: S_14  and  C_17
    9  A    between atoms: C_20  and  C_25
                            x       y       z     vdW  Elec       q    Type
                         _______ _______ _______ _____ _____    ______ ____

>  <TORSDO>
F 9

$$$$
=
 OpenBabel10272402023D

 28 31  0  0  1  0  0  0  0  0999 V2000
  190.2720  176.7200  137.5440 C   0  0  2  0  0  0  0  0  0  0  0  0
  187.9630  176.0370  137.7360 C   0  0  2  0  0  3  0  0  0  0  0  0
  189.4010  175.5010  137.7210 C   0  0  2  0  0  3  0  0  0  0  0  0
  187.2460  175.4500  136.6920 O   0  0  0  0  0  1  0  0  0  0  0  0
  188.0800  177.5080  137.5040 C   0  0  0  0  0  0  0  0  0  0  0  0
  189.7690  176.9560  139.8740 C   0  0  1  0  0  3  0  0  0  0  0  0
  189.6600  178.3110  139.1780 C   0  0  0  0  0  2  0  0  0  0  0  0
  187.0270  178.3240  137.5260 C   0  0  0  0  0  2  0  0  0  0  0  0
  190.3560  175.9810  138.8530 C   0  0  2  0  0  3  0  0  0  0  0  0
  189.4750  177.9920  137.7020 C   0  0  1  0  0  3  0  0  0  0  0  0
  192.5370  176.0690  137.0430 N   0  0  0  0  0  0  0  0  0  0  0  0
  191.4420  176.5940  136.6270 C   0  0  0  0  0  3  0  0  0  0  0  0
  193.6700  175.9380  136.1640 C   0  0  0  0  0  2  0  0  0  0  0  0
  194.6690  175.0360  136.7510 C   0  0  0  0  0  0  0  0  0  0  0  0
  195.4890  174.2950  137.2330 C   0  0  0  0  0  3  0  0  0  0  0  0
  190.8710  177.0830  141.3100 S   0  0  0  0  0  0  0  0  0  0  0  0
  189.5600  177.7620  142.3880 C   0  0  2  0  0  3  0  0  0  0  0  0
  190.1070  178.6240  143.5320 C   0  0  0  0  0  2  0  0  0  0  0  0
  189.2520  177.3690  147.0070 C   0  0  0  0  0  3  0  0  0  0  0  0
  190.2060  177.9150  144.8460 C   0  0  0  0  0  0  0  0  0  0  0  0
  191.4240  176.4940  146.3870 C   0  0  0  0  0  0  0  0  0  0  0  0
  189.1660  178.0270  145.7760 C   0  0  0  0  0  3  0  0  0  0  0  0
  191.3370  177.1510  145.1550 C   0  0  0  0  0  3  0  0  0  0  0  0
  192.5180  175.7520  146.6830 F   0  0  0  0  0  0  0  0  0  0  0  0
  190.3820  176.6020  147.3120 C   0  0  0  0  0  3  0  0  0  0  0  0
  188.5130  176.7290  142.8170 C   0  0  0  0  0  2  0  0  0  0  0  0
  186.9580  178.4150  141.8860 C   0  0  0  0  0  1  0  0  0  0  0  0
  187.1110  177.3080  142.9060 C   0  0  0  0  0  2  0  0  0  0  0  0
  1 12  1  6  0  0  0
  1 10  1  0  0  0  0
  1  3  1  0  0  0  0
  1  9  1  0  0  0  0
  2  4  1  6  0  0  0
  3  2  1  0  0  0  0
  3  9  1  0  0  0  0
  5  8  2  0  0  0  0
  5 10  1  0  0  0  0
  5  2  1  0  0  0  0
  6 16  1  0  0  0  0
  7  6  1  0  0  0  0
  9  6  1  0  0  0  0
 10  7  1  0  0  0  0
 12 11  2  0  0  0  0
 13 14  1  0  0  0  0
 13 11  1  0  0  0  0
 14 15  3  0  0  0  0
 16 17  1  0  0  0  0
 17 26  1  0  0  0  0
 17 18  1  0  0  0  0
 18 20  1  0  0  0  0
 19 25  1  0  0  0  0
 20 23  2  0  0  0  0
 20 22  1  0  0  0  0
 21 24  1  0  0  0  0
 21 25  2  0  0  0  0
 22 19  2  0  0  0  0
 23 21  1  0  0  0  0
 26 28  1  0  0  0  0
 27 28  1  0  0  0  0
M  END
>  <MODEL>
7

>  <REMARK>
 VINA RESULT:      -6.5      3.319      5.194
  Name = 
  9 active torsions:
  status: ('A' for Active; 'I' for Inactive)
    1  A    between atoms: C_1  and  C_11
    2  A    between atoms: C_6  and  N_8
    3  A    between atoms: C_6  and  C_22
    4  A    between atoms: C_9  and  C_18
    5  A    between atoms: C_10  and  S_14
    6  A    between atoms: C_10  and  C_18
    7  A    between atoms: C_10  and  C_25
    8  A    between atoms: S_14  and  C_17
    9  A    between atoms: C_20  and  C_25
                            x       y       z     vdW  Elec       q    Type
                         _______ _______ _______ _____ _____    ______ ____

>  <TORSDO>
F 9

$$$$
=
 OpenBabel10272402023D

 28 31  0  0  1  0  0  0  0  0999 V2000
  188.7550  177.4340  143.8940 C   0  0  2  0  0  0  0  0  0  0  0  0
  190.1440  175.8500  142.7110 C   0  0  2  0  0  3  0  0  0  0  0  0
  188.8030  175.9950  143.4450 C   0  0  2  0  0  3  0  0  0  0  0  0
  190.9090  174.8730  143.3490 O   0  0  0  0  0  1  0  0  0  0  0  0
  190.8140  177.1790  142.8340 C   0  0  0  0  0  0  0  0  0  0  0  0
  188.1870  177.7440  141.5880 C   0  0  1  0  0  3  0  0  0  0  0  0
  189.1910  178.8090  142.0240 C   0  0  0  0  0  2  0  0  0  0  0  0
  191.9790  177.4510  142.2480 C   0  0  0  0  0  2  0  0  0  0  0  0
  187.7650  176.9920  142.8500 C   0  0  2  0  0  3  0  0  0  0  0  0
  189.8640  178.2430  143.2660 C   0  0  1  0  0  3  0  0  0  0  0  0
  186.9690  177.9690  145.4210 N   0  0  0  0  0  0  0  0  0  0  0  0
  188.2150  177.7040  145.2590 C   0  0  0  0  0  3  0  0  0  0  0  0
  186.4370  178.2260  146.7340 C   0  0  0  0  0  2  0  0  0  0  0  0
  187.4850  178.0700  147.7490 C   0  0  0  0  0  0  0  0  0  0  0  0
  188.3470  177.9410  148.5820 C   0  0  0  0  0  3  0  0  0  0  0  0
  186.7400  178.5330  140.8270 S   0  0  0  0  0  0  0  0  0  0  0  0
  187.2420  178.0610  139.1340 C   0  0  2  0  0  3  0  0  0  0  0  0
  188.6070  178.6300  138.7290 C   0  0  0  0  0  2  0  0  0  0  0  0
  190.1250  176.7520  135.8050 C   0  0  0  0  0  3  0  0  0  0  0  0
  189.4590  177.6860  137.9410 C   0  0  0  0  0  0  0  0  0  0  0  0
  191.1630  175.9630  137.8460 C   0  0  0  0  0  0  0  0  0  0  0  0
  189.3340  177.6340  136.5480 C   0  0  0  0  0  3  0  0  0  0  0  0
  190.3710  176.8450  138.5890 C   0  0  0  0  0  3  0  0  0  0  0  0
  192.0470  175.1530  138.4750 F   0  0  0  0  0  0  0  0  0  0  0  0
  191.0400  175.9170  136.4540 C   0  0  0  0  0  3  0  0  0  0  0  0
  186.1400  178.2480  138.0860 C   0  0  0  0  0  2  0  0  0  0  0  0
  185.8040  177.2440  135.8480 C   0  0  0  0  0  1  0  0  0  0  0  0
  185.8120  176.9680  137.3350 C   0  0  0  0  0  2  0  0  0  0  0  0
  1 12  1  1  0  0  0
  2  5  1  0  0  0  0
  2  4  1  1  0  0  0
  2  3  1  0  0  0  0
  3  1  1  0  0  0  0
  5 10  1  0  0  0  0
  6  7  1  0  0  0  0
  6  9  1  0  0  0  0
  7 10  1  0  0  0  0
  8  5  2  0  0  0  0
  9  3  1  0  0  0  0
  9  1  1  0  0  0  0
 10  1  1  0  0  0  0
 11 13  1  0  0  0  0
 12 11  2  0  0  0  0
 13 14  1  0  0  0  0
 14 15  3  0  0  0  0
 16  6  1  0  0  0  0
 17 16  1  0  0  0  0
 18 17  1  0  0  0  0
 19 25  2  0  0  0  0
 19 22  1  0  0  0  0
 20 23  1  0  0  0  0
 20 18  1  0  0  0  0
 21 24  1  0  0  0  0
 21 23  2  0  0  0  0
 22 20  2  0  0  0  0
 25 21  1  0  0  0  0
 26 17  1  0  0  0  0
 27 28  1  0  0  0  0
 28 26  1  0  0  0  0
M  END
>  <MODEL>
8

>  <REMARK>
 VINA RESULT:      -6.3      2.775      7.422
  Name = 
  9 active torsions:
  status: ('A' for Active; 'I' for Inactive)
    1  A    between atoms: C_1  and  C_11
    2  A    between atoms: C_6  and  N_8
    3  A    between atoms: C_6  and  C_22
    4  A    between atoms: C_9  and  C_18
    5  A    between atoms: C_10  and  S_14
    6  A    between atoms: C_10  and  C_18
    7  A    between atoms: C_10  and  C_25
    8  A    between atoms: S_14  and  C_17
    9  A    between atoms: C_20  and  C_25
                            x       y       z     vdW  Elec       q    Type
                         _______ _______ _______ _____ _____    ______ ____

>  <TORSDO>
F 9

$$$$
=
 OpenBabel10272402023D

 28 31  0  0  1  0  0  0  0  0999 V2000
  188.5390  177.7030  143.8140 C   0  0  2  0  0  0  0  0  0  0  0  0
  189.5650  175.9950  142.4470 C   0  0  2  0  0  3  0  0  0  0  0  0
  188.3670  176.2730  143.3660 C   0  0  2  0  0  3  0  0  0  0  0  0
  190.3040  174.9340  142.9700 O   0  0  0  0  0  1  0  0  0  0  0  0
  190.3850  177.2440  142.4690 C   0  0  0  0  0  0  0  0  0  0  0  0
  187.6830  178.1020  141.6130 C   0  0  1  0  0  3  0  0  0  0  0  0
  188.8480  179.0480  141.8980 C   0  0  0  0  0  2  0  0  0  0  0  0
  191.4770  177.3980  141.7210 C   0  0  0  0  0  2  0  0  0  0  0  0
  187.3670  177.3830  142.9250 C   0  0  2  0  0  3  0  0  0  0  0  0
  189.6270  178.3970  143.0310 C   0  0  1  0  0  3  0  0  0  0  0  0
  187.1720  177.5420  145.7920 N   0  0  0  0  0  0  0  0  0  0  0  0
  188.2330  178.0110  145.2410 C   0  0  0  0  0  3  0  0  0  0  0  0
  186.8690  177.8290  147.1700 C   0  0  0  0  0  2  0  0  0  0  0  0
  188.1070  177.9470  147.9500 C   0  0  0  0  0  0  0  0  0  0  0  0
  189.1240  178.0440  148.5900 C   0  0  0  0  0  3  0  0  0  0  0  0
  186.2350  179.0510  141.0660 S   0  0  0  0  0  0  0  0  0  0  0  0
  185.2010  178.4760  142.4590 C   0  0  2  0  0  3  0  0  0  0  0  0
  183.9690  177.6830  142.0080 C   0  0  0  0  0  2  0  0  0  0  0  0
  182.9270  177.2550  138.3870 C   0  0  0  0  0  3  0  0  0  0  0  0
  183.5060  177.9990  140.6210 C   0  0  0  0  0  0  0  0  0  0  0  0
  182.8050  179.6080  138.9490 C   0  0  0  0  0  0  0  0  0  0  0  0
  183.3570  176.9670  139.6870 C   0  0  0  0  0  3  0  0  0  0  0  0
  183.2340  179.3200  140.2480 C   0  0  0  0  0  3  0  0  0  0  0  0
  182.5390  180.8870  138.5920 F   0  0  0  0  0  0  0  0  0  0  0  0
  182.6510  178.5760  138.0190 C   0  0  0  0  0  3  0  0  0  0  0  0
  184.9100  179.5590  143.5030 C   0  0  0  0  0  2  0  0  0  0  0  0
  183.8370  178.7820  145.5950 C   0  0  0  0  0  1  0  0  0  0  0  0
  183.5840  179.3530  144.2170 C   0  0  0  0  0  2  0  0  0  0  0  0
  1 12  1  1  0  0  0
  2  5  1  0  0  0  0
  2  4  1  1  0  0  0
  2  3  1  0  0  0  0
  3  1  1  0  0  0  0
  5 10  1  0  0  0  0
  6  7  1  0  0  0  0
  6  9  1  0  0  0  0
  7 10  1  0  0  0  0
  8  5  2  0  0  0  0
  9  3  1  0  0  0  0
  9  1  1  0  0  0  0
 10  1  1  0  0  0  0
 11 13  1  0  0  0  0
 12 11  2  0  0  0  0
 13 14  1  0  0  0  0
 14 15  3  0  0  0  0
 16  6  1  0  0  0  0
 16 17  1  0  0  0  0
 17 26  1  0  0  0  0
 18 17  1  0  0  0  0
 19 22  1  0  0  0  0
 20 18  1  0  0  0  0
 21 23  2  0  0  0  0
 22 20  2  0  0  0  0
 23 20  1  0  0  0  0
 24 21  1  0  0  0  0
 25 19  2  0  0  0  0
 25 21  1  0  0  0  0
 26 28  1  0  0  0  0
 28 27  1  0  0  0  0
M  END
>  <MODEL>
9

>  <REMARK>
 VINA RESULT:      -6.3      3.596      6.936
  Name = 
  9 active torsions:
  status: ('A' for Active; 'I' for Inactive)
    1  A    between atoms: C_1  and  C_11
    2  A    between atoms: C_6  and  N_8
    3  A    between atoms: C_6  and  C_22
    4  A    between atoms: C_9  and  C_18
    5  A    between atoms: C_10  and  S_14
    6  A    between atoms: C_10  and  C_18
    7  A    between atoms: C_10  and  C_25
    8  A    between atoms: S_14  and  C_17
    9  A    between atoms: C_20  and  C_25
                            x       y       z     vdW  Elec       q    Type
                         _______ _______ _______ _____ _____    ______ ____

>  <TORSDO>
F 9

$$$$
