=
 OpenBabel10272413283D

 32 36  0  0  1  0  0  0  0  0999 V2000
  190.7810  176.0070  135.6270 C   0  0  1  0  0  3  0  0  0  0  0  0
  189.3160  177.1930  140.4100 C   0  0  0  0  0  0  0  0  0  0  0  0
  185.0180  179.2610  139.9520 C   0  0  0  0  0  3  0  0  0  0  0  0
  184.9080  179.3400  141.3040 N   0  0  0  0  0  0  0  0  0  0  0  0
  190.6100  176.5390  138.4660 C   0  0  0  0  0  0  0  0  0  0  0  0
  188.4320  177.5800  138.1790 C   0  0  0  0  0  3  0  0  0  0  0  0
  189.7140  176.9890  136.1250 C   0  0  0  0  0  2  0  0  0  0  0  0
  186.1260  178.7170  139.3860 N   0  0  0  0  0  0  0  0  0  0  0  0
  188.2880  177.6760  139.5700 C   0  0  0  0  0  0  0  0  0  0  0  0
  187.1450  178.2410  140.1540 C   0  0  0  0  0  0  0  0  0  0  0  0
  188.0970  177.8290  142.3560 C   0  0  0  0  0  0  0  0  0  0  0  0
  192.0630  176.1670  136.4410 C   0  0  0  0  0  2  0  0  0  0  0  0
  189.5770  177.0030  137.6220 C   0  0  0  0  0  0  0  0  0  0  0  0
  191.8250  175.8480  137.9180 C   0  0  0  0  0  2  0  0  0  0  0  0
  185.8970  178.8800  142.1130 C   0  0  0  0  0  3  0  0  0  0  0  0
  187.0480  178.3140  141.5580 C   0  0  0  0  0  0  0  0  0  0  0  0
  187.9940  177.8800  143.7860 N   0  0  0  0  0  2  0  0  0  0  0  0
  190.4630  176.6240  139.8540 C   0  0  0  0  0  3  0  0  0  0  0  0
  189.1900  177.2770  141.7610 N   0  0  0  0  0  0  0  0  0  0  0  0
  190.4610  177.6310  144.3270 C   0  0  1  0  0  3  0  0  0  0  0  0
  188.8110  177.3590  146.0550 C   0  0  0  0  0  0  0  0  0  0  0  0
  189.8870  177.1000  146.7690 C   0  0  0  0  0  3  0  0  0  0  0  0
  191.3980  177.0930  145.8070 S   0  0  0  0  0  0  0  0  0  0  0  0
  187.2100  177.4060  146.7680 Cl  0  0  0  0  0  0  0  0  0  0  0  0
  189.0470  177.6060  144.6790 N   0  0  0  0  0  0  0  0  0  0  0  0
  190.8910  179.0370  143.9250 C   0  0  0  0  0  2  0  0  0  0  0  0
  192.2120  179.2660  144.2670 F   0  0  0  0  0  0  0  0  0  0  0  0
  189.0870  174.3350  135.3600 C   0  0  0  0  0  3  0  0  0  0  0  0
  190.2990  174.6340  135.6970 N   0  0  0  0  0  0  0  0  0  0  0  0
  188.6030  172.9560  135.4340 C   0  0  0  0  0  0  0  0  0  0  0  0
  188.6650  172.1980  134.4300 O   0  0  0  0  0  0  0  0  0  0  0  0
  188.0320  172.4460  136.7070 C   0  0  0  0  0  1  0  0  0  0  0  0
  1 29  1  1  0  0  0
  1  7  1  0  0  0  0
  1 12  1  0  0  0  0
  2 19  1  0  0  0  0
  3  4  1  0  0  0  0
  4 15  2  0  0  0  0
  5 18  2  0  0  0  0
  6  9  1  0  0  0  0
  7 13  1  0  0  0  0
  8  3  2  0  0  0  0
  8 10  1  0  0  0  0
  9 10  1  0  0  0  0
  9  2  2  0  0  0  0
 10 16  2  0  0  0  0
 11 17  1  0  0  0  0
 12 14  1  0  0  0  0
 13  6  2  0  0  0  0
 13  5  1  0  0  0  0
 14  5  1  0  0  0  0
 16 15  1  0  0  0  0
 16 11  1  0  0  0  0
 17 25  1  0  0  0  0
 18  2  1  0  0  0  0
 19 11  2  0  0  0  0
 20 26  1  1  0  0  0
 20 25  1  0  0  0  0
 20 23  1  0  0  0  0
 21 24  1  0  0  0  0
 21 22  2  0  0  0  0
 23 22  1  0  0  0  0
 25 21  1  0  0  0  0
 26 27  1  0  0  0  0
 28 30  1  0  0  0  0
 28 29  2  0  0  0  0
 30 32  1  0  0  0  0
 31 30  2  0  0  0  0
M  END
>  <MODEL>
1

>  <REMARK>
 VINA RESULT:      -8.6      0.000      0.000
  Name = 
  4 active torsions:
  status: ('A' for Active; 'I' for Inactive)
    1  A    between atoms: C_1  and  C_10
    2  A    between atoms: C_2  and  N_24
    3  A    between atoms: C_6  and  C_7
    4  A    between atoms: N_27  and  N_32
                            x       y       z     vdW  Elec       q    Type
                         _______ _______ _______ _____ _____    ______ ____

>  <TORSDO>
F 4

$$$$
=
 OpenBabel10272413283D

 32 36  0  0  1  0  0  0  0  0999 V2000
  186.7210  178.0620  136.9840 C   0  0  1  0  0  3  0  0  0  0  0  0
  187.3810  177.9470  142.0810 C   0  0  0  0  0  0  0  0  0  0  0  0
  183.1850  179.3250  143.9420 C   0  0  0  0  0  3  0  0  0  0  0  0
  183.6610  179.0960  145.1930 N   0  0  0  0  0  0  0  0  0  0  0  0
  187.7530  177.9440  139.6850 C   0  0  0  0  0  0  0  0  0  0  0  0
  185.6040  178.6470  140.5780 C   0  0  0  0  0  3  0  0  0  0  0  0
  185.9150  178.7260  138.1060 C   0  0  0  0  0  2  0  0  0  0  0  0
  183.9750  179.1040  142.8580 N   0  0  0  0  0  0  0  0  0  0  0  0
  186.0650  178.4200  141.8810 C   0  0  0  0  0  0  0  0  0  0  0  0
  185.2510  178.6510  143.0000 C   0  0  0  0  0  0  0  0  0  0  0  0
  187.0780  177.9450  144.4440 C   0  0  0  0  0  0  0  0  0  0  0  0
  188.2170  178.2560  137.2280 C   0  0  0  0  0  2  0  0  0  0  0  0
  186.4320  178.3990  139.4790 C   0  0  0  0  0  0  0  0  0  0  0  0
  188.6550  177.5960  138.5360 C   0  0  0  0  0  2  0  0  0  0  0  0
  184.9270  178.6440  145.3870 C   0  0  0  0  0  3  0  0  0  0  0  0
  185.7620  178.4080  144.2910 C   0  0  0  0  0  0  0  0  0  0  0  0
  187.5960  177.6740  145.7550 N   0  0  0  0  0  2  0  0  0  0  0  0
  188.2100  177.7070  140.9840 C   0  0  0  0  0  3  0  0  0  0  0  0
  187.8410  177.7210  143.3400 N   0  0  0  0  0  0  0  0  0  0  0  0
  190.0160  177.3570  145.0580 C   0  0  1  0  0  3  0  0  0  0  0  0
  189.3960  177.2050  147.3760 C   0  0  0  0  0  0  0  0  0  0  0  0
  190.6780  176.9340  147.4980 C   0  0  0  0  0  3  0  0  0  0  0  0
  191.5410  176.8400  145.9310 S   0  0  0  0  0  0  0  0  0  0  0  0
  188.3350  177.3330  148.7670 Cl  0  0  0  0  0  0  0  0  0  0  0  0
  188.9440  177.3940  146.0450 N   0  0  0  0  0  0  0  0  0  0  0  0
  190.2180  178.7330  144.4320 C   0  0  0  0  0  2  0  0  0  0  0  0
  190.9940  178.6450  143.2890 F   0  0  0  0  0  0  0  0  0  0  0  0
  185.1750  176.2340  136.9330 C   0  0  0  0  0  3  0  0  0  0  0  0
  186.4000  176.6450  136.8790 N   0  0  0  0  0  0  0  0  0  0  0  0
  184.8540  174.8090  136.8300 C   0  0  0  0  0  0  0  0  0  0  0  0
  183.7580  174.4320  136.3360 O   0  0  0  0  0  0  0  0  0  0  0  0
  185.8310  173.8000  137.3120 C   0  0  0  0  0  1  0  0  0  0  0  0
  1 29  1  1  0  0  0
  1 12  1  0  0  0  0
  1  7  1  0  0  0  0
  2 19  1  0  0  0  0
  3  4  1  0  0  0  0
  4 15  2  0  0  0  0
  5 18  1  0  0  0  0
  6  9  2  0  0  0  0
  7 13  1  0  0  0  0
  8 10  1  0  0  0  0
  8  3  2  0  0  0  0
  9  2  1  0  0  0  0
  9 10  1  0  0  0  0
 10 16  2  0  0  0  0
 11 17  1  0  0  0  0
 12 14  1  0  0  0  0
 13  5  2  0  0  0  0
 13  6  1  0  0  0  0
 14  5  1  0  0  0  0
 16 11  1  0  0  0  0
 16 15  1  0  0  0  0
 17 25  1  0  0  0  0
 18  2  2  0  0  0  0
 19 11  2  0  0  0  0
 20 26  1  1  0  0  0
 20 23  1  0  0  0  0
 20 25  1  0  0  0  0
 21 22  2  0  0  0  0
 21 24  1  0  0  0  0
 23 22  1  0  0  0  0
 25 21  1  0  0  0  0
 27 26  1  0  0  0  0
 29 28  2  0  0  0  0
 30 28  1  0  0  0  0
 30 32  1  0  0  0  0
 31 30  2  0  0  0  0
M  END
>  <MODEL>
2

>  <REMARK>
 VINA RESULT:      -8.3      2.434      3.355
  Name = 
  4 active torsions:
  status: ('A' for Active; 'I' for Inactive)
    1  A    between atoms: C_1  and  C_10
    2  A    between atoms: C_2  and  N_24
    3  A    between atoms: C_6  and  C_7
    4  A    between atoms: N_27  and  N_32
                            x       y       z     vdW  Elec       q    Type
                         _______ _______ _______ _____ _____    ______ ____

>  <TORSDO>
F 4

$$$$
=
 OpenBabel10272413283D

 32 36  0  0  1  0  0  0  0  0999 V2000
  181.0360  179.3170  138.6320 C   0  0  1  0  0  3  0  0  0  0  0  0
  185.7040  178.5250  140.6340 C   0  0  0  0  0  0  0  0  0  0  0  0
  188.6430  178.0660  136.8770 C   0  0  0  0  0  3  0  0  0  0  0  0
  189.7080  177.9790  137.7160 N   0  0  0  0  0  0  0  0  0  0  0  0
  183.3110  178.7700  140.3350 C   0  0  0  0  0  0  0  0  0  0  0  0
  184.7580  178.5460  138.3960 C   0  0  0  0  0  3  0  0  0  0  0  0
  182.3060  178.7400  137.9950 C   0  0  0  0  0  2  0  0  0  0  0  0
  187.3890  178.2200  137.3760 N   0  0  0  0  0  0  0  0  0  0  0  0
  185.8770  178.4530  139.2340 C   0  0  0  0  0  0  0  0  0  0  0  0
  187.1710  178.2910  138.7180 C   0  0  0  0  0  0  0  0  0  0  0  0
  188.0470  178.2710  140.9890 C   0  0  0  0  0  0  0  0  0  0  0  0
  180.8130  178.6990  140.0110 C   0  0  0  0  0  2  0  0  0  0  0  0
  183.4800  178.7180  138.9340 C   0  0  0  0  0  0  0  0  0  0  0  0
  181.9680  179.0250  140.9570 C   0  0  0  0  0  2  0  0  0  0  0  0
  189.5430  178.0440  139.0630 C   0  0  0  0  0  3  0  0  0  0  0  0
  188.2640  178.2030  139.6040 C   0  0  0  0  0  0  0  0  0  0  0  0
  189.1580  178.2050  141.8950 N   0  0  0  0  0  2  0  0  0  0  0  0
  184.4270  178.6890  141.1720 C   0  0  0  0  0  3  0  0  0  0  0  0
  186.7800  178.4390  141.4600 N   0  0  0  0  0  0  0  0  0  0  0  0
  187.8890  177.5280  143.9870 C   0  0  1  0  0  3  0  0  0  0  0  0
  190.1310  178.3820  144.1560 C   0  0  0  0  0  0  0  0  0  0  0  0
  189.8840  178.2260  145.4390 C   0  0  0  0  0  3  0  0  0  0  0  0
  188.2130  177.6790  145.7840 S   0  0  0  0  0  0  0  0  0  0  0  0
  191.6910  178.9260  143.5680 Cl  0  0  0  0  0  0  0  0  0  0  0  0
  189.0500  178.0710  143.2920 N   0  0  0  0  0  0  0  0  0  0  0  0
  187.6780  176.0630  143.6200 C   0  0  0  0  0  2  0  0  0  0  0  0
  188.8530  175.4960  143.1570 F   0  0  0  0  0  0  0  0  0  0  0  0
  181.1270  181.5080  137.6680 C   0  0  0  0  0  3  0  0  0  0  0  0
  181.1150  180.7690  138.7290 N   0  0  0  0  0  0  0  0  0  0  0  0
  181.2090  182.9660  137.7670 C   0  0  0  0  0  0  0  0  0  0  0  0
  182.3070  183.5330  138.0090 O   0  0  0  0  0  0  0  0  0  0  0  0
  179.9830  183.7840  137.5780 C   0  0  0  0  0  1  0  0  0  0  0  0
  1 29  1  1  0  0  0
  1 12  1  0  0  0  0
  2 18  1  0  0  0  0
  2 19  1  0  0  0  0
  3  8  2  0  0  0  0
  3  4  1  0  0  0  0
  4 15  2  0  0  0  0
  5 14  1  0  0  0  0
  5 18  2  0  0  0  0
  6 13  2  0  0  0  0
  6  9  1  0  0  0  0
  7  1  1  0  0  0  0
  7 13  1  0  0  0  0
  8 10  1  0  0  0  0
  9  2  2  0  0  0  0
 10  9  1  0  0  0  0
 10 16  2  0  0  0  0
 11 19  2  0  0  0  0
 11 17  1  0  0  0  0
 12 14  1  0  0  0  0
 13  5  1  0  0  0  0
 15 16  1  0  0  0  0
 16 11  1  0  0  0  0
 17 25  1  0  0  0  0
 20 26  1  6  0  0  0
 20 23  1  0  0  0  0
 21 22  2  0  0  0  0
 22 23  1  0  0  0  0
 24 21  1  0  0  0  0
 25 20  1  0  0  0  0
 25 21  1  0  0  0  0
 27 26  1  0  0  0  0
 28 30  1  0  0  0  0
 28 29  2  0  0  0  0
 30 31  2  0  0  0  0
 32 30  1  0  0  0  0
M  END
>  <MODEL>
3

>  <REMARK>
 VINA RESULT:      -7.7      3.967      7.133
  Name = 
  4 active torsions:
  status: ('A' for Active; 'I' for Inactive)
    1  A    between atoms: C_1  and  C_10
    2  A    between atoms: C_2  and  N_24
    3  A    between atoms: C_6  and  C_7
    4  A    between atoms: N_27  and  N_32
                            x       y       z     vdW  Elec       q    Type
                         _______ _______ _______ _____ _____    ______ ____

>  <TORSDO>
F 4

$$$$
=
 OpenBabel10272413283D

 32 36  0  0  1  0  0  0  0  0999 V2000
  192.6560  175.6940  135.3340 C   0  0  1  0  0  3  0  0  0  0  0  0
  190.3910  176.9160  139.7830 C   0  0  0  0  0  0  0  0  0  0  0  0
  186.1180  178.7250  138.5850 C   0  0  0  0  0  3  0  0  0  0  0  0
  185.7910  178.8320  139.8990 N   0  0  0  0  0  0  0  0  0  0  0  0
  192.0090  176.2880  138.0910 C   0  0  0  0  0  0  0  0  0  0  0  0
  189.8540  177.1960  137.4300 C   0  0  0  0  0  3  0  0  0  0  0  0
  191.4750  176.6260  135.6240 C   0  0  0  0  0  2  0  0  0  0  0  0
  187.3290  178.2300  138.2190 N   0  0  0  0  0  0  0  0  0  0  0  0
  189.4860  177.3190  138.7760 C   0  0  0  0  0  0  0  0  0  0  0  0
  188.2370  177.8330  139.1540 C   0  0  0  0  0  0  0  0  0  0  0  0
  188.8460  177.5320  141.4900 C   0  0  0  0  0  0  0  0  0  0  0  0
  193.7830  175.9470  136.3340 C   0  0  0  0  0  2  0  0  0  0  0  0
  191.1010  176.6700  137.0790 C   0  0  0  0  0  0  0  0  0  0  0  0
  193.3300  175.6530  137.7640 C   0  0  0  0  0  2  0  0  0  0  0  0
  186.6620  178.4490  140.8690 C   0  0  0  0  0  3  0  0  0  0  0  0
  187.9140  177.9360  140.5220 C   0  0  0  0  0  0  0  0  0  0  0  0
  188.5150  177.6140  142.8840 N   0  0  0  0  0  2  0  0  0  0  0  0
  191.6400  176.3990  139.4340 C   0  0  0  0  0  3  0  0  0  0  0  0
  190.0480  177.0280  141.0940 N   0  0  0  0  0  0  0  0  0  0  0  0
  190.8760  177.4820  143.8070 C   0  0  1  0  0  3  0  0  0  0  0  0
  188.9890  177.2350  145.2760 C   0  0  0  0  0  0  0  0  0  0  0  0
  189.9480  177.0500  146.1580 C   0  0  0  0  0  3  0  0  0  0  0  0
  191.5900  177.0530  145.4390 S   0  0  0  0  0  0  0  0  0  0  0  0
  187.2960  177.2560  145.7340 Cl  0  0  0  0  0  0  0  0  0  0  0  0
  189.4260  177.4220  143.9400 N   0  0  0  0  0  0  0  0  0  0  0  0
  191.3210  178.8830  143.4000 C   0  0  0  0  0  2  0  0  0  0  0  0
  190.7600  179.8400  144.2270 F   0  0  0  0  0  0  0  0  0  0  0  0
  193.1110  173.3420  135.3110 C   0  0  0  0  0  3  0  0  0  0  0  0
  192.2420  174.2970  135.3750 N   0  0  0  0  0  0  0  0  0  0  0  0
  192.6940  171.9400  135.3490 C   0  0  0  0  0  0  0  0  0  0  0  0
  193.4600  171.0540  135.8110 O   0  0  0  0  0  0  0  0  0  0  0  0
  191.3520  171.5600  134.8370 C   0  0  0  0  0  1  0  0  0  0  0  0
  1 29  1  1  0  0  0
  1  7  1  0  0  0  0
  1 12  1  0  0  0  0
  2 19  1  0  0  0  0
  3  4  1  0  0  0  0
  4 15  2  0  0  0  0
  5 18  2  0  0  0  0
  6  9  1  0  0  0  0
  7 13  1  0  0  0  0
  8  3  2  0  0  0  0
  8 10  1  0  0  0  0
  9 10  1  0  0  0  0
  9  2  2  0  0  0  0
 10 16  2  0  0  0  0
 11 17  1  0  0  0  0
 12 14  1  0  0  0  0
 13  6  2  0  0  0  0
 13  5  1  0  0  0  0
 14  5  1  0  0  0  0
 16 15  1  0  0  0  0
 16 11  1  0  0  0  0
 17 25  1  0  0  0  0
 18  2  1  0  0  0  0
 19 11  2  0  0  0  0
 20 26  1  1  0  0  0
 20 25  1  0  0  0  0
 20 23  1  0  0  0  0
 21 24  1  0  0  0  0
 21 22  2  0  0  0  0
 23 22  1  0  0  0  0
 25 21  1  0  0  0  0
 26 27  1  0  0  0  0
 28 30  1  0  0  0  0
 28 29  2  0  0  0  0
 30 31  2  0  0  0  0
 32 30  1  0  0  0  0
M  END
>  <MODEL>
4

>  <REMARK>
 VINA RESULT:      -7.2      1.768      2.034
  Name = 
  4 active torsions:
  status: ('A' for Active; 'I' for Inactive)
    1  A    between atoms: C_1  and  C_10
    2  A    between atoms: C_2  and  N_24
    3  A    between atoms: C_6  and  C_7
    4  A    between atoms: N_27  and  N_32
                            x       y       z     vdW  Elec       q    Type
                         _______ _______ _______ _____ _____    ______ ____

>  <TORSDO>
F 4

$$$$
=
 OpenBabel10272413283D

 32 36  0  0  1  0  0  0  0  0999 V2000
  191.6070  178.3060  144.0740 C   0  0  1  0  0  3  0  0  0  0  0  0
  189.4880  176.8490  139.6230 C   0  0  0  0  0  0  0  0  0  0  0  0
  193.1630  176.1620  136.6250 C   0  0  0  0  0  3  0  0  0  0  0  0
  192.3040  175.7250  135.6670 N   0  0  0  0  0  0  0  0  0  0  0  0
  189.8380  177.7020  141.8650 C   0  0  0  0  0  0  0  0  0  0  0  0
  191.7370  177.3660  140.3860 C   0  0  0  0  0  3  0  0  0  0  0  0
  192.1850  178.2960  142.6550 C   0  0  0  0  0  2  0  0  0  0  0  0
  192.6930  176.5510  137.8390 N   0  0  0  0  0  0  0  0  0  0  0  0
  190.8780  176.9110  139.3770 C   0  0  0  0  0  0  0  0  0  0  0  0
  191.3620  176.5130  138.1220 C   0  0  0  0  0  0  0  0  0  0  0  0
  189.0820  176.0240  137.4250 C   0  0  0  0  0  0  0  0  0  0  0  0
  190.1940  178.8850  144.0620 C   0  0  0  0  0  2  0  0  0  0  0  0
  191.2300  177.7480  141.6320 C   0  0  0  0  0  0  0  0  0  0  0  0
  189.2540  178.0330  143.2090 C   0  0  0  0  0  2  0  0  0  0  0  0
  190.9670  175.6690  135.9010 C   0  0  0  0  0  3  0  0  0  0  0  0
  190.4560  176.0620  137.1410 C   0  0  0  0  0  0  0  0  0  0  0  0
  188.1580  175.5450  136.4370 N   0  0  0  0  0  2  0  0  0  0  0  0
  188.9810  177.2380  140.8640 C   0  0  0  0  0  3  0  0  0  0  0  0
  188.6420  176.4080  138.6550 N   0  0  0  0  0  0  0  0  0  0  0  0
  185.9760  176.8160  136.1730 C   0  0  1  0  0  3  0  0  0  0  0  0
  185.9610  174.5320  136.9230 C   0  0  0  0  0  0  0  0  0  0  0  0
  184.6680  174.7680  136.9880 C   0  0  0  0  0  3  0  0  0  0  0  0
  184.2290  176.4590  136.5920 S   0  0  0  0  0  0  0  0  0  0  0  0
  186.6390  172.9550  137.2820 Cl  0  0  0  0  0  0  0  0  0  0  0  0
  186.7570  175.6400  136.5340 N   0  0  0  0  0  0  0  0  0  0  0  0
  186.1020  177.1070  134.6810 C   0  0  0  0  0  2  0  0  0  0  0  0
  186.6650  178.3530  134.4670 F   0  0  0  0  0  0  0  0  0  0  0  0
  191.9810  176.7610  145.8660 C   0  0  0  0  0  3  0  0  0  0  0  0
  191.6050  176.9650  144.6460 N   0  0  0  0  0  0  0  0  0  0  0  0
  191.9810  175.4140  146.4390 C   0  0  0  0  0  0  0  0  0  0  0  0
  192.3420  174.4230  145.7500 O   0  0  0  0  0  0  0  0  0  0  0  0
  191.5510  175.2160  147.8470 C   0  0  0  0  0  1  0  0  0  0  0  0
  1 29  1  6  0  0  0
  2 18  1  0  0  0  0
  3  8  1  0  0  0  0
  4 15  1  0  0  0  0
  4  3  2  0  0  0  0
  5 14  1  0  0  0  0
  6 13  2  0  0  0  0
  7  1  1  0  0  0  0
  8 10  2  0  0  0  0
  9  2  2  0  0  0  0
  9  6  1  0  0  0  0
 10  9  1  0  0  0  0
 11 19  2  0  0  0  0
 12  1  1  0  0  0  0
 13  5  1  0  0  0  0
 13  7  1  0  0  0  0
 14 12  1  0  0  0  0
 15 16  2  0  0  0  0
 16 11  1  0  0  0  0
 16 10  1  0  0  0  0
 17 25  1  0  0  0  0
 17 11  1  0  0  0  0
 18  5  2  0  0  0  0
 19  2  1  0  0  0  0
 20 26  1  6  0  0  0
 20 25  1  0  0  0  0
 20 23  1  0  0  0  0
 21 22  2  0  0  0  0
 21 24  1  0  0  0  0
 23 22  1  0  0  0  0
 25 21  1  0  0  0  0
 27 26  1  0  0  0  0
 28 30  1  0  0  0  0
 29 28  2  0  0  0  0
 30 32  1  0  0  0  0
 31 30  2  0  0  0  0
M  END
>  <MODEL>
5

>  <REMARK>
 VINA RESULT:      -6.8      4.681      8.452
  Name = 
  4 active torsions:
  status: ('A' for Active; 'I' for Inactive)
    1  A    between atoms: C_1  and  C_10
    2  A    between atoms: C_2  and  N_24
    3  A    between atoms: C_6  and  C_7
    4  A    between atoms: N_27  and  N_32
                            x       y       z     vdW  Elec       q    Type
                         _______ _______ _______ _____ _____    ______ ____

>  <TORSDO>
F 4

$$$$
=
 OpenBabel10272413283D

 32 36  0  0  1  0  0  0  0  0999 V2000
  180.8230  178.8280  139.7550 C   0  0  1  0  0  3  0  0  0  0  0  0
  185.3650  178.2010  142.0790 C   0  0  0  0  0  0  0  0  0  0  0  0
  184.4850  178.7140  146.7610 C   0  0  0  0  0  3  0  0  0  0  0  0
  185.7790  178.4090  147.0410 N   0  0  0  0  0  0  0  0  0  0  0  0
  183.6230  178.5400  140.4270 C   0  0  0  0  0  0  0  0  0  0  0  0
  183.1220  178.8070  142.7910 C   0  0  0  0  0  3  0  0  0  0  0  0
  181.2830  179.2260  141.1620 C   0  0  0  0  0  2  0  0  0  0  0  0
  184.0520  178.7430  145.4740 N   0  0  0  0  0  0  0  0  0  0  0  0
  184.4500  178.4960  143.1130 C   0  0  0  0  0  0  0  0  0  0  0  0
  184.8970  178.4690  144.4420 C   0  0  0  0  0  0  0  0  0  0  0  0
  187.1210  177.8710  143.6550 C   0  0  0  0  0  0  0  0  0  0  0  0
  181.8870  179.2090  138.7270 C   0  0  0  0  0  2  0  0  0  0  0  0
  182.6980  178.8170  141.4590 C   0  0  0  0  0  0  0  0  0  0  0  0
  183.1990  178.4690  138.9880 C   0  0  0  0  0  2  0  0  0  0  0  0
  186.6610  178.1290  146.0480 C   0  0  0  0  0  3  0  0  0  0  0  0
  186.2430  178.1510  144.7140 C   0  0  0  0  0  0  0  0  0  0  0  0
  188.4870  177.5240  143.9270 N   0  0  0  0  0  2  0  0  0  0  0  0
  184.9450  178.2190  140.7470 C   0  0  0  0  0  3  0  0  0  0  0  0
  186.6560  177.8960  142.3760 N   0  0  0  0  0  0  0  0  0  0  0  0
  189.2730  177.4530  141.5150 C   0  0  1  0  0  3  0  0  0  0  0  0
  190.8690  177.3390  143.3100 C   0  0  0  0  0  0  0  0  0  0  0  0
  191.7030  177.2210  142.2980 C   0  0  0  0  0  3  0  0  0  0  0  0
  190.8890  177.1530  140.7040 S   0  0  0  0  0  0  0  0  0  0  0  0
  191.4250  177.4100  144.9710 Cl  0  0  0  0  0  0  0  0  0  0  0  0
  189.4980  177.4130  142.9540 N   0  0  0  0  0  0  0  0  0  0  0  0
  188.7260  178.8120  141.0920 C   0  0  0  0  0  2  0  0  0  0  0  0
  188.5740  178.8770  139.7180 F   0  0  0  0  0  0  0  0  0  0  0  0
  180.4170  176.8000  138.5460 C   0  0  0  0  0  3  0  0  0  0  0  0
  180.5330  177.4020  139.6850 N   0  0  0  0  0  0  0  0  0  0  0  0
  180.1230  175.3680  138.4760 C   0  0  0  0  0  0  0  0  0  0  0  0
  179.9820  174.6890  139.5280 O   0  0  0  0  0  0  0  0  0  0  0  0
  179.9890  174.7110  137.1510 C   0  0  0  0  0  1  0  0  0  0  0  0
  1 29  1  1  0  0  0
  1  7  1  0  0  0  0
  2 19  1  0  0  0  0
  2  9  1  0  0  0  0
  3  4  1  0  0  0  0
  5 18  1  0  0  0  0
  5 13  2  0  0  0  0
  6  9  2  0  0  0  0
  7 13  1  0  0  0  0
  8  3  2  0  0  0  0
  9 10  1  0  0  0  0
 10 16  2  0  0  0  0
 10  8  1  0  0  0  0
 11 17  1  0  0  0  0
 11 16  1  0  0  0  0
 12 14  1  0  0  0  0
 12  1  1  0  0  0  0
 13  6  1  0  0  0  0
 14  5  1  0  0  0  0
 15  4  2  0  0  0  0
 16 15  1  0  0  0  0
 18  2  2  0  0  0  0
 19 11  2  0  0  0  0
 20 26  1  6  0  0  0
 20 25  1  0  0  0  0
 21 24  1  0  0  0  0
 22 21  2  0  0  0  0
 23 20  1  0  0  0  0
 23 22  1  0  0  0  0
 25 21  1  0  0  0  0
 25 17  1  0  0  0  0
 27 26  1  0  0  0  0
 28 29  2  0  0  0  0
 30 28  1  0  0  0  0
 30 31  2  0  0  0  0
 32 30  1  0  0  0  0
M  END
>  <MODEL>
6

>  <REMARK>
 VINA RESULT:      -6.7      4.433      6.802
  Name = 
  4 active torsions:
  status: ('A' for Active; 'I' for Inactive)
    1  A    between atoms: C_1  and  C_10
    2  A    between atoms: C_2  and  N_24
    3  A    between atoms: C_6  and  C_7
    4  A    between atoms: N_27  and  N_32
                            x       y       z     vdW  Elec       q    Type
                         _______ _______ _______ _____ _____    ______ ____

>  <TORSDO>
F 4

$$$$
=
 OpenBabel10272413283D

 32 36  0  0  1  0  0  0  0  0999 V2000
  191.2760  178.2640  144.0530 C   0  0  1  0  0  3  0  0  0  0  0  0
  189.8510  176.5740  139.4120 C   0  0  0  0  0  0  0  0  0  0  0  0
  193.8680  176.4770  136.8010 C   0  0  0  0  0  3  0  0  0  0  0  0
  193.1840  175.9320  135.7620 N   0  0  0  0  0  0  0  0  0  0  0  0
  189.8450  177.4380  141.6780 C   0  0  0  0  0  0  0  0  0  0  0  0
  191.9110  177.4060  140.3980 C   0  0  0  0  0  3  0  0  0  0  0  0
  191.9880  178.3600  142.6990 C   0  0  0  0  0  2  0  0  0  0  0  0
  193.2270  176.7760  137.9610 N   0  0  0  0  0  0  0  0  0  0  0  0
  191.2340  176.8430  139.3080 C   0  0  0  0  0  0  0  0  0  0  0  0
  191.8950  176.5380  138.1090 C   0  0  0  0  0  0  0  0  0  0  0  0
  189.7940  175.7290  137.1850 C   0  0  0  0  0  0  0  0  0  0  0  0
  189.8000  178.6300  143.8980 C   0  0  0  0  0  2  0  0  0  0  0  0
  191.2310  177.6910  141.5850 C   0  0  0  0  0  0  0  0  0  0  0  0
  189.0870  177.6610  142.9540 C   0  0  0  0  0  2  0  0  0  0  0  0
  191.8540  175.6770  135.8600 C   0  0  0  0  0  3  0  0  0  0  0  0
  191.1680  175.9730  137.0410 C   0  0  0  0  0  0  0  0  0  0  0  0
  189.0540  175.1330  136.1090 N   0  0  0  0  0  2  0  0  0  0  0  0
  189.1700  176.8660  140.5950 C   0  0  0  0  0  3  0  0  0  0  0  0
  189.1810  176.0270  138.3640 N   0  0  0  0  0  0  0  0  0  0  0  0
  186.9210  173.7570  136.0570 C   0  0  1  0  0  3  0  0  0  0  0  0
  186.8100  176.1590  136.1120 C   0  0  0  0  0  0  0  0  0  0  0  0
  185.5200  175.9050  136.0440 C   0  0  0  0  0  3  0  0  0  0  0  0
  185.1430  174.1610  135.8780 S   0  0  0  0  0  0  0  0  0  0  0  0
  187.4300  177.7920  136.2610 Cl  0  0  0  0  0  0  0  0  0  0  0  0
  187.6520  175.0180  136.0640 N   0  0  0  0  0  0  0  0  0  0  0  0
  187.1500  172.9950  137.3570 C   0  0  0  0  0  2  0  0  0  0  0  0
  185.9560  172.7890  138.0260 F   0  0  0  0  0  0  0  0  0  0  0  0
  191.9780  176.7530  145.7730 C   0  0  0  0  0  3  0  0  0  0  0  0
  191.4140  176.9300  144.6230 N   0  0  0  0  0  0  0  0  0  0  0  0
  192.1190  175.4120  146.3440 C   0  0  0  0  0  0  0  0  0  0  0  0
  192.3570  174.4210  145.6040 O   0  0  0  0  0  0  0  0  0  0  0  0
  191.9820  175.2210  147.8100 C   0  0  0  0  0  1  0  0  0  0  0  0
  1 29  1  6  0  0  0
  2 18  1  0  0  0  0
  3  8  1  0  0  0  0
  4 15  1  0  0  0  0
  4  3  2  0  0  0  0
  5 14  1  0  0  0  0
  6 13  2  0  0  0  0
  7  1  1  0  0  0  0
  8 10  2  0  0  0  0
  9  2  2  0  0  0  0
  9  6  1  0  0  0  0
 10  9  1  0  0  0  0
 11 19  2  0  0  0  0
 12  1  1  0  0  0  0
 13  5  1  0  0  0  0
 13  7  1  0  0  0  0
 14 12  1  0  0  0  0
 15 16  2  0  0  0  0
 16 11  1  0  0  0  0
 16 10  1  0  0  0  0
 17 11  1  0  0  0  0
 18  5  2  0  0  0  0
 19  2  1  0  0  0  0
 20 25  1  0  0  0  0
 20 26  1  1  0  0  0
 21 24  1  0  0  0  0
 22 21  2  0  0  0  0
 23 22  1  0  0  0  0
 23 20  1  0  0  0  0
 25 17  1  0  0  0  0
 25 21  1  0  0  0  0
 26 27  1  0  0  0  0
 28 30  1  0  0  0  0
 29 28  2  0  0  0  0
 30 32  1  0  0  0  0
 31 30  2  0  0  0  0
M  END
>  <MODEL>
7

>  <REMARK>
 VINA RESULT:      -6.7      4.683      8.572
  Name = 
  4 active torsions:
  status: ('A' for Active; 'I' for Inactive)
    1  A    between atoms: C_1  and  C_10
    2  A    between atoms: C_2  and  N_24
    3  A    between atoms: C_6  and  C_7
    4  A    between atoms: N_27  and  N_32
                            x       y       z     vdW  Elec       q    Type
                         _______ _______ _______ _____ _____    ______ ____

>  <TORSDO>
F 4

$$$$
=
 OpenBabel10272413283D

 32 36  0  0  1  0  0  0  0  0999 V2000
  187.8640  177.9390  135.9480 C   0  0  1  0  0  3  0  0  0  0  0  0
  188.0390  177.7690  141.0820 C   0  0  0  0  0  0  0  0  0  0  0  0
  183.6260  178.9230  142.5490 C   0  0  0  0  0  3  0  0  0  0  0  0
  183.9900  178.6950  143.8370 N   0  0  0  0  0  0  0  0  0  0  0  0
  188.6380  177.8230  138.7330 C   0  0  0  0  0  0  0  0  0  0  0  0
  186.3830  178.4130  139.4240 C   0  0  0  0  0  3  0  0  0  0  0  0
  186.9240  178.5470  136.9950 C   0  0  0  0  0  2  0  0  0  0  0  0
  184.5240  178.7570  141.5430 N   0  0  0  0  0  0  0  0  0  0  0  0
  186.7280  178.1860  140.7630 C   0  0  0  0  0  0  0  0  0  0  0  0
  185.8010  178.3610  141.8010 C   0  0  0  0  0  0  0  0  0  0  0  0
  187.5130  177.7140  143.4050 C   0  0  0  0  0  0  0  0  0  0  0  0
  189.3190  178.1970  136.3360 C   0  0  0  0  0  2  0  0  0  0  0  0
  187.3230  178.2210  138.4070 C   0  0  0  0  0  0  0  0  0  0  0  0
  189.6600  177.5360  137.6720 C   0  0  0  0  0  2  0  0  0  0  0  0
  185.2520  178.2990  144.1460 C   0  0  0  0  0  3  0  0  0  0  0  0
  186.1970  178.1190  143.1320 C   0  0  0  0  0  0  0  0  0  0  0  0
  187.9160  177.4450  144.7570 N   0  0  0  0  0  2  0  0  0  0  0  0
  188.9800  177.5850  140.0670 C   0  0  0  0  0  3  0  0  0  0  0  0
  188.3880  177.5430  142.3760 N   0  0  0  0  0  0  0  0  0  0  0  0
  189.8440  177.7890  146.3710 C   0  0  1  0  0  3  0  0  0  0  0  0
  190.0990  176.3310  144.4770 C   0  0  0  0  0  0  0  0  0  0  0  0
  191.3180  176.2330  144.9650 C   0  0  0  0  0  3  0  0  0  0  0  0
  191.6050  177.2850  146.3870 S   0  0  0  0  0  0  0  0  0  0  0  0
  189.5810  175.4120  143.0760 Cl  0  0  0  0  0  0  0  0  0  0  0  0
  189.2420  177.2220  145.1710 N   0  0  0  0  0  0  0  0  0  0  0  0
  189.1450  177.2670  147.6220 C   0  0  0  0  0  2  0  0  0  0  0  0
  189.0080  178.2700  148.5660 F   0  0  0  0  0  0  0  0  0  0  0  0
  186.4510  176.0070  136.0130 C   0  0  0  0  0  3  0  0  0  0  0  0
  187.6210  176.5110  135.7940 N   0  0  0  0  0  0  0  0  0  0  0  0
  186.2090  174.5710  135.8620 C   0  0  0  0  0  0  0  0  0  0  0  0
  185.8020  174.1000  134.7670 O   0  0  0  0  0  0  0  0  0  0  0  0
  186.4450  173.6620  137.0130 C   0  0  0  0  0  1  0  0  0  0  0  0
  1 29  1  1  0  0  0
  1 12  1  0  0  0  0
  1  7  1  0  0  0  0
  2 19  1  0  0  0  0
  3  4  1  0  0  0  0
  4 15  2  0  0  0  0
  5 18  1  0  0  0  0
  6  9  2  0  0  0  0
  7 13  1  0  0  0  0
  8 10  1  0  0  0  0
  8  3  2  0  0  0  0
  9  2  1  0  0  0  0
  9 10  1  0  0  0  0
 10 16  2  0  0  0  0
 11 17  1  0  0  0  0
 12 14  1  0  0  0  0
 13  5  2  0  0  0  0
 13  6  1  0  0  0  0
 14  5  1  0  0  0  0
 16 11  1  0  0  0  0
 16 15  1  0  0  0  0
 17 25  1  0  0  0  0
 18  2  2  0  0  0  0
 19 11  2  0  0  0  0
 20 23  1  0  0  0  0
 20 26  1  1  0  0  0
 21 22  2  0  0  0  0
 21 25  1  0  0  0  0
 22 23  1  0  0  0  0
 24 21  1  0  0  0  0
 25 20  1  0  0  0  0
 26 27  1  0  0  0  0
 29 28  2  0  0  0  0
 30 28  1  0  0  0  0
 30 32  1  0  0  0  0
 31 30  2  0  0  0  0
M  END
>  <MODEL>
8

>  <REMARK>
 VINA RESULT:      -6.5      2.224      2.775
  Name = 
  4 active torsions:
  status: ('A' for Active; 'I' for Inactive)
    1  A    between atoms: C_1  and  C_10
    2  A    between atoms: C_2  and  N_24
    3  A    between atoms: C_6  and  C_7
    4  A    between atoms: N_27  and  N_32
                            x       y       z     vdW  Elec       q    Type
                         _______ _______ _______ _____ _____    ______ ____

>  <TORSDO>
F 4

$$$$
=
 OpenBabel10272413283D

 32 36  0  0  1  0  0  0  0  0999 V2000
  189.9680  176.4110  137.7990 C   0  0  1  0  0  3  0  0  0  0  0  0
  184.8910  177.0950  137.3800 C   0  0  0  0  0  0  0  0  0  0  0  0
  183.0620  172.7120  136.7420 C   0  0  0  0  0  3  0  0  0  0  0  0
  181.8050  173.2280  136.7720 N   0  0  0  0  0  0  0  0  0  0  0  0
  187.2860  177.4530  137.4940 C   0  0  0  0  0  0  0  0  0  0  0  0
  186.4090  175.2090  137.1750 C   0  0  0  0  0  3  0  0  0  0  0  0
  188.8850  175.4890  137.2280 C   0  0  0  0  0  2  0  0  0  0  0  0
  184.1400  173.5260  136.8820 N   0  0  0  0  0  0  0  0  0  0  0  0
  185.1010  175.7090  137.2010 C   0  0  0  0  0  0  0  0  0  0  0  0
  183.9880  174.8690  137.0530 C   0  0  0  0  0  0  0  0  0  0  0  0
  182.5290  176.8050  137.2590 C   0  0  0  0  0  0  0  0  0  0  0  0
  189.7680  177.8370  137.2870 C   0  0  0  0  0  2  0  0  0  0  0  0
  187.5020  176.0660  137.3350 C   0  0  0  0  0  0  0  0  0  0  0  0
  188.4220  178.4030  137.7400 C   0  0  0  0  0  2  0  0  0  0  0  0
  181.6020  174.5600  136.9390 C   0  0  0  0  0  3  0  0  0  0  0  0
  182.6920  175.4220  137.0860 C   0  0  0  0  0  0  0  0  0  0  0  0
  181.2110  177.3710  137.3160 N   0  0  0  0  0  2  0  0  0  0  0  0
  185.9820  177.9530  137.5310 C   0  0  0  0  0  3  0  0  0  0  0  0
  183.6270  177.5950  137.4090 N   0  0  0  0  0  0  0  0  0  0  0  0
  180.6180  179.5540  138.4670 C   0  0  1  0  0  3  0  0  0  0  0  0
  181.0040  179.5050  136.0940 C   0  0  0  0  0  0  0  0  0  0  0  0
  180.6940  180.7780  136.2150 C   0  0  0  0  0  3  0  0  0  0  0  0
  180.2170  181.2430  137.8790 S   0  0  0  0  0  0  0  0  0  0  0  0
  181.4860  178.8060  134.5590 Cl  0  0  0  0  0  0  0  0  0  0  0  0
  180.9260  178.7490  137.2920 N   0  0  0  0  0  0  0  0  0  0  0  0
  181.8130  179.6060  139.4120 C   0  0  0  0  0  2  0  0  0  0  0  0
  182.8460  180.3450  138.8630 F   0  0  0  0  0  0  0  0  0  0  0  0
  190.8600  177.0160  139.9380 C   0  0  0  0  0  3  0  0  0  0  0  0
  189.9600  176.3860  139.2560 N   0  0  0  0  0  0  0  0  0  0  0  0
  190.8530  176.9880  141.4020 C   0  0  0  0  0  0  0  0  0  0  0  0
  191.8860  177.2890  142.0560 O   0  0  0  0  0  0  0  0  0  0  0  0
  189.6130  176.5990  142.1220 C   0  0  0  0  0  1  0  0  0  0  0  0
  1 29  1  1  0  0  0
  2 19  1  0  0  0  0
  2 18  1  0  0  0  0
  3  4  2  0  0  0  0
  3  8  1  0  0  0  0
  4 15  1  0  0  0  0
  5 18  2  0  0  0  0
  5 14  1  0  0  0  0
  6  9  1  0  0  0  0
  6 13  2  0  0  0  0
  7 13  1  0  0  0  0
  7  1  1  0  0  0  0
  8 10  2  0  0  0  0
  9  2  2  0  0  0  0
 10 16  1  0  0  0  0
 10  9  1  0  0  0  0
 11 17  1  0  0  0  0
 11 19  2  0  0  0  0
 12 14  1  0  0  0  0
 12  1  1  0  0  0  0
 13  5  1  0  0  0  0
 15 16  2  0  0  0  0
 16 11  1  0  0  0  0
 20 26  1  1  0  0  0
 21 22  2  0  0  0  0
 21 25  1  0  0  0  0
 22 23  1  0  0  0  0
 23 20  1  0  0  0  0
 24 21  1  0  0  0  0
 25 17  1  0  0  0  0
 25 20  1  0  0  0  0
 27 26  1  0  0  0  0
 28 30  1  0  0  0  0
 29 28  2  0  0  0  0
 30 31  2  0  0  0  0
 30 32  1  0  0  0  0
M  END
>  <MODEL>
9

>  <REMARK>
 VINA RESULT:      -6.3      5.789      8.158
  Name = 
  4 active torsions:
  status: ('A' for Active; 'I' for Inactive)
    1  A    between atoms: C_1  and  C_10
    2  A    between atoms: C_2  and  N_24
    3  A    between atoms: C_6  and  C_7
    4  A    between atoms: N_27  and  N_32
                            x       y       z     vdW  Elec       q    Type
                         _______ _______ _______ _____ _____    ______ ____

>  <TORSDO>
F 4

$$$$
