=
 OpenBabel10272413463D

 30 32  0  0  1  0  0  0  0  0999 V2000
  184.2070  178.4410  142.7440 C   0  0  0  0  0  0  0  0  0  0  0  0
  183.0470  178.7970  143.4360 C   0  0  0  0  0  3  0  0  0  0  0  0
  184.1240  178.2620  141.2650 C   0  0  0  0  0  1  0  0  0  0  0  0
  185.4510  178.4660  144.8450 C   0  0  0  0  0  0  0  0  0  0  0  0
  183.0780  178.9870  144.8170 C   0  0  0  0  0  3  0  0  0  0  0  0
  185.4210  178.2620  143.4420 C   0  0  0  0  0  0  0  0  0  0  0  0
  184.2760  178.8260  145.5150 C   0  0  0  0  0  3  0  0  0  0  0  0
  188.5440  177.7480  148.0880 C   0  0  0  0  0  3  0  0  0  0  0  0
  189.3330  177.9250  146.8260 C   0  0  0  0  0  2  0  0  0  0  0  0
  187.2680  178.1460  148.1960 C   0  0  0  0  0  3  0  0  0  0  0  0
  187.3240  176.9540  145.5460 C   0  0  0  0  0  2  0  0  0  0  0  0
  186.4920  178.8580  147.1110 C   0  0  0  0  0  2  0  0  0  0  0  0
  188.8490  176.9800  145.7170 C   0  0  1  0  0  3  0  0  0  0  0  0
  186.6990  178.3460  145.6690 C   0  0  2  0  0  3  0  0  0  0  0  0
  189.5120  177.3410  144.3990 C   0  0  0  0  0  2  0  0  0  0  0  0
  191.6600  177.9330  143.3300 C   0  0  0  0  0  2  0  0  0  0  0  0
  190.8990  177.9100  144.6420 C   0  0  0  0  0  3  0  0  0  0  0  0
  191.0440  179.2070  143.8690 C   0  0  0  0  0  2  0  0  0  0  0  0
  186.6630  177.8760  142.6920 C   0  0  0  0  0  2  0  0  0  0  0  0
  187.0650  178.9520  141.8050 N   0  0  0  0  0  2  0  0  0  0  0  0
  188.3030  178.5310  141.1730 C   0  0  0  0  0  2  0  0  0  0  0  0
  188.0300  177.9650  139.7850 C   0  0  1  0  0  3  0  0  0  0  0  0
  186.8160  178.4440  139.3280 F   0  0  0  0  0  0  0  0  0  0  0  0
  189.1130  178.3250  138.8150 C   0  0  0  0  0  0  0  0  0  0  0  0
  189.0290  179.3370  138.1350 O   0  0  0  0  0  0  0  0  0  0  0  0
  190.3000  177.4270  138.6730 C   0  0  0  0  0  2  0  0  0  0  0  0
  189.2340  175.7990  137.0750 C   0  0  0  0  0  1  0  0  0  0  0  0
  190.3600  176.8000  137.2850 C   0  0  2  0  0  3  0  0  0  0  0  0
  192.7190  176.4360  138.1490 C   0  0  0  0  0  1  0  0  0  0  0  0
  191.7230  176.1610  137.0320 C   0  0  0  0  0  2  0  0  0  0  0  0
  1  2  2  0  0  0  0
  1  6  1  0  0  0  0
  2  5  1  0  0  0  0
  3  1  1  0  0  0  0
  4  7  1  0  0  0  0
  5  7  2  0  0  0  0
  6  4  2  0  0  0  0
  8 10  2  0  0  0  0
  9  8  1  0  0  0  0
 11 14  1  0  0  0  0
 11 13  1  0  0  0  0
 12 10  1  0  0  0  0
 13 15  1  6  0  0  0
 13  9  1  0  0  0  0
 14  4  1  1  0  0  0
 14 12  1  0  0  0  0
 15 17  1  0  0  0  0
 16 18  1  0  0  0  0
 16 17  1  0  0  0  0
 18 17  1  0  0  0  0
 19  6  1  0  0  0  0
 20 19  1  0  0  0  0
 21 20  1  0  0  0  0
 22 23  1  6  0  0  0
 22 21  1  0  0  0  0
 24 22  1  0  0  0  0
 25 24  2  0  0  0  0
 26 24  1  0  0  0  0
 28 27  1  1  0  0  0
 28 26  1  0  0  0  0
 30 28  1  0  0  0  0
 30 29  1  0  0  0  0
M  END
>  <MODEL>
1

>  <REMARK>
 VINA RESULT:      -8.8      0.000      0.000
  Name = 
  11 active torsions:
  status: ('A' for Active; 'I' for Inactive)
    1  A    between atoms: C_1  and  N_4
    2  A    between atoms: C_1  and  C_27
    3  A    between atoms: N_4  and  C_5
    4  A    between atoms: C_5  and  C_22
    5  A    between atoms: C_8  and  C_12
    6  A    between atoms: C_8  and  C_27
    7  A    between atoms: C_9  and  C_12
    8  A    between atoms: C_9  and  C_21
    9  A    between atoms: C_15  and  C_16
   10  A    between atoms: C_16  and  C_25
   11  A    between atoms: C_19  and  C_29
                            x       y       z     vdW  Elec       q    Type
                         _______ _______ _______ _____ _____    ______ ____

>  <TORSDO>
F 11

$$$$
=
 OpenBabel10272413463D

 30 32  0  0  1  0  0  0  0  0999 V2000
  184.2460  178.3960  142.6390 C   0  0  0  0  0  0  0  0  0  0  0  0
  183.0840  178.8190  143.2910 C   0  0  0  0  0  3  0  0  0  0  0  0
  184.1860  178.1540  141.1680 C   0  0  0  0  0  1  0  0  0  0  0  0
  185.4480  178.4780  144.7630 C   0  0  0  0  0  0  0  0  0  0  0  0
  183.0950  179.0710  144.6620 C   0  0  0  0  0  3  0  0  0  0  0  0
  185.4390  178.2120  143.3700 C   0  0  0  0  0  0  0  0  0  0  0  0
  184.2730  178.9050  145.3910 C   0  0  0  0  0  3  0  0  0  0  0  0
  188.4590  177.7710  148.0850 C   0  0  0  0  0  3  0  0  0  0  0  0
  189.2790  177.9280  146.8400 C   0  0  0  0  0  2  0  0  0  0  0  0
  187.1830  178.1800  148.1590 C   0  0  0  0  0  3  0  0  0  0  0  0
  187.2920  176.9600  145.5240 C   0  0  0  0  0  2  0  0  0  0  0  0
  186.4390  178.8870  147.0480 C   0  0  0  0  0  2  0  0  0  0  0  0
  188.8130  176.9760  145.7300 C   0  0  1  0  0  3  0  0  0  0  0  0
  186.6760  178.3580  145.6180 C   0  0  2  0  0  3  0  0  0  0  0  0
  189.5100  177.3170  144.4250 C   0  0  0  0  0  2  0  0  0  0  0  0
  191.7010  177.8720  143.4250 C   0  0  0  0  0  2  0  0  0  0  0  0
  190.8740  177.9260  144.6960 C   0  0  0  0  0  3  0  0  0  0  0  0
  191.0400  179.1690  143.8430 C   0  0  0  0  0  2  0  0  0  0  0  0
  186.6820  177.7540  142.6650 C   0  0  0  0  0  2  0  0  0  0  0  0
  187.3160  178.8740  141.9920 N   0  0  0  0  0  2  0  0  0  0  0  0
  187.6970  178.4050  140.6700 C   0  0  0  0  0  2  0  0  0  0  0  0
  189.1520  177.9560  140.6610 C   0  0  1  0  0  3  0  0  0  0  0  0
  189.2500  176.7140  141.2610 F   0  0  0  0  0  0  0  0  0  0  0  0
  189.7050  177.8910  139.2700 C   0  0  0  0  0  0  0  0  0  0  0  0
  190.6540  177.1660  139.0100 O   0  0  0  0  0  0  0  0  0  0  0  0
  189.0920  178.7320  138.1960 C   0  0  0  0  0  2  0  0  0  0  0  0
  189.0970  177.7770  135.8660 C   0  0  0  0  0  1  0  0  0  0  0  0
  188.3410  177.8770  137.1820 C   0  0  2  0  0  3  0  0  0  0  0  0
  185.8570  177.4520  137.4930 C   0  0  0  0  0  1  0  0  0  0  0  0
  186.9240  178.4030  136.9670 C   0  0  0  0  0  2  0  0  0  0  0  0
  1  2  2  0  0  0  0
  1  6  1  0  0  0  0
  2  5  1  0  0  0  0
  3  1  1  0  0  0  0
  4  7  1  0  0  0  0
  5  7  2  0  0  0  0
  6  4  2  0  0  0  0
  8 10  2  0  0  0  0
  9  8  1  0  0  0  0
 11 14  1  0  0  0  0
 11 13  1  0  0  0  0
 12 10  1  0  0  0  0
 13 15  1  6  0  0  0
 13  9  1  0  0  0  0
 14  4  1  6  0  0  0
 14 12  1  0  0  0  0
 15 17  1  0  0  0  0
 16 18  1  0  0  0  0
 16 17  1  0  0  0  0
 18 17  1  0  0  0  0
 19  6  1  0  0  0  0
 20 19  1  0  0  0  0
 21 20  1  0  0  0  0
 22 21  1  0  0  0  0
 22 23  1  6  0  0  0
 24 22  1  0  0  0  0
 25 24  2  0  0  0  0
 26 24  1  0  0  0  0
 28 27  1  6  0  0  0
 28 26  1  0  0  0  0
 30 28  1  0  0  0  0
 30 29  1  0  0  0  0
M  END
>  <MODEL>
2

>  <REMARK>
 VINA RESULT:      -8.7      1.382      1.959
  Name = 
  11 active torsions:
  status: ('A' for Active; 'I' for Inactive)
    1  A    between atoms: C_1  and  N_4
    2  A    between atoms: C_1  and  C_27
    3  A    between atoms: N_4  and  C_5
    4  A    between atoms: C_5  and  C_22
    5  A    between atoms: C_8  and  C_12
    6  A    between atoms: C_8  and  C_27
    7  A    between atoms: C_9  and  C_12
    8  A    between atoms: C_9  and  C_21
    9  A    between atoms: C_15  and  C_16
   10  A    between atoms: C_16  and  C_25
   11  A    between atoms: C_19  and  C_29
                            x       y       z     vdW  Elec       q    Type
                         _______ _______ _______ _____ _____    ______ ____

>  <TORSDO>
F 11

$$$$
=
 OpenBabel10272413463D

 30 32  0  0  1  0  0  0  0  0999 V2000
  185.0810  178.5240  145.2900 C   0  0  0  0  0  0  0  0  0  0  0  0
  185.1870  178.7470  146.6660 C   0  0  0  0  0  3  0  0  0  0  0  0
  183.8130  178.9100  144.6050 C   0  0  0  0  0  1  0  0  0  0  0  0
  187.3500  177.6240  145.2760 C   0  0  0  0  0  0  0  0  0  0  0  0
  186.3570  178.4140  147.3470 C   0  0  0  0  0  3  0  0  0  0  0  0
  186.1590  177.9510  144.5810 C   0  0  0  0  0  0  0  0  0  0  0  0
  187.4340  177.8590  146.6520 C   0  0  0  0  0  3  0  0  0  0  0  0
  190.5100  176.1880  142.3500 C   0  0  0  0  0  3  0  0  0  0  0  0
  191.1890  176.1980  143.6870 C   0  0  0  0  0  2  0  0  0  0  0  0
  189.1750  176.2090  142.2250 C   0  0  0  0  0  3  0  0  0  0  0  0
  189.6280  178.1290  144.3590 C   0  0  0  0  0  2  0  0  0  0  0  0
  188.2000  176.1870  143.3820 C   0  0  0  0  0  2  0  0  0  0  0  0
  191.0530  177.5600  144.3820 C   0  0  1  0  0  3  0  0  0  0  0  0
  188.5660  177.0550  144.6050 C   0  0  2  0  0  3  0  0  0  0  0  0
  191.5510  177.4660  145.8130 C   0  0  0  0  0  2  0  0  0  0  0  0
  192.3720  175.9610  147.5930 C   0  0  0  0  0  2  0  0  0  0  0  0
  191.7440  176.0140  146.2130 C   0  0  0  0  0  3  0  0  0  0  0  0
  190.8870  175.7160  147.4280 C   0  0  0  0  0  2  0  0  0  0  0  0
  186.0360  177.7120  143.1040 C   0  0  0  0  0  2  0  0  0  0  0  0
  186.5880  178.8360  142.3690 N   0  0  0  0  0  2  0  0  0  0  0  0
  185.4790  179.4580  141.6640 C   0  0  0  0  0  2  0  0  0  0  0  0
  184.8110  178.4570  140.7310 C   0  0  1  0  0  3  0  0  0  0  0  0
  183.4960  178.2760  141.1220 F   0  0  0  0  0  0  0  0  0  0  0  0
  184.8560  178.9120  139.3040 C   0  0  0  0  0  0  0  0  0  0  0  0
  184.5270  180.0500  139.0020 O   0  0  0  0  0  0  0  0  0  0  0  0
  185.3000  177.9570  138.2430 C   0  0  0  0  0  2  0  0  0  0  0  0
  186.8550  178.0030  136.2630 C   0  0  0  0  0  1  0  0  0  0  0  0
  186.7040  178.2870  137.7490 C   0  0  2  0  0  3  0  0  0  0  0  0
  188.7140  178.4830  139.2870 C   0  0  0  0  0  1  0  0  0  0  0  0
  187.7580  177.5440  138.5650 C   0  0  0  0  0  2  0  0  0  0  0  0
  1  2  1  0  0  0  0
  2  5  2  0  0  0  0
  3  1  1  0  0  0  0
  4  7  2  0  0  0  0
  6  4  1  0  0  0  0
  6  1  2  0  0  0  0
  7  5  1  0  0  0  0
  8  9  1  0  0  0  0
  9 13  1  0  0  0  0
 10  8  2  0  0  0  0
 10 12  1  0  0  0  0
 11 13  1  0  0  0  0
 11 14  1  0  0  0  0
 12 14  1  0  0  0  0
 13 15  1  1  0  0  0
 14  4  1  6  0  0  0
 15 17  1  0  0  0  0
 17 18  1  0  0  0  0
 17 16  1  0  0  0  0
 18 16  1  0  0  0  0
 19  6  1  0  0  0  0
 20 19  1  0  0  0  0
 21 20  1  0  0  0  0
 22 23  1  1  0  0  0
 22 21  1  0  0  0  0
 24 22  1  0  0  0  0
 25 24  2  0  0  0  0
 26 24  1  0  0  0  0
 28 27  1  6  0  0  0
 28 26  1  0  0  0  0
 28 30  1  0  0  0  0
 30 29  1  0  0  0  0
M  END
>  <MODEL>
3

>  <REMARK>
 VINA RESULT:      -8.5      2.099      3.849
  Name = 
  11 active torsions:
  status: ('A' for Active; 'I' for Inactive)
    1  A    between atoms: C_1  and  N_4
    2  A    between atoms: C_1  and  C_27
    3  A    between atoms: N_4  and  C_5
    4  A    between atoms: C_5  and  C_22
    5  A    between atoms: C_8  and  C_12
    6  A    between atoms: C_8  and  C_27
    7  A    between atoms: C_9  and  C_12
    8  A    between atoms: C_9  and  C_21
    9  A    between atoms: C_15  and  C_16
   10  A    between atoms: C_16  and  C_25
   11  A    between atoms: C_19  and  C_29
                            x       y       z     vdW  Elec       q    Type
                         _______ _______ _______ _____ _____    ______ ____

>  <TORSDO>
F 11

$$$$
=
 OpenBabel10272413463D

 30 32  0  0  1  0  0  0  0  0999 V2000
  184.7710  178.8490  141.0720 C   0  0  0  0  0  0  0  0  0  0  0  0
  183.4130  178.6780  141.3520 C   0  0  0  0  0  3  0  0  0  0  0  0
  185.1760  179.1170  139.6620 C   0  0  0  0  0  1  0  0  0  0  0  0
  185.2830  178.5370  143.4390 C   0  0  0  0  0  0  0  0  0  0  0  0
  182.9850  178.4380  142.6580 C   0  0  0  0  0  3  0  0  0  0  0  0
  185.7230  178.7710  142.1120 C   0  0  0  0  0  0  0  0  0  0  0  0
  183.9170  178.3730  143.6950 C   0  0  0  0  0  3  0  0  0  0  0  0
  187.1840  178.1560  147.5430 C   0  0  0  0  0  3  0  0  0  0  0  0
  188.3290  178.1210  146.5760 C   0  0  0  0  0  2  0  0  0  0  0  0
  185.9720  178.6170  147.2010 C   0  0  0  0  0  3  0  0  0  0  0  0
  186.7260  177.0630  144.8640 C   0  0  0  0  0  2  0  0  0  0  0  0
  185.6210  179.2010  145.8510 C   0  0  0  0  0  2  0  0  0  0  0  0
  188.1250  177.0500  145.4940 C   0  0  1  0  0  3  0  0  0  0  0  0
  186.2100  178.4830  144.6180 C   0  0  2  0  0  3  0  0  0  0  0  0
  189.1830  177.1950  144.4140 C   0  0  0  0  0  2  0  0  0  0  0  0
  191.5620  177.7850  144.0950 C   0  0  0  0  0  2  0  0  0  0  0  0
  190.3070  178.0970  144.8890 C   0  0  0  0  0  3  0  0  0  0  0  0
  190.7310  179.0030  143.7490 C   0  0  0  0  0  2  0  0  0  0  0  0
  187.1810  178.9520  141.8030 C   0  0  0  0  0  2  0  0  0  0  0  0
  187.7400  177.7130  141.2900 N   0  0  0  0  0  2  0  0  0  0  0  0
  188.5970  178.0750  140.1730 C   0  0  0  0  0  2  0  0  0  0  0  0
  189.9240  177.3330  140.2550 C   0  0  1  0  0  3  0  0  0  0  0  0
  189.8520  176.3770  141.2520 F   0  0  0  0  0  0  0  0  0  0  0  0
  190.2780  176.6810  138.9540 C   0  0  0  0  0  0  0  0  0  0  0  0
  190.8160  175.5830  138.9330 O   0  0  0  0  0  0  0  0  0  0  0  0
  189.9790  177.3900  137.6720 C   0  0  0  0  0  2  0  0  0  0  0  0
  189.6670  176.4270  135.3650 C   0  0  0  0  0  1  0  0  0  0  0  0
  189.0870  176.5480  136.7670 C   0  0  2  0  0  3  0  0  0  0  0  0
  187.6280  178.6210  136.6300 C   0  0  0  0  0  1  0  0  0  0  0  0
  187.6650  177.1020  136.7310 C   0  0  0  0  0  2  0  0  0  0  0  0
  1  2  2  0  0  0  0
  1  6  1  0  0  0  0
  2  5  1  0  0  0  0
  3  1  1  0  0  0  0
  4  7  1  0  0  0  0
  5  7  2  0  0  0  0
  6  4  2  0  0  0  0
  9  8  1  0  0  0  0
 10  8  2  0  0  0  0
 11 13  1  0  0  0  0
 12 10  1  0  0  0  0
 13 15  1  6  0  0  0
 13  9  1  0  0  0  0
 14  4  1  6  0  0  0
 14 11  1  0  0  0  0
 14 12  1  0  0  0  0
 15 17  1  0  0  0  0
 16 17  1  0  0  0  0
 18 16  1  0  0  0  0
 18 17  1  0  0  0  0
 19  6  1  0  0  0  0
 20 19  1  0  0  0  0
 21 22  1  0  0  0  0
 21 20  1  0  0  0  0
 22 23  1  1  0  0  0
 24 22  1  0  0  0  0
 25 24  2  0  0  0  0
 26 24  1  0  0  0  0
 28 27  1  6  0  0  0
 28 26  1  0  0  0  0
 29 30  1  0  0  0  0
 30 28  1  0  0  0  0
M  END
>  <MODEL>
4

>  <REMARK>
 VINA RESULT:      -8.4      1.589      2.191
  Name = 
  11 active torsions:
  status: ('A' for Active; 'I' for Inactive)
    1  A    between atoms: C_1  and  N_4
    2  A    between atoms: C_1  and  C_27
    3  A    between atoms: N_4  and  C_5
    4  A    between atoms: C_5  and  C_22
    5  A    between atoms: C_8  and  C_12
    6  A    between atoms: C_8  and  C_27
    7  A    between atoms: C_9  and  C_12
    8  A    between atoms: C_9  and  C_21
    9  A    between atoms: C_15  and  C_16
   10  A    between atoms: C_16  and  C_25
   11  A    between atoms: C_19  and  C_29
                            x       y       z     vdW  Elec       q    Type
                         _______ _______ _______ _____ _____    ______ ____

>  <TORSDO>
F 11

$$$$
=
 OpenBabel10272413463D

 30 32  0  0  1  0  0  0  0  0999 V2000
  185.5270  178.3940  144.6300 C   0  0  0  0  0  0  0  0  0  0  0  0
  184.3850  178.9690  145.1950 C   0  0  0  0  0  3  0  0  0  0  0  0
  186.6930  178.1140  145.5170 C   0  0  0  0  0  1  0  0  0  0  0  0
  184.4130  178.3540  142.4570 C   0  0  0  0  0  0  0  0  0  0  0  0
  183.2660  179.2370  144.4080 C   0  0  0  0  0  3  0  0  0  0  0  0
  185.5570  178.0890  143.2520 C   0  0  0  0  0  0  0  0  0  0  0  0
  183.2810  178.9260  143.0470 C   0  0  0  0  0  3  0  0  0  0  0  0
  183.2020  177.8330  138.1140 C   0  0  0  0  0  3  0  0  0  0  0  0
  184.6700  177.5330  138.1510 C   0  0  0  0  0  2  0  0  0  0  0  0
  182.4430  177.8310  139.2200 C   0  0  0  0  0  3  0  0  0  0  0  0
  184.8590  179.1670  140.1280 C   0  0  0  0  0  2  0  0  0  0  0  0
  182.9390  177.4780  140.6050 C   0  0  0  0  0  2  0  0  0  0  0  0
  185.4650  178.6680  138.8100 C   0  0  1  0  0  3  0  0  0  0  0  0
  184.3290  178.0220  140.9960 C   0  0  2  0  0  3  0  0  0  0  0  0
  186.9040  178.2360  139.0310 C   0  0  0  0  0  2  0  0  0  0  0  0
  188.9590  178.7240  137.7480 C   0  0  0  0  0  2  0  0  0  0  0  0
  187.6080  178.0350  137.7010 C   0  0  0  0  0  3  0  0  0  0  0  0
  188.8690  177.2220  137.9250 C   0  0  0  0  0  2  0  0  0  0  0  0
  186.7880  177.4740  142.6510 C   0  0  0  0  0  2  0  0  0  0  0  0
  187.7360  178.5120  142.2850 N   0  0  0  0  0  2  0  0  0  0  0  0
  189.0370  177.8720  142.1860 C   0  0  0  0  0  2  0  0  0  0  0  0
  189.2730  176.9540  143.3790 C   0  0  1  0  0  3  0  0  0  0  0  0
  189.7040  175.7200  142.9260 F   0  0  0  0  0  0  0  0  0  0  0  0
  190.2800  177.5250  144.3290 C   0  0  0  0  0  0  0  0  0  0  0  0
  190.4040  178.7350  144.4510 O   0  0  0  0  0  0  0  0  0  0  0  0
  191.1460  176.6010  145.1250 C   0  0  0  0  0  2  0  0  0  0  0  0
  192.0400  176.0610  147.4160 C   0  0  0  0  0  1  0  0  0  0  0  0
  191.0660  176.9110  146.6150 C   0  0  2  0  0  3  0  0  0  0  0  0
  189.2550  177.8180  148.1460 C   0  0  0  0  0  1  0  0  0  0  0  0
  189.6380  176.7500  147.1310 C   0  0  0  0  0  2  0  0  0  0  0  0
  1  2  1  0  0  0  0
  1  3  1  0  0  0  0
  4  7  2  0  0  0  0
  4  6  1  0  0  0  0
  5  2  2  0  0  0  0
  6  1  2  0  0  0  0
  7  5  1  0  0  0  0
  8  9  1  0  0  0  0
  8 10  2  0  0  0  0
  9 13  1  0  0  0  0
 10 12  1  0  0  0  0
 11 14  1  0  0  0  0
 12 14  1  0  0  0  0
 13 15  1  1  0  0  0
 13 11  1  0  0  0  0
 14  4  1  1  0  0  0
 16 18  1  0  0  0  0
 17 16  1  0  0  0  0
 17 18  1  0  0  0  0
 17 15  1  0  0  0  0
 19  6  1  0  0  0  0
 20 19  1  0  0  0  0
 21 20  1  0  0  0  0
 21 22  1  0  0  0  0
 22 23  1  6  0  0  0
 22 24  1  0  0  0  0
 24 25  2  0  0  0  0
 24 26  1  0  0  0  0
 26 28  1  0  0  0  0
 28 30  1  0  0  0  0
 28 27  1  1  0  0  0
 30 29  1  0  0  0  0
M  END
>  <MODEL>
5

>  <REMARK>
 VINA RESULT:      -8.3      2.213      6.662
  Name = 
  11 active torsions:
  status: ('A' for Active; 'I' for Inactive)
    1  A    between atoms: C_1  and  N_4
    2  A    between atoms: C_1  and  C_27
    3  A    between atoms: N_4  and  C_5
    4  A    between atoms: C_5  and  C_22
    5  A    between atoms: C_8  and  C_12
    6  A    between atoms: C_8  and  C_27
    7  A    between atoms: C_9  and  C_12
    8  A    between atoms: C_9  and  C_21
    9  A    between atoms: C_15  and  C_16
   10  A    between atoms: C_16  and  C_25
   11  A    between atoms: C_19  and  C_29
                            x       y       z     vdW  Elec       q    Type
                         _______ _______ _______ _____ _____    ______ ____

>  <TORSDO>
F 11

$$$$
=
 OpenBabel10272413463D

 30 32  0  0  1  0  0  0  0  0999 V2000
  189.5050  177.3410  140.7100 C   0  0  0  0  0  0  0  0  0  0  0  0
  190.8030  177.5570  140.2380 C   0  0  0  0  0  3  0  0  0  0  0  0
  188.3850  177.3350  139.7250 C   0  0  0  0  0  1  0  0  0  0  0  0
  190.3820  177.1230  142.9780 C   0  0  0  0  0  0  0  0  0  0  0  0
  191.8840  177.5590  141.1190 C   0  0  0  0  0  3  0  0  0  0  0  0
  189.2790  177.1310  142.0870 C   0  0  0  0  0  0  0  0  0  0  0  0
  191.6720  177.3380  142.4810 C   0  0  0  0  0  3  0  0  0  0  0  0
  191.0120  176.6490  147.4480 C   0  0  0  0  0  3  0  0  0  0  0  0
  189.5270  176.5880  147.2530 C   0  0  0  0  0  2  0  0  0  0  0  0
  191.8750  176.4640  146.4380 C   0  0  0  0  0  3  0  0  0  0  0  0
  189.8280  178.1210  145.2100 C   0  0  0  0  0  2  0  0  0  0  0  0
  191.4800  176.1220  145.0190 C   0  0  0  0  0  2  0  0  0  0  0  0
  189.0080  177.8000  146.4660 C   0  0  1  0  0  3  0  0  0  0  0  0
  190.2510  176.8620  144.4500 C   0  0  2  0  0  3  0  0  0  0  0  0
  187.5500  177.5940  146.0950 C   0  0  0  0  0  2  0  0  0  0  0  0
  185.8130  179.3470  146.2340 C   0  0  0  0  0  2  0  0  0  0  0  0
  186.6470  178.3680  147.0390 C   0  0  0  0  0  3  0  0  0  0  0  0
  185.2010  178.0480  146.7170 C   0  0  0  0  0  2  0  0  0  0  0  0
  187.8820  176.9020  142.5870 C   0  0  0  0  0  2  0  0  0  0  0  0
  187.1290  178.1440  142.5490 N   0  0  0  0  0  2  0  0  0  0  0  0
  185.7760  177.8240  142.9730 C   0  0  0  0  0  2  0  0  0  0  0  0
  184.8110  178.9270  142.5590 C   0  0  1  0  0  3  0  0  0  0  0  0
  185.3620  180.1560  142.8730 F   0  0  0  0  0  0  0  0  0  0  0  0
  184.4990  178.8720  141.0950 C   0  0  0  0  0  0  0  0  0  0  0  0
  185.1080  179.5740  140.3010 O   0  0  0  0  0  0  0  0  0  0  0  0
  183.4220  177.9570  140.6080 C   0  0  0  0  0  2  0  0  0  0  0  0
  181.1520  178.5380  141.5320 C   0  0  0  0  0  1  0  0  0  0  0  0
  182.1180  178.7100  140.3690 C   0  0  2  0  0  3  0  0  0  0  0  0
  181.9180  179.1540  137.8780 C   0  0  0  0  0  1  0  0  0  0  0  0
  181.4770  178.2890  139.0500 C   0  0  0  0  0  2  0  0  0  0  0  0
  1  6  1  0  0  0  0
  2  1  2  0  0  0  0
  2  5  1  0  0  0  0
  3  1  1  0  0  0  0
  5  7  2  0  0  0  0
  6 19  1  0  0  0  0
  6  4  2  0  0  0  0
  7  4  1  0  0  0  0
  9  8  1  0  0  0  0
 10  8  2  0  0  0  0
 11 13  1  0  0  0  0
 12 10  1  0  0  0  0
 13 15  1  6  0  0  0
 13  9  1  0  0  0  0
 14  4  1  6  0  0  0
 14 12  1  0  0  0  0
 14 11  1  0  0  0  0
 15 17  1  0  0  0  0
 16 18  1  0  0  0  0
 16 17  1  0  0  0  0
 18 17  1  0  0  0  0
 20 19  1  0  0  0  0
 20 21  1  0  0  0  0
 22 23  1  6  0  0  0
 22 21  1  0  0  0  0
 24 22  1  0  0  0  0
 25 24  2  0  0  0  0
 26 24  1  0  0  0  0
 28 26  1  0  0  0  0
 28 27  1  1  0  0  0
 29 30  1  0  0  0  0
 30 28  1  0  0  0  0
M  END
>  <MODEL>
6

>  <REMARK>
 VINA RESULT:      -8.2      2.068      6.088
  Name = 
  11 active torsions:
  status: ('A' for Active; 'I' for Inactive)
    1  A    between atoms: C_1  and  N_4
    2  A    between atoms: C_1  and  C_27
    3  A    between atoms: N_4  and  C_5
    4  A    between atoms: C_5  and  C_22
    5  A    between atoms: C_8  and  C_12
    6  A    between atoms: C_8  and  C_27
    7  A    between atoms: C_9  and  C_12
    8  A    between atoms: C_9  and  C_21
    9  A    between atoms: C_15  and  C_16
   10  A    between atoms: C_16  and  C_25
   11  A    between atoms: C_19  and  C_29
                            x       y       z     vdW  Elec       q    Type
                         _______ _______ _______ _____ _____    ______ ____

>  <TORSDO>
F 11

$$$$
=
 OpenBabel10272413463D

 30 32  0  0  1  0  0  0  0  0999 V2000
  185.0450  178.4290  145.2310 C   0  0  0  0  0  0  0  0  0  0  0  0
  185.1520  178.5190  146.6220 C   0  0  0  0  0  3  0  0  0  0  0  0
  183.7090  178.6540  144.6070 C   0  0  0  0  0  1  0  0  0  0  0  0
  187.4360  177.9530  145.0930 C   0  0  0  0  0  0  0  0  0  0  0  0
  186.3830  178.3290  147.2490 C   0  0  0  0  0  3  0  0  0  0  0  0
  186.1840  178.1350  144.4520 C   0  0  0  0  0  0  0  0  0  0  0  0
  187.5180  178.0520  146.4860 C   0  0  0  0  0  3  0  0  0  0  0  0
  191.5460  176.5910  143.7330 C   0  0  0  0  0  3  0  0  0  0  0  0
  190.8700  177.0940  142.4940 C   0  0  0  0  0  2  0  0  0  0  0  0
  191.1120  176.9040  144.9630 C   0  0  0  0  0  3  0  0  0  0  0  0
  188.6300  176.3870  143.5420 C   0  0  0  0  0  2  0  0  0  0  0  0
  189.9510  177.8280  145.2580 C   0  0  0  0  0  2  0  0  0  0  0  0
  189.5040  176.4270  142.2810 C   0  0  1  0  0  3  0  0  0  0  0  0
  188.7120  177.6850  144.3500 C   0  0  2  0  0  3  0  0  0  0  0  0
  188.7570  177.1180  141.1540 C   0  0  0  0  0  2  0  0  0  0  0  0
  189.0120  176.9470  138.7010 C   0  0  0  0  0  2  0  0  0  0  0  0
  189.6900  177.3860  139.9860 C   0  0  0  0  0  3  0  0  0  0  0  0
  189.0550  178.4150  139.0700 C   0  0  0  0  0  2  0  0  0  0  0  0
  186.0610  178.0370  142.9590 C   0  0  0  0  0  2  0  0  0  0  0  0
  185.6210  179.3070  142.4090 N   0  0  0  0  0  2  0  0  0  0  0  0
  185.6330  179.1620  140.9630 C   0  0  0  0  0  2  0  0  0  0  0  0
  184.2620  178.7300  140.4580 C   0  0  1  0  0  3  0  0  0  0  0  0
  183.2970  179.1240  141.3660 F   0  0  0  0  0  0  0  0  0  0  0  0
  183.9580  179.3120  139.1120 C   0  0  0  0  0  0  0  0  0  0  0  0
  184.0720  180.5120  138.9110 O   0  0  0  0  0  0  0  0  0  0  0  0
  183.4990  178.4120  138.0100 C   0  0  0  0  0  2  0  0  0  0  0  0
  185.1660  176.7660  137.0880 C   0  0  0  0  0  1  0  0  0  0  0  0
  184.1010  177.0180  138.1440 C   0  0  2  0  0  3  0  0  0  0  0  0
  182.3050  175.7740  139.4370 C   0  0  0  0  0  1  0  0  0  0  0  0
  183.0150  175.9460  138.1010 C   0  0  0  0  0  2  0  0  0  0  0  0
  1  2  1  0  0  0  0
  2  5  2  0  0  0  0
  3  1  1  0  0  0  0
  4  7  2  0  0  0  0
  6  4  1  0  0  0  0
  6  1  2  0  0  0  0
  7  5  1  0  0  0  0
  8 10  2  0  0  0  0
  9  8  1  0  0  0  0
 10 12  1  0  0  0  0
 11 14  1  0  0  0  0
 13 15  1  6  0  0  0
 13  9  1  0  0  0  0
 13 11  1  0  0  0  0
 14  4  1  1  0  0  0
 14 12  1  0  0  0  0
 16 18  1  0  0  0  0
 16 17  1  0  0  0  0
 17 15  1  0  0  0  0
 18 17  1  0  0  0  0
 19  6  1  0  0  0  0
 20 19  1  0  0  0  0
 21 20  1  0  0  0  0
 22 21  1  0  0  0  0
 22 23  1  1  0  0  0
 24 22  1  0  0  0  0
 25 24  2  0  0  0  0
 26 28  1  0  0  0  0
 26 24  1  0  0  0  0
 28 27  1  6  0  0  0
 30 28  1  0  0  0  0
 30 29  1  0  0  0  0
M  END
>  <MODEL>
7

>  <REMARK>
 VINA RESULT:      -8.2      2.256      4.721
  Name = 
  11 active torsions:
  status: ('A' for Active; 'I' for Inactive)
    1  A    between atoms: C_1  and  N_4
    2  A    between atoms: C_1  and  C_27
    3  A    between atoms: N_4  and  C_5
    4  A    between atoms: C_5  and  C_22
    5  A    between atoms: C_8  and  C_12
    6  A    between atoms: C_8  and  C_27
    7  A    between atoms: C_9  and  C_12
    8  A    between atoms: C_9  and  C_21
    9  A    between atoms: C_15  and  C_16
   10  A    between atoms: C_16  and  C_25
   11  A    between atoms: C_19  and  C_29
                            x       y       z     vdW  Elec       q    Type
                         _______ _______ _______ _____ _____    ______ ____

>  <TORSDO>
F 11

$$$$
=
 OpenBabel10272413463D

 30 32  0  0  1  0  0  0  0  0999 V2000
  185.1100  178.5550  145.3630 C   0  0  0  0  0  0  0  0  0  0  0  0
  185.2450  178.7370  146.7420 C   0  0  0  0  0  3  0  0  0  0  0  0
  183.8240  178.9520  144.7190 C   0  0  0  0  0  1  0  0  0  0  0  0
  187.3840  177.6730  145.2700 C   0  0  0  0  0  0  0  0  0  0  0  0
  186.4330  178.3930  147.3860 C   0  0  0  0  0  3  0  0  0  0  0  0
  186.1750  178.0120  144.6130 C   0  0  0  0  0  0  0  0  0  0  0  0
  187.4970  177.8680  146.6510 C   0  0  0  0  0  3  0  0  0  0  0  0
  190.4660  176.3070  142.2310 C   0  0  0  0  0  3  0  0  0  0  0  0
  191.1960  176.3430  143.5400 C   0  0  0  0  0  2  0  0  0  0  0  0
  189.1270  176.2900  142.1580 C   0  0  0  0  0  3  0  0  0  0  0  0
  189.6090  178.2350  144.2630 C   0  0  0  0  0  2  0  0  0  0  0  0
  188.1990  176.2490  143.3520 C   0  0  0  0  0  2  0  0  0  0  0  0
  191.0490  177.7050  144.2330 C   0  0  1  0  0  3  0  0  0  0  0  0
  188.5880  177.1330  144.5550 C   0  0  2  0  0  3  0  0  0  0  0  0
  191.6050  177.6330  145.6440 C   0  0  0  0  0  2  0  0  0  0  0  0
  192.2480  176.1510  147.5140 C   0  0  0  0  0  2  0  0  0  0  0  0
  191.5890  176.2020  146.1490 C   0  0  0  0  0  3  0  0  0  0  0  0
  190.7380  176.1270  147.4020 C   0  0  0  0  0  2  0  0  0  0  0  0
  186.0200  177.8160  143.1330 C   0  0  0  0  0  2  0  0  0  0  0  0
  186.2340  179.0730  142.4380 N   0  0  0  0  0  2  0  0  0  0  0  0
  186.1250  178.7880  141.0170 C   0  0  0  0  0  2  0  0  0  0  0  0
  184.6920  178.4220  140.6530 C   0  0  1  0  0  3  0  0  0  0  0  0
  183.8250  179.2970  141.2800 F   0  0  0  0  0  0  0  0  0  0  0  0
  184.4680  178.4600  139.1720 C   0  0  0  0  0  0  0  0  0  0  0  0
  185.3490  178.8480  138.4190 O   0  0  0  0  0  0  0  0  0  0  0  0
  183.1480  178.0290  138.6180 C   0  0  0  0  0  2  0  0  0  0  0  0
  182.9780  175.5200  138.4820 C   0  0  0  0  0  1  0  0  0  0  0  0
  182.6470  176.7600  139.2990 C   0  0  2  0  0  3  0  0  0  0  0  0
  180.8180  177.8840  140.6540 C   0  0  0  0  0  1  0  0  0  0  0  0
  181.1510  176.8490  139.5880 C   0  0  0  0  0  2  0  0  0  0  0  0
  1  2  1  0  0  0  0
  2  5  2  0  0  0  0
  3  1  1  0  0  0  0
  4  7  2  0  0  0  0
  6  4  1  0  0  0  0
  6  1  2  0  0  0  0
  7  5  1  0  0  0  0
  8  9  1  0  0  0  0
  9 13  1  0  0  0  0
 10  8  2  0  0  0  0
 10 12  1  0  0  0  0
 11 14  1  0  0  0  0
 12 14  1  0  0  0  0
 13 11  1  0  0  0  0
 13 15  1  1  0  0  0
 14  4  1  6  0  0  0
 15 17  1  0  0  0  0
 17 18  1  0  0  0  0
 17 16  1  0  0  0  0
 18 16  1  0  0  0  0
 19  6  1  0  0  0  0
 20 19  1  0  0  0  0
 21 20  1  0  0  0  0
 22 21  1  0  0  0  0
 22 23  1  1  0  0  0
 24 22  1  0  0  0  0
 25 24  2  0  0  0  0
 26 24  1  0  0  0  0
 26 28  1  0  0  0  0
 28 27  1  6  0  0  0
 28 30  1  0  0  0  0
 30 29  1  0  0  0  0
M  END
>  <MODEL>
8

>  <REMARK>
 VINA RESULT:      -8.1      2.544      5.057
  Name = 
  11 active torsions:
  status: ('A' for Active; 'I' for Inactive)
    1  A    between atoms: C_1  and  N_4
    2  A    between atoms: C_1  and  C_27
    3  A    between atoms: N_4  and  C_5
    4  A    between atoms: C_5  and  C_22
    5  A    between atoms: C_8  and  C_12
    6  A    between atoms: C_8  and  C_27
    7  A    between atoms: C_9  and  C_12
    8  A    between atoms: C_9  and  C_21
    9  A    between atoms: C_15  and  C_16
   10  A    between atoms: C_16  and  C_25
   11  A    between atoms: C_19  and  C_29
                            x       y       z     vdW  Elec       q    Type
                         _______ _______ _______ _____ _____    ______ ____

>  <TORSDO>
F 11

$$$$
=
 OpenBabel10272413463D

 30 32  0  0  1  0  0  0  0  0999 V2000
  185.1890  178.5400  145.4830 C   0  0  0  0  0  0  0  0  0  0  0  0
  185.3580  178.7770  146.8500 C   0  0  0  0  0  3  0  0  0  0  0  0
  183.8940  178.9280  144.8500 C   0  0  0  0  0  1  0  0  0  0  0  0
  187.4490  177.6220  145.3780 C   0  0  0  0  0  0  0  0  0  0  0  0
  186.5550  178.4430  147.4820 C   0  0  0  0  0  3  0  0  0  0  0  0
  186.2300  177.9510  144.7330 C   0  0  0  0  0  0  0  0  0  0  0  0
  187.5960  177.8730  146.7460 C   0  0  0  0  0  3  0  0  0  0  0  0
  190.4620  176.1240  142.3310 C   0  0  0  0  0  3  0  0  0  0  0  0
  191.2030  176.1530  143.6340 C   0  0  0  0  0  2  0  0  0  0  0  0
  189.1220  176.1490  142.2690 C   0  0  0  0  0  3  0  0  0  0  0  0
  189.6830  178.1020  144.3460 C   0  0  0  0  0  2  0  0  0  0  0  0
  188.2030  176.1510  143.4700 C   0  0  0  0  0  2  0  0  0  0  0  0
  191.1050  177.5270  144.3110 C   0  0  1  0  0  3  0  0  0  0  0  0
  188.6300  177.0370  144.6600 C   0  0  2  0  0  3  0  0  0  0  0  0
  191.6700  177.4540  145.7190 C   0  0  0  0  0  2  0  0  0  0  0  0
  192.2970  175.9750  147.5980 C   0  0  0  0  0  2  0  0  0  0  0  0
  191.6600  176.0210  146.2210 C   0  0  0  0  0  3  0  0  0  0  0  0
  190.7890  175.9350  147.4590 C   0  0  0  0  0  2  0  0  0  0  0  0
  186.0400  177.6960  143.2660 C   0  0  0  0  0  2  0  0  0  0  0  0
  186.2580  178.9190  142.5140 N   0  0  0  0  0  2  0  0  0  0  0  0
  186.3720  178.5350  141.1170 C   0  0  0  0  0  2  0  0  0  0  0  0
  187.7000  179.0070  140.5390 C   0  0  1  0  0  3  0  0  0  0  0  0
  188.6660  178.9720  141.5280 F   0  0  0  0  0  0  0  0  0  0  0  0
  188.1320  178.1640  139.3790 C   0  0  0  0  0  0  0  0  0  0  0  0
  187.3050  177.6300  138.6550 O   0  0  0  0  0  0  0  0  0  0  0  0
  189.5910  177.9670  139.1170 C   0  0  0  0  0  2  0  0  0  0  0  0
  191.1030  176.0320  138.5600 C   0  0  0  0  0  1  0  0  0  0  0  0
  189.8340  176.7830  138.1880 C   0  0  2  0  0  3  0  0  0  0  0  0
  189.6390  176.0810  135.7560 C   0  0  0  0  0  1  0  0  0  0  0  0
  189.8630  177.2300  136.7290 C   0  0  0  0  0  2  0  0  0  0  0  0
  1  2  1  0  0  0  0
  2  5  2  0  0  0  0
  3  1  1  0  0  0  0
  4  7  2  0  0  0  0
  6  4  1  0  0  0  0
  6  1  2  0  0  0  0
  7  5  1  0  0  0  0
  8  9  1  0  0  0  0
  9 13  1  0  0  0  0
 10  8  2  0  0  0  0
 10 12  1  0  0  0  0
 11 14  1  0  0  0  0
 12 14  1  0  0  0  0
 13 11  1  0  0  0  0
 13 15  1  1  0  0  0
 14  4  1  6  0  0  0
 15 17  1  0  0  0  0
 17 18  1  0  0  0  0
 17 16  1  0  0  0  0
 18 16  1  0  0  0  0
 19  6  1  0  0  0  0
 20 19  1  0  0  0  0
 21 20  1  0  0  0  0
 22 21  1  0  0  0  0
 22 23  1  1  0  0  0
 24 22  1  0  0  0  0
 25 24  2  0  0  0  0
 26 24  1  0  0  0  0
 28 27  1  1  0  0  0
 28 26  1  0  0  0  0
 29 30  1  0  0  0  0
 30 28  1  0  0  0  0
M  END
>  <MODEL>
9

>  <REMARK>
 VINA RESULT:      -8.1      1.665      3.337
  Name = 
  11 active torsions:
  status: ('A' for Active; 'I' for Inactive)
    1  A    between atoms: C_1  and  N_4
    2  A    between atoms: C_1  and  C_27
    3  A    between atoms: N_4  and  C_5
    4  A    between atoms: C_5  and  C_22
    5  A    between atoms: C_8  and  C_12
    6  A    between atoms: C_8  and  C_27
    7  A    between atoms: C_9  and  C_12
    8  A    between atoms: C_9  and  C_21
    9  A    between atoms: C_15  and  C_16
   10  A    between atoms: C_16  and  C_25
   11  A    between atoms: C_19  and  C_29
                            x       y       z     vdW  Elec       q    Type
                         _______ _______ _______ _____ _____    ______ ____

>  <TORSDO>
F 11

$$$$
