=
 OpenBabel10272401493D

 28 31  0  0  1  0  0  0  0  0999 V2000
  187.7530  177.5610  145.0900 C   0  0  0  0  0  0  0  0  0  0  0  0
  191.4880  176.7770  147.6800 Cl  0  0  0  0  0  0  0  0  0  0  0  0
  190.4320  177.3030  142.4190 N   0  0  0  0  0  0  0  0  0  0  0  0
  190.3200  177.6310  145.2340 C   0  0  2  0  0  3  0  0  0  0  0  0
  189.1540  177.4370  143.0650 C   0  0  0  0  0  3  0  0  0  0  0  0
  188.8880  177.0030  147.1450 C   0  0  0  0  0  3  0  0  0  0  0  0
  191.5310  177.0530  144.5490 C   0  0  0  0  0  3  0  0  0  0  0  0
  190.1170  177.0880  146.6280 C   0  0  0  0  0  0  0  0  0  0  0  0
  191.5770  176.9560  143.2200 C   0  0  0  0  0  3  0  0  0  0  0  0
  187.7170  177.3050  146.3670 N   0  0  0  0  0  0  0  0  0  0  0  0
  189.0640  177.5350  144.3950 C   0  0  0  0  0  0  0  0  0  0  0  0
  191.6520  176.9150  140.3940 C   0  0  0  0  0  3  0  0  0  0  0  0
  188.9240  177.1740  139.0370 C   0  0  0  0  0  3  0  0  0  0  0  0
  190.9340  175.9210  138.2720 C   0  0  0  0  0  0  0  0  0  0  0  0
  190.5080  177.3010  140.9800 C   0  0  0  0  0  0  0  0  0  0  0  0
  188.3180  179.0410  140.8040 Cl  0  0  0  0  0  0  0  0  0  0  0  0
  189.6130  176.1000  138.2940 C   0  0  0  0  0  3  0  0  0  0  0  0
  189.3270  177.7460  140.1800 C   0  0  0  0  0  0  0  0  0  0  0  0
  191.4970  174.7870  137.4950 C   0  0  0  0  0  1  0  0  0  0  0  0
  191.8670  176.8900  138.9190 C   0  0  0  0  0  2  0  0  0  0  0  0
  186.4910  177.8730  144.3720 C   0  0  0  0  0  0  0  0  0  0  0  0
  186.4490  177.6990  142.9820 C   0  0  0  0  0  3  0  0  0  0  0  0
  184.1900  178.6570  144.2740 C   0  0  0  0  0  0  0  0  0  0  0  0
  185.2890  178.0020  142.2740 C   0  0  0  0  0  3  0  0  0  0  0  0
  185.3120  178.5250  146.5230 C   0  0  0  0  0  1  0  0  0  0  0  0
  185.3390  178.3620  145.0330 C   0  0  0  0  0  0  0  0  0  0  0  0
  182.9450  179.1690  144.9180 C   0  0  0  0  0  1  0  0  0  0  0  0
  184.1970  178.4700  142.9280 N   0  0  0  0  0  0  0  0  0  0  0  0
  1 10  2  0  0  0  0
  3  5  1  0  0  0  0
  3  9  1  0  0  0  0
  4  7  1  6  0  0  0
  4  8  1  0  0  0  0
  5 11  2  0  0  0  0
  8  6  2  0  0  0  0
  8  2  1  0  0  0  0
  9  7  2  0  0  0  0
 10  6  1  0  0  0  0
 11  1  1  0  0  0  0
 11  4  1  0  0  0  0
 12 15  2  0  0  0  0
 13 18  2  0  0  0  0
 14 17  2  0  0  0  0
 14 20  1  0  0  0  0
 15  3  1  0  0  0  0
 17 13  1  0  0  0  0
 18 16  1  0  0  0  0
 18 15  1  0  0  0  0
 19 14  1  0  0  0  0
 20 12  1  0  0  0  0
 21 26  1  0  0  0  0
 21  1  1  0  0  0  0
 22 21  2  0  0  0  0
 23 27  1  0  0  0  0
 23 26  2  0  0  0  0
 24 28  2  0  0  0  0
 24 22  1  0  0  0  0
 26 25  1  0  0  0  0
 28 23  1  0  0  0  0
M  END
>  <MODEL>
1

>  <REMARK>
 VINA RESULT:     -10.4      0.000      0.000
  Name = 
  2 active torsions:
  status: ('A' for Active; 'I' for Inactive)
    1  A    between atoms: C_1  and  C_2
    2  A    between atoms: N_10  and  C_13
                            x       y       z     vdW  Elec       q    Type
                         _______ _______ _______ _____ _____    ______ ____

>  <TORSDO>
F 2

$$$$
=
 OpenBabel10272401493D

 28 31  0  0  1  0  0  0  0  0999 V2000
  187.7180  177.7430  144.8670 C   0  0  0  0  0  0  0  0  0  0  0  0
  183.3310  179.1450  145.0920 Cl  0  0  0  0  0  0  0  0  0  0  0  0
  186.9340  178.2230  141.1900 N   0  0  0  0  0  0  0  0  0  0  0  0
  185.4860  178.0230  143.6200 C   0  0  2  0  0  3  0  0  0  0  0  0
  187.6400  177.9520  142.4120 C   0  0  0  0  0  3  0  0  0  0  0  0
  185.7560  178.5480  146.0180 C   0  0  0  0  0  3  0  0  0  0  0  0
  184.9190  178.7230  142.4130 C   0  0  0  0  0  3  0  0  0  0  0  0
  184.9920  178.6020  144.9230 C   0  0  0  0  0  0  0  0  0  0  0  0
  185.6000  178.7600  141.2670 C   0  0  0  0  0  3  0  0  0  0  0  0
  187.1060  178.0540  145.9740 N   0  0  0  0  0  0  0  0  0  0  0  0
  186.9950  177.9090  143.5820 C   0  0  0  0  0  0  0  0  0  0  0  0
  188.9660  178.3230  139.9250 C   0  0  0  0  0  3  0  0  0  0  0  0
  187.2730  177.1820  137.6490 C   0  0  0  0  0  3  0  0  0  0  0  0
  189.7240  176.9730  138.0240 C   0  0  0  0  0  0  0  0  0  0  0  0
  187.6350  178.1640  139.9310 C   0  0  0  0  0  0  0  0  0  0  0  0
  185.2620  178.6550  138.5230 Cl  0  0  0  0  0  0  0  0  0  0  0  0
  188.5820  176.5120  137.5160 C   0  0  0  0  0  3  0  0  0  0  0  0
  186.8630  177.9490  138.6700 C   0  0  0  0  0  0  0  0  0  0  0  0
  190.9700  176.1890  137.8310 C   0  0  0  0  0  1  0  0  0  0  0  0
  189.8040  178.3060  138.6910 C   0  0  0  0  0  2  0  0  0  0  0  0
  189.1110  177.2300  144.9230 C   0  0  0  0  0  0  0  0  0  0  0  0
  189.7520  176.8990  143.7220 C   0  0  0  0  0  3  0  0  0  0  0  0
  191.1160  176.5250  146.1080 C   0  0  0  0  0  0  0  0  0  0  0  0
  191.0500  176.3950  143.7380 C   0  0  0  0  0  3  0  0  0  0  0  0
  189.1860  177.4190  147.4530 C   0  0  0  0  0  1  0  0  0  0  0  0
  189.8050  177.0400  146.1420 C   0  0  0  0  0  0  0  0  0  0  0  0
  191.8980  176.3100  147.3610 C   0  0  0  0  0  1  0  0  0  0  0  0
  191.6970  176.2200  144.9180 N   0  0  0  0  0  0  0  0  0  0  0  0
  1 21  1  0  0  0  0
  1 10  2  0  0  0  0
  3  9  1  0  0  0  0
  3  5  1  0  0  0  0
  4  7  1  6  0  0  0
  4  8  1  0  0  0  0
  5 11  2  0  0  0  0
  8  2  1  0  0  0  0
  8  6  2  0  0  0  0
  9  7  2  0  0  0  0
 10  6  1  0  0  0  0
 11  4  1  0  0  0  0
 11  1  1  0  0  0  0
 12 15  2  0  0  0  0
 13 18  2  0  0  0  0
 14 20  1  0  0  0  0
 15  3  1  0  0  0  0
 16 18  1  0  0  0  0
 17 13  1  0  0  0  0
 17 14  2  0  0  0  0
 18 15  1  0  0  0  0
 19 14  1  0  0  0  0
 20 12  1  0  0  0  0
 21 26  1  0  0  0  0
 22 24  1  0  0  0  0
 22 21  2  0  0  0  0
 23 26  2  0  0  0  0
 23 27  1  0  0  0  0
 24 28  2  0  0  0  0
 26 25  1  0  0  0  0
 28 23  1  0  0  0  0
M  END
>  <MODEL>
2

>  <REMARK>
 VINA RESULT:     -10.2      2.305      4.785
  Name = 
  2 active torsions:
  status: ('A' for Active; 'I' for Inactive)
    1  A    between atoms: C_1  and  C_2
    2  A    between atoms: N_10  and  C_13
                            x       y       z     vdW  Elec       q    Type
                         _______ _______ _______ _____ _____    ______ ____

>  <TORSDO>
F 2

$$$$
=
 OpenBabel10272401493D

 28 31  0  0  1  0  0  0  0  0999 V2000
  185.6150  178.2800  144.4660 C   0  0  0  0  0  0  0  0  0  0  0  0
  181.3430  179.4040  143.1390 Cl  0  0  0  0  0  0  0  0  0  0  0  0
  186.0410  178.3810  140.7010 N   0  0  0  0  0  0  0  0  0  0  0  0
  183.8960  178.3020  142.5530 C   0  0  2  0  0  3  0  0  0  0  0  0
  186.3250  178.2670  142.1050 C   0  0  0  0  0  3  0  0  0  0  0  0
  183.3600  179.0520  144.8440 C   0  0  0  0  0  3  0  0  0  0  0  0
  183.7240  178.8530  141.1620 C   0  0  0  0  0  3  0  0  0  0  0  0
  182.9880  178.9590  143.5640 C   0  0  0  0  0  0  0  0  0  0  0  0
  184.7360  178.8340  140.2940 C   0  0  0  0  0  3  0  0  0  0  0  0
  184.6680  178.6460  145.2830 N   0  0  0  0  0  0  0  0  0  0  0  0
  185.3390  178.2840  143.0080 C   0  0  0  0  0  0  0  0  0  0  0  0
  188.3670  178.5150  140.1410 C   0  0  0  0  0  3  0  0  0  0  0  0
  187.5440  177.0440  137.5890 C   0  0  0  0  0  3  0  0  0  0  0  0
  189.7510  177.0550  138.7400 C   0  0  0  0  0  0  0  0  0  0  0  0
  187.1120  178.2580  139.7430 C   0  0  0  0  0  0  0  0  0  0  0  0
  185.3010  178.4390  137.6120 Cl  0  0  0  0  0  0  0  0  0  0  0  0
  188.8530  176.4640  137.9520 C   0  0  0  0  0  3  0  0  0  0  0  0
  186.7970  177.8710  138.3350 C   0  0  0  0  0  0  0  0  0  0  0  0
  191.0240  176.3500  139.0390 C   0  0  0  0  0  1  0  0  0  0  0  0
  189.5580  178.4460  139.2440 C   0  0  0  0  0  2  0  0  0  0  0  0
  186.9320  177.8670  145.0140 C   0  0  0  0  0  0  0  0  0  0  0  0
  187.8380  177.2170  144.1650 C   0  0  0  0  0  3  0  0  0  0  0  0
  188.5570  177.6370  146.8110 C   0  0  0  0  0  0  0  0  0  0  0  0
  189.0730  176.7970  144.6510 C   0  0  0  0  0  3  0  0  0  0  0  0
  186.3870  178.8110  147.3060 C   0  0  0  0  0  1  0  0  0  0  0  0
  187.2960  178.0820  146.3650 C   0  0  0  0  0  0  0  0  0  0  0  0
  188.9970  177.8420  148.2210 C   0  0  0  0  0  1  0  0  0  0  0  0
  189.4020  177.0130  145.9490 N   0  0  0  0  0  0  0  0  0  0  0  0
  1 21  1  0  0  0  0
  1 10  2  0  0  0  0
  2  8  1  0  0  0  0
  3  5  1  0  0  0  0
  4  7  1  6  0  0  0
  4 11  1  0  0  0  0
  4  8  1  0  0  0  0
  5 11  2  0  0  0  0
  6 10  1  0  0  0  0
  8  6  2  0  0  0  0
  9  3  1  0  0  0  0
  9  7  2  0  0  0  0
 11  1  1  0  0  0  0
 13 17  1  0  0  0  0
 13 18  2  0  0  0  0
 14 19  1  0  0  0  0
 14 20  1  0  0  0  0
 15 12  2  0  0  0  0
 15  3  1  0  0  0  0
 16 18  1  0  0  0  0
 17 14  2  0  0  0  0
 18 15  1  0  0  0  0
 20 12  1  0  0  0  0
 21 26  1  0  0  0  0
 22 24  1  0  0  0  0
 22 21  2  0  0  0  0
 23 27  1  0  0  0  0
 24 28  2  0  0  0  0
 26 23  2  0  0  0  0
 26 25  1  0  0  0  0
 28 23  1  0  0  0  0
M  END
>  <MODEL>
3

>  <REMARK>
 VINA RESULT:      -9.9      2.807      5.034
  Name = 
  2 active torsions:
  status: ('A' for Active; 'I' for Inactive)
    1  A    between atoms: C_1  and  C_2
    2  A    between atoms: N_10  and  C_13
                            x       y       z     vdW  Elec       q    Type
                         _______ _______ _______ _____ _____    ______ ____

>  <TORSDO>
F 2

$$$$
=
 OpenBabel10272401493D

 28 31  0  0  1  0  0  0  0  0999 V2000
  188.7970  177.2950  143.3700 C   0  0  0  0  0  0  0  0  0  0  0  0
  191.3450  176.8950  139.5470 Cl  0  0  0  0  0  0  0  0  0  0  0  0
  186.3540  178.5370  140.7520 N   0  0  0  0  0  0  0  0  0  0  0  0
  189.1390  178.0310  140.9300 C   0  0  2  0  0  3  0  0  0  0  0  0
  186.9180  178.1280  142.0090 C   0  0  0  0  0  3  0  0  0  0  0  0
  190.7050  176.5290  142.1070 C   0  0  0  0  0  3  0  0  0  0  0  0
  188.4120  178.0240  139.6100 C   0  0  0  0  0  3  0  0  0  0  0  0
  190.3190  177.0910  140.9580 C   0  0  0  0  0  0  0  0  0  0  0  0
  187.1120  178.3140  139.5480 C   0  0  0  0  0  3  0  0  0  0  0  0
  189.9540  176.6970  143.3220 N   0  0  0  0  0  0  0  0  0  0  0  0
  188.2170  177.8260  142.1120 C   0  0  0  0  0  0  0  0  0  0  0  0
  184.4250  179.1900  139.4890 C   0  0  0  0  0  3  0  0  0  0  0  0
  182.9180  178.7850  142.1190 C   0  0  0  0  0  3  0  0  0  0  0  0
  182.0610  178.6170  139.7890 C   0  0  0  0  0  0  0  0  0  0  0  0
  184.9750  178.9540  140.6890 C   0  0  0  0  0  0  0  0  0  0  0  0
  185.0330  179.7440  143.3780 Cl  0  0  0  0  0  0  0  0  0  0  0  0
  181.9990  178.2840  141.0780 C   0  0  0  0  0  3  0  0  0  0  0  0
  184.2030  179.1320  141.9560 C   0  0  0  0  0  0  0  0  0  0  0  0
  181.0810  178.0250  138.8420 C   0  0  0  0  0  1  0  0  0  0  0  0
  183.0190  179.6460  139.2890 C   0  0  0  0  0  2  0  0  0  0  0  0
  188.1000  177.4310  144.6750 C   0  0  0  0  0  0  0  0  0  0  0  0
  186.7040  177.3220  144.7030 C   0  0  0  0  0  3  0  0  0  0  0  0
  188.0500  177.8290  147.0750 C   0  0  0  0  0  0  0  0  0  0  0  0
  186.0150  177.4650  145.9050 C   0  0  0  0  0  3  0  0  0  0  0  0
  190.2860  177.7710  145.9210 C   0  0  0  0  0  1  0  0  0  0  0  0
  188.7890  177.6890  145.8840 C   0  0  0  0  0  0  0  0  0  0  0  0
  188.7230  178.0960  148.3790 C   0  0  0  0  0  1  0  0  0  0  0  0
  186.6960  177.7140  147.0520 N   0  0  0  0  0  0  0  0  0  0  0  0
  1 21  1  0  0  0  0
  2  8  1  0  0  0  0
  3  5  1  0  0  0  0
  4  7  1  6  0  0  0
  4  8  1  0  0  0  0
  4 11  1  0  0  0  0
  5 11  2  0  0  0  0
  6 10  1  0  0  0  0
  8  6  2  0  0  0  0
  9  7  2  0  0  0  0
  9  3  1  0  0  0  0
 10  1  2  0  0  0  0
 11  1  1  0  0  0  0
 12 15  2  0  0  0  0
 14 17  2  0  0  0  0
 15  3  1  0  0  0  0
 15 18  1  0  0  0  0
 17 13  1  0  0  0  0
 18 13  2  0  0  0  0
 18 16  1  0  0  0  0
 19 14  1  0  0  0  0
 20 12  1  0  0  0  0
 20 14  1  0  0  0  0
 21 22  2  0  0  0  0
 21 26  1  0  0  0  0
 22 24  1  0  0  0  0
 23 27  1  0  0  0  0
 24 28  2  0  0  0  0
 26 25  1  0  0  0  0
 26 23  2  0  0  0  0
 28 23  1  0  0  0  0
M  END
>  <MODEL>
4

>  <REMARK>
 VINA RESULT:      -9.8      2.478      5.908
  Name = 
  2 active torsions:
  status: ('A' for Active; 'I' for Inactive)
    1  A    between atoms: C_1  and  C_2
    2  A    between atoms: N_10  and  C_13
                            x       y       z     vdW  Elec       q    Type
                         _______ _______ _______ _____ _____    ______ ____

>  <TORSDO>
F 2

$$$$
=
 OpenBabel10272401493D

 28 31  0  0  1  0  0  0  0  0999 V2000
  189.0340  177.5610  143.3070 C   0  0  0  0  0  0  0  0  0  0  0  0
  187.6010  177.5930  147.6900 Cl  0  0  0  0  0  0  0  0  0  0  0  0
  185.3550  178.3510  142.8490 N   0  0  0  0  0  0  0  0  0  0  0  0
  187.0360  177.3760  144.9150 C   0  0  2  0  0  3  0  0  0  0  0  0
  186.7450  178.1110  142.5740 C   0  0  0  0  0  3  0  0  0  0  0  0
  189.3680  177.5840  145.6960 C   0  0  0  0  0  3  0  0  0  0  0  0
  185.7260  178.0590  145.2110 C   0  0  0  0  0  3  0  0  0  0  0  0
  188.0660  177.5820  145.9970 C   0  0  0  0  0  0  0  0  0  0  0  0
  184.9310  178.4640  144.2200 C   0  0  0  0  0  3  0  0  0  0  0  0
  189.8310  177.5100  144.3360 N   0  0  0  0  0  0  0  0  0  0  0  0
  187.5760  177.7060  143.5400 C   0  0  0  0  0  0  0  0  0  0  0  0
  184.9830  179.0280  140.5810 C   0  0  0  0  0  3  0  0  0  0  0  0
  182.0800  178.2320  141.1200 C   0  0  0  0  0  3  0  0  0  0  0  0
  183.3060  178.2840  138.9550 C   0  0  0  0  0  0  0  0  0  0  0  0
  184.4610  178.6890  141.7690 C   0  0  0  0  0  0  0  0  0  0  0  0
  182.3710  179.1640  143.5740 Cl  0  0  0  0  0  0  0  0  0  0  0  0
  182.3360  177.8010  139.7310 C   0  0  0  0  0  3  0  0  0  0  0  0
  182.9860  178.6720  142.0040 C   0  0  0  0  0  0  0  0  0  0  0  0
  183.4640  177.7470  137.5780 C   0  0  0  0  0  1  0  0  0  0  0  0
  184.1690  179.4190  139.3930 C   0  0  0  0  0  2  0  0  0  0  0  0
  189.6040  177.4670  141.9380 C   0  0  0  0  0  0  0  0  0  0  0  0
  188.7250  177.3770  140.8510 C   0  0  0  0  0  3  0  0  0  0  0  0
  191.4560  177.3250  140.3660 C   0  0  0  0  0  0  0  0  0  0  0  0
  189.2250  177.2660  139.5560 C   0  0  0  0  0  3  0  0  0  0  0  0
  191.9840  177.5790  142.8140 C   0  0  0  0  0  1  0  0  0  0  0  0
  190.9980  177.4410  141.6940 C   0  0  0  0  0  0  0  0  0  0  0  0
  192.9130  177.2980  140.0480 C   0  0  0  0  0  1  0  0  0  0  0  0
  190.5650  177.2410  139.3440 N   0  0  0  0  0  0  0  0  0  0  0  0
  1 11  1  0  0  0  0
  1 10  2  0  0  0  0
  3  9  1  0  0  0  0
  4  7  1  1  0  0  0
  4  8  1  0  0  0  0
  5  3  1  0  0  0  0
  5 11  2  0  0  0  0
  6  8  2  0  0  0  0
  8  2  1  0  0  0  0
  9  7  2  0  0  0  0
 10  6  1  0  0  0  0
 11  4  1  0  0  0  0
 12 15  2  0  0  0  0
 13 18  2  0  0  0  0
 14 20  1  0  0  0  0
 14 17  2  0  0  0  0
 15 18  1  0  0  0  0
 15  3  1  0  0  0  0
 17 13  1  0  0  0  0
 18 16  1  0  0  0  0
 19 14  1  0  0  0  0
 20 12  1  0  0  0  0
 21  1  1  0  0  0  0
 22 21  2  0  0  0  0
 23 26  2  0  0  0  0
 24 22  1  0  0  0  0
 26 21  1  0  0  0  0
 26 25  1  0  0  0  0
 27 23  1  0  0  0  0
 28 24  2  0  0  0  0
 28 23  1  0  0  0  0
M  END
>  <MODEL>
5

>  <REMARK>
 VINA RESULT:      -9.5      2.506      6.151
  Name = 
  2 active torsions:
  status: ('A' for Active; 'I' for Inactive)
    1  A    between atoms: C_1  and  C_2
    2  A    between atoms: N_10  and  C_13
                            x       y       z     vdW  Elec       q    Type
                         _______ _______ _______ _____ _____    ______ ____

>  <TORSDO>
F 2

$$$$
=
 OpenBabel10272401493D

 28 31  0  0  1  0  0  0  0  0999 V2000
  183.0430  178.3010  140.7550 C   0  0  0  0  0  0  0  0  0  0  0  0
  180.2240  179.6670  144.1390 Cl  0  0  0  0  0  0  0  0  0  0  0  0
  185.3500  178.0440  143.7530 N   0  0  0  0  0  0  0  0  0  0  0  0
  182.8490  179.2350  143.1440 C   0  0  2  0  0  3  0  0  0  0  0  0
  184.8390  177.9670  142.4120 C   0  0  0  0  0  3  0  0  0  0  0  0
  180.8890  178.8550  141.6910 C   0  0  0  0  0  3  0  0  0  0  0  0
  183.2390  178.8830  144.5560 C   0  0  0  0  0  3  0  0  0  0  0  0
  181.3620  179.1530  142.9050 C   0  0  0  0  0  0  0  0  0  0  0  0
  184.4400  178.3690  144.8210 C   0  0  0  0  0  3  0  0  0  0  0  0
  181.7620  178.4880  140.6090 N   0  0  0  0  0  0  0  0  0  0  0  0
  183.6380  178.4680  142.1050 C   0  0  0  0  0  0  0  0  0  0  0  0
  187.3840  176.9850  143.0600 C   0  0  0  0  0  3  0  0  0  0  0  0
  188.5250  178.1180  145.6610 C   0  0  0  0  0  3  0  0  0  0  0  0
  189.7180  177.5520  143.5520 C   0  0  0  0  0  0  0  0  0  0  0  0
  186.6880  177.5870  144.0350 C   0  0  0  0  0  0  0  0  0  0  0  0
  186.1860  177.6450  146.7920 Cl  0  0  0  0  0  0  0  0  0  0  0  0
  189.6200  178.2550  144.6800 C   0  0  0  0  0  3  0  0  0  0  0  0
  187.2540  177.7750  145.4050 C   0  0  0  0  0  0  0  0  0  0  0  0
  190.8650  177.8030  142.6420 C   0  0  0  0  0  1  0  0  0  0  0  0
  188.7660  176.4490  143.2290 C   0  0  0  0  0  2  0  0  0  0  0  0
  183.8670  177.9330  139.5750 C   0  0  0  0  0  0  0  0  0  0  0  0
  184.9330  178.7680  139.2150 C   0  0  0  0  0  3  0  0  0  0  0  0
  184.4170  176.5230  137.6700 C   0  0  0  0  0  0  0  0  0  0  0  0
  185.7120  178.4660  138.1020 C   0  0  0  0  0  3  0  0  0  0  0  0
  182.5030  175.8340  139.1530 C   0  0  0  0  0  1  0  0  0  0  0  0
  183.6010  176.7870  138.7880 C   0  0  0  0  0  0  0  0  0  0  0  0
  184.1880  175.3270  136.8080 C   0  0  0  0  0  1  0  0  0  0  0  0
  185.4400  177.3620  137.3610 N   0  0  0  0  0  0  0  0  0  0  0  0
  1 11  1  0  0  0  0
  3 15  1  0  0  0  0
  3  9  1  0  0  0  0
  4  7  1  1  0  0  0
  5  3  1  0  0  0  0
  6  8  2  0  0  0  0
  7  9  2  0  0  0  0
  8  4  1  0  0  0  0
  8  2  1  0  0  0  0
 10  1  2  0  0  0  0
 10  6  1  0  0  0  0
 11  5  2  0  0  0  0
 11  4  1  0  0  0  0
 12 20  1  0  0  0  0
 12 15  2  0  0  0  0
 14 17  2  0  0  0  0
 15 18  1  0  0  0  0
 17 13  1  0  0  0  0
 18 13  2  0  0  0  0
 18 16  1  0  0  0  0
 19 14  1  0  0  0  0
 20 14  1  0  0  0  0
 21  1  1  0  0  0  0
 22 21  1  0  0  0  0
 23 26  1  0  0  0  0
 24 22  2  0  0  0  0
 26 25  1  0  0  0  0
 26 21  2  0  0  0  0
 27 23  1  0  0  0  0
 28 23  2  0  0  0  0
 28 24  1  0  0  0  0
M  END
>  <MODEL>
6

>  <REMARK>
 VINA RESULT:      -9.4      3.389      7.015
  Name = 
  2 active torsions:
  status: ('A' for Active; 'I' for Inactive)
    1  A    between atoms: C_1  and  C_2
    2  A    between atoms: N_10  and  C_13
                            x       y       z     vdW  Elec       q    Type
                         _______ _______ _______ _____ _____    ______ ____

>  <TORSDO>
F 2

$$$$
=
 OpenBabel10272401493D

 28 31  0  0  1  0  0  0  0  0999 V2000
  190.0600  177.4810  140.4810 C   0  0  0  0  0  0  0  0  0  0  0  0
  191.1170  176.6340  144.8900 Cl  0  0  0  0  0  0  0  0  0  0  0  0
  186.7310  178.1720  142.1590 N   0  0  0  0  0  0  0  0  0  0  0  0
  189.1800  176.9090  142.8290 C   0  0  2  0  0  3  0  0  0  0  0  0
  187.7600  178.0520  141.1620 C   0  0  0  0  0  3  0  0  0  0  0  0
  191.5870  177.0760  142.3050 C   0  0  0  0  0  3  0  0  0  0  0  0
  188.2580  177.4640  143.8830 C   0  0  0  0  0  3  0  0  0  0  0  0
  190.6330  176.9590  143.2330 C   0  0  0  0  0  0  0  0  0  0  0  0
  187.0890  178.0090  143.5440 C   0  0  0  0  0  3  0  0  0  0  0  0
  191.2710  177.2780  140.9160 N   0  0  0  0  0  0  0  0  0  0  0  0
  188.9470  177.5130  141.4620 C   0  0  0  0  0  0  0  0  0  0  0  0
  185.1340  178.7880  140.4820 C   0  0  0  0  0  3  0  0  0  0  0  0
  183.1330  178.7890  142.7950 C   0  0  0  0  0  3  0  0  0  0  0  0
  182.7160  178.4010  140.3720 C   0  0  0  0  0  0  0  0  0  0  0  0
  185.4280  178.6620  141.7850 C   0  0  0  0  0  0  0  0  0  0  0  0
  185.0460  179.7570  144.3360 Cl  0  0  0  0  0  0  0  0  0  0  0  0
  182.3860  178.2260  141.6520 C   0  0  0  0  0  3  0  0  0  0  0  0
  184.4500  179.0350  142.8510 C   0  0  0  0  0  0  0  0  0  0  0  0
  181.8850  177.7630  139.3190 C   0  0  0  0  0  1  0  0  0  0  0  0
  183.8330  179.3030  139.9660 C   0  0  0  0  0  2  0  0  0  0  0  0
  189.8290  177.6690  139.0260 C   0  0  0  0  0  0  0  0  0  0  0  0
  189.2270  178.8570  138.5900 C   0  0  0  0  0  3  0  0  0  0  0  0
  189.8950  176.9320  136.7080 C   0  0  0  0  0  0  0  0  0  0  0  0
  188.9760  179.0580  137.2350 C   0  0  0  0  0  3  0  0  0  0  0  0
  190.8570  175.4150  138.4710 C   0  0  0  0  0  1  0  0  0  0  0  0
  190.1710  176.6850  138.0680 C   0  0  0  0  0  0  0  0  0  0  0  0
  190.2390  175.9350  135.6530 C   0  0  0  0  0  1  0  0  0  0  0  0
  189.3110  178.1010  136.3330 N   0  0  0  0  0  0  0  0  0  0  0  0
  1 10  2  0  0  0  0
  1 11  1  0  0  0  0
  3  9  1  0  0  0  0
  4  8  1  0  0  0  0
  4  7  1  1  0  0  0
  5 11  2  0  0  0  0
  5  3  1  0  0  0  0
  6  8  2  0  0  0  0
  8  2  1  0  0  0  0
  9  7  2  0  0  0  0
 10  6  1  0  0  0  0
 11  4  1  0  0  0  0
 12 15  2  0  0  0  0
 13 18  2  0  0  0  0
 14 17  2  0  0  0  0
 15  3  1  0  0  0  0
 15 18  1  0  0  0  0
 17 13  1  0  0  0  0
 18 16  1  0  0  0  0
 19 14  1  0  0  0  0
 20 14  1  0  0  0  0
 20 12  1  0  0  0  0
 21  1  1  0  0  0  0
 22 21  1  0  0  0  0
 23 26  1  0  0  0  0
 24 22  2  0  0  0  0
 26 25  1  0  0  0  0
 26 21  2  0  0  0  0
 27 23  1  0  0  0  0
 28 23  2  0  0  0  0
 28 24  1  0  0  0  0
M  END
>  <MODEL>
7

>  <REMARK>
 VINA RESULT:      -9.2      2.469      6.793
  Name = 
  2 active torsions:
  status: ('A' for Active; 'I' for Inactive)
    1  A    between atoms: C_1  and  C_2
    2  A    between atoms: N_10  and  C_13
                            x       y       z     vdW  Elec       q    Type
                         _______ _______ _______ _____ _____    ______ ____

>  <TORSDO>
F 2

$$$$
=
 OpenBabel10272401493D

 28 31  0  0  1  0  0  0  0  0999 V2000
  186.6910  178.1580  142.4220 C   0  0  0  0  0  0  0  0  0  0  0  0
  189.9170  177.3950  139.2170 Cl  0  0  0  0  0  0  0  0  0  0  0  0
  184.6710  178.6340  139.2500 N   0  0  0  0  0  0  0  0  0  0  0  0
  187.4090  178.4920  139.9750 C   0  0  2  0  0  3  0  0  0  0  0  0
  185.0290  178.5180  140.6370 C   0  0  0  0  0  3  0  0  0  0  0  0
  188.8540  177.4090  141.6590 C   0  0  0  0  0  3  0  0  0  0  0  0
  186.9380  178.1710  138.5810 C   0  0  0  0  0  3  0  0  0  0  0  0
  188.6380  177.7140  140.3760 C   0  0  0  0  0  0  0  0  0  0  0  0
  185.6520  178.2930  138.2520 C   0  0  0  0  0  3  0  0  0  0  0  0
  187.8820  177.6990  142.6790 N   0  0  0  0  0  0  0  0  0  0  0  0
  186.3070  178.3910  141.0080 C   0  0  0  0  0  0  0  0  0  0  0  0
  182.8480  180.1350  138.8430 C   0  0  0  0  0  3  0  0  0  0  0  0
  181.4870  177.6920  137.6050 C   0  0  0  0  0  3  0  0  0  0  0  0
  181.1200  180.1020  137.1040 C   0  0  0  0  0  0  0  0  0  0  0  0
  183.2970  178.8710  138.8830 C   0  0  0  0  0  0  0  0  0  0  0  0
  182.6210  176.2180  139.4790 Cl  0  0  0  0  0  0  0  0  0  0  0  0
  181.0940  178.8210  136.7370 C   0  0  0  0  0  3  0  0  0  0  0  0
  182.4060  177.7110  138.5800 C   0  0  0  0  0  0  0  0  0  0  0  0
  180.7140  181.1420  136.1240 C   0  0  0  0  0  1  0  0  0  0  0  0
  181.4450  180.5120  138.5020 C   0  0  0  0  0  2  0  0  0  0  0  0
  185.7580  178.4370  143.5440 C   0  0  0  0  0  0  0  0  0  0  0  0
  184.4600  178.8700  143.2450 C   0  0  0  0  0  3  0  0  0  0  0  0
  185.2010  178.6160  145.9060 C   0  0  0  0  0  0  0  0  0  0  0  0
  183.5660  179.1610  144.2720 C   0  0  0  0  0  3  0  0  0  0  0  0
  187.5000  177.8060  145.2800 C   0  0  0  0  0  1  0  0  0  0  0  0
  186.1390  178.3070  144.9010 C   0  0  0  0  0  0  0  0  0  0  0  0
  185.5440  178.4910  147.3530 C   0  0  0  0  0  1  0  0  0  0  0  0
  183.9520  179.0300  145.5670 N   0  0  0  0  0  0  0  0  0  0  0  0
  1 10  2  0  0  0  0
  1 21  1  0  0  0  0
  2  8  1  0  0  0  0
  3  5  1  0  0  0  0
  4  7  1  6  0  0  0
  4  8  1  0  0  0  0
  4 11  1  0  0  0  0
  5 11  2  0  0  0  0
  6 10  1  0  0  0  0
  8  6  2  0  0  0  0
  9  7  2  0  0  0  0
  9  3  1  0  0  0  0
 11  1  1  0  0  0  0
 12 15  2  0  0  0  0
 13 18  2  0  0  0  0
 14 20  1  0  0  0  0
 15  3  1  0  0  0  0
 17 14  2  0  0  0  0
 17 13  1  0  0  0  0
 18 15  1  0  0  0  0
 18 16  1  0  0  0  0
 19 14  1  0  0  0  0
 20 12  1  0  0  0  0
 21 26  1  0  0  0  0
 22 21  2  0  0  0  0
 22 24  1  0  0  0  0
 23 27  1  0  0  0  0
 24 28  2  0  0  0  0
 26 25  1  0  0  0  0
 26 23  2  0  0  0  0
 28 23  1  0  0  0  0
M  END
>  <MODEL>
8

>  <REMARK>
 VINA RESULT:      -9.2      3.836      6.650
  Name = 
  2 active torsions:
  status: ('A' for Active; 'I' for Inactive)
    1  A    between atoms: C_1  and  C_2
    2  A    between atoms: N_10  and  C_13
                            x       y       z     vdW  Elec       q    Type
                         _______ _______ _______ _____ _____    ______ ____

>  <TORSDO>
F 2

$$$$
=
 OpenBabel10272401493D

 28 31  0  0  1  0  0  0  0  0999 V2000
  189.3480  177.7250  141.5940 C   0  0  0  0  0  0  0  0  0  0  0  0
  193.6370  177.1550  139.9980 Cl  0  0  0  0  0  0  0  0  0  0  0  0
  188.6430  176.4840  138.0820 N   0  0  0  0  0  0  0  0  0  0  0  0
  190.8590  177.5110  139.5240 C   0  0  2  0  0  3  0  0  0  0  0  0
  188.4590  176.9300  139.4360 C   0  0  0  0  0  3  0  0  0  0  0  0
  191.7440  177.5600  141.8290 C   0  0  0  0  0  3  0  0  0  0  0  0
  191.0360  176.6360  138.3110 C   0  0  0  0  0  3  0  0  0  0  0  0
  191.9750  177.3610  140.5270 C   0  0  0  0  0  0  0  0  0  0  0  0
  189.9790  176.2070  137.6220 C   0  0  0  0  0  3  0  0  0  0  0  0
  190.4180  177.8010  142.3320 N   0  0  0  0  0  0  0  0  0  0  0  0
  189.4940  177.3660  140.1620 C   0  0  0  0  0  0  0  0  0  0  0  0
  187.3110  174.8210  136.9850 C   0  0  0  0  0  3  0  0  0  0  0  0
  185.2270  177.0480  136.7610 C   0  0  0  0  0  3  0  0  0  0  0  0
  184.8760  174.5850  136.8280 C   0  0  0  0  0  0  0  0  0  0  0  0
  187.4970  176.1140  137.2900 C   0  0  0  0  0  0  0  0  0  0  0  0
  187.2120  178.7470  136.3740 Cl  0  0  0  0  0  0  0  0  0  0  0  0
  184.4450  175.8270  137.0420 C   0  0  0  0  0  3  0  0  0  0  0  0
  186.5610  177.1760  136.8120 C   0  0  0  0  0  0  0  0  0  0  0  0
  183.9910  173.4430  137.1720 C   0  0  0  0  0  1  0  0  0  0  0  0
  186.1810  174.3120  136.1560 C   0  0  0  0  0  2  0  0  0  0  0  0
  188.0210  178.0020  142.2020 C   0  0  0  0  0  0  0  0  0  0  0  0
  187.0740  178.7100  141.4510 C   0  0  0  0  0  3  0  0  0  0  0  0
  186.4140  177.9250  144.0280 C   0  0  0  0  0  0  0  0  0  0  0  0
  185.8280  179.0070  141.9970 C   0  0  0  0  0  3  0  0  0  0  0  0
  188.6430  176.8010  144.3500 C   0  0  0  0  0  1  0  0  0  0  0  0
  187.6870  177.6000  143.5170 C   0  0  0  0  0  0  0  0  0  0  0  0
  186.0040  177.5220  145.4040 C   0  0  0  0  0  1  0  0  0  0  0  0
  185.5280  178.6120  143.2600 N   0  0  0  0  0  0  0  0  0  0  0  0
  1 21  1  0  0  0  0
  1 10  2  0  0  0  0
  2  8  1  0  0  0  0
  3  5  1  0  0  0  0
  4  7  1  6  0  0  0
  4 11  1  0  0  0  0
  4  8  1  0  0  0  0
  5 11  2  0  0  0  0
  6 10  1  0  0  0  0
  8  6  2  0  0  0  0
  9  3  1  0  0  0  0
  9  7  2  0  0  0  0
 11  1  1  0  0  0  0
 12 15  2  0  0  0  0
 13 18  2  0  0  0  0
 13 17  1  0  0  0  0
 14 17  2  0  0  0  0
 14 19  1  0  0  0  0
 15  3  1  0  0  0  0
 16 18  1  0  0  0  0
 18 15  1  0  0  0  0
 20 14  1  0  0  0  0
 20 12  1  0  0  0  0
 21 26  1  0  0  0  0
 22 24  1  0  0  0  0
 22 21  2  0  0  0  0
 23 27  1  0  0  0  0
 24 28  2  0  0  0  0
 26 23  2  0  0  0  0
 26 25  1  0  0  0  0
 28 23  1  0  0  0  0
M  END
>  <MODEL>
9

>  <REMARK>
 VINA RESULT:      -9.1      3.009      4.972
  Name = 
  2 active torsions:
  status: ('A' for Active; 'I' for Inactive)
    1  A    between atoms: C_1  and  C_2
    2  A    between atoms: N_10  and  C_13
                            x       y       z     vdW  Elec       q    Type
                         _______ _______ _______ _____ _____    ______ ____

>  <TORSDO>
F 2

$$$$
