=
 OpenBabel10272415083D

 34 39  0  0  1  0  0  0  0  0999 V2000
  187.3040  177.8050  145.1690 C   0  0  0  0  0  0  0  0  0  0  0  0
  185.0070  178.5950  145.5290 C   0  0  0  0  0  0  0  0  0  0  0  0
  186.5200  178.4200  147.4030 C   0  0  0  0  0  3  0  0  0  0  0  0
  188.2540  177.1420  143.0060 O   0  0  0  0  0  1  0  0  0  0  0  0
  189.6060  177.0450  144.9930 C   0  0  0  0  0  0  0  0  0  0  0  0
  189.7450  177.2110  146.3330 N   0  0  0  0  0  0  0  0  0  0  0  0
  187.5310  177.9600  146.5600 C   0  0  0  0  0  0  0  0  0  0  0  0
  188.3800  177.3320  144.3800 C   0  0  0  0  0  0  0  0  0  0  0  0
  188.7430  177.6550  147.0890 N   0  0  0  0  0  0  0  0  0  0  0  0
  183.7370  178.9180  145.0410 C   0  0  0  0  0  3  0  0  0  0  0  0
  183.4460  178.7870  143.6820 C   0  0  0  0  0  0  0  0  0  0  0  0
  184.4360  178.3270  142.8040 C   0  0  0  0  0  3  0  0  0  0  0  0
  185.2650  178.7370  146.8900 C   0  0  0  0  0  3  0  0  0  0  0  0
  185.7070  178.0040  143.2850 C   0  0  0  0  0  3  0  0  0  0  0  0
  186.0190  178.1290  144.6480 C   0  0  0  0  0  0  0  0  0  0  0  0
  182.0750  179.1400  143.1940 C   0  0  0  0  0  3  0  0  0  0  0  0
  181.0050  178.5380  144.0850 C   0  0  0  0  0  1  0  0  0  0  0  0
  181.8740  178.6920  141.7580 C   0  0  0  0  0  1  0  0  0  0  0  0
  190.7550  176.5150  144.2040 C   0  0  0  0  0  2  0  0  0  0  0  0
  191.2760  177.5590  143.3410 N   0  0  0  0  0  2  0  0  0  0  0  0
  191.9640  176.8960  142.2440 C   0  0  0  0  0  2  0  0  0  0  0  0
  190.1410  175.8030  138.0120 C   0  0  0  0  0  3  0  0  0  0  0  0
  192.8190  177.4460  139.9270 C   0  0  0  0  0  2  0  0  0  0  0  0
  192.0150  175.6950  136.6360 C   0  0  0  0  0  0  0  0  0  0  0  0
  192.8900  175.4430  135.6180 C   0  0  0  0  0  0  0  0  0  0  0  0
  190.7050  175.4070  136.8270 N   0  0  0  0  0  0  0  0  0  0  0  0
  194.1140  175.9280  135.9480 N   0  0  0  0  0  0  0  0  0  0  0  0
  190.8950  176.4620  138.9550 N   0  0  0  0  0  0  0  0  0  0  0  0
  192.5960  174.7630  134.4040 N   0  0  0  0  0  1  0  0  0  0  0  0
  192.8020  176.3690  137.6000 C   0  0  0  0  0  0  0  0  0  0  0  0
  192.2010  176.7510  138.7810 C   0  0  0  0  0  0  0  0  0  0  0  0
  194.0660  176.4950  137.1570 N   0  0  0  0  0  0  0  0  0  0  0  0
  191.6430  177.5650  140.9100 C   0  0  1  0  0  3  0  0  0  0  0  0
  190.4170  176.9140  140.2420 C   0  0  0  0  0  2  0  0  0  0  0  0
  1  7  1  0  0  0  0
  2 13  2  0  0  0  0
  4  8  1  0  0  0  0
  5  6  1  0  0  0  0
  6  9  2  0  0  0  0
  7  9  1  0  0  0  0
  7  3  2  0  0  0  0
  8  5  2  0  0  0  0
  8  1  1  0  0  0  0
 10  2  1  0  0  0  0
 11 10  2  0  0  0  0
 12 14  2  0  0  0  0
 12 11  1  0  0  0  0
 13  3  1  0  0  0  0
 14 15  1  0  0  0  0
 15  1  2  0  0  0  0
 15  2  1  0  0  0  0
 16 11  1  0  0  0  0
 16 17  1  0  0  0  0
 18 16  1  0  0  0  0
 19  5  1  0  0  0  0
 20 19  1  0  0  0  0
 21 20  1  0  0  0  0
 22 28  1  0  0  0  0
 23 33  1  0  0  0  0
 24 26  1  0  0  0  0
 24 30  1  0  0  0  0
 25 27  1  0  0  0  0
 25 24  2  0  0  0  0
 26 22  2  0  0  0  0
 27 32  2  0  0  0  0
 28 34  1  0  0  0  0
 29 25  1  0  0  0  0
 30 31  2  0  0  0  0
 31 28  1  0  0  0  0
 31 23  1  0  0  0  0
 32 30  1  0  0  0  0
 33 21  1  1  0  0  0
 34 33  1  0  0  0  0
M  END
>  <MODEL>
1

>  <REMARK>
 VINA RESULT:     -10.7      0.000      0.000
  Name = 
  5 active torsions:
  status: ('A' for Active; 'I' for Inactive)
    1  A    between atoms: C_3  and  C_25
    2  A    between atoms: N_8  and  C_17
    3  A    between atoms: N_8  and  C_18
    4  A    between atoms: C_10  and  C_17
    5  A    between atoms: C_18  and  C_30
                            x       y       z     vdW  Elec       q    Type
                         _______ _______ _______ _____ _____    ______ ____

>  <TORSDO>
F 5

$$$$
=
 OpenBabel10272415083D

 34 39  0  0  1  0  0  0  0  0999 V2000
  186.0030  178.2310  144.6810 C   0  0  0  0  0  0  0  0  0  0  0  0
  187.8690  177.7750  146.2100 C   0  0  0  0  0  0  0  0  0  0  0  0
  185.7360  178.4720  147.1000 C   0  0  0  0  0  3  0  0  0  0  0  0
  186.0950  178.0460  142.2360 O   0  0  0  0  0  1  0  0  0  0  0  0
  184.0540  178.7200  143.3150 C   0  0  0  0  0  0  0  0  0  0  0  0
  183.3580  179.0130  144.4430 N   0  0  0  0  0  0  0  0  0  0  0  0
  185.2070  178.5440  145.8110 C   0  0  0  0  0  0  0  0  0  0  0  0
  185.3950  178.3280  143.4060 C   0  0  0  0  0  0  0  0  0  0  0  0
  183.9160  178.9250  145.6480 N   0  0  0  0  0  0  0  0  0  0  0  0
  189.1950  177.3950  146.4380 C   0  0  0  0  0  3  0  0  0  0  0  0
  190.0340  177.0740  145.3690 C   0  0  0  0  0  0  0  0  0  0  0  0
  189.5390  177.1350  144.0600 C   0  0  0  0  0  3  0  0  0  0  0  0
  187.0590  178.0880  147.2990 C   0  0  0  0  0  3  0  0  0  0  0  0
  188.2160  177.5130  143.8260 C   0  0  0  0  0  3  0  0  0  0  0  0
  187.3570  177.8400  144.8880 C   0  0  0  0  0  0  0  0  0  0  0  0
  191.4490  176.6730  145.6500 C   0  0  0  0  0  3  0  0  0  0  0  0
  191.9240  175.6190  144.6660 C   0  0  0  0  0  1  0  0  0  0  0  0
  191.6020  176.1670  147.0720 C   0  0  0  0  0  1  0  0  0  0  0  0
  183.3840  178.8660  141.9900 C   0  0  0  0  0  2  0  0  0  0  0  0
  183.6590  177.6980  141.1740 N   0  0  0  0  0  2  0  0  0  0  0  0
  182.7560  177.7580  140.0340 C   0  0  0  0  0  2  0  0  0  0  0  0
  185.6930  176.1850  136.6690 C   0  0  0  0  0  3  0  0  0  0  0  0
  184.8790  178.7960  139.1310 C   0  0  0  0  0  2  0  0  0  0  0  0
  187.7480  177.0830  137.2930 C   0  0  0  0  0  0  0  0  0  0  0  0
  189.0790  177.3490  137.4420 C   0  0  0  0  0  0  0  0  0  0  0  0
  187.0590  176.1870  136.5460 N   0  0  0  0  0  0  0  0  0  0  0  0
  189.2390  178.3440  138.3520 N   0  0  0  0  0  0  0  0  0  0  0  0
  185.0710  177.0660  137.5220 N   0  0  0  0  0  0  0  0  0  0  0  0
  190.1500  176.6880  136.7780 N   0  0  0  0  0  1  0  0  0  0  0  0
  187.1200  177.9920  138.1770 C   0  0  0  0  0  0  0  0  0  0  0  0
  185.7440  177.9610  138.2740 C   0  0  0  0  0  0  0  0  0  0  0  0
  188.0450  178.7400  138.8030 N   0  0  0  0  0  0  0  0  0  0  0  0
  183.4760  178.2700  138.7900 C   0  0  1  0  0  3  0  0  0  0  0  0
  183.6460  177.1510  137.7450 C   0  0  0  0  0  2  0  0  0  0  0  0
  1 15  2  0  0  0  0
  1  7  1  0  0  0  0
  2 10  1  0  0  0  0
  2 13  2  0  0  0  0
  3 13  1  0  0  0  0
  4  8  1  0  0  0  0
  5  8  2  0  0  0  0
  5  6  1  0  0  0  0
  6  9  2  0  0  0  0
  7  3  2  0  0  0  0
  8  1  1  0  0  0  0
  9  7  1  0  0  0  0
 11 16  1  0  0  0  0
 11 10  2  0  0  0  0
 12 11  1  0  0  0  0
 14 12  2  0  0  0  0
 14 15  1  0  0  0  0
 15  2  1  0  0  0  0
 16 18  1  0  0  0  0
 17 16  1  0  0  0  0
 19  5  1  0  0  0  0
 20 19  1  0  0  0  0
 21 20  1  0  0  0  0
 22 28  1  0  0  0  0
 24 25  2  0  0  0  0
 24 30  1  0  0  0  0
 25 27  1  0  0  0  0
 26 22  2  0  0  0  0
 26 24  1  0  0  0  0
 27 32  2  0  0  0  0
 28 34  1  0  0  0  0
 28 31  1  0  0  0  0
 29 25  1  0  0  0  0
 30 31  2  0  0  0  0
 30 32  1  0  0  0  0
 31 23  1  0  0  0  0
 33 23  1  0  0  0  0
 33 21  1  1  0  0  0
 34 33  1  0  0  0  0
M  END
>  <MODEL>
2

>  <REMARK>
 VINA RESULT:     -10.6      3.181      6.239
  Name = 
  5 active torsions:
  status: ('A' for Active; 'I' for Inactive)
    1  A    between atoms: C_3  and  C_25
    2  A    between atoms: N_8  and  C_17
    3  A    between atoms: N_8  and  C_18
    4  A    between atoms: C_10  and  C_17
    5  A    between atoms: C_18  and  C_30
                            x       y       z     vdW  Elec       q    Type
                         _______ _______ _______ _____ _____    ______ ____

>  <TORSDO>
F 5

$$$$
=
 OpenBabel10272415083D

 34 39  0  0  1  0  0  0  0  0999 V2000
  186.9190  177.7780  144.6600 C   0  0  0  0  0  0  0  0  0  0  0  0
  184.6840  178.6090  145.2470 C   0  0  0  0  0  0  0  0  0  0  0  0
  186.3580  178.3560  146.9690 C   0  0  0  0  0  3  0  0  0  0  0  0
  187.6490  177.1470  142.4040 O   0  0  0  0  0  1  0  0  0  0  0  0
  189.1760  176.9720  144.2550 C   0  0  0  0  0  0  0  0  0  0  0  0
  189.4410  177.1030  145.5790 N   0  0  0  0  0  0  0  0  0  0  0  0
  187.2770  177.8940  146.0260 C   0  0  0  0  0  0  0  0  0  0  0  0
  187.9060  177.3010  143.7640 C   0  0  0  0  0  0  0  0  0  0  0  0
  188.5240  177.5510  146.4340 N   0  0  0  0  0  0  0  0  0  0  0  0
  183.3830  178.9710  144.8860 C   0  0  0  0  0  3  0  0  0  0  0  0
  182.9650  178.8790  143.5570 C   0  0  0  0  0  0  0  0  0  0  0  0
  183.8590  178.4190  142.5820 C   0  0  0  0  0  3  0  0  0  0  0  0
  185.0700  178.7130  146.5820 C   0  0  0  0  0  3  0  0  0  0  0  0
  185.1600  178.0570  142.9360 C   0  0  0  0  0  3  0  0  0  0  0  0
  185.5990  178.1420  144.2670 C   0  0  0  0  0  0  0  0  0  0  0  0
  181.5640  179.2740  143.2060 C   0  0  0  0  0  3  0  0  0  0  0  0
  180.5550  178.5380  144.0690 C   0  0  0  0  0  1  0  0  0  0  0  0
  181.2780  179.0230  141.7370 C   0  0  0  0  0  1  0  0  0  0  0  0
  190.2340  176.4370  143.3510 C   0  0  0  0  0  2  0  0  0  0  0  0
  190.5640  177.4290  142.3450 N   0  0  0  0  0  2  0  0  0  0  0  0
  191.2040  176.7210  141.2470 C   0  0  0  0  0  2  0  0  0  0  0  0
  187.4390  177.8970  138.6270 C   0  0  0  0  0  3  0  0  0  0  0  0
  190.7650  176.3320  138.7860 C   0  0  0  0  0  2  0  0  0  0  0  0
  187.4140  176.2650  136.9670 C   0  0  0  0  0  0  0  0  0  0  0  0
  187.0570  175.4160  135.9590 C   0  0  0  0  0  0  0  0  0  0  0  0
  186.7590  177.2510  137.6270 N   0  0  0  0  0  0  0  0  0  0  0  0
  188.0940  174.5860  135.6820 N   0  0  0  0  0  0  0  0  0  0  0  0
  188.7310  177.5410  138.9310 N   0  0  0  0  0  0  0  0  0  0  0  0
  185.7950  175.3730  135.3020 N   0  0  0  0  0  1  0  0  0  0  0  0
  188.7430  175.8870  137.2730 C   0  0  0  0  0  0  0  0  0  0  0  0
  189.3950  176.5590  138.2860 C   0  0  0  0  0  0  0  0  0  0  0  0
  189.1260  174.8700  136.4810 N   0  0  0  0  0  0  0  0  0  0  0  0
  190.8810  177.3770  139.9080 C   0  0  1  0  0  3  0  0  0  0  0  0
  189.5420  178.1360  139.9680 C   0  0  0  0  0  2  0  0  0  0  0  0
  1  7  1  0  0  0  0
  2 13  2  0  0  0  0
  4  8  1  0  0  0  0
  5  6  1  0  0  0  0
  6  9  2  0  0  0  0
  7  9  1  0  0  0  0
  7  3  2  0  0  0  0
  8  5  2  0  0  0  0
  8  1  1  0  0  0  0
 10  2  1  0  0  0  0
 11 10  2  0  0  0  0
 12 14  2  0  0  0  0
 12 11  1  0  0  0  0
 13  3  1  0  0  0  0
 14 15  1  0  0  0  0
 15  1  2  0  0  0  0
 15  2  1  0  0  0  0
 16 11  1  0  0  0  0
 16 17  1  0  0  0  0
 18 16  1  0  0  0  0
 19  5  1  0  0  0  0
 20 19  1  0  0  0  0
 21 20  1  0  0  0  0
 22 28  1  0  0  0  0
 23 33  1  0  0  0  0
 24 30  1  0  0  0  0
 24 26  1  0  0  0  0
 25 24  2  0  0  0  0
 26 22  2  0  0  0  0
 27 25  1  0  0  0  0
 27 32  2  0  0  0  0
 28 34  1  0  0  0  0
 29 25  1  0  0  0  0
 30 31  2  0  0  0  0
 31 23  1  0  0  0  0
 31 28  1  0  0  0  0
 32 30  1  0  0  0  0
 33 34  1  0  0  0  0
 33 21  1  1  0  0  0
M  END
>  <MODEL>
3

>  <REMARK>
 VINA RESULT:     -10.3      1.927      2.729
  Name = 
  5 active torsions:
  status: ('A' for Active; 'I' for Inactive)
    1  A    between atoms: C_3  and  C_25
    2  A    between atoms: N_8  and  C_17
    3  A    between atoms: N_8  and  C_18
    4  A    between atoms: C_10  and  C_17
    5  A    between atoms: C_18  and  C_30
                            x       y       z     vdW  Elec       q    Type
                         _______ _______ _______ _____ _____    ______ ____

>  <TORSDO>
F 5

$$$$
=
 OpenBabel10272415083D

 34 39  0  0  1  0  0  0  0  0999 V2000
  186.7490  178.2170  142.2630 C   0  0  0  0  0  0  0  0  0  0  0  0
  188.6030  177.6920  143.7850 C   0  0  0  0  0  0  0  0  0  0  0  0
  189.0450  178.0450  141.4370 C   0  0  0  0  0  3  0  0  0  0  0  0
  184.3930  178.4230  142.9160 O   0  0  0  0  0  1  0  0  0  0  0  0
  185.0370  178.7460  140.6210 C   0  0  0  0  0  0  0  0  0  0  0  0
  185.9930  178.7750  139.6580 N   0  0  0  0  0  0  0  0  0  0  0  0
  187.6890  178.2740  141.2030 C   0  0  0  0  0  0  0  0  0  0  0  0
  185.3910  178.4610  141.9450 C   0  0  0  0  0  0  0  0  0  0  0  0
  187.2750  178.5480  139.9410 N   0  0  0  0  0  0  0  0  0  0  0  0
  189.0870  177.3990  145.0630 C   0  0  0  0  0  3  0  0  0  0  0  0
  188.2150  177.3260  146.1510 C   0  0  0  0  0  0  0  0  0  0  0  0
  186.8460  177.5490  145.9550 C   0  0  0  0  0  3  0  0  0  0  0  0
  189.5000  177.7570  142.7210 C   0  0  0  0  0  3  0  0  0  0  0  0
  186.3570  177.8440  144.6820 C   0  0  0  0  0  3  0  0  0  0  0  0
  187.2180  177.9210  143.5750 C   0  0  0  0  0  0  0  0  0  0  0  0
  188.7670  177.0080  147.5060 C   0  0  0  0  0  3  0  0  0  0  0  0
  188.3300  178.0380  148.5310 C   0  0  0  0  0  1  0  0  0  0  0  0
  190.2810  176.9140  147.4710 C   0  0  0  0  0  1  0  0  0  0  0  0
  183.6140  178.9770  140.2380 C   0  0  0  0  0  2  0  0  0  0  0  0
  183.1040  177.8130  139.5370 N   0  0  0  0  0  2  0  0  0  0  0  0
  182.6190  178.2770  138.2460 C   0  0  0  0  0  2  0  0  0  0  0  0
  184.4820  173.9560  137.7210 C   0  0  0  0  0  3  0  0  0  0  0  0
  184.4710  177.4940  136.7110 C   0  0  0  0  0  2  0  0  0  0  0  0
  186.6670  174.3950  137.0510 C   0  0  0  0  0  0  0  0  0  0  0  0
  188.0010  174.3130  136.7690 C   0  0  0  0  0  0  0  0  0  0  0  0
  185.7640  173.5080  137.5350 N   0  0  0  0  0  0  0  0  0  0  0  0
  188.4420  175.5180  136.3270 N   0  0  0  0  0  0  0  0  0  0  0  0
  184.1500  175.2560  137.4220 N   0  0  0  0  0  0  0  0  0  0  0  0
  188.8250  173.1640  136.9250 N   0  0  0  0  0  1  0  0  0  0  0  0
  186.3390  175.7370  136.7440 C   0  0  0  0  0  0  0  0  0  0  0  0
  185.0380  176.1510  136.9450 C   0  0  0  0  0  0  0  0  0  0  0  0
  187.4300  176.3910  136.3100 N   0  0  0  0  0  0  0  0  0  0  0  0
  183.0050  177.3070  137.1340 C   0  0  1  0  0  3  0  0  0  0  0  0
  182.8400  175.8450  137.5880 C   0  0  0  0  0  2  0  0  0  0  0  0
  1 15  2  0  0  0  0
  2 10  1  0  0  0  0
  3 13  1  0  0  0  0
  5  8  2  0  0  0  0
  6  9  2  0  0  0  0
  6  5  1  0  0  0  0
  7  3  2  0  0  0  0
  7  1  1  0  0  0  0
  8  1  1  0  0  0  0
  8  4  1  0  0  0  0
  9  7  1  0  0  0  0
 10 11  2  0  0  0  0
 11 16  1  0  0  0  0
 12 11  1  0  0  0  0
 13  2  2  0  0  0  0
 14 12  2  0  0  0  0
 15  2  1  0  0  0  0
 15 14  1  0  0  0  0
 16 17  1  0  0  0  0
 18 16  1  0  0  0  0
 19  5  1  0  0  0  0
 20 19  1  0  0  0  0
 21 20  1  0  0  0  0
 23 31  1  0  0  0  0
 23 33  1  0  0  0  0
 24 26  1  0  0  0  0
 25 29  1  0  0  0  0
 25 24  2  0  0  0  0
 26 22  2  0  0  0  0
 27 25  1  0  0  0  0
 28 34  1  0  0  0  0
 28 22  1  0  0  0  0
 30 31  2  0  0  0  0
 30 24  1  0  0  0  0
 31 28  1  0  0  0  0
 32 27  2  0  0  0  0
 32 30  1  0  0  0  0
 33 34  1  0  0  0  0
 33 21  1  1  0  0  0
M  END
>  <MODEL>
4

>  <REMARK>
 VINA RESULT:     -10.2      3.746      6.681
  Name = 
  5 active torsions:
  status: ('A' for Active; 'I' for Inactive)
    1  A    between atoms: C_3  and  C_25
    2  A    between atoms: N_8  and  C_17
    3  A    between atoms: N_8  and  C_18
    4  A    between atoms: C_10  and  C_17
    5  A    between atoms: C_18  and  C_30
                            x       y       z     vdW  Elec       q    Type
                         _______ _______ _______ _____ _____    ______ ____

>  <TORSDO>
F 5

$$$$
=
 OpenBabel10272415083D

 34 39  0  0  1  0  0  0  0  0999 V2000
  185.4310  178.4380  143.1610 C   0  0  0  0  0  0  0  0  0  0  0  0
  185.8770  178.1160  145.5540 C   0  0  0  0  0  0  0  0  0  0  0  0
  183.6670  178.7600  144.8240 C   0  0  0  0  0  3  0  0  0  0  0  0
  187.0770  178.1640  141.3620 O   0  0  0  0  0  1  0  0  0  0  0  0
  184.8150  178.7960  140.8370 C   0  0  0  0  0  0  0  0  0  0  0  0
  183.5550  179.1020  141.2360 N   0  0  0  0  0  0  0  0  0  0  0  0
  184.0920  178.7620  143.4960 C   0  0  0  0  0  0  0  0  0  0  0  0
  185.7850  178.4620  141.7900 C   0  0  0  0  0  0  0  0  0  0  0  0
  183.2060  179.0830  142.5200 N   0  0  0  0  0  0  0  0  0  0  0  0
  186.7480  177.8000  146.6010 C   0  0  0  0  0  3  0  0  0  0  0  0
  188.0800  177.4740  146.3410 C   0  0  0  0  0  0  0  0  0  0  0  0
  188.5440  177.4650  145.0190 C   0  0  0  0  0  3  0  0  0  0  0  0
  184.5540  178.4380  145.8470 C   0  0  0  0  0  3  0  0  0  0  0  0
  187.6790  177.7790  143.9680 C   0  0  0  0  0  3  0  0  0  0  0  0
  186.3360  178.1110  144.2100 C   0  0  0  0  0  0  0  0  0  0  0  0
  188.9850  177.1410  147.4860 C   0  0  0  0  0  3  0  0  0  0  0  0
  188.8850  178.1850  148.5830 C   0  0  0  0  0  1  0  0  0  0  0  0
  190.4240  177.0040  147.0240 C   0  0  0  0  0  1  0  0  0  0  0  0
  185.1550  178.8640  139.3860 C   0  0  0  0  0  2  0  0  0  0  0  0
  184.7750  177.6230  138.7380 N   0  0  0  0  0  2  0  0  0  0  0  0
  185.3880  177.6300  137.4190 C   0  0  0  0  0  2  0  0  0  0  0  0
  189.3770  177.4140  134.8760 C   0  0  0  0  0  3  0  0  0  0  0  0
  187.7400  177.0530  138.1510 C   0  0  0  0  0  2  0  0  0  0  0  0
  190.6460  175.8250  136.0090 C   0  0  0  0  0  0  0  0  0  0  0  0
  191.5660  174.8780  136.3590 C   0  0  0  0  0  0  0  0  0  0  0  0
  190.4430  176.5520  134.8840 N   0  0  0  0  0  0  0  0  0  0  0  0
  191.3000  174.4350  137.6140 N   0  0  0  0  0  0  0  0  0  0  0  0
  188.5590  177.5180  135.9770 N   0  0  0  0  0  0  0  0  0  0  0  0
  192.6310  174.4000  135.5460 N   0  0  0  0  0  1  0  0  0  0  0  0
  189.8090  175.9190  137.1460 C   0  0  0  0  0  0  0  0  0  0  0  0
  188.7450  176.7970  137.1020 C   0  0  0  0  0  0  0  0  0  0  0  0
  190.2280  175.0680  138.0990 N   0  0  0  0  0  0  0  0  0  0  0  0
  186.8360  178.1060  137.4890 C   0  0  1  0  0  3  0  0  0  0  0  0
  187.4020  178.3770  136.0820 C   0  0  0  0  0  2  0  0  0  0  0  0
  1  7  1  0  0  0  0
  1 15  2  0  0  0  0
  2 13  2  0  0  0  0
  2 10  1  0  0  0  0
  3 13  1  0  0  0  0
  4  8  1  0  0  0  0
  5  6  1  0  0  0  0
  5  8  2  0  0  0  0
  6  9  2  0  0  0  0
  7  3  2  0  0  0  0
  8  1  1  0  0  0  0
  9  7  1  0  0  0  0
 11 10  2  0  0  0  0
 11 16  1  0  0  0  0
 12 11  1  0  0  0  0
 14 15  1  0  0  0  0
 14 12  2  0  0  0  0
 15  2  1  0  0  0  0
 16 17  1  0  0  0  0
 18 16  1  0  0  0  0
 19  5  1  0  0  0  0
 20 19  1  0  0  0  0
 21 20  1  0  0  0  0
 22 26  2  0  0  0  0
 22 28  1  0  0  0  0
 24 25  2  0  0  0  0
 24 30  1  0  0  0  0
 25 27  1  0  0  0  0
 26 24  1  0  0  0  0
 27 32  2  0  0  0  0
 28 34  1  0  0  0  0
 28 31  1  0  0  0  0
 29 25  1  0  0  0  0
 30 32  1  0  0  0  0
 31 30  2  0  0  0  0
 31 23  1  0  0  0  0
 33 21  1  6  0  0  0
 33 23  1  0  0  0  0
 34 33  1  0  0  0  0
M  END
>  <MODEL>
5

>  <REMARK>
 VINA RESULT:     -10.2      3.011      5.248
  Name = 
  5 active torsions:
  status: ('A' for Active; 'I' for Inactive)
    1  A    between atoms: C_3  and  C_25
    2  A    between atoms: N_8  and  C_17
    3  A    between atoms: N_8  and  C_18
    4  A    between atoms: C_10  and  C_17
    5  A    between atoms: C_18  and  C_30
                            x       y       z     vdW  Elec       q    Type
                         _______ _______ _______ _____ _____    ______ ____

>  <TORSDO>
F 5

$$$$
=
 OpenBabel10272415083D

 34 39  0  0  1  0  0  0  0  0999 V2000
  187.7380  178.0390  142.0270 C   0  0  0  0  0  0  0  0  0  0  0  0
  187.2180  177.8870  144.4220 C   0  0  0  0  0  0  0  0  0  0  0  0
  185.4890  178.5190  142.8600 C   0  0  0  0  0  3  0  0  0  0  0  0
  189.9330  177.6000  141.0220 O   0  0  0  0  0  1  0  0  0  0  0  0
  188.0770  178.2360  139.6290 C   0  0  0  0  0  0  0  0  0  0  0  0
  186.7760  178.5960  139.4920 N   0  0  0  0  0  0  0  0  0  0  0  0
  186.3900  178.4140  141.8000 C   0  0  0  0  0  0  0  0  0  0  0  0
  188.5910  177.9550  140.9000 C   0  0  0  0  0  0  0  0  0  0  0  0
  185.9610  178.6800  140.5410 N   0  0  0  0  0  0  0  0  0  0  0  0
  187.6060  177.6320  145.7410 C   0  0  0  0  0  3  0  0  0  0  0  0
  188.9190  177.2600  146.0350 C   0  0  0  0  0  0  0  0  0  0  0  0
  189.8520  177.1440  144.9970 C   0  0  0  0  0  3  0  0  0  0  0  0
  185.9000  178.2570  144.1630 C   0  0  0  0  0  3  0  0  0  0  0  0
  189.4720  177.3970  143.6780 C   0  0  0  0  0  3  0  0  0  0  0  0
  188.1560  177.7730  143.3620 C   0  0  0  0  0  0  0  0  0  0  0  0
  189.2990  176.9950  147.4590 C   0  0  0  0  0  3  0  0  0  0  0  0
  188.7480  178.0670  148.3810 C   0  0  0  0  0  1  0  0  0  0  0  0
  190.8060  176.8970  147.6120 C   0  0  0  0  0  1  0  0  0  0  0  0
  188.9490  178.1900  138.4200 C   0  0  0  0  0  2  0  0  0  0  0  0
  189.2100  176.8080  138.0600 N   0  0  0  0  0  2  0  0  0  0  0  0
  189.0090  176.7010  136.6230 C   0  0  0  0  0  2  0  0  0  0  0  0
  192.0890  173.1520  136.0390 C   0  0  0  0  0  3  0  0  0  0  0  0
  191.5320  176.7070  136.8070 C   0  0  0  0  0  2  0  0  0  0  0  0
  193.8620  173.7520  137.4230 C   0  0  0  0  0  0  0  0  0  0  0  0
  194.9810  173.7530  138.2060 C   0  0  0  0  0  0  0  0  0  0  0  0
  193.2360  172.7930  136.7000 N   0  0  0  0  0  0  0  0  0  0  0  0
  195.1570  174.9900  138.7360 N   0  0  0  0  0  0  0  0  0  0  0  0
  191.6140  174.4400  136.1230 N   0  0  0  0  0  0  0  0  0  0  0  0
  195.8320  172.6410  138.4590 N   0  0  0  0  0  1  0  0  0  0  0  0
  193.3810  175.0790  137.5200 C   0  0  0  0  0  0  0  0  0  0  0  0
  192.2240  175.4040  136.8420 C   0  0  0  0  0  0  0  0  0  0  0  0
  194.1830  175.8030  138.3200 N   0  0  0  0  0  0  0  0  0  0  0  0
  190.3230  176.4110  135.9040 C   0  0  1  0  0  3  0  0  0  0  0  0
  190.4140  174.9320  135.4850 C   0  0  0  0  0  2  0  0  0  0  0  0
  1 15  2  0  0  0  0
  2 10  1  0  0  0  0
  3 13  1  0  0  0  0
  5  8  2  0  0  0  0
  6  5  1  0  0  0  0
  6  9  2  0  0  0  0
  7  1  1  0  0  0  0
  7  3  2  0  0  0  0
  8  4  1  0  0  0  0
  8  1  1  0  0  0  0
  9  7  1  0  0  0  0
 10 11  2  0  0  0  0
 11 16  1  0  0  0  0
 12 11  1  0  0  0  0
 13  2  2  0  0  0  0
 14 12  2  0  0  0  0
 15 14  1  0  0  0  0
 15  2  1  0  0  0  0
 16 18  1  0  0  0  0
 16 17  1  0  0  0  0
 19  5  1  0  0  0  0
 20 19  1  0  0  0  0
 21 20  1  0  0  0  0
 22 28  1  0  0  0  0
 22 26  2  0  0  0  0
 23 31  1  0  0  0  0
 24 30  1  0  0  0  0
 24 25  2  0  0  0  0
 25 29  1  0  0  0  0
 25 27  1  0  0  0  0
 26 24  1  0  0  0  0
 28 31  1  0  0  0  0
 30 32  1  0  0  0  0
 31 30  2  0  0  0  0
 32 27  2  0  0  0  0
 33 21  1  1  0  0  0
 33 23  1  0  0  0  0
 34 33  1  0  0  0  0
 34 28  1  0  0  0  0
M  END
>  <MODEL>
6

>  <REMARK>
 VINA RESULT:     -10.1      2.902      5.163
  Name = 
  5 active torsions:
  status: ('A' for Active; 'I' for Inactive)
    1  A    between atoms: C_3  and  C_25
    2  A    between atoms: N_8  and  C_17
    3  A    between atoms: N_8  and  C_18
    4  A    between atoms: C_10  and  C_17
    5  A    between atoms: C_18  and  C_30
                            x       y       z     vdW  Elec       q    Type
                         _______ _______ _______ _____ _____    ______ ____

>  <TORSDO>
F 5

$$$$
=
 OpenBabel10272415083D

 34 39  0  0  1  0  0  0  0  0999 V2000
  188.3360  177.6920  141.4100 C   0  0  0  0  0  0  0  0  0  0  0  0
  186.7190  178.2020  143.1850 C   0  0  0  0  0  0  0  0  0  0  0  0
  186.2060  178.7770  140.8970 C   0  0  0  0  0  3  0  0  0  0  0  0
  190.5160  176.6150  141.7430 O   0  0  0  0  0  1  0  0  0  0  0  0
  189.8180  177.2580  139.5330 C   0  0  0  0  0  0  0  0  0  0  0  0
  188.9040  177.8210  138.7030 N   0  0  0  0  0  0  0  0  0  0  0  0
  187.4300  178.2570  140.4780 C   0  0  0  0  0  0  0  0  0  0  0  0
  189.5590  177.1850  140.9070 C   0  0  0  0  0  0  0  0  0  0  0  0
  187.7490  178.3010  139.1600 N   0  0  0  0  0  0  0  0  0  0  0  0
  186.3390  178.1900  144.5310 C   0  0  0  0  0  3  0  0  0  0  0  0
  187.1860  177.6500  145.5000 C   0  0  0  0  0  0  0  0  0  0  0  0
  188.4240  177.1180  145.1180 C   0  0  0  0  0  3  0  0  0  0  0  0
  185.8510  178.7490  142.2420 C   0  0  0  0  0  3  0  0  0  0  0  0
  188.8090  177.1270  143.7760 C   0  0  0  0  0  3  0  0  0  0  0  0
  187.9720  177.6660  142.7860 C   0  0  0  0  0  0  0  0  0  0  0  0
  186.7480  177.6540  146.9320 C   0  0  0  0  0  3  0  0  0  0  0  0
  185.6410  178.6660  147.1630 C   0  0  0  0  0  1  0  0  0  0  0  0
  187.9160  177.9350  147.8600 C   0  0  0  0  0  1  0  0  0  0  0  0
  191.1070  176.7650  138.9660 C   0  0  0  0  0  2  0  0  0  0  0  0
  190.9270  175.4230  138.4420 N   0  0  0  0  0  2  0  0  0  0  0  0
  191.3810  175.4460  137.0600 C   0  0  0  0  0  2  0  0  0  0  0  0
  186.9210  176.4600  135.8350 C   0  0  0  0  0  3  0  0  0  0  0  0
  189.3880  173.9090  136.8060 C   0  0  0  0  0  2  0  0  0  0  0  0
  185.6840  174.8080  136.9110 C   0  0  0  0  0  0  0  0  0  0  0  0
  184.6880  174.0730  137.4890 C   0  0  0  0  0  0  0  0  0  0  0  0
  185.7050  176.0040  136.2760 N   0  0  0  0  0  0  0  0  0  0  0  0
  185.2170  172.9420  138.0220 N   0  0  0  0  0  0  0  0  0  0  0  0
  188.0580  175.7160  136.0420 N   0  0  0  0  0  0  0  0  0  0  0  0
  183.3110  174.4250  137.5540 N   0  0  0  0  0  1  0  0  0  0  0  0
  186.8480  174.0350  137.1350 C   0  0  0  0  0  0  0  0  0  0  0  0
  188.0540  174.5260  136.6770 C   0  0  0  0  0  0  0  0  0  0  0  0
  186.5350  172.9140  137.8080 N   0  0  0  0  0  0  0  0  0  0  0  0
  190.2940  174.9420  136.1160 C   0  0  1  0  0  3  0  0  0  0  0  0
  189.3930  176.0960  135.6380 C   0  0  0  0  0  2  0  0  0  0  0  0
  1 15  2  0  0  0  0
  2 10  1  0  0  0  0
  3 13  1  0  0  0  0
  5  8  2  0  0  0  0
  6  9  2  0  0  0  0
  6  5  1  0  0  0  0
  7  3  2  0  0  0  0
  7  1  1  0  0  0  0
  8  1  1  0  0  0  0
  8  4  1  0  0  0  0
  9  7  1  0  0  0  0
 10 11  2  0  0  0  0
 11 16  1  0  0  0  0
 12 11  1  0  0  0  0
 13  2  2  0  0  0  0
 14 12  2  0  0  0  0
 15  2  1  0  0  0  0
 15 14  1  0  0  0  0
 16 17  1  0  0  0  0
 16 18  1  0  0  0  0
 19  5  1  0  0  0  0
 20 19  1  0  0  0  0
 21 20  1  0  0  0  0
 22 28  1  0  0  0  0
 22 26  2  0  0  0  0
 24 30  1  0  0  0  0
 24 25  2  0  0  0  0
 25 29  1  0  0  0  0
 25 27  1  0  0  0  0
 26 24  1  0  0  0  0
 28 31  1  0  0  0  0
 30 32  1  0  0  0  0
 31 23  1  0  0  0  0
 31 30  2  0  0  0  0
 32 27  2  0  0  0  0
 33 23  1  0  0  0  0
 33 21  1  1  0  0  0
 34 28  1  0  0  0  0
 34 33  1  0  0  0  0
M  END
>  <MODEL>
7

>  <REMARK>
 VINA RESULT:     -10.1      3.097      5.896
  Name = 
  5 active torsions:
  status: ('A' for Active; 'I' for Inactive)
    1  A    between atoms: C_3  and  C_25
    2  A    between atoms: N_8  and  C_17
    3  A    between atoms: N_8  and  C_18
    4  A    between atoms: C_10  and  C_17
    5  A    between atoms: C_18  and  C_30
                            x       y       z     vdW  Elec       q    Type
                         _______ _______ _______ _____ _____    ______ ____

>  <TORSDO>
F 5

$$$$
=
 OpenBabel10272415083D

 34 39  0  0  1  0  0  0  0  0999 V2000
  187.4330  178.0620  139.5700 C   0  0  0  0  0  0  0  0  0  0  0  0
  188.8060  176.9380  137.8730 C   0  0  0  0  0  0  0  0  0  0  0  0
  186.6130  177.7610  137.2860 C   0  0  0  0  0  3  0  0  0  0  0  0
  188.0930  178.4440  141.9020 O   0  0  0  0  0  1  0  0  0  0  0  0
  185.9470  179.1980  141.1210 C   0  0  0  0  0  0  0  0  0  0  0  0
  185.0270  179.3130  140.1290 N   0  0  0  0  0  0  0  0  0  0  0  0
  186.4270  178.2290  138.5860 C   0  0  0  0  0  0  0  0  0  0  0  0
  187.1690  178.5640  140.8680 C   0  0  0  0  0  0  0  0  0  0  0  0
  185.2610  178.8470  138.9040 N   0  0  0  0  0  0  0  0  0  0  0  0
  189.9840  176.2890  137.4900 C   0  0  0  0  0  3  0  0  0  0  0  0
  191.0140  176.0900  138.4100 C   0  0  0  0  0  0  0  0  0  0  0  0
  190.8640  176.5460  139.7260 C   0  0  0  0  0  3  0  0  0  0  0  0
  187.7960  177.1200  136.9310 C   0  0  0  0  0  3  0  0  0  0  0  0
  189.6910  177.1960  140.1140 C   0  0  0  0  0  3  0  0  0  0  0  0
  188.6420  177.4050  139.2040 C   0  0  0  0  0  0  0  0  0  0  0  0
  192.2610  175.3890  137.9660 C   0  0  0  0  0  3  0  0  0  0  0  0
  193.2300  176.3570  137.3120 C   0  0  0  0  0  1  0  0  0  0  0  0
  191.9390  174.2500  137.0160 C   0  0  0  0  0  1  0  0  0  0  0  0
  185.6150  179.7120  142.4820 C   0  0  0  0  0  2  0  0  0  0  0  0
  184.9810  178.6620  143.2580 N   0  0  0  0  0  2  0  0  0  0  0  0
  185.0620  179.0630  144.6540 C   0  0  0  0  0  2  0  0  0  0  0  0
  187.8860  178.3160  148.3820 C   0  0  0  0  0  3  0  0  0  0  0  0
  186.8640  177.3190  144.9910 C   0  0  0  0  0  2  0  0  0  0  0  0
  189.7970  177.3930  147.4260 C   0  0  0  0  0  0  0  0  0  0  0  0
  191.0670  176.9560  147.1780 C   0  0  0  0  0  0  0  0  0  0  0  0
  189.2100  177.9800  148.4970 N   0  0  0  0  0  0  0  0  0  0  0  0
  191.1340  176.4660  145.9140 N   0  0  0  0  0  0  0  0  0  0  0  0
  187.2030  178.0610  147.2160 N   0  0  0  0  0  0  0  0  0  0  0  0
  192.1680  177.0120  148.0780 N   0  0  0  0  0  1  0  0  0  0  0  0
  189.1070  177.1290  146.2200 C   0  0  0  0  0  0  0  0  0  0  0  0
  187.7750  177.4820  146.1400 C   0  0  0  0  0  0  0  0  0  0  0  0
  189.9400  176.5700  145.3250 N   0  0  0  0  0  0  0  0  0  0  0  0
  185.5510  177.9110  145.5280 C   0  0  1  0  0  3  0  0  0  0  0  0
  185.8150  178.3800  146.9710 C   0  0  0  0  0  2  0  0  0  0  0  0
  1  8  2  0  0  0  0
  2 15  1  0  0  0  0
  3  7  1  0  0  0  0
  5 19  1  0  0  0  0
  6  5  2  0  0  0  0
  7  9  2  0  0  0  0
  7  1  1  0  0  0  0
  8  5  1  0  0  0  0
  8  4  1  0  0  0  0
  9  6  1  0  0  0  0
 10  2  2  0  0  0  0
 10 11  1  0  0  0  0
 11 12  2  0  0  0  0
 12 14  1  0  0  0  0
 13  3  2  0  0  0  0
 13  2  1  0  0  0  0
 15  1  1  0  0  0  0
 15 14  2  0  0  0  0
 16 11  1  0  0  0  0
 17 16  1  0  0  0  0
 18 16  1  0  0  0  0
 19 20  1  0  0  0  0
 20 21  1  0  0  0  0
 22 26  2  0  0  0  0
 23 33  1  0  0  0  0
 23 31  1  0  0  0  0
 24 26  1  0  0  0  0
 25 24  2  0  0  0  0
 25 29  1  0  0  0  0
 27 25  1  0  0  0  0
 28 22  1  0  0  0  0
 30 24  1  0  0  0  0
 31 30  2  0  0  0  0
 31 28  1  0  0  0  0
 32 27  2  0  0  0  0
 32 30  1  0  0  0  0
 33 21  1  6  0  0  0
 33 34  1  0  0  0  0
 34 28  1  0  0  0  0
M  END
>  <MODEL>
8

>  <REMARK>
 VINA RESULT:     -10.1      3.689      9.184
  Name = 
  5 active torsions:
  status: ('A' for Active; 'I' for Inactive)
    1  A    between atoms: C_3  and  C_25
    2  A    between atoms: N_8  and  C_17
    3  A    between atoms: N_8  and  C_18
    4  A    between atoms: C_10  and  C_17
    5  A    between atoms: C_18  and  C_30
                            x       y       z     vdW  Elec       q    Type
                         _______ _______ _______ _____ _____    ______ ____

>  <TORSDO>
F 5

$$$$
=
 OpenBabel10272415083D

 34 39  0  0  1  0  0  0  0  0999 V2000
  187.1050  178.1690  142.3170 C   0  0  0  0  0  0  0  0  0  0  0  0
  186.7740  177.9730  144.7420 C   0  0  0  0  0  0  0  0  0  0  0  0
  184.9350  178.6570  143.3340 C   0  0  0  0  0  3  0  0  0  0  0  0
  189.2080  177.7260  141.1320 O   0  0  0  0  0  1  0  0  0  0  0  0
  187.2570  178.4120  139.9030 C   0  0  0  0  0  0  0  0  0  0  0  0
  185.9540  178.7900  139.8770 N   0  0  0  0  0  0  0  0  0  0  0  0
  185.7480  178.5640  142.2050 C   0  0  0  0  0  0  0  0  0  0  0  0
  187.8660  178.0990  141.1250 C   0  0  0  0  0  0  0  0  0  0  0  0
  185.2250  178.8600  140.9890 N   0  0  0  0  0  0  0  0  0  0  0  0
  187.2600  177.6860  146.0210 C   0  0  0  0  0  3  0  0  0  0  0  0
  188.5880  177.2940  146.2020 C   0  0  0  0  0  0  0  0  0  0  0  0
  189.4350  177.1890  145.0920 C   0  0  0  0  0  3  0  0  0  0  0  0
  185.4440  178.3630  144.5950 C   0  0  0  0  0  3  0  0  0  0  0  0
  188.9550  177.4740  143.8120 C   0  0  0  0  0  3  0  0  0  0  0  0
  187.6230  177.8700  143.6090 C   0  0  0  0  0  0  0  0  0  0  0  0
  189.0760  176.9960  147.5860 C   0  0  0  0  0  3  0  0  0  0  0  0
  188.5660  178.0230  148.5800 C   0  0  0  0  0  1  0  0  0  0  0  0
  190.5910  176.9330  147.6290 C   0  0  0  0  0  1  0  0  0  0  0  0
  188.0300  178.3810  138.6290 C   0  0  0  0  0  2  0  0  0  0  0  0
  187.6520  177.2110  137.8580 N   0  0  0  0  0  2  0  0  0  0  0  0
  188.8430  176.7720  137.1460 C   0  0  0  0  0  2  0  0  0  0  0  0
  193.4410  176.2580  138.1530 C   0  0  0  0  0  3  0  0  0  0  0  0
  190.2280  174.6630  137.3360 C   0  0  0  0  0  2  0  0  0  0  0  0
  194.0120  174.2890  137.0490 C   0  0  0  0  0  0  0  0  0  0  0  0
  194.6800  173.2660  136.4400 C   0  0  0  0  0  0  0  0  0  0  0  0
  194.4160  175.4260  137.6660 N   0  0  0  0  0  0  0  0  0  0  0  0
  193.7840  172.3730  135.9500 N   0  0  0  0  0  0  0  0  0  0  0  0
  192.1140  175.9310  138.0090 N   0  0  0  0  0  0  0  0  0  0  0  0
  196.0920  173.1440  136.3080 N   0  0  0  0  0  1  0  0  0  0  0  0
  192.6490  173.9440  136.8910 C   0  0  0  0  0  0  0  0  0  0  0  0
  191.6950  174.8060  137.3940 C   0  0  0  0  0  0  0  0  0  0  0  0
  192.5420  172.7820  136.2230 N   0  0  0  0  0  0  0  0  0  0  0  0
  189.7470  175.9380  138.0480 C   0  0  1  0  0  3  0  0  0  0  0  0
  191.0000  176.7300  138.4670 C   0  0  0  0  0  2  0  0  0  0  0  0
  1 15  2  0  0  0  0
  2 10  1  0  0  0  0
  3 13  1  0  0  0  0
  5  8  2  0  0  0  0
  6  5  1  0  0  0  0
  6  9  2  0  0  0  0
  7  1  1  0  0  0  0
  7  3  2  0  0  0  0
  8  4  1  0  0  0  0
  8  1  1  0  0  0  0
  9  7  1  0  0  0  0
 10 11  2  0  0  0  0
 11 16  1  0  0  0  0
 12 11  1  0  0  0  0
 13  2  2  0  0  0  0
 14 12  2  0  0  0  0
 15 14  1  0  0  0  0
 15  2  1  0  0  0  0
 16 18  1  0  0  0  0
 16 17  1  0  0  0  0
 19  5  1  0  0  0  0
 20 19  1  0  0  0  0
 21 20  1  0  0  0  0
 23 31  1  0  0  0  0
 23 33  1  0  0  0  0
 24 26  1  0  0  0  0
 25 24  2  0  0  0  0
 26 22  2  0  0  0  0
 27 32  2  0  0  0  0
 27 25  1  0  0  0  0
 28 22  1  0  0  0  0
 28 34  1  0  0  0  0
 29 25  1  0  0  0  0
 30 24  1  0  0  0  0
 30 31  2  0  0  0  0
 31 28  1  0  0  0  0
 32 30  1  0  0  0  0
 33 21  1  6  0  0  0
 33 34  1  0  0  0  0
M  END
>  <MODEL>
9

>  <REMARK>
 VINA RESULT:     -10.0      2.718      4.978
  Name = 
  5 active torsions:
  status: ('A' for Active; 'I' for Inactive)
    1  A    between atoms: C_3  and  C_25
    2  A    between atoms: N_8  and  C_17
    3  A    between atoms: N_8  and  C_18
    4  A    between atoms: C_10  and  C_17
    5  A    between atoms: C_18  and  C_30
                            x       y       z     vdW  Elec       q    Type
                         _______ _______ _______ _____ _____    ______ ____

>  <TORSDO>
F 5

$$$$
