=
 OpenBabel10272402013D

 28 30  0  0  1  0  0  0  0  0999 V2000
  189.3740  178.0110  134.9410 O   0  0  0  0  0  0  0  0  0  0  0  0
  188.5350  177.1050  138.3190 C   0  0  2  0  0  3  0  0  0  0  0  0
  189.0080  179.3540  137.3280 C   0  0  0  0  0  1  0  0  0  0  0  0
  189.3080  175.7890  135.8040 C   0  0  1  0  0  0  0  0  0  0  0  0
  188.5420  175.5800  138.0990 C   0  0  0  0  0  2  0  0  0  0  0  0
  190.5580  175.3150  136.2180 O   0  0  0  0  0  1  0  0  0  0  0  0
  189.3180  177.2940  135.9320 C   0  0  0  0  0  0  0  0  0  0  0  0
  189.1430  175.3350  134.3540 C   0  0  0  0  0  1  0  0  0  0  0  0
  189.4080  177.8830  137.3200 C   0  0  2  0  0  3  0  0  0  0  0  0
  188.2610  175.2200  136.6930 N   0  0  1  0  0  0  0  0  0  0  0  0
  186.8170  175.3370  136.2740 C   0  0  1  0  0  0  0  0  0  0  0  0
  186.2110  173.2060  137.5310 C   0  0  0  0  0  1  0  0  0  0  0  0
  186.2010  173.9070  136.1780 C   0  0  0  0  0  0  0  0  0  0  0  0
  183.8190  175.0370  136.8290 C   0  0  1  0  0  3  0  0  0  0  0  0
  187.0070  173.0450  135.2200 C   0  0  0  0  0  1  0  0  0  0  0  0
  184.5330  176.3730  136.7940 C   0  0  0  0  0  2  0  0  0  0  0  0
  185.9750  176.2000  137.2470 C   0  0  0  0  0  2  0  0  0  0  0  0
  182.3410  175.2520  136.5890 C   0  0  0  0  0  1  0  0  0  0  0  0
  186.7080  175.9490  135.0310 F   0  0  0  0  0  0  0  0  0  0  0  0
  184.4860  173.9500  135.5300 S   0  0  0  0  0  0  0  0  0  0  0  0
  190.1340  177.0490  140.2620 C   0  0  0  0  0  3  0  0  0  0  0  0
  187.9690  178.1030  140.5760 C   0  0  0  0  0  0  0  0  0  0  0  0
  189.5580  178.0080  142.4070 C   0  0  0  0  0  0  0  0  0  0  0  0
  188.8860  177.4300  139.7440 C   0  0  0  0  0  0  0  0  0  0  0  0
  188.3110  178.3890  141.9010 C   0  0  0  0  0  3  0  0  0  0  0  0
  186.6270  178.5240  140.0780 C   0  0  0  0  0  1  0  0  0  0  0  0
  189.8810  178.2870  143.6920 F   0  0  0  0  0  0  0  0  0  0  0  0
  190.4680  177.3380  141.5870 C   0  0  0  0  0  3  0  0  0  0  0  0
  1  7  2  0  0  0  0
  2 24  1  1  0  0  0
  4  8  1  6  0  0  0
  4  7  1  0  0  0  0
  4  6  1  0  0  0  0
  4 10  1  0  0  0  0
  5  2  1  0  0  0  0
  7  9  1  0  0  0  0
  9  3  1  6  0  0  0
  9  2  1  0  0  0  0
 10  5  1  1  0  0  0
 11 19  1  6  0  0  0
 11 10  1  0  0  0  0
 11 17  1  0  0  0  0
 13 11  1  0  0  0  0
 13 12  1  0  0  0  0
 14 18  1  6  0  0  0
 15 13  1  0  0  0  0
 16 14  1  0  0  0  0
 16 17  1  0  0  0  0
 20 13  1  0  0  0  0
 20 14  1  0  0  0  0
 21 28  1  0  0  0  0
 22 25  2  0  0  0  0
 23 27  1  0  0  0  0
 24 21  2  0  0  0  0
 24 22  1  0  0  0  0
 25 23  1  0  0  0  0
 26 22  1  0  0  0  0
 28 23  2  0  0  0  0
M  END
>  <MODEL>
1

>  <REMARK>
 VINA RESULT:      -5.5      0.000      0.000
  Name = 
  2 active torsions:
  status: ('A' for Active; 'I' for Inactive)
    1  A    between atoms: C_1  and  N_27
    2  A    between atoms: C_10  and  C_13
                            x       y       z     vdW  Elec       q    Type
                         _______ _______ _______ _____ _____    ______ ____

>  <TORSDO>
F 2

$$$$
=
 OpenBabel10272402013D

 28 30  0  0  1  0  0  0  0  0999 V2000
  187.4400  178.2900  139.9630 O   0  0  0  0  0  0  0  0  0  0  0  0
  189.6700  176.2620  138.0020 C   0  0  2  0  0  3  0  0  0  0  0  0
  189.5670  176.6050  140.4800 C   0  0  0  0  0  1  0  0  0  0  0  0
  187.6410  178.3510  137.5880 C   0  0  1  0  0  0  0  0  0  0  0  0
  189.1500  176.7100  136.6230 C   0  0  0  0  0  2  0  0  0  0  0  0
  188.5000  179.3550  137.1270 O   0  0  0  0  0  1  0  0  0  0  0  0
  188.0870  177.9630  138.9770 C   0  0  0  0  0  0  0  0  0  0  0  0
  186.2380  178.9580  137.5810 C   0  0  0  0  0  1  0  0  0  0  0  0
  189.4300  177.2880  139.1240 C   0  0  2  0  0  3  0  0  0  0  0  0
  187.7480  177.1760  136.6820 N   0  0  1  0  0  0  0  0  0  0  0  0
  186.7110  176.0860  136.7880 C   0  0  1  0  0  0  0  0  0  0  0  0
  187.0700  175.4180  134.3570 C   0  0  0  0  0  1  0  0  0  0  0  0
  186.0500  175.8810  135.3910 C   0  0  0  0  0  0  0  0  0  0  0  0
  185.6650  173.2890  136.1070 C   0  0  1  0  0  3  0  0  0  0  0  0
  185.4590  177.1860  134.8850 C   0  0  0  0  0  1  0  0  0  0  0  0
  186.2440  173.6590  137.4580 C   0  0  0  0  0  2  0  0  0  0  0  0
  187.2980  174.7430  137.2880 C   0  0  0  0  0  2  0  0  0  0  0  0
  184.7820  172.0690  136.2560 C   0  0  0  0  0  1  0  0  0  0  0  0
  185.7200  176.4300  137.6990 F   0  0  0  0  0  0  0  0  0  0  0  0
  184.6720  174.6730  135.4650 S   0  0  0  0  0  0  0  0  0  0  0  0
  192.1200  176.7540  138.3020 C   0  0  0  0  0  3  0  0  0  0  0  0
  191.4760  174.5840  137.4240 C   0  0  0  0  0  0  0  0  0  0  0  0
  193.8190  175.1300  137.7330 C   0  0  0  0  0  0  0  0  0  0  0  0
  191.1140  175.8560  137.9110 C   0  0  0  0  0  0  0  0  0  0  0  0
  192.8260  174.2290  137.3390 C   0  0  0  0  0  3  0  0  0  0  0  0
  190.4480  173.5940  136.9900 C   0  0  0  0  0  1  0  0  0  0  0  0
  195.1240  174.7790  137.6460 F   0  0  0  0  0  0  0  0  0  0  0  0
  193.4660  176.3920  138.2140 C   0  0  0  0  0  3  0  0  0  0  0  0
  2 24  1  6  0  0  0
  2  9  1  0  0  0  0
  4  8  1  1  0  0  0
  4  7  1  0  0  0  0
  5  2  1  0  0  0  0
  6  4  1  0  0  0  0
  7  9  1  0  0  0  0
  7  1  2  0  0  0  0
  9  3  1  1  0  0  0
 10  5  1  1  0  0  0
 10 11  1  0  0  0  0
 10  4  1  0  0  0  0
 11 17  1  0  0  0  0
 11 19  1  1  0  0  0
 12 13  1  0  0  0  0
 13 20  1  0  0  0  0
 13 11  1  0  0  0  0
 14 18  1  1  0  0  0
 14 16  1  0  0  0  0
 15 13  1  0  0  0  0
 17 16  1  0  0  0  0
 20 14  1  0  0  0  0
 22 24  1  0  0  0  0
 23 28  2  0  0  0  0
 24 21  2  0  0  0  0
 25 22  2  0  0  0  0
 25 23  1  0  0  0  0
 26 22  1  0  0  0  0
 27 23  1  0  0  0  0
 28 21  1  0  0  0  0
M  END
>  <MODEL>
2

>  <REMARK>
 VINA RESULT:      -5.0      2.968      4.355
  Name = 
  2 active torsions:
  status: ('A' for Active; 'I' for Inactive)
    1  A    between atoms: C_1  and  N_27
    2  A    between atoms: C_10  and  C_13
                            x       y       z     vdW  Elec       q    Type
                         _______ _______ _______ _____ _____    ______ ____

>  <TORSDO>
F 2

$$$$
=
 OpenBabel10272402013D

 28 30  0  0  1  0  0  0  0  0999 V2000
  183.7330  173.5950  137.7140 O   0  0  0  0  0  0  0  0  0  0  0  0
  183.7330  177.1760  137.3810 C   0  0  2  0  0  3  0  0  0  0  0  0
  182.7350  175.7260  139.1610 C   0  0  0  0  0  1  0  0  0  0  0  0
  184.4140  174.8070  135.7760 C   0  0  1  0  0  0  0  0  0  0  0  0
  184.4170  177.2250  136.0020 C   0  0  0  0  0  2  0  0  0  0  0  0
  183.4030  174.9360  134.8170 O   0  0  0  0  0  1  0  0  0  0  0  0
  183.7530  174.6700  137.1270 C   0  0  0  0  0  0  0  0  0  0  0  0
  185.2040  173.5570  135.3910 C   0  0  0  0  0  1  0  0  0  0  0  0
  182.9920  175.8580  137.6640 C   0  0  2  0  0  3  0  0  0  0  0  0
  185.2550  176.0330  135.7540 N   0  0  1  0  0  0  0  0  0  0  0  0
  186.5770  176.0130  136.4780 C   0  0  1  0  0  0  0  0  0  0  0  0
  187.6110  177.5940  134.7690 C   0  0  0  0  0  1  0  0  0  0  0  0
  187.7230  176.2310  135.4430 C   0  0  0  0  0  0  0  0  0  0  0  0
  189.1340  177.3900  137.4530 C   0  0  1  0  0  3  0  0  0  0  0  0
  187.6560  175.1810  134.3460 C   0  0  0  0  0  1  0  0  0  0  0  0
  187.9790  177.0290  138.3650 C   0  0  0  0  0  2  0  0  0  0  0  0
  186.6720  177.0870  137.5900 C   0  0  0  0  0  2  0  0  0  0  0  0
  190.3950  177.5410  138.2760 C   0  0  0  0  0  1  0  0  0  0  0  0
  186.7800  174.7920  137.1100 F   0  0  0  0  0  0  0  0  0  0  0  0
  189.3770  176.0740  136.2190 S   0  0  0  0  0  0  0  0  0  0  0  0
  181.7260  178.5500  136.7370 C   0  0  0  0  0  3  0  0  0  0  0  0
  183.1250  179.3320  138.5620 C   0  0  0  0  0  0  0  0  0  0  0  0
  181.1770  180.6090  137.8830 C   0  0  0  0  0  0  0  0  0  0  0  0
  182.8440  178.3730  137.5680 C   0  0  0  0  0  0  0  0  0  0  0  0
  182.2890  180.4430  138.7130 C   0  0  0  0  0  3  0  0  0  0  0  0
  184.3030  179.1960  139.4660 C   0  0  0  0  0  1  0  0  0  0  0  0
  180.3740  181.6890  138.0350 F   0  0  0  0  0  0  0  0  0  0  0  0
  180.8960  179.6630  136.8950 C   0  0  0  0  0  3  0  0  0  0  0  0
  2 24  1  6  0  0  0
  2  9  1  0  0  0  0
  4  8  1  6  0  0  0
  4  7  1  0  0  0  0
  5  2  1  0  0  0  0
  6  4  1  0  0  0  0
  7  9  1  0  0  0  0
  7  1  2  0  0  0  0
  9  3  1  1  0  0  0
 10  4  1  0  0  0  0
 10  5  1  1  0  0  0
 10 11  1  0  0  0  0
 11 19  1  1  0  0  0
 11 17  1  0  0  0  0
 12 13  1  0  0  0  0
 13 20  1  0  0  0  0
 13 11  1  0  0  0  0
 14 18  1  1  0  0  0
 14 16  1  0  0  0  0
 15 13  1  0  0  0  0
 17 16  1  0  0  0  0
 20 14  1  0  0  0  0
 21 28  2  0  0  0  0
 21 24  1  0  0  0  0
 22 25  1  0  0  0  0
 22 26  1  0  0  0  0
 23 27  1  0  0  0  0
 23 25  2  0  0  0  0
 24 22  2  0  0  0  0
 28 23  1  0  0  0  0
M  END
>  <MODEL>
3

>  <REMARK>
 VINA RESULT:      -4.7      3.627      6.328
  Name = 
  2 active torsions:
  status: ('A' for Active; 'I' for Inactive)
    1  A    between atoms: C_1  and  N_27
    2  A    between atoms: C_10  and  C_13
                            x       y       z     vdW  Elec       q    Type
                         _______ _______ _______ _____ _____    ______ ____

>  <TORSDO>
F 2

$$$$
=
 OpenBabel10272402013D

 28 30  0  0  1  0  0  0  0  0999 V2000
  187.1450  178.6700  135.2890 O   0  0  0  0  0  0  0  0  0  0  0  0
  186.9620  175.2020  136.2230 C   0  0  2  0  0  3  0  0  0  0  0  0
  185.8030  176.4340  134.3780 C   0  0  0  0  0  1  0  0  0  0  0  0
  188.0300  177.7260  137.2920 C   0  0  1  0  0  0  0  0  0  0  0  0
  187.8410  175.3120  137.4830 C   0  0  0  0  0  2  0  0  0  0  0  0
  187.1690  177.8410  138.3900 O   0  0  0  0  0  1  0  0  0  0  0  0
  187.1830  177.7050  136.0420 C   0  0  0  0  0  0  0  0  0  0  0  0
  188.9490  178.9450  137.3460 C   0  0  0  0  0  1  0  0  0  0  0  0
  186.2740  176.5190  135.8250 C   0  0  2  0  0  3  0  0  0  0  0  0
  188.7830  176.4490  137.4070 N   0  0  1  0  0  0  0  0  0  0  0  0
  189.9800  176.2350  136.5140 C   0  0  1  0  0  0  0  0  0  0  0  0
  191.0230  174.6260  138.1900 C   0  0  0  0  0  1  0  0  0  0  0  0
  191.2210  175.9160  137.4020 C   0  0  0  0  0  0  0  0  0  0  0  0
  192.1630  174.4500  135.3200 C   0  0  1  0  0  3  0  0  0  0  0  0
  191.4520  177.0270  138.4130 C   0  0  0  0  0  1  0  0  0  0  0  0
  190.9490  174.9190  134.5430 C   0  0  0  0  0  2  0  0  0  0  0  0
  189.7700  175.0950  135.4870 C   0  0  0  0  0  2  0  0  0  0  0  0
  193.2630  174.0700  134.3510 C   0  0  0  0  0  1  0  0  0  0  0  0
  190.2530  177.3750  135.7670 F   0  0  0  0  0  0  0  0  0  0  0  0
  192.7540  175.7870  136.4030 S   0  0  0  0  0  0  0  0  0  0  0  0
  184.9830  174.1370  137.3550 C   0  0  0  0  0  3  0  0  0  0  0  0
  186.0500  172.9440  135.5290 C   0  0  0  0  0  0  0  0  0  0  0  0
  184.1410  171.9750  136.6700 C   0  0  0  0  0  0  0  0  0  0  0  0
  185.9780  174.0750  136.3670 C   0  0  0  0  0  0  0  0  0  0  0  0
  185.1310  171.9020  135.6850 C   0  0  0  0  0  3  0  0  0  0  0  0
  187.0920  172.8240  134.4690 C   0  0  0  0  0  1  0  0  0  0  0  0
  183.2550  170.9610  136.8160 F   0  0  0  0  0  0  0  0  0  0  0  0
  184.0680  173.0920  137.5050 C   0  0  0  0  0  3  0  0  0  0  0  0
  1  7  2  0  0  0  0
  2 24  1  1  0  0  0
  2  5  1  0  0  0  0
  4  8  1  6  0  0  0
  4 10  1  0  0  0  0
  4  6  1  0  0  0  0
  7  4  1  0  0  0  0
  9  3  1  6  0  0  0
  9  7  1  0  0  0  0
  9  2  1  0  0  0  0
 10  5  1  6  0  0  0
 11 19  1  6  0  0  0
 11 13  1  0  0  0  0
 11 10  1  0  0  0  0
 13 12  1  0  0  0  0
 13 15  1  0  0  0  0
 14 18  1  6  0  0  0
 14 20  1  0  0  0  0
 16 14  1  0  0  0  0
 16 17  1  0  0  0  0
 17 11  1  0  0  0  0
 20 13  1  0  0  0  0
 21 28  1  0  0  0  0
 22 25  2  0  0  0  0
 22 24  1  0  0  0  0
 23 27  1  0  0  0  0
 23 28  2  0  0  0  0
 24 21  2  0  0  0  0
 25 23  1  0  0  0  0
 26 22  1  0  0  0  0
M  END
>  <MODEL>
4

>  <REMARK>
 VINA RESULT:      -4.3      3.256      6.513
  Name = 
  2 active torsions:
  status: ('A' for Active; 'I' for Inactive)
    1  A    between atoms: C_1  and  N_27
    2  A    between atoms: C_10  and  C_13
                            x       y       z     vdW  Elec       q    Type
                         _______ _______ _______ _____ _____    ______ ____

>  <TORSDO>
F 2

$$$$
=
 OpenBabel10272402013D

 28 30  0  0  1  0  0  0  0  0999 V2000
  187.2450  178.0190  139.5370 O   0  0  0  0  0  0  0  0  0  0  0  0
  188.5370  175.9910  136.8630 C   0  0  2  0  0  3  0  0  0  0  0  0
  189.4010  176.3280  139.1880 C   0  0  0  0  0  1  0  0  0  0  0  0
  186.5110  178.0850  137.2690 C   0  0  1  0  0  0  0  0  0  0  0  0
  187.5250  176.4440  135.7930 C   0  0  0  0  0  2  0  0  0  0  0  0
  187.1280  179.0890  136.5130 O   0  0  0  0  0  1  0  0  0  0  0  0
  187.4600  177.6920  138.3770 C   0  0  0  0  0  0  0  0  0  0  0  0
  185.2170  178.6950  137.8060 C   0  0  0  0  0  1  0  0  0  0  0  0
  188.7530  177.0140  137.9910 C   0  0  2  0  0  3  0  0  0  0  0  0
  186.2570  176.9130  136.3910 N   0  0  1  0  0  0  0  0  0  0  0  0
  185.3390  175.8240  136.8880 C   0  0  1  0  0  0  0  0  0  0  0  0
  184.7810  175.1160  134.5060 C   0  0  0  0  0  1  0  0  0  0  0  0
  184.2100  175.5960  135.8360 C   0  0  0  0  0  0  0  0  0  0  0  0
  184.1320  173.0170  136.6830 C   0  0  1  0  0  3  0  0  0  0  0  0
  183.4660  176.8920  135.5630 C   0  0  0  0  0  1  0  0  0  0  0  0
  185.1660  173.4080  137.7190 C   0  0  0  0  0  2  0  0  0  0  0  0
  186.0760  174.4900  137.1570 C   0  0  0  0  0  2  0  0  0  0  0  0
  183.3740  171.7990  137.1650 C   0  0  0  0  0  1  0  0  0  0  0  0
  184.7500  176.1830  138.0950 F   0  0  0  0  0  0  0  0  0  0  0  0
  182.9630  174.3890  136.4300 S   0  0  0  0  0  0  0  0  0  0  0  0
  190.6240  176.5430  135.5690 C   0  0  0  0  0  3  0  0  0  0  0  0
  190.2590  174.2390  136.2470 C   0  0  0  0  0  0  0  0  0  0  0  0
  192.2460  174.8430  134.9930 C   0  0  0  0  0  0  0  0  0  0  0  0
  189.8320  175.5820  136.2190 C   0  0  0  0  0  0  0  0  0  0  0  0
  191.4630  173.8790  135.6350 C   0  0  0  0  0  3  0  0  0  0  0  0
  189.4530  173.1790  136.9180 C   0  0  0  0  0  1  0  0  0  0  0  0
  193.4100  174.4850  134.4000 F   0  0  0  0  0  0  0  0  0  0  0  0
  191.8260  176.1740  134.9600 C   0  0  0  0  0  3  0  0  0  0  0  0
  2 24  1  6  0  0  0
  2  9  1  0  0  0  0
  4  8  1  1  0  0  0
  4  7  1  0  0  0  0
  5  2  1  0  0  0  0
  6  4  1  0  0  0  0
  7  1  2  0  0  0  0
  9  7  1  0  0  0  0
  9  3  1  1  0  0  0
 10  5  1  1  0  0  0
 10 11  1  0  0  0  0
 10  4  1  0  0  0  0
 11 17  1  0  0  0  0
 11 19  1  1  0  0  0
 12 13  1  0  0  0  0
 13 20  1  0  0  0  0
 13 11  1  0  0  0  0
 14 18  1  1  0  0  0
 14 16  1  0  0  0  0
 15 13  1  0  0  0  0
 17 16  1  0  0  0  0
 20 14  1  0  0  0  0
 21 24  1  0  0  0  0
 22 26  1  0  0  0  0
 23 25  2  0  0  0  0
 24 22  2  0  0  0  0
 25 22  1  0  0  0  0
 27 23  1  0  0  0  0
 28 23  1  0  0  0  0
 28 21  2  0  0  0  0
M  END
>  <MODEL>
5

>  <REMARK>
 VINA RESULT:      -4.2      2.690      4.903
  Name = 
  2 active torsions:
  status: ('A' for Active; 'I' for Inactive)
    1  A    between atoms: C_1  and  N_27
    2  A    between atoms: C_10  and  C_13
                            x       y       z     vdW  Elec       q    Type
                         _______ _______ _______ _____ _____    ______ ____

>  <TORSDO>
F 2

$$$$
=
 OpenBabel10272402013D

 28 30  0  0  1  0  0  0  0  0999 V2000
  189.8820  177.1350  134.7710 O   0  0  0  0  0  0  0  0  0  0  0  0
  187.7620  176.8660  137.6640 C   0  0  2  0  0  3  0  0  0  0  0  0
  188.2810  178.8500  136.2290 C   0  0  0  0  0  1  0  0  0  0  0  0
  189.7750  175.2610  136.2420 C   0  0  1  0  0  0  0  0  0  0  0  0
  188.1000  175.4000  137.9950 C   0  0  0  0  0  2  0  0  0  0  0  0
  190.7610  175.2750  137.2350 O   0  0  0  0  0  1  0  0  0  0  0  0
  189.4970  176.6910  135.8450 C   0  0  0  0  0  0  0  0  0  0  0  0
  190.3530  174.4440  135.0860 C   0  0  0  0  0  1  0  0  0  0  0  0
  188.8610  177.5970  136.8730 C   0  0  2  0  0  3  0  0  0  0  0  0
  188.5410  174.6480  136.8010 N   0  0  1  0  0  0  0  0  0  0  0  0
  187.4410  174.2460  135.8500 C   0  0  1  0  0  0  0  0  0  0  0  0
  186.3470  172.7890  137.6300 C   0  0  0  0  0  1  0  0  0  0  0  0
  186.9450  172.8160  136.2280 C   0  0  0  0  0  0  0  0  0  0  0  0
  184.5190  173.5500  135.2540 C   0  0  1  0  0  3  0  0  0  0  0  0
  188.1020  171.8310  136.2150 C   0  0  0  0  0  1  0  0  0  0  0  0
  185.1630  174.8630  134.8570 C   0  0  0  0  0  2  0  0  0  0  0  0
  186.2460  175.2300  135.8610 C   0  0  0  0  0  2  0  0  0  0  0  0
  183.3060  173.3020  134.3820 C   0  0  0  0  0  1  0  0  0  0  0  0
  187.9020  174.2210  134.5390 F   0  0  0  0  0  0  0  0  0  0  0  0
  185.7070  172.1900  135.0290 S   0  0  0  0  0  0  0  0  0  0  0  0
  188.3290  177.8070  139.9280 C   0  0  0  0  0  3  0  0  0  0  0  0
  186.0700  178.1030  139.0850 C   0  0  0  0  0  0  0  0  0  0  0  0
  186.6850  178.9780  141.2630 C   0  0  0  0  0  0  0  0  0  0  0  0
  187.3790  177.6100  138.9130 C   0  0  0  0  0  0  0  0  0  0  0  0
  185.7330  178.7850  140.2580 C   0  0  0  0  0  3  0  0  0  0  0  0
  185.0220  177.9150  138.0410 C   0  0  0  0  0  1  0  0  0  0  0  0
  186.3500  179.6380  142.3960 F   0  0  0  0  0  0  0  0  0  0  0  0
  187.9830  178.4890  141.0970 C   0  0  0  0  0  3  0  0  0  0  0  0
  1  7  2  0  0  0  0
  2  5  1  0  0  0  0
  2 24  1  1  0  0  0
  4  8  1  6  0  0  0
  4 10  1  0  0  0  0
  4  6  1  0  0  0  0
  7  4  1  0  0  0  0
  7  9  1  0  0  0  0
  9  3  1  6  0  0  0
  9  2  1  0  0  0  0
 10  5  1  1  0  0  0
 11 19  1  6  0  0  0
 11 17  1  0  0  0  0
 11 13  1  0  0  0  0
 11 10  1  0  0  0  0
 13 12  1  0  0  0  0
 14 18  1  6  0  0  0
 15 13  1  0  0  0  0
 16 14  1  0  0  0  0
 16 17  1  0  0  0  0
 20 14  1  0  0  0  0
 20 13  1  0  0  0  0
 21 28  1  0  0  0  0
 22 25  2  0  0  0  0
 23 27  1  0  0  0  0
 24 22  1  0  0  0  0
 24 21  2  0  0  0  0
 25 23  1  0  0  0  0
 26 22  1  0  0  0  0
 28 23  2  0  0  0  0
M  END
>  <MODEL>
6

>  <REMARK>
 VINA RESULT:      -3.8      1.685      2.026
  Name = 
  2 active torsions:
  status: ('A' for Active; 'I' for Inactive)
    1  A    between atoms: C_1  and  N_27
    2  A    between atoms: C_10  and  C_13
                            x       y       z     vdW  Elec       q    Type
                         _______ _______ _______ _____ _____    ______ ____

>  <TORSDO>
F 2

$$$$
=
 OpenBabel10272402013D

 28 30  0  0  1  0  0  0  0  0999 V2000
  184.6560  172.4680  134.8480 O   0  0  0  0  0  0  0  0  0  0  0  0
  186.1000  175.4090  136.3320 C   0  0  2  0  0  3  0  0  0  0  0  0
  186.8470  174.0760  134.3490 C   0  0  0  0  0  1  0  0  0  0  0  0
  184.0330  173.4090  136.9480 C   0  0  1  0  0  0  0  0  0  0  0  0
  185.1360  175.4930  137.5300 C   0  0  0  0  0  2  0  0  0  0  0  0
  184.6730  172.8100  138.0390 O   0  0  0  0  0  1  0  0  0  0  0  0
  184.9310  173.2560  135.7440 C   0  0  0  0  0  0  0  0  0  0  0  0
  182.7070  172.6670  136.7780 C   0  0  0  0  0  1  0  0  0  0  0  0
  186.2490  173.9930  135.7480 C   0  0  2  0  0  3  0  0  0  0  0  0
  183.8350  174.8530  137.2430 N   0  0  1  0  0  0  0  0  0  0  0  0
  182.9060  175.6480  136.3610 C   0  0  1  0  0  0  0  0  0  0  0  0
  182.5790  177.4040  138.1760 C   0  0  0  0  0  1  0  0  0  0  0  0
  181.8810  176.4060  137.2590 C   0  0  0  0  0  0  0  0  0  0  0  0
  181.7990  178.3090  135.3230 C   0  0  1  0  0  3  0  0  0  0  0  0
  181.1290  175.4300  138.1480 C   0  0  0  0  0  1  0  0  0  0  0  0
  182.7270  177.4200  134.5200 C   0  0  0  0  0  2  0  0  0  0  0  0
  183.6530  176.6610  135.4570 C   0  0  0  0  0  2  0  0  0  0  0  0
  181.0350  179.2170  134.3830 C   0  0  0  0  0  1  0  0  0  0  0  0
  182.2050  174.8150  135.4980 F   0  0  0  0  0  0  0  0  0  0  0  0
  180.6200  177.2830  136.2570 S   0  0  0  0  0  0  0  0  0  0  0  0
  188.3140  175.3190  137.5250 C   0  0  0  0  0  3  0  0  0  0  0  0
  187.7980  177.2830  136.1930 C   0  0  0  0  0  0  0  0  0  0  0  0
  189.9100  177.1300  137.3760 C   0  0  0  0  0  0  0  0  0  0  0  0
  187.4300  176.0140  136.6850 C   0  0  0  0  0  0  0  0  0  0  0  0
  189.0350  177.8310  136.5410 C   0  0  0  0  0  3  0  0  0  0  0  0
  186.8930  178.0660  135.3030 C   0  0  0  0  0  1  0  0  0  0  0  0
  191.1070  177.6700  137.7090 F   0  0  0  0  0  0  0  0  0  0  0  0
  189.5490  175.8740  137.8680 C   0  0  0  0  0  3  0  0  0  0  0  0
  1  7  2  0  0  0  0
  2 24  1  1  0  0  0
  2  5  1  0  0  0  0
  4  8  1  6  0  0  0
  4 10  1  0  0  0  0
  4  6  1  0  0  0  0
  7  9  1  0  0  0  0
  7  4  1  0  0  0  0
  9  3  1  6  0  0  0
  9  2  1  0  0  0  0
 10  5  1  6  0  0  0
 11 19  1  6  0  0  0
 11 10  1  0  0  0  0
 11 13  1  0  0  0  0
 13 15  1  0  0  0  0
 13 12  1  0  0  0  0
 14 18  1  6  0  0  0
 14 20  1  0  0  0  0
 16 14  1  0  0  0  0
 16 17  1  0  0  0  0
 17 11  1  0  0  0  0
 20 13  1  0  0  0  0
 21 28  1  0  0  0  0
 22 25  2  0  0  0  0
 22 24  1  0  0  0  0
 23 27  1  0  0  0  0
 23 28  2  0  0  0  0
 24 21  2  0  0  0  0
 25 23  1  0  0  0  0
 26 22  1  0  0  0  0
M  END
>  <MODEL>
7

>  <REMARK>
 VINA RESULT:      -3.6      3.514      5.154
  Name = 
  2 active torsions:
  status: ('A' for Active; 'I' for Inactive)
    1  A    between atoms: C_1  and  N_27
    2  A    between atoms: C_10  and  C_13
                            x       y       z     vdW  Elec       q    Type
                         _______ _______ _______ _____ _____    ______ ____

>  <TORSDO>
F 2

$$$$
=
 OpenBabel10272402013D

 28 30  0  0  1  0  0  0  0  0999 V2000
  186.1540  172.8010  136.9990 O   0  0  0  0  0  0  0  0  0  0  0  0
  185.1960  176.2680  137.0050 C   0  0  2  0  0  3  0  0  0  0  0  0
  184.1030  174.2950  138.0900 C   0  0  0  0  0  1  0  0  0  0  0  0
  187.0980  174.5020  135.6190 C   0  0  1  0  0  0  0  0  0  0  0  0
  186.2880  176.7550  136.0330 C   0  0  0  0  0  2  0  0  0  0  0  0
  186.5200  174.5710  134.3460 O   0  0  0  0  0  1  0  0  0  0  0  0
  186.0630  173.9430  136.5660 C   0  0  0  0  0  0  0  0  0  0  0  0
  188.3120  173.5840  135.4840 C   0  0  0  0  0  1  0  0  0  0  0  0
  184.8370  174.7800  136.8460 C   0  0  2  0  0  3  0  0  0  0  0  0
  187.4760  175.8750  136.0470 N   0  0  1  0  0  0  0  0  0  0  0  0
  188.3810  176.0330  137.2430 C   0  0  1  0  0  0  0  0  0  0  0  0
  189.3820  178.1700  136.2850 C   0  0  0  0  0  1  0  0  0  0  0  0
  189.6840  176.7670  136.7970 C   0  0  0  0  0  0  0  0  0  0  0  0
  189.8220  177.7640  139.3190 C   0  0  1  0  0  3  0  0  0  0  0  0
  190.3590  176.0110  135.6650 C   0  0  0  0  0  1  0  0  0  0  0  0
  188.6020  176.9220  139.6350 C   0  0  0  0  0  2  0  0  0  0  0  0
  187.7160  176.8150  138.4030 C   0  0  0  0  0  2  0  0  0  0  0  0
  190.5820  178.0460  140.5980 C   0  0  0  0  0  1  0  0  0  0  0  0
  188.7300  174.7960  137.7700 F   0  0  0  0  0  0  0  0  0  0  0  0
  190.9050  176.8690  138.1620 S   0  0  0  0  0  0  0  0  0  0  0  0
  183.1770  177.1180  135.7660 C   0  0  0  0  0  3  0  0  0  0  0  0
  183.6500  178.0270  137.9680 C   0  0  0  0  0  0  0  0  0  0  0  0
  181.7250  178.8040  136.7130 C   0  0  0  0  0  0  0  0  0  0  0  0
  183.9830  177.1510  136.9150 C   0  0  0  0  0  0  0  0  0  0  0  0
  182.5230  178.8470  137.8600 C   0  0  0  0  0  3  0  0  0  0  0  0
  184.4760  178.1070  139.2070 C   0  0  0  0  0  1  0  0  0  0  0  0
  180.6350  179.6030  136.6170 F   0  0  0  0  0  0  0  0  0  0  0  0
  182.0530  177.9400  135.6660 C   0  0  0  0  0  3  0  0  0  0  0  0
  2 24  1  6  0  0  0
  4  8  1  6  0  0  0
  4 10  1  0  0  0  0
  4  7  1  0  0  0  0
  5  2  1  0  0  0  0
  6  4  1  0  0  0  0
  7  9  1  0  0  0  0
  7  1  2  0  0  0  0
  9  2  1  0  0  0  0
  9  3  1  1  0  0  0
 10  5  1  1  0  0  0
 10 11  1  0  0  0  0
 11 19  1  1  0  0  0
 11 17  1  0  0  0  0
 12 13  1  0  0  0  0
 13 11  1  0  0  0  0
 13 20  1  0  0  0  0
 14 16  1  0  0  0  0
 14 18  1  1  0  0  0
 15 13  1  0  0  0  0
 17 16  1  0  0  0  0
 20 14  1  0  0  0  0
 21 24  1  0  0  0  0
 22 26  1  0  0  0  0
 23 25  2  0  0  0  0
 24 22  2  0  0  0  0
 25 22  1  0  0  0  0
 27 23  1  0  0  0  0
 28 21  2  0  0  0  0
 28 23  1  0  0  0  0
M  END
>  <MODEL>
8

>  <REMARK>
 VINA RESULT:      -3.5      2.895      6.107
  Name = 
  2 active torsions:
  status: ('A' for Active; 'I' for Inactive)
    1  A    between atoms: C_1  and  N_27
    2  A    between atoms: C_10  and  C_13
                            x       y       z     vdW  Elec       q    Type
                         _______ _______ _______ _____ _____    ______ ____

>  <TORSDO>
F 2

$$$$
=
 OpenBabel10272402013D

 28 30  0  0  1  0  0  0  0  0999 V2000
  193.7340  176.9060  137.3460 O   0  0  0  0  0  0  0  0  0  0  0  0
  190.8630  176.7060  139.5020 C   0  0  2  0  0  3  0  0  0  0  0  0
  192.8360  178.2430  139.5900 C   0  0  0  0  0  1  0  0  0  0  0  0
  192.1190  175.1520  137.3440 C   0  0  1  0  0  0  0  0  0  0  0  0
  190.2360  175.4600  138.8470 C   0  0  0  0  0  2  0  0  0  0  0  0
  192.4990  174.0440  138.1090 O   0  0  0  0  0  1  0  0  0  0  0  0
  192.7980  176.3690  137.9240 C   0  0  0  0  0  0  0  0  0  0  0  0
  192.5830  174.8580  135.9170 C   0  0  0  0  0  1  0  0  0  0  0  0
  192.3850  176.8150  139.3070 C   0  0  2  0  0  3  0  0  0  0  0  0
  190.6440  175.3120  137.4330 N   0  0  1  0  0  0  0  0  0  0  0  0
  189.9590  176.2430  136.4650 C   0  0  1  0  0  0  0  0  0  0  0  0
  187.8140  174.8730  136.5620 C   0  0  0  0  0  1  0  0  0  0  0  0
  188.9000  175.4370  135.6520 C   0  0  0  0  0  0  0  0  0  0  0  0
  187.4840  177.7470  135.4680 C   0  0  1  0  0  3  0  0  0  0  0  0
  189.5520  174.2590  134.9490 C   0  0  0  0  0  1  0  0  0  0  0  0
  188.6370  178.4190  136.1860 C   0  0  0  0  0  2  0  0  0  0  0  0
  189.2740  177.4430  137.1640 C   0  0  0  0  0  2  0  0  0  0  0  0
  186.7250  178.7800  134.6630 C   0  0  0  0  0  1  0  0  0  0  0  0
  190.8730  176.7930  135.5740 F   0  0  0  0  0  0  0  0  0  0  0  0
  188.1230  176.4640  134.3460 S   0  0  0  0  0  0  0  0  0  0  0  0
  191.2460  176.1220  141.9200 C   0  0  0  0  0  3  0  0  0  0  0  0
  189.3340  177.5090  141.3550 C   0  0  0  0  0  0  0  0  0  0  0  0
  189.7620  176.9020  143.6640 C   0  0  0  0  0  0  0  0  0  0  0  0
  190.4750  176.7850  140.9520 C   0  0  0  0  0  0  0  0  0  0  0  0
  188.9860  177.5640  142.7080 C   0  0  0  0  0  3  0  0  0  0  0  0
  188.4770  178.2260  140.3670 C   0  0  0  0  0  1  0  0  0  0  0  0
  189.4170  176.9580  144.9720 F   0  0  0  0  0  0  0  0  0  0  0  0
  190.8910  176.1810  143.2700 C   0  0  0  0  0  3  0  0  0  0  0  0
  1  7  2  0  0  0  0
  2 24  1  1  0  0  0
  4  8  1  6  0  0  0
  4 10  1  0  0  0  0
  4  7  1  0  0  0  0
  4  6  1  0  0  0  0
  5  2  1  0  0  0  0
  7  9  1  0  0  0  0
  9  2  1  0  0  0  0
  9  3  1  6  0  0  0
 10  5  1  1  0  0  0
 11 19  1  6  0  0  0
 11 17  1  0  0  0  0
 11 10  1  0  0  0  0
 13 11  1  0  0  0  0
 13 12  1  0  0  0  0
 14 18  1  6  0  0  0
 14 16  1  0  0  0  0
 15 13  1  0  0  0  0
 16 17  1  0  0  0  0
 20 14  1  0  0  0  0
 20 13  1  0  0  0  0
 21 28  1  0  0  0  0
 22 25  2  0  0  0  0
 23 27  1  0  0  0  0
 24 22  1  0  0  0  0
 24 21  2  0  0  0  0
 25 23  1  0  0  0  0
 26 22  1  0  0  0  0
 28 23  2  0  0  0  0
M  END
>  <MODEL>
9

>  <REMARK>
 VINA RESULT:      -3.3      2.575      3.397
  Name = 
  2 active torsions:
  status: ('A' for Active; 'I' for Inactive)
    1  A    between atoms: C_1  and  N_27
    2  A    between atoms: C_10  and  C_13
                            x       y       z     vdW  Elec       q    Type
                         _______ _______ _______ _____ _____    ______ ____

>  <TORSDO>
F 2

$$$$
