=
 OpenBabel10272414003D

 30 34  0  0  1  0  0  0  0  0999 V2000
  189.2920  177.6910  140.7280 C   0  0  2  0  0  3  0  0  0  0  0  0
  190.5480  174.9720  138.4360 C   0  0  2  0  0  3  0  0  0  0  0  0
  192.1210  178.1410  140.9100 C   0  0  0  0  0  2  0  0  0  0  0  0
  188.5340  177.0760  141.9210 C   0  0  2  0  0  3  0  0  0  0  0  0
  188.4200  178.2600  139.7900 O   0  0  0  0  0  1  0  0  0  0  0  0
  187.6210  176.5400  145.9940 C   0  0  0  0  0  3  0  0  0  0  0  0
  190.3220  177.3240  143.7700 C   0  0  1  0  0  3  0  0  0  0  0  0
  191.3230  178.1580  142.9660 C   0  0  0  0  0  2  0  0  0  0  0  0
  187.7170  178.1810  142.6360 C   0  0  2  0  0  3  0  0  0  0  0  0
  189.9560  174.3360  137.3470 O   0  0  0  0  0  1  0  0  0  0  0  0
  189.4210  178.2900  144.5600 C   0  0  2  0  0  3  0  0  0  0  0  0
  189.0190  176.7560  146.5070 C   0  0  0  0  0  2  0  0  0  0  0  0
  189.6170  176.0570  138.9580 C   0  0  0  0  0  2  0  0  0  0  0  0
  191.4780  177.4020  139.7240 C   0  0  2  0  0  3  0  0  0  0  0  0
  191.8580  175.6090  138.0020 C   0  0  0  0  0  2  0  0  0  0  0  0
  190.2250  176.7290  140.1130 N   0  0  1  0  0  0  0  0  0  0  0  0
  190.2140  175.3180  142.3680 O   0  0  0  0  0  1  0  0  0  0  0  0
  192.0730  177.3760  142.0820 O   0  0  0  0  0  0  0  0  0  0  0  0
  189.4690  176.3620  142.9240 C   0  0  2  0  0  3  0  0  0  0  0  0
  189.5900  178.1040  146.0670 C   0  0  0  0  0  2  0  0  0  0  0  0
  187.1420  177.1750  144.9140 C   0  0  0  0  0  3  0  0  0  0  0  0
  192.4790  176.3810  139.1600 C   0  0  1  0  0  3  0  0  0  0  0  0
  193.6270  177.0330  138.7060 O   0  0  0  0  0  1  0  0  0  0  0  0
  187.9210  178.2440  144.1720 C   0  0  2  0  0  3  0  0  0  0  0  0
  185.5250  179.3730  142.7020 C   0  0  1  0  0  3  0  0  0  0  0  0
  186.2430  178.1140  142.2420 C   0  0  1  0  0  3  0  0  0  0  0  0
  185.9150  179.2110  141.2500 C   0  0  0  0  0  2  0  0  0  0  0  0
  184.1680  179.0930  142.8520 O   0  0  0  0  0  0  0  0  0  0  0  0
  183.7960  179.7660  144.0160 C   0  0  0  0  0  2  0  0  0  0  0  0
  183.8350  178.8090  145.1870 C   0  0  0  0  0  1  0  0  0  0  0  0
  1  5  1  6  0  0  0
  1  4  1  0  0  0  0
  2 10  1  6  0  0  0
  2 13  1  0  0  0  0
  3 18  1  0  0  0  0
  4  9  1  0  0  0  0
  4 19  1  0  0  0  0
  6 12  1  0  0  0  0
  7 11  1  0  0  0  0
  8  7  1  0  0  0  0
  9 24  1  0  0  0  0
 11 20  1  0  0  0  0
 13 16  1  0  0  0  0
 14 16  1  0  0  0  0
 14  3  1  0  0  0  0
 15  2  1  0  0  0  0
 15 22  1  0  0  0  0
 16  1  1  0  0  0  0
 17 19  1  0  0  0  0
 18  8  1  0  0  0  0
 19  7  1  0  0  0  0
 20 12  1  0  0  0  0
 21  6  2  0  0  0  0
 22 14  1  0  0  0  0
 23 22  1  0  0  0  0
 24 11  1  0  0  0  0
 24 21  1  0  0  0  0
 25 28  1  0  0  0  0
 26  9  1  0  0  0  0
 26 25  1  0  0  0  0
 27 26  1  0  0  0  0
 27 25  1  0  0  0  0
 28 29  1  0  0  0  0
 29 30  1  0  0  0  0
M  END
>  <MODEL>
1

>  <REMARK>
 VINA RESULT:      -6.6      0.000      0.000
  Name = 
  3 active torsions:
  status: ('A' for Active; 'I' for Inactive)
    1  A    between atoms: C_6  and  O_21
    2  A    between atoms: C_8  and  C_13
    3  A    between atoms: C_9  and  O_21
                            x       y       z     vdW  Elec       q    Type
                         _______ _______ _______ _____ _____    ______ ____

>  <TORSDO>
F 3

$$$$
=
 OpenBabel10272414003D

 30 34  0  0  1  0  0  0  0  0999 V2000
  191.6800  175.7040  137.4600 C   0  0  2  0  0  3  0  0  0  0  0  0
  194.5960  176.5400  135.2190 C   0  0  2  0  0  3  0  0  0  0  0  0
  191.7500  173.3490  135.8200 C   0  0  0  0  0  2  0  0  0  0  0  0
  190.5500  176.7360  137.2730 C   0  0  2  0  0  3  0  0  0  0  0  0
  192.3760  175.9010  138.6590 O   0  0  0  0  0  1  0  0  0  0  0  0
  186.5840  177.9710  136.5980 C   0  0  0  0  0  3  0  0  0  0  0  0
  188.9150  175.3590  135.8210 C   0  0  1  0  0  3  0  0  0  0  0  0
  189.6520  174.0210  135.9100 C   0  0  0  0  0  2  0  0  0  0  0  0
  189.5390  176.6090  138.4390 C   0  0  2  0  0  3  0  0  0  0  0  0
  195.7110  177.3510  135.4180 O   0  0  0  0  0  1  0  0  0  0  0  0
  187.8480  175.3930  136.9300 C   0  0  2  0  0  3  0  0  0  0  0  0
  186.2080  176.8330  135.6880 C   0  0  0  0  0  2  0  0  0  0  0  0
  193.7640  176.4990  136.4920 C   0  0  0  0  0  2  0  0  0  0  0  0
  192.9740  174.2630  136.0040 C   0  0  2  0  0  3  0  0  0  0  0  0
  195.0490  175.1290  134.8760 C   0  0  0  0  0  2  0  0  0  0  0  0
  192.5790  175.6550  136.2920 N   0  0  1  0  0  0  0  0  0  0  0  0
  190.6620  176.7420  134.8030 O   0  0  0  0  0  1  0  0  0  0  0  0
  190.7560  173.9670  135.0530 O   0  0  0  0  0  0  0  0  0  0  0  0
  189.8260  176.5960  135.9130 C   0  0  2  0  0  3  0  0  0  0  0  0
  186.4390  175.4730  136.3460 C   0  0  0  0  0  2  0  0  0  0  0  0
  187.4520  177.8300  137.6100 C   0  0  0  0  0  3  0  0  0  0  0  0
  193.8440  174.2070  134.7380 C   0  0  1  0  0  3  0  0  0  0  0  0
  194.2930  172.9030  134.5200 O   0  0  0  0  0  1  0  0  0  0  0  0
  188.0570  176.4950  138.0000 C   0  0  2  0  0  3  0  0  0  0  0  0
  189.1960  177.2720  140.8210 C   0  0  1  0  0  3  0  0  0  0  0  0
  189.7600  177.7070  139.4780 C   0  0  1  0  0  3  0  0  0  0  0  0
  190.6860  177.2150  140.5720 C   0  0  0  0  0  2  0  0  0  0  0  0
  188.8950  178.4040  141.5760 O   0  0  0  0  0  0  0  0  0  0  0  0
  188.9010  177.9590  142.8980 C   0  0  0  0  0  2  0  0  0  0  0  0
  187.8620  176.8710  143.0690 C   0  0  0  0  0  1  0  0  0  0  0  0
  1  5  1  1  0  0  0
  2 10  1  1  0  0  0
  2 13  1  0  0  0  0
  3 14  1  0  0  0  0
  4  1  1  0  0  0  0
  4  9  1  0  0  0  0
  6 21  2  0  0  0  0
  7  8  1  0  0  0  0
  7 19  1  0  0  0  0
  7 11  1  0  0  0  0
  9 26  1  0  0  0  0
 11 24  1  0  0  0  0
 12 20  1  0  0  0  0
 12  6  1  0  0  0  0
 14 16  1  0  0  0  0
 15  2  1  0  0  0  0
 16 13  1  0  0  0  0
 16  1  1  0  0  0  0
 17 19  1  0  0  0  0
 18  3  1  0  0  0  0
 18  8  1  0  0  0  0
 19  4  1  0  0  0  0
 20 11  1  0  0  0  0
 21 24  1  0  0  0  0
 22 15  1  0  0  0  0
 22 14  1  0  0  0  0
 23 22  1  0  0  0  0
 24  9  1  0  0  0  0
 25 28  1  0  0  0  0
 26 27  1  0  0  0  0
 26 25  1  0  0  0  0
 27 25  1  0  0  0  0
 28 29  1  0  0  0  0
 29 30  1  0  0  0  0
M  END
>  <MODEL>
2

>  <REMARK>
 VINA RESULT:      -6.0      3.081      6.630
  Name = 
  3 active torsions:
  status: ('A' for Active; 'I' for Inactive)
    1  A    between atoms: C_6  and  O_21
    2  A    between atoms: C_8  and  C_13
    3  A    between atoms: C_9  and  O_21
                            x       y       z     vdW  Elec       q    Type
                         _______ _______ _______ _____ _____    ______ ____

>  <TORSDO>
F 3

$$$$
=
 OpenBabel10272414003D

 30 34  0  0  1  0  0  0  0  0999 V2000
  193.2350  175.8570  137.1370 C   0  0  2  0  0  3  0  0  0  0  0  0
  195.5490  177.3960  134.5870 C   0  0  2  0  0  3  0  0  0  0  0  0
  194.4280  173.4880  136.0410 C   0  0  0  0  0  2  0  0  0  0  0  0
  191.7690  176.2030  136.8060 C   0  0  2  0  0  3  0  0  0  0  0  0
  193.7180  176.6050  138.2190 O   0  0  0  0  0  1  0  0  0  0  0  0
  187.7050  175.3440  136.1370 C   0  0  0  0  0  3  0  0  0  0  0  0
  190.9930  173.9570  135.7910 C   0  0  1  0  0  3  0  0  0  0  0  0
  192.2500  173.1470  136.1180 C   0  0  0  0  0  2  0  0  0  0  0  0
  190.8780  175.8960  138.0350 C   0  0  2  0  0  3  0  0  0  0  0  0
  196.1680  178.6420  134.5350 O   0  0  0  0  0  1  0  0  0  0  0  0
  189.9810  173.7510  136.9340 C   0  0  2  0  0  3  0  0  0  0  0  0
  187.9200  173.9890  135.5190 C   0  0  0  0  0  2  0  0  0  0  0  0
  194.7730  177.2670  135.8900 C   0  0  0  0  0  2  0  0  0  0  0  0
  195.0980  174.8690  135.9450 C   0  0  2  0  0  3  0  0  0  0  0  0
  196.6030  176.3020  134.5270 C   0  0  0  0  0  2  0  0  0  0  0  0
  194.1060  175.9610  135.9520 N   0  0  1  0  0  0  0  0  0  0  0  0
  191.9670  175.7140  134.3900 O   0  0  0  0  0  1  0  0  0  0  0  0
  193.2930  173.4080  135.2240 O   0  0  0  0  0  0  0  0  0  0  0  0
  191.2430  175.4570  135.5570 C   0  0  2  0  0  3  0  0  0  0  0  0
  188.7130  173.0590  136.4370 C   0  0  0  0  0  2  0  0  0  0  0  0
  188.5010  175.8350  137.0980 C   0  0  0  0  0  3  0  0  0  0  0  0
  195.9500  174.9320  134.6680 C   0  0  1  0  0  3  0  0  0  0  0  0
  196.9480  173.9560  134.7060 O   0  0  0  0  0  1  0  0  0  0  0  0
  189.6260  175.0350  137.7260 C   0  0  2  0  0  3  0  0  0  0  0  0
  190.0350  176.8300  140.1900 C   0  0  1  0  0  3  0  0  0  0  0  0
  190.5370  177.1750  138.7970 C   0  0  1  0  0  3  0  0  0  0  0  0
  191.4490  177.3290  139.9970 C   0  0  0  0  0  2  0  0  0  0  0  0
  189.2350  177.8730  140.6560 O   0  0  0  0  0  0  0  0  0  0  0  0
  189.3860  177.8410  142.0410 C   0  0  0  0  0  2  0  0  0  0  0  0
  188.6500  176.6450  142.6040 C   0  0  0  0  0  1  0  0  0  0  0  0
  1  5  1  1  0  0  0
  2 10  1  1  0  0  0
  2 13  1  0  0  0  0
  4  1  1  0  0  0  0
  4  9  1  0  0  0  0
  6 21  2  0  0  0  0
  7  8  1  0  0  0  0
  7 11  1  0  0  0  0
  9 26  1  0  0  0  0
 11 24  1  0  0  0  0
 12  6  1  0  0  0  0
 12 20  1  0  0  0  0
 13 16  1  0  0  0  0
 14 16  1  0  0  0  0
 14  3  1  0  0  0  0
 15  2  1  0  0  0  0
 15 22  1  0  0  0  0
 16  1  1  0  0  0  0
 17 19  1  0  0  0  0
 18  3  1  0  0  0  0
 18  8  1  0  0  0  0
 19  7  1  0  0  0  0
 19  4  1  0  0  0  0
 20 11  1  0  0  0  0
 21 24  1  0  0  0  0
 22 23  1  0  0  0  0
 22 14  1  0  0  0  0
 24  9  1  0  0  0  0
 25 28  1  0  0  0  0
 26 27  1  0  0  0  0
 26 25  1  0  0  0  0
 27 25  1  0  0  0  0
 28 29  1  0  0  0  0
 29 30  1  0  0  0  0
M  END
>  <MODEL>
3

>  <REMARK>
 VINA RESULT:      -5.7      3.425      7.301
  Name = 
  3 active torsions:
  status: ('A' for Active; 'I' for Inactive)
    1  A    between atoms: C_6  and  O_21
    2  A    between atoms: C_8  and  C_13
    3  A    between atoms: C_9  and  O_21
                            x       y       z     vdW  Elec       q    Type
                         _______ _______ _______ _____ _____    ______ ____

>  <TORSDO>
F 3

$$$$
=
 OpenBabel10272414003D

 30 34  0  0  1  0  0  0  0  0999 V2000
  189.3300  178.0510  140.3700 C   0  0  2  0  0  3  0  0  0  0  0  0
  189.6660  175.2610  137.8550 C   0  0  2  0  0  3  0  0  0  0  0  0
  192.1740  177.6660  140.4180 C   0  0  0  0  0  2  0  0  0  0  0  0
  188.4730  177.5920  141.5660 C   0  0  2  0  0  3  0  0  0  0  0  0
  188.6240  178.9110  139.5180 O   0  0  0  0  0  1  0  0  0  0  0  0
  187.5970  177.0440  145.6450 C   0  0  0  0  0  3  0  0  0  0  0  0
  190.3250  177.1880  143.3220 C   0  0  1  0  0  3  0  0  0  0  0  0
  191.4920  177.7590  142.5130 C   0  0  0  0  0  2  0  0  0  0  0  0
  188.0350  178.8290  142.3890 C   0  0  2  0  0  3  0  0  0  0  0  0
  188.8770  174.8990  136.7660 O   0  0  0  0  0  1  0  0  0  0  0  0
  189.7680  178.3100  144.2170 C   0  0  2  0  0  3  0  0  0  0  0  0
  189.0170  176.8170  146.0910 C   0  0  0  0  0  2  0  0  0  0  0  0
  189.1060  176.5250  138.4910 C   0  0  0  0  0  2  0  0  0  0  0  0
  191.3020  177.2270  139.2290 C   0  0  2  0  0  3  0  0  0  0  0  0
  191.0870  175.5290  137.3860 C   0  0  0  0  0  2  0  0  0  0  0  0
  189.9240  176.9110  139.6480 N   0  0  1  0  0  0  0  0  0  0  0  0
  189.5930  175.4020  141.8130 O   0  0  0  0  0  1  0  0  0  0  0  0
  191.9520  176.8630  141.5430 O   0  0  0  0  0  0  0  0  0  0  0  0
  189.2000  176.5710  142.4710 C   0  0  2  0  0  3  0  0  0  0  0  0
  189.9330  177.9750  145.6980 C   0  0  0  0  0  2  0  0  0  0  0  0
  187.2800  177.8650  144.6330 C   0  0  0  0  0  3  0  0  0  0  0  0
  191.9460  176.0080  138.5500 C   0  0  1  0  0  3  0  0  0  0  0  0
  193.2150  176.3380  138.0720 O   0  0  0  0  0  1  0  0  0  0  0  0
  188.3050  178.7200  143.9120 C   0  0  2  0  0  3  0  0  0  0  0  0
  186.1950  178.6720  140.7100 C   0  0  1  0  0  3  0  0  0  0  0  0
  186.5890  179.2110  142.0760 C   0  0  1  0  0  3  0  0  0  0  0  0
  185.7310  177.9670  141.9650 C   0  0  0  0  0  2  0  0  0  0  0  0
  185.1530  179.4450  140.1990 O   0  0  0  0  0  0  0  0  0  0  0  0
  184.5150  178.6140  139.2790 C   0  0  0  0  0  2  0  0  0  0  0  0
  185.4780  178.2580  138.1670 C   0  0  0  0  0  1  0  0  0  0  0  0
  1  5  1  6  0  0  0
  1  4  1  0  0  0  0
  2 10  1  6  0  0  0
  2 13  1  0  0  0  0
  3 18  1  0  0  0  0
  4  9  1  0  0  0  0
  4 19  1  0  0  0  0
  6 12  1  0  0  0  0
  7 11  1  0  0  0  0
  8  7  1  0  0  0  0
  9 24  1  0  0  0  0
 11 20  1  0  0  0  0
 13 16  1  0  0  0  0
 14 16  1  0  0  0  0
 14  3  1  0  0  0  0
 15  2  1  0  0  0  0
 15 22  1  0  0  0  0
 16  1  1  0  0  0  0
 17 19  1  0  0  0  0
 18  8  1  0  0  0  0
 19  7  1  0  0  0  0
 20 12  1  0  0  0  0
 21  6  2  0  0  0  0
 22 14  1  0  0  0  0
 23 22  1  0  0  0  0
 24 11  1  0  0  0  0
 24 21  1  0  0  0  0
 25 27  1  0  0  0  0
 25 26  1  0  0  0  0
 26  9  1  0  0  0  0
 27 26  1  0  0  0  0
 28 25  1  0  0  0  0
 29 28  1  0  0  0  0
 30 29  1  0  0  0  0
M  END
>  <MODEL>
4

>  <REMARK>
 VINA RESULT:      -5.0      1.267      1.886
  Name = 
  3 active torsions:
  status: ('A' for Active; 'I' for Inactive)
    1  A    between atoms: C_6  and  O_21
    2  A    between atoms: C_8  and  C_13
    3  A    between atoms: C_9  and  O_21
                            x       y       z     vdW  Elec       q    Type
                         _______ _______ _______ _____ _____    ______ ____

>  <TORSDO>
F 3

$$$$
=
 OpenBabel10272414003D

 30 34  0  0  1  0  0  0  0  0999 V2000
  186.6010  177.6930  137.1730 C   0  0  2  0  0  3  0  0  0  0  0  0
  183.3440  175.9710  137.9800 C   0  0  2  0  0  3  0  0  0  0  0  0
  185.6960  177.0540  134.5250 C   0  0  0  0  0  2  0  0  0  0  0  0
  187.7830  176.9170  137.7890 C   0  0  2  0  0  3  0  0  0  0  0  0
  186.3120  178.8620  137.8890 O   0  0  0  0  0  1  0  0  0  0  0  0
  191.5410  175.0260  137.7470 C   0  0  0  0  0  3  0  0  0  0  0  0
  188.7000  175.7400  135.6790 C   0  0  1  0  0  3  0  0  0  0  0  0
  187.8140  176.4530  134.6550 C   0  0  0  0  0  2  0  0  0  0  0  0
  189.0470  177.8110  137.7770 C   0  0  2  0  0  3  0  0  0  0  0  0
  182.4750  176.0990  139.0620 O   0  0  0  0  0  1  0  0  0  0  0  0
  190.0280  176.5130  135.7840 C   0  0  2  0  0  3  0  0  0  0  0  0
  191.4590  174.5240  136.3300 C   0  0  0  0  0  2  0  0  0  0  0  0
  184.4840  176.9690  138.1240 C   0  0  0  0  0  2  0  0  0  0  0  0
  184.7360  177.1540  135.7230 C   0  0  2  0  0  3  0  0  0  0  0  0
  182.5940  176.2570  136.6890 C   0  0  0  0  0  2  0  0  0  0  0  0
  185.4140  176.8370  136.9950 N   0  0  1  0  0  0  0  0  0  0  0  0
  186.9810  174.6900  137.0730 O   0  0  0  0  0  1  0  0  0  0  0  0
  186.5200  175.9250  134.6170 O   0  0  0  0  0  0  0  0  0  0  0  0
  188.0620  175.5760  137.0700 C   0  0  2  0  0  3  0  0  0  0  0  0
  191.2090  175.6550  135.3340 C   0  0  0  0  0  2  0  0  0  0  0  0
  190.9830  176.1810  138.1370 C   0  0  0  0  0  3  0  0  0  0  0  0
  183.5480  176.2050  135.5020 C   0  0  1  0  0  3  0  0  0  0  0  0
  182.8530  176.5660  134.3460 O   0  0  0  0  0  1  0  0  0  0  0  0
  190.3080  177.1390  137.1740 C   0  0  2  0  0  3  0  0  0  0  0  0
  188.2240  177.9670  140.1270 C   0  0  1  0  0  3  0  0  0  0  0  0
  189.3060  178.4120  139.1570 C   0  0  1  0  0  3  0  0  0  0  0  0
  189.5870  177.3140  140.1620 C   0  0  0  0  0  2  0  0  0  0  0  0
  188.1290  178.8980  141.1610 O   0  0  0  0  0  0  0  0  0  0  0  0
  187.0700  178.4440  141.9480 C   0  0  0  0  0  2  0  0  0  0  0  0
  185.7580  178.8610  141.3190 C   0  0  0  0  0  1  0  0  0  0  0  0
  1  4  1  0  0  0  0
  1  5  1  1  0  0  0
  2 13  1  0  0  0  0
  2 10  1  1  0  0  0
  3 18  1  0  0  0  0
  3 14  1  0  0  0  0
  6 21  2  0  0  0  0
  7 11  1  0  0  0  0
  7 19  1  0  0  0  0
  8  7  1  0  0  0  0
  9  4  1  0  0  0  0
  9 26  1  0  0  0  0
 11 24  1  0  0  0  0
 12  6  1  0  0  0  0
 14 16  1  0  0  0  0
 15  2  1  0  0  0  0
 16  1  1  0  0  0  0
 16 13  1  0  0  0  0
 18  8  1  0  0  0  0
 19 17  1  0  0  0  0
 19  4  1  0  0  0  0
 20 11  1  0  0  0  0
 20 12  1  0  0  0  0
 22 14  1  0  0  0  0
 22 15  1  0  0  0  0
 23 22  1  0  0  0  0
 24  9  1  0  0  0  0
 24 21  1  0  0  0  0
 25 27  1  0  0  0  0
 25 28  1  0  0  0  0
 26 25  1  0  0  0  0
 26 27  1  0  0  0  0
 28 29  1  0  0  0  0
 30 29  1  0  0  0  0
M  END
>  <MODEL>
5

>  <REMARK>
 VINA RESULT:      -4.9      3.945      7.432
  Name = 
  3 active torsions:
  status: ('A' for Active; 'I' for Inactive)
    1  A    between atoms: C_6  and  O_21
    2  A    between atoms: C_8  and  C_13
    3  A    between atoms: C_9  and  O_21
                            x       y       z     vdW  Elec       q    Type
                         _______ _______ _______ _____ _____    ______ ____

>  <TORSDO>
F 3

$$$$
=
 OpenBabel10272414003D

 30 34  0  0  1  0  0  0  0  0999 V2000
  183.9150  178.5100  138.9940 C   0  0  2  0  0  3  0  0  0  0  0  0
  183.1850  178.2330  142.6840 C   0  0  2  0  0  3  0  0  0  0  0  0
  181.1080  179.1100  139.0020 C   0  0  0  0  0  2  0  0  0  0  0  0
  184.4080  177.1560  138.4440 C   0  0  2  0  0  3  0  0  0  0  0  0
  184.9600  179.4310  139.1360 O   0  0  0  0  0  1  0  0  0  0  0  0
  184.4480  173.9130  135.7640 C   0  0  0  0  0  3  0  0  0  0  0  0
  182.2700  176.3500  137.2390 C   0  0  1  0  0  3  0  0  0  0  0  0
  181.4550  177.6360  137.3990 C   0  0  0  0  0  2  0  0  0  0  0  0
  185.0500  177.3710  137.0500 C   0  0  2  0  0  3  0  0  0  0  0  0
  183.9970  178.4150  143.8010 O   0  0  0  0  0  1  0  0  0  0  0  0
  182.9790  176.4000  135.8730 C   0  0  2  0  0  3  0  0  0  0  0  0
  182.9720  173.9220  135.4700 C   0  0  0  0  0  2  0  0  0  0  0  0
  183.9790  178.5470  141.4230 C   0  0  0  0  0  2  0  0  0  0  0  0
  181.9900  179.2750  140.2510 C   0  0  2  0  0  3  0  0  0  0  0  0
  181.9910  179.1710  142.7640 C   0  0  0  0  0  2  0  0  0  0  0  0
  183.1380  178.3480  140.2360 N   0  0  1  0  0  0  0  0  0  0  0  0
  182.6830  175.8080  139.5910 O   0  0  0  0  0  1  0  0  0  0  0  0
  180.9130  177.7610  138.6820 O   0  0  0  0  0  0  0  0  0  0  0  0
  183.2870  176.0940  138.3650 C   0  0  2  0  0  3  0  0  0  0  0  0
  182.4980  175.2790  134.9530 C   0  0  0  0  0  2  0  0  0  0  0  0
  185.1390  175.0320  136.0240 C   0  0  0  0  0  3  0  0  0  0  0  0
  181.1370  179.0470  141.5090 C   0  0  1  0  0  3  0  0  0  0  0  0
  180.1050  179.9860  141.5670 O   0  0  0  0  0  1  0  0  0  0  0  0
  184.5270  176.4180  135.9450 C   0  0  2  0  0  3  0  0  0  0  0  0
  187.1740  177.8110  135.8160 C   0  0  1  0  0  3  0  0  0  0  0  0
  186.5750  177.3800  137.1450 C   0  0  1  0  0  3  0  0  0  0  0  0
  187.1020  178.7890  136.9670 C   0  0  0  0  0  2  0  0  0  0  0  0
  188.4700  177.3060  135.7160 O   0  0  0  0  0  0  0  0  0  0  0  0
  188.5790  176.8740  134.3950 C   0  0  0  0  0  2  0  0  0  0  0  0
  188.4820  175.3650  134.3460 C   0  0  0  0  0  1  0  0  0  0  0  0
  1  5  1  1  0  0  0
  1 16  1  0  0  0  0
  2 15  1  0  0  0  0
  2 10  1  1  0  0  0
  3 14  1  0  0  0  0
  4  1  1  0  0  0  0
  6 21  2  0  0  0  0
  7  8  1  0  0  0  0
  7 19  1  0  0  0  0
  8 18  1  0  0  0  0
  9 26  1  0  0  0  0
  9  4  1  0  0  0  0
 11 24  1  0  0  0  0
 11  7  1  0  0  0  0
 12  6  1  0  0  0  0
 13  2  1  0  0  0  0
 14 22  1  0  0  0  0
 16 14  1  0  0  0  0
 16 13  1  0  0  0  0
 18  3  1  0  0  0  0
 19  4  1  0  0  0  0
 19 17  1  0  0  0  0
 20 12  1  0  0  0  0
 20 11  1  0  0  0  0
 22 23  1  0  0  0  0
 22 15  1  0  0  0  0
 24 21  1  0  0  0  0
 24  9  1  0  0  0  0
 25 27  1  0  0  0  0
 25 26  1  0  0  0  0
 27 26  1  0  0  0  0
 28 25  1  0  0  0  0
 29 28  1  0  0  0  0
 30 29  1  0  0  0  0
M  END
>  <MODEL>
6

>  <REMARK>
 VINA RESULT:      -4.8      5.274      9.636
  Name = 
  3 active torsions:
  status: ('A' for Active; 'I' for Inactive)
    1  A    between atoms: C_6  and  O_21
    2  A    between atoms: C_8  and  C_13
    3  A    between atoms: C_9  and  O_21
                            x       y       z     vdW  Elec       q    Type
                         _______ _______ _______ _____ _____    ______ ____

>  <TORSDO>
F 3

$$$$
=
 OpenBabel10272414003D

 30 34  0  0  1  0  0  0  0  0999 V2000
  183.8780  178.8980  139.1820 C   0  0  2  0  0  3  0  0  0  0  0  0
  183.5920  178.3550  142.9040 C   0  0  2  0  0  3  0  0  0  0  0  0
  181.0460  179.2150  139.5240 C   0  0  0  0  0  2  0  0  0  0  0  0
  184.4320  177.6320  138.4990 C   0  0  2  0  0  3  0  0  0  0  0  0
  184.8430  179.9100  139.2720 O   0  0  0  0  0  1  0  0  0  0  0  0
  184.4770  174.5550  135.6290 C   0  0  0  0  0  3  0  0  0  0  0  0
  182.2580  176.6810  137.4770 C   0  0  1  0  0  3  0  0  0  0  0  0
  181.3500  177.8690  137.8040 C   0  0  0  0  0  2  0  0  0  0  0  0
  184.8920  177.9830  137.0620 C   0  0  2  0  0  3  0  0  0  0  0  0
  184.5020  178.5570  143.9390 O   0  0  0  0  0  1  0  0  0  0  0  0
  182.8040  176.8740  136.0500 C   0  0  2  0  0  3  0  0  0  0  0  0
  182.9830  174.4330  135.4930 C   0  0  0  0  0  2  0  0  0  0  0  0
  184.2080  178.8130  141.5890 C   0  0  0  0  0  2  0  0  0  0  0  0
  182.0420  179.4000  140.6820 C   0  0  2  0  0  3  0  0  0  0  0  0
  182.3320  179.1640  143.1690 C   0  0  0  0  0  2  0  0  0  0  0  0
  183.2630  178.5940  140.4870 N   0  0  1  0  0  0  0  0  0  0  0  0
  182.9780  176.0600  139.7340 O   0  0  0  0  0  1  0  0  0  0  0  0
  180.9440  177.8720  139.1420 O   0  0  0  0  0  0  0  0  0  0  0  0
  183.4130  176.4690  138.4710 C   0  0  2  0  0  3  0  0  0  0  0  0
  182.3300  175.7620  135.1170 C   0  0  0  0  0  2  0  0  0  0  0  0
  185.0850  175.7220  135.8850 C   0  0  0  0  0  3  0  0  0  0  0  0
  181.3590  179.0210  142.0050 C   0  0  1  0  0  3  0  0  0  0  0  0
  180.2570  179.8490  142.2320 O   0  0  0  0  0  1  0  0  0  0  0  0
  184.3420  177.0420  135.9590 C   0  0  2  0  0  3  0  0  0  0  0  0
  187.0030  178.0380  138.3920 C   0  0  1  0  0  3  0  0  0  0  0  0
  186.4110  178.1390  136.9960 C   0  0  1  0  0  3  0  0  0  0  0  0
  187.0880  176.8610  137.4470 C   0  0  0  0  0  2  0  0  0  0  0  0
  188.2270  178.7040  138.4160 O   0  0  0  0  0  0  0  0  0  0  0  0
  188.8360  178.2820  139.5980 C   0  0  0  0  0  2  0  0  0  0  0  0
  187.8570  178.4130  140.7450 C   0  0  0  0  0  1  0  0  0  0  0  0
  1  5  1  1  0  0  0
  1 16  1  0  0  0  0
  2 15  1  0  0  0  0
  2 10  1  1  0  0  0
  3 14  1  0  0  0  0
  4  1  1  0  0  0  0
  6 21  2  0  0  0  0
  7  8  1  0  0  0  0
  7 19  1  0  0  0  0
  8 18  1  0  0  0  0
  9  4  1  0  0  0  0
 11  7  1  0  0  0  0
 12  6  1  0  0  0  0
 13  2  1  0  0  0  0
 14 22  1  0  0  0  0
 16 14  1  0  0  0  0
 16 13  1  0  0  0  0
 18  3  1  0  0  0  0
 19  4  1  0  0  0  0
 19 17  1  0  0  0  0
 20 12  1  0  0  0  0
 20 11  1  0  0  0  0
 21 24  1  0  0  0  0
 22 23  1  0  0  0  0
 22 15  1  0  0  0  0
 24 11  1  0  0  0  0
 24  9  1  0  0  0  0
 25 28  1  0  0  0  0
 26  9  1  0  0  0  0
 26 27  1  0  0  0  0
 26 25  1  0  0  0  0
 27 25  1  0  0  0  0
 28 29  1  0  0  0  0
 29 30  1  0  0  0  0
M  END
>  <MODEL>
7

>  <REMARK>
 VINA RESULT:      -4.8      4.601      9.115
  Name = 
  3 active torsions:
  status: ('A' for Active; 'I' for Inactive)
    1  A    between atoms: C_6  and  O_21
    2  A    between atoms: C_8  and  C_13
    3  A    between atoms: C_9  and  O_21
                            x       y       z     vdW  Elec       q    Type
                         _______ _______ _______ _____ _____    ______ ____

>  <TORSDO>
F 3

$$$$
=
 OpenBabel10272414003D

 30 34  0  0  1  0  0  0  0  0999 V2000
  193.5580  174.9140  137.2620 C   0  0  2  0  0  3  0  0  0  0  0  0
  196.6130  175.6470  135.1750 C   0  0  2  0  0  3  0  0  0  0  0  0
  194.1210  172.2890  136.2460 C   0  0  0  0  0  2  0  0  0  0  0  0
  192.3450  175.7000  136.7270 C   0  0  2  0  0  3  0  0  0  0  0  0
  194.0670  175.4740  138.4410 O   0  0  0  0  0  1  0  0  0  0  0  0
  188.3780  176.1560  135.4010 C   0  0  0  0  0  3  0  0  0  0  0  0
  191.0860  173.8090  135.4960 C   0  0  1  0  0  3  0  0  0  0  0  0
  191.9620  172.6470  135.9720 C   0  0  0  0  0  2  0  0  0  0  0  0
  191.2170  175.6890  137.7880 C   0  0  2  0  0  3  0  0  0  0  0  0
  197.5880  176.6380  135.2810 O   0  0  0  0  0  1  0  0  0  0  0  0
  189.8900  173.9320  136.4580 C   0  0  2  0  0  3  0  0  0  0  0  0
  188.2600  174.8010  134.7570 C   0  0  0  0  0  2  0  0  0  0  0  0
  195.6370  175.7700  136.3360 C   0  0  0  0  0  2  0  0  0  0  0  0
  195.1920  173.3910  136.3220 C   0  0  2  0  0  3  0  0  0  0  0  0
  197.2730  174.2780  135.2240 C   0  0  0  0  0  2  0  0  0  0  0  0
  194.5980  174.7380  136.2310 N   0  0  1  0  0  0  0  0  0  0  0  0
  192.7690  175.1710  134.3490 O   0  0  0  0  0  1  0  0  0  0  0  0
  193.1640  172.5670  135.2620 O   0  0  0  0  0  0  0  0  0  0  0  0
  191.8220  175.1550  135.3770 C   0  0  2  0  0  3  0  0  0  0  0  0
  188.5680  173.6710  135.7400 C   0  0  0  0  0  2  0  0  0  0  0  0
  189.1200  176.3740  136.4950 C   0  0  0  0  0  3  0  0  0  0  0  0
  196.2150  173.1820  135.1960 C   0  0  1  0  0  3  0  0  0  0  0  0
  196.8430  171.9430  135.3390 O   0  0  0  0  0  1  0  0  0  0  0  0
  189.8270  175.2630  137.2490 C   0  0  2  0  0  3  0  0  0  0  0  0
  190.4680  176.8160  139.8850 C   0  0  1  0  0  3  0  0  0  0  0  0
  191.1700  177.0120  138.5510 C   0  0  1  0  0  3  0  0  0  0  0  0
  191.9770  176.9090  139.8290 C   0  0  0  0  0  2  0  0  0  0  0  0
  189.9440  178.0370  140.3070 O   0  0  0  0  0  0  0  0  0  0  0  0
  189.0380  177.7030  141.3130 C   0  0  0  0  0  2  0  0  0  0  0  0
  187.7240  178.4120  141.0650 C   0  0  0  0  0  1  0  0  0  0  0  0
  1  5  1  1  0  0  0
  2 15  1  0  0  0  0
  2 10  1  1  0  0  0
  2 13  1  0  0  0  0
  3 14  1  0  0  0  0
  4  1  1  0  0  0  0
  4  9  1  0  0  0  0
  6 21  2  0  0  0  0
  7  8  1  0  0  0  0
  7 11  1  0  0  0  0
  9 26  1  0  0  0  0
 11 24  1  0  0  0  0
 12  6  1  0  0  0  0
 12 20  1  0  0  0  0
 16 14  1  0  0  0  0
 16 13  1  0  0  0  0
 16  1  1  0  0  0  0
 17 19  1  0  0  0  0
 18  8  1  0  0  0  0
 18  3  1  0  0  0  0
 19  7  1  0  0  0  0
 19  4  1  0  0  0  0
 20 11  1  0  0  0  0
 21 24  1  0  0  0  0
 22 15  1  0  0  0  0
 22 23  1  0  0  0  0
 22 14  1  0  0  0  0
 24  9  1  0  0  0  0
 25 28  1  0  0  0  0
 26 27  1  0  0  0  0
 26 25  1  0  0  0  0
 27 25  1  0  0  0  0
 28 29  1  0  0  0  0
 30 29  1  0  0  0  0
M  END
>  <MODEL>
8

>  <REMARK>
 VINA RESULT:      -4.5      3.714      7.733
  Name = 
  3 active torsions:
  status: ('A' for Active; 'I' for Inactive)
    1  A    between atoms: C_6  and  O_21
    2  A    between atoms: C_8  and  C_13
    3  A    between atoms: C_9  and  O_21
                            x       y       z     vdW  Elec       q    Type
                         _______ _______ _______ _____ _____    ______ ____

>  <TORSDO>
F 3

$$$$
=
 OpenBabel10272414003D

 30 34  0  0  1  0  0  0  0  0999 V2000
  183.7750  176.5350  137.5020 C   0  0  2  0  0  3  0  0  0  0  0  0
  182.2250  178.2830  140.4630 C   0  0  2  0  0  3  0  0  0  0  0  0
  181.5720  177.8530  136.2170 C   0  0  0  0  0  2  0  0  0  0  0  0
  183.7420  175.0070  137.7060 C   0  0  2  0  0  3  0  0  0  0  0  0
  185.0580  177.0620  137.6950 O   0  0  0  0  0  1  0  0  0  0  0  0
  182.9510  171.0260  136.5960 C   0  0  0  0  0  3  0  0  0  0  0  0
  181.7780  174.3840  136.1460 C   0  0  1  0  0  3  0  0  0  0  0  0
  181.5850  175.7630  135.5120 C   0  0  0  0  0  2  0  0  0  0  0  0
  184.6950  174.3310  136.6890 C   0  0  2  0  0  3  0  0  0  0  0  0
  182.7750  178.7320  141.6610 O   0  0  0  0  0  1  0  0  0  0  0  0
  182.7140  173.5660  135.2380 C   0  0  2  0  0  3  0  0  0  0  0  0
  181.7250  171.3220  135.7760 C   0  0  0  0  0  2  0  0  0  0  0  0
  183.3260  177.7090  139.5820 C   0  0  0  0  0  2  0  0  0  0  0  0
  182.1490  178.3300  137.5610 C   0  0  2  0  0  3  0  0  0  0  0  0
  181.5660  179.4460  139.7380 C   0  0  0  0  0  2  0  0  0  0  0  0
  182.7580  177.2210  138.3190 N   0  0  1  0  0  0  0  0  0  0  0  0
  181.4020  174.9410  138.5020 O   0  0  0  0  0  1  0  0  0  0  0  0
  180.8880  176.6380  136.3510 O   0  0  0  0  0  0  0  0  0  0  0  0
  182.3180  174.4150  137.5870 C   0  0  2  0  0  3  0  0  0  0  0  0
  182.0060  172.3370  134.6700 C   0  0  0  0  0  2  0  0  0  0  0  0
  183.9840  171.8760  136.6840 C   0  0  0  0  0  3  0  0  0  0  0  0
  181.0330  178.9910  138.3850 C   0  0  1  0  0  3  0  0  0  0  0  0
  180.5220  180.0970  137.7040 O   0  0  0  0  0  1  0  0  0  0  0  0
  184.0630  173.1650  135.8870 C   0  0  2  0  0  3  0  0  0  0  0  0
  187.0580  173.6360  136.2900 C   0  0  1  0  0  3  0  0  0  0  0  0
  186.0150  173.9400  137.3520 C   0  0  1  0  0  3  0  0  0  0  0  0
  187.0880  174.9580  137.0230 C   0  0  0  0  0  2  0  0  0  0  0  0
  188.0210  172.7840  136.8290 O   0  0  0  0  0  0  0  0  0  0  0  0
  188.4620  172.0210  135.7480 C   0  0  0  0  0  2  0  0  0  0  0  0
  187.4320  170.9610  135.4240 C   0  0  0  0  0  1  0  0  0  0  0  0
  1  5  1  1  0  0  0
  1  4  1  0  0  0  0
  1 16  1  0  0  0  0
  2 10  1  1  0  0  0
  3 18  1  0  0  0  0
  3 14  1  0  0  0  0
  6 21  2  0  0  0  0
  7 19  1  0  0  0  0
  8  7  1  0  0  0  0
  8 18  1  0  0  0  0
  9 26  1  0  0  0  0
  9  4  1  0  0  0  0
 11 24  1  0  0  0  0
 11  7  1  0  0  0  0
 12  6  1  0  0  0  0
 13  2  1  0  0  0  0
 14 16  1  0  0  0  0
 14 22  1  0  0  0  0
 15  2  1  0  0  0  0
 16 13  1  0  0  0  0
 19  4  1  0  0  0  0
 19 17  1  0  0  0  0
 20 11  1  0  0  0  0
 20 12  1  0  0  0  0
 22 15  1  0  0  0  0
 23 22  1  0  0  0  0
 24 21  1  0  0  0  0
 24  9  1  0  0  0  0
 25 28  1  0  0  0  0
 25 27  1  0  0  0  0
 25 26  1  0  0  0  0
 27 26  1  0  0  0  0
 29 28  1  0  0  0  0
 30 29  1  0  0  0  0
M  END
>  <MODEL>
9

>  <REMARK>
 VINA RESULT:      -4.4      6.307     10.384
  Name = 
  3 active torsions:
  status: ('A' for Active; 'I' for Inactive)
    1  A    between atoms: C_6  and  O_21
    2  A    between atoms: C_8  and  C_13
    3  A    between atoms: C_9  and  O_21
                            x       y       z     vdW  Elec       q    Type
                         _______ _______ _______ _____ _____    ______ ____

>  <TORSDO>
F 3

$$$$
