=
 OpenBabel10272413423D

 30 34  0  0  1  0  0  0  0  0999 V2000
  192.4650  176.6490  138.9320 C   0  0  0  0  0  0  0  0  0  0  0  0
  194.3380  175.1580  138.1790 C   0  0  0  0  0  0  0  0  0  0  0  0
  191.2360  176.6120  138.4150 C   0  0  0  0  0  0  0  0  0  0  0  0
  192.7760  177.1030  140.3350 C   0  0  0  0  0  3  0  0  0  0  0  0
  188.9460  178.0380  141.5710 S   0  0  0  0  0  0  0  0  0  0  0  0
  188.6400  178.7530  137.7910 C   0  0  0  0  0  3  0  0  0  0  0  0
  190.2150  177.4300  140.4700 C   0  0  0  0  0  0  0  0  0  0  0  0
  191.5010  177.6430  142.3950 C   0  0  0  0  0  2  0  0  0  0  0  0
  189.4200  176.6200  135.6570 N   0  0  0  0  0  2  0  0  0  0  0  0
  191.5160  177.3460  141.1110 C   0  0  0  0  0  0  0  0  0  0  0  0
  190.0470  177.1230  139.1720 C   0  0  0  0  0  0  0  0  0  0  0  0
  194.5700  174.2070  137.2460 C   0  0  0  0  0  3  0  0  0  0  0  0
  188.1480  176.6390  135.8060 C   0  0  0  0  0  2  0  0  0  0  0  0
  188.0320  178.9630  136.6050 C   0  0  0  0  0  3  0  0  0  0  0  0
  189.7320  176.8280  143.9020 C   0  0  0  0  0  1  0  0  0  0  0  0
  195.0180  175.0940  139.3540 F   0  0  0  0  0  0  0  0  0  0  0  0
  192.5690  175.5160  134.3470 F   0  0  0  0  0  0  0  0  0  0  0  0
  193.8770  174.1730  135.8950 C   0  0  0  0  0  2  0  0  0  0  0  0
  190.1440  177.9390  142.9580 C   0  0  2  0  0  3  0  0  0  0  0  0
  193.4920  176.3830  137.8840 C   0  0  1  0  0  3  0  0  0  0  0  0
  191.3330  176.1170  137.0310 C   0  0  0  0  0  0  0  0  0  0  0  0
  190.1600  175.5500  136.2610 C   0  0  2  0  0  3  0  0  0  0  0  0
  187.4110  177.9250  135.6950 C   0  0  0  0  0  2  0  0  0  0  0  0
  187.7910  176.6830  138.6140 O   0  0  0  0  0  0  0  0  0  0  0  0
  193.3270  175.5430  135.5020 C   0  0  2  0  0  3  0  0  0  0  0  0
  192.6320  176.1300  136.6900 C   0  0  0  0  0  0  0  0  0  0  0  0
  188.7750  177.4610  138.5050 C   0  0  0  0  0  0  0  0  0  0  0  0
  189.2840  174.1380  134.3470 C   0  0  0  0  0  1  0  0  0  0  0  0
  190.3950  174.3260  135.3650 C   0  0  0  0  0  3  0  0  0  0  0  0
  190.4680  173.0740  136.2210 C   0  0  0  0  0  1  0  0  0  0  0  0
  1  4  1  0  0  0  0
  2 16  1  0  0  0  0
  3  1  2  0  0  0  0
  3 11  1  0  0  0  0
  4 10  2  0  0  0  0
  5 19  1  0  0  0  0
  6 27  1  0  0  0  0
  7 10  1  0  0  0  0
  7  5  1  0  0  0  0
  8 19  1  0  0  0  0
  9 13  1  0  0  0  0
  9 22  1  0  0  0  0
 10  8  1  0  0  0  0
 11  7  2  0  0  0  0
 12  2  2  0  0  0  0
 14  6  2  0  0  0  0
 18 12  1  0  0  0  0
 19 15  1  1  0  0  0
 20 26  1  6  0  0  0
 20  2  1  0  0  0  0
 20  1  1  0  0  0  0
 21  3  1  0  0  0  0
 22 29  1  6  0  0  0
 22 21  1  0  0  0  0
 23 13  1  0  0  0  0
 23 14  1  0  0  0  0
 25 17  1  6  0  0  0
 25 18  1  0  0  0  0
 25 26  1  0  0  0  0
 26 21  2  0  0  0  0
 27 24  2  0  0  0  0
 27 11  1  0  0  0  0
 28 29  1  0  0  0  0
 29 30  1  0  0  0  0
M  END
>  <MODEL>
1

>  <REMARK>
 VINA RESULT:      -6.9      0.000      0.000
  Name = 
  1 active torsions:
  status: ('A' for Active; 'I' for Inactive)
    1  A    between atoms: C_11  and  C_25
                            x       y       z     vdW  Elec       q    Type
                         _______ _______ _______ _____ _____    ______ ____

>  <TORSDO>
F 1

$$$$
=
 OpenBabel10272413423D

 30 34  0  0  1  0  0  0  0  0999 V2000
  185.6420  178.5050  139.8410 C   0  0  0  0  0  0  0  0  0  0  0  0
  187.7220  177.5340  138.8230 C   0  0  0  0  0  0  0  0  0  0  0  0
  184.4110  178.0780  139.5570 C   0  0  0  0  0  0  0  0  0  0  0  0
  186.0300  179.1540  141.1440 C   0  0  0  0  0  3  0  0  0  0  0  0
  182.3470  179.0900  143.0140 S   0  0  0  0  0  0  0  0  0  0  0  0
  181.2380  179.3410  139.3260 C   0  0  0  0  0  3  0  0  0  0  0  0
  183.5420  178.7630  141.7280 C   0  0  0  0  0  0  0  0  0  0  0  0
  185.0040  179.5020  143.3770 C   0  0  0  0  0  2  0  0  0  0  0  0
  182.2500  177.3250  137.1760 N   0  0  0  0  0  2  0  0  0  0  0  0
  184.8960  179.1060  142.1250 C   0  0  0  0  0  0  0  0  0  0  0  0
  183.2630  178.3030  140.4950 C   0  0  0  0  0  0  0  0  0  0  0  0
  188.0660  176.6050  137.9040 C   0  0  0  0  0  3  0  0  0  0  0  0
  181.0700  177.0010  137.5520 C   0  0  0  0  0  2  0  0  0  0  0  0
  180.4130  179.2640  138.2620 C   0  0  0  0  0  3  0  0  0  0  0  0
  183.8170  178.3670  145.2120 C   0  0  0  0  0  1  0  0  0  0  0  0
  188.5710  177.7710  139.8570 F   0  0  0  0  0  0  0  0  0  0  0  0
  185.3300  177.0300  135.3640 F   0  0  0  0  0  0  0  0  0  0  0  0
  187.2050  176.2550  136.7020 C   0  0  0  0  0  2  0  0  0  0  0  0
  183.7290  179.4580  144.1640 C   0  0  2  0  0  3  0  0  0  0  0  0
  186.5190  178.4420  138.6360 C   0  0  1  0  0  3  0  0  0  0  0  0
  184.4230  177.5060  138.2000 C   0  0  0  0  0  0  0  0  0  0  0  0
  183.3580  176.5650  137.6800 C   0  0  2  0  0  3  0  0  0  0  0  0
  179.9820  178.0140  137.5230 C   0  0  0  0  0  2  0  0  0  0  0  0
  181.1740  177.2010  140.3740 O   0  0  0  0  0  0  0  0  0  0  0  0
  186.2230  177.3750  136.3600 C   0  0  2  0  0  3  0  0  0  0  0  0
  185.5890  177.8500  137.6290 C   0  0  0  0  0  0  0  0  0  0  0  0
  181.8580  178.2100  140.0560 C   0  0  0  0  0  0  0  0  0  0  0  0
  182.7040  174.9520  135.8360 C   0  0  0  0  0  1  0  0  0  0  0  0
  183.7910  175.3780  136.8070 C   0  0  0  0  0  3  0  0  0  0  0  0
  184.1270  174.1910  137.6910 C   0  0  0  0  0  1  0  0  0  0  0  0
  1  4  1  0  0  0  0
  2 16  1  0  0  0  0
  3  1  2  0  0  0  0
  3 11  1  0  0  0  0
  4 10  2  0  0  0  0
  5 19  1  0  0  0  0
  6 27  1  0  0  0  0
  7 10  1  0  0  0  0
  7  5  1  0  0  0  0
  8 19  1  0  0  0  0
  9 13  1  0  0  0  0
  9 22  1  0  0  0  0
 10  8  1  0  0  0  0
 11  7  2  0  0  0  0
 12  2  2  0  0  0  0
 14  6  2  0  0  0  0
 18 12  1  0  0  0  0
 19 15  1  1  0  0  0
 20 26  1  6  0  0  0
 20  2  1  0  0  0  0
 20  1  1  0  0  0  0
 21  3  1  0  0  0  0
 22 29  1  6  0  0  0
 22 21  1  0  0  0  0
 23 13  1  0  0  0  0
 23 14  1  0  0  0  0
 25 17  1  6  0  0  0
 25 18  1  0  0  0  0
 25 26  1  0  0  0  0
 26 21  2  0  0  0  0
 27 24  2  0  0  0  0
 27 11  1  0  0  0  0
 28 29  1  0  0  0  0
 29 30  1  0  0  0  0
M  END
>  <MODEL>
2

>  <REMARK>
 VINA RESULT:      -6.4      5.528      7.087
  Name = 
  1 active torsions:
  status: ('A' for Active; 'I' for Inactive)
    1  A    between atoms: C_11  and  C_25
                            x       y       z     vdW  Elec       q    Type
                         _______ _______ _______ _____ _____    ______ ____

>  <TORSDO>
F 1

$$$$
=
 OpenBabel10272413423D

 30 34  0  0  1  0  0  0  0  0999 V2000
  186.8530  178.4110  140.5940 C   0  0  0  0  0  0  0  0  0  0  0  0
  184.3730  178.6380  140.9090 C   0  0  0  0  0  0  0  0  0  0  0  0
  187.6860  178.0050  141.5530 C   0  0  0  0  0  0  0  0  0  0  0  0
  187.1130  178.2340  139.1200 C   0  0  0  0  0  3  0  0  0  0  0  0
  190.8010  176.3860  139.3360 S   0  0  0  0  0  0  0  0  0  0  0  0
  190.9200  178.5300  142.5430 C   0  0  0  0  0  3  0  0  0  0  0  0
  189.2880  177.1100  139.9490 C   0  0  0  0  0  0  0  0  0  0  0  0
  188.7320  177.0060  137.6950 C   0  0  0  0  0  2  0  0  0  0  0  0
  188.6600  178.3920  144.6840 N   0  0  0  0  0  2  0  0  0  0  0  0
  188.3420  177.4050  138.8880 C   0  0  0  0  0  0  0  0  0  0  0  0
  189.0270  177.4150  141.2330 C   0  0  0  0  0  0  0  0  0  0  0  0
  183.4570  178.5090  141.8950 C   0  0  0  0  0  3  0  0  0  0  0  0
  189.6610  177.6910  145.0660 C   0  0  0  0  0  2  0  0  0  0  0  0
  191.3370  178.9340  143.7610 C   0  0  0  0  0  3  0  0  0  0  0  0
  189.7890  174.8120  137.3340 C   0  0  0  0  0  1  0  0  0  0  0  0
  183.9920  178.3810  139.6300 F   0  0  0  0  0  0  0  0  0  0  0  0
  185.3710  179.8070  144.8560 F   0  0  0  0  0  0  0  0  0  0  0  0
  183.7590  178.7710  143.3600 C   0  0  0  0  0  2  0  0  0  0  0  0
  190.0360  176.2680  137.6730 C   0  0  2  0  0  3  0  0  0  0  0  0
  185.7460  179.2330  141.1620 C   0  0  1  0  0  3  0  0  0  0  0  0
  187.0930  178.3500  142.8550 C   0  0  0  0  0  0  0  0  0  0  0  0
  187.5120  177.7100  144.1610 C   0  0  2  0  0  3  0  0  0  0  0  0
  191.0180  178.2990  145.0980 C   0  0  0  0  0  2  0  0  0  0  0  0
  190.3820  176.2180  142.7580 O   0  0  0  0  0  0  0  0  0  0  0  0
  184.9840  179.6670  143.5370 C   0  0  2  0  0  3  0  0  0  0  0  0
  186.0620  179.1780  142.6210 C   0  0  0  0  0  0  0  0  0  0  0  0
  190.1080  177.3300  142.2330 C   0  0  0  0  0  0  0  0  0  0  0  0
  186.6190  178.1130  146.4990 C   0  0  0  0  0  1  0  0  0  0  0  0
  186.4260  177.3670  145.1910 C   0  0  0  0  0  3  0  0  0  0  0  0
  186.4540  175.8790  145.4870 C   0  0  0  0  0  1  0  0  0  0  0  0
  1  3  1  0  0  0  0
  2 20  1  0  0  0  0
  2 12  2  0  0  0  0
  3 21  1  0  0  0  0
  4  1  2  0  0  0  0
  5  7  1  0  0  0  0
  6 14  2  0  0  0  0
  7 11  1  0  0  0  0
  8 10  1  0  0  0  0
  9 13  1  0  0  0  0
 10  4  1  0  0  0  0
 10  7  2  0  0  0  0
 11  3  2  0  0  0  0
 11 27  1  0  0  0  0
 12 18  1  0  0  0  0
 13 23  1  0  0  0  0
 14 23  1  0  0  0  0
 16  2  1  0  0  0  0
 18 25  1  0  0  0  0
 19 15  1  1  0  0  0
 19  8  1  0  0  0  0
 19  5  1  0  0  0  0
 20  1  1  6  0  0  0
 20 26  1  0  0  0  0
 21 22  1  0  0  0  0
 22  9  1  0  0  0  0
 22 29  1  1  0  0  0
 25 17  1  1  0  0  0
 26 21  2  0  0  0  0
 26 25  1  0  0  0  0
 27  6  1  0  0  0  0
 27 24  2  0  0  0  0
 29 30  1  0  0  0  0
 29 28  1  0  0  0  0
M  END
>  <MODEL>
3

>  <REMARK>
 VINA RESULT:      -6.2      4.663      8.696
  Name = 
  1 active torsions:
  status: ('A' for Active; 'I' for Inactive)
    1  A    between atoms: C_11  and  C_25
                            x       y       z     vdW  Elec       q    Type
                         _______ _______ _______ _____ _____    ______ ____

>  <TORSDO>
F 1

$$$$
=
 OpenBabel10272413423D

 30 34  0  0  1  0  0  0  0  0999 V2000
  187.9130  178.2340  138.7790 C   0  0  0  0  0  0  0  0  0  0  0  0
  189.4930  177.3020  137.0650 C   0  0  0  0  0  0  0  0  0  0  0  0
  186.5940  178.0370  138.7540 C   0  0  0  0  0  0  0  0  0  0  0  0
  188.7030  178.4980  140.0350 C   0  0  0  0  0  3  0  0  0  0  0  0
  185.6070  178.4150  142.7690 S   0  0  0  0  0  0  0  0  0  0  0  0
  183.7280  179.6820  139.6450 C   0  0  0  0  0  3  0  0  0  0  0  0
  186.3920  178.2720  141.1710 C   0  0  0  0  0  0  0  0  0  0  0  0
  188.3050  178.4120  142.4830 C   0  0  0  0  0  2  0  0  0  0  0  0
  183.8390  178.1430  136.9380 N   0  0  0  0  0  2  0  0  0  0  0  0
  187.8400  178.3460  141.2520 C   0  0  0  0  0  0  0  0  0  0  0  0
  185.7560  178.1610  139.9910 C   0  0  0  0  0  0  0  0  0  0  0  0
  189.4430  176.5900  135.9170 C   0  0  0  0  0  3  0  0  0  0  0  0
  182.7410  177.8780  137.5420 C   0  0  0  0  0  2  0  0  0  0  0  0
  182.6760  179.9620  138.8490 C   0  0  0  0  0  3  0  0  0  0  0  0
  187.4010  177.0130  144.2970 C   0  0  0  0  0  1  0  0  0  0  0  0
  190.5880  177.1800  137.8600 F   0  0  0  0  0  0  0  0  0  0  0  0
  186.3070  177.9370  134.3460 F   0  0  0  0  0  0  0  0  0  0  0  0
  188.2770  176.6450  134.9450 C   0  0  0  0  0  2  0  0  0  0  0  0
  187.2620  178.3280  143.5560 C   0  0  2  0  0  3  0  0  0  0  0  0
  188.4580  178.3630  137.3970 C   0  0  1  0  0  3  0  0  0  0  0  0
  186.1880  177.8130  137.3570 C   0  0  0  0  0  0  0  0  0  0  0  0
  184.8820  177.1590  136.9600 C   0  0  2  0  0  3  0  0  0  0  0  0
  181.8720  178.9890  138.0130 C   0  0  0  0  0  2  0  0  0  0  0  0
  183.5360  177.3740  140.2120 O   0  0  0  0  0  0  0  0  0  0  0  0
  187.4550  177.9220  135.1150 C   0  0  2  0  0  3  0  0  0  0  0  0
  187.2290  178.1470  136.5760 C   0  0  0  0  0  0  0  0  0  0  0  0
  184.2930  178.3420  139.9350 C   0  0  0  0  0  0  0  0  0  0  0  0
  183.5370  176.1170  135.0800 C   0  0  0  0  0  1  0  0  0  0  0  0
  184.8840  176.1760  135.7800 C   0  0  0  0  0  3  0  0  0  0  0  0
  185.2210  174.7830  136.2760 C   0  0  0  0  0  1  0  0  0  0  0  0
  1  4  1  0  0  0  0
  2 20  1  0  0  0  0
  2 16  1  0  0  0  0
  3  1  2  0  0  0  0
  3 11  1  0  0  0  0
  4 10  2  0  0  0  0
  5 19  1  0  0  0  0
  6 27  1  0  0  0  0
  7 10  1  0  0  0  0
  7  5  1  0  0  0  0
  8 19  1  0  0  0  0
  9 22  1  0  0  0  0
  9 13  1  0  0  0  0
 10  8  1  0  0  0  0
 11  7  2  0  0  0  0
 12  2  2  0  0  0  0
 13 23  1  0  0  0  0
 14  6  2  0  0  0  0
 18 25  1  0  0  0  0
 18 12  1  0  0  0  0
 19 15  1  6  0  0  0
 20 26  1  6  0  0  0
 20  1  1  0  0  0  0
 21  3  1  0  0  0  0
 22 29  1  6  0  0  0
 22 21  1  0  0  0  0
 23 14  1  0  0  0  0
 25 17  1  6  0  0  0
 25 26  1  0  0  0  0
 26 21  2  0  0  0  0
 27 11  1  0  0  0  0
 27 24  2  0  0  0  0
 28 29  1  0  0  0  0
 29 30  1  0  0  0  0
M  END
>  <MODEL>
4

>  <REMARK>
 VINA RESULT:      -5.9      3.658      5.181
  Name = 
  1 active torsions:
  status: ('A' for Active; 'I' for Inactive)
    1  A    between atoms: C_11  and  C_25
                            x       y       z     vdW  Elec       q    Type
                         _______ _______ _______ _____ _____    ______ ____

>  <TORSDO>
F 1

$$$$
=
 OpenBabel10272413423D

 30 34  0  0  1  0  0  0  0  0999 V2000
  188.0890  177.3770  141.9690 C   0  0  0  0  0  0  0  0  0  0  0  0
  189.3030  177.5050  144.1620 C   0  0  0  0  0  0  0  0  0  0  0  0
  186.8840  177.9080  141.7580 C   0  0  0  0  0  0  0  0  0  0  0  0
  189.1170  177.1620  140.8880 C   0  0  0  0  0  3  0  0  0  0  0  0
  186.9660  178.5920  137.6640 S   0  0  0  0  0  0  0  0  0  0  0  0
  184.0890  177.2880  139.8820 C   0  0  0  0  0  3  0  0  0  0  0  0
  187.3000  178.2090  139.3770 C   0  0  0  0  0  0  0  0  0  0  0  0
  189.4240  177.8230  138.5160 C   0  0  0  0  0  2  0  0  0  0  0  0
  183.7800  178.1870  142.8500 N   0  0  0  0  0  2  0  0  0  0  0  0
  188.6670  177.7700  139.5930 C   0  0  0  0  0  0  0  0  0  0  0  0
  186.4050  178.2530  140.3800 C   0  0  0  0  0  0  0  0  0  0  0  0
  189.0940  177.9690  145.4150 C   0  0  0  0  0  3  0  0  0  0  0  0
  182.9670  178.8450  142.1120 C   0  0  0  0  0  2  0  0  0  0  0  0
  182.8260  177.1480  140.3350 C   0  0  0  0  0  3  0  0  0  0  0  0
  189.3570  179.7370  136.9670 C   0  0  0  0  0  1  0  0  0  0  0  0
  190.5730  177.4850  143.6800 F   0  0  0  0  0  0  0  0  0  0  0  0
  185.4410  177.2230  145.8780 F   0  0  0  0  0  0  0  0  0  0  0  0
  187.7230  178.0370  146.0660 C   0  0  0  0  0  2  0  0  0  0  0  0
  188.7520  178.3880  137.3010 C   0  0  2  0  0  3  0  0  0  0  0  0
  188.2000  176.8420  143.3570 C   0  0  1  0  0  3  0  0  0  0  0  0
  186.1700  177.9560  143.0450 C   0  0  0  0  0  0  0  0  0  0  0  0
  184.9710  178.8440  143.3050 C   0  0  2  0  0  3  0  0  0  0  0  0
  182.0470  178.1190  141.1970 C   0  0  0  0  0  2  0  0  0  0  0  0
  184.5430  179.6280  139.8930 O   0  0  0  0  0  0  0  0  0  0  0  0
  186.7300  177.0820  145.4050 C   0  0  2  0  0  3  0  0  0  0  0  0
  186.8680  177.2130  143.9210 C   0  0  0  0  0  0  0  0  0  0  0  0
  184.9770  178.4600  140.0710 C   0  0  0  0  0  0  0  0  0  0  0  0
  183.5860  179.1600  145.4040 C   0  0  0  0  0  1  0  0  0  0  0  0
  184.8580  179.5420  144.6670 C   0  0  0  0  0  3  0  0  0  0  0  0
  184.8570  181.0470  144.4710 C   0  0  0  0  0  1  0  0  0  0  0  0
  2 12  2  0  0  0  0
  3  1  1  0  0  0  0
  3 21  1  0  0  0  0
  4  1  2  0  0  0  0
  5  7  1  0  0  0  0
  6 27  1  0  0  0  0
  6 14  2  0  0  0  0
  7 10  2  0  0  0  0
  7 11  1  0  0  0  0
  8 10  1  0  0  0  0
  9 22  1  0  0  0  0
 10  4  1  0  0  0  0
 11  3  2  0  0  0  0
 12 18  1  0  0  0  0
 13  9  1  0  0  0  0
 14 23  1  0  0  0  0
 16  2  1  0  0  0  0
 19 15  1  1  0  0  0
 19  5  1  0  0  0  0
 19  8  1  0  0  0  0
 20  1  1  6  0  0  0
 20 26  1  0  0  0  0
 20  2  1  0  0  0  0
 21 22  1  0  0  0  0
 21 26  2  0  0  0  0
 22 29  1  1  0  0  0
 23 13  1  0  0  0  0
 24 27  2  0  0  0  0
 25 17  1  6  0  0  0
 25 18  1  0  0  0  0
 26 25  1  0  0  0  0
 27 11  1  0  0  0  0
 29 28  1  0  0  0  0
 30 29  1  0  0  0  0
M  END
>  <MODEL>
5

>  <REMARK>
 VINA RESULT:      -5.8      4.914      8.291
  Name = 
  1 active torsions:
  status: ('A' for Active; 'I' for Inactive)
    1  A    between atoms: C_11  and  C_25
                            x       y       z     vdW  Elec       q    Type
                         _______ _______ _______ _____ _____    ______ ____

>  <TORSDO>
F 1

$$$$
=
 OpenBabel10272413423D

 30 34  0  0  1  0  0  0  0  0999 V2000
  184.8900  177.7870  138.2170 C   0  0  0  0  0  0  0  0  0  0  0  0
  183.2470  179.5900  138.8090 C   0  0  0  0  0  0  0  0  0  0  0  0
  184.5640  176.6800  137.5480 C   0  0  0  0  0  0  0  0  0  0  0  0
  186.2640  178.4040  138.2070 C   0  0  0  0  0  3  0  0  0  0  0  0
  188.1750  175.6810  135.7570 S   0  0  0  0  0  0  0  0  0  0  0  0
  185.5210  173.3980  137.3820 C   0  0  0  0  0  3  0  0  0  0  0  0
  186.8080  176.4290  136.6310 C   0  0  0  0  0  0  0  0  0  0  0  0
  188.3780  178.1150  136.9380 C   0  0  0  0  0  2  0  0  0  0  0  0
  182.4900  174.1210  137.3250 N   0  0  0  0  0  2  0  0  0  0  0  0
  187.1590  177.7070  137.2260 C   0  0  0  0  0  0  0  0  0  0  0  0
  185.5880  175.8860  136.7920 C   0  0  0  0  0  0  0  0  0  0  0  0
  181.9220  179.8350  138.6980 C   0  0  0  0  0  3  0  0  0  0  0  0
  182.7440  173.2510  136.4200 C   0  0  0  0  0  2  0  0  0  0  0  0
  184.7290  172.3160  137.5350 C   0  0  0  0  0  3  0  0  0  0  0  0
  189.3170  177.9230  134.6700 C   0  0  0  0  0  1  0  0  0  0  0  0
  184.1060  180.6430  138.8010 F   0  0  0  0  0  0  0  0  0  0  0  0
  180.4890  176.4040  139.2320 F   0  0  0  0  0  0  0  0  0  0  0  0
  180.8640  178.7450  138.6980 C   0  0  0  0  0  2  0  0  0  0  0  0
  189.1370  177.2240  136.0020 C   0  0  2  0  0  3  0  0  0  0  0  0
  183.7830  178.2050  139.1250 C   0  0  1  0  0  3  0  0  0  0  0  0
  183.1430  176.3900  137.8010 C   0  0  0  0  0  0  0  0  0  0  0  0
  182.3050  175.4850  136.9240 C   0  0  2  0  0  3  0  0  0  0  0  0
  183.4550  171.9960  136.7820 C   0  0  0  0  0  2  0  0  0  0  0  0
  185.1000  174.2220  135.1840 O   0  0  0  0  0  0  0  0  0  0  0  0
  181.3750  177.4570  139.3430 C   0  0  2  0  0  3  0  0  0  0  0  0
  182.7460  177.1770  138.8150 C   0  0  0  0  0  0  0  0  0  0  0  0
  185.3570  174.4860  136.3890 C   0  0  0  0  0  0  0  0  0  0  0  0
  180.0020  174.7100  136.2000 C   0  0  0  0  0  1  0  0  0  0  0  0
  180.8540  175.8920  136.6270 C   0  0  0  0  0  3  0  0  0  0  0  0
  180.8310  176.9190  135.5100 C   0  0  0  0  0  1  0  0  0  0  0  0
  2 20  1  0  0  0  0
  3 21  1  0  0  0  0
  3  1  2  0  0  0  0
  4  1  1  0  0  0  0
  5 19  1  0  0  0  0
  5  7  1  0  0  0  0
  6 14  2  0  0  0  0
  7 11  2  0  0  0  0
  7 10  1  0  0  0  0
  8 10  1  0  0  0  0
 10  4  2  0  0  0  0
 11  3  1  0  0  0  0
 12  2  2  0  0  0  0
 13 23  1  0  0  0  0
 13  9  1  0  0  0  0
 16  2  1  0  0  0  0
 18 12  1  0  0  0  0
 18 25  1  0  0  0  0
 19 15  1  6  0  0  0
 19  8  1  0  0  0  0
 20  1  1  6  0  0  0
 21 26  2  0  0  0  0
 22 29  1  1  0  0  0
 22  9  1  0  0  0  0
 22 21  1  0  0  0  0
 23 14  1  0  0  0  0
 24 27  2  0  0  0  0
 25 17  1  6  0  0  0
 26 20  1  0  0  0  0
 26 25  1  0  0  0  0
 27 11  1  0  0  0  0
 27  6  1  0  0  0  0
 28 29  1  0  0  0  0
 30 29  1  0  0  0  0
M  END
>  <MODEL>
6

>  <REMARK>
 VINA RESULT:      -5.4      5.944      8.935
  Name = 
  1 active torsions:
  status: ('A' for Active; 'I' for Inactive)
    1  A    between atoms: C_11  and  C_25
                            x       y       z     vdW  Elec       q    Type
                         _______ _______ _______ _____ _____    ______ ____

>  <TORSDO>
F 1

$$$$
=
 OpenBabel10272413423D

 30 34  0  0  1  0  0  0  0  0999 V2000
  182.8910  176.4500  136.6830 C   0  0  0  0  0  0  0  0  0  0  0  0
  180.8630  177.2910  137.9010 C   0  0  0  0  0  0  0  0  0  0  0  0
  184.1400  176.6150  137.1240 C   0  0  0  0  0  0  0  0  0  0  0  0
  182.4540  175.3160  135.7930 C   0  0  0  0  0  3  0  0  0  0  0  0
  186.0860  173.3940  135.3680 S   0  0  0  0  0  0  0  0  0  0  0  0
  187.2860  177.0320  135.8440 C   0  0  0  0  0  3  0  0  0  0  0  0
  184.9340  174.6120  135.9850 C   0  0  0  0  0  0  0  0  0  0  0  0
  183.4120  173.1800  134.9670 C   0  0  0  0  0  2  0  0  0  0  0  0
  186.3800  178.7440  138.2850 N   0  0  0  0  0  2  0  0  0  0  0  0
  183.5620  174.3220  135.6080 C   0  0  0  0  0  0  0  0  0  0  0  0
  185.2560  175.7180  136.6790 C   0  0  0  0  0  0  0  0  0  0  0  0
  180.5660  178.0080  139.0080 C   0  0  0  0  0  3  0  0  0  0  0  0
  187.5570  178.2850  138.4910 C   0  0  0  0  0  2  0  0  0  0  0  0
  188.1420  178.0400  136.1140 C   0  0  0  0  0  3  0  0  0  0  0  0
  184.5760  171.1270  135.6690 C   0  0  0  0  0  1  0  0  0  0  0  0
  179.9820  176.3460  137.4820 F   0  0  0  0  0  0  0  0  0  0  0  0
  183.3580  180.5220  139.0310 F   0  0  0  0  0  0  0  0  0  0  0  0
  181.4670  179.0930  139.5710 C   0  0  0  0  0  2  0  0  0  0  0  0
  184.6660  172.3740  134.8130 C   0  0  2  0  0  3  0  0  0  0  0  0
  182.0490  177.6350  137.0160 C   0  0  1  0  0  3  0  0  0  0  0  0
  184.1770  177.8250  137.9610 C   0  0  0  0  0  0  0  0  0  0  0  0
  185.2780  178.1190  138.9570 C   0  0  2  0  0  3  0  0  0  0  0  0
  188.6220  178.4970  137.4750 C   0  0  0  0  0  2  0  0  0  0  0  0
  187.3740  175.5660  137.7220 O   0  0  0  0  0  0  0  0  0  0  0  0
  182.4300  179.6370  138.5170 C   0  0  2  0  0  3  0  0  0  0  0  0
  183.0190  178.4790  137.7740 C   0  0  0  0  0  0  0  0  0  0  0  0
  186.6740  176.0990  136.8200 C   0  0  0  0  0  0  0  0  0  0  0  0
  186.1150  179.0980  141.1410 C   0  0  0  0  0  1  0  0  0  0  0  0
  184.8960  178.7390  140.3090 C   0  0  0  0  0  3  0  0  0  0  0  0
  184.0560  177.7550  141.1030 C   0  0  0  0  0  1  0  0  0  0  0  0
  1  3  1  0  0  0  0
  2 12  2  0  0  0  0
  3 21  1  0  0  0  0
  4  1  2  0  0  0  0
  5  7  1  0  0  0  0
  6 14  2  0  0  0  0
  6 27  1  0  0  0  0
  7 11  1  0  0  0  0
  8 10  1  0  0  0  0
  9 13  1  0  0  0  0
  9 22  1  0  0  0  0
 10  4  1  0  0  0  0
 10  7  2  0  0  0  0
 11 27  1  0  0  0  0
 11  3  2  0  0  0  0
 12 18  1  0  0  0  0
 14 23  1  0  0  0  0
 16  2  1  0  0  0  0
 19  8  1  0  0  0  0
 19  5  1  0  0  0  0
 19 15  1  1  0  0  0
 20  1  1  1  0  0  0
 20 26  1  0  0  0  0
 20  2  1  0  0  0  0
 21 22  1  0  0  0  0
 22 29  1  1  0  0  0
 23 13  1  0  0  0  0
 25 17  1  1  0  0  0
 25 18  1  0  0  0  0
 26 21  2  0  0  0  0
 26 25  1  0  0  0  0
 27 24  2  0  0  0  0
 29 30  1  0  0  0  0
 29 28  1  0  0  0  0
M  END
>  <MODEL>
7

>  <REMARK>
 VINA RESULT:      -5.3      5.639      9.407
  Name = 
  1 active torsions:
  status: ('A' for Active; 'I' for Inactive)
    1  A    between atoms: C_11  and  C_25
                            x       y       z     vdW  Elec       q    Type
                         _______ _______ _______ _____ _____    ______ ____

>  <TORSDO>
F 1

$$$$
=
 OpenBabel10272413423D

 30 34  0  0  1  0  0  0  0  0999 V2000
  184.8360  174.6570  137.3480 C   0  0  0  0  0  0  0  0  0  0  0  0
  185.1560  172.5100  136.0880 C   0  0  0  0  0  0  0  0  0  0  0  0
  185.7430  175.6350  137.3860 C   0  0  0  0  0  0  0  0  0  0  0  0
  183.3540  174.8740  137.5150 C   0  0  0  0  0  3  0  0  0  0  0  0
  183.3650  178.9660  138.0830 S   0  0  0  0  0  0  0  0  0  0  0  0
  186.8210  178.0630  139.5440 C   0  0  0  0  0  3  0  0  0  0  0  0
  184.0520  177.3520  137.7440 C   0  0  0  0  0  0  0  0  0  0  0  0
  181.7980  176.8060  137.5930 C   0  0  0  0  0  2  0  0  0  0  0  0
  188.9060  176.4230  137.9090 N   0  0  0  0  0  2  0  0  0  0  0  0
  183.0290  176.3380  137.5640 C   0  0  0  0  0  0  0  0  0  0  0  0
  185.3620  177.0500  137.7030 C   0  0  0  0  0  0  0  0  0  0  0  0
  186.1090  171.8940  135.3530 C   0  0  0  0  0  3  0  0  0  0  0  0
  189.2040  177.6670  137.8650 C   0  0  0  0  0  2  0  0  0  0  0  0
  188.0840  178.2580  139.9760 C   0  0  0  0  0  3  0  0  0  0  0  0
  181.1680  178.8910  136.4450 C   0  0  0  0  0  1  0  0  0  0  0  0
  183.8520  172.2570  135.8040 F   0  0  0  0  0  0  0  0  0  0  0  0
  189.2290  172.9290  137.1730 F   0  0  0  0  0  0  0  0  0  0  0  0
  187.5980  172.0910  135.5770 C   0  0  0  0  0  2  0  0  0  0  0  0
  181.6930  178.2940  137.7350 C   0  0  2  0  0  3  0  0  0  0  0  0
  185.4960  173.3200  137.3270 C   0  0  1  0  0  3  0  0  0  0  0  0
  187.0730  175.0370  137.1850 C   0  0  0  0  0  0  0  0  0  0  0  0
  188.2900  175.8290  136.7580 C   0  0  2  0  0  3  0  0  0  0  0  0
  189.3260  178.4420  139.1290 C   0  0  0  0  0  2  0  0  0  0  0  0
  186.7330  178.9410  137.3290 O   0  0  0  0  0  0  0  0  0  0  0  0
  187.9000  172.6040  136.9840 C   0  0  2  0  0  3  0  0  0  0  0  0
  186.9380  173.7060  137.3000 C   0  0  0  0  0  0  0  0  0  0  0  0
  186.3530  178.0530  138.1370 C   0  0  0  0  0  0  0  0  0  0  0  0
  190.7030  175.5690  136.0260 C   0  0  0  0  0  1  0  0  0  0  0  0
  189.2580  175.1970  135.7470 C   0  0  0  0  0  3  0  0  0  0  0  0
  188.9110  175.6660  134.3460 C   0  0  0  0  0  1  0  0  0  0  0  0
  1  3  2  0  0  0  0
  1  4  1  0  0  0  0
  3 11  1  0  0  0  0
  4 10  2  0  0  0  0
  6 14  2  0  0  0  0
  7  5  1  0  0  0  0
  8 19  1  0  0  0  0
 10  8  1  0  0  0  0
 10  7  1  0  0  0  0
 11  7  2  0  0  0  0
 11 27  1  0  0  0  0
 12 18  1  0  0  0  0
 12  2  2  0  0  0  0
 13  9  1  0  0  0  0
 13 23  1  0  0  0  0
 16  2  1  0  0  0  0
 18 25  1  0  0  0  0
 19 15  1  6  0  0  0
 19  5  1  0  0  0  0
 20  2  1  6  0  0  0
 20  1  1  0  0  0  0
 21 26  2  0  0  0  0
 21  3  1  0  0  0  0
 22 29  1  1  0  0  0
 22 21  1  0  0  0  0
 22  9  1  0  0  0  0
 23 14  1  0  0  0  0
 24 27  2  0  0  0  0
 25 17  1  6  0  0  0
 25 26  1  0  0  0  0
 26 20  1  0  0  0  0
 27  6  1  0  0  0  0
 29 28  1  0  0  0  0
 30 29  1  0  0  0  0
M  END
>  <MODEL>
8

>  <REMARK>
 VINA RESULT:      -5.3      4.110      6.824
  Name = 
  1 active torsions:
  status: ('A' for Active; 'I' for Inactive)
    1  A    between atoms: C_11  and  C_25
                            x       y       z     vdW  Elec       q    Type
                         _______ _______ _______ _____ _____    ______ ____

>  <TORSDO>
F 1

$$$$
=
 OpenBabel10272413423D

 30 34  0  0  1  0  0  0  0  0999 V2000
  186.2410  177.3010  137.2640 C   0  0  0  0  0  0  0  0  0  0  0  0
  186.6040  175.5430  135.5100 C   0  0  0  0  0  0  0  0  0  0  0  0
  185.0700  177.5160  137.8660 C   0  0  0  0  0  0  0  0  0  0  0  0
  187.5780  177.6100  137.8870 C   0  0  0  0  0  3  0  0  0  0  0  0
  186.2690  179.1460  141.4910 S   0  0  0  0  0  0  0  0  0  0  0  0
  183.3080  180.1220  139.2150 C   0  0  0  0  0  3  0  0  0  0  0  0
  186.1280  178.3850  139.8820 C   0  0  0  0  0  0  0  0  0  0  0  0
  188.4360  178.2520  140.1260 C   0  0  0  0  0  2  0  0  0  0  0  0
  181.8300  178.0090  137.4650 N   0  0  0  0  0  2  0  0  0  0  0  0
  187.4190  178.0320  139.3180 C   0  0  0  0  0  0  0  0  0  0  0  0
  184.9830  178.1880  139.2040 C   0  0  0  0  0  0  0  0  0  0  0  0
  185.8860  174.6210  134.8300 C   0  0  0  0  0  3  0  0  0  0  0  0
  181.1490  178.2470  138.5230 C   0  0  0  0  0  2  0  0  0  0  0  0
  182.0560  180.5050  138.8900 C   0  0  0  0  0  3  0  0  0  0  0  0
  188.3460  177.6830  142.5200 C   0  0  0  0  0  1  0  0  0  0  0  0
  187.9150  175.2900  135.7590 F   0  0  0  0  0  0  0  0  0  0  0  0
  182.6300  176.4330  134.3460 F   0  0  0  0  0  0  0  0  0  0  0  0
  184.4160  174.7900  134.4870 C   0  0  0  0  0  2  0  0  0  0  0  0
  188.0610  178.7550  141.4870 C   0  0  2  0  0  3  0  0  0  0  0  0
  186.0430  176.9160  135.8370 C   0  0  1  0  0  3  0  0  0  0  0  0
  183.9980  177.0910  136.9510 C   0  0  0  0  0  0  0  0  0  0  0  0
  182.5840  176.7900  137.4020 C   0  0  2  0  0  3  0  0  0  0  0  0
  180.8070  179.6500  138.8800 C   0  0  0  0  0  2  0  0  0  0  0  0
  183.0740  178.1940  140.5990 O   0  0  0  0  0  0  0  0  0  0  0  0
  183.9890  176.2570  134.5120 C   0  0  2  0  0  3  0  0  0  0  0  0
  184.5540  176.8900  135.7450 C   0  0  0  0  0  0  0  0  0  0  0  0
  183.7310  178.7870  139.7030 C   0  0  0  0  0  0  0  0  0  0  0  0
  180.3440  175.7630  136.8090 C   0  0  0  0  0  1  0  0  0  0  0  0
  181.8530  175.5970  136.7710 C   0  0  0  0  0  3  0  0  0  0  0  0
  182.2080  174.3260  137.5200 C   0  0  0  0  0  1  0  0  0  0  0  0
  1  3  2  0  0  0  0
  1  4  1  0  0  0  0
  2 16  1  0  0  0  0
  3 11  1  0  0  0  0
  4 10  2  0  0  0  0
  6 27  1  0  0  0  0
  7  5  1  0  0  0  0
  8 19  1  0  0  0  0
  9 13  1  0  0  0  0
 10  7  1  0  0  0  0
 10  8  1  0  0  0  0
 11 27  1  0  0  0  0
 11  7  2  0  0  0  0
 12  2  2  0  0  0  0
 13 23  1  0  0  0  0
 14  6  2  0  0  0  0
 18 25  1  0  0  0  0
 18 12  1  0  0  0  0
 19  5  1  0  0  0  0
 19 15  1  1  0  0  0
 20  2  1  1  0  0  0
 20  1  1  0  0  0  0
 21 22  1  0  0  0  0
 21  3  1  0  0  0  0
 22 29  1  6  0  0  0
 22  9  1  0  0  0  0
 23 14  1  0  0  0  0
 25 17  1  1  0  0  0
 25 26  1  0  0  0  0
 26 20  1  0  0  0  0
 26 21  2  0  0  0  0
 27 24  2  0  0  0  0
 29 28  1  0  0  0  0
 29 30  1  0  0  0  0
M  END
>  <MODEL>
9

>  <REMARK>
 VINA RESULT:      -5.3      4.920      7.062
  Name = 
  1 active torsions:
  status: ('A' for Active; 'I' for Inactive)
    1  A    between atoms: C_11  and  C_25
                            x       y       z     vdW  Elec       q    Type
                         _______ _______ _______ _____ _____    ______ ____

>  <TORSDO>
F 1

$$$$
