=
 OpenBabel10272401193D

 55 62  0  0  1  0  0  0  0  0999 V2000
  184.6950  179.0700  138.9320 C   0  0  0  0  0  1  0  0  0  0  0  0
  183.2110  178.7750  138.9720 C   0  0  1  0  0  3  0  0  0  0  0  0
  182.9580  176.9880  139.1960 S   0  0  0  0  0  0  0  0  0  0  0  0
  182.0390  173.6590  135.9140 O   0  0  0  0  0  0  0  0  0  0  0  0
  181.4670  179.0300  136.5160 C   0  0  0  0  0  2  0  0  0  0  0  0
  180.1770  178.7800  135.7380 C   0  0  0  0  0  2  0  0  0  0  0  0
  182.2950  177.7510  136.6340 C   0  0  1  0  0  3  0  0  0  0  0  0
  181.0800  176.7860  134.7540 O   0  0  0  0  0  0  0  0  0  0  0  0
  180.5110  178.0360  134.4480 C   0  0  0  0  0  2  0  0  0  0  0  0
  181.7960  176.8770  137.8000 C   0  0  1  0  0  3  0  0  0  0  0  0
  183.0870  173.4540  136.8260 C   0  0  2  0  0  3  0  0  0  0  0  0
  183.1470  175.7180  135.3750 C   0  0  2  0  0  3  0  0  0  0  0  0
  182.3720  177.0340  135.2640 C   0  0  2  0  0  3  0  0  0  0  0  0
  181.5260  175.4130  137.4350 C   0  0  0  0  0  2  0  0  0  0  0  0
  182.5790  174.8210  136.4970 C   0  0  1  0  0  0  0  0  0  0  0  0
  185.1780  176.2610  136.7260 C   0  0  0  0  0  3  0  0  0  0  0  0
  187.3890  176.4260  135.7290 C   0  0  0  0  0  0  0  0  0  0  0  0
  185.4600  175.9100  134.3500 C   0  0  0  0  0  3  0  0  0  0  0  0
  186.8310  176.1360  134.4760 C   0  0  0  0  0  3  0  0  0  0  0  0
  186.5490  176.4870  136.8540 C   0  0  0  0  0  3  0  0  0  0  0  0
  184.6250  175.9750  135.4740 C   0  0  0  0  0  0  0  0  0  0  0  0
  188.8020  176.6480  135.8540 N   0  0  0  0  0  0  0  0  0  0  0  0
  189.3760  177.7320  135.2750 O   0  0  0  0  0  1  0  0  0  0  0  0
  189.6690  175.6620  136.4800 C   0  0  0  0  0  1  0  0  0  0  0  0
  184.3310  173.0380  136.0620 C   0  0  0  0  0  2  0  0  0  0  0  0
  185.3570  172.4750  137.0240 C   0  0  0  0  0  2  0  0  0  0  0  0
  186.5420  171.9250  136.2520 C   0  0  0  0  0  2  0  0  0  0  0  0
  187.2080  172.9620  135.5970 O   0  0  0  0  0  1  0  0  0  0  0  0
  182.6260  179.4690  140.0330 O   0  0  0  0  0  0  0  0  0  0  0  0
  182.3070  178.4820  140.9680 C   0  0  0  0  0  2  0  0  0  0  0  0
  182.9620  178.8030  142.3020 C   0  0  0  0  0  2  0  0  0  0  0  0
  184.1570  177.8910  142.5670 C   0  0  0  0  0  2  0  0  0  0  0  0
  183.6020  178.8500  145.3170 O   0  0  0  0  0  0  0  0  0  0  0  0
  185.1790  178.5160  143.5240 C   0  0  1  0  0  0  0  0  0  0  0  0
  184.4750  179.5100  144.4300 C   0  0  2  0  0  3  0  0  0  0  0  0
  185.7810  177.9460  145.6420 C   0  0  1  0  0  3  0  0  0  0  0  0
  184.8890  179.1580  145.7900 C   0  0  2  0  0  3  0  0  0  0  0  0
  185.7760  177.5090  144.3040 O   0  0  0  0  0  0  0  0  0  0  0  0
  188.3470  176.6230  148.4160 C   0  0  0  0  0  2  0  0  0  0  0  0
  187.2050  178.2720  146.0920 C   0  0  1  0  0  3  0  0  0  0  0  0
  188.3890  178.0740  147.9940 C   0  0  2  0  0  0  0  0  0  0  0  0
  187.2150  178.6240  147.4590 O   0  0  0  0  0  0  0  0  0  0  0  0
  189.0040  177.0410  147.0990 C   0  0  2  0  0  0  0  0  0  0  0  0
  189.2510  178.9180  148.6940 O   0  0  0  0  0  1  0  0  0  0  0  0
  188.1350  177.0840  145.8630 C   0  0  2  0  0  3  0  0  0  0  0  0
  188.9070  177.2650  144.5920 C   0  0  0  0  0  0  0  0  0  0  0  0
  189.4740  178.4950  144.2780 O   0  0  0  0  0  1  0  0  0  0  0  0
  189.0350  176.2960  143.8020 O   0  0  0  0  0  0  0  0  0  0  0  0
  190.5310  177.0510  147.0590 C   0  0  0  0  0  2  0  0  0  0  0  0
  191.0070  175.7600  146.8360 O   0  0  0  0  0  0  0  0  0  0  0  0
  191.9930  175.9170  145.8630 C   0  0  0  0  0  1  0  0  0  0  0  0
  186.4750  179.3880  142.5950 S   0  0  0  0  0  0  0  0  0  0  0  0
  187.1090  178.2910  141.5980 C   0  0  0  0  0  2  0  0  0  0  0  0
  188.2350  178.6650  140.6990 C   0  0  0  0  0  2  0  0  0  0  0  0
  189.3140  177.8130  140.9270 O   0  0  0  0  0  1  0  0  0  0  0  0
  2  1  1  1  0  0  0
  2  3  1  0  0  0  0
  2 29  1  0  0  0  0
  4 15  1  0  0  0  0
  4 11  1  0  0  0  0
  6  5  1  0  0  0  0
  7  5  1  6  0  0  0
  7 10  1  0  0  0  0
  9  8  1  0  0  0  0
  9  6  1  0  0  0  0
 10  3  1  1  0  0  0
 11 25  1  6  0  0  0
 12 21  1  1  0  0  0
 12 15  1  0  0  0  0
 13  8  1  1  0  0  0
 13 12  1  0  0  0  0
 13  7  1  0  0  0  0
 14 10  1  0  0  0  0
 15 11  1  0  0  0  0
 15 14  1  1  0  0  0
 16 20  1  0  0  0  0
 17 22  1  0  0  0  0
 17 20  2  0  0  0  0
 18 19  2  0  0  0  0
 18 21  1  0  0  0  0
 19 17  1  0  0  0  0
 21 16  2  0  0  0  0
 22 24  1  0  0  0  0
 23 22  1  0  0  0  0
 25 26  1  0  0  0  0
 27 26  1  0  0  0  0
 28 27  1  0  0  0  0
 29 30  1  0  0  0  0
 30 31  1  0  0  0  0
 31 32  1  0  0  0  0
 34 32  1  6  0  0  0
 34 38  1  0  0  0  0
 34 35  1  0  0  0  0
 35 33  1  1  0  0  0
 35 37  1  0  0  0  0
 36 38  1  6  0  0  0
 36 37  1  0  0  0  0
 36 40  1  0  0  0  0
 37 33  1  1  0  0  0
 40 42  1  1  0  0  0
 41 39  1  0  0  0  0
 41 44  1  1  0  0  0
 42 41  1  0  0  0  0
 43 49  1  6  0  0  0
 43 41  1  0  0  0  0
 43 39  1  0  0  0  0
 45 46  1  6  0  0  0
 45 40  1  0  0  0  0
 45 43  1  0  0  0  0
 47 46  1  0  0  0  0
 48 46  2  0  0  0  0
 50 49  1  0  0  0  0
 51 50  1  0  0  0  0
 52 34  1  0  0  0  0
 53 52  1  0  0  0  0
 54 55  1  0  0  0  0
 54 53  1  0  0  0  0
M  END
>  <MODEL>
1

>  <REMARK>
 VINA RESULT:      -5.9      0.000      0.000
  Name = 
  18 active torsions:
  status: ('A' for Active; 'I' for Inactive)
    1  A    between atoms: C_1  and  C_53
    2  A    between atoms: C_4  and  C_35
    3  A    between atoms: C_4  and  O_37
    4  A    between atoms: C_6  and  C_22
    5  A    between atoms: C_8  and  C_43
    6  A    between atoms: C_8  and  S_51
    7  A    between atoms: N_10  and  C_32
    8  A    between atoms: O_11  and  C_29
    9  A    between atoms: S_19  and  C_26
   10  A    between atoms: S_19  and  C_40
   11  A    between atoms: C_24  and  C_44
   12  A    between atoms: C_27  and  C_54
   13  A    between atoms: C_28  and  C_31
   14  A    between atoms: C_29  and  C_38
   15  A    between atoms: C_31  and  C_44
   16  A    between atoms: C_33  and  C_52
   17  A    between atoms: C_35  and  C_43
   18  A    between atoms: O_37  and  C_40
                            x       y       z     vdW  Elec       q    Type
                         _______ _______ _______ _____ _____    ______ ____

>  <TORSDO>
F 18

$$$$
=
 OpenBabel10272401193D

 55 62  0  0  1  0  0  0  0  0999 V2000
  185.4040  175.5870  137.3450 C   0  0  0  0  0  1  0  0  0  0  0  0
  185.1550  175.0950  135.9360 C   0  0  1  0  0  3  0  0  0  0  0  0
  184.5050  176.4600  134.9260 S   0  0  0  0  0  0  0  0  0  0  0  0
  180.0680  178.1880  135.0650 O   0  0  0  0  0  0  0  0  0  0  0  0
  182.6110  173.4660  135.9370 C   0  0  0  0  0  2  0  0  0  0  0  0
  181.3390  172.8930  135.3170 C   0  0  0  0  0  2  0  0  0  0  0  0
  182.5070  174.9810  136.1090 C   0  0  1  0  0  3  0  0  0  0  0  0
  180.0780  174.8330  135.9520 O   0  0  0  0  0  0  0  0  0  0  0  0
  180.1300  173.4330  136.0760 C   0  0  0  0  0  2  0  0  0  0  0  0
  182.8520  175.7090  134.7980 C   0  0  1  0  0  3  0  0  0  0  0  0
  181.1500  179.0550  135.2850 C   0  0  2  0  0  3  0  0  0  0  0  0
  180.9880  176.8740  136.8500 C   0  0  2  0  0  3  0  0  0  0  0  0
  181.1360  175.3550  136.7260 C   0  0  2  0  0  3  0  0  0  0  0  0
  181.8190  176.7490  134.3490 C   0  0  0  0  0  2  0  0  0  0  0  0
  181.2590  177.5810  135.5030 C   0  0  1  0  0  0  0  0  0  0  0  0
  182.9640  178.1240  137.7310 C   0  0  0  0  0  3  0  0  0  0  0  0
  183.3410  178.4380  140.1120 C   0  0  0  0  0  0  0  0  0  0  0  0
  181.4050  177.1980  139.3320 C   0  0  0  0  0  3  0  0  0  0  0  0
  182.1710  177.7120  140.3790 C   0  0  0  0  0  3  0  0  0  0  0  0
  183.7310  178.6390  138.7770 C   0  0  0  0  0  3  0  0  0  0  0  0
  181.8010  177.3990  138.0010 C   0  0  0  0  0  0  0  0  0  0  0  0
  184.1180  178.9720  141.1940 N   0  0  0  0  0  0  0  0  0  0  0  0
  185.3360  179.5180  140.9530 O   0  0  0  0  0  1  0  0  0  0  0  0
  183.6900  178.8250  142.5760 C   0  0  0  0  0  1  0  0  0  0  0  0
  180.8860  179.8660  136.5410 C   0  0  0  0  0  2  0  0  0  0  0  0
  180.5610  181.2980  136.1660 C   0  0  0  0  0  2  0  0  0  0  0  0
  180.7360  182.2000  137.3730 C   0  0  0  0  0  2  0  0  0  0  0  0
  180.5660  181.4640  138.5470 O   0  0  0  0  0  1  0  0  0  0  0  0
  186.3530  174.6320  135.3870 O   0  0  0  0  0  0  0  0  0  0  0  0
  187.2060  175.7380  135.4150 C   0  0  0  0  0  2  0  0  0  0  0  0
  188.2640  175.5470  136.4900 C   0  0  0  0  0  2  0  0  0  0  0  0
  189.1100  176.8050  136.6670 C   0  0  0  0  0  2  0  0  0  0  0  0
  188.9270  179.2030  138.4000 O   0  0  0  0  0  0  0  0  0  0  0  0
  189.6880  176.9370  138.0810 C   0  0  1  0  0  0  0  0  0  0  0  0
  190.0720  178.3840  138.3320 C   0  0  2  0  0  3  0  0  0  0  0  0
  188.6970  177.5000  140.0490 C   0  0  1  0  0  3  0  0  0  0  0  0
  189.4560  178.7330  139.6140 C   0  0  2  0  0  3  0  0  0  0  0  0
  188.7260  176.5340  139.0260 O   0  0  0  0  0  0  0  0  0  0  0  0
  191.0200  178.8230  143.0300 C   0  0  0  0  0  2  0  0  0  0  0  0
  189.2930  176.9320  141.3370 C   0  0  1  0  0  3  0  0  0  0  0  0
  191.0850  177.3680  142.6240 C   0  0  2  0  0  0  0  0  0  0  0  0
  190.7000  177.0460  141.3140 O   0  0  0  0  0  0  0  0  0  0  0  0
  189.9370  177.8340  143.4670 C   0  0  2  0  0  0  0  0  0  0  0  0
  192.0580  176.5770  143.2360 O   0  0  0  0  0  1  0  0  0  0  0  0
  188.7410  177.6570  142.5610 C   0  0  2  0  0  3  0  0  0  0  0  0
  187.6320  176.8620  143.1790 C   0  0  0  0  0  0  0  0  0  0  0  0
  187.7650  175.4920  143.3720 O   0  0  0  0  0  0  0  0  0  0  0  0
  186.5690  177.4420  143.5190 O   0  0  0  0  0  1  0  0  0  0  0  0
  189.9740  177.3640  144.9200 C   0  0  0  0  0  2  0  0  0  0  0  0
  189.2050  178.2150  145.7120 O   0  0  0  0  0  0  0  0  0  0  0  0
  188.7820  177.4160  146.7730 C   0  0  0  0  0  1  0  0  0  0  0  0
  191.1670  175.8990  138.2670 S   0  0  0  0  0  0  0  0  0  0  0  0
  192.0200  176.1100  136.9150 C   0  0  0  0  0  2  0  0  0  0  0  0
  193.2970  175.3710  136.7180 C   0  0  0  0  0  2  0  0  0  0  0  0
  193.2000  174.1090  137.3010 O   0  0  0  0  0  1  0  0  0  0  0  0
  2  1  1  1  0  0  0
  3  2  1  0  0  0  0
  4 11  1  0  0  0  0
  4 15  1  0  0  0  0
  6  5  1  0  0  0  0
  6  9  1  0  0  0  0
  7  5  1  6  0  0  0
  7 13  1  0  0  0  0
  8  9  1  0  0  0  0
 10  3  1  1  0  0  0
 10  7  1  0  0  0  0
 11 15  1  0  0  0  0
 11 25  1  1  0  0  0
 12 21  1  1  0  0  0
 13  8  1  6  0  0  0
 13 12  1  0  0  0  0
 14 10  1  0  0  0  0
 15 14  1  6  0  0  0
 15 12  1  0  0  0  0
 16 21  2  0  0  0  0
 16 20  1  0  0  0  0
 17 19  1  0  0  0  0
 17 22  1  0  0  0  0
 18 19  2  0  0  0  0
 20 17  2  0  0  0  0
 21 18  1  0  0  0  0
 22 24  1  0  0  0  0
 23 22  1  0  0  0  0
 26 25  1  0  0  0  0
 26 27  1  0  0  0  0
 27 28  1  0  0  0  0
 29 30  1  0  0  0  0
 29  2  1  0  0  0  0
 30 31  1  0  0  0  0
 31 32  1  0  0  0  0
 34 32  1  6  0  0  0
 34 52  1  0  0  0  0
 34 35  1  0  0  0  0
 34 38  1  0  0  0  0
 35 33  1  6  0  0  0
 35 37  1  0  0  0  0
 36 38  1  6  0  0  0
 36 40  1  0  0  0  0
 37 33  1  6  0  0  0
 37 36  1  0  0  0  0
 39 43  1  0  0  0  0
 40 42  1  6  0  0  0
 40 45  1  0  0  0  0
 41 39  1  0  0  0  0
 41 44  1  1  0  0  0
 41 43  1  0  0  0  0
 42 41  1  0  0  0  0
 43 49  1  1  0  0  0
 45 46  1  1  0  0  0
 45 43  1  0  0  0  0
 46 47  2  0  0  0  0
 46 48  1  0  0  0  0
 49 50  1  0  0  0  0
 50 51  1  0  0  0  0
 53 52  1  0  0  0  0
 54 53  1  0  0  0  0
 54 55  1  0  0  0  0
M  END
>  <MODEL>
2

>  <REMARK>
 VINA RESULT:      -5.3      2.522      6.251
  Name = 
  18 active torsions:
  status: ('A' for Active; 'I' for Inactive)
    1  A    between atoms: C_1  and  C_53
    2  A    between atoms: C_4  and  C_35
    3  A    between atoms: C_4  and  O_37
    4  A    between atoms: C_6  and  C_22
    5  A    between atoms: C_8  and  C_43
    6  A    between atoms: C_8  and  S_51
    7  A    between atoms: N_10  and  C_32
    8  A    between atoms: O_11  and  C_29
    9  A    between atoms: S_19  and  C_26
   10  A    between atoms: S_19  and  C_40
   11  A    between atoms: C_24  and  C_44
   12  A    between atoms: C_27  and  C_54
   13  A    between atoms: C_28  and  C_31
   14  A    between atoms: C_29  and  C_38
   15  A    between atoms: C_31  and  C_44
   16  A    between atoms: C_33  and  C_52
   17  A    between atoms: C_35  and  C_43
   18  A    between atoms: O_37  and  C_40
                            x       y       z     vdW  Elec       q    Type
                         _______ _______ _______ _____ _____    ______ ____

>  <TORSDO>
F 18

$$$$
=
 OpenBabel10272401193D

 55 62  0  0  1  0  0  0  0  0999 V2000
  179.9820  178.2650  140.0550 C   0  0  0  0  0  1  0  0  0  0  0  0
  181.3510  177.8810  140.5720 C   0  0  1  0  0  3  0  0  0  0  0  0
  182.1570  176.7720  139.3780 S   0  0  0  0  0  0  0  0  0  0  0  0
  180.6320  174.7490  135.3430 O   0  0  0  0  0  0  0  0  0  0  0  0
  181.4570  179.7450  137.3160 C   0  0  0  0  0  2  0  0  0  0  0  0
  180.2070  180.0600  136.4980 C   0  0  0  0  0  2  0  0  0  0  0  0
  181.9080  178.3000  137.1000 C   0  0  1  0  0  3  0  0  0  0  0  0
  180.6200  178.2060  135.0330 O   0  0  0  0  0  0  0  0  0  0  0  0
  180.4260  179.5980  135.0600 C   0  0  0  0  0  2  0  0  0  0  0  0
  181.1120  177.3350  137.9980 C   0  0  1  0  0  3  0  0  0  0  0  0
  181.5190  174.0440  136.1720 C   0  0  2  0  0  3  0  0  0  0  0  0
  182.2810  176.4920  135.3580 C   0  0  2  0  0  3  0  0  0  0  0  0
  181.8910  177.9550  135.5910 C   0  0  2  0  0  3  0  0  0  0  0  0
  180.4920  176.1400  137.2660 C   0  0  0  0  0  2  0  0  0  0  0  0
  181.4160  175.5350  136.2080 C   0  0  1  0  0  0  0  0  0  0  0  0
  184.5720  176.2810  134.3840 C   0  0  0  0  0  3  0  0  0  0  0  0
  186.5470  175.9870  135.7710 C   0  0  0  0  0  0  0  0  0  0  0  0
  184.3510  176.1700  136.7900 C   0  0  0  0  0  3  0  0  0  0  0  0
  185.7320  176.0120  136.9120 C   0  0  0  0  0  3  0  0  0  0  0  0
  185.9530  176.1230  134.5050 C   0  0  0  0  0  3  0  0  0  0  0  0
  183.7630  176.3010  135.5240 C   0  0  0  0  0  0  0  0  0  0  0  0
  187.9670  175.8340  135.9050 N   0  0  0  0  0  0  0  0  0  0  0  0
  188.7280  176.8730  136.3300 O   0  0  0  0  0  1  0  0  0  0  0  0
  188.6410  174.6220  135.4660 C   0  0  0  0  0  1  0  0  0  0  0  0
  182.6610  173.5070  135.3280 C   0  0  0  0  0  2  0  0  0  0  0  0
  182.2890  172.1490  134.7700 C   0  0  0  0  0  2  0  0  0  0  0  0
  181.5950  171.3240  135.8370 C   0  0  0  0  0  2  0  0  0  0  0  0
  181.2540  170.0710  135.3250 O   0  0  0  0  0  1  0  0  0  0  0  0
  182.1240  179.0320  140.7410 O   0  0  0  0  0  0  0  0  0  0  0  0
  183.4300  178.6250  140.4590 C   0  0  0  0  0  2  0  0  0  0  0  0
  184.0530  177.9950  141.6950 C   0  0  0  0  0  2  0  0  0  0  0  0
  184.3560  179.0440  142.7610 C   0  0  0  0  0  2  0  0  0  0  0  0
  184.7640  179.1920  145.6930 O   0  0  0  0  0  0  0  0  0  0  0  0
  185.6730  178.7770  143.4990 C   0  0  1  0  0  0  0  0  0  0  0  0
  185.7240  179.6250  144.7580 C   0  0  2  0  0  3  0  0  0  0  0  0
  186.1700  177.3370  145.1890 C   0  0  1  0  0  3  0  0  0  0  0  0
  186.0720  178.6990  145.8370 C   0  0  2  0  0  3  0  0  0  0  0  0
  185.7560  177.4150  143.8460 O   0  0  0  0  0  0  0  0  0  0  0  0
  189.7610  178.3520  143.7400 C   0  0  0  0  0  2  0  0  0  0  0  0
  187.6000  176.8040  145.2750 C   0  0  1  0  0  3  0  0  0  0  0  0
  189.4430  176.8950  143.9900 C   0  0  2  0  0  0  0  0  0  0  0  0
  188.0920  176.5190  143.9830 O   0  0  0  0  0  0  0  0  0  0  0  0
  189.7950  177.7700  145.1550 C   0  0  2  0  0  0  0  0  0  0  0  0
  190.3890  175.9560  143.5800 O   0  0  0  0  0  1  0  0  0  0  0  0
  188.5170  177.8120  145.9620 C   0  0  2  0  0  3  0  0  0  0  0  0
  188.7040  177.4470  147.4020 C   0  0  0  0  0  0  0  0  0  0  0  0
  188.6840  178.4260  148.3880 O   0  0  0  0  0  1  0  0  0  0  0  0
  188.8870  176.2430  147.7180 O   0  0  0  0  0  0  0  0  0  0  0  0
  191.1710  177.5090  145.7640 C   0  0  0  0  0  2  0  0  0  0  0  0
  191.3610  176.1380  145.9310 O   0  0  0  0  0  0  0  0  0  0  0  0
  192.2670  176.0380  146.9860 C   0  0  0  0  0  1  0  0  0  0  0  0
  187.0930  179.2040  142.4490 S   0  0  0  0  0  0  0  0  0  0  0  0
  187.0720  178.1430  141.2350 C   0  0  0  0  0  2  0  0  0  0  0  0
  188.1310  178.1860  140.1910 C   0  0  0  0  0  2  0  0  0  0  0  0
  187.5690  178.5600  138.9720 O   0  0  0  0  0  1  0  0  0  0  0  0
  2  1  1  6  0  0  0
  2 29  1  0  0  0  0
  3  2  1  0  0  0  0
  4 11  1  0  0  0  0
  4 15  1  0  0  0  0
  6  5  1  0  0  0  0
  7  5  1  6  0  0  0
  7 10  1  0  0  0  0
  8  9  1  0  0  0  0
  9  6  1  0  0  0  0
 10  3  1  1  0  0  0
 11 25  1  6  0  0  0
 11 15  1  0  0  0  0
 12 21  1  1  0  0  0
 12 13  1  0  0  0  0
 12 15  1  0  0  0  0
 13  8  1  1  0  0  0
 13  7  1  0  0  0  0
 14 10  1  0  0  0  0
 15 14  1  1  0  0  0
 16 20  2  0  0  0  0
 16 21  1  0  0  0  0
 17 22  1  0  0  0  0
 17 19  2  0  0  0  0
 18 19  1  0  0  0  0
 20 17  1  0  0  0  0
 21 18  2  0  0  0  0
 22 23  1  0  0  0  0
 24 22  1  0  0  0  0
 26 25  1  0  0  0  0
 26 27  1  0  0  0  0
 28 27  1  0  0  0  0
 30 29  1  0  0  0  0
 30 31  1  0  0  0  0
 31 32  1  0  0  0  0
 34 32  1  6  0  0  0
 34 38  1  0  0  0  0
 34 35  1  0  0  0  0
 35 33  1  1  0  0  0
 35 37  1  0  0  0  0
 36 38  1  6  0  0  0
 36 40  1  0  0  0  0
 36 37  1  0  0  0  0
 37 33  1  1  0  0  0
 39 41  1  0  0  0  0
 39 43  1  0  0  0  0
 40 42  1  6  0  0  0
 40 45  1  0  0  0  0
 41 44  1  6  0  0  0
 41 43  1  0  0  0  0
 42 41  1  0  0  0  0
 43 49  1  1  0  0  0
 43 45  1  0  0  0  0
 45 46  1  1  0  0  0
 46 48  2  0  0  0  0
 46 47  1  0  0  0  0
 49 50  1  0  0  0  0
 50 51  1  0  0  0  0
 52 34  1  0  0  0  0
 53 52  1  0  0  0  0
 54 53  1  0  0  0  0
 55 54  1  0  0  0  0
M  END
>  <MODEL>
3

>  <REMARK>
 VINA RESULT:      -4.9      1.500      2.523
  Name = 
  18 active torsions:
  status: ('A' for Active; 'I' for Inactive)
    1  A    between atoms: C_1  and  C_53
    2  A    between atoms: C_4  and  C_35
    3  A    between atoms: C_4  and  O_37
    4  A    between atoms: C_6  and  C_22
    5  A    between atoms: C_8  and  C_43
    6  A    between atoms: C_8  and  S_51
    7  A    between atoms: N_10  and  C_32
    8  A    between atoms: O_11  and  C_29
    9  A    between atoms: S_19  and  C_26
   10  A    between atoms: S_19  and  C_40
   11  A    between atoms: C_24  and  C_44
   12  A    between atoms: C_27  and  C_54
   13  A    between atoms: C_28  and  C_31
   14  A    between atoms: C_29  and  C_38
   15  A    between atoms: C_31  and  C_44
   16  A    between atoms: C_33  and  C_52
   17  A    between atoms: C_35  and  C_43
   18  A    between atoms: O_37  and  C_40
                            x       y       z     vdW  Elec       q    Type
                         _______ _______ _______ _____ _____    ______ ____

>  <TORSDO>
F 18

$$$$
=
 OpenBabel10272401193D

 55 62  0  0  1  0  0  0  0  0999 V2000
  189.8660  176.2990  134.3580 C   0  0  0  0  0  1  0  0  0  0  0  0
  189.8560  174.7920  134.4950 C   0  0  1  0  0  3  0  0  0  0  0  0
  191.5680  174.1810  134.5580 S   0  0  0  0  0  0  0  0  0  0  0  0
  195.7480  176.2680  135.4880 O   0  0  0  0  0  0  0  0  0  0  0  0
  190.9870  175.4380  137.9720 C   0  0  0  0  0  2  0  0  0  0  0  0
  191.2600  176.8340  138.5290 C   0  0  0  0  0  2  0  0  0  0  0  0
  192.1650  174.9380  137.1370 C   0  0  1  0  0  3  0  0  0  0  0  0
  193.6240  176.5670  138.2150 O   0  0  0  0  0  0  0  0  0  0  0  0
  192.6400  176.8470  139.1810 C   0  0  0  0  0  2  0  0  0  0  0  0
  192.0980  175.4930  135.7020 C   0  0  1  0  0  3  0  0  0  0  0  0
  195.7010  175.2010  134.5770 C   0  0  2  0  0  3  0  0  0  0  0  0
  194.6960  174.7640  137.0330 C   0  0  2  0  0  3  0  0  0  0  0  0
  193.4980  175.2030  137.8800 C   0  0  2  0  0  3  0  0  0  0  0  0
  193.3910  176.1530  135.2080 C   0  0  0  0  0  2  0  0  0  0  0  0
  194.6520  175.3960  135.6230 C   0  0  1  0  0  0  0  0  0  0  0  0
  195.7820  172.6800  137.8800 C   0  0  0  0  0  3  0  0  0  0  0  0
  195.1120  170.4690  137.1200 C   0  0  0  0  0  0  0  0  0  0  0  0
  194.0210  172.4510  136.2390 C   0  0  0  0  0  3  0  0  0  0  0  0
  194.1600  171.0630  136.2780 C   0  0  0  0  0  3  0  0  0  0  0  0
  195.9230  171.2920  137.9210 C   0  0  0  0  0  3  0  0  0  0  0  0
  194.8340  173.2670  137.0380 C   0  0  0  0  0  0  0  0  0  0  0  0
  195.2440  169.0410  137.1630 N   0  0  0  0  0  0  0  0  0  0  0  0
  195.5020  168.3450  136.0280 O   0  0  0  0  0  1  0  0  0  0  0  0
  194.9760  168.2940  138.3820 C   0  0  0  0  0  1  0  0  0  0  0  0
  196.7800  174.1960  134.9380 C   0  0  0  0  0  2  0  0  0  0  0  0
  198.0960  174.9140  135.1540 C   0  0  0  0  0  2  0  0  0  0  0  0
  198.8530  174.2730  136.3020 C   0  0  0  0  0  2  0  0  0  0  0  0
  199.1040  172.9300  136.0170 O   0  0  0  0  0  1  0  0  0  0  0  0
  189.1860  174.4350  135.6670 O   0  0  0  0  0  0  0  0  0  0  0  0
  187.9610  173.9240  135.2330 C   0  0  0  0  0  2  0  0  0  0  0  0
  186.8440  174.4210  136.1370 C   0  0  0  0  0  2  0  0  0  0  0  0
  187.3090  175.5860  137.0050 C   0  0  0  0  0  2  0  0  0  0  0  0
  185.2950  176.1280  134.8980 O   0  0  0  0  0  0  0  0  0  0  0  0
  186.3390  176.7730  136.9740 C   0  0  1  0  0  0  0  0  0  0  0  0
  186.0420  177.1410  135.5310 C   0  0  2  0  0  3  0  0  0  0  0  0
  184.0710  176.8410  136.8120 C   0  0  1  0  0  3  0  0  0  0  0  0
  184.5830  177.2120  135.4390 C   0  0  2  0  0  3  0  0  0  0  0  0
  185.1410  176.4250  137.6260 O   0  0  0  0  0  0  0  0  0  0  0  0
  180.4700  177.5450  138.4150 C   0  0  0  0  0  2  0  0  0  0  0  0
  183.3440  178.0260  137.4500 C   0  0  1  0  0  3  0  0  0  0  0  0
  181.2040  178.6630  137.7120 C   0  0  2  0  0  0  0  0  0  0  0  0
  182.1540  178.3040  136.7440 O   0  0  0  0  0  0  0  0  0  0  0  0
  181.6200  178.2860  139.1010 C   0  0  2  0  0  0  0  0  0  0  0  0
  180.5230  179.8700  137.5460 O   0  0  0  0  0  1  0  0  0  0  0  0
  183.0170  177.7410  138.9130 C   0  0  2  0  0  3  0  0  0  0  0  0
  184.0360  178.3790  139.8070 C   0  0  0  0  0  0  0  0  0  0  0  0
  184.5920  179.6110  139.4800 O   0  0  0  0  0  0  0  0  0  0  0  0
  184.3940  177.7890  140.8580 O   0  0  0  0  0  1  0  0  0  0  0  0
  181.2450  179.2970  140.1820 C   0  0  0  0  0  2  0  0  0  0  0  0
  181.0910  178.6460  141.4050 O   0  0  0  0  0  0  0  0  0  0  0  0
  180.5810  179.6240  142.2570 C   0  0  0  0  0  1  0  0  0  0  0  0
  187.0650  178.2150  137.8070 S   0  0  0  0  0  0  0  0  0  0  0  0
  187.7870  177.6380  139.1280 C   0  0  0  0  0  2  0  0  0  0  0  0
  188.4660  178.5670  140.0710 C   0  0  0  0  0  2  0  0  0  0  0  0
  188.3060  178.1050  141.3760 O   0  0  0  0  0  1  0  0  0  0  0  0
  2  1  1  1  0  0  0
  2  3  1  0  0  0  0
  2 29  1  0  0  0  0
  4 15  1  0  0  0  0
  5  6  1  0  0  0  0
  6  9  1  0  0  0  0
  7 13  1  0  0  0  0
  7  5  1  1  0  0  0
  8  9  1  0  0  0  0
 10  3  1  6  0  0  0
 10  7  1  0  0  0  0
 11 25  1  1  0  0  0
 11  4  1  0  0  0  0
 11 15  1  0  0  0  0
 12 21  1  6  0  0  0
 12 13  1  0  0  0  0
 13  8  1  6  0  0  0
 14 10  1  0  0  0  0
 15 14  1  6  0  0  0
 15 12  1  0  0  0  0
 16 20  1  0  0  0  0
 17 22  1  0  0  0  0
 17 20  2  0  0  0  0
 18 19  2  0  0  0  0
 18 21  1  0  0  0  0
 19 17  1  0  0  0  0
 21 16  2  0  0  0  0
 22 24  1  0  0  0  0
 23 22  1  0  0  0  0
 25 26  1  0  0  0  0
 26 27  1  0  0  0  0
 28 27  1  0  0  0  0
 30 29  1  0  0  0  0
 30 31  1  0  0  0  0
 31 32  1  0  0  0  0
 34 32  1  1  0  0  0
 34 38  1  0  0  0  0
 34 52  1  0  0  0  0
 35 33  1  6  0  0  0
 35 34  1  0  0  0  0
 36 40  1  0  0  0  0
 36 38  1  1  0  0  0
 37 33  1  6  0  0  0
 37 35  1  0  0  0  0
 37 36  1  0  0  0  0
 39 43  1  0  0  0  0
 40 42  1  6  0  0  0
 40 45  1  0  0  0  0
 41 44  1  6  0  0  0
 41 39  1  0  0  0  0
 41 43  1  0  0  0  0
 42 41  1  0  0  0  0
 43 49  1  1  0  0  0
 45 43  1  0  0  0  0
 45 46  1  1  0  0  0
 46 48  1  0  0  0  0
 47 46  2  0  0  0  0
 49 50  1  0  0  0  0
 50 51  1  0  0  0  0
 52 53  1  0  0  0  0
 53 54  1  0  0  0  0
 54 55  1  0  0  0  0
M  END
>  <MODEL>
4

>  <REMARK>
 VINA RESULT:      -4.8      4.990     10.318
  Name = 
  18 active torsions:
  status: ('A' for Active; 'I' for Inactive)
    1  A    between atoms: C_1  and  C_53
    2  A    between atoms: C_4  and  C_35
    3  A    between atoms: C_4  and  O_37
    4  A    between atoms: C_6  and  C_22
    5  A    between atoms: C_8  and  C_43
    6  A    between atoms: C_8  and  S_51
    7  A    between atoms: N_10  and  C_32
    8  A    between atoms: O_11  and  C_29
    9  A    between atoms: S_19  and  C_26
   10  A    between atoms: S_19  and  C_40
   11  A    between atoms: C_24  and  C_44
   12  A    between atoms: C_27  and  C_54
   13  A    between atoms: C_28  and  C_31
   14  A    between atoms: C_29  and  C_38
   15  A    between atoms: C_31  and  C_44
   16  A    between atoms: C_33  and  C_52
   17  A    between atoms: C_35  and  C_43
   18  A    between atoms: O_37  and  C_40
                            x       y       z     vdW  Elec       q    Type
                         _______ _______ _______ _____ _____    ______ ____

>  <TORSDO>
F 18

$$$$
=
 OpenBabel10272401193D

 55 62  0  0  1  0  0  0  0  0999 V2000
  189.8040  176.7730  134.6030 C   0  0  0  0  0  1  0  0  0  0  0  0
  189.6650  175.2690  134.5120 C   0  0  1  0  0  3  0  0  0  0  0  0
  191.3010  174.5000  134.7010 S   0  0  0  0  0  0  0  0  0  0  0  0
  195.5320  176.4130  135.7680 O   0  0  0  0  0  0  0  0  0  0  0  0
  190.7160  175.6280  138.1590 C   0  0  0  0  0  2  0  0  0  0  0  0
  191.0240  176.9900  138.7790 C   0  0  0  0  0  2  0  0  0  0  0  0
  191.8890  175.1280  137.3170 C   0  0  1  0  0  3  0  0  0  0  0  0
  193.3820  176.6630  138.4810 O   0  0  0  0  0  0  0  0  0  0  0  0
  192.3950  176.9320  139.4470 C   0  0  0  0  0  2  0  0  0  0  0  0
  191.8570  175.7450  135.9070 C   0  0  1  0  0  3  0  0  0  0  0  0
  195.4630  175.3880  134.8120 C   0  0  2  0  0  3  0  0  0  0  0  0
  194.4140  174.8790  137.2350 C   0  0  2  0  0  3  0  0  0  0  0  0
  193.2190  175.3190  138.0870 C   0  0  2  0  0  3  0  0  0  0  0  0
  193.1760  176.3840  135.4560 C   0  0  0  0  0  2  0  0  0  0  0  0
  194.4080  175.5710  135.8530 C   0  0  1  0  0  0  0  0  0  0  0  0
  195.3290  172.7180  138.0930 C   0  0  0  0  0  3  0  0  0  0  0  0
  194.6890  170.5730  137.1450 C   0  0  0  0  0  0  0  0  0  0  0  0
  193.7690  172.6320  136.2470 C   0  0  0  0  0  3  0  0  0  0  0  0
  193.8620  171.2400  136.2290 C   0  0  0  0  0  3  0  0  0  0  0  0
  195.4220  171.3260  138.0770 C   0  0  0  0  0  3  0  0  0  0  0  0
  194.5060  173.3790  137.1770 C   0  0  0  0  0  0  0  0  0  0  0  0
  194.7720  169.1410  137.1280 N   0  0  0  0  0  0  0  0  0  0  0  0
  194.6910  168.4390  138.2850 O   0  0  0  0  0  1  0  0  0  0  0  0
  195.0770  168.4160  135.9030 C   0  0  0  0  0  1  0  0  0  0  0  0
  196.5060  174.3350  135.1420 C   0  0  0  0  0  2  0  0  0  0  0  0
  197.8410  175.0030  135.4060 C   0  0  0  0  0  2  0  0  0  0  0  0
  198.3910  174.5460  136.7450 C   0  0  0  0  0  2  0  0  0  0  0  0
  197.9590  175.4060  137.7560 O   0  0  0  0  0  1  0  0  0  0  0  0
  188.8140  174.8180  135.5240 O   0  0  0  0  0  0  0  0  0  0  0  0
  187.9290  173.9500  134.8810 C   0  0  0  0  0  2  0  0  0  0  0  0
  186.5150  174.5060  134.9530 C   0  0  0  0  0  2  0  0  0  0  0  0
  185.9450  174.3910  136.3630 C   0  0  0  0  0  2  0  0  0  0  0  0
  183.2500  173.7200  135.3250 O   0  0  0  0  0  0  0  0  0  0  0  0
  184.6730  175.2250  136.5590 C   0  0  1  0  0  0  0  0  0  0  0  0
  183.7580  175.0340  135.3620 C   0  0  2  0  0  3  0  0  0  0  0  0
  182.6430  174.6700  137.4220 C   0  0  1  0  0  3  0  0  0  0  0  0
  182.4470  174.7060  135.9240 C   0  0  2  0  0  3  0  0  0  0  0  0
  184.0100  174.8130  137.7290 O   0  0  0  0  0  0  0  0  0  0  0  0
  183.3480  177.7160  139.9230 C   0  0  0  0  0  2  0  0  0  0  0  0
  181.8270  175.7740  138.0950 C   0  0  1  0  0  3  0  0  0  0  0  0
  182.0100  177.0140  139.9630 C   0  0  2  0  0  0  0  0  0  0  0  0
  181.9610  175.6920  139.4990 O   0  0  0  0  0  0  0  0  0  0  0  0
  182.2770  178.0030  138.8680 C   0  0  2  0  0  0  0  0  0  0  0  0
  181.1210  177.3900  140.9700 O   0  0  0  0  0  1  0  0  0  0  0  0
  182.2770  177.1520  137.6190 C   0  0  2  0  0  3  0  0  0  0  0  0
  181.3590  177.6570  136.5490 C   0  0  0  0  0  0  0  0  0  0  0  0
  180.0210  177.2790  136.5280 O   0  0  0  0  0  1  0  0  0  0  0  0
  181.8070  178.4240  135.6590 O   0  0  0  0  0  0  0  0  0  0  0  0
  181.5170  179.3220  138.9930 C   0  0  0  0  0  2  0  0  0  0  0  0
  182.3990  180.3910  138.8420 O   0  0  0  0  0  0  0  0  0  0  0  0
  181.6320  181.3930  138.2480 C   0  0  0  0  0  1  0  0  0  0  0  0
  185.0830  176.9900  136.7050 S   0  0  0  0  0  0  0  0  0  0  0  0
  186.4460  177.0510  137.5630 C   0  0  0  0  0  2  0  0  0  0  0  0
  187.0540  178.3670  137.9010 C   0  0  0  0  0  2  0  0  0  0  0  0
  187.5370  178.9680  136.7410 O   0  0  0  0  0  1  0  0  0  0  0  0
  2  1  1  1  0  0  0
  2  3  1  0  0  0  0
  2 29  1  0  0  0  0
  4 15  1  0  0  0  0
  5  6  1  0  0  0  0
  6  9  1  0  0  0  0
  7 13  1  0  0  0  0
  7  5  1  1  0  0  0
  8  9  1  0  0  0  0
 10  3  1  6  0  0  0
 10  7  1  0  0  0  0
 11 25  1  1  0  0  0
 11  4  1  0  0  0  0
 11 15  1  0  0  0  0
 12 21  1  6  0  0  0
 12 13  1  0  0  0  0
 13  8  1  6  0  0  0
 14 10  1  0  0  0  0
 15 14  1  6  0  0  0
 15 12  1  0  0  0  0
 17 20  2  0  0  0  0
 18 21  1  0  0  0  0
 19 18  2  0  0  0  0
 19 17  1  0  0  0  0
 20 16  1  0  0  0  0
 21 16  2  0  0  0  0
 22 17  1  0  0  0  0
 22 23  1  0  0  0  0
 24 22  1  0  0  0  0
 25 26  1  0  0  0  0
 26 27  1  0  0  0  0
 27 28  1  0  0  0  0
 30 31  1  0  0  0  0
 30 29  1  0  0  0  0
 31 32  1  0  0  0  0
 34 32  1  6  0  0  0
 34 52  1  0  0  0  0
 34 38  1  0  0  0  0
 35 33  1  6  0  0  0
 35 37  1  0  0  0  0
 35 34  1  0  0  0  0
 36 38  1  6  0  0  0
 36 40  1  0  0  0  0
 37 33  1  6  0  0  0
 37 36  1  0  0  0  0
 39 41  1  0  0  0  0
 40 42  1  1  0  0  0
 41 44  1  1  0  0  0
 42 41  1  0  0  0  0
 43 49  1  1  0  0  0
 43 39  1  0  0  0  0
 43 41  1  0  0  0  0
 45 46  1  6  0  0  0
 45 40  1  0  0  0  0
 45 43  1  0  0  0  0
 47 46  1  0  0  0  0
 48 46  2  0  0  0  0
 50 49  1  0  0  0  0
 51 50  1  0  0  0  0
 52 53  1  0  0  0  0
 53 54  1  0  0  0  0
 55 54  1  0  0  0  0
M  END
>  <MODEL>
5

>  <REMARK>
 VINA RESULT:      -4.7      4.978     10.404
  Name = 
  18 active torsions:
  status: ('A' for Active; 'I' for Inactive)
    1  A    between atoms: C_1  and  C_53
    2  A    between atoms: C_4  and  C_35
    3  A    between atoms: C_4  and  O_37
    4  A    between atoms: C_6  and  C_22
    5  A    between atoms: C_8  and  C_43
    6  A    between atoms: C_8  and  S_51
    7  A    between atoms: N_10  and  C_32
    8  A    between atoms: O_11  and  C_29
    9  A    between atoms: S_19  and  C_26
   10  A    between atoms: S_19  and  C_40
   11  A    between atoms: C_24  and  C_44
   12  A    between atoms: C_27  and  C_54
   13  A    between atoms: C_28  and  C_31
   14  A    between atoms: C_29  and  C_38
   15  A    between atoms: C_31  and  C_44
   16  A    between atoms: C_33  and  C_52
   17  A    between atoms: C_35  and  C_43
   18  A    between atoms: O_37  and  C_40
                            x       y       z     vdW  Elec       q    Type
                         _______ _______ _______ _____ _____    ______ ____

>  <TORSDO>
F 18

$$$$
=
 OpenBabel10272401193D

 55 62  0  0  1  0  0  0  0  0999 V2000
  188.0440  176.9620  138.0780 C   0  0  0  0  0  1  0  0  0  0  0  0
  187.1670  176.2870  137.0460 C   0  0  1  0  0  3  0  0  0  0  0  0
  186.0700  177.5220  136.2860 S   0  0  0  0  0  0  0  0  0  0  0  0
  181.3180  177.8250  136.4560 O   0  0  0  0  0  0  0  0  0  0  0  0
  185.1630  174.0240  137.0010 C   0  0  0  0  0  2  0  0  0  0  0  0
  184.1200  173.1520  136.3040 C   0  0  0  0  0  2  0  0  0  0  0  0
  184.6080  175.4170  137.2940 C   0  0  1  0  0  3  0  0  0  0  0  0
  182.3360  174.5640  137.0650 O   0  0  0  0  0  0  0  0  0  0  0  0
  182.8060  173.2380  137.0750 C   0  0  0  0  0  2  0  0  0  0  0  0
  184.7180  176.3260  136.0550 C   0  0  1  0  0  3  0  0  0  0  0  0
  182.0900  178.9550  136.7720 C   0  0  2  0  0  3  0  0  0  0  0  0
  182.5920  176.7000  138.1490 C   0  0  2  0  0  3  0  0  0  0  0  0
  183.1890  175.3110  137.9050 C   0  0  2  0  0  3  0  0  0  0  0  0
  183.4200  177.0430  135.6680 C   0  0  0  0  0  2  0  0  0  0  0  0
  182.6380  177.5680  136.8720 C   0  0  1  0  0  0  0  0  0  0  0  0
  182.5640  177.2210  140.5920 C   0  0  0  0  0  3  0  0  0  0  0  0
  184.3390  178.4890  141.6660 C   0  0  0  0  0  0  0  0  0  0  0  0
  184.4270  178.0350  139.2830 C   0  0  0  0  0  3  0  0  0  0  0  0
  184.9860  178.6060  140.4270 C   0  0  0  0  0  3  0  0  0  0  0  0
  183.1220  177.7920  141.7380 C   0  0  0  0  0  3  0  0  0  0  0  0
  183.2110  177.3420  139.3600 C   0  0  0  0  0  0  0  0  0  0  0  0
  184.9250  179.0700  142.8400 N   0  0  0  0  0  0  0  0  0  0  0  0
  186.1870  178.7400  143.2080 O   0  0  0  0  0  1  0  0  0  0  0  0
  184.1460  179.9150  143.7330 C   0  0  0  0  0  1  0  0  0  0  0  0
  181.5960  179.5380  138.0830 C   0  0  0  0  0  2  0  0  0  0  0  0
  181.8720  181.0280  138.1160 C   0  0  0  0  0  2  0  0  0  0  0  0
  180.5830  181.7970  137.8950 C   0  0  0  0  0  2  0  0  0  0  0  0
  180.8460  183.1670  137.8510 O   0  0  0  0  0  1  0  0  0  0  0  0
  187.9690  175.7030  136.0630 O   0  0  0  0  0  0  0  0  0  0  0  0
  189.2590  176.1590  136.3430 C   0  0  0  0  0  2  0  0  0  0  0  0
  190.2750  175.0820  135.9950 C   0  0  0  0  0  2  0  0  0  0  0  0
  191.6010  175.6910  135.5530 C   0  0  0  0  0  2  0  0  0  0  0  0
  191.8440  172.7370  135.5260 O   0  0  0  0  0  0  0  0  0  0  0  0
  192.8140  174.8850  136.0340 C   0  0  1  0  0  0  0  0  0  0  0  0
  192.3450  173.5430  136.5670 C   0  0  2  0  0  3  0  0  0  0  0  0
  194.0840  173.3250  134.9710 C   0  0  1  0  0  3  0  0  0  0  0  0
  193.1840  172.5450  135.9020 C   0  0  2  0  0  3  0  0  0  0  0  0
  193.7030  174.6800  134.9630 O   0  0  0  0  0  0  0  0  0  0  0  0
  197.1710  175.7730  135.6800 C   0  0  0  0  0  2  0  0  0  0  0  0
  195.5460  173.1850  135.3960 C   0  0  1  0  0  3  0  0  0  0  0  0
  197.4300  174.3850  135.1400 C   0  0  2  0  0  0  0  0  0  0  0  0
  196.3920  173.7670  134.4280 O   0  0  0  0  0  0  0  0  0  0  0  0
  197.1160  174.5480  136.5960 C   0  0  2  0  0  0  0  0  0  0  0  0
  198.7440  174.0690  134.7940 O   0  0  0  0  0  1  0  0  0  0  0  0
  195.7860  173.8460  136.7500 C   0  0  2  0  0  3  0  0  0  0  0  0
  195.7720  172.8190  137.8400 C   0  0  0  0  0  0  0  0  0  0  0  0
  195.3880  173.1630  139.1310 O   0  0  0  0  0  1  0  0  0  0  0  0
  196.1160  171.6370  137.5820 O   0  0  0  0  0  0  0  0  0  0  0  0
  198.2990  174.3330  137.5380 C   0  0  0  0  0  2  0  0  0  0  0  0
  198.3090  175.3240  138.5180 O   0  0  0  0  0  0  0  0  0  0  0  0
  199.1800  174.8390  139.4930 C   0  0  0  0  0  1  0  0  0  0  0  0
  193.6840  175.7690  137.3610 S   0  0  0  0  0  0  0  0  0  0  0  0
  192.5310  176.3790  138.3080 C   0  0  0  0  0  2  0  0  0  0  0  0
  192.8980  177.2010  139.4930 C   0  0  0  0  0  2  0  0  0  0  0  0
  191.7520  177.4940  140.2290 O   0  0  0  0  0  1  0  0  0  0  0  0
  2  1  1  1  0  0  0
  3  2  1  0  0  0  0
  4 11  1  0  0  0  0
  4 15  1  0  0  0  0
  6  5  1  0  0  0  0
  6  9  1  0  0  0  0
  7  5  1  6  0  0  0
  7 13  1  0  0  0  0
  8  9  1  0  0  0  0
 10  3  1  1  0  0  0
 10  7  1  0  0  0  0
 11 15  1  0  0  0  0
 11 25  1  1  0  0  0
 12 21  1  1  0  0  0
 13  8  1  6  0  0  0
 13 12  1  0  0  0  0
 14 10  1  0  0  0  0
 15 14  1  6  0  0  0
 15 12  1  0  0  0  0
 16 20  1  0  0  0  0
 17 20  2  0  0  0  0
 17 22  1  0  0  0  0
 18 21  1  0  0  0  0
 18 19  2  0  0  0  0
 19 17  1  0  0  0  0
 21 16  2  0  0  0  0
 22 23  1  0  0  0  0
 22 24  1  0  0  0  0
 25 26  1  0  0  0  0
 27 26  1  0  0  0  0
 28 27  1  0  0  0  0
 29 30  1  0  0  0  0
 29  2  1  0  0  0  0
 31 30  1  0  0  0  0
 32 31  1  0  0  0  0
 34 32  1  6  0  0  0
 34 35  1  0  0  0  0
 34 52  1  0  0  0  0
 35 33  1  6  0  0  0
 36 38  1  1  0  0  0
 36 40  1  0  0  0  0
 36 37  1  0  0  0  0
 37 33  1  6  0  0  0
 37 35  1  0  0  0  0
 38 34  1  0  0  0  0
 39 43  1  0  0  0  0
 40 42  1  6  0  0  0
 40 45  1  0  0  0  0
 41 44  1  6  0  0  0
 41 39  1  0  0  0  0
 41 43  1  0  0  0  0
 42 41  1  0  0  0  0
 43 45  1  0  0  0  0
 43 49  1  1  0  0  0
 45 46  1  1  0  0  0
 46 47  1  0  0  0  0
 48 46  2  0  0  0  0
 49 50  1  0  0  0  0
 50 51  1  0  0  0  0
 52 53  1  0  0  0  0
 53 54  1  0  0  0  0
 54 55  1  0  0  0  0
M  END
>  <MODEL>
6

>  <REMARK>
 VINA RESULT:      -4.2      4.892      9.604
  Name = 
  18 active torsions:
  status: ('A' for Active; 'I' for Inactive)
    1  A    between atoms: C_1  and  C_53
    2  A    between atoms: C_4  and  C_35
    3  A    between atoms: C_4  and  O_37
    4  A    between atoms: C_6  and  C_22
    5  A    between atoms: C_8  and  C_43
    6  A    between atoms: C_8  and  S_51
    7  A    between atoms: N_10  and  C_32
    8  A    between atoms: O_11  and  C_29
    9  A    between atoms: S_19  and  C_26
   10  A    between atoms: S_19  and  C_40
   11  A    between atoms: C_24  and  C_44
   12  A    between atoms: C_27  and  C_54
   13  A    between atoms: C_28  and  C_31
   14  A    between atoms: C_29  and  C_38
   15  A    between atoms: C_31  and  C_44
   16  A    between atoms: C_33  and  C_52
   17  A    between atoms: C_35  and  C_43
   18  A    between atoms: O_37  and  C_40
                            x       y       z     vdW  Elec       q    Type
                         _______ _______ _______ _____ _____    ______ ____

>  <TORSDO>
F 18

$$$$
=
 OpenBabel10272401193D

 55 62  0  0  1  0  0  0  0  0999 V2000
  180.3630  178.0150  140.5240 C   0  0  0  0  0  1  0  0  0  0  0  0
  181.8400  177.8990  140.8320 C   0  0  1  0  0  3  0  0  0  0  0  0
  182.6100  176.7360  139.6650 S   0  0  0  0  0  0  0  0  0  0  0  0
  180.9370  174.3500  135.8960 O   0  0  0  0  0  0  0  0  0  0  0  0
  181.5760  179.5110  137.4730 C   0  0  0  0  0  2  0  0  0  0  0  0
  180.2530  179.6930  136.7320 C   0  0  0  0  0  2  0  0  0  0  0  0
  182.1020  178.0840  137.3190 C   0  0  1  0  0  3  0  0  0  0  0  0
  180.6800  177.7690  135.3630 O   0  0  0  0  0  0  0  0  0  0  0  0
  180.3990  179.1470  135.3140 C   0  0  0  0  0  2  0  0  0  0  0  0
  181.4350  177.1380  138.3350 C   0  0  1  0  0  3  0  0  0  0  0  0
  181.9240  173.7580  136.7010 C   0  0  2  0  0  3  0  0  0  0  0  0
  182.4670  176.1850  135.6750 C   0  0  2  0  0  3  0  0  0  0  0  0
  182.0010  177.6340  135.8400 C   0  0  2  0  0  3  0  0  0  0  0  0
  180.8430  175.8600  137.7300 C   0  0  0  0  0  2  0  0  0  0  0  0
  181.7270  175.2390  136.6480 C   0  0  1  0  0  0  0  0  0  0  0  0
  184.6910  176.0220  134.5480 C   0  0  0  0  0  3  0  0  0  0  0  0
  186.7750  175.9630  135.7990 C   0  0  0  0  0  0  0  0  0  0  0  0
  184.6510  176.1070  136.9650 C   0  0  0  0  0  3  0  0  0  0  0  0
  186.0440  176.0390  136.9930 C   0  0  0  0  0  3  0  0  0  0  0  0
  186.0850  175.9550  134.5750 C   0  0  0  0  0  3  0  0  0  0  0  0
  183.9660  176.0940  135.7410 C   0  0  0  0  0  0  0  0  0  0  0  0
  188.2080  175.9040  135.8350 N   0  0  0  0  0  0  0  0  0  0  0  0
  188.8360  175.1160  136.7430 O   0  0  0  0  0  1  0  0  0  0  0  0
  189.0210  176.7770  135.0020 C   0  0  0  0  0  1  0  0  0  0  0  0
  183.0360  173.2330  135.8110 C   0  0  0  0  0  2  0  0  0  0  0  0
  183.6940  172.0370  136.4680 C   0  0  0  0  0  2  0  0  0  0  0  0
  185.1530  172.3410  136.7530 C   0  0  0  0  0  2  0  0  0  0  0  0
  185.2990  172.7890  138.0670 O   0  0  0  0  0  1  0  0  0  0  0  0
  182.4400  179.1540  140.7090 O   0  0  0  0  0  0  0  0  0  0  0  0
  183.7900  178.8790  140.4780 C   0  0  0  0  0  2  0  0  0  0  0  0
  184.5900  179.1120  141.7510 C   0  0  0  0  0  2  0  0  0  0  0  0
  186.0690  178.8030  141.5420 C   0  0  0  0  0  2  0  0  0  0  0  0
  187.4710  176.2430  142.0600 O   0  0  0  0  0  0  0  0  0  0  0  0
  186.7840  178.4170  142.8420 C   0  0  1  0  0  0  0  0  0  0  0  0
  186.7040  176.9130  143.0320 C   0  0  2  0  0  3  0  0  0  0  0  0
  188.9200  177.7330  143.2230 C   0  0  1  0  0  3  0  0  0  0  0  0
  188.0750  176.4810  143.3060 C   0  0  2  0  0  3  0  0  0  0  0  0
  188.1330  178.8120  142.7770 O   0  0  0  0  0  0  0  0  0  0  0  0
  188.3620  176.6100  147.0250 C   0  0  0  0  0  2  0  0  0  0  0  0
  189.5400  178.0510  144.5840 C   0  0  1  0  0  3  0  0  0  0  0  0
  188.8550  178.0070  146.7260 C   0  0  2  0  0  0  0  0  0  0  0  0
  188.5520  178.5420  145.4660 O   0  0  0  0  0  0  0  0  0  0  0  0
  189.8240  176.8650  146.6520 C   0  0  2  0  0  0  0  0  0  0  0  0
  188.9740  178.8860  147.8020 O   0  0  0  0  0  1  0  0  0  0  0  0
  190.1950  176.8130  145.1880 C   0  0  2  0  0  3  0  0  0  0  0  0
  191.6710  176.8330  144.9420 C   0  0  0  0  0  0  0  0  0  0  0  0
  192.3560  178.0400  144.8470 O   0  0  0  0  0  1  0  0  0  0  0  0
  192.2940  175.7480  144.8130 O   0  0  0  0  0  0  0  0  0  0  0  0
  190.8470  176.8150  147.7850 C   0  0  0  0  0  2  0  0  0  0  0  0
  191.5200  175.5950  147.7610 O   0  0  0  0  0  0  0  0  0  0  0  0
  192.7110  175.8410  148.4420 C   0  0  0  0  0  1  0  0  0  0  0  0
  186.0010  179.2290  144.2670 S   0  0  0  0  0  0  0  0  0  0  0  0
  185.7130  178.0550  145.3330 C   0  0  0  0  0  2  0  0  0  0  0  0
  185.0400  178.3690  146.6230 C   0  0  0  0  0  2  0  0  0  0  0  0
  185.8180  179.2700  147.3470 O   0  0  0  0  0  1  0  0  0  0  0  0
  2  1  1  6  0  0  0
  3  2  1  0  0  0  0
  4 15  1  0  0  0  0
  4 11  1  0  0  0  0
  6  5  1  0  0  0  0
  7  5  1  6  0  0  0
  7 10  1  0  0  0  0
  9  8  1  0  0  0  0
  9  6  1  0  0  0  0
 10  3  1  1  0  0  0
 11 25  1  6  0  0  0
 12 21  1  1  0  0  0
 12 13  1  0  0  0  0
 12 15  1  0  0  0  0
 13  8  1  1  0  0  0
 13  7  1  0  0  0  0
 14 10  1  0  0  0  0
 15 11  1  0  0  0  0
 15 14  1  1  0  0  0
 16 20  2  0  0  0  0
 16 21  1  0  0  0  0
 17 22  1  0  0  0  0
 17 19  2  0  0  0  0
 18 19  1  0  0  0  0
 20 17  1  0  0  0  0
 21 18  2  0  0  0  0
 22 23  1  0  0  0  0
 24 22  1  0  0  0  0
 25 26  1  0  0  0  0
 26 27  1  0  0  0  0
 27 28  1  0  0  0  0
 29  2  1  0  0  0  0
 30 29  1  0  0  0  0
 30 31  1  0  0  0  0
 32 31  1  0  0  0  0
 34 32  1  6  0  0  0
 34 35  1  0  0  0  0
 34 52  1  0  0  0  0
 35 33  1  6  0  0  0
 35 37  1  0  0  0  0
 36 38  1  1  0  0  0
 36 37  1  0  0  0  0
 36 40  1  0  0  0  0
 37 33  1  6  0  0  0
 38 34  1  0  0  0  0
 40 45  1  0  0  0  0
 40 42  1  1  0  0  0
 41 39  1  0  0  0  0
 41 44  1  1  0  0  0
 42 41  1  0  0  0  0
 43 41  1  0  0  0  0
 43 39  1  0  0  0  0
 43 49  1  1  0  0  0
 45 46  1  1  0  0  0
 45 43  1  0  0  0  0
 47 46  1  0  0  0  0
 48 46  2  0  0  0  0
 50 49  1  0  0  0  0
 50 51  1  0  0  0  0
 52 53  1  0  0  0  0
 53 54  1  0  0  0  0
 54 55  1  0  0  0  0
M  END
>  <MODEL>
7

>  <REMARK>
 VINA RESULT:      -4.1      1.492      2.669
  Name = 
  18 active torsions:
  status: ('A' for Active; 'I' for Inactive)
    1  A    between atoms: C_1  and  C_53
    2  A    between atoms: C_4  and  C_35
    3  A    between atoms: C_4  and  O_37
    4  A    between atoms: C_6  and  C_22
    5  A    between atoms: C_8  and  C_43
    6  A    between atoms: C_8  and  S_51
    7  A    between atoms: N_10  and  C_32
    8  A    between atoms: O_11  and  C_29
    9  A    between atoms: S_19  and  C_26
   10  A    between atoms: S_19  and  C_40
   11  A    between atoms: C_24  and  C_44
   12  A    between atoms: C_27  and  C_54
   13  A    between atoms: C_28  and  C_31
   14  A    between atoms: C_29  and  C_38
   15  A    between atoms: C_31  and  C_44
   16  A    between atoms: C_33  and  C_52
   17  A    between atoms: C_35  and  C_43
   18  A    between atoms: O_37  and  C_40
                            x       y       z     vdW  Elec       q    Type
                         _______ _______ _______ _____ _____    ______ ____

>  <TORSDO>
F 18

$$$$
=
 OpenBabel10272401193D

 55 62  0  0  1  0  0  0  0  0999 V2000
  184.9800  179.1910  141.3130 C   0  0  0  0  0  1  0  0  0  0  0  0
  183.5350  178.8580  141.6120 C   0  0  1  0  0  3  0  0  0  0  0  0
  183.1010  177.2840  140.8130 S   0  0  0  0  0  0  0  0  0  0  0  0
  180.3120  175.7280  137.2770 O   0  0  0  0  0  0  0  0  0  0  0  0
  182.1110  180.4650  139.2400 C   0  0  0  0  0  2  0  0  0  0  0  0
  180.7130  180.9340  138.8440 C   0  0  0  0  0  2  0  0  0  0  0  0
  182.3490  179.0180  138.8100 C   0  0  1  0  0  3  0  0  0  0  0  0
  180.5220  179.1920  137.2060 O   0  0  0  0  0  0  0  0  0  0  0  0
  180.4690  180.5870  137.3780 C   0  0  0  0  0  2  0  0  0  0  0  0
  181.7600  178.0340  139.8370 C   0  0  1  0  0  3  0  0  0  0  0  0
  181.3320  174.8960  137.7640 C   0  0  2  0  0  3  0  0  0  0  0  0
  182.0460  177.3480  136.9230 C   0  0  2  0  0  3  0  0  0  0  0  0
  181.8720  178.8080  137.3520 C   0  0  2  0  0  3  0  0  0  0  0  0
  180.8520  176.9520  139.2420 C   0  0  0  0  0  2  0  0  0  0  0  0
  181.3770  176.3810  137.9250 C   0  0  1  0  0  0  0  0  0  0  0  0
  183.9110  176.9640  135.3060 C   0  0  0  0  0  3  0  0  0  0  0  0
  186.1870  176.5180  136.0370 C   0  0  0  0  0  0  0  0  0  0  0  0
  184.4230  176.8670  137.6670 C   0  0  0  0  0  3  0  0  0  0  0  0
  185.7610  176.6030  137.3700 C   0  0  0  0  0  3  0  0  0  0  0  0
  185.2490  176.7000  135.0070 C   0  0  0  0  0  3  0  0  0  0  0  0
  183.4910  177.0450  136.6360 C   0  0  0  0  0  0  0  0  0  0  0  0
  187.5660  176.2570  135.7380 N   0  0  0  0  0  0  0  0  0  0  0  0
  188.1050  175.0420  136.0090 O   0  0  0  0  0  1  0  0  0  0  0  0
  188.4500  177.3120  135.2660 C   0  0  0  0  0  1  0  0  0  0  0  0
  182.1330  174.3590  136.5910 C   0  0  0  0  0  2  0  0  0  0  0  0
  182.7650  173.0340  136.9680 C   0  0  0  0  0  2  0  0  0  0  0  0
  184.2580  173.2130  137.1710 C   0  0  0  0  0  2  0  0  0  0  0  0
  184.9610  172.3930  136.2880 O   0  0  0  0  0  1  0  0  0  0  0  0
  183.3590  178.7480  142.9930 O   0  0  0  0  0  0  0  0  0  0  0  0
  184.5500  178.1880  143.4580 C   0  0  0  0  0  2  0  0  0  0  0  0
  184.8980  178.7680  144.8200 C   0  0  0  0  0  2  0  0  0  0  0  0
  185.8640  177.8640  145.5790 C   0  0  0  0  0  2  0  0  0  0  0  0
  186.6540  175.7720  143.6340 O   0  0  0  0  0  0  0  0  0  0  0  0
  187.2290  177.7450  144.8930 C   0  0  1  0  0  0  0  0  0  0  0  0
  187.5260  176.2830  144.6140 C   0  0  2  0  0  3  0  0  0  0  0  0
  187.7860  177.6410  142.6900 C   0  0  1  0  0  3  0  0  0  0  0  0
  187.9120  176.2250  143.2040 C   0  0  2  0  0  3  0  0  0  0  0  0
  187.2160  178.4610  143.6810 O   0  0  0  0  0  0  0  0  0  0  0  0
  191.5990  176.4400  142.9140 C   0  0  0  0  0  2  0  0  0  0  0  0
  189.1540  178.1830  142.2730 C   0  0  1  0  0  3  0  0  0  0  0  0
  191.2790  177.9170  142.9590 C   0  0  2  0  0  0  0  0  0  0  0  0
  190.0000  178.2870  143.3990 O   0  0  0  0  0  0  0  0  0  0  0  0
  191.2560  177.2110  141.6370 C   0  0  2  0  0  0  0  0  0  0  0  0
  192.3370  178.7920  143.2050 O   0  0  0  0  0  1  0  0  0  0  0  0
  189.8030  177.2800  141.2270 C   0  0  2  0  0  3  0  0  0  0  0  0
  189.5920  177.8400  139.8550 C   0  0  0  0  0  0  0  0  0  0  0  0
  189.6570  177.0160  138.7370 O   0  0  0  0  0  0  0  0  0  0  0  0
  189.3600  179.0680  139.7150 O   0  0  0  0  0  1  0  0  0  0  0  0
  192.4140  177.5550  140.7030 C   0  0  0  0  0  2  0  0  0  0  0  0
  192.2620  176.8810  139.4930 O   0  0  0  0  0  0  0  0  0  0  0  0
  193.5390  176.8780  138.9330 C   0  0  0  0  0  1  0  0  0  0  0  0
  188.5410  178.4150  145.9570 S   0  0  0  0  0  0  0  0  0  0  0  0
  189.3340  177.1340  146.5300 C   0  0  0  0  0  2  0  0  0  0  0  0
  190.4680  177.3230  147.4750 C   0  0  0  0  0  2  0  0  0  0  0  0
  191.6520  176.9030  146.8720 O   0  0  0  0  0  1  0  0  0  0  0  0
  2  1  1  1  0  0  0
  2 29  1  0  0  0  0
  3  2  1  0  0  0  0
  4 11  1  0  0  0  0
  4 15  1  0  0  0  0
  6  5  1  0  0  0  0
  7  5  1  1  0  0  0
  7 10  1  0  0  0  0
  8  9  1  0  0  0  0
  9  6  1  0  0  0  0
 10  3  1  6  0  0  0
 11 25  1  6  0  0  0
 11 15  1  0  0  0  0
 12 21  1  1  0  0  0
 12 13  1  0  0  0  0
 12 15  1  0  0  0  0
 13  8  1  1  0  0  0
 13  7  1  0  0  0  0
 14 10  1  0  0  0  0
 15 14  1  1  0  0  0
 16 21  1  0  0  0  0
 17 19  2  0  0  0  0
 19 18  1  0  0  0  0
 20 16  2  0  0  0  0
 20 17  1  0  0  0  0
 21 18  2  0  0  0  0
 22 23  1  0  0  0  0
 22 17  1  0  0  0  0
 24 22  1  0  0  0  0
 25 26  1  0  0  0  0
 26 27  1  0  0  0  0
 28 27  1  0  0  0  0
 29 30  1  0  0  0  0
 30 31  1  0  0  0  0
 31 32  1  0  0  0  0
 34 32  1  1  0  0  0
 34 52  1  0  0  0  0
 35 33  1  6  0  0  0
 35 34  1  0  0  0  0
 36 37  1  0  0  0  0
 36 38  1  1  0  0  0
 37 33  1  6  0  0  0
 37 35  1  0  0  0  0
 38 34  1  0  0  0  0
 39 41  1  0  0  0  0
 40 36  1  0  0  0  0
 40 42  1  1  0  0  0
 41 44  1  1  0  0  0
 41 42  1  0  0  0  0
 43 49  1  6  0  0  0
 43 39  1  0  0  0  0
 43 41  1  0  0  0  0
 45 46  1  6  0  0  0
 45 43  1  0  0  0  0
 45 40  1  0  0  0  0
 47 46  2  0  0  0  0
 48 46  1  0  0  0  0
 50 49  1  0  0  0  0
 51 50  1  0  0  0  0
 52 53  1  0  0  0  0
 53 54  1  0  0  0  0
 55 54  1  0  0  0  0
M  END
>  <MODEL>
8

>  <REMARK>
 VINA RESULT:      -4.0      2.069      4.100
  Name = 
  18 active torsions:
  status: ('A' for Active; 'I' for Inactive)
    1  A    between atoms: C_1  and  C_53
    2  A    between atoms: C_4  and  C_35
    3  A    between atoms: C_4  and  O_37
    4  A    between atoms: C_6  and  C_22
    5  A    between atoms: C_8  and  C_43
    6  A    between atoms: C_8  and  S_51
    7  A    between atoms: N_10  and  C_32
    8  A    between atoms: O_11  and  C_29
    9  A    between atoms: S_19  and  C_26
   10  A    between atoms: S_19  and  C_40
   11  A    between atoms: C_24  and  C_44
   12  A    between atoms: C_27  and  C_54
   13  A    between atoms: C_28  and  C_31
   14  A    between atoms: C_29  and  C_38
   15  A    between atoms: C_31  and  C_44
   16  A    between atoms: C_33  and  C_52
   17  A    between atoms: C_35  and  C_43
   18  A    between atoms: O_37  and  C_40
                            x       y       z     vdW  Elec       q    Type
                         _______ _______ _______ _____ _____    ______ ____

>  <TORSDO>
F 18

$$$$
=
 OpenBabel10272401193D

 55 62  0  0  1  0  0  0  0  0999 V2000
  186.5940  177.3000  138.6880 C   0  0  0  0  0  1  0  0  0  0  0  0
  186.5940  176.5620  137.3670 C   0  0  1  0  0  3  0  0  0  0  0  0
  185.3730  177.3200  136.2530 S   0  0  0  0  0  0  0  0  0  0  0  0
  181.0660  176.0020  134.7000 O   0  0  0  0  0  0  0  0  0  0  0  0
  185.2770  173.8000  137.3370 C   0  0  0  0  0  2  0  0  0  0  0  0
  184.8860  172.5670  136.5250 C   0  0  0  0  0  2  0  0  0  0  0  0
  184.2860  174.9420  137.1160 C   0  0  1  0  0  3  0  0  0  0  0  0
  182.6290  173.3500  136.3030 O   0  0  0  0  0  0  0  0  0  0  0  0
  183.4070  172.2690  136.7560 C   0  0  0  0  0  2  0  0  0  0  0  0
  184.6180  175.7200  135.8290 C   0  0  1  0  0  3  0  0  0  0  0  0
  181.2990  177.3500  135.0160 C   0  0  2  0  0  3  0  0  0  0  0  0
  181.8240  175.5320  136.9280 C   0  0  2  0  0  3  0  0  0  0  0  0
  182.8330  174.4130  137.2060 C   0  0  2  0  0  3  0  0  0  0  0  0
  183.4350  175.9140  134.8730 C   0  0  0  0  0  2  0  0  0  0  0  0
  182.1270  176.2460  135.5920 C   0  0  1  0  0  0  0  0  0  0  0  0
  182.7840  177.2810  138.4320 C   0  0  0  0  0  3  0  0  0  0  0  0
  181.5280  178.2220  140.2890 C   0  0  0  0  0  0  0  0  0  0  0  0
  180.5340  176.5140  138.8800 C   0  0  0  0  0  3  0  0  0  0  0  0
  180.4480  177.3900  139.9620 C   0  0  0  0  0  3  0  0  0  0  0  0
  182.6980  178.1580  139.5140 C   0  0  0  0  0  3  0  0  0  0  0  0
  181.7050  176.4520  138.1110 C   0  0  0  0  0  0  0  0  0  0  0  0
  181.4290  179.1280  141.3970 N   0  0  0  0  0  0  0  0  0  0  0  0
  180.6880  180.2590  141.2890 O   0  0  0  0  0  1  0  0  0  0  0  0
  182.2150  178.9330  142.6050 C   0  0  0  0  0  1  0  0  0  0  0  0
  180.1840  177.8440  135.9190 C   0  0  0  0  0  2  0  0  0  0  0  0
  179.9840  179.3330  135.7170 C   0  0  0  0  0  2  0  0  0  0  0  0
  180.4340  180.0880  136.9530 C   0  0  0  0  0  2  0  0  0  0  0  0
  181.0220  181.2990  136.5850 O   0  0  0  0  0  1  0  0  0  0  0  0
  187.8640  176.6360  136.7920 O   0  0  0  0  0  0  0  0  0  0  0  0
  188.5350  177.6060  137.5400 C   0  0  0  0  0  2  0  0  0  0  0  0
  189.7380  178.1170  136.7630 C   0  0  0  0  0  2  0  0  0  0  0  0
  190.9230  177.1630  136.8820 C   0  0  0  0  0  2  0  0  0  0  0  0
  193.2340  177.6560  138.6710 O   0  0  0  0  0  0  0  0  0  0  0  0
  191.0960  176.6060  138.3000 C   0  0  1  0  0  0  0  0  0  0  0  0
  192.5740  176.4140  138.5870 C   0  0  2  0  0  3  0  0  0  0  0  0
  191.4780  177.6600  140.2790 C   0  0  1  0  0  3  0  0  0  0  0  0
  192.8090  177.0680  139.8750 C   0  0  2  0  0  3  0  0  0  0  0  0
  190.5490  177.5060  139.2330 O   0  0  0  0  0  0  0  0  0  0  0  0
  191.7010  178.3220  144.2210 C   0  0  0  0  0  2  0  0  0  0  0  0
  190.9610  176.9930  141.5540 C   0  0  1  0  0  3  0  0  0  0  0  0
  191.6010  176.9040  143.7090 C   0  0  2  0  0  0  0  0  0  0  0  0
  192.0420  176.6580  142.4000 O   0  0  0  0  0  0  0  0  0  0  0  0
  190.3620  177.7460  143.7550 C   0  0  2  0  0  0  0  0  0  0  0  0
  191.7190  175.8760  144.6450 O   0  0  0  0  0  1  0  0  0  0  0  0
  189.9960  177.9120  142.2980 C   0  0  2  0  0  3  0  0  0  0  0  0
  188.5800  177.5370  141.9880 C   0  0  0  0  0  0  0  0  0  0  0  0
  187.5480  178.4500  142.1770 O   0  0  0  0  0  1  0  0  0  0  0  0
  188.3240  176.3820  141.5590 O   0  0  0  0  0  0  0  0  0  0  0  0
  189.3590  177.3560  144.8390 C   0  0  0  0  0  2  0  0  0  0  0  0
  189.2490  178.3860  145.7720 O   0  0  0  0  0  0  0  0  0  0  0  0
  188.9220  177.7410  146.9640 C   0  0  0  0  0  1  0  0  0  0  0  0
  190.2560  175.0040  138.4640 S   0  0  0  0  0  0  0  0  0  0  0  0
  190.3770  174.2980  137.0200 C   0  0  0  0  0  2  0  0  0  0  0  0
  189.7590  172.9640  136.7890 C   0  0  0  0  0  2  0  0  0  0  0  0
  188.4000  173.0220  137.0890 O   0  0  0  0  0  1  0  0  0  0  0  0
  2  1  1  1  0  0  0
  3  2  1  0  0  0  0
  4 11  1  0  0  0  0
  4 15  1  0  0  0  0
  6  9  1  0  0  0  0
  6  5  1  0  0  0  0
  7 13  1  0  0  0  0
  7  5  1  6  0  0  0
  8  9  1  0  0  0  0
 10  3  1  1  0  0  0
 10  7  1  0  0  0  0
 11 15  1  0  0  0  0
 11 25  1  1  0  0  0
 12 13  1  0  0  0  0
 12 21  1  1  0  0  0
 13  8  1  6  0  0  0
 14 10  1  0  0  0  0
 15 14  1  6  0  0  0
 15 12  1  0  0  0  0
 16 20  1  0  0  0  0
 17 22  1  0  0  0  0
 18 19  2  0  0  0  0
 19 17  1  0  0  0  0
 20 17  2  0  0  0  0
 21 16  2  0  0  0  0
 21 18  1  0  0  0  0
 22 24  1  0  0  0  0
 23 22  1  0  0  0  0
 26 25  1  0  0  0  0
 26 27  1  0  0  0  0
 28 27  1  0  0  0  0
 29  2  1  0  0  0  0
 29 30  1  0  0  0  0
 31 32  1  0  0  0  0
 31 30  1  0  0  0  0
 34 32  1  6  0  0  0
 34 52  1  0  0  0  0
 34 35  1  0  0  0  0
 34 38  1  0  0  0  0
 35 33  1  6  0  0  0
 35 37  1  0  0  0  0
 36 38  1  6  0  0  0
 36 40  1  0  0  0  0
 37 33  1  6  0  0  0
 37 36  1  0  0  0  0
 40 45  1  0  0  0  0
 40 42  1  1  0  0  0
 41 43  1  0  0  0  0
 41 39  1  0  0  0  0
 41 44  1  1  0  0  0
 42 41  1  0  0  0  0
 43 39  1  0  0  0  0
 43 49  1  1  0  0  0
 45 46  1  1  0  0  0
 45 43  1  0  0  0  0
 46 47  1  0  0  0  0
 48 46  2  0  0  0  0
 49 50  1  0  0  0  0
 50 51  1  0  0  0  0
 53 52  1  0  0  0  0
 54 53  1  0  0  0  0
 54 55  1  0  0  0  0
M  END
>  <MODEL>
9

>  <REMARK>
 VINA RESULT:      -3.5      2.673      6.594
  Name = 
  18 active torsions:
  status: ('A' for Active; 'I' for Inactive)
    1  A    between atoms: C_1  and  C_53
    2  A    between atoms: C_4  and  C_35
    3  A    between atoms: C_4  and  O_37
    4  A    between atoms: C_6  and  C_22
    5  A    between atoms: C_8  and  C_43
    6  A    between atoms: C_8  and  S_51
    7  A    between atoms: N_10  and  C_32
    8  A    between atoms: O_11  and  C_29
    9  A    between atoms: S_19  and  C_26
   10  A    between atoms: S_19  and  C_40
   11  A    between atoms: C_24  and  C_44
   12  A    between atoms: C_27  and  C_54
   13  A    between atoms: C_28  and  C_31
   14  A    between atoms: C_29  and  C_38
   15  A    between atoms: C_31  and  C_44
   16  A    between atoms: C_33  and  C_52
   17  A    between atoms: C_35  and  C_43
   18  A    between atoms: O_37  and  C_40
                            x       y       z     vdW  Elec       q    Type
                         _______ _______ _______ _____ _____    ______ ____

>  <TORSDO>
F 18

$$$$
