=
 OpenBabel10272402043D

 32 37  0  0  1  0  0  0  0  0999 V2000
  184.9100  177.6170  138.6160 C   0  0  1  0  0  3  0  0  0  0  0  0
  185.7500  178.2520  140.7640 C   0  0  1  0  0  3  0  0  0  0  0  0
  184.9830  177.7600  137.0860 C   0  0  0  0  0  2  0  0  0  0  0  0
  185.9310  178.4190  139.3190 N   0  0  1  0  0  0  0  0  0  0  0  0
  186.8090  179.0550  141.5110 C   0  0  1  0  0  3  0  0  0  0  0  0
  182.8710  178.7450  144.7150 C   0  0  0  0  0  3  0  0  0  0  0  0
  184.3610  178.7270  141.2010 C   0  0  1  0  0  3  0  0  0  0  0  0
  185.2840  178.8430  144.9040 C   0  0  0  0  0  3  0  0  0  0  0  0
  185.3980  178.8180  143.5110 C   0  0  0  0  0  0  0  0  0  0  0  0
  187.2830  177.9010  139.0180 C   0  0  2  0  0  3  0  0  0  0  0  0
  186.6660  178.8710  142.9190 O   0  0  0  0  0  0  0  0  0  0  0  0
  188.2710  178.7350  139.5950 O   0  0  0  0  0  0  0  0  0  0  0  0
  187.5630  177.7600  137.5190 C   0  0  0  0  0  2  0  0  0  0  0  0
  183.3470  177.8700  140.5890 N   0  0  0  0  0  2  0  0  0  0  0  0
  183.4750  177.8970  139.1290 C   0  0  1  0  0  3  0  0  0  0  0  0
  184.2380  178.7220  142.7090 C   0  0  0  0  0  0  0  0  0  0  0  0
  188.1980  178.6490  141.0090 C   0  0  2  0  0  3  0  0  0  0  0  0
  186.4090  178.7450  136.5180 S   0  0  0  0  0  0  0  0  0  0  0  0
  184.0230  178.8050  145.5050 C   0  0  0  0  0  3  0  0  0  0  0  0
  182.9780  178.7110  143.3220 C   0  0  0  0  0  3  0  0  0  0  0  0
  181.0120  179.8970  136.9330 C   0  0  0  0  0  0  0  0  0  0  0  0
  180.0740  179.7260  135.9650 F   0  0  0  0  0  0  0  0  0  0  0  0
  182.2340  181.3470  138.3830 N   0  0  0  0  0  0  0  0  0  0  0  0
  182.6600  178.9910  138.4760 C   0  0  0  0  0  0  0  0  0  0  0  0
  181.3050  181.1810  137.4060 C   0  0  0  0  0  0  0  0  0  0  0  0
  182.9070  180.2950  138.9150 C   0  0  0  0  0  3  0  0  0  0  0  0
  181.6940  178.7920  137.4620 C   0  0  0  0  0  0  0  0  0  0  0  0
  181.3590  177.4380  136.9350 C   0  0  0  0  0  1  0  0  0  0  0  0
  181.2510  183.5340  137.2460 O   0  0  0  0  0  1  0  0  0  0  0  0
  180.5780  182.3700  136.8780 C   0  0  0  0  0  2  0  0  0  0  0  0
  188.6520  177.2830  141.5290 C   0  0  0  0  0  2  0  0  0  0  0  0
  189.9900  177.0710  141.1970 O   0  0  0  0  0  1  0  0  0  0  0  0
  1  3  1  6  0  0  0
  1 15  1  0  0  0  0
  1  4  1  0  0  0  0
  2  7  1  0  0  0  0
  2  5  1  0  0  0  0
  4  2  1  0  0  0  0
  5 11  1  0  0  0  0
  6 19  1  0  0  0  0
  7 16  1  0  0  0  0
  8 19  2  0  0  0  0
  9  8  1  0  0  0  0
 10  4  1  0  0  0  0
 10 12  1  0  0  0  0
 11  9  1  0  0  0  0
 12 17  1  0  0  0  0
 13 10  1  0  0  0  0
 14  7  1  0  0  0  0
 15 14  1  0  0  0  0
 16 20  1  0  0  0  0
 16  9  2  0  0  0  0
 17  5  1  0  0  0  0
 17 31  1  0  0  0  0
 18  3  1  0  0  0  0
 18 13  1  0  0  0  0
 20  6  2  0  0  0  0
 21 25  2  0  0  0  0
 21 27  1  0  0  0  0
 22 21  1  0  0  0  0
 23 26  2  0  0  0  0
 24 26  1  0  0  0  0
 24 15  1  0  0  0  0
 25 23  1  0  0  0  0
 27 24  2  0  0  0  0
 28 27  1  0  0  0  0
 30 29  1  0  0  0  0
 30 25  1  0  0  0  0
 32 31  1  0  0  0  0
M  END
>  <MODEL>
1

>  <REMARK>
 VINA RESULT:      -6.8      0.000      0.000
  Name = 
  3 active torsions:
  status: ('A' for Active; 'I' for Inactive)
    1  A    between atoms: C_13  and  C_29
    2  A    between atoms: C_16  and  C_27
    3  A    between atoms: CA_19  and  C_26
                            x       y       z     vdW  Elec       q    Type
                         _______ _______ _______ _____ _____    ______ ____

>  <TORSDO>
F 3

$$$$
=
 OpenBabel10272402043D

 32 37  0  0  1  0  0  0  0  0999 V2000
  185.1310  179.3670  142.6760 C   0  0  1  0  0  3  0  0  0  0  0  0
  187.1450  178.0770  142.6220 C   0  0  1  0  0  3  0  0  0  0  0  0
  183.7070  179.5500  143.2290 C   0  0  0  0  0  2  0  0  0  0  0  0
  185.8210  178.1910  143.2410 N   0  0  1  0  0  0  0  0  0  0  0  0
  187.8860  176.8800  143.2070 C   0  0  1  0  0  3  0  0  0  0  0  0
  189.8360  177.5020  138.5510 C   0  0  0  0  0  3  0  0  0  0  0  0
  187.0270  177.9000  141.1050 C   0  0  1  0  0  3  0  0  0  0  0  0
  190.6400  176.7340  140.7020 C   0  0  0  0  0  3  0  0  0  0  0  0
  189.4020  177.0340  141.2770 C   0  0  0  0  0  0  0  0  0  0  0  0
  186.0670  178.3880  144.6870 C   0  0  2  0  0  3  0  0  0  0  0  0
  189.1910  176.7810  142.6390 O   0  0  0  0  0  0  0  0  0  0  0  0
  186.6230  177.2180  145.2570 O   0  0  0  0  0  0  0  0  0  0  0  0
  184.8100  178.7770  145.4710 C   0  0  0  0  0  2  0  0  0  0  0  0
  186.4380  179.1060  140.5260 N   0  0  0  0  0  2  0  0  0  0  0  0
  185.1270  179.3680  141.1270 C   0  0  1  0  0  3  0  0  0  0  0  0
  188.3770  177.6050  140.4890 C   0  0  0  0  0  0  0  0  0  0  0  0
  187.9240  177.0070  144.7330 C   0  0  2  0  0  3  0  0  0  0  0  0
  183.2900  178.3750  144.5590 S   0  0  0  0  0  0  0  0  0  0  0  0
  190.8570  176.9680  139.3420 C   0  0  0  0  0  3  0  0  0  0  0  0
  188.5970  177.8120  139.1210 C   0  0  0  0  0  3  0  0  0  0  0  0
  182.1780  178.5640  138.7710 C   0  0  0  0  0  0  0  0  0  0  0  0
  181.4330  179.1150  137.7780 F   0  0  0  0  0  0  0  0  0  0  0  0
  182.6640  176.7110  140.1950 N   0  0  0  0  0  0  0  0  0  0  0  0
  183.9860  178.6980  140.3930 C   0  0  0  0  0  0  0  0  0  0  0  0
  181.9090  177.2620  139.2100 C   0  0  0  0  0  0  0  0  0  0  0  0
  183.6770  177.3930  140.7860 C   0  0  0  0  0  3  0  0  0  0  0  0
  183.2180  179.2940  139.3670 C   0  0  0  0  0  0  0  0  0  0  0  0
  183.4770  180.6790  138.8780 C   0  0  0  0  0  1  0  0  0  0  0  0
  180.7270  175.2210  139.2170 O   0  0  0  0  0  1  0  0  0  0  0  0
  180.8260  176.4570  138.5790 C   0  0  0  0  0  2  0  0  0  0  0  0
  188.9230  178.0570  145.2260 C   0  0  0  0  0  2  0  0  0  0  0  0
  189.6980  177.5250  146.2570 O   0  0  0  0  0  1  0  0  0  0  0  0
  1  3  1  1  0  0  0
  1  4  1  0  0  0  0
  2  5  1  0  0  0  0
  2  4  1  0  0  0  0
  3 18  1  0  0  0  0
  4 10  1  0  0  0  0
  5 17  1  0  0  0  0
  6 20  2  0  0  0  0
  6 19  1  0  0  0  0
  7  2  1  0  0  0  0
  8  9  1  0  0  0  0
  9 11  1  0  0  0  0
 10 12  1  0  0  0  0
 10 13  1  0  0  0  0
 11  5  1  0  0  0  0
 14  7  1  0  0  0  0
 14 15  1  0  0  0  0
 15  1  1  0  0  0  0
 16  7  1  0  0  0  0
 16  9  2  0  0  0  0
 17 31  1  0  0  0  0
 17 12  1  0  0  0  0
 18 13  1  0  0  0  0
 19  8  2  0  0  0  0
 20 16  1  0  0  0  0
 21 25  2  0  0  0  0
 21 27  1  0  0  0  0
 22 21  1  0  0  0  0
 23 26  2  0  0  0  0
 24 26  1  0  0  0  0
 24 15  1  0  0  0  0
 25 23  1  0  0  0  0
 27 24  2  0  0  0  0
 28 27  1  0  0  0  0
 30 25  1  0  0  0  0
 30 29  1  0  0  0  0
 31 32  1  0  0  0  0
M  END
>  <MODEL>
2

>  <REMARK>
 VINA RESULT:      -6.8      2.963      5.417
  Name = 
  3 active torsions:
  status: ('A' for Active; 'I' for Inactive)
    1  A    between atoms: C_13  and  C_29
    2  A    between atoms: C_16  and  C_27
    3  A    between atoms: CA_19  and  C_26
                            x       y       z     vdW  Elec       q    Type
                         _______ _______ _______ _____ _____    ______ ____

>  <TORSDO>
F 3

$$$$
=
 OpenBabel10272402043D

 32 37  0  0  1  0  0  0  0  0999 V2000
  187.1990  178.8170  139.8670 C   0  0  1  0  0  3  0  0  0  0  0  0
  186.9480  178.2370  142.1740 C   0  0  1  0  0  3  0  0  0  0  0  0
  186.6520  178.7450  138.4300 C   0  0  0  0  0  2  0  0  0  0  0  0
  186.3220  178.1540  140.8510 N   0  0  1  0  0  0  0  0  0  0  0  0
  186.0480  177.5760  143.2120 C   0  0  1  0  0  3  0  0  0  0  0  0
  190.7590  177.1670  145.0850 C   0  0  0  0  0  3  0  0  0  0  0  0
  188.3130  177.5420  142.1780 C   0  0  1  0  0  3  0  0  0  0  0  0
  188.5270  177.4280  145.9890 C   0  0  0  0  0  3  0  0  0  0  0  0
  188.0100  177.5220  144.6940 C   0  0  0  0  0  0  0  0  0  0  0  0
  185.0390  178.8820  140.9640 C   0  0  2  0  0  3  0  0  0  0  0  0
  186.6300  177.6840  144.5100 O   0  0  0  0  0  0  0  0  0  0  0  0
  184.1500  178.1860  141.8190 O   0  0  0  0  0  0  0  0  0  0  0  0
  184.3520  179.1200  139.6160 C   0  0  0  0  0  2  0  0  0  0  0  0
  189.2190  178.2580  141.2820 N   0  0  0  0  0  2  0  0  0  0  0  0
  188.6600  178.3050  139.9280 C   0  0  1  0  0  3  0  0  0  0  0  0
  188.8780  177.4710  143.5800 C   0  0  0  0  0  0  0  0  0  0  0  0
  184.6540  178.2060  143.1450 C   0  0  2  0  0  3  0  0  0  0  0  0
  184.9870  178.0100  138.3250 S   0  0  0  0  0  0  0  0  0  0  0  0
  189.9000  177.2510  146.1840 C   0  0  0  0  0  3  0  0  0  0  0  0
  190.2490  177.2690  143.7870 C   0  0  0  0  0  3  0  0  0  0  0  0
  190.6080  175.4820  138.1600 C   0  0  0  0  0  0  0  0  0  0  0  0
  191.8480  174.9320  138.0880 F   0  0  0  0  0  0  0  0  0  0  0  0
  188.3220  175.5040  137.4710 N   0  0  0  0  0  0  0  0  0  0  0  0
  189.0630  177.1250  139.0720 C   0  0  0  0  0  0  0  0  0  0  0  0
  189.5640  174.9600  137.3860 C   0  0  0  0  0  0  0  0  0  0  0  0
  188.0580  176.5600  138.2820 C   0  0  0  0  0  3  0  0  0  0  0  0
  190.3630  176.5750  139.0050 C   0  0  0  0  0  0  0  0  0  0  0  0
  191.4970  177.1070  139.8140 C   0  0  0  0  0  1  0  0  0  0  0  0
  188.7850  172.8410  136.7050 O   0  0  0  0  0  1  0  0  0  0  0  0
  189.7900  173.7850  136.4990 C   0  0  0  0  0  2  0  0  0  0  0  0
  184.5940  179.6050  143.7640 C   0  0  0  0  0  2  0  0  0  0  0  0
  183.8610  179.5670  144.9500 O   0  0  0  0  0  1  0  0  0  0  0  0
  1  3  1  6  0  0  0
  1 15  1  0  0  0  0
  1  4  1  0  0  0  0
  2  7  1  0  0  0  0
  2  5  1  0  0  0  0
  4 10  1  0  0  0  0
  4  2  1  0  0  0  0
  5 11  1  0  0  0  0
  6 19  1  0  0  0  0
  7 16  1  0  0  0  0
  8 19  2  0  0  0  0
  9  8  1  0  0  0  0
 10 12  1  0  0  0  0
 11  9  1  0  0  0  0
 12 17  1  0  0  0  0
 13 10  1  0  0  0  0
 14  7  1  0  0  0  0
 15 14  1  0  0  0  0
 16 20  1  0  0  0  0
 16  9  2  0  0  0  0
 17  5  1  0  0  0  0
 17 31  1  0  0  0  0
 18  3  1  0  0  0  0
 18 13  1  0  0  0  0
 20  6  2  0  0  0  0
 21 27  1  0  0  0  0
 22 21  1  0  0  0  0
 23 26  2  0  0  0  0
 24 15  1  0  0  0  0
 25 23  1  0  0  0  0
 25 21  2  0  0  0  0
 26 24  1  0  0  0  0
 27 24  2  0  0  0  0
 27 28  1  0  0  0  0
 30 29  1  0  0  0  0
 30 25  1  0  0  0  0
 31 32  1  0  0  0  0
M  END
>  <MODEL>
3

>  <REMARK>
 VINA RESULT:      -6.7      3.823      6.935
  Name = 
  3 active torsions:
  status: ('A' for Active; 'I' for Inactive)
    1  A    between atoms: C_13  and  C_29
    2  A    between atoms: C_16  and  C_27
    3  A    between atoms: CA_19  and  C_26
                            x       y       z     vdW  Elec       q    Type
                         _______ _______ _______ _____ _____    ______ ____

>  <TORSDO>
F 3

$$$$
=
 OpenBabel10272402043D

 32 37  0  0  1  0  0  0  0  0999 V2000
  183.9750  179.2820  141.5430 C   0  0  1  0  0  3  0  0  0  0  0  0
  185.6850  178.5040  143.0250 C   0  0  1  0  0  3  0  0  0  0  0  0
  182.4910  179.2770  141.1370 C   0  0  0  0  0  2  0  0  0  0  0  0
  184.2460  178.4720  142.7470 N   0  0  1  0  0  0  0  0  0  0  0  0
  185.9850  177.6900  144.2780 C   0  0  1  0  0  3  0  0  0  0  0  0
  190.2660  177.5370  141.5360 C   0  0  0  0  0  3  0  0  0  0  0  0
  186.4820  177.9290  141.8500 C   0  0  1  0  0  3  0  0  0  0  0  0
  189.6870  177.5350  143.8870 C   0  0  0  0  0  3  0  0  0  0  0  0
  188.3370  177.6870  143.5590 C   0  0  0  0  0  0  0  0  0  0  0  0
  183.5920  179.0770  143.9280 C   0  0  2  0  0  3  0  0  0  0  0  0
  187.3780  177.7450  144.5800 O   0  0  0  0  0  0  0  0  0  0  0  0
  183.7510  178.2430  145.0610 O   0  0  0  0  0  0  0  0  0  0  0  0
  182.1010  179.3600  143.7220 C   0  0  0  0  0  2  0  0  0  0  0  0
  186.3010  178.7870  140.6810 N   0  0  0  0  0  2  0  0  0  0  0  0
  184.8770  178.8930  140.3460 C   0  0  1  0  0  3  0  0  0  0  0  0
  187.9470  177.7970  142.2050 C   0  0  0  0  0  0  0  0  0  0  0  0
  185.1190  178.2020  145.4330 C   0  0  2  0  0  3  0  0  0  0  0  0
  181.4170  178.4130  142.3300 S   0  0  0  0  0  0  0  0  0  0  0  0
  190.6500  177.4620  142.8780 C   0  0  0  0  0  3  0  0  0  0  0  0
  188.9180  177.6960  141.2000 C   0  0  0  0  0  3  0  0  0  0  0  0
  184.3990  176.5740  137.2990 C   0  0  0  0  0  0  0  0  0  0  0  0
  184.8980  176.3370  136.0580 F   0  0  0  0  0  0  0  0  0  0  0  0
  182.8560  176.0300  139.0370 N   0  0  0  0  0  0  0  0  0  0  0  0
  184.4060  177.8230  139.3870 C   0  0  0  0  0  0  0  0  0  0  0  0
  183.3440  175.7980  137.7900 C   0  0  0  0  0  0  0  0  0  0  0  0
  183.3570  177.0120  139.8280 C   0  0  0  0  0  3  0  0  0  0  0  0
  184.9340  177.5990  138.0940 C   0  0  0  0  0  0  0  0  0  0  0  0
  186.0560  178.4090  137.5400 C   0  0  0  0  0  1  0  0  0  0  0  0
  183.5540  173.5440  137.1280 O   0  0  0  0  0  1  0  0  0  0  0  0
  182.7730  174.6880  136.9760 C   0  0  0  0  0  2  0  0  0  0  0  0
  185.6030  179.5380  146.0020 C   0  0  0  0  0  2  0  0  0  0  0  0
  185.6930  179.4550  147.3920 O   0  0  0  0  0  1  0  0  0  0  0  0
  1  3  1  6  0  0  0
  1  4  1  0  0  0  0
  2  5  1  0  0  0  0
  3 18  1  0  0  0  0
  4  2  1  0  0  0  0
  4 10  1  0  0  0  0
  5 11  1  0  0  0  0
  5 17  1  0  0  0  0
  6 19  1  0  0  0  0
  7 16  1  0  0  0  0
  7  2  1  0  0  0  0
  9  8  1  0  0  0  0
  9 11  1  0  0  0  0
 10 12  1  0  0  0  0
 12 17  1  0  0  0  0
 13 10  1  0  0  0  0
 14  7  1  0  0  0  0
 15 14  1  0  0  0  0
 15  1  1  0  0  0  0
 16  9  2  0  0  0  0
 17 31  1  0  0  0  0
 18 13  1  0  0  0  0
 19  8  2  0  0  0  0
 20  6  2  0  0  0  0
 20 16  1  0  0  0  0
 21 25  2  0  0  0  0
 21 27  1  0  0  0  0
 22 21  1  0  0  0  0
 23 26  2  0  0  0  0
 24 26  1  0  0  0  0
 24 15  1  0  0  0  0
 25 23  1  0  0  0  0
 27 24  2  0  0  0  0
 28 27  1  0  0  0  0
 30 29  1  0  0  0  0
 30 25  1  0  0  0  0
 31 32  1  0  0  0  0
M  END
>  <MODEL>
4

>  <REMARK>
 VINA RESULT:      -5.9      3.521      5.548
  Name = 
  3 active torsions:
  status: ('A' for Active; 'I' for Inactive)
    1  A    between atoms: C_13  and  C_29
    2  A    between atoms: C_16  and  C_27
    3  A    between atoms: CA_19  and  C_26
                            x       y       z     vdW  Elec       q    Type
                         _______ _______ _______ _____ _____    ______ ____

>  <TORSDO>
F 3

$$$$
=
 OpenBabel10272402043D

 32 37  0  0  1  0  0  0  0  0999 V2000
  182.3580  179.5380  140.5910 C   0  0  1  0  0  3  0  0  0  0  0  0
  184.3940  178.8630  141.6500 C   0  0  1  0  0  3  0  0  0  0  0  0
  180.8280  179.4110  140.4920 C   0  0  0  0  0  2  0  0  0  0  0  0
  182.9370  178.7080  141.6660 N   0  0  1  0  0  0  0  0  0  0  0  0
  185.0130  178.0310  142.7670 C   0  0  1  0  0  3  0  0  0  0  0  0
  188.6360  178.3890  139.2150 C   0  0  0  0  0  3  0  0  0  0  0  0
  184.9780  178.4130  140.3070 C   0  0  1  0  0  3  0  0  0  0  0  0
  188.5550  178.2390  141.6300 C   0  0  0  0  0  3  0  0  0  0  0  0
  187.1590  178.2760  141.5900 C   0  0  0  0  0  0  0  0  0  0  0  0
  182.4930  179.2020  142.9880 C   0  0  2  0  0  3  0  0  0  0  0  0
  186.4290  178.2030  142.7850 O   0  0  0  0  0  0  0  0  0  0  0  0
  182.9500  178.3410  144.0150 O   0  0  0  0  0  0  0  0  0  0  0  0
  180.9730  179.3530  143.1030 C   0  0  0  0  0  2  0  0  0  0  0  0
  184.4890  179.2980  139.2500 N   0  0  0  0  0  2  0  0  0  0  0  0
  183.0240  179.2830  139.2160 C   0  0  1  0  0  3  0  0  0  0  0  0
  186.4900  178.4040  140.3510 C   0  0  0  0  0  0  0  0  0  0  0  0
  184.3640  178.4130  144.1000 C   0  0  2  0  0  3  0  0  0  0  0  0
  180.0970  178.4030  141.8240 S   0  0  0  0  0  0  0  0  0  0  0  0
  189.2920  178.2960  140.4450 C   0  0  0  0  0  3  0  0  0  0  0  0
  187.2390  178.4360  139.1670 C   0  0  0  0  0  3  0  0  0  0  0  0
  181.1220  177.3620  136.4630 C   0  0  0  0  0  0  0  0  0  0  0  0
  180.2920  177.5660  135.4070 F   0  0  0  0  0  0  0  0  0  0  0  0
  182.3580  175.8640  137.8510 N   0  0  0  0  0  0  0  0  0  0  0  0
  182.4560  178.2130  138.3100 C   0  0  0  0  0  0  0  0  0  0  0  0
  181.5180  176.0630  136.8020 C   0  0  0  0  0  0  0  0  0  0  0  0
  182.8230  176.8960  138.5990 C   0  0  0  0  0  3  0  0  0  0  0  0
  181.5850  178.4470  137.2210 C   0  0  0  0  0  0  0  0  0  0  0  0
  181.1430  179.8180  136.8340 C   0  0  0  0  0  1  0  0  0  0  0  0
  181.3680  173.7130  136.6710 O   0  0  0  0  0  1  0  0  0  0  0  0
  181.0600  174.8950  136.0000 C   0  0  0  0  0  2  0  0  0  0  0  0
  184.8420  179.7650  144.6380 C   0  0  0  0  0  2  0  0  0  0  0  0
  185.2320  179.6320  145.9710 O   0  0  0  0  0  1  0  0  0  0  0  0
  1  3  1  6  0  0  0
  1  4  1  0  0  0  0
  2  4  1  0  0  0  0
  2  5  1  0  0  0  0
  3 18  1  0  0  0  0
  4 10  1  0  0  0  0
  5 11  1  0  0  0  0
  5 17  1  0  0  0  0
  6 19  1  0  0  0  0
  7 16  1  0  0  0  0
  7  2  1  0  0  0  0
  9  8  1  0  0  0  0
  9 11  1  0  0  0  0
 10 13  1  0  0  0  0
 10 12  1  0  0  0  0
 12 17  1  0  0  0  0
 14  7  1  0  0  0  0
 15 14  1  0  0  0  0
 15  1  1  0  0  0  0
 16  9  2  0  0  0  0
 17 31  1  0  0  0  0
 18 13  1  0  0  0  0
 19  8  2  0  0  0  0
 20  6  2  0  0  0  0
 20 16  1  0  0  0  0
 21 25  2  0  0  0  0
 21 27  1  0  0  0  0
 22 21  1  0  0  0  0
 23 26  2  0  0  0  0
 24 26  1  0  0  0  0
 24 15  1  0  0  0  0
 25 23  1  0  0  0  0
 27 24  2  0  0  0  0
 28 27  1  0  0  0  0
 30 29  1  0  0  0  0
 30 25  1  0  0  0  0
 31 32  1  0  0  0  0
M  END
>  <MODEL>
5

>  <REMARK>
 VINA RESULT:      -5.9      2.739      5.158
  Name = 
  3 active torsions:
  status: ('A' for Active; 'I' for Inactive)
    1  A    between atoms: C_13  and  C_29
    2  A    between atoms: C_16  and  C_27
    3  A    between atoms: CA_19  and  C_26
                            x       y       z     vdW  Elec       q    Type
                         _______ _______ _______ _____ _____    ______ ____

>  <TORSDO>
F 3

$$$$
=
 OpenBabel10272402043D

 32 37  0  0  1  0  0  0  0  0999 V2000
  182.9160  179.2510  138.7650 C   0  0  1  0  0  3  0  0  0  0  0  0
  182.7830  178.8690  141.1230 C   0  0  1  0  0  3  0  0  0  0  0  0
  182.3210  179.0210  137.3650 C   0  0  0  0  0  2  0  0  0  0  0  0
  182.1140  178.6340  139.8400 N   0  0  1  0  0  0  0  0  0  0  0  0
  181.9610  178.2590  142.2520 C   0  0  1  0  0  3  0  0  0  0  0  0
  186.7540  178.2650  143.9540 C   0  0  0  0  0  3  0  0  0  0  0  0
  184.1840  178.2490  141.1310 C   0  0  1  0  0  3  0  0  0  0  0  0
  184.5470  178.4900  144.9240 C   0  0  0  0  0  3  0  0  0  0  0  0
  183.9760  178.4400  143.6500 C   0  0  0  0  0  0  0  0  0  0  0  0
  180.7980  179.3020  139.9430 C   0  0  2  0  0  3  0  0  0  0  0  0
  182.5840  178.5130  143.5100 O   0  0  0  0  0  0  0  0  0  0  0  0
  179.9820  178.6410  140.8920 O   0  0  0  0  0  0  0  0  0  0  0  0
  180.0490  179.3810  138.6090 C   0  0  0  0  0  2  0  0  0  0  0  0
  185.0150  178.9270  140.1380 N   0  0  0  0  0  2  0  0  0  0  0  0
  184.4040  178.8230  138.8100 C   0  0  1  0  0  3  0  0  0  0  0  0
  184.8040  178.3340  142.5090 C   0  0  0  0  0  0  0  0  0  0  0  0
  180.5320  178.8070  142.1890 C   0  0  2  0  0  3  0  0  0  0  0  0
  180.6970  178.1940  137.3950 S   0  0  0  0  0  0  0  0  0  0  0  0
  185.9330  178.4030  145.0770 C   0  0  0  0  0  3  0  0  0  0  0  0
  186.1910  178.2230  142.6750 C   0  0  0  0  0  3  0  0  0  0  0  0
  186.2640  176.3150  136.5420 C   0  0  0  0  0  0  0  0  0  0  0  0
  187.3550  176.2180  135.7390 F   0  0  0  0  0  0  0  0  0  0  0  0
  184.3360  175.3090  137.5270 N   0  0  0  0  0  0  0  0  0  0  0  0
  184.8400  177.5930  138.0440 C   0  0  0  0  0  0  0  0  0  0  0  0
  185.4180  175.2120  136.7120 C   0  0  0  0  0  0  0  0  0  0  0  0
  184.0350  176.4590  138.1810 C   0  0  0  0  0  3  0  0  0  0  0  0
  185.9750  177.5170  137.2050 C   0  0  0  0  0  0  0  0  0  0  0  0
  186.8950  178.6730  137.0010 C   0  0  0  0  0  1  0  0  0  0  0  0
  186.3910  173.0740  136.9200 O   0  0  0  0  0  1  0  0  0  0  0  0
  185.7150  173.9170  136.0390 C   0  0  0  0  0  2  0  0  0  0  0  0
  180.4180  180.2510  142.6840 C   0  0  0  0  0  2  0  0  0  0  0  0
  179.9820  180.2630  144.0090 O   0  0  0  0  0  1  0  0  0  0  0  0
  1  3  1  6  0  0  0
  1 15  1  0  0  0  0
  1  4  1  0  0  0  0
  2  7  1  0  0  0  0
  2  5  1  0  0  0  0
  3 18  1  0  0  0  0
  4 10  1  0  0  0  0
  4  2  1  0  0  0  0
  5 11  1  0  0  0  0
  6 19  1  0  0  0  0
  7 16  1  0  0  0  0
  8 19  2  0  0  0  0
  9  8  1  0  0  0  0
 10 12  1  0  0  0  0
 11  9  1  0  0  0  0
 12 17  1  0  0  0  0
 13 10  1  0  0  0  0
 14  7  1  0  0  0  0
 15 14  1  0  0  0  0
 16 20  1  0  0  0  0
 16  9  2  0  0  0  0
 17  5  1  0  0  0  0
 17 31  1  0  0  0  0
 18 13  1  0  0  0  0
 20  6  2  0  0  0  0
 21 25  2  0  0  0  0
 21 27  1  0  0  0  0
 22 21  1  0  0  0  0
 23 26  2  0  0  0  0
 24 26  1  0  0  0  0
 24 15  1  0  0  0  0
 25 23  1  0  0  0  0
 27 24  2  0  0  0  0
 28 27  1  0  0  0  0
 30 25  1  0  0  0  0
 30 29  1  0  0  0  0
 31 32  1  0  0  0  0
M  END
>  <MODEL>
6

>  <REMARK>
 VINA RESULT:      -5.7      3.254      5.858
  Name = 
  3 active torsions:
  status: ('A' for Active; 'I' for Inactive)
    1  A    between atoms: C_13  and  C_29
    2  A    between atoms: C_16  and  C_27
    3  A    between atoms: CA_19  and  C_26
                            x       y       z     vdW  Elec       q    Type
                         _______ _______ _______ _____ _____    ______ ____

>  <TORSDO>
F 3

$$$$
=
 OpenBabel10272402043D

 32 37  0  0  1  0  0  0  0  0999 V2000
  186.5600  178.7130  139.3430 C   0  0  1  0  0  3  0  0  0  0  0  0
  184.2640  178.2050  139.7850 C   0  0  1  0  0  3  0  0  0  0  0  0
  187.8790  178.3220  138.6540 C   0  0  0  0  0  2  0  0  0  0  0  0
  185.4580  177.7740  139.0520 N   0  0  1  0  0  0  0  0  0  0  0  0
  183.1060  177.2620  139.4820 C   0  0  1  0  0  3  0  0  0  0  0  0
  182.1060  179.1560  144.0960 C   0  0  0  0  0  3  0  0  0  0  0  0
  184.5220  178.2140  141.2950 C   0  0  1  0  0  3  0  0  0  0  0  0
  180.8150  178.4130  142.1850 C   0  0  0  0  0  3  0  0  0  0  0  0
  181.9940  178.1910  141.4700 C   0  0  0  0  0  0  0  0  0  0  0  0
  185.0970  177.8390  137.6180 C   0  0  2  0  0  3  0  0  0  0  0  0
  181.9280  177.6930  140.1610 O   0  0  0  0  0  0  0  0  0  0  0  0
  184.1220  176.8600  137.3100 O   0  0  0  0  0  0  0  0  0  0  0  0
  186.2950  177.6630  136.6800 C   0  0  0  0  0  2  0  0  0  0  0  0
  185.5410  179.2160  141.6020 N   0  0  0  0  0  2  0  0  0  0  0  0
  186.7730  178.9300  140.8610 C   0  0  1  0  0  3  0  0  0  0  0  0
  183.2450  178.4840  142.0600 C   0  0  0  0  0  0  0  0  0  0  0  0
  182.9050  177.1790  137.9660 C   0  0  2  0  0  3  0  0  0  0  0  0
  187.7130  176.9010  137.5230 S   0  0  0  0  0  0  0  0  0  0  0  0
  180.8700  178.8960  143.4960 C   0  0  0  0  0  3  0  0  0  0  0  0
  183.2900  178.9440  143.3830 C   0  0  0  0  0  3  0  0  0  0  0  0
  188.5940  176.8580  143.5600 C   0  0  0  0  0  0  0  0  0  0  0  0
  188.5240  176.5370  144.8780 F   0  0  0  0  0  0  0  0  0  0  0  0
  189.6830  176.6530  141.4460 N   0  0  0  0  0  0  0  0  0  0  0  0
  187.7250  178.0220  141.6090 C   0  0  0  0  0  0  0  0  0  0  0  0
  189.6250  176.3410  142.7660 C   0  0  0  0  0  0  0  0  0  0  0  0
  188.7710  177.4720  140.8640 C   0  0  0  0  0  3  0  0  0  0  0  0
  187.6390  177.7090  142.9850 C   0  0  0  0  0  0  0  0  0  0  0  0
  186.5550  178.2440  143.8580 C   0  0  0  0  0  1  0  0  0  0  0  0
  191.6060  176.1480  144.0320 O   0  0  0  0  0  1  0  0  0  0  0  0
  190.6380  175.4150  143.3460 C   0  0  0  0  0  2  0  0  0  0  0  0
  182.2420  178.4260  137.3760 C   0  0  0  0  0  2  0  0  0  0  0  0
  181.8090  178.1610  136.0770 O   0  0  0  0  0  1  0  0  0  0  0  0
  1  3  1  1  0  0  0
  1 15  1  0  0  0  0
  2  7  1  0  0  0  0
  4  1  1  0  0  0  0
  4  2  1  0  0  0  0
  5  2  1  0  0  0  0
  5 11  1  0  0  0  0
  7 14  1  0  0  0  0
  7 16  1  0  0  0  0
  8 19  2  0  0  0  0
  9 16  2  0  0  0  0
  9  8  1  0  0  0  0
 10  4  1  0  0  0  0
 11  9  1  0  0  0  0
 12 10  1  0  0  0  0
 12 17  1  0  0  0  0
 13 18  1  0  0  0  0
 13 10  1  0  0  0  0
 15 14  1  0  0  0  0
 15 24  1  0  0  0  0
 16 20  1  0  0  0  0
 17  5  1  0  0  0  0
 18  3  1  0  0  0  0
 19  6  1  0  0  0  0
 20  6  2  0  0  0  0
 21 22  1  0  0  0  0
 23 25  1  0  0  0  0
 24 27  2  0  0  0  0
 25 30  1  0  0  0  0
 25 21  2  0  0  0  0
 26 23  2  0  0  0  0
 26 24  1  0  0  0  0
 27 21  1  0  0  0  0
 27 28  1  0  0  0  0
 30 29  1  0  0  0  0
 31 17  1  0  0  0  0
 32 31  1  0  0  0  0
M  END
>  <MODEL>
7

>  <REMARK>
 VINA RESULT:      -5.4      3.353      6.833
  Name = 
  3 active torsions:
  status: ('A' for Active; 'I' for Inactive)
    1  A    between atoms: C_13  and  C_29
    2  A    between atoms: C_16  and  C_27
    3  A    between atoms: CA_19  and  C_26
                            x       y       z     vdW  Elec       q    Type
                         _______ _______ _______ _____ _____    ______ ____

>  <TORSDO>
F 3

$$$$
=
 OpenBabel10272402043D

 32 37  0  0  1  0  0  0  0  0999 V2000
  184.7440  177.7850  136.4400 C   0  0  1  0  0  3  0  0  0  0  0  0
  183.6570  177.6670  138.5680 C   0  0  1  0  0  3  0  0  0  0  0  0
  185.0470  177.1220  135.0850 C   0  0  0  0  0  2  0  0  0  0  0  0
  183.8480  176.9760  137.2890 N   0  0  1  0  0  0  0  0  0  0  0  0
  182.7160  176.8600  139.4540 C   0  0  1  0  0  3  0  0  0  0  0  0
  185.6290  179.5080  142.6750 C   0  0  0  0  0  3  0  0  0  0  0  0
  184.9930  177.8540  139.2940 C   0  0  1  0  0  3  0  0  0  0  0  0
  183.3510  178.6870  142.6380 C   0  0  0  0  0  3  0  0  0  0  0  0
  183.5410  178.2050  141.3400 C   0  0  0  0  0  0  0  0  0  0  0  0
  182.5050  176.8860  136.6750 C   0  0  2  0  0  3  0  0  0  0  0  0
  182.4940  177.5410  140.6880 O   0  0  0  0  0  0  0  0  0  0  0  0
  181.6760  176.0170  137.4240 O   0  0  0  0  0  0  0  0  0  0  0  0
  182.5320  176.4150  135.2170 C   0  0  0  0  0  2  0  0  0  0  0  0
  185.8480  178.7400  138.5050 N   0  0  0  0  0  2  0  0  0  0  0  0
  186.0530  178.1840  137.1650 C   0  0  1  0  0  3  0  0  0  0  0  0
  184.7780  178.4030  140.6870 C   0  0  0  0  0  0  0  0  0  0  0  0
  181.4140  176.5910  138.6950 C   0  0  2  0  0  3  0  0  0  0  0  0
  184.0970  175.5920  134.7990 S   0  0  0  0  0  0  0  0  0  0  0  0
  184.3920  179.3380  143.3040 C   0  0  0  0  0  3  0  0  0  0  0  0
  185.8240  179.0360  141.3730 C   0  0  0  0  0  3  0  0  0  0  0  0
  189.6240  176.7420  136.9130 C   0  0  0  0  0  0  0  0  0  0  0  0
  190.9240  177.1320  136.8560 F   0  0  0  0  0  0  0  0  0  0  0  0
  187.9980  174.9950  136.9470 N   0  0  0  0  0  0  0  0  0  0  0  0
  187.2540  177.2690  137.0720 C   0  0  0  0  0  0  0  0  0  0  0  0
  189.2980  175.3810  136.8770 C   0  0  0  0  0  0  0  0  0  0  0  0
  186.9880  175.8980  137.0390 C   0  0  0  0  0  3  0  0  0  0  0  0
  188.6000  177.6970  137.0050 C   0  0  0  0  0  0  0  0  0  0  0  0
  188.9810  179.1380  137.0390 C   0  0  0  0  0  1  0  0  0  0  0  0
  191.0390  174.2770  138.0230 O   0  0  0  0  0  1  0  0  0  0  0  0
  190.3660  174.3460  136.8030 C   0  0  0  0  0  2  0  0  0  0  0  0
  180.5080  177.8210  138.5970 C   0  0  0  0  0  2  0  0  0  0  0  0
  179.9820  178.1220  139.8530 O   0  0  0  0  0  1  0  0  0  0  0  0
  1  3  1  6  0  0  0
  1 15  1  0  0  0  0
  1  4  1  0  0  0  0
  2  7  1  0  0  0  0
  2  5  1  0  0  0  0
  4  2  1  0  0  0  0
  5 11  1  0  0  0  0
  6 19  1  0  0  0  0
  7 16  1  0  0  0  0
  8 19  2  0  0  0  0
  9  8  1  0  0  0  0
 10  4  1  0  0  0  0
 10 12  1  0  0  0  0
 11  9  1  0  0  0  0
 12 17  1  0  0  0  0
 13 10  1  0  0  0  0
 14  7  1  0  0  0  0
 15 14  1  0  0  0  0
 16  9  2  0  0  0  0
 16 20  1  0  0  0  0
 17  5  1  0  0  0  0
 18  3  1  0  0  0  0
 18 13  1  0  0  0  0
 20  6  2  0  0  0  0
 21 27  1  0  0  0  0
 22 21  1  0  0  0  0
 23 26  2  0  0  0  0
 24 15  1  0  0  0  0
 25 21  2  0  0  0  0
 25 23  1  0  0  0  0
 26 24  1  0  0  0  0
 27 28  1  0  0  0  0
 27 24  2  0  0  0  0
 30 25  1  0  0  0  0
 30 29  1  0  0  0  0
 31 17  1  0  0  0  0
 31 32  1  0  0  0  0
M  END
>  <MODEL>
8

>  <REMARK>
 VINA RESULT:      -5.2      3.482      6.680
  Name = 
  3 active torsions:
  status: ('A' for Active; 'I' for Inactive)
    1  A    between atoms: C_13  and  C_29
    2  A    between atoms: C_16  and  C_27
    3  A    between atoms: CA_19  and  C_26
                            x       y       z     vdW  Elec       q    Type
                         _______ _______ _______ _____ _____    ______ ____

>  <TORSDO>
F 3

$$$$
=
 OpenBabel10272402043D

 32 37  0  0  1  0  0  0  0  0999 V2000
  189.0390  178.0050  138.9550 C   0  0  1  0  0  3  0  0  0  0  0  0
  187.7840  176.6860  137.4030 C   0  0  1  0  0  3  0  0  0  0  0  0
  190.1560  178.0760  140.0110 C   0  0  0  0  0  2  0  0  0  0  0  0
  188.8950  176.6620  138.3590 N   0  0  1  0  0  0  0  0  0  0  0  0
  187.6290  175.3140  136.7580 C   0  0  1  0  0  3  0  0  0  0  0  0
  182.9970  177.4050  136.5560 C   0  0  0  0  0  3  0  0  0  0  0  0
  186.4720  177.0630  138.0990 C   0  0  1  0  0  3  0  0  0  0  0  0
  184.2950  175.8770  135.1960 C   0  0  0  0  0  3  0  0  0  0  0  0
  185.3880  176.0370  136.0520 C   0  0  0  0  0  0  0  0  0  0  0  0
  190.0990  176.3220  137.5690 C   0  0  2  0  0  3  0  0  0  0  0  0
  186.5740  175.3350  135.7990 O   0  0  0  0  0  0  0  0  0  0  0  0
  190.0160  174.9910  137.0920 O   0  0  0  0  0  0  0  0  0  0  0  0
  191.4070  176.4920  138.3480 C   0  0  0  0  0  2  0  0  0  0  0  0
  186.5720  178.4320  138.6020 N   0  0  0  0  0  2  0  0  0  0  0  0
  187.7060  178.5520  139.5230 C   0  0  1  0  0  3  0  0  0  0  0  0
  185.2990  176.9150  137.1560 C   0  0  0  0  0  0  0  0  0  0  0  0
  188.9670  174.8920  136.1430 C   0  0  2  0  0  3  0  0  0  0  0  0
  191.1270  176.5380  140.1440 S   0  0  0  0  0  0  0  0  0  0  0  0
  183.1020  176.5600  135.4460 C   0  0  0  0  0  3  0  0  0  0  0  0
  184.0900  177.5760  137.4110 C   0  0  0  0  0  3  0  0  0  0  0  0
  185.8900  178.2320  142.9120 C   0  0  0  0  0  0  0  0  0  0  0  0
  184.6950  178.4900  143.5040 F   0  0  0  0  0  0  0  0  0  0  0  0
  188.1170  177.3850  143.0530 N   0  0  0  0  0  0  0  0  0  0  0  0
  187.3440  178.2610  140.9620 C   0  0  0  0  0  0  0  0  0  0  0  0
  186.9280  177.6530  143.6520 C   0  0  0  0  0  0  0  0  0  0  0  0
  188.3420  177.6760  141.7460 C   0  0  0  0  0  3  0  0  0  0  0  0
  186.0950  178.5460  141.5600 C   0  0  0  0  0  0  0  0  0  0  0  0
  184.9700  179.1630  140.8010 C   0  0  0  0  0  1  0  0  0  0  0  0
  187.6620  177.9600  145.8720 O   0  0  0  0  0  1  0  0  0  0  0  0
  186.7290  177.2880  145.0820 C   0  0  0  0  0  2  0  0  0  0  0  0
  189.2930  175.6330  134.8430 C   0  0  0  0  0  2  0  0  0  0  0  0
  190.5210  175.1980  134.3460 O   0  0  0  0  0  1  0  0  0  0  0  0
  1 15  1  0  0  0  0
  1  3  1  1  0  0  0
  2  7  1  0  0  0  0
  2  4  1  0  0  0  0
  3 18  1  0  0  0  0
  4  1  1  0  0  0  0
  5  2  1  0  0  0  0
  6 20  1  0  0  0  0
  7 14  1  0  0  0  0
  8 19  1  0  0  0  0
  8  9  2  0  0  0  0
  9 16  1  0  0  0  0
 10 13  1  0  0  0  0
 10  4  1  0  0  0  0
 11  9  1  0  0  0  0
 11  5  1  0  0  0  0
 12 10  1  0  0  0  0
 13 18  1  0  0  0  0
 14 15  1  0  0  0  0
 15 24  1  0  0  0  0
 16 20  2  0  0  0  0
 16  7  1  0  0  0  0
 17  5  1  0  0  0  0
 17 12  1  0  0  0  0
 19  6  2  0  0  0  0
 21 22  1  0  0  0  0
 21 25  1  0  0  0  0
 23 25  2  0  0  0  0
 24 27  1  0  0  0  0
 24 26  2  0  0  0  0
 25 30  1  0  0  0  0
 26 23  1  0  0  0  0
 27 21  2  0  0  0  0
 28 27  1  0  0  0  0
 30 29  1  0  0  0  0
 31 17  1  0  0  0  0
 32 31  1  0  0  0  0
M  END
>  <MODEL>
9

>  <REMARK>
 VINA RESULT:      -5.1      3.740      7.059
  Name = 
  3 active torsions:
  status: ('A' for Active; 'I' for Inactive)
    1  A    between atoms: C_13  and  C_29
    2  A    between atoms: C_16  and  C_27
    3  A    between atoms: CA_19  and  C_26
                            x       y       z     vdW  Elec       q    Type
                         _______ _______ _______ _____ _____    ______ ____

>  <TORSDO>
F 3

$$$$
