=
 OpenBabel10272414063D

 43 48  0  0  1  0  0  0  0  0999 V2000
  187.9620  177.2730  147.2420 C   0  0  0  0  0  0  0  0  0  0  0  0
  186.5150  178.5520  142.5700 C   0  0  0  0  0  0  0  0  0  0  0  0
  188.6580  177.9780  140.9310 C   0  0  0  0  0  0  0  0  0  0  0  0
  186.7050  178.0530  145.3240 C   0  0  0  0  0  0  0  0  0  0  0  0
  189.0500  176.9810  146.4150 C   0  0  0  0  0  3  0  0  0  0  0  0
  188.0410  177.0370  148.5730 F   0  0  0  0  0  0  0  0  0  0  0  0
  187.8050  177.7600  144.4810 C   0  0  0  0  0  0  0  0  0  0  0  0
  186.7910  177.8080  146.6970 C   0  0  0  0  0  3  0  0  0  0  0  0
  188.9740  177.2230  145.0420 C   0  0  0  0  0  3  0  0  0  0  0  0
  188.7460  177.7380  142.2640 N   0  0  0  0  0  0  0  0  0  0  0  0
  187.7070  178.0110  143.1000 C   0  0  0  0  0  0  0  0  0  0  0  0
  185.4360  178.8370  143.4170 C   0  0  0  0  0  3  0  0  0  0  0  0
  186.4430  178.7910  141.1930 C   0  0  0  0  0  0  0  0  0  0  0  0
  187.5160  178.4980  140.4070 N   0  0  0  0  0  0  0  0  0  0  0  0
  185.5320  178.5890  144.7870 C   0  0  0  0  0  3  0  0  0  0  0  0
  189.8220  177.6630  140.0500 C   0  0  1  0  0  3  0  0  0  0  0  0
  191.0280  177.2790  140.8890 C   0  0  0  0  0  1  0  0  0  0  0  0
  189.4650  176.5480  139.0750 C   0  0  0  0  0  2  0  0  0  0  0  0
  190.5120  176.4190  137.9820 C   0  0  1  0  0  3  0  0  0  0  0  0
  190.7860  174.9490  137.7320 C   0  0  0  0  0  1  0  0  0  0  0  0
  190.0090  177.0730  136.6990 C   0  0  0  0  0  2  0  0  0  0  0  0
  188.4840  177.1630  136.6480 C   0  0  1  0  0  3  0  0  0  0  0  0
  185.9260  177.5260  135.8960 C   0  0  0  0  0  2  0  0  0  0  0  0
  188.0630  178.5040  136.6000 O   0  0  0  0  0  0  0  0  0  0  0  0
  187.8990  176.3910  135.4500 C   0  0  2  0  0  3  0  0  0  0  0  0
  186.7690  177.0300  134.8760 O   0  0  0  0  0  0  0  0  0  0  0  0
  186.6700  178.5110  136.8180 C   0  0  0  0  0  2  0  0  0  0  0  0
  188.2950  173.9280  135.0420 C   0  0  0  0  0  3  0  0  0  0  0  0
  187.6440  174.9450  135.7520 C   0  0  0  0  0  0  0  0  0  0  0  0
  185.5890  172.9090  138.0800 N   0  0  0  0  0  1  0  0  0  0  0  0
  187.1470  172.2920  136.3490 N   0  0  0  0  0  0  0  0  0  0  0  0
  186.5050  173.2630  137.0520 C   0  0  0  0  0  0  0  0  0  0  0  0
  188.0290  172.5940  135.3590 C   0  0  0  0  0  3  0  0  0  0  0  0
  186.7440  174.6090  136.7650 C   0  0  0  0  0  3  0  0  0  0  0  0
  185.2780  179.3280  140.6330 O   0  0  0  0  0  0  0  0  0  0  0  0
  182.3190  178.9160  138.4220 C   0  0  0  0  0  2  0  0  0  0  0  0
  181.3820  178.6530  139.6120 C   0  0  1  0  0  0  0  0  0  0  0  0
  180.4720  179.8500  139.7990 C   0  0  0  0  0  1  0  0  0  0  0  0
  183.4710  177.7050  140.6760 C   0  0  0  0  0  2  0  0  0  0  0  0
  183.6500  179.5170  138.8680 C   0  0  0  0  0  2  0  0  0  0  0  0
  184.4040  178.5680  139.8090 C   0  0  1  0  0  3  0  0  0  0  0  0
  180.6040  177.5490  139.3220 F   0  0  0  0  0  0  0  0  0  0  0  0
  182.1350  178.4010  140.9250 C   0  0  0  0  0  2  0  0  0  0  0  0
  1  6  1  0  0  0  0
  2 11  2  0  0  0  0
  2 12  1  0  0  0  0
  3 10  2  0  0  0  0
  4  8  2  0  0  0  0
  5  1  2  0  0  0  0
  7  9  2  0  0  0  0
  7  4  1  0  0  0  0
  8  1  1  0  0  0  0
  9  5  1  0  0  0  0
 10 11  1  0  0  0  0
 11  7  1  0  0  0  0
 12 15  2  0  0  0  0
 13  2  1  0  0  0  0
 14  3  1  0  0  0  0
 14 13  2  0  0  0  0
 15  4  1  0  0  0  0
 16 17  1  1  0  0  0
 16  3  1  0  0  0  0
 18 16  1  0  0  0  0
 19 20  1  6  0  0  0
 19 18  1  0  0  0  0
 21 19  1  0  0  0  0
 22 21  1  6  0  0  0
 23 27  1  0  0  0  0
 24 22  1  0  0  0  0
 24 27  1  0  0  0  0
 25 29  1  1  0  0  0
 25 22  1  0  0  0  0
 26 25  1  0  0  0  0
 26 23  1  0  0  0  0
 28 33  2  0  0  0  0
 28 29  1  0  0  0  0
 29 34  2  0  0  0  0
 31 32  2  0  0  0  0
 32 30  1  0  0  0  0
 33 31  1  0  0  0  0
 34 32  1  0  0  0  0
 35 13  1  0  0  0  0
 36 40  1  0  0  0  0
 36 37  1  0  0  0  0
 37 38  1  1  0  0  0
 37 43  1  0  0  0  0
 39 43  1  0  0  0  0
 40 41  1  0  0  0  0
 41 35  1  1  0  0  0
 41 39  1  0  0  0  0
 42 37  1  0  0  0  0
M  END
>  <MODEL>
1

>  <REMARK>
 VINA RESULT:      -9.7      0.000      0.000
  Name = 
  8 active torsions:
  status: ('A' for Active; 'I' for Inactive)
    1  A    between atoms: O_1  and  C_34
    2  A    between atoms: O_1  and  C_35
    3  A    between atoms: C_2  and  C_6
    4  A    between atoms: C_2  and  C_13
    5  A    between atoms: C_3  and  C_4
    6  A    between atoms: C_3  and  C_12
    7  A    between atoms: C_6  and  C_12
    8  A    between atoms: C_14  and  C_22
                            x       y       z     vdW  Elec       q    Type
                         _______ _______ _______ _____ _____    ______ ____

>  <TORSDO>
F 8

$$$$
=
 OpenBabel10272414063D

 43 48  0  0  1  0  0  0  0  0999 V2000
  187.4740  177.5190  146.8940 C   0  0  0  0  0  0  0  0  0  0  0  0
  185.5340  178.7520  142.3930 C   0  0  0  0  0  0  0  0  0  0  0  0
  187.5300  178.2700  140.5510 C   0  0  0  0  0  0  0  0  0  0  0  0
  186.0090  178.2540  145.1120 C   0  0  0  0  0  0  0  0  0  0  0  0
  188.4890  177.2730  145.9650 C   0  0  0  0  0  3  0  0  0  0  0  0
  187.6910  177.2820  148.2100 F   0  0  0  0  0  0  0  0  0  0  0  0
  187.0330  178.0080  144.1650 C   0  0  0  0  0  0  0  0  0  0  0  0
  186.2370  178.0080  146.4680 C   0  0  0  0  0  3  0  0  0  0  0  0
  188.2710  177.5160  144.6070 C   0  0  0  0  0  3  0  0  0  0  0  0
  187.7560  178.0310  141.8680 N   0  0  0  0  0  0  0  0  0  0  0  0
  186.7930  178.2580  142.8020 C   0  0  0  0  0  0  0  0  0  0  0  0
  184.5320  178.9910  143.3410 C   0  0  0  0  0  3  0  0  0  0  0  0
  185.3200  178.9920  141.0310 C   0  0  0  0  0  0  0  0  0  0  0  0
  186.3230  178.7460  140.1430 N   0  0  0  0  0  0  0  0  0  0  0  0
  184.7690  178.7430  144.6940 C   0  0  0  0  0  3  0  0  0  0  0  0
  188.6150  178.0060  139.5600 C   0  0  1  0  0  3  0  0  0  0  0  0
  189.7620  177.2610  140.2210 C   0  0  0  0  0  1  0  0  0  0  0  0
  188.0720  177.2180  138.3750 C   0  0  0  0  0  2  0  0  0  0  0  0
  188.0210  178.0760  137.1220 C   0  0  1  0  0  3  0  0  0  0  0  0
  189.0080  179.2170  137.2650 C   0  0  0  0  0  1  0  0  0  0  0  0
  188.3810  177.2350  135.9000 C   0  0  0  0  0  2  0  0  0  0  0  0
  188.8340  175.8250  136.2750 C   0  0  1  0  0  3  0  0  0  0  0  0
  189.5870  173.2420  136.2370 C   0  0  0  0  0  2  0  0  0  0  0  0
  187.7850  174.9030  136.1090 O   0  0  0  0  0  0  0  0  0  0  0  0
  190.0570  175.3730  135.4550 C   0  0  2  0  0  3  0  0  0  0  0  0
  190.0270  173.9940  135.1240 O   0  0  0  0  0  0  0  0  0  0  0  0
  188.1940  173.6950  136.7140 C   0  0  0  0  0  2  0  0  0  0  0  0
  191.4550  176.0980  137.4330 C   0  0  0  0  0  3  0  0  0  0  0  0
  191.3610  175.7830  136.0710 C   0  0  0  0  0  0  0  0  0  0  0  0
  194.8910  176.2890  135.0360 N   0  0  0  0  0  1  0  0  0  0  0  0
  193.7890  176.5250  137.1660 N   0  0  0  0  0  0  0  0  0  0  0  0
  193.7220  176.2210  135.8410 C   0  0  0  0  0  0  0  0  0  0  0  0
  192.6910  176.4710  137.9650 C   0  0  0  0  0  3  0  0  0  0  0  0
  192.5030  175.8440  135.2710 C   0  0  0  0  0  3  0  0  0  0  0  0
  184.0860  179.4840  140.5890 O   0  0  0  0  0  0  0  0  0  0  0  0
  182.8580  176.2640  139.1970 C   0  0  0  0  0  2  0  0  0  0  0  0
  183.4310  176.5700  137.8040 C   0  0  1  0  0  0  0  0  0  0  0  0
  184.6230  175.6690  137.5510 C   0  0  0  0  0  1  0  0  0  0  0  0
  183.0070  178.9710  138.4740 C   0  0  0  0  0  2  0  0  0  0  0  0
  183.4380  177.1860  140.2670 C   0  0  0  0  0  2  0  0  0  0  0  0
  183.1060  178.6560  139.9760 C   0  0  1  0  0  3  0  0  0  0  0  0
  182.4610  176.2930  136.8600 F   0  0  0  0  0  0  0  0  0  0  0  0
  183.8780  178.0300  137.6450 C   0  0  0  0  0  2  0  0  0  0  0  0
  1  6  1  0  0  0  0
  2 11  2  0  0  0  0
  2 12  1  0  0  0  0
  3 10  2  0  0  0  0
  4  8  2  0  0  0  0
  5  1  2  0  0  0  0
  7  9  2  0  0  0  0
  7  4  1  0  0  0  0
  8  1  1  0  0  0  0
  9  5  1  0  0  0  0
 10 11  1  0  0  0  0
 11  7  1  0  0  0  0
 12 15  2  0  0  0  0
 13  2  1  0  0  0  0
 14  3  1  0  0  0  0
 14 13  2  0  0  0  0
 15  4  1  0  0  0  0
 16 17  1  1  0  0  0
 16  3  1  0  0  0  0
 18 16  1  0  0  0  0
 19 20  1  1  0  0  0
 19 18  1  0  0  0  0
 21 19  1  0  0  0  0
 22 21  1  6  0  0  0
 23 27  1  0  0  0  0
 24 22  1  0  0  0  0
 24 27  1  0  0  0  0
 25 29  1  1  0  0  0
 25 22  1  0  0  0  0
 26 25  1  0  0  0  0
 26 23  1  0  0  0  0
 28 33  1  0  0  0  0
 29 28  2  0  0  0  0
 30 32  1  0  0  0  0
 31 33  2  0  0  0  0
 32 31  1  0  0  0  0
 34 32  2  0  0  0  0
 34 29  1  0  0  0  0
 35 13  1  0  0  0  0
 36 40  1  0  0  0  0
 37 38  1  6  0  0  0
 37 36  1  0  0  0  0
 39 41  1  0  0  0  0
 41 40  1  0  0  0  0
 41 35  1  6  0  0  0
 42 37  1  0  0  0  0
 43 37  1  0  0  0  0
 43 39  1  0  0  0  0
M  END
>  <MODEL>
2

>  <REMARK>
 VINA RESULT:      -9.6      2.476      3.742
  Name = 
  8 active torsions:
  status: ('A' for Active; 'I' for Inactive)
    1  A    between atoms: O_1  and  C_34
    2  A    between atoms: O_1  and  C_35
    3  A    between atoms: C_2  and  C_6
    4  A    between atoms: C_2  and  C_13
    5  A    between atoms: C_3  and  C_4
    6  A    between atoms: C_3  and  C_12
    7  A    between atoms: C_6  and  C_12
    8  A    between atoms: C_14  and  C_22
                            x       y       z     vdW  Elec       q    Type
                         _______ _______ _______ _____ _____    ______ ____

>  <TORSDO>
F 8

$$$$
=
 OpenBabel10272414063D

 43 48  0  0  1  0  0  0  0  0999 V2000
  191.4220  176.4060  147.1750 C   0  0  0  0  0  0  0  0  0  0  0  0
  189.3900  177.3840  142.6510 C   0  0  0  0  0  0  0  0  0  0  0  0
  186.7320  177.9520  143.1220 C   0  0  0  0  0  0  0  0  0  0  0  0
  191.0740  176.7520  144.8030 C   0  0  0  0  0  0  0  0  0  0  0  0
  190.0760  176.6920  147.4190 C   0  0  0  0  0  3  0  0  0  0  0  0
  192.2450  176.0990  148.2060 F   0  0  0  0  0  0  0  0  0  0  0  0
  189.7090  177.0420  145.0430 C   0  0  0  0  0  0  0  0  0  0  0  0
  191.9200  176.4360  145.8700 C   0  0  0  0  0  3  0  0  0  0  0  0
  189.2230  177.0090  146.3590 C   0  0  0  0  0  3  0  0  0  0  0  0
  187.5510  177.6450  144.1610 N   0  0  0  0  0  0  0  0  0  0  0  0
  188.8660  177.3600  143.9620 C   0  0  0  0  0  0  0  0  0  0  0  0
  190.7430  177.0940  142.4300 C   0  0  0  0  0  3  0  0  0  0  0  0
  188.5320  177.7040  141.5930 C   0  0  0  0  0  0  0  0  0  0  0  0
  187.2240  177.9790  141.8540 N   0  0  0  0  0  0  0  0  0  0  0  0
  191.5800  176.7790  143.5020 C   0  0  0  0  0  3  0  0  0  0  0  0
  185.2960  178.2590  143.3850 C   0  0  1  0  0  3  0  0  0  0  0  0
  185.1510  179.0220  144.6900 C   0  0  0  0  0  1  0  0  0  0  0  0
  184.7010  179.0520  142.2280 C   0  0  0  0  0  2  0  0  0  0  0  0
  183.6980  178.2160  141.4480 C   0  0  1  0  0  3  0  0  0  0  0  0
  182.3000  178.7260  141.7390 C   0  0  0  0  0  1  0  0  0  0  0  0
  183.9830  178.3230  139.9530 C   0  0  0  0  0  2  0  0  0  0  0  0
  182.7500  178.7370  139.1520 C   0  0  1  0  0  3  0  0  0  0  0  0
  181.0290  179.4270  137.2000 C   0  0  0  0  0  2  0  0  0  0  0  0
  182.8760  180.0590  138.6870 O   0  0  0  0  0  0  0  0  0  0  0  0
  182.4860  177.7920  137.9650 C   0  0  2  0  0  3  0  0  0  0  0  0
  181.9910  178.4650  136.8170 O   0  0  0  0  0  0  0  0  0  0  0  0
  181.6140  180.4500  138.1940 C   0  0  0  0  0  2  0  0  0  0  0  0
  180.7790  176.6410  139.4320 C   0  0  0  0  0  3  0  0  0  0  0  0
  181.6480  176.6050  138.3340 C   0  0  0  0  0  0  0  0  0  0  0  0
  181.0350  173.1490  137.1240 N   0  0  0  0  0  1  0  0  0  0  0  0
  180.1180  174.3930  138.9720 N   0  0  0  0  0  0  0  0  0  0  0  0
  180.9540  174.3360  137.9000 C   0  0  0  0  0  0  0  0  0  0  0  0
  180.0150  175.5120  139.7370 C   0  0  0  0  0  3  0  0  0  0  0  0
  181.7350  175.4450  137.5620 C   0  0  0  0  0  3  0  0  0  0  0  0
  189.0160  177.7360  140.2800 O   0  0  0  0  0  0  0  0  0  0  0  0
  187.0610  177.2880  137.1510 C   0  0  0  0  0  2  0  0  0  0  0  0
  188.3150  177.4000  136.2710 C   0  0  1  0  0  0  0  0  0  0  0  0
  188.6380  176.0370  135.6930 C   0  0  0  0  0  1  0  0  0  0  0  0
  189.1440  178.8840  138.1430 C   0  0  0  0  0  2  0  0  0  0  0  0
  187.4130  177.0500  138.6180 C   0  0  0  0  0  2  0  0  0  0  0  0
  188.2380  178.2100  139.1880 C   0  0  1  0  0  3  0  0  0  0  0  0
  188.0450  178.2670  135.2300 F   0  0  0  0  0  0  0  0  0  0  0  0
  189.5440  177.9100  137.0370 C   0  0  0  0  0  2  0  0  0  0  0  0
  1  5  1  0  0  0  0
  1  6  1  0  0  0  0
  2 11  1  0  0  0  0
  3 16  1  0  0  0  0
  3 10  2  0  0  0  0
  4  7  1  0  0  0  0
  4  8  1  0  0  0  0
  7  9  1  0  0  0  0
  8  1  2  0  0  0  0
  9  5  2  0  0  0  0
 11 10  1  0  0  0  0
 11  7  2  0  0  0  0
 12  2  2  0  0  0  0
 12 15  1  0  0  0  0
 13 14  2  0  0  0  0
 13  2  1  0  0  0  0
 14  3  1  0  0  0  0
 15  4  2  0  0  0  0
 16 17  1  1  0  0  0
 18 16  1  0  0  0  0
 19 20  1  6  0  0  0
 19 18  1  0  0  0  0
 21 19  1  0  0  0  0
 22 21  1  6  0  0  0
 23 27  1  0  0  0  0
 24 22  1  0  0  0  0
 25 29  1  1  0  0  0
 25 22  1  0  0  0  0
 26 23  1  0  0  0  0
 26 25  1  0  0  0  0
 27 24  1  0  0  0  0
 28 33  1  0  0  0  0
 29 28  2  0  0  0  0
 30 32  1  0  0  0  0
 31 33  2  0  0  0  0
 32 31  1  0  0  0  0
 34 32  2  0  0  0  0
 34 29  1  0  0  0  0
 35 13  1  0  0  0  0
 36 40  1  0  0  0  0
 37 38  1  6  0  0  0
 37 43  1  0  0  0  0
 37 36  1  0  0  0  0
 39 41  1  0  0  0  0
 40 41  1  0  0  0  0
 41 35  1  1  0  0  0
 42 37  1  0  0  0  0
 43 39  1  0  0  0  0
M  END
>  <MODEL>
3

>  <REMARK>
 VINA RESULT:      -9.3      2.773      5.940
  Name = 
  8 active torsions:
  status: ('A' for Active; 'I' for Inactive)
    1  A    between atoms: O_1  and  C_34
    2  A    between atoms: O_1  and  C_35
    3  A    between atoms: C_2  and  C_6
    4  A    between atoms: C_2  and  C_13
    5  A    between atoms: C_3  and  C_4
    6  A    between atoms: C_3  and  C_12
    7  A    between atoms: C_6  and  C_12
    8  A    between atoms: C_14  and  C_22
                            x       y       z     vdW  Elec       q    Type
                         _______ _______ _______ _____ _____    ______ ____

>  <TORSDO>
F 8

$$$$
=
 OpenBabel10272414063D

 43 48  0  0  1  0  0  0  0  0999 V2000
  191.0320  176.7920  146.9720 C   0  0  0  0  0  0  0  0  0  0  0  0
  189.2270  177.7210  142.3430 C   0  0  0  0  0  0  0  0  0  0  0  0
  186.5080  178.0710  142.6480 C   0  0  0  0  0  0  0  0  0  0  0  0
  190.8130  177.1670  144.5900 C   0  0  0  0  0  0  0  0  0  0  0  0
  189.6550  176.9680  147.1310 C   0  0  0  0  0  3  0  0  0  0  0  0
  191.8080  176.5240  148.0490 F   0  0  0  0  0  0  0  0  0  0  0  0
  189.4160  177.3460  144.7440 C   0  0  0  0  0  0  0  0  0  0  0  0
  191.6100  176.8910  145.7030 C   0  0  0  0  0  3  0  0  0  0  0  0
  188.8500  177.2440  146.0240 C   0  0  0  0  0  3  0  0  0  0  0  0
  187.2790  177.8030  143.7320 N   0  0  0  0  0  0  0  0  0  0  0  0
  188.6230  177.6240  143.6160 C   0  0  0  0  0  0  0  0  0  0  0  0
  190.6090  177.5410  142.2060 C   0  0  0  0  0  3  0  0  0  0  0  0
  188.4160  177.9990  141.2370 C   0  0  0  0  0  0  0  0  0  0  0  0
  187.0770  178.1670  141.4160 N   0  0  0  0  0  0  0  0  0  0  0  0
  191.3980  177.2650  143.3250 C   0  0  0  0  0  3  0  0  0  0  0  0
  185.0380  178.2610  142.8200 C   0  0  1  0  0  3  0  0  0  0  0  0
  184.7590  179.1560  144.0160 C   0  0  0  0  0  1  0  0  0  0  0  0
  184.4240  178.8450  141.5540 C   0  0  0  0  0  2  0  0  0  0  0  0
  183.2010  178.0540  141.1210 C   0  0  1  0  0  3  0  0  0  0  0  0
  181.9660  178.9130  141.3050 C   0  0  0  0  0  1  0  0  0  0  0  0
  183.3340  177.6520  139.6550 C   0  0  0  0  0  2  0  0  0  0  0  0
  182.4900  176.4270  139.3070 C   0  0  1  0  0  3  0  0  0  0  0  0
  180.6210  174.7480  138.3410 C   0  0  0  0  0  2  0  0  0  0  0  0
  181.2530  176.4650  139.9760 O   0  0  0  0  0  0  0  0  0  0  0  0
  182.2550  176.2980  137.7900 C   0  0  2  0  0  3  0  0  0  0  0  0
  180.9650  175.8030  137.4660 O   0  0  0  0  0  0  0  0  0  0  0  0
  180.6530  175.1990  139.8150 C   0  0  0  0  0  2  0  0  0  0  0  0
  183.6440  175.7810  135.7410 C   0  0  0  0  0  3  0  0  0  0  0  0
  183.3470  175.5450  137.0890 C   0  0  0  0  0  0  0  0  0  0  0  0
  185.8590  172.9240  137.8670 N   0  0  0  0  0  1  0  0  0  0  0  0
  185.3740  174.1380  135.8430 N   0  0  0  0  0  0  0  0  0  0  0  0
  185.1040  173.8940  137.1540 C   0  0  0  0  0  0  0  0  0  0  0  0
  184.6710  175.0590  135.1310 C   0  0  0  0  0  3  0  0  0  0  0  0
  184.0830  174.5960  137.8010 C   0  0  0  0  0  3  0  0  0  0  0  0
  188.9800  178.1000  139.9600 O   0  0  0  0  0  0  0  0  0  0  0  0
  187.0530  177.1880  136.9150 C   0  0  0  0  0  2  0  0  0  0  0  0
  188.3150  177.1760  136.0380 C   0  0  1  0  0  0  0  0  0  0  0  0
  188.6480  175.7450  135.6690 C   0  0  0  0  0  1  0  0  0  0  0  0
  189.1220  178.9230  137.6780 C   0  0  0  0  0  2  0  0  0  0  0  0
  187.3940  177.1690  138.4040 C   0  0  0  0  0  2  0  0  0  0  0  0
  188.2100  178.4050  138.8040 C   0  0  1  0  0  3  0  0  0  0  0  0
  188.0490  177.8800  134.8790 F   0  0  0  0  0  0  0  0  0  0  0  0
  189.5340  177.8000  136.7300 C   0  0  0  0  0  2  0  0  0  0  0  0
  1  5  1  0  0  0  0
  1  6  1  0  0  0  0
  2 11  1  0  0  0  0
  3 16  1  0  0  0  0
  3 10  2  0  0  0  0
  4  7  1  0  0  0  0
  4  8  1  0  0  0  0
  7  9  1  0  0  0  0
  8  1  2  0  0  0  0
  9  5  2  0  0  0  0
 11 10  1  0  0  0  0
 11  7  2  0  0  0  0
 12  2  2  0  0  0  0
 12 15  1  0  0  0  0
 13 14  2  0  0  0  0
 13  2  1  0  0  0  0
 14  3  1  0  0  0  0
 15  4  2  0  0  0  0
 16 17  1  1  0  0  0
 18 16  1  0  0  0  0
 19 20  1  6  0  0  0
 19 18  1  0  0  0  0
 21 19  1  0  0  0  0
 22 21  1  6  0  0  0
 22 24  1  0  0  0  0
 23 27  1  0  0  0  0
 25 29  1  1  0  0  0
 25 22  1  0  0  0  0
 26 25  1  0  0  0  0
 26 23  1  0  0  0  0
 27 24  1  0  0  0  0
 28 29  1  0  0  0  0
 29 34  2  0  0  0  0
 31 32  2  0  0  0  0
 32 34  1  0  0  0  0
 32 30  1  0  0  0  0
 33 28  2  0  0  0  0
 33 31  1  0  0  0  0
 35 13  1  0  0  0  0
 36 40  1  0  0  0  0
 37 38  1  6  0  0  0
 37 43  1  0  0  0  0
 37 36  1  0  0  0  0
 39 41  1  0  0  0  0
 40 41  1  0  0  0  0
 41 35  1  1  0  0  0
 42 37  1  0  0  0  0
 43 39  1  0  0  0  0
M  END
>  <MODEL>
4

>  <REMARK>
 VINA RESULT:      -9.1      2.697      5.520
  Name = 
  8 active torsions:
  status: ('A' for Active; 'I' for Inactive)
    1  A    between atoms: O_1  and  C_34
    2  A    between atoms: O_1  and  C_35
    3  A    between atoms: C_2  and  C_6
    4  A    between atoms: C_2  and  C_13
    5  A    between atoms: C_3  and  C_4
    6  A    between atoms: C_3  and  C_12
    7  A    between atoms: C_6  and  C_12
    8  A    between atoms: C_14  and  C_22
                            x       y       z     vdW  Elec       q    Type
                         _______ _______ _______ _____ _____    ______ ____

>  <TORSDO>
F 8

$$$$
=
 OpenBabel10272414063D

 43 48  0  0  1  0  0  0  0  0999 V2000
  187.4170  177.6240  146.7050 C   0  0  0  0  0  0  0  0  0  0  0  0
  185.3570  178.7970  142.2410 C   0  0  0  0  0  0  0  0  0  0  0  0
  187.2420  178.1310  140.3400 C   0  0  0  0  0  0  0  0  0  0  0  0
  185.9200  178.3740  144.9560 C   0  0  0  0  0  0  0  0  0  0  0  0
  188.3750  177.2860  145.7460 C   0  0  0  0  0  3  0  0  0  0  0  0
  187.6760  177.4250  148.0190 F   0  0  0  0  0  0  0  0  0  0  0  0
  186.8860  178.0340  143.9790 C   0  0  0  0  0  0  0  0  0  0  0  0
  186.1910  178.1670  146.3110 C   0  0  0  0  0  3  0  0  0  0  0  0
  188.1130  177.4900  144.3890 C   0  0  0  0  0  3  0  0  0  0  0  0
  187.5100  177.9290  141.6550 N   0  0  0  0  0  0  0  0  0  0  0  0
  186.6020  178.2470  142.6180 C   0  0  0  0  0  0  0  0  0  0  0  0
  184.4110  179.1290  143.2190 C   0  0  0  0  0  3  0  0  0  0  0  0
  185.0980  178.9970  140.8800 C   0  0  0  0  0  0  0  0  0  0  0  0
  186.0460  178.6600  139.9630 N   0  0  0  0  0  0  0  0  0  0  0  0
  184.6920  178.9180  144.5700 C   0  0  0  0  0  3  0  0  0  0  0  0
  188.2660  177.7680  139.3170 C   0  0  1  0  0  3  0  0  0  0  0  0
  187.7600  178.1000  137.9240 C   0  0  0  0  0  1  0  0  0  0  0  0
  189.5790  178.4860  139.6000 C   0  0  0  0  0  2  0  0  0  0  0  0
  190.7030  177.4950  139.8550 C   0  0  1  0  0  3  0  0  0  0  0  0
  190.8580  177.2990  141.3500 C   0  0  0  0  0  1  0  0  0  0  0  0
  190.3800  176.1590  139.1920 C   0  0  0  0  0  2  0  0  0  0  0  0
  191.1990  175.9230  137.9240 C   0  0  1  0  0  3  0  0  0  0  0  0
  192.8590  174.9380  136.0490 C   0  0  0  0  0  2  0  0  0  0  0  0
  192.5670  176.1480  138.1640 O   0  0  0  0  0  0  0  0  0  0  0  0
  190.9970  174.5040  137.3610 C   0  0  2  0  0  3  0  0  0  0  0  0
  192.1790  173.9540  136.8010 O   0  0  0  0  0  0  0  0  0  0  0  0
  193.2120  176.1670  136.9090 C   0  0  0  0  0  2  0  0  0  0  0  0
  189.3480  175.5240  135.7380 C   0  0  0  0  0  3  0  0  0  0  0  0
  189.8260  174.4040  136.4290 C   0  0  0  0  0  0  0  0  0  0  0  0
  187.4770  171.8120  135.1840 N   0  0  0  0  0  1  0  0  0  0  0  0
  187.6690  174.1680  134.7170 N   0  0  0  0  0  0  0  0  0  0  0  0
  188.1170  173.0660  135.3770 C   0  0  0  0  0  0  0  0  0  0  0  0
  188.2570  175.3830  134.8780 C   0  0  0  0  0  3  0  0  0  0  0  0
  189.2070  173.1660  136.2460 C   0  0  0  0  0  3  0  0  0  0  0  0
  183.8760  179.5420  140.4700 O   0  0  0  0  0  0  0  0  0  0  0  0
  182.3780  176.3320  139.3470 C   0  0  0  0  0  2  0  0  0  0  0  0
  182.9390  176.4880  137.9250 C   0  0  1  0  0  0  0  0  0  0  0  0
  184.0540  175.4830  137.7200 C   0  0  0  0  0  1  0  0  0  0  0  0
  182.7120  178.9580  138.4190 C   0  0  0  0  0  2  0  0  0  0  0  0
  183.0500  177.2830  140.3340 C   0  0  0  0  0  2  0  0  0  0  0  0
  182.8230  178.7480  139.9390 C   0  0  1  0  0  3  0  0  0  0  0  0
  181.9290  176.2170  137.0220 F   0  0  0  0  0  0  0  0  0  0  0  0
  183.4900  177.8940  137.6490 C   0  0  0  0  0  2  0  0  0  0  0  0
  1  6  1  0  0  0  0
  2 11  2  0  0  0  0
  2 12  1  0  0  0  0
  3 10  2  0  0  0  0
  4  8  2  0  0  0  0
  5  1  2  0  0  0  0
  7  9  2  0  0  0  0
  7  4  1  0  0  0  0
  8  1  1  0  0  0  0
  9  5  1  0  0  0  0
 10 11  1  0  0  0  0
 11  7  1  0  0  0  0
 12 15  2  0  0  0  0
 13  2  1  0  0  0  0
 14  3  1  0  0  0  0
 14 13  2  0  0  0  0
 15  4  1  0  0  0  0
 16 17  1  6  0  0  0
 16 18  1  0  0  0  0
 16  3  1  0  0  0  0
 18 19  1  0  0  0  0
 19 20  1  1  0  0  0
 21 19  1  0  0  0  0
 22 24  1  0  0  0  0
 22 21  1  1  0  0  0
 23 26  1  0  0  0  0
 23 27  1  0  0  0  0
 25 29  1  6  0  0  0
 25 22  1  0  0  0  0
 26 25  1  0  0  0  0
 27 24  1  0  0  0  0
 28 29  1  0  0  0  0
 30 32  1  0  0  0  0
 31 33  1  0  0  0  0
 31 32  2  0  0  0  0
 32 34  1  0  0  0  0
 33 28  2  0  0  0  0
 34 29  2  0  0  0  0
 35 13  1  0  0  0  0
 36 40  1  0  0  0  0
 37 38  1  6  0  0  0
 37 36  1  0  0  0  0
 39 41  1  0  0  0  0
 41 40  1  0  0  0  0
 41 35  1  6  0  0  0
 42 37  1  0  0  0  0
 43 37  1  0  0  0  0
 43 39  1  0  0  0  0
M  END
>  <MODEL>
5

>  <REMARK>
 VINA RESULT:      -8.8      1.943      3.142
  Name = 
  8 active torsions:
  status: ('A' for Active; 'I' for Inactive)
    1  A    between atoms: O_1  and  C_34
    2  A    between atoms: O_1  and  C_35
    3  A    between atoms: C_2  and  C_6
    4  A    between atoms: C_2  and  C_13
    5  A    between atoms: C_3  and  C_4
    6  A    between atoms: C_3  and  C_12
    7  A    between atoms: C_6  and  C_12
    8  A    between atoms: C_14  and  C_22
                            x       y       z     vdW  Elec       q    Type
                         _______ _______ _______ _____ _____    ______ ____

>  <TORSDO>
F 8

$$$$
=
 OpenBabel10272414063D

 43 48  0  0  1  0  0  0  0  0999 V2000
  192.3320  177.1280  140.1230 C   0  0  0  0  0  0  0  0  0  0  0  0
  187.8200  177.7970  137.9450 C   0  0  0  0  0  0  0  0  0  0  0  0
  186.1160  178.5920  139.9640 C   0  0  0  0  0  0  0  0  0  0  0  0
  190.5100  177.2630  138.5340 C   0  0  0  0  0  0  0  0  0  0  0  0
  191.4730  177.5300  141.1490 C   0  0  0  0  0  3  0  0  0  0  0  0
  193.6330  176.8680  140.3940 F   0  0  0  0  0  0  0  0  0  0  0  0
  189.6340  177.6700  139.5690 C   0  0  0  0  0  0  0  0  0  0  0  0
  191.8520  176.9950  138.8180 C   0  0  0  0  0  3  0  0  0  0  0  0
  190.1300  177.8000  140.8750 C   0  0  0  0  0  3  0  0  0  0  0  0
  187.4190  178.3320  140.2440 N   0  0  0  0  0  0  0  0  0  0  0  0
  188.2850  177.9380  139.2710 C   0  0  0  0  0  0  0  0  0  0  0  0
  188.6990  177.3930  136.9320 C   0  0  0  0  0  3  0  0  0  0  0  0
  186.4740  178.0700  137.6750 C   0  0  0  0  0  0  0  0  0  0  0  0
  185.6550  178.4610  138.6900 N   0  0  0  0  0  0  0  0  0  0  0  0
  190.0370  177.1270  137.2260 C   0  0  0  0  0  3  0  0  0  0  0  0
  185.2000  179.0230  141.0610 C   0  0  1  0  0  3  0  0  0  0  0  0
  183.7800  179.1570  140.5390 C   0  0  0  0  0  1  0  0  0  0  0  0
  185.2580  178.0370  142.2200 C   0  0  0  0  0  2  0  0  0  0  0  0
  185.7400  178.7130  143.4930 C   0  0  1  0  0  3  0  0  0  0  0  0
  184.6300  179.5910  144.0350 C   0  0  0  0  0  1  0  0  0  0  0  0
  186.1160  177.6600  144.5310 C   0  0  0  0  0  2  0  0  0  0  0  0
  186.6990  178.2770  145.8020 C   0  0  1  0  0  3  0  0  0  0  0  0
  187.4680  178.7730  148.3330 C   0  0  0  0  0  2  0  0  0  0  0  0
  185.6750  178.7190  146.6590 O   0  0  0  0  0  0  0  0  0  0  0  0
  187.6160  177.2930  146.5540 C   0  0  2  0  0  3  0  0  0  0  0  0
  187.5180  177.4090  147.9650 O   0  0  0  0  0  0  0  0  0  0  0  0
  186.2820  179.4980  147.6670 C   0  0  0  0  0  2  0  0  0  0  0  0
  189.3960  178.0370  144.9200 C   0  0  0  0  0  3  0  0  0  0  0  0
  189.0360  177.3320  146.0760 C   0  0  0  0  0  0  0  0  0  0  0  0
  192.3520  176.0080  147.0960 N   0  0  0  0  0  1  0  0  0  0  0  0
  191.6700  177.3830  145.2380 N   0  0  0  0  0  0  0  0  0  0  0  0
  191.3440  176.6940  146.3650 C   0  0  0  0  0  0  0  0  0  0  0  0
  190.7320  178.0490  144.5140 C   0  0  0  0  0  3  0  0  0  0  0  0
  190.0180  176.6580  146.8040 C   0  0  0  0  0  3  0  0  0  0  0  0
  185.9780  177.9400  136.3730 O   0  0  0  0  0  0  0  0  0  0  0  0
  184.3890  174.6160  136.8600 C   0  0  0  0  0  2  0  0  0  0  0  0
  185.5880  173.8760  136.2460 C   0  0  1  0  0  0  0  0  0  0  0  0
  186.3330  173.1440  137.3440 C   0  0  0  0  0  1  0  0  0  0  0  0
  185.8470  176.0060  134.9080 C   0  0  0  0  0  2  0  0  0  0  0  0
  184.7320  176.0600  137.2190 C   0  0  0  0  0  2  0  0  0  0  0  0
  185.1420  176.8600  135.9760 C   0  0  1  0  0  3  0  0  0  0  0  0
  185.1140  172.9480  135.3400 F   0  0  0  0  0  0  0  0  0  0  0  0
  186.5700  174.8150  135.5310 C   0  0  0  0  0  2  0  0  0  0  0  0
  1  6  1  0  0  0  0
  1  5  1  0  0  0  0
  2 11  1  0  0  0  0
  3 10  2  0  0  0  0
  3 16  1  0  0  0  0
  4  8  1  0  0  0  0
  4  7  1  0  0  0  0
  7  9  1  0  0  0  0
  8  1  2  0  0  0  0
  9  5  2  0  0  0  0
 11  7  2  0  0  0  0
 11 10  1  0  0  0  0
 12 15  1  0  0  0  0
 12  2  2  0  0  0  0
 13  2  1  0  0  0  0
 13 14  2  0  0  0  0
 14  3  1  0  0  0  0
 15  4  2  0  0  0  0
 16 17  1  6  0  0  0
 16 18  1  0  0  0  0
 18 19  1  0  0  0  0
 19 20  1  1  0  0  0
 19 21  1  0  0  0  0
 22 21  1  6  0  0  0
 22 25  1  0  0  0  0
 22 24  1  0  0  0  0
 24 27  1  0  0  0  0
 25 29  1  6  0  0  0
 25 26  1  0  0  0  0
 26 23  1  0  0  0  0
 27 23  1  0  0  0  0
 28 29  1  0  0  0  0
 29 34  2  0  0  0  0
 31 32  2  0  0  0  0
 32 34  1  0  0  0  0
 32 30  1  0  0  0  0
 33 28  2  0  0  0  0
 33 31  1  0  0  0  0
 35 13  1  0  0  0  0
 36 40  1  0  0  0  0
 37 36  1  0  0  0  0
 37 38  1  1  0  0  0
 39 43  1  0  0  0  0
 39 41  1  0  0  0  0
 41 35  1  1  0  0  0
 41 40  1  0  0  0  0
 42 37  1  0  0  0  0
 43 37  1  0  0  0  0
M  END
>  <MODEL>
6

>  <REMARK>
 VINA RESULT:      -8.7      2.990      8.277
  Name = 
  8 active torsions:
  status: ('A' for Active; 'I' for Inactive)
    1  A    between atoms: O_1  and  C_34
    2  A    between atoms: O_1  and  C_35
    3  A    between atoms: C_2  and  C_6
    4  A    between atoms: C_2  and  C_13
    5  A    between atoms: C_3  and  C_4
    6  A    between atoms: C_3  and  C_12
    7  A    between atoms: C_6  and  C_12
    8  A    between atoms: C_14  and  C_22
                            x       y       z     vdW  Elec       q    Type
                         _______ _______ _______ _____ _____    ______ ____

>  <TORSDO>
F 8

$$$$
=
 OpenBabel10272414063D

 43 48  0  0  1  0  0  0  0  0999 V2000
  190.3520  177.2850  138.7210 C   0  0  0  0  0  0  0  0  0  0  0  0
  185.4760  178.5700  139.0800 C   0  0  0  0  0  0  0  0  0  0  0  0
  185.0020  178.9970  141.7640 C   0  0  0  0  0  0  0  0  0  0  0  0
  188.0410  177.8180  138.2290 C   0  0  0  0  0  0  0  0  0  0  0  0
  190.1160  177.4990  140.0820 C   0  0  0  0  0  3  0  0  0  0  0  0
  191.5860  176.9220  138.2980 F   0  0  0  0  0  0  0  0  0  0  0  0
  187.7960  178.0370  139.6070 C   0  0  0  0  0  0  0  0  0  0  0  0
  189.3160  177.4440  137.7970 C   0  0  0  0  0  3  0  0  0  0  0  0
  188.8450  177.8740  140.5240 C   0  0  0  0  0  3  0  0  0  0  0  0
  186.2420  178.6330  141.3480 N   0  0  0  0  0  0  0  0  0  0  0  0
  186.5080  178.4140  140.0310 C   0  0  0  0  0  0  0  0  0  0  0  0
  185.7350  178.3500  137.7210 C   0  0  0  0  0  3  0  0  0  0  0  0
  184.2050  178.9470  139.5280 C   0  0  0  0  0  0  0  0  0  0  0  0
  183.9980  179.1510  140.8580 N   0  0  0  0  0  0  0  0  0  0  0  0
  187.0110  177.9750  137.2990 C   0  0  0  0  0  3  0  0  0  0  0  0
  184.7530  179.2280  143.2170 C   0  0  1  0  0  3  0  0  0  0  0  0
  183.2890  179.5570  143.4550 C   0  0  0  0  0  1  0  0  0  0  0  0
  185.1700  178.0080  144.0280 C   0  0  0  0  0  2  0  0  0  0  0  0
  185.9480  178.4140  145.2690 C   0  0  1  0  0  3  0  0  0  0  0  0
  184.9690  178.7870  146.3650 C   0  0  0  0  0  1  0  0  0  0  0  0
  186.8240  177.2550  145.7370 C   0  0  0  0  0  2  0  0  0  0  0  0
  188.0090  177.7220  146.5800 C   0  0  1  0  0  3  0  0  0  0  0  0
  190.1280  177.8600  148.2330 C   0  0  0  0  0  2  0  0  0  0  0  0
  187.6980  177.6700  147.9510 O   0  0  0  0  0  0  0  0  0  0  0  0
  189.2780  176.8950  146.3040 C   0  0  2  0  0  3  0  0  0  0  0  0
  190.0640  176.6750  147.4660 O   0  0  0  0  0  0  0  0  0  0  0  0
  188.7250  178.3530  148.6370 C   0  0  0  0  0  2  0  0  0  0  0  0
  190.1070  178.7940  144.8560 C   0  0  0  0  0  3  0  0  0  0  0  0
  190.0890  177.4270  145.1610 C   0  0  0  0  0  0  0  0  0  0  0  0
  192.3750  176.1380  142.5330 N   0  0  0  0  0  1  0  0  0  0  0  0
  191.6050  178.3630  143.0470 N   0  0  0  0  0  0  0  0  0  0  0  0
  191.6040  177.0310  143.3260 C   0  0  0  0  0  0  0  0  0  0  0  0
  190.8800  179.2460  143.7840 C   0  0  0  0  0  3  0  0  0  0  0  0
  190.8440  176.5400  144.3910 C   0  0  0  0  0  3  0  0  0  0  0  0
  183.1570  179.1090  138.6140 O   0  0  0  0  0  0  0  0  0  0  0  0
  181.8600  175.6300  138.7810 C   0  0  0  0  0  2  0  0  0  0  0  0
  182.5060  175.2520  137.4390 C   0  0  1  0  0  0  0  0  0  0  0  0
  183.6700  174.3160  137.6970 C   0  0  0  0  0  1  0  0  0  0  0  0
  182.1530  177.6980  136.9080 C   0  0  0  0  0  2  0  0  0  0  0  0
  182.4300  176.9310  139.3420 C   0  0  0  0  0  2  0  0  0  0  0  0
  182.1720  178.1070  138.3920 C   0  0  1  0  0  3  0  0  0  0  0  0
  181.5690  174.5880  136.6720 F   0  0  0  0  0  0  0  0  0  0  0  0
  183.0200  176.4680  136.6560 C   0  0  0  0  0  2  0  0  0  0  0  0
  1  5  1  0  0  0  0
  2 13  1  0  0  0  0
  2 11  1  0  0  0  0
  3 16  1  0  0  0  0
  4  7  1  0  0  0  0
  5  9  2  0  0  0  0
  6  1  1  0  0  0  0
  7 11  2  0  0  0  0
  7  9  1  0  0  0  0
  8  4  1  0  0  0  0
  8  1  2  0  0  0  0
 10  3  2  0  0  0  0
 11 10  1  0  0  0  0
 12  2  2  0  0  0  0
 13 14  2  0  0  0  0
 14  3  1  0  0  0  0
 15 12  1  0  0  0  0
 15  4  2  0  0  0  0
 16 17  1  6  0  0  0
 16 18  1  0  0  0  0
 18 19  1  0  0  0  0
 19 21  1  0  0  0  0
 19 20  1  1  0  0  0
 22 21  1  6  0  0  0
 22 24  1  0  0  0  0
 23 27  1  0  0  0  0
 24 27  1  0  0  0  0
 25 29  1  6  0  0  0
 25 22  1  0  0  0  0
 25 26  1  0  0  0  0
 26 23  1  0  0  0  0
 28 29  1  0  0  0  0
 30 32  1  0  0  0  0
 31 32  2  0  0  0  0
 31 33  1  0  0  0  0
 32 34  1  0  0  0  0
 33 28  2  0  0  0  0
 34 29  2  0  0  0  0
 35 13  1  0  0  0  0
 36 40  1  0  0  0  0
 37 38  1  1  0  0  0
 37 36  1  0  0  0  0
 39 41  1  0  0  0  0
 41 35  1  6  0  0  0
 41 40  1  0  0  0  0
 42 37  1  0  0  0  0
 43 39  1  0  0  0  0
 43 37  1  0  0  0  0
M  END
>  <MODEL>
7

>  <REMARK>
 VINA RESULT:      -8.5      3.307      7.920
  Name = 
  8 active torsions:
  status: ('A' for Active; 'I' for Inactive)
    1  A    between atoms: O_1  and  C_34
    2  A    between atoms: O_1  and  C_35
    3  A    between atoms: C_2  and  C_6
    4  A    between atoms: C_2  and  C_13
    5  A    between atoms: C_3  and  C_4
    6  A    between atoms: C_3  and  C_12
    7  A    between atoms: C_6  and  C_12
    8  A    between atoms: C_14  and  C_22
                            x       y       z     vdW  Elec       q    Type
                         _______ _______ _______ _____ _____    ______ ____

>  <TORSDO>
F 8

$$$$
=
 OpenBabel10272414063D

 43 48  0  0  1  0  0  0  0  0999 V2000
  182.7940  179.0460  143.8380 C   0  0  0  0  0  0  0  0  0  0  0  0
  184.2220  178.1370  139.0750 C   0  0  0  0  0  0  0  0  0  0  0  0
  186.9790  178.2180  139.0830 C   0  0  0  0  0  0  0  0  0  0  0  0
  182.8160  178.5730  141.4630 C   0  0  0  0  0  0  0  0  0  0  0  0
  184.1900  179.0890  143.8470 C   0  0  0  0  0  3  0  0  0  0  0  0
  182.1030  179.2550  144.9840 F   0  0  0  0  0  0  0  0  0  0  0  0
  184.2310  178.6150  141.4650 C   0  0  0  0  0  0  0  0  0  0  0  0
  182.1080  178.7890  142.6480 C   0  0  0  0  0  3  0  0  0  0  0  0
  184.9070  178.8750  142.6670 C   0  0  0  0  0  3  0  0  0  0  0  0
  186.2950  178.4290  140.2370 N   0  0  0  0  0  0  0  0  0  0  0  0
  184.9350  178.3960  140.2660 C   0  0  0  0  0  0  0  0  0  0  0  0
  182.8220  178.0990  139.0890 C   0  0  0  0  0  3  0  0  0  0  0  0
  184.9450  177.9210  137.8960 C   0  0  0  0  0  0  0  0  0  0  0  0
  186.3050  177.9670  137.9290 N   0  0  0  0  0  0  0  0  0  0  0  0
  182.1230  178.3160  140.2770 C   0  0  0  0  0  3  0  0  0  0  0  0
  188.4710  178.2620  139.0960 C   0  0  1  0  0  3  0  0  0  0  0  0
  188.9810  179.1340  137.9620 C   0  0  0  0  0  1  0  0  0  0  0  0
  188.9770  178.7730  140.4390 C   0  0  0  0  0  2  0  0  0  0  0  0
  189.5530  177.6420  141.2750 C   0  0  1  0  0  3  0  0  0  0  0  0
  190.4690  176.8030  140.4050 C   0  0  0  0  0  1  0  0  0  0  0  0
  190.3410  178.2120  142.4500 C   0  0  0  0  0  2  0  0  0  0  0  0
  190.6560  177.1570  143.5090 C   0  0  1  0  0  3  0  0  0  0  0  0
  191.6980  175.7710  145.5680 C   0  0  0  0  0  2  0  0  0  0  0  0
  191.8890  176.5350  143.2440 O   0  0  0  0  0  0  0  0  0  0  0  0
  190.6690  177.7490  144.9310 C   0  0  2  0  0  3  0  0  0  0  0  0
  191.6590  177.1700  145.7660 O   0  0  0  0  0  0  0  0  0  0  0  0
  191.9820  175.4140  144.0960 C   0  0  0  0  0  2  0  0  0  0  0  0
  188.1470  177.6330  144.8140 C   0  0  0  0  0  3  0  0  0  0  0  0
  189.3150  177.7600  145.5750 C   0  0  0  0  0  0  0  0  0  0  0  0
  187.8560  178.0380  148.9780 N   0  0  0  0  0  1  0  0  0  0  0  0
  186.8410  177.7770  146.8080 N   0  0  0  0  0  0  0  0  0  0  0  0
  187.9640  177.9000  147.5680 C   0  0  0  0  0  0  0  0  0  0  0  0
  186.9070  177.6440  145.4570 C   0  0  0  0  0  3  0  0  0  0  0  0
  189.2230  177.8930  146.9620 C   0  0  0  0  0  3  0  0  0  0  0  0
  184.2720  177.6630  136.6960 O   0  0  0  0  0  0  0  0  0  0  0  0
  182.5990  174.6590  135.2860 C   0  0  0  0  0  2  0  0  0  0  0  0
  182.5340  173.9680  136.6570 C   0  0  1  0  0  0  0  0  0  0  0  0
  181.0960  173.9490  137.1350 C   0  0  0  0  0  1  0  0  0  0  0  0
  184.6380  175.2960  137.1050 C   0  0  0  0  0  2  0  0  0  0  0  0
  182.9070  176.1490  135.4130 C   0  0  0  0  0  2  0  0  0  0  0  0
  184.2690  176.3830  136.0790 C   0  0  1  0  0  3  0  0  0  0  0  0
  182.9670  172.6640  136.5120 F   0  0  0  0  0  0  0  0  0  0  0  0
  183.3950  174.6630  137.7220 C   0  0  0  0  0  2  0  0  0  0  0  0
  1  5  1  0  0  0  0
  1  6  1  0  0  0  0
  2 12  2  0  0  0  0
  2 11  1  0  0  0  0
  3 16  1  0  0  0  0
  3 10  2  0  0  0  0
  4  7  1  0  0  0  0
  4  8  1  0  0  0  0
  7  9  1  0  0  0  0
  8  1  2  0  0  0  0
  9  5  2  0  0  0  0
 10 11  1  0  0  0  0
 11  7  2  0  0  0  0
 12 15  1  0  0  0  0
 13 14  2  0  0  0  0
 13  2  1  0  0  0  0
 14  3  1  0  0  0  0
 15  4  2  0  0  0  0
 16 17  1  6  0  0  0
 16 18  1  0  0  0  0
 18 19  1  0  0  0  0
 19 20  1  6  0  0  0
 19 21  1  0  0  0  0
 22 21  1  6  0  0  0
 22 25  1  0  0  0  0
 23 26  1  0  0  0  0
 24 22  1  0  0  0  0
 24 27  1  0  0  0  0
 25 29  1  1  0  0  0
 25 26  1  0  0  0  0
 27 23  1  0  0  0  0
 28 33  2  0  0  0  0
 28 29  1  0  0  0  0
 29 34  2  0  0  0  0
 31 32  2  0  0  0  0
 32 30  1  0  0  0  0
 33 31  1  0  0  0  0
 34 32  1  0  0  0  0
 35 13  1  0  0  0  0
 36 40  1  0  0  0  0
 36 37  1  0  0  0  0
 37 38  1  1  0  0  0
 37 43  1  0  0  0  0
 39 43  1  0  0  0  0
 40 41  1  0  0  0  0
 41 35  1  1  0  0  0
 41 39  1  0  0  0  0
 42 37  1  0  0  0  0
M  END
>  <MODEL>
8

>  <REMARK>
 VINA RESULT:      -8.4      3.298      7.113
  Name = 
  8 active torsions:
  status: ('A' for Active; 'I' for Inactive)
    1  A    between atoms: O_1  and  C_34
    2  A    between atoms: O_1  and  C_35
    3  A    between atoms: C_2  and  C_6
    4  A    between atoms: C_2  and  C_13
    5  A    between atoms: C_3  and  C_4
    6  A    between atoms: C_3  and  C_12
    7  A    between atoms: C_6  and  C_12
    8  A    between atoms: C_14  and  C_22
                            x       y       z     vdW  Elec       q    Type
                         _______ _______ _______ _____ _____    ______ ____

>  <TORSDO>
F 8

$$$$
=
 OpenBabel10272414063D

 43 48  0  0  1  0  0  0  0  0999 V2000
  181.9020  178.8130  141.9320 C   0  0  0  0  0  0  0  0  0  0  0  0
  186.7580  178.3620  143.2630 C   0  0  0  0  0  0  0  0  0  0  0  0
  188.1770  178.1940  140.9030 C   0  0  0  0  0  0  0  0  0  0  0  0
  183.9670  178.6300  143.1850 C   0  0  0  0  0  0  0  0  0  0  0  0
  182.6160  178.7280  140.7340 C   0  0  0  0  0  3  0  0  0  0  0  0
  180.5550  178.9430  141.9080 F   0  0  0  0  0  0  0  0  0  0  0  0
  184.6970  178.5430  141.9750 C   0  0  0  0  0  0  0  0  0  0  0  0
  182.5760  178.7640  143.1560 C   0  0  0  0  0  3  0  0  0  0  0  0
  184.0070  178.5930  140.7540 C   0  0  0  0  0  3  0  0  0  0  0  0
  186.8250  178.3230  140.8700 N   0  0  0  0  0  0  0  0  0  0  0  0
  186.0970  178.4090  142.0160 C   0  0  0  0  0  0  0  0  0  0  0  0
  186.0220  178.4490  144.4520 C   0  0  0  0  0  3  0  0  0  0  0  0
  188.1510  178.2280  143.2770 C   0  0  0  0  0  0  0  0  0  0  0  0
  188.8260  178.1470  142.0980 N   0  0  0  0  0  0  0  0  0  0  0  0
  184.6330  178.5820  144.4120 C   0  0  0  0  0  3  0  0  0  0  0  0
  188.9370  178.1050  139.6220 C   0  0  1  0  0  3  0  0  0  0  0  0
  190.2170  177.3120  139.8240 C   0  0  0  0  0  1  0  0  0  0  0  0
  188.0770  177.4730  138.5350 C   0  0  0  0  0  2  0  0  0  0  0  0
  187.7320  178.4820  137.4530 C   0  0  1  0  0  3  0  0  0  0  0  0
  189.0040  179.1640  136.9900 C   0  0  0  0  0  1  0  0  0  0  0  0
  187.0700  177.7750  136.2730 C   0  0  0  0  0  2  0  0  0  0  0  0
  186.0780  176.7020  136.7190 C   0  0  1  0  0  3  0  0  0  0  0  0
  184.0150  174.9820  136.8940 C   0  0  0  0  0  2  0  0  0  0  0  0
  184.8530  177.2800  137.0970 O   0  0  0  0  0  0  0  0  0  0  0  0
  185.8370  175.6460  135.6230 C   0  0  2  0  0  3  0  0  0  0  0  0
  184.4960  175.1840  135.5800 O   0  0  0  0  0  0  0  0  0  0  0  0
  184.0960  176.2720  137.7330 C   0  0  0  0  0  2  0  0  0  0  0  0
  186.6530  173.3690  134.8860 C   0  0  0  0  0  3  0  0  0  0  0  0
  186.8270  174.5210  135.6640 C   0  0  0  0  0  0  0  0  0  0  0  0
  190.0170  173.6840  137.3700 N   0  0  0  0  0  1  0  0  0  0  0  0
  188.6840  172.4750  135.7680 N   0  0  0  0  0  0  0  0  0  0  0  0
  188.8750  173.5860  136.5310 C   0  0  0  0  0  0  0  0  0  0  0  0
  187.6030  172.3480  134.9540 C   0  0  0  0  0  3  0  0  0  0  0  0
  187.9470  174.6300  136.4910 C   0  0  0  0  0  3  0  0  0  0  0  0
  188.8400  178.1770  144.4940 O   0  0  0  0  0  0  0  0  0  0  0  0
  189.7800  176.1470  147.4620 C   0  0  0  0  0  2  0  0  0  0  0  0
  191.2830  176.3430  147.2050 C   0  0  1  0  0  0  0  0  0  0  0  0
  191.8490  177.2690  148.2620 C   0  0  0  0  0  1  0  0  0  0  0  0
  190.5570  176.4820  144.7870 C   0  0  0  0  0  2  0  0  0  0  0  0
  188.9320  177.1340  146.6640 C   0  0  0  0  0  2  0  0  0  0  0  0
  189.1390  176.9530  145.1540 C   0  0  1  0  0  3  0  0  0  0  0  0
  191.9100  175.1160  147.3120 F   0  0  0  0  0  0  0  0  0  0  0  0
  191.5830  176.9360  145.8210 C   0  0  0  0  0  2  0  0  0  0  0  0
  1  8  1  0  0  0  0
  2 13  1  0  0  0  0
  2 12  1  0  0  0  0
  3 14  1  0  0  0  0
  4 15  1  0  0  0  0
  5  9  1  0  0  0  0
  5  1  2  0  0  0  0
  6  1  1  0  0  0  0
  7 11  1  0  0  0  0
  7  4  1  0  0  0  0
  8  4  2  0  0  0  0
  9  7  2  0  0  0  0
 10  3  2  0  0  0  0
 10 11  1  0  0  0  0
 11  2  2  0  0  0  0
 13 35  1  0  0  0  0
 14 13  2  0  0  0  0
 15 12  2  0  0  0  0
 16 17  1  1  0  0  0
 16  3  1  0  0  0  0
 18 16  1  0  0  0  0
 19 20  1  6  0  0  0
 19 18  1  0  0  0  0
 21 19  1  0  0  0  0
 22 21  1  6  0  0  0
 22 24  1  0  0  0  0
 23 27  1  0  0  0  0
 24 27  1  0  0  0  0
 25 29  1  1  0  0  0
 25 22  1  0  0  0  0
 26 25  1  0  0  0  0
 26 23  1  0  0  0  0
 28 33  2  0  0  0  0
 28 29  1  0  0  0  0
 29 34  2  0  0  0  0
 31 32  2  0  0  0  0
 32 30  1  0  0  0  0
 33 31  1  0  0  0  0
 34 32  1  0  0  0  0
 37 42  1  0  0  0  0
 37 36  1  0  0  0  0
 37 38  1  1  0  0  0
 39 41  1  0  0  0  0
 39 43  1  0  0  0  0
 40 36  1  0  0  0  0
 41 35  1  6  0  0  0
 41 40  1  0  0  0  0
 43 37  1  0  0  0  0
M  END
>  <MODEL>
9

>  <REMARK>
 VINA RESULT:      -8.4      2.020      6.082
  Name = 
  8 active torsions:
  status: ('A' for Active; 'I' for Inactive)
    1  A    between atoms: O_1  and  C_34
    2  A    between atoms: O_1  and  C_35
    3  A    between atoms: C_2  and  C_6
    4  A    between atoms: C_2  and  C_13
    5  A    between atoms: C_3  and  C_4
    6  A    between atoms: C_3  and  C_12
    7  A    between atoms: C_6  and  C_12
    8  A    between atoms: C_14  and  C_22
                            x       y       z     vdW  Elec       q    Type
                         _______ _______ _______ _____ _____    ______ ____

>  <TORSDO>
F 8

$$$$
