=
 OpenBabel10272415143D

 34 38  0  0  1  0  0  0  0  0999 V2000
  183.9930  178.8440  138.9840 C   0  0  1  0  0  0  0  0  0  0  0  0
  185.7490  176.0400  136.8700 C   0  0  0  0  0  2  0  0  0  0  0  0
  183.5800  177.0830  136.6900 O   0  0  0  0  0  0  0  0  0  0  0  0
  184.2930  180.1750  139.2930 O   0  0  0  0  0  1  0  0  0  0  0  0
  181.4690  179.2350  138.9870 C   0  0  0  0  0  2  0  0  0  0  0  0
  180.0450  178.0940  137.2760 C   0  0  0  0  0  3  0  0  0  0  0  0
  180.1530  178.9170  138.3270 C   0  0  0  0  0  3  0  0  0  0  0  0
  182.4710  177.4360  137.4870 C   0  0  1  0  0  3  0  0  0  0  0  0
  182.6900  178.8180  138.1500 C   0  0  2  0  0  3  0  0  0  0  0  0
  181.2400  177.4950  136.5870 C   0  0  0  0  0  2  0  0  0  0  0  0
  186.8520  176.8360  136.1830 C   0  0  0  0  0  2  0  0  0  0  0  0
  187.8600  177.3150  137.2270 C   0  0  2  0  0  3  0  0  0  0  0  0
  187.4570  178.5390  137.7790 O   0  0  0  0  0  0  0  0  0  0  0  0
  184.6700  176.8910  137.5540 C   0  0  2  0  0  3  0  0  0  0  0  0
  186.4980  178.2410  138.7560 C   0  0  0  0  0  2  0  0  0  0  0  0
  185.1150  178.2580  138.1090 C   0  0  2  0  0  3  0  0  0  0  0  0
  189.2020  177.4700  136.5960 C   0  0  0  0  0  0  0  0  0  0  0  0
  190.3560  177.3320  137.3580 O   0  0  0  0  0  1  0  0  0  0  0  0
  189.2880  177.7420  135.3720 O   0  0  0  0  0  0  0  0  0  0  0  0
  183.8040  178.0290  140.2820 C   0  0  0  0  0  2  0  0  0  0  0  0
  183.1880  178.8340  141.4190 C   0  0  0  0  0  2  0  0  0  0  0  0
  184.8210  178.8150  144.8780 C   0  0  0  0  0  2  0  0  0  0  0  0
  185.5430  178.4800  142.1300 C   0  0  0  0  0  3  0  0  0  0  0  0
  188.0970  176.8650  145.0790 C   0  0  1  0  0  3  0  0  0  0  0  0
  186.6550  177.2190  145.4490 C   0  0  0  0  0  2  0  0  0  0  0  0
  186.0270  178.1010  144.4650 N   0  0  0  0  0  0  0  0  0  0  0  0
  187.7140  177.4930  142.6460 C   0  0  0  0  0  2  0  0  0  0  0  0
  186.3820  178.0280  143.0670 C   0  0  0  0  0  0  0  0  0  0  0  0
  188.2160  176.4260  143.6130 C   0  0  0  0  0  2  0  0  0  0  0  0
  184.2260  179.1160  142.4900 C   0  0  2  0  0  3  0  0  0  0  0  0
  183.7210  178.6180  143.8410 C   0  0  0  0  0  2  0  0  0  0  0  0
  189.1190  177.9100  145.5500 C   0  0  0  0  0  3  0  0  0  0  0  0
  189.2050  177.9450  147.0640 C   0  0  0  0  0  1  0  0  0  0  0  0
  190.5060  177.7270  144.9530 C   0  0  0  0  0  1  0  0  0  0  0  0
  1  4  1  1  0  0  0
  1 20  1  0  0  0  0
  3  8  1  0  0  0  0
  3 14  1  0  0  0  0
  6  7  2  0  0  0  0
  7  5  1  0  0  0  0
  8 10  1  6  0  0  0
  8  9  1  0  0  0  0
  9  1  1  0  0  0  0
  9  5  1  1  0  0  0
 10  6  1  0  0  0  0
 11  2  1  0  0  0  0
 11 12  1  0  0  0  0
 12 17  1  6  0  0  0
 12 13  1  0  0  0  0
 13 15  1  0  0  0  0
 14  2  1  6  0  0  0
 14 16  1  0  0  0  0
 16 15  1  1  0  0  0
 16  1  1  0  0  0  0
 17 18  1  0  0  0  0
 19 17  2  0  0  0  0
 20 21  1  0  0  0  0
 23 30  1  0  0  0  0
 23 28  2  0  0  0  0
 24 25  1  0  0  0  0
 24 32  1  6  0  0  0
 26 22  1  0  0  0  0
 26 25  1  0  0  0  0
 27 28  1  0  0  0  0
 27 29  1  0  0  0  0
 28 26  1  0  0  0  0
 29 24  1  0  0  0  0
 30 21  1  6  0  0  0
 30 31  1  0  0  0  0
 31 22  1  0  0  0  0
 32 33  1  0  0  0  0
 34 32  1  0  0  0  0
M  END
>  <MODEL>
1

>  <REMARK>
 VINA RESULT:      -8.8      0.000      0.000
  Name = 
  5 active torsions:
  status: ('A' for Active; 'I' for Inactive)
    1  A    between atoms: C_1  and  C_8
    2  A    between atoms: C_3  and  C_25
    3  A    between atoms: C_7  and  C_11
    4  A    between atoms: C_8  and  C_18
    5  A    between atoms: C_18  and  C_30
                            x       y       z     vdW  Elec       q    Type
                         _______ _______ _______ _____ _____    ______ ____

>  <TORSDO>
F 5

$$$$
=
 OpenBabel10272415143D

 34 38  0  0  1  0  0  0  0  0999 V2000
  187.8310  177.2610  143.7030 C   0  0  1  0  0  0  0  0  0  0  0  0
  189.5910  178.3840  147.0290 C   0  0  0  0  0  2  0  0  0  0  0  0
  187.2650  178.1900  146.4140 O   0  0  0  0  0  0  0  0  0  0  0  0
  187.8380  176.0930  142.9330 O   0  0  0  0  0  1  0  0  0  0  0  0
  185.4060  177.8250  143.1310 C   0  0  0  0  0  2  0  0  0  0  0  0
  183.9110  178.7680  144.9020 C   0  0  0  0  0  3  0  0  0  0  0  0
  184.0920  178.3570  143.6410 C   0  0  0  0  0  3  0  0  0  0  0  0
  186.3790  178.5430  145.3740 C   0  0  1  0  0  3  0  0  0  0  0  0
  186.4000  177.4760  144.2520 C   0  0  2  0  0  3  0  0  0  0  0  0
  184.9730  178.6350  145.9590 C   0  0  0  0  0  2  0  0  0  0  0  0
  190.1930  177.0660  147.5030 C   0  0  0  0  0  2  0  0  0  0  0  0
  191.2910  176.6310  146.5330 C   0  0  2  0  0  3  0  0  0  0  0  0
  190.7510  175.8890  145.4730 O   0  0  0  0  0  0  0  0  0  0  0  0
  188.5660  178.2530  145.8930 C   0  0  2  0  0  3  0  0  0  0  0  0
  190.2310  176.8160  144.5600 C   0  0  0  0  0  2  0  0  0  0  0  0
  188.7680  177.0830  144.9110 C   0  0  2  0  0  3  0  0  0  0  0  0
  192.3020  175.8070  147.2540 C   0  0  0  0  0  0  0  0  0  0  0  0
  192.8180  176.2340  148.4720 O   0  0  0  0  0  1  0  0  0  0  0  0
  192.6990  174.7250  146.7520 O   0  0  0  0  0  0  0  0  0  0  0  0
  188.2490  178.4690  142.8370 C   0  0  0  0  0  2  0  0  0  0  0  0
  187.7320  178.3970  141.4060 C   0  0  0  0  0  2  0  0  0  0  0  0
  191.0890  177.2250  139.9940 C   0  0  0  0  0  2  0  0  0  0  0  0
  188.4170  177.7400  139.1080 C   0  0  0  0  0  3  0  0  0  0  0  0
  190.8330  175.1760  136.7830 C   0  0  1  0  0  3  0  0  0  0  0  0
  191.2210  175.4550  138.2360 C   0  0  0  0  0  2  0  0  0  0  0  0
  190.5350  176.6260  138.7810 N   0  0  0  0  0  0  0  0  0  0  0  0
  188.7080  176.5520  136.9980 C   0  0  0  0  0  2  0  0  0  0  0  0
  189.2060  176.9820  138.3410 C   0  0  0  0  0  0  0  0  0  0  0  0
  189.3130  175.2160  136.5810 C   0  0  0  0  0  2  0  0  0  0  0  0
  188.8900  178.2850  140.4310 C   0  0  2  0  0  3  0  0  0  0  0  0
  189.9860  177.4090  141.0310 C   0  0  0  0  0  2  0  0  0  0  0  0
  191.6640  175.9760  135.7680 C   0  0  0  0  0  3  0  0  0  0  0  0
  193.1100  176.0850  136.2120 C   0  0  0  0  0  1  0  0  0  0  0  0
  191.5930  175.4340  134.3500 C   0  0  0  0  0  1  0  0  0  0  0  0
  1  4  1  6  0  0  0
  1  9  1  0  0  0  0
  1 16  1  0  0  0  0
  2 11  1  0  0  0  0
  5  7  1  0  0  0  0
  6 10  1  0  0  0  0
  7  6  2  0  0  0  0
  8 10  1  1  0  0  0
  8  3  1  0  0  0  0
  9  5  1  6  0  0  0
  9  8  1  0  0  0  0
 12 17  1  1  0  0  0
 12 11  1  0  0  0  0
 13 12  1  0  0  0  0
 14  3  1  0  0  0  0
 14  2  1  1  0  0  0
 15 13  1  0  0  0  0
 16 15  1  6  0  0  0
 16 14  1  0  0  0  0
 17 18  1  0  0  0  0
 19 17  2  0  0  0  0
 20  1  1  0  0  0  0
 21 20  1  0  0  0  0
 22 31  1  0  0  0  0
 23 30  1  0  0  0  0
 24 32  1  6  0  0  0
 24 25  1  0  0  0  0
 25 26  1  0  0  0  0
 26 22  1  0  0  0  0
 27 28  1  0  0  0  0
 28 26  1  0  0  0  0
 28 23  2  0  0  0  0
 29 24  1  0  0  0  0
 29 27  1  0  0  0  0
 30 31  1  0  0  0  0
 30 21  1  1  0  0  0
 32 33  1  0  0  0  0
 34 32  1  0  0  0  0
M  END
>  <MODEL>
2

>  <REMARK>
 VINA RESULT:      -8.6      4.351      8.602
  Name = 
  5 active torsions:
  status: ('A' for Active; 'I' for Inactive)
    1  A    between atoms: C_1  and  C_8
    2  A    between atoms: C_3  and  C_25
    3  A    between atoms: C_7  and  C_11
    4  A    between atoms: C_8  and  C_18
    5  A    between atoms: C_18  and  C_30
                            x       y       z     vdW  Elec       q    Type
                         _______ _______ _______ _____ _____    ______ ____

>  <TORSDO>
F 5

$$$$
=
 OpenBabel10272415143D

 34 38  0  0  1  0  0  0  0  0999 V2000
  187.7200  177.2830  144.3610 C   0  0  1  0  0  0  0  0  0  0  0  0
  191.1980  178.5730  143.0730 C   0  0  0  0  0  2  0  0  0  0  0  0
  190.4380  177.8730  145.2550 O   0  0  0  0  0  0  0  0  0  0  0  0
  186.8920  176.2030  144.0380 O   0  0  0  0  0  1  0  0  0  0  0  0
  187.0370  177.2910  146.8230 C   0  0  0  0  0  2  0  0  0  0  0  0
  188.7640  177.7350  148.5770 C   0  0  0  0  0  3  0  0  0  0  0  0
  187.4950  177.4610  148.2470 C   0  0  0  0  0  3  0  0  0  0  0  0
  189.3670  178.0720  146.1510 C   0  0  1  0  0  3  0  0  0  0  0  0
  188.1940  177.1160  145.8240 C   0  0  2  0  0  3  0  0  0  0  0  0
  189.8730  177.7900  147.5630 C   0  0  0  0  0  2  0  0  0  0  0  0
  191.6370  177.4080  142.1930 C   0  0  0  0  0  2  0  0  0  0  0  0
  190.7120  177.3110  140.9810 C   0  0  2  0  0  3  0  0  0  0  0  0
  189.5850  176.5310  141.2790 O   0  0  0  0  0  0  0  0  0  0  0  0
  189.9980  178.2770  143.9840 C   0  0  2  0  0  3  0  0  0  0  0  0
  188.6930  177.3650  141.9650 C   0  0  0  0  0  2  0  0  0  0  0  0
  188.9700  177.2540  143.4640 C   0  0  2  0  0  3  0  0  0  0  0  0
  191.4470  176.7040  139.8350 C   0  0  0  0  0  0  0  0  0  0  0  0
  190.8190  175.7850  139.0040 O   0  0  0  0  0  0  0  0  0  0  0  0
  192.6480  177.0170  139.6280 O   0  0  0  0  0  1  0  0  0  0  0  0
  186.9440  178.6090  144.2070 C   0  0  0  0  0  2  0  0  0  0  0  0
  185.4310  178.4310  144.2140 C   0  0  0  0  0  2  0  0  0  0  0  0
  184.7960  179.1360  140.5080 C   0  0  0  0  0  2  0  0  0  0  0  0
  183.3310  178.8390  142.9480 C   0  0  0  0  0  3  0  0  0  0  0  0
  181.2810  178.2580  139.3030 C   0  0  1  0  0  3  0  0  0  0  0  0
  182.8100  178.1960  139.3210 C   0  0  0  0  0  2  0  0  0  0  0  0
  183.3780  178.7820  140.5340 N   0  0  0  0  0  0  0  0  0  0  0  0
  181.1830  178.5750  141.8230 C   0  0  0  0  0  2  0  0  0  0  0  0
  182.6710  178.7200  141.7920 C   0  0  0  0  0  0  0  0  0  0  0  0
  180.6770  177.7740  140.6280 C   0  0  0  0  0  2  0  0  0  0  0  0
  184.8180  179.0810  142.9870 C   0  0  2  0  0  3  0  0  0  0  0  0
  185.4980  178.5510  141.7280 C   0  0  0  0  0  2  0  0  0  0  0  0
  180.7330  179.5880  138.7650 C   0  0  0  0  0  3  0  0  0  0  0  0
  181.8390  180.6190  138.6330 C   0  0  0  0  0  1  0  0  0  0  0  0
  179.9820  179.4580  137.4500 C   0  0  0  0  0  1  0  0  0  0  0  0
  1  4  1  6  0  0  0
  1  9  1  0  0  0  0
  3  8  1  0  0  0  0
  5  7  1  0  0  0  0
  7  6  2  0  0  0  0
  8 10  1  1  0  0  0
  9  8  1  0  0  0  0
  9  5  1  1  0  0  0
 10  6  1  0  0  0  0
 11  2  1  0  0  0  0
 12 17  1  6  0  0  0
 12 13  1  0  0  0  0
 12 11  1  0  0  0  0
 13 15  1  0  0  0  0
 14  2  1  6  0  0  0
 14  3  1  0  0  0  0
 16 15  1  6  0  0  0
 16 14  1  0  0  0  0
 16  1  1  0  0  0  0
 18 17  2  0  0  0  0
 19 17  1  0  0  0  0
 20 21  1  0  0  0  0
 20  1  1  0  0  0  0
 22 26  1  0  0  0  0
 22 31  1  0  0  0  0
 23 30  1  0  0  0  0
 24 32  1  1  0  0  0
 24 25  1  0  0  0  0
 24 29  1  0  0  0  0
 25 26  1  0  0  0  0
 26 28  1  0  0  0  0
 28 27  1  0  0  0  0
 28 23  2  0  0  0  0
 29 27  1  0  0  0  0
 30 21  1  1  0  0  0
 31 30  1  0  0  0  0
 33 32  1  0  0  0  0
 34 32  1  0  0  0  0
M  END
>  <MODEL>
3

>  <REMARK>
 VINA RESULT:      -8.5      3.011      8.073
  Name = 
  5 active torsions:
  status: ('A' for Active; 'I' for Inactive)
    1  A    between atoms: C_1  and  C_8
    2  A    between atoms: C_3  and  C_25
    3  A    between atoms: C_7  and  C_11
    4  A    between atoms: C_8  and  C_18
    5  A    between atoms: C_18  and  C_30
                            x       y       z     vdW  Elec       q    Type
                         _______ _______ _______ _____ _____    ______ ____

>  <TORSDO>
F 5

$$$$
=
 OpenBabel10272415143D

 34 38  0  0  1  0  0  0  0  0999 V2000
  188.1960  177.1200  143.4150 C   0  0  1  0  0  0  0  0  0  0  0  0
  189.6670  178.3540  146.8410 C   0  0  0  0  0  2  0  0  0  0  0  0
  187.4020  178.1390  146.0360 O   0  0  0  0  0  0  0  0  0  0  0  0
  188.2670  175.9270  142.6890 O   0  0  0  0  0  1  0  0  0  0  0  0
  185.8300  177.6630  142.6200 C   0  0  0  0  0  2  0  0  0  0  0  0
  184.1910  178.6640  144.2240 C   0  0  0  0  0  3  0  0  0  0  0  0
  184.4790  178.2110  142.9970 C   0  0  0  0  0  3  0  0  0  0  0  0
  186.6090  178.4560  144.9130 C   0  0  1  0  0  3  0  0  0  0  0  0
  186.7240  177.3530  143.8320 C   0  0  2  0  0  3  0  0  0  0  0  0
  185.1580  178.5670  145.3720 C   0  0  0  0  0  2  0  0  0  0  0  0
  190.2240  177.0530  147.4080 C   0  0  0  0  0  2  0  0  0  0  0  0
  191.4000  176.5870  146.5510 C   0  0  2  0  0  3  0  0  0  0  0  0
  190.9500  175.8090  145.4740 O   0  0  0  0  0  0  0  0  0  0  0  0
  188.7430  178.1850  145.6260 C   0  0  2  0  0  3  0  0  0  0  0  0
  190.5120  176.7050  144.4900 C   0  0  0  0  0  2  0  0  0  0  0  0
  189.0250  176.9830  144.7050 C   0  0  2  0  0  3  0  0  0  0  0  0
  192.3430  175.7880  147.3840 C   0  0  0  0  0  0  0  0  0  0  0  0
  192.8060  176.2860  148.5960 O   0  0  0  0  0  1  0  0  0  0  0  0
  192.7320  174.6630  146.9800 O   0  0  0  0  0  0  0  0  0  0  0  0
  188.6900  178.2990  142.5490 C   0  0  0  0  0  2  0  0  0  0  0  0
  190.0410  178.0440  141.8920 C   0  0  0  0  0  2  0  0  0  0  0  0
  190.0380  176.6560  138.3270 C   0  0  0  0  0  2  0  0  0  0  0  0
  188.4980  178.4130  139.9780 C   0  0  0  0  0  3  0  0  0  0  0  0
  186.6250  176.6770  136.6160 C   0  0  1  0  0  3  0  0  0  0  0  0
  187.9130  176.0560  137.1600 C   0  0  0  0  0  2  0  0  0  0  0  0
  188.6350  176.9600  138.0540 N   0  0  0  0  0  0  0  0  0  0  0  0
  186.5690  178.3990  138.4850 C   0  0  0  0  0  2  0  0  0  0  0  0
  187.9280  177.9140  138.8770 C   0  0  0  0  0  0  0  0  0  0  0  0
  185.7920  177.3260  137.7290 C   0  0  0  0  0  2  0  0  0  0  0  0
  189.9000  178.0390  140.3810 C   0  0  2  0  0  3  0  0  0  0  0  0
  190.2880  176.6690  139.8310 C   0  0  0  0  0  2  0  0  0  0  0  0
  186.8480  177.5360  135.3610 C   0  0  0  0  0  3  0  0  0  0  0  0
  188.0230  177.0210  134.5500 C   0  0  0  0  0  1  0  0  0  0  0  0
  185.6190  177.6630  134.4760 C   0  0  0  0  0  1  0  0  0  0  0  0
  1  4  1  6  0  0  0
  1  9  1  0  0  0  0
  1 16  1  0  0  0  0
  2 11  1  0  0  0  0
  5  7  1  0  0  0  0
  6 10  1  0  0  0  0
  7  6  2  0  0  0  0
  8 10  1  1  0  0  0
  8  3  1  0  0  0  0
  9  5  1  6  0  0  0
  9  8  1  0  0  0  0
 12 17  1  1  0  0  0
 12 11  1  0  0  0  0
 13 12  1  0  0  0  0
 14  3  1  0  0  0  0
 14  2  1  1  0  0  0
 15 13  1  0  0  0  0
 16 15  1  6  0  0  0
 16 14  1  0  0  0  0
 17 18  1  0  0  0  0
 19 17  2  0  0  0  0
 20  1  1  0  0  0  0
 21 20  1  0  0  0  0
 22 31  1  0  0  0  0
 23 30  1  0  0  0  0
 24 32  1  6  0  0  0
 24 25  1  0  0  0  0
 24 29  1  0  0  0  0
 25 26  1  0  0  0  0
 26 22  1  0  0  0  0
 26 28  1  0  0  0  0
 27 28  1  0  0  0  0
 28 23  2  0  0  0  0
 29 27  1  0  0  0  0
 30 21  1  1  0  0  0
 31 30  1  0  0  0  0
 33 32  1  0  0  0  0
 34 32  1  0  0  0  0
M  END
>  <MODEL>
4

>  <REMARK>
 VINA RESULT:      -8.3      3.956      8.645
  Name = 
  5 active torsions:
  status: ('A' for Active; 'I' for Inactive)
    1  A    between atoms: C_1  and  C_8
    2  A    between atoms: C_3  and  C_25
    3  A    between atoms: C_7  and  C_11
    4  A    between atoms: C_8  and  C_18
    5  A    between atoms: C_18  and  C_30
                            x       y       z     vdW  Elec       q    Type
                         _______ _______ _______ _____ _____    ______ ____

>  <TORSDO>
F 5

$$$$
=
 OpenBabel10272415143D

 34 38  0  0  1  0  0  0  0  0999 V2000
  189.1520  177.3490  137.8790 C   0  0  1  0  0  0  0  0  0  0  0  0
  190.7470  173.8780  136.9700 C   0  0  0  0  0  2  0  0  0  0  0  0
  188.6300  174.8870  136.3960 O   0  0  0  0  0  0  0  0  0  0  0  0
  189.5200  178.6830  137.6760 O   0  0  0  0  0  1  0  0  0  0  0  0
  186.6500  177.8380  137.7120 C   0  0  0  0  0  2  0  0  0  0  0  0
  185.1550  176.2160  136.5310 C   0  0  0  0  0  3  0  0  0  0  0  0
  185.3140  177.3630  137.2040 C   0  0  0  0  0  3  0  0  0  0  0  0
  187.5480  175.5640  136.9940 C   0  0  1  0  0  3  0  0  0  0  0  0
  187.8410  177.0810  137.1010 C   0  0  2  0  0  3  0  0  0  0  0  0
  186.3130  175.3470  136.1250 C   0  0  0  0  0  2  0  0  0  0  0  0
  191.8820  174.3080  136.0470 C   0  0  0  0  0  2  0  0  0  0  0  0
  192.9210  175.0890  136.8500 C   0  0  2  0  0  3  0  0  0  0  0  0
  192.5840  176.4490  136.9060 O   0  0  0  0  0  0  0  0  0  0  0  0
  189.7170  174.9750  137.2800 C   0  0  2  0  0  3  0  0  0  0  0  0
  191.6210  176.5810  137.9150 C   0  0  0  0  0  2  0  0  0  0  0  0
  190.2340  176.4260  137.2930 C   0  0  2  0  0  3  0  0  0  0  0  0
  194.2630  174.9340  136.2200 C   0  0  0  0  0  0  0  0  0  0  0  0
  195.3130  175.7680  136.5860 O   0  0  0  0  0  1  0  0  0  0  0  0
  194.4420  174.0520  135.3420 O   0  0  0  0  0  0  0  0  0  0  0  0
  188.9350  177.0830  139.3840 C   0  0  0  0  0  2  0  0  0  0  0  0
  189.7630  177.9890  140.2860 C   0  0  0  0  0  2  0  0  0  0  0  0
  186.8510  178.0880  142.7660 C   0  0  0  0  0  2  0  0  0  0  0  0
  189.7080  178.2620  142.7560 C   0  0  0  0  0  3  0  0  0  0  0  0
  187.7850  177.1610  146.3500 C   0  0  1  0  0  3  0  0  0  0  0  0
  187.0260  177.0420  145.0270 C   0  0  0  0  0  2  0  0  0  0  0  0
  187.6600  177.8000  143.9500 N   0  0  0  0  0  0  0  0  0  0  0  0
  189.9070  177.8990  145.1600 C   0  0  0  0  0  2  0  0  0  0  0  0
  189.0930  177.9780  143.9080 C   0  0  0  0  0  0  0  0  0  0  0  0
  189.2910  176.9300  146.1640 C   0  0  0  0  0  2  0  0  0  0  0  0
  188.9380  178.4480  141.4740 C   0  0  2  0  0  3  0  0  0  0  0  0
  187.6150  177.6880  141.5080 C   0  0  0  0  0  2  0  0  0  0  0  0
  187.3950  178.4030  147.1650 C   0  0  0  0  0  3  0  0  0  0  0  0
  185.8990  178.6510  147.0990 C   0  0  0  0  0  1  0  0  0  0  0  0
  187.8530  178.3580  148.6140 C   0  0  0  0  0  1  0  0  0  0  0  0
  1  4  1  6  0  0  0
  1 20  1  0  0  0  0
  3  8  1  0  0  0  0
  3 14  1  0  0  0  0
  6  7  2  0  0  0  0
  7  5  1  0  0  0  0
  8 10  1  6  0  0  0
  8  9  1  0  0  0  0
  9  5  1  1  0  0  0
  9  1  1  0  0  0  0
 10  6  1  0  0  0  0
 11 12  1  0  0  0  0
 11  2  1  0  0  0  0
 12 17  1  6  0  0  0
 12 13  1  0  0  0  0
 13 15  1  0  0  0  0
 14  2  1  6  0  0  0
 14 16  1  0  0  0  0
 16  1  1  0  0  0  0
 16 15  1  1  0  0  0
 17 18  1  0  0  0  0
 19 17  2  0  0  0  0
 20 21  1  0  0  0  0
 22 26  1  0  0  0  0
 23 28  2  0  0  0  0
 24 32  1  6  0  0  0
 25 24  1  0  0  0  0
 26 25  1  0  0  0  0
 27 29  1  0  0  0  0
 28 26  1  0  0  0  0
 28 27  1  0  0  0  0
 29 24  1  0  0  0  0
 30 21  1  6  0  0  0
 30 31  1  0  0  0  0
 30 23  1  0  0  0  0
 31 22  1  0  0  0  0
 32 34  1  0  0  0  0
 33 32  1  0  0  0  0
M  END
>  <MODEL>
5

>  <REMARK>
 VINA RESULT:      -8.3      2.837      4.859
  Name = 
  5 active torsions:
  status: ('A' for Active; 'I' for Inactive)
    1  A    between atoms: C_1  and  C_8
    2  A    between atoms: C_3  and  C_25
    3  A    between atoms: C_7  and  C_11
    4  A    between atoms: C_8  and  C_18
    5  A    between atoms: C_18  and  C_30
                            x       y       z     vdW  Elec       q    Type
                         _______ _______ _______ _____ _____    ______ ____

>  <TORSDO>
F 5

$$$$
=
 OpenBabel10272415143D

 34 38  0  0  1  0  0  0  0  0999 V2000
  190.5800  176.0180  137.3760 C   0  0  1  0  0  0  0  0  0  0  0  0
  193.2470  173.2610  136.5340 C   0  0  0  0  0  2  0  0  0  0  0  0
  190.8970  173.4510  136.0170 O   0  0  0  0  0  0  0  0  0  0  0  0
  190.4600  177.3840  137.1030 O   0  0  0  0  0  1  0  0  0  0  0  0
  188.0590  175.6090  137.3040 C   0  0  0  0  0  2  0  0  0  0  0  0
  187.1820  173.5130  136.2580 C   0  0  0  0  0  3  0  0  0  0  0  0
  186.9550  174.6790  136.8770 C   0  0  0  0  0  3  0  0  0  0  0  0
  189.6650  173.7460  136.6370 C   0  0  1  0  0  3  0  0  0  0  0  0
  189.4200  175.2750  136.6700 C   0  0  2  0  0  3  0  0  0  0  0  0
  188.5560  173.0730  135.8340 C   0  0  0  0  0  2  0  0  0  0  0  0
  194.1360  174.0040  135.5440 C   0  0  0  0  0  2  0  0  0  0  0  0
  194.8660  175.1360  136.2670 C   0  0  2  0  0  3  0  0  0  0  0  0
  194.0830  176.2990  136.2840 O   0  0  0  0  0  0  0  0  0  0  0  0
  191.9120  173.9530  136.8470 C   0  0  2  0  0  3  0  0  0  0  0  0
  193.1630  176.1460  137.3300 C   0  0  0  0  0  2  0  0  0  0  0  0
  191.8970  175.4920  136.7790 C   0  0  2  0  0  3  0  0  0  0  0  0
  196.1610  175.4170  135.5830 C   0  0  0  0  0  0  0  0  0  0  0  0
  197.1350  176.1830  136.2110 O   0  0  0  0  0  1  0  0  0  0  0  0
  196.3650  174.9700  134.4260 O   0  0  0  0  0  0  0  0  0  0  0  0
  190.5120  175.7730  138.8990 C   0  0  0  0  0  2  0  0  0  0  0  0
  190.4410  177.0570  139.7160 C   0  0  0  0  0  2  0  0  0  0  0  0
  191.6420  177.5430  143.3160 C   0  0  0  0  0  2  0  0  0  0  0  0
  189.3060  176.6930  141.8980 C   0  0  0  0  0  3  0  0  0  0  0  0
  188.8480  178.0570  145.8670 C   0  0  1  0  0  3  0  0  0  0  0  0
  190.1190  178.4130  145.0950 C   0  0  0  0  0  2  0  0  0  0  0  0
  190.3070  177.5750  143.9110 N   0  0  0  0  0  0  0  0  0  0  0  0
  187.8470  176.8880  143.8430 C   0  0  0  0  0  2  0  0  0  0  0  0
  189.1740  177.0630  143.1750 C   0  0  0  0  0  0  0  0  0  0  0  0
  187.6340  177.9300  144.9370 C   0  0  0  0  0  2  0  0  0  0  0  0
  190.6350  176.7550  141.1910 C   0  0  2  0  0  3  0  0  0  0  0  0
  191.5480  177.8050  141.8180 C   0  0  0  0  0  2  0  0  0  0  0  0
  189.0460  176.9080  146.8670 C   0  0  0  0  0  3  0  0  0  0  0  0
  190.5130  176.7320  147.2120 C   0  0  0  0  0  1  0  0  0  0  0  0
  188.2250  177.0490  148.1390 C   0  0  0  0  0  1  0  0  0  0  0  0
  1  4  1  6  0  0  0
  1 20  1  0  0  0  0
  3  8  1  0  0  0  0
  3 14  1  0  0  0  0
  6  7  2  0  0  0  0
  7  5  1  0  0  0  0
  8 10  1  6  0  0  0
  8  9  1  0  0  0  0
  9  5  1  1  0  0  0
  9  1  1  0  0  0  0
 10  6  1  0  0  0  0
 11 12  1  0  0  0  0
 11  2  1  0  0  0  0
 12 17  1  6  0  0  0
 12 13  1  0  0  0  0
 13 15  1  0  0  0  0
 14  2  1  6  0  0  0
 16 14  1  0  0  0  0
 16 15  1  1  0  0  0
 16  1  1  0  0  0  0
 17 18  1  0  0  0  0
 19 17  2  0  0  0  0
 20 21  1  0  0  0  0
 22 26  1  0  0  0  0
 23 28  2  0  0  0  0
 24 32  1  6  0  0  0
 25 24  1  0  0  0  0
 26 25  1  0  0  0  0
 27 29  1  0  0  0  0
 28 27  1  0  0  0  0
 28 26  1  0  0  0  0
 29 24  1  0  0  0  0
 30 21  1  6  0  0  0
 30 31  1  0  0  0  0
 30 23  1  0  0  0  0
 31 22  1  0  0  0  0
 32 33  1  0  0  0  0
 32 34  1  0  0  0  0
M  END
>  <MODEL>
6

>  <REMARK>
 VINA RESULT:      -8.3      4.309      6.631
  Name = 
  5 active torsions:
  status: ('A' for Active; 'I' for Inactive)
    1  A    between atoms: C_1  and  C_8
    2  A    between atoms: C_3  and  C_25
    3  A    between atoms: C_7  and  C_11
    4  A    between atoms: C_8  and  C_18
    5  A    between atoms: C_18  and  C_30
                            x       y       z     vdW  Elec       q    Type
                         _______ _______ _______ _____ _____    ______ ____

>  <TORSDO>
F 5

$$$$
=
 OpenBabel10272415143D

 34 38  0  0  1  0  0  0  0  0999 V2000
  184.3600  178.8650  141.9460 C   0  0  1  0  0  0  0  0  0  0  0  0
  184.1590  176.9400  138.5290 C   0  0  0  0  0  2  0  0  0  0  0  0
  182.4660  177.9640  139.9120 O   0  0  0  0  0  0  0  0  0  0  0  0
  185.0150  180.0200  142.3850 O   0  0  0  0  0  1  0  0  0  0  0  0
  182.3540  179.2100  143.4890 C   0  0  0  0  0  2  0  0  0  0  0  0
  180.0540  178.6900  142.6540 C   0  0  0  0  0  3  0  0  0  0  0  0
  180.8580  179.1180  143.6360 C   0  0  0  0  0  3  0  0  0  0  0  0
  182.0450  178.0220  141.2570 C   0  0  1  0  0  3  0  0  0  0  0  0
  182.8340  179.1060  142.0320 C   0  0  2  0  0  3  0  0  0  0  0  0
  180.5590  178.3660  141.2750 C   0  0  0  0  0  2  0  0  0  0  0  0
  184.8420  177.9300  137.5920 C   0  0  0  0  0  2  0  0  0  0  0  0
  186.3200  178.0430  137.9630 C   0  0  2  0  0  3  0  0  0  0  0  0
  186.5080  179.0100  138.9610 O   0  0  0  0  0  0  0  0  0  0  0  0
  183.7920  177.5060  139.9090 C   0  0  2  0  0  3  0  0  0  0  0  0
  186.1900  178.3950  140.1780 C   0  0  0  0  0  2  0  0  0  0  0  0
  184.7060  178.6140  140.4670 C   0  0  2  0  0  3  0  0  0  0  0  0
  187.1140  178.4120  136.7560 C   0  0  0  0  0  0  0  0  0  0  0  0
  188.2670  179.1790  136.8810 O   0  0  0  0  0  1  0  0  0  0  0  0
  186.7310  178.0390  135.6190 O   0  0  0  0  0  0  0  0  0  0  0  0
  184.7540  177.6630  142.8300 C   0  0  0  0  0  2  0  0  0  0  0  0
  185.4380  178.0660  144.1310 C   0  0  0  0  0  2  0  0  0  0  0  0
  189.0510  176.8700  143.7430 C   0  0  0  0  0  2  0  0  0  0  0  0
  187.1100  177.2960  145.8020 C   0  0  0  0  0  3  0  0  0  0  0  0
  191.1890  177.2290  146.8860 C   0  0  1  0  0  3  0  0  0  0  0  0
  190.8070  177.4510  145.4220 C   0  0  0  0  0  2  0  0  0  0  0  0
  189.4220  177.0740  145.1430 N   0  0  0  0  0  0  0  0  0  0  0  0
  188.7510  177.2010  147.6040 C   0  0  0  0  0  2  0  0  0  0  0  0
  188.3960  177.2090  146.1510 C   0  0  0  0  0  0  0  0  0  0  0  0
  190.1330  177.7990  147.8430 C   0  0  0  0  0  2  0  0  0  0  0  0
  186.6750  177.2170  144.3620 C   0  0  2  0  0  3  0  0  0  0  0  0
  187.7900  177.6630  143.4210 C   0  0  0  0  0  2  0  0  0  0  0  0
  191.6540  175.7950  147.1820 C   0  0  0  0  0  3  0  0  0  0  0  0
  192.1150  175.0990  145.9140 C   0  0  0  0  0  1  0  0  0  0  0  0
  192.7320  175.7040  148.2490 C   0  0  0  0  0  1  0  0  0  0  0  0
  1  9  1  0  0  0  0
  1  4  1  1  0  0  0
  1 20  1  0  0  0  0
  3  8  1  0  0  0  0
  5  7  1  0  0  0  0
  6  7  2  0  0  0  0
  8 10  1  6  0  0  0
  8  9  1  0  0  0  0
  9  5  1  1  0  0  0
 10  6  1  0  0  0  0
 11 12  1  0  0  0  0
 11  2  1  0  0  0  0
 12 17  1  6  0  0  0
 12 13  1  0  0  0  0
 13 15  1  0  0  0  0
 14  2  1  6  0  0  0
 14  3  1  0  0  0  0
 14 16  1  0  0  0  0
 16 15  1  1  0  0  0
 16  1  1  0  0  0  0
 17 18  1  0  0  0  0
 19 17  2  0  0  0  0
 20 21  1  0  0  0  0
 22 26  1  0  0  0  0
 23 28  2  0  0  0  0
 24 32  1  6  0  0  0
 24 29  1  0  0  0  0
 25 24  1  0  0  0  0
 26 25  1  0  0  0  0
 26 28  1  0  0  0  0
 27 29  1  0  0  0  0
 28 27  1  0  0  0  0
 30 21  1  1  0  0  0
 30 23  1  0  0  0  0
 31 22  1  0  0  0  0
 31 30  1  0  0  0  0
 32 34  1  0  0  0  0
 33 32  1  0  0  0  0
M  END
>  <MODEL>
7

>  <REMARK>
 VINA RESULT:      -8.3      2.003      3.707
  Name = 
  5 active torsions:
  status: ('A' for Active; 'I' for Inactive)
    1  A    between atoms: C_1  and  C_8
    2  A    between atoms: C_3  and  C_25
    3  A    between atoms: C_7  and  C_11
    4  A    between atoms: C_8  and  C_18
    5  A    between atoms: C_18  and  C_30
                            x       y       z     vdW  Elec       q    Type
                         _______ _______ _______ _____ _____    ______ ____

>  <TORSDO>
F 5

$$$$
=
 OpenBabel10272415143D

 34 38  0  0  1  0  0  0  0  0999 V2000
  187.6420  177.4350  144.3900 C   0  0  1  0  0  0  0  0  0  0  0  0
  191.1450  178.5660  143.0230 C   0  0  0  0  0  2  0  0  0  0  0  0
  190.3940  177.9400  145.2300 O   0  0  0  0  0  0  0  0  0  0  0  0
  186.7690  176.3800  144.1030 O   0  0  0  0  0  1  0  0  0  0  0  0
  186.9990  177.5190  146.8610 C   0  0  0  0  0  2  0  0  0  0  0  0
  188.7690  177.9330  148.5800 C   0  0  0  0  0  3  0  0  0  0  0  0
  187.4850  177.7000  148.2740 C   0  0  0  0  0  3  0  0  0  0  0  0
  189.3460  178.1970  146.1380 C   0  0  1  0  0  3  0  0  0  0  0  0
  188.1320  177.2800  145.8490 C   0  0  2  0  0  3  0  0  0  0  0  0
  189.8630  177.9250  147.5480 C   0  0  0  0  0  2  0  0  0  0  0  0
  191.5260  177.3670  142.1610 C   0  0  0  0  0  2  0  0  0  0  0  0
  190.5790  177.2800  140.9650 C   0  0  2  0  0  3  0  0  0  0  0  0
  189.4280  176.5500  141.2970 O   0  0  0  0  0  0  0  0  0  0  0  0
  189.9490  178.3330  143.9580 C   0  0  2  0  0  3  0  0  0  0  0  0
  188.5790  177.4310  141.9790 C   0  0  0  0  0  2  0  0  0  0  0  0
  188.8750  177.3400  143.4750 C   0  0  2  0  0  3  0  0  0  0  0  0
  191.2730  176.6230  139.8210 C   0  0  0  0  0  0  0  0  0  0  0  0
  192.5930  176.9400  139.5250 O   0  0  0  0  0  1  0  0  0  0  0  0
  190.6550  175.7880  139.1120 O   0  0  0  0  0  0  0  0  0  0  0  0
  186.9150  178.7860  144.2200 C   0  0  0  0  0  2  0  0  0  0  0  0
  185.5210  178.8060  144.8360 C   0  0  0  0  0  2  0  0  0  0  0  0
  182.1740  178.4910  143.0100 C   0  0  0  0  0  2  0  0  0  0  0  0
  184.9770  178.4780  142.4330 C   0  0  0  0  0  3  0  0  0  0  0  0
  182.2970  179.3910  139.3010 C   0  0  1  0  0  3  0  0  0  0  0  0
  181.8190  179.4960  140.7510 C   0  0  0  0  0  2  0  0  0  0  0  0
  182.7040  178.7980  141.6820 N   0  0  0  0  0  0  0  0  0  0  0  0
  184.6580  178.7980  140.0360 C   0  0  0  0  0  2  0  0  0  0  0  0
  184.1240  178.7010  141.4300 C   0  0  0  0  0  0  0  0  0  0  0  0
  183.7930  179.7090  139.1710 C   0  0  0  0  0  2  0  0  0  0  0  0
  184.4990  178.2770  143.8480 C   0  0  2  0  0  3  0  0  0  0  0  0
  183.1540  178.9600  144.0800 C   0  0  0  0  0  2  0  0  0  0  0  0
  181.8230  178.1110  138.5960 C   0  0  0  0  0  3  0  0  0  0  0  0
  180.4810  177.6560  139.1380 C   0  0  0  0  0  1  0  0  0  0  0  0
  181.7610  178.2290  137.0820 C   0  0  0  0  0  1  0  0  0  0  0  0
  1  4  1  6  0  0  0
  1  9  1  0  0  0  0
  3  8  1  0  0  0  0
  5  7  1  0  0  0  0
  7  6  2  0  0  0  0
  8 10  1  1  0  0  0
  9  8  1  0  0  0  0
  9  5  1  1  0  0  0
 10  6  1  0  0  0  0
 11  2  1  0  0  0  0
 12 17  1  6  0  0  0
 12 13  1  0  0  0  0
 12 11  1  0  0  0  0
 13 15  1  0  0  0  0
 14  2  1  6  0  0  0
 14  3  1  0  0  0  0
 16 15  1  6  0  0  0
 16 14  1  0  0  0  0
 16  1  1  0  0  0  0
 18 17  1  0  0  0  0
 19 17  2  0  0  0  0
 20  1  1  0  0  0  0
 20 21  1  0  0  0  0
 22 31  1  0  0  0  0
 23 30  1  0  0  0  0
 24 32  1  1  0  0  0
 24 25  1  0  0  0  0
 25 26  1  0  0  0  0
 26 22  1  0  0  0  0
 27 28  1  0  0  0  0
 28 26  1  0  0  0  0
 28 23  2  0  0  0  0
 29 24  1  0  0  0  0
 29 27  1  0  0  0  0
 30 31  1  0  0  0  0
 30 21  1  1  0  0  0
 32 33  1  0  0  0  0
 34 32  1  0  0  0  0
M  END
>  <MODEL>
8

>  <REMARK>
 VINA RESULT:      -8.2      2.896      7.811
  Name = 
  5 active torsions:
  status: ('A' for Active; 'I' for Inactive)
    1  A    between atoms: C_1  and  C_8
    2  A    between atoms: C_3  and  C_25
    3  A    between atoms: C_7  and  C_11
    4  A    between atoms: C_8  and  C_18
    5  A    between atoms: C_18  and  C_30
                            x       y       z     vdW  Elec       q    Type
                         _______ _______ _______ _____ _____    ______ ____

>  <TORSDO>
F 5

$$$$
=
 OpenBabel10272415143D

 34 38  0  0  1  0  0  0  0  0999 V2000
  184.2880  178.8430  139.5990 C   0  0  1  0  0  0  0  0  0  0  0  0
  185.1330  176.2290  136.7940 C   0  0  0  0  0  2  0  0  0  0  0  0
  183.1360  177.4950  137.2780 O   0  0  0  0  0  0  0  0  0  0  0  0
  184.8230  180.0770  139.9850 O   0  0  0  0  0  1  0  0  0  0  0  0
  181.9040  179.4750  140.2650 C   0  0  0  0  0  2  0  0  0  0  0  0
  179.9910  178.7480  138.8280 C   0  0  0  0  0  3  0  0  0  0  0  0
  180.4430  179.3900  139.9130 C   0  0  0  0  0  3  0  0  0  0  0  0
  182.2940  177.8310  138.3580 C   0  0  1  0  0  3  0  0  0  0  0  0
  182.8370  179.0700  139.1120 C   0  0  2  0  0  3  0  0  0  0  0  0
  180.9080  178.1450  137.8000 C   0  0  0  0  0  2  0  0  0  0  0  0
  186.1450  177.0070  135.9610 C   0  0  0  0  0  2  0  0  0  0  0  0
  187.4180  177.2230  136.7780 C   0  0  2  0  0  3  0  0  0  0  0  0
  187.3150  178.3840  137.5570 O   0  0  0  0  0  0  0  0  0  0  0  0
  184.3590  177.0700  137.8190 C   0  0  2  0  0  3  0  0  0  0  0  0
  186.5740  178.0380  138.6940 C   0  0  0  0  0  2  0  0  0  0  0  0
  185.0940  178.2870  138.4110 C   0  0  2  0  0  3  0  0  0  0  0  0
  188.5890  177.3390  135.8630 C   0  0  0  0  0  0  0  0  0  0  0  0
  188.4010  177.6070  134.5120 O   0  0  0  0  0  0  0  0  0  0  0  0
  189.7520  177.1790  136.3140 O   0  0  0  0  0  1  0  0  0  0  0  0
  184.2950  177.8650  140.7940 C   0  0  0  0  0  2  0  0  0  0  0  0
  184.9070  178.4560  142.0580 C   0  0  0  0  0  2  0  0  0  0  0  0
  188.6900  177.9100  142.2260 C   0  0  0  0  0  2  0  0  0  0  0  0
  186.3700  177.5890  143.8700 C   0  0  0  0  0  3  0  0  0  0  0  0
  190.1350  177.8760  145.7600 C   0  0  1  0  0  3  0  0  0  0  0  0
  189.9830  178.3570  144.3150 C   0  0  0  0  0  2  0  0  0  0  0  0
  188.7640  177.8540  143.6850 N   0  0  0  0  0  0  0  0  0  0  0  0
  187.6560  177.3390  145.9280 C   0  0  0  0  0  2  0  0  0  0  0  0
  187.5690  177.6140  144.4610 C   0  0  0  0  0  0  0  0  0  0  0  0
  188.8400  178.0640  146.5610 C   0  0  0  0  0  2  0  0  0  0  0  0
  186.2190  177.7650  142.3820 C   0  0  2  0  0  3  0  0  0  0  0  0
  187.3810  178.5640  141.7980 C   0  0  0  0  0  2  0  0  0  0  0  0
  190.7970  176.4950  145.8740 C   0  0  0  0  0  3  0  0  0  0  0  0
  191.6080  176.1750  144.6310 C   0  0  0  0  0  1  0  0  0  0  0  0
  191.6570  176.3250  147.1150 C   0  0  0  0  0  1  0  0  0  0  0  0
  1  4  1  1  0  0  0
  1 20  1  0  0  0  0
  3 14  1  0  0  0  0
  3  8  1  0  0  0  0
  6  7  2  0  0  0  0
  7  5  1  0  0  0  0
  8 10  1  6  0  0  0
  8  9  1  0  0  0  0
  9  1  1  0  0  0  0
  9  5  1  1  0  0  0
 10  6  1  0  0  0  0
 11 12  1  0  0  0  0
 11  2  1  0  0  0  0
 12 17  1  6  0  0  0
 12 13  1  0  0  0  0
 13 15  1  0  0  0  0
 14  2  1  6  0  0  0
 14 16  1  0  0  0  0
 16 15  1  1  0  0  0
 16  1  1  0  0  0  0
 17 19  1  0  0  0  0
 18 17  2  0  0  0  0
 20 21  1  0  0  0  0
 22 26  1  0  0  0  0
 23 28  2  0  0  0  0
 24 32  1  6  0  0  0
 24 29  1  0  0  0  0
 25 24  1  0  0  0  0
 26 25  1  0  0  0  0
 26 28  1  0  0  0  0
 27 29  1  0  0  0  0
 28 27  1  0  0  0  0
 30 21  1  1  0  0  0
 30 23  1  0  0  0  0
 31 22  1  0  0  0  0
 31 30  1  0  0  0  0
 32 34  1  0  0  0  0
 33 32  1  0  0  0  0
M  END
>  <MODEL>
9

>  <REMARK>
 VINA RESULT:      -8.2      1.180      2.207
  Name = 
  5 active torsions:
  status: ('A' for Active; 'I' for Inactive)
    1  A    between atoms: C_1  and  C_8
    2  A    between atoms: C_3  and  C_25
    3  A    between atoms: C_7  and  C_11
    4  A    between atoms: C_8  and  C_18
    5  A    between atoms: C_18  and  C_30
                            x       y       z     vdW  Elec       q    Type
                         _______ _______ _______ _____ _____    ______ ____

>  <TORSDO>
F 5

$$$$
