=
 OpenBabel10272415333D

 34 39  0  0  1  0  0  0  0  0999 V2000
  183.9510  175.0630  137.7750 C   0  0  1  0  0  3  0  0  0  0  0  0
  183.9480  177.5050  138.2200 C   0  0  0  0  0  0  0  0  0  0  0  0
  181.3510  177.9440  140.7920 C   0  0  0  0  0  0  0  0  0  0  0  0
  180.9280  175.0680  135.5390 C   0  0  2  0  0  3  0  0  0  0  0  0
  185.6890  176.7020  136.7230 C   0  0  1  0  0  3  0  0  0  0  0  0
  182.9980  176.4660  134.7100 C   0  0  0  0  0  2  0  0  0  0  0  0
  180.0330  178.5250  136.8460 C   0  0  1  0  0  3  0  0  0  0  0  0
  183.8850  173.6870  135.7370 C   0  0  2  0  0  3  0  0  0  0  0  0
  183.2130  173.9240  137.0850 C   0  0  0  0  0  2  0  0  0  0  0  0
  185.1160  174.5710  135.6700 C   0  0  2  0  0  3  0  0  0  0  0  0
  180.9590  179.2390  135.8770 C   0  0  0  0  0  0  0  0  0  0  0  0
  187.6900  174.5290  135.5670 C   0  0  0  0  0  2  0  0  0  0  0  0
  181.6520  179.1730  141.5800 C   0  0  0  0  0  1  0  0  0  0  0  0
  180.3130  177.0420  136.9320 C   0  0  2  0  0  3  0  0  0  0  0  0
  180.5710  180.2590  135.3310 O   0  0  0  0  0  0  0  0  0  0  0  0
  180.2880  176.3890  135.7660 C   0  0  0  0  0  2  0  0  0  0  0  0
  186.3710  173.8050  135.2470 C   0  0  0  0  0  2  0  0  0  0  0  0
  182.9490  173.9250  134.5330 C   0  0  0  0  0  2  0  0  0  0  0  0
  187.1950  176.8160  136.5140 C   0  0  0  0  0  2  0  0  0  0  0  0
  185.2760  175.2470  137.0120 C   0  0  2  0  0  3  0  0  0  0  0  0
  179.9820  179.2380  138.1840 C   0  0  0  0  0  1  0  0  0  0  0  0
  187.6530  176.0320  135.2810 C   0  0  0  0  0  2  0  0  0  0  0  0
  183.3450  178.3280  139.2870 C   0  0  0  0  0  2  0  0  0  0  0  0
  180.3870  177.2160  141.1460 O   0  0  0  0  0  0  0  0  0  0  0  0
  182.1420  177.5960  139.6410 N   0  0  0  0  0  0  0  0  0  0  0  0
  182.3390  178.7210  135.5590 C   0  0  0  0  0  2  0  0  0  0  0  0
  181.9630  176.3590  138.8710 C   0  0  2  0  0  0  0  0  0  0  0  0
  182.3250  177.7900  134.3460 C   0  0  0  0  0  2  0  0  0  0  0  0
  180.5610  176.2980  138.2320 C   0  0  0  0  0  2  0  0  0  0  0  0
  182.1030  175.2140  134.5450 C   0  0  1  0  0  3  0  0  0  0  0  0
  179.9840  174.1790  135.0270 O   0  0  0  0  0  1  0  0  0  0  0  0
  185.1930  177.6620  137.7630 C   0  0  0  0  0  3  0  0  0  0  0  0
  182.0880  175.2700  139.7400 O   0  0  0  0  0  1  0  0  0  0  0  0
  183.0940  176.3480  137.8210 C   0  0  2  0  0  3  0  0  0  0  0  0
  1  9  1  6  0  0  0
  1 34  1  0  0  0  0
  2 23  1  0  0  0  0
  3 24  2  0  0  0  0
  3 13  1  0  0  0  0
  4 31  1  6  0  0  0
  4 16  1  0  0  0  0
  5 19  1  1  0  0  0
  5 20  1  0  0  0  0
  5 32  1  0  0  0  0
  7 14  1  0  0  0  0
  7 21  1  1  0  0  0
  8 18  1  6  0  0  0
  8  9  1  0  0  0  0
 10 17  1  1  0  0  0
 10  8  1  0  0  0  0
 10 20  1  0  0  0  0
 11  7  1  0  0  0  0
 14 16  1  1  0  0  0
 14 29  1  0  0  0  0
 15 11  2  0  0  0  0
 17 12  1  0  0  0  0
 18 30  1  0  0  0  0
 20  1  1  0  0  0  0
 22 12  1  0  0  0  0
 22 19  1  0  0  0  0
 23 25  1  0  0  0  0
 25  3  1  0  0  0  0
 26 11  1  0  0  0  0
 27 25  1  0  0  0  0
 27 33  1  0  0  0  0
 28  6  1  0  0  0  0
 28 26  1  0  0  0  0
 29 27  1  0  0  0  0
 30  6  1  0  0  0  0
 30  4  1  0  0  0  0
 32  2  2  0  0  0  0
 34  2  1  0  0  0  0
 34 27  1  0  0  0  0
M  END
>  <MODEL>
1

>  <REMARK>
 VINA RESULT:      -4.0      0.000      0.000
  Name = 
  0 active torsions:
  status: ('A' for Active; 'I' for Inactive)
                            x       y       z     vdW  Elec       q    Type
                         _______ _______ _______ _____ _____    ______ ____

>  <TORSDO>
F 0

$$$$
=
 OpenBabel10272415333D

 34 39  0  0  1  0  0  0  0  0999 V2000
  184.0120  175.7490  137.2730 C   0  0  1  0  0  3  0  0  0  0  0  0
  185.0610  175.3050  135.0670 C   0  0  0  0  0  0  0  0  0  0  0  0
  187.1620  172.3390  135.6550 C   0  0  0  0  0  0  0  0  0  0  0  0
  186.9980  177.4550  138.7910 C   0  0  2  0  0  3  0  0  0  0  0  0
  183.3880  177.0690  135.1100 C   0  0  1  0  0  3  0  0  0  0  0  0
  185.9400  178.6120  136.6780 C   0  0  0  0  0  2  0  0  0  0  0  0
  189.1660  176.0130  136.0200 C   0  0  1  0  0  3  0  0  0  0  0  0
  183.7440  177.7500  138.6770 C   0  0  2  0  0  3  0  0  0  0  0  0
  184.2420  176.3090  138.6690 C   0  0  0  0  0  2  0  0  0  0  0  0
  183.0760  178.0170  137.3420 C   0  0  2  0  0  3  0  0  0  0  0  0
  188.8210  177.1190  135.0400 C   0  0  0  0  0  0  0  0  0  0  0  0
  180.8130  178.5440  136.2290 C   0  0  0  0  0  2  0  0  0  0  0  0
  187.3410  171.6090  134.3680 C   0  0  0  0  0  1  0  0  0  0  0  0
  188.2320  175.9770  137.2090 C   0  0  2  0  0  3  0  0  0  0  0  0
  189.7070  177.5920  134.3460 O   0  0  0  0  0  0  0  0  0  0  0  0
  188.1280  177.1240  137.8860 C   0  0  0  0  0  2  0  0  0  0  0  0
  181.6880  178.6430  137.4900 C   0  0  0  0  0  2  0  0  0  0  0  0
  184.8520  178.7830  138.9750 C   0  0  0  0  0  2  0  0  0  0  0  0
  182.1490  177.5240  134.3460 C   0  0  0  0  0  2  0  0  0  0  0  0
  183.0460  176.7190  136.5690 C   0  0  2  0  0  3  0  0  0  0  0  0
  189.3380  174.6830  135.3100 C   0  0  0  0  0  1  0  0  0  0  0  0
  181.5720  178.8170  134.9290 C   0  0  0  0  0  2  0  0  0  0  0  0
  185.8080  174.1520  134.5270 C   0  0  0  0  0  2  0  0  0  0  0  0
  187.6250  171.8320  136.7110 O   0  0  0  0  0  0  0  0  0  0  0  0
  186.4790  173.6050  135.6940 N   0  0  0  0  0  0  0  0  0  0  0  0
  187.4200  177.6620  134.9030 C   0  0  0  0  0  2  0  0  0  0  0  0
  186.1860  174.3370  136.9320 C   0  0  2  0  0  0  0  0  0  0  0  0
  187.1880  178.8580  135.8280 C   0  0  0  0  0  2  0  0  0  0  0  0
  187.4830  174.7370  137.6640 C   0  0  0  0  0  2  0  0  0  0  0  0
  186.1800  178.6290  138.2060 C   0  0  1  0  0  3  0  0  0  0  0  0
  187.4970  177.8060  140.0450 O   0  0  0  0  0  1  0  0  0  0  0  0
  184.1070  175.9600  134.4010 C   0  0  0  0  0  3  0  0  0  0  0  0
  185.4520  173.5020  137.7820 O   0  0  0  0  0  1  0  0  0  0  0  0
  185.3420  175.5590  136.5110 C   0  0  2  0  0  3  0  0  0  0  0  0
  1  9  1  1  0  0  0
  2 34  1  0  0  0  0
  3 25  1  0  0  0  0
  3 24  2  0  0  0  0
  4 31  1  1  0  0  0
  5 19  1  6  0  0  0
  5 20  1  0  0  0  0
  6 30  1  0  0  0  0
  7 21  1  6  0  0  0
  7 14  1  0  0  0  0
  8  9  1  6  0  0  0
  8 18  1  0  0  0  0
 10 17  1  1  0  0  0
 10  8  1  0  0  0  0
 11  7  1  0  0  0  0
 12 17  1  0  0  0  0
 13  3  1  0  0  0  0
 14 29  1  1  0  0  0
 14 16  1  0  0  0  0
 15 11  2  0  0  0  0
 16  4  1  0  0  0  0
 19 22  1  0  0  0  0
 20  1  1  0  0  0  0
 20 10  1  0  0  0  0
 22 12  1  0  0  0  0
 23  2  1  0  0  0  0
 23 25  1  0  0  0  0
 25 27  1  0  0  0  0
 26 11  1  0  0  0  0
 26 28  1  0  0  0  0
 27 29  1  0  0  0  0
 27 33  1  0  0  0  0
 28  6  1  0  0  0  0
 30  4  1  0  0  0  0
 30 18  1  0  0  0  0
 32  2  2  0  0  0  0
 32  5  1  0  0  0  0
 34 27  1  0  0  0  0
 34  1  1  0  0  0  0
M  END
>  <MODEL>
2

>  <REMARK>
 VINA RESULT:      -3.1      3.112      6.918
  Name = 
  0 active torsions:
  status: ('A' for Active; 'I' for Inactive)
                            x       y       z     vdW  Elec       q    Type
                         _______ _______ _______ _____ _____    ______ ____

>  <TORSDO>
F 0

$$$$
=
 OpenBabel10272415333D

 34 39  0  0  1  0  0  0  0  0999 V2000
  183.3450  178.4270  138.6930 C   0  0  1  0  0  3  0  0  0  0  0  0
  183.4110  175.9500  138.5460 C   0  0  0  0  0  0  0  0  0  0  0  0
  186.3970  175.2540  136.5070 C   0  0  0  0  0  0  0  0  0  0  0  0
  181.8540  178.9840  135.2880 C   0  0  2  0  0  3  0  0  0  0  0  0
  181.7050  176.8800  140.0080 C   0  0  1  0  0  3  0  0  0  0  0  0
  180.3910  177.6160  136.9950 C   0  0  0  0  0  2  0  0  0  0  0  0
  182.7950  175.4210  134.3500 C   0  0  1  0  0  3  0  0  0  0  0  0
  181.5990  180.1240  138.3420 C   0  0  2  0  0  3  0  0  0  0  0  0
  183.0120  179.7090  137.9440 C   0  0  0  0  0  2  0  0  0  0  0  0
  181.1330  179.1880  139.4400 C   0  0  2  0  0  3  0  0  0  0  0  0
  181.5520  174.8220  134.9820 C   0  0  0  0  0  0  0  0  0  0  0  0
  180.4730  179.0840  141.9280 C   0  0  0  0  0  2  0  0  0  0  0  0
  186.9070  173.8950  136.8430 C   0  0  0  0  0  1  0  0  0  0  0  0
  183.0380  176.8490  134.7850 C   0  0  2  0  0  3  0  0  0  0  0  0
  180.9590  173.9330  134.3920 O   0  0  0  0  0  0  0  0  0  0  0  0
  182.0160  177.6870  134.5830 C   0  0  0  0  0  2  0  0  0  0  0  0
  180.5630  179.9330  140.6480 C   0  0  0  0  0  2  0  0  0  0  0  0
  180.6090  180.1490  137.1580 C   0  0  0  0  0  2  0  0  0  0  0  0
  181.1550  176.7070  141.4200 C   0  0  0  0  0  2  0  0  0  0  0  0
  182.2910  178.2890  139.8070 C   0  0  2  0  0  3  0  0  0  0  0  0
  183.9910  174.5000  134.5080 C   0  0  0  0  0  1  0  0  0  0  0  0
  179.9820  177.6550  141.6870 C   0  0  0  0  0  2  0  0  0  0  0  0
  184.4500  175.0000  138.0990 C   0  0  0  0  0  2  0  0  0  0  0  0
  187.0580  175.9720  135.7120 O   0  0  0  0  0  0  0  0  0  0  0  0
  185.1650  175.7380  137.0720 N   0  0  0  0  0  0  0  0  0  0  0  0
  181.0180  175.2970  136.3100 C   0  0  0  0  0  2  0  0  0  0  0  0
  184.6460  177.0950  136.8590 C   0  0  2  0  0  0  0  0  0  0  0  0
  179.9910  176.4160  136.1350 C   0  0  0  0  0  2  0  0  0  0  0  0
  184.3470  177.3490  135.3680 C   0  0  0  0  0  2  0  0  0  0  0  0
  180.6150  178.9320  136.2110 C   0  0  1  0  0  3  0  0  0  0  0  0
  181.7000  180.0040  134.3490 O   0  0  0  0  0  1  0  0  0  0  0  0
  182.6740  175.7930  139.6480 C   0  0  0  0  0  3  0  0  0  0  0  0
  185.6190  178.0140  137.2670 O   0  0  0  0  0  1  0  0  0  0  0  0
  183.3870  177.2090  137.7450 C   0  0  2  0  0  3  0  0  0  0  0  0
  1  9  1  6  0  0  0
  1 20  1  0  0  0  0
  2 32  2  0  0  0  0
  3 13  1  0  0  0  0
  3 25  1  0  0  0  0
  4 31  1  6  0  0  0
  4 30  1  0  0  0  0
  5 32  1  1  0  0  0
  5 19  1  0  0  0  0
  7 21  1  1  0  0  0
  7 14  1  0  0  0  0
  7 11  1  0  0  0  0
  8 18  1  6  0  0  0
  8 10  1  0  0  0  0
  9  8  1  0  0  0  0
 10 20  1  0  0  0  0
 10 17  1  1  0  0  0
 11 26  1  0  0  0  0
 14 16  1  6  0  0  0
 14 29  1  0  0  0  0
 15 11  2  0  0  0  0
 16  4  1  0  0  0  0
 17 12  1  0  0  0  0
 19 22  1  0  0  0  0
 20  5  1  0  0  0  0
 22 12  1  0  0  0  0
 23  2  1  0  0  0  0
 24  3  2  0  0  0  0
 25 23  1  0  0  0  0
 27 25  1  0  0  0  0
 27 33  1  0  0  0  0
 27 34  1  0  0  0  0
 28 26  1  0  0  0  0
 28  6  1  0  0  0  0
 29 27  1  0  0  0  0
 30  6  1  0  0  0  0
 30 18  1  0  0  0  0
 34  2  1  0  0  0  0
 34  1  1  0  0  0  0
M  END
>  <MODEL>
3

>  <REMARK>
 VINA RESULT:      -2.5      1.991      5.975
  Name = 
  0 active torsions:
  status: ('A' for Active; 'I' for Inactive)
                            x       y       z     vdW  Elec       q    Type
                         _______ _______ _______ _____ _____    ______ ____

>  <TORSDO>
F 0

$$$$
=
 OpenBabel10272415333D

 34 39  0  0  1  0  0  0  0  0999 V2000
  180.5000  178.0920  137.6430 C   0  0  1  0  0  3  0  0  0  0  0  0
  180.9880  176.7260  135.6280 C   0  0  0  0  0  0  0  0  0  0  0  0
  180.4840  173.2570  136.7560 C   0  0  0  0  0  0  0  0  0  0  0  0
  183.8280  177.5430  139.3040 C   0  0  2  0  0  3  0  0  0  0  0  0
  180.9740  179.1350  135.2980 C   0  0  1  0  0  3  0  0  0  0  0  0
  183.8720  178.7680  136.9750 C   0  0  0  0  0  2  0  0  0  0  0  0
  184.4550  174.6140  136.9620 C   0  0  1  0  0  3  0  0  0  0  0  0
  181.6570  179.9340  138.7910 C   0  0  2  0  0  3  0  0  0  0  0  0
  181.0350  178.5560  138.9900 C   0  0  0  0  0  2  0  0  0  0  0  0
  181.3680  180.3730  137.3690 C   0  0  2  0  0  3  0  0  0  0  0  0
  184.9720  175.4950  135.8390 C   0  0  0  0  0  0  0  0  0  0  0  0
  180.0910  182.1090  135.9580 C   0  0  0  0  0  2  0  0  0  0  0  0
  180.1310  172.4120  135.5810 C   0  0  0  0  0  1  0  0  0  0  0  0
  183.7350  175.4000  138.0340 C   0  0  2  0  0  3  0  0  0  0  0  0
  185.9490  175.1320  135.2050 O   0  0  0  0  0  0  0  0  0  0  0  0
  184.4350  176.4030  138.5730 C   0  0  0  0  0  2  0  0  0  0  0  0
  180.7820  181.7840  137.2930 C   0  0  0  0  0  2  0  0  0  0  0  0
  183.1680  179.9780  139.1040 C   0  0  0  0  0  2  0  0  0  0  0  0
  180.3900  180.1820  134.3550 C   0  0  0  0  0  2  0  0  0  0  0  0
  180.4670  179.3370  136.7370 C   0  0  2  0  0  3  0  0  0  0  0  0
  183.6790  173.4290  136.4190 C   0  0  0  0  0  1  0  0  0  0  0  0
  180.8460  181.5950  134.7310 C   0  0  0  0  0  2  0  0  0  0  0  0
  180.7500  175.3060  135.2990 C   0  0  0  0  0  2  0  0  0  0  0  0
  180.4630  172.7410  137.9040 O   0  0  0  0  0  0  0  0  0  0  0  0
  180.8520  174.6390  136.5860 N   0  0  0  0  0  0  0  0  0  0  0  0
  184.3230  176.8110  135.4890 C   0  0  0  0  0  2  0  0  0  0  0  0
  181.1240  175.5540  137.7000 C   0  0  2  0  0  0  0  0  0  0  0  0
  184.9600  177.9730  136.2520 C   0  0  0  0  0  2  0  0  0  0  0  0
  182.3350  175.0800  138.5280 C   0  0  0  0  0  2  0  0  0  0  0  0
  184.0410  178.8530  138.5110 C   0  0  1  0  0  3  0  0  0  0  0  0
  184.4170  177.6520  140.5640 O   0  0  0  0  0  1  0  0  0  0  0  0
  180.7480  177.7400  134.7940 C   0  0  0  0  0  3  0  0  0  0  0  0
  180.0080  175.5770  138.5430 O   0  0  0  0  0  1  0  0  0  0  0  0
  181.3500  176.9410  137.0600 C   0  0  2  0  0  3  0  0  0  0  0  0
  1  9  1  1  0  0  0
  2 34  1  0  0  0  0
  3 24  2  0  0  0  0
  4 31  1  1  0  0  0
  5 19  1  6  0  0  0
  5 20  1  0  0  0  0
  6 30  1  0  0  0  0
  7 21  1  6  0  0  0
  7 14  1  0  0  0  0
  8  9  1  6  0  0  0
  8 18  1  0  0  0  0
 10 17  1  1  0  0  0
 10  8  1  0  0  0  0
 11  7  1  0  0  0  0
 12 17  1  0  0  0  0
 13  3  1  0  0  0  0
 14 29  1  1  0  0  0
 14 16  1  0  0  0  0
 15 11  2  0  0  0  0
 16  4  1  0  0  0  0
 19 22  1  0  0  0  0
 20 10  1  0  0  0  0
 20  1  1  0  0  0  0
 22 12  1  0  0  0  0
 23  2  1  0  0  0  0
 23 25  1  0  0  0  0
 25  3  1  0  0  0  0
 25 27  1  0  0  0  0
 26 11  1  0  0  0  0
 26 28  1  0  0  0  0
 27 29  1  0  0  0  0
 27 33  1  0  0  0  0
 28  6  1  0  0  0  0
 30 18  1  0  0  0  0
 30  4  1  0  0  0  0
 32  5  1  0  0  0  0
 32  2  2  0  0  0  0
 34  1  1  0  0  0  0
 34 27  1  0  0  0  0
M  END
>  <MODEL>
4

>  <REMARK>
 VINA RESULT:      -2.4      2.171      6.108
  Name = 
  0 active torsions:
  status: ('A' for Active; 'I' for Inactive)
                            x       y       z     vdW  Elec       q    Type
                         _______ _______ _______ _____ _____    ______ ____

>  <TORSDO>
F 0

$$$$
=
 OpenBabel10272415333D

 34 39  0  0  1  0  0  0  0  0999 V2000
  183.2760  179.8090  139.2270 C   0  0  1  0  0  3  0  0  0  0  0  0
  184.7260  177.9950  140.1050 C   0  0  0  0  0  0  0  0  0  0  0  0
  187.7440  178.1640  138.0010 C   0  0  0  0  0  0  0  0  0  0  0  0
  182.0070  177.8910  136.2530 C   0  0  2  0  0  3  0  0  0  0  0  0
  182.6810  178.4150  141.3520 C   0  0  1  0  0  3  0  0  0  0  0  0
  181.4260  176.8970  138.6190 C   0  0  0  0  0  2  0  0  0  0  0  0
  184.8500  175.4070  136.7070 C   0  0  1  0  0  3  0  0  0  0  0  0
  180.9150  179.9460  138.5500 C   0  0  2  0  0  3  0  0  0  0  0  0
  182.3450  180.2180  138.0950 C   0  0  0  0  0  2  0  0  0  0  0  0
  180.9650  179.5180  140.0040 C   0  0  2  0  0  3  0  0  0  0  0  0
  184.1080  174.5990  137.7570 C   0  0  0  0  0  0  0  0  0  0  0  0
  180.2800  180.2090  142.3890 C   0  0  0  0  0  2  0  0  0  0  0  0
  188.8970  177.6070  138.7630 C   0  0  0  0  0  1  0  0  0  0  0  0
  184.2170  176.7570  136.4580 C   0  0  2  0  0  3  0  0  0  0  0  0
  184.1620  173.3800  137.7130 O   0  0  0  0  0  0  0  0  0  0  0  0
  182.9220  176.7280  136.1300 C   0  0  0  0  0  2  0  0  0  0  0  0
  179.9820  180.2930  140.8820 C   0  0  0  0  0  2  0  0  0  0  0  0
  180.1790  178.9080  137.6760 C   0  0  0  0  0  2  0  0  0  0  0  0
  182.2100  178.6320  142.7870 C   0  0  0  0  0  2  0  0  0  0  0  0
  182.3940  179.6500  140.4790 C   0  0  2  0  0  3  0  0  0  0  0  0
  186.3380  175.4490  136.9970 C   0  0  0  0  0  1  0  0  0  0  0  0
  180.6910  178.8120  142.8590 C   0  0  0  0  0  2  0  0  0  0  0  0
  186.1500  177.6630  139.8990 C   0  0  0  0  0  2  0  0  0  0  0  0
  187.9520  178.6750  136.8700 O   0  0  0  0  0  0  0  0  0  0  0  0
  186.4100  178.1120  138.5420 N   0  0  0  0  0  0  0  0  0  0  0  0
  183.2950  175.2540  138.8460 C   0  0  0  0  0  2  0  0  0  0  0  0
  185.2420  178.7170  137.8930 C   0  0  2  0  0  0  0  0  0  0  0  0
  181.8360  175.4360  138.4260 C   0  0  0  0  0  2  0  0  0  0  0  0
  184.9720  178.0730  136.5180 C   0  0  0  0  0  2  0  0  0  0  0  0
  180.9390  177.6110  137.3350 C   0  0  1  0  0  3  0  0  0  0  0  0
  181.3850  178.1220  135.0260 O   0  0  0  0  0  1  0  0  0  0  0  0
  184.1170  177.9850  141.2930 C   0  0  0  0  0  3  0  0  0  0  0  0
  185.4980  180.0780  137.6880 O   0  0  0  0  0  1  0  0  0  0  0  0
  184.0670  178.5290  138.8770 C   0  0  2  0  0  3  0  0  0  0  0  0
  1  9  1  6  0  0  0
  1 20  1  0  0  0  0
  2 32  2  0  0  0  0
  3 25  1  0  0  0  0
  3 13  1  0  0  0  0
  4 31  1  6  0  0  0
  4 30  1  0  0  0  0
  5 32  1  1  0  0  0
  5 19  1  0  0  0  0
  7 21  1  1  0  0  0
  7 11  1  0  0  0  0
  8 18  1  6  0  0  0
  8 10  1  0  0  0  0
  9  8  1  0  0  0  0
 10 20  1  0  0  0  0
 10 17  1  1  0  0  0
 11 26  1  0  0  0  0
 12 22  1  0  0  0  0
 14 16  1  6  0  0  0
 14 29  1  0  0  0  0
 14  7  1  0  0  0  0
 15 11  2  0  0  0  0
 16  4  1  0  0  0  0
 17 12  1  0  0  0  0
 19 22  1  0  0  0  0
 20  5  1  0  0  0  0
 23  2  1  0  0  0  0
 24  3  2  0  0  0  0
 25 23  1  0  0  0  0
 27 25  1  0  0  0  0
 27 34  1  0  0  0  0
 28  6  1  0  0  0  0
 28 26  1  0  0  0  0
 29 27  1  0  0  0  0
 30 18  1  0  0  0  0
 30  6  1  0  0  0  0
 33 27  1  0  0  0  0
 34  1  1  0  0  0  0
 34  2  1  0  0  0  0
M  END
>  <MODEL>
5

>  <REMARK>
 VINA RESULT:      -2.2      2.375      6.350
  Name = 
  0 active torsions:
  status: ('A' for Active; 'I' for Inactive)
                            x       y       z     vdW  Elec       q    Type
                         _______ _______ _______ _____ _____    ______ ____

>  <TORSDO>
F 0

$$$$
=
 OpenBabel10272415333D

 34 39  0  0  1  0  0  0  0  0999 V2000
  184.7950  174.4620  135.1730 C   0  0  1  0  0  3  0  0  0  0  0  0
  184.0610  173.2290  137.1990 C   0  0  0  0  0  0  0  0  0  0  0  0
  180.7980  171.8110  136.2510 C   0  0  0  0  0  0  0  0  0  0  0  0
  182.6590  177.4980  135.7670 C   0  0  2  0  0  3  0  0  0  0  0  0
  186.3060  174.1600  137.2800 C   0  0  1  0  0  3  0  0  0  0  0  0
  184.4710  176.9670  137.6000 C   0  0  0  0  0  2  0  0  0  0  0  0
  180.5970  175.4970  138.2580 C   0  0  1  0  0  3  0  0  0  0  0  0
  185.6720  176.7230  134.7610 C   0  0  2  0  0  3  0  0  0  0  0  0
  184.5970  175.7240  134.3460 C   0  0  0  0  0  2  0  0  0  0  0  0
  186.6110  176.0210  135.7230 C   0  0  2  0  0  3  0  0  0  0  0  0
  181.5620  175.7430  139.4040 C   0  0  0  0  0  0  0  0  0  0  0  0
  189.0280  175.1790  136.0110 C   0  0  0  0  0  2  0  0  0  0  0  0
  180.5420  170.5930  137.0710 C   0  0  0  0  0  1  0  0  0  0  0  0
  181.1960  175.8360  136.9110 C   0  0  2  0  0  3  0  0  0  0  0  0
  181.1130  176.0020  140.5090 O   0  0  0  0  0  0  0  0  0  0  0  0
  181.6770  177.0770  136.7980 C   0  0  0  0  0  2  0  0  0  0  0  0
  188.0820  176.1910  135.3420 C   0  0  0  0  0  2  0  0  0  0  0  0
  185.1020  178.0220  135.3690 C   0  0  0  0  0  2  0  0  0  0  0  0
  187.7310  173.7480  137.6350 C   0  0  0  0  0  2  0  0  0  0  0  0
  186.1970  174.5690  135.8000 C   0  0  2  0  0  3  0  0  0  0  0  0
  179.9820  174.1130  138.3460 C   0  0  0  0  0  1  0  0  0  0  0  0
  188.7090  174.9160  137.4840 C   0  0  0  0  0  2  0  0  0  0  0  0
  182.9880  172.2430  137.4380 C   0  0  0  0  0  2  0  0  0  0  0  0
  179.9820  172.1130  135.3410 O   0  0  0  0  0  0  0  0  0  0  0  0
  181.9520  172.6350  136.4970 N   0  0  0  0  0  0  0  0  0  0  0  0
  183.0580  175.6910  139.2190 C   0  0  0  0  0  2  0  0  0  0  0  0
  182.3180  173.7950  135.6760 C   0  0  2  0  0  0  0  0  0  0  0  0
  183.6300  177.0670  138.8740 C   0  0  0  0  0  2  0  0  0  0  0  0
  181.2260  174.8820  135.7300 C   0  0  0  0  0  2  0  0  0  0  0  0
  184.0000  177.8740  136.4380 C   0  0  1  0  0  3  0  0  0  0  0  0
  182.1560  178.5960  135.0690 O   0  0  0  0  0  1  0  0  0  0  0  0
  185.3070  173.1100  137.6660 C   0  0  0  0  0  3  0  0  0  0  0  0
  182.4450  173.3790  134.3460 O   0  0  0  0  0  1  0  0  0  0  0  0
  183.6740  174.2890  136.2220 C   0  0  2  0  0  3  0  0  0  0  0  0
  1  9  1  1  0  0  0
  1 20  1  0  0  0  0
  1 34  1  0  0  0  0
  2 23  1  0  0  0  0
  2 32  2  0  0  0  0
  3 25  1  0  0  0  0
  3 13  1  0  0  0  0
  4 31  1  1  0  0  0
  4 30  1  0  0  0  0
  4 16  1  0  0  0  0
  5 19  1  6  0  0  0
  5 32  1  0  0  0  0
  6 28  1  0  0  0  0
  7 21  1  6  0  0  0
  7 11  1  0  0  0  0
  8  9  1  1  0  0  0
  8 18  1  0  0  0  0
  8 10  1  0  0  0  0
 10 17  1  6  0  0  0
 10 20  1  0  0  0  0
 11 15  2  0  0  0  0
 12 22  1  0  0  0  0
 14 29  1  6  0  0  0
 14  7  1  0  0  0  0
 16 14  1  0  0  0  0
 17 12  1  0  0  0  0
 18 30  1  0  0  0  0
 20  5  1  0  0  0  0
 22 19  1  0  0  0  0
 24  3  2  0  0  0  0
 25 23  1  0  0  0  0
 26 11  1  0  0  0  0
 27 29  1  0  0  0  0
 27 34  1  0  0  0  0
 27 25  1  0  0  0  0
 28 26  1  0  0  0  0
 30  6  1  0  0  0  0
 33 27  1  0  0  0  0
 34  2  1  0  0  0  0
M  END
>  <MODEL>
6

>  <REMARK>
 VINA RESULT:      -1.9      2.042      4.575
  Name = 
  0 active torsions:
  status: ('A' for Active; 'I' for Inactive)
                            x       y       z     vdW  Elec       q    Type
                         _______ _______ _______ _____ _____    ______ ____

>  <TORSDO>
F 0

$$$$
=
 OpenBabel10272415333D

 34 39  0  0  1  0  0  0  0  0999 V2000
  189.3490  178.0140  137.9550 C   0  0  1  0  0  3  0  0  0  0  0  0
  190.6180  175.9090  138.3040 C   0  0  0  0  0  0  0  0  0  0  0  0
  192.9570  175.7920  135.4630 C   0  0  0  0  0  0  0  0  0  0  0  0
  187.0150  176.6370  135.3490 C   0  0  2  0  0  3  0  0  0  0  0  0
  189.0850  176.5300  140.0860 C   0  0  1  0  0  3  0  0  0  0  0  0
  186.9000  175.5190  137.7290 C   0  0  0  0  0  2  0  0  0  0  0  0
  189.3680  173.6890  134.8720 C   0  0  1  0  0  3  0  0  0  0  0  0
  186.9610  178.6020  137.9620 C   0  0  2  0  0  3  0  0  0  0  0  0
  188.2470  178.6810  137.1460 C   0  0  0  0  0  2  0  0  0  0  0  0
  187.3090  178.0280  139.3220 C   0  0  2  0  0  3  0  0  0  0  0  0
  188.7910  172.9120  136.0430 C   0  0  0  0  0  0  0  0  0  0  0  0
  187.4110  178.5790  141.8360 C   0  0  0  0  0  2  0  0  0  0  0  0
  194.1470  174.9810  135.8470 C   0  0  0  0  0  1  0  0  0  0  0  0
  188.9530  175.1430  134.8780 C   0  0  2  0  0  3  0  0  0  0  0  0
  188.6060  171.7120  135.9210 O   0  0  0  0  0  0  0  0  0  0  0  0
  187.6350  175.3590  134.9180 C   0  0  0  0  0  2  0  0  0  0  0  0
  186.7510  178.8620  140.4760 C   0  0  0  0  0  2  0  0  0  0  0  0
  185.8430  177.7910  137.2720 C   0  0  0  0  0  2  0  0  0  0  0  0
  189.0530  176.6760  141.6040 C   0  0  0  0  0  2  0  0  0  0  0  0
  188.8110  177.8760  139.3910 C   0  0  2  0  0  3  0  0  0  0  0  0
  190.8620  173.4580  134.7440 C   0  0  0  0  0  1  0  0  0  0  0  0
  187.6670  177.0940  142.1010 C   0  0  0  0  0  2  0  0  0  0  0  0
  191.8520  175.3700  137.6970 C   0  0  0  0  0  2  0  0  0  0  0  0
  192.9530  176.3730  134.3460 O   0  0  0  0  0  0  0  0  0  0  0  0
  191.8260  175.9050  136.3460 N   0  0  0  0  0  0  0  0  0  0  0  0
  188.4260  173.5780  137.3460 C   0  0  0  0  0  2  0  0  0  0  0  0
  190.6610  176.7550  136.0760 C   0  0  2  0  0  0  0  0  0  0  0  0
  186.9680  174.0380  137.3540 C   0  0  0  0  0  2  0  0  0  0  0  0
  189.9270  176.3050  134.7970 C   0  0  0  0  0  2  0  0  0  0  0  0
  186.2350  176.4280  136.6680 C   0  0  1  0  0  3  0  0  0  0  0  0
  186.1480  177.0890  134.3540 O   0  0  0  0  0  1  0  0  0  0  0  0
  190.3500  175.8790  139.6120 C   0  0  0  0  0  3  0  0  0  0  0  0
  191.1020  178.0690  135.8810 O   0  0  0  0  0  1  0  0  0  0  0  0
  189.7710  176.6640  137.3340 C   0  0  2  0  0  3  0  0  0  0  0  0
  1  9  1  6  0  0  0
  1 20  1  0  0  0  0
  2 32  2  0  0  0  0
  3 13  1  0  0  0  0
  3 25  1  0  0  0  0
  4 31  1  6  0  0  0
  4 30  1  0  0  0  0
  5 32  1  1  0  0  0
  5 19  1  0  0  0  0
  7 21  1  1  0  0  0
  7 14  1  0  0  0  0
  7 11  1  0  0  0  0
  8  9  1  6  0  0  0
  8 10  1  0  0  0  0
 10 20  1  0  0  0  0
 10 17  1  1  0  0  0
 11 26  1  0  0  0  0
 12 22  1  0  0  0  0
 14 29  1  6  0  0  0
 14 16  1  0  0  0  0
 15 11  2  0  0  0  0
 16  4  1  0  0  0  0
 17 12  1  0  0  0  0
 18  8  1  0  0  0  0
 19 22  1  0  0  0  0
 20  5  1  0  0  0  0
 23  2  1  0  0  0  0
 24  3  2  0  0  0  0
 25 23  1  0  0  0  0
 26 28  1  0  0  0  0
 27 25  1  0  0  0  0
 27 34  1  0  0  0  0
 28  6  1  0  0  0  0
 29 27  1  0  0  0  0
 30 18  1  0  0  0  0
 30  6  1  0  0  0  0
 33 27  1  0  0  0  0
 34  1  1  0  0  0  0
 34  2  1  0  0  0  0
M  END
>  <MODEL>
7

>  <REMARK>
 VINA RESULT:      -1.4      4.857      8.581
  Name = 
  0 active torsions:
  status: ('A' for Active; 'I' for Inactive)
                            x       y       z     vdW  Elec       q    Type
                         _______ _______ _______ _____ _____    ______ ____

>  <TORSDO>
F 0

$$$$
=
 OpenBabel10272415333D

 34 39  0  0  1  0  0  0  0  0999 V2000
  196.3930  171.3720  135.4110 C   0  0  1  0  0  3  0  0  0  0  0  0
  194.8880  171.5960  137.3730 C   0  0  0  0  0  0  0  0  0  0  0  0
  192.0280  173.5280  136.0900 C   0  0  0  0  0  0  0  0  0  0  0  0
  197.8750  174.8180  135.6580 C   0  0  2  0  0  3  0  0  0  0  0  0
  196.8370  170.1770  137.6890 C   0  0  1  0  0  3  0  0  0  0  0  0
  198.2870  173.2180  137.7070 C   0  0  0  0  0  2  0  0  0  0  0  0
  195.0120  175.8280  137.9470 C   0  0  1  0  0  3  0  0  0  0  0  0
  198.7960  171.7420  135.0380 C   0  0  2  0  0  3  0  0  0  0  0  0
  197.4020  172.0930  134.5290 C   0  0  0  0  0  2  0  0  0  0  0  0
  198.6430  170.6950  136.1240 C   0  0  2  0  0  3  0  0  0  0  0  0
  195.6790  175.2690  139.1920 C   0  0  0  0  0  0  0  0  0  0  0  0
  199.1560  168.2420  136.7200 C   0  0  0  0  0  2  0  0  0  0  0  0
  190.8240  173.2140  136.9100 C   0  0  0  0  0  1  0  0  0  0  0  0
  195.6580  175.3380  136.6710 C   0  0  2  0  0  3  0  0  0  0  0  0
  195.6310  175.9120  140.2280 O   0  0  0  0  0  0  0  0  0  0  0  0
  196.9730  175.5560  136.5790 C   0  0  0  0  0  2  0  0  0  0  0  0
  199.5600  169.4890  135.9150 C   0  0  0  0  0  2  0  0  0  0  0  0
  199.5950  172.9660  135.5350 C   0  0  0  0  0  2  0  0  0  0  0  0
  197.2040  168.7960  138.2220 C   0  0  0  0  0  2  0  0  0  0  0  0
  197.1840  170.3080  136.1950 C   0  0  2  0  0  3  0  0  0  0  0  0
  193.5070  175.6490  138.0040 C   0  0  0  0  0  1  0  0  0  0  0  0
  198.7140  168.5490  138.1530 C   0  0  0  0  0  2  0  0  0  0  0  0
  193.4830  172.0280  137.5130 C   0  0  0  0  0  2  0  0  0  0  0  0
  191.8990  174.2700  135.0810 O   0  0  0  0  0  0  0  0  0  0  0  0
  193.3190  173.0000  136.4450 N   0  0  0  0  0  0  0  0  0  0  0  0
  196.4110  173.9500  139.1850 C   0  0  0  0  0  2  0  0  0  0  0  0
  194.5300  173.1910  135.6380 C   0  0  2  0  0  0  0  0  0  0  0  0
  197.8960  174.1320  138.8690 C   0  0  0  0  0  2  0  0  0  0  0  0
  194.8980  174.6840  135.5310 C   0  0  0  0  0  2  0  0  0  0  0  0
  198.8630  173.9490  136.4710 C   0  0  1  0  0  3  0  0  0  0  0  0
  198.5820  175.7290  134.8740 O   0  0  0  0  0  1  0  0  0  0  0  0
  195.4100  170.5310  137.9860 C   0  0  0  0  0  3  0  0  0  0  0  0
  194.2860  172.7130  134.3460 O   0  0  0  0  0  1  0  0  0  0  0  0
  195.6310  172.3560  136.3260 C   0  0  2  0  0  3  0  0  0  0  0  0
  1  9  1  1  0  0  0
  1 20  1  0  0  0  0
  1 34  1  0  0  0  0
  2 23  1  0  0  0  0
  2 32  2  0  0  0  0
  3 25  1  0  0  0  0
  3 13  1  0  0  0  0
  4 31  1  1  0  0  0
  4 30  1  0  0  0  0
  4 16  1  0  0  0  0
  5 32  1  6  0  0  0
  5 19  1  0  0  0  0
  6 28  1  0  0  0  0
  7 21  1  6  0  0  0
  7 11  1  0  0  0  0
  8  9  1  1  0  0  0
  8 18  1  0  0  0  0
  8 10  1  0  0  0  0
 10 17  1  6  0  0  0
 10 20  1  0  0  0  0
 11 15  2  0  0  0  0
 12 22  1  0  0  0  0
 14 29  1  6  0  0  0
 14  7  1  0  0  0  0
 16 14  1  0  0  0  0
 17 12  1  0  0  0  0
 18 30  1  0  0  0  0
 20  5  1  0  0  0  0
 22 19  1  0  0  0  0
 24  3  2  0  0  0  0
 25 23  1  0  0  0  0
 26 11  1  0  0  0  0
 27 34  1  0  0  0  0
 27 25  1  0  0  0  0
 28 26  1  0  0  0  0
 29 27  1  0  0  0  0
 30  6  1  0  0  0  0
 33 27  1  0  0  0  0
 34  2  1  0  0  0  0
M  END
>  <MODEL>
8

>  <REMARK>
 VINA RESULT:      -1.2     10.380     14.481
  Name = 
  0 active torsions:
  status: ('A' for Active; 'I' for Inactive)
                            x       y       z     vdW  Elec       q    Type
                         _______ _______ _______ _____ _____    ______ ____

>  <TORSDO>
F 0

$$$$
=
 OpenBabel10272415333D

 34 39  0  0  1  0  0  0  0  0999 V2000
  183.3310  178.6670  137.1900 C   0  0  1  0  0  3  0  0  0  0  0  0
  185.2550  177.5290  138.2680 C   0  0  0  0  0  0  0  0  0  0  0  0
  187.7830  177.3220  135.5990 C   0  0  0  0  0  0  0  0  0  0  0  0
  182.0270  175.6270  135.4030 C   0  0  2  0  0  3  0  0  0  0  0  0
  183.3990  178.0940  139.7350 C   0  0  1  0  0  3  0  0  0  0  0  0
  182.0650  175.5120  138.0320 C   0  0  0  0  0  2  0  0  0  0  0  0
  185.3660  173.9090  136.0000 C   0  0  1  0  0  3  0  0  0  0  0  0
  180.9160  178.2150  137.0640 C   0  0  2  0  0  3  0  0  0  0  0  0
  182.1620  178.4940  136.2300 C   0  0  0  0  0  2  0  0  0  0  0  0
  181.2920  178.3680  138.5260 C   0  0  2  0  0  3  0  0  0  0  0  0
  184.9930  173.4540  137.4000 C   0  0  0  0  0  0  0  0  0  0  0  0
  180.8750  179.7930  140.6310 C   0  0  0  0  0  2  0  0  0  0  0  0
  189.1370  177.2530  136.2180 C   0  0  0  0  0  1  0  0  0  0  0  0
  184.4300  174.9690  135.4650 C   0  0  2  0  0  3  0  0  0  0  0  0
  185.2960  172.3260  137.7550 O   0  0  0  0  0  0  0  0  0  0  0  0
  183.1350  174.6410  135.4710 C   0  0  0  0  0  2  0  0  0  0  0  0
  180.3240  179.2700  139.2930 C   0  0  0  0  0  2  0  0  0  0  0  0
  180.2830  176.8360  136.7820 C   0  0  0  0  0  2  0  0  0  0  0  0
  183.1340  178.7600  141.0810 C   0  0  0  0  0  2  0  0  0  0  0  0
  182.7190  178.8640  138.5890 C   0  0  2  0  0  3  0  0  0  0  0  0
  186.8390  174.2620  135.9110 C   0  0  0  0  0  1  0  0  0  0  0  0
  181.6440  178.7410  141.4350 C   0  0  0  0  0  2  0  0  0  0  0  0
  186.6640  177.3450  137.8660 C   0  0  0  0  0  2  0  0  0  0  0  0
  187.6910  177.4000  134.3460 O   0  0  0  0  0  0  0  0  0  0  0  0
  186.5980  177.2900  136.4160 N   0  0  0  0  0  0  0  0  0  0  0  0
  184.2500  174.3460  138.3620 C   0  0  0  0  0  2  0  0  0  0  0  0
  185.2380  177.4430  135.8860 C   0  0  2  0  0  0  0  0  0  0  0  0
  182.7360  174.1560  138.2510 C   0  0  0  0  0  2  0  0  0  0  0  0
  184.8890  176.3050  134.9070 C   0  0  0  0  0  2  0  0  0  0  0  0
  181.2350  175.6240  136.7310 C   0  0  1  0  0  3  0  0  0  0  0  0
  181.1790  175.2980  134.3460 O   0  0  0  0  0  1  0  0  0  0  0  0
  184.8640  177.8760  139.4970 C   0  0  0  0  0  3  0  0  0  0  0  0
  185.1640  178.6520  135.1860 O   0  0  0  0  0  1  0  0  0  0  0  0
  184.3060  177.4720  137.1170 C   0  0  2  0  0  3  0  0  0  0  0  0
  1  9  1  6  0  0  0
  1 20  1  0  0  0  0
  2 32  2  0  0  0  0
  3 13  1  0  0  0  0
  3 25  1  0  0  0  0
  4 31  1  6  0  0  0
  4 16  1  0  0  0  0
  4 30  1  0  0  0  0
  5 32  1  6  0  0  0
  5 19  1  0  0  0  0
  6 28  1  0  0  0  0
  7 21  1  1  0  0  0
  7 11  1  0  0  0  0
  8  9  1  6  0  0  0
  8 10  1  0  0  0  0
 10 20  1  0  0  0  0
 10 17  1  6  0  0  0
 11 15  2  0  0  0  0
 11 26  1  0  0  0  0
 12 22  1  0  0  0  0
 14 29  1  6  0  0  0
 14 16  1  0  0  0  0
 14  7  1  0  0  0  0
 17 12  1  0  0  0  0
 18  8  1  0  0  0  0
 19 22  1  0  0  0  0
 20  5  1  0  0  0  0
 23  2  1  0  0  0  0
 24  3  2  0  0  0  0
 25 23  1  0  0  0  0
 27 25  1  0  0  0  0
 27 34  1  0  0  0  0
 28 26  1  0  0  0  0
 29 27  1  0  0  0  0
 30 18  1  0  0  0  0
 30  6  1  0  0  0  0
 33 27  1  0  0  0  0
 34  1  1  0  0  0  0
 34  2  1  0  0  0  0
M  END
>  <MODEL>
9

>  <REMARK>
 VINA RESULT:      -1.1      2.333      6.083
  Name = 
  0 active torsions:
  status: ('A' for Active; 'I' for Inactive)
                            x       y       z     vdW  Elec       q    Type
                         _______ _______ _______ _____ _____    ______ ____

>  <TORSDO>
F 0

$$$$
