=
 OpenBabel10272401083D

 27 31  0  0  1  0  0  0  0  0999 V2000
  188.7500  176.6500  140.8390 O   0  0  0  0  0  0  0  0  0  0  0  0
  189.3020  177.8140  137.6650 C   0  0  0  0  0  3  0  0  0  0  0  0
  190.4930  177.2220  137.5230 C   0  0  0  0  0  3  0  0  0  0  0  0
  189.0730  177.8140  141.5740 C   0  0  2  0  0  0  0  0  0  0  0  0
  189.5330  177.6190  140.1740 C   0  0  1  0  0  0  0  0  0  0  0  0
  187.4190  178.0780  139.0620 F   0  0  0  0  0  0  0  0  0  0  0  0
  191.3580  176.9320  138.6810 C   0  0  0  0  0  3  0  0  0  0  0  0
  190.9290  177.1230  139.9280 C   0  0  0  0  0  3  0  0  0  0  0  0
  188.7870  178.2850  139.0000 C   0  0  2  0  0  3  0  0  0  0  0  0
  191.6790  177.1570  144.9340 C   0  0  0  0  0  3  0  0  0  0  0  0
  190.0050  177.5760  142.7280 C   0  0  0  0  0  0  0  0  0  0  0  0
  190.5640  178.6670  143.4040 C   0  0  0  0  0  3  0  0  0  0  0  0
  191.4020  178.4570  144.5030 C   0  0  0  0  0  3  0  0  0  0  0  0
  191.1150  176.0640  144.2670 C   0  0  0  0  0  3  0  0  0  0  0  0
  190.2760  176.2730  143.1690 C   0  0  0  0  0  3  0  0  0  0  0  0
  187.9230  178.6950  141.7760 N   0  0  0  0  0  2  0  0  0  0  0  0
  185.5190  178.4890  141.4020 C   0  0  0  0  0  3  0  0  0  0  0  0
  186.7580  177.7140  145.9020 C   0  0  0  0  0  3  0  0  0  0  0  0
  185.0850  178.5370  147.4400 O   0  0  0  0  0  1  0  0  0  0  0  0
  186.7520  177.8850  142.0880 C   0  0  2  0  0  3  0  0  0  0  0  0
  184.7570  178.8120  145.0540 C   0  0  0  0  0  0  0  0  0  0  0  0
  183.5380  179.4460  145.2700 O   0  0  0  0  0  1  0  0  0  0  0  0
  185.2370  178.6150  143.7560 C   0  0  0  0  0  0  0  0  0  0  0  0
  185.5300  178.3570  146.1350 C   0  0  0  0  0  0  0  0  0  0  0  0
  186.4380  177.9930  143.5320 C   0  0  0  0  0  0  0  0  0  0  0  0
  184.5740  179.0090  142.4940 C   0  0  0  0  0  3  0  0  0  0  0  0
  187.2210  177.5280  144.5910 C   0  0  0  0  0  3  0  0  0  0  0  0
  1  4  1  0  0  0  0
  2  9  1  0  0  0  0
  3  2  2  0  0  0  0
  3  7  1  0  0  0  0
  4 16  1  1  0  0  0
  4 11  1  0  0  0  0
  5  8  1  6  0  0  0
  5  1  1  0  0  0  0
  5  4  1  0  0  0  0
  7  8  2  0  0  0  0
  9  6  1  1  0  0  0
  9  5  1  0  0  0  0
 11 15  2  0  0  0  0
 11 12  1  0  0  0  0
 12 13  2  0  0  0  0
 13 10  1  0  0  0  0
 14 10  2  0  0  0  0
 15 14  1  0  0  0  0
 17 20  1  0  0  0  0
 17 26  2  0  0  0  0
 18 24  1  0  0  0  0
 20 16  1  1  0  0  0
 20 25  1  0  0  0  0
 21 22  1  0  0  0  0
 21 24  2  0  0  0  0
 23 21  1  0  0  0  0
 24 19  1  0  0  0  0
 25 23  2  0  0  0  0
 25 27  1  0  0  0  0
 26 23  1  0  0  0  0
 27 18  2  0  0  0  0
M  END
>  <MODEL>
1

>  <REMARK>
 VINA RESULT:      -9.4      0.000      0.000
  Name = 
  3 active torsions:
  status: ('A' for Active; 'I' for Inactive)
    1  A    between atoms: N_2  and  C_6
    2  A    between atoms: N_2  and  C_15
    3  A    between atoms: C_9  and  C_15
                            x       y       z     vdW  Elec       q    Type
                         _______ _______ _______ _____ _____    ______ ____

>  <TORSDO>
F 3

$$$$
=
 OpenBabel10272401083D

 27 31  0  0  1  0  0  0  0  0999 V2000
  188.8960  178.5650  144.7520 O   0  0  0  0  0  0  0  0  0  0  0  0
  189.9370  176.7540  147.4670 C   0  0  0  0  0  3  0  0  0  0  0  0
  191.2210  176.7020  147.0940 C   0  0  0  0  0  3  0  0  0  0  0  0
  188.3130  177.5270  143.9890 C   0  0  2  0  0  0  0  0  0  0  0  0
  189.2900  177.2480  145.0750 C   0  0  1  0  0  0  0  0  0  0  0  0
  187.8020  177.6220  146.9630 F   0  0  0  0  0  0  0  0  0  0  0  0
  191.6200  176.7580  145.6760 C   0  0  0  0  0  3  0  0  0  0  0  0
  190.7280  177.0010  144.7170 C   0  0  0  0  0  3  0  0  0  0  0  0
  188.8080  176.8060  146.4720 C   0  0  2  0  0  3  0  0  0  0  0  0
  189.5970  177.5350  139.8820 C   0  0  0  0  0  3  0  0  0  0  0  0
  188.7420  177.5070  142.5490 C   0  0  0  0  0  0  0  0  0  0  0  0
  188.3320  178.5340  141.6890 C   0  0  0  0  0  3  0  0  0  0  0  0
  188.7560  178.5450  140.3580 C   0  0  0  0  0  3  0  0  0  0  0  0
  190.0180  176.5140  140.7400 C   0  0  0  0  0  3  0  0  0  0  0  0
  189.5950  176.5020  142.0720 C   0  0  0  0  0  3  0  0  0  0  0  0
  186.9000  177.3180  144.2990 N   0  0  0  0  0  2  0  0  0  0  0  0
  185.5860  178.8230  145.7030 C   0  0  0  0  0  3  0  0  0  0  0  0
  183.8980  178.4650  141.2980 C   0  0  0  0  0  3  0  0  0  0  0  0
  181.4830  178.5710  141.2580 O   0  0  0  0  0  1  0  0  0  0  0  0
  186.2210  178.6080  144.3220 C   0  0  2  0  0  3  0  0  0  0  0  0
  182.6530  178.6960  143.3780 C   0  0  0  0  0  0  0  0  0  0  0  0
  181.4490  178.8110  144.0630 O   0  0  0  0  0  1  0  0  0  0  0  0
  183.8690  178.6970  144.0680 C   0  0  0  0  0  0  0  0  0  0  0  0
  182.6730  178.5770  141.9780 C   0  0  0  0  0  0  0  0  0  0  0  0
  185.0610  178.5810  143.4020 C   0  0  0  0  0  0  0  0  0  0  0  0
  184.0600  178.8200  145.5290 C   0  0  0  0  0  3  0  0  0  0  0  0
  185.1050  178.4670  142.0100 C   0  0  0  0  0  3  0  0  0  0  0  0
  1  5  1  0  0  0  0
  3  2  2  0  0  0  0
  4 16  1  1  0  0  0
  4  1  1  0  0  0  0
  4  5  1  0  0  0  0
  5  8  1  6  0  0  0
  5  9  1  0  0  0  0
  7  3  1  0  0  0  0
  8  7  2  0  0  0  0
  9  6  1  1  0  0  0
  9  2  1  0  0  0  0
 10 13  2  0  0  0  0
 10 14  1  0  0  0  0
 11  4  1  0  0  0  0
 12 11  2  0  0  0  0
 13 12  1  0  0  0  0
 14 15  2  0  0  0  0
 15 11  1  0  0  0  0
 18 24  2  0  0  0  0
 18 27  1  0  0  0  0
 19 24  1  0  0  0  0
 20 16  1  1  0  0  0
 20 17  1  0  0  0  0
 21 22  1  0  0  0  0
 21 23  2  0  0  0  0
 23 26  1  0  0  0  0
 24 21  1  0  0  0  0
 25 23  1  0  0  0  0
 25 20  1  0  0  0  0
 26 17  2  0  0  0  0
 27 25  2  0  0  0  0
M  END
>  <MODEL>
2

>  <REMARK>
 VINA RESULT:      -8.6      2.502      5.061
  Name = 
  3 active torsions:
  status: ('A' for Active; 'I' for Inactive)
    1  A    between atoms: N_2  and  C_6
    2  A    between atoms: N_2  and  C_15
    3  A    between atoms: C_9  and  C_15
                            x       y       z     vdW  Elec       q    Type
                         _______ _______ _______ _____ _____    ______ ____

>  <TORSDO>
F 3

$$$$
=
 OpenBabel10272401083D

 27 31  0  0  1  0  0  0  0  0999 V2000
  184.8950  179.5870  142.9310 O   0  0  0  0  0  0  0  0  0  0  0  0
  181.9380  178.6090  141.5030 C   0  0  0  0  0  3  0  0  0  0  0  0
  181.1740  178.9820  142.5360 C   0  0  0  0  0  3  0  0  0  0  0  0
  185.3800  178.3260  143.3500 C   0  0  2  0  0  0  0  0  0  0  0  0
  183.9420  178.5490  143.0420 C   0  0  1  0  0  0  0  0  0  0  0  0
  184.1240  178.5800  140.6160 F   0  0  0  0  0  0  0  0  0  0  0  0
  181.6940  179.0110  143.9160 C   0  0  0  0  0  3  0  0  0  0  0  0
  182.9850  178.7990  144.1710 C   0  0  0  0  0  3  0  0  0  0  0  0
  183.3560  178.1320  141.6780 C   0  0  2  0  0  3  0  0  0  0  0  0
  186.8410  178.2580  147.3960 C   0  0  0  0  0  3  0  0  0  0  0  0
  185.8630  178.2930  144.7720 C   0  0  0  0  0  0  0  0  0  0  0  0
  186.7260  177.2720  145.1870 C   0  0  0  0  0  3  0  0  0  0  0  0
  187.2110  177.2530  146.4980 C   0  0  0  0  0  3  0  0  0  0  0  0
  185.9870  179.2850  146.9830 C   0  0  0  0  0  3  0  0  0  0  0  0
  185.5020  179.3050  145.6720 C   0  0  0  0  0  3  0  0  0  0  0  0
  186.1800  177.6580  142.3250 N   0  0  0  0  0  2  0  0  0  0  0  0
  186.9810  178.5760  140.2090 C   0  0  0  0  0  3  0  0  0  0  0  0
  190.4730  177.7030  143.2800 C   0  0  0  0  0  3  0  0  0  0  0  0
  192.4750  176.9440  142.1590 O   0  0  0  0  0  1  0  0  0  0  0  0
  187.1040  178.6210  141.7380 C   0  0  2  0  0  3  0  0  0  0  0  0
  190.4920  177.4460  140.8580 C   0  0  0  0  0  0  0  0  0  0  0  0
  191.1510  177.1150  139.6800 O   0  0  0  0  0  1  0  0  0  0  0  0
  189.1600  177.8700  140.8340 C   0  0  0  0  0  0  0  0  0  0  0  0
  191.1510  177.3620  142.0960 C   0  0  0  0  0  0  0  0  0  0  0  0
  188.5000  178.1960  141.9910 C   0  0  0  0  0  0  0  0  0  0  0  0
  188.3010  178.0320  139.6420 C   0  0  0  0  0  3  0  0  0  0  0  0
  189.1370  178.1250  143.2330 C   0  0  0  0  0  3  0  0  0  0  0  0
  1  5  1  0  0  0  0
  1  4  1  0  0  0  0
  2  9  1  0  0  0  0
  2  3  2  0  0  0  0
  3  7  1  0  0  0  0
  4 16  1  6  0  0  0
  4 11  1  0  0  0  0
  5  4  1  0  0  0  0
  5  8  1  1  0  0  0
  7  8  2  0  0  0  0
  9  6  1  6  0  0  0
  9  5  1  0  0  0  0
 11 12  2  0  0  0  0
 11 15  1  0  0  0  0
 12 13  1  0  0  0  0
 13 10  2  0  0  0  0
 14 10  1  0  0  0  0
 15 14  2  0  0  0  0
 17 20  1  0  0  0  0
 20 25  1  0  0  0  0
 20 16  1  1  0  0  0
 21 24  1  0  0  0  0
 22 21  1  0  0  0  0
 23 21  2  0  0  0  0
 23 25  1  0  0  0  0
 24 19  1  0  0  0  0
 24 18  2  0  0  0  0
 25 27  2  0  0  0  0
 26 17  2  0  0  0  0
 26 23  1  0  0  0  0
 27 18  1  0  0  0  0
M  END
>  <MODEL>
3

>  <REMARK>
 VINA RESULT:      -8.3      1.979      6.317
  Name = 
  3 active torsions:
  status: ('A' for Active; 'I' for Inactive)
    1  A    between atoms: N_2  and  C_6
    2  A    between atoms: N_2  and  C_15
    3  A    between atoms: C_9  and  C_15
                            x       y       z     vdW  Elec       q    Type
                         _______ _______ _______ _____ _____    ______ ____

>  <TORSDO>
F 3

$$$$
=
 OpenBabel10272401083D

 27 31  0  0  1  0  0  0  0  0999 V2000
  187.5520  176.6630  145.1340 O   0  0  0  0  0  0  0  0  0  0  0  0
  189.6330  177.6680  147.6620 C   0  0  0  0  0  3  0  0  0  0  0  0
  188.6770  177.7160  148.5960 C   0  0  0  0  0  3  0  0  0  0  0  0
  187.3850  177.8970  144.4640 C   0  0  2  0  0  0  0  0  0  0  0  0
  187.8560  177.8280  145.8730 C   0  0  1  0  0  0  0  0  0  0  0  0
  190.1370  177.1110  145.4250 F   0  0  0  0  0  0  0  0  0  0  0  0
  187.2680  177.9810  148.2520 C   0  0  0  0  0  3  0  0  0  0  0  0
  186.8680  178.0480  146.9830 C   0  0  0  0  0  3  0  0  0  0  0  0
  189.3570  177.9460  146.2080 C   0  0  2  0  0  3  0  0  0  0  0  0
  183.3160  178.9630  143.5610 C   0  0  0  0  0  3  0  0  0  0  0  0
  185.9570  178.2390  144.1490 C   0  0  0  0  0  0  0  0  0  0  0  0
  185.1450  178.8060  145.1390 C   0  0  0  0  0  3  0  0  0  0  0  0
  183.8260  179.1630  144.8460 C   0  0  0  0  0  3  0  0  0  0  0  0
  184.1260  178.4060  142.5650 C   0  0  0  0  0  3  0  0  0  0  0  0
  185.4450  178.0490  142.8570 C   0  0  0  0  0  3  0  0  0  0  0  0
  188.4010  178.1270  143.4370 N   0  0  0  0  0  2  0  0  0  0  0  0
  189.7470  176.1630  142.8940 C   0  0  0  0  0  3  0  0  0  0  0  0
  188.1340  178.4130  139.0570 C   0  0  0  0  0  3  0  0  0  0  0  0
  189.7320  178.3410  137.2450 O   0  0  0  0  0  1  0  0  0  0  0  0
  188.4740  176.9580  142.5690 C   0  0  2  0  0  3  0  0  0  0  0  0
  190.2780  177.3000  139.3660 C   0  0  0  0  0  0  0  0  0  0  0  0
  191.5170  176.9000  138.8780 O   0  0  0  0  0  1  0  0  0  0  0  0
  189.8950  176.9950  140.6750 C   0  0  0  0  0  0  0  0  0  0  0  0
  189.3850  178.0180  138.5520 C   0  0  0  0  0  0  0  0  0  0  0  0
  188.6760  177.3870  141.1660 C   0  0  0  0  0  0  0  0  0  0  0  0
  190.6810  176.2460  141.6780 C   0  0  0  0  0  3  0  0  0  0  0  0
  187.7710  178.0980  140.3740 C   0  0  0  0  0  3  0  0  0  0  0  0
  1  5  1  0  0  0  0
  2  3  2  0  0  0  0
  4 16  1  6  0  0  0
  4  1  1  0  0  0  0
  4  5  1  0  0  0  0
  5  9  1  0  0  0  0
  5  8  1  1  0  0  0
  7  3  1  0  0  0  0
  8  7  2  0  0  0  0
  9  6  1  6  0  0  0
  9  2  1  0  0  0  0
 10 13  1  0  0  0  0
 11  4  1  0  0  0  0
 11 12  1  0  0  0  0
 13 12  2  0  0  0  0
 14 15  1  0  0  0  0
 14 10  2  0  0  0  0
 15 11  2  0  0  0  0
 18 27  1  0  0  0  0
 19 24  1  0  0  0  0
 20 17  1  0  0  0  0
 20 16  1  1  0  0  0
 21 23  2  0  0  0  0
 22 21  1  0  0  0  0
 23 25  1  0  0  0  0
 23 26  1  0  0  0  0
 24 18  2  0  0  0  0
 24 21  1  0  0  0  0
 25 20  1  0  0  0  0
 26 17  2  0  0  0  0
 27 25  2  0  0  0  0
M  END
>  <MODEL>
4

>  <REMARK>
 VINA RESULT:      -8.0      2.360      7.210
  Name = 
  3 active torsions:
  status: ('A' for Active; 'I' for Inactive)
    1  A    between atoms: N_2  and  C_6
    2  A    between atoms: N_2  and  C_15
    3  A    between atoms: C_9  and  C_15
                            x       y       z     vdW  Elec       q    Type
                         _______ _______ _______ _____ _____    ______ ____

>  <TORSDO>
F 3

$$$$
=
 OpenBabel10272401083D

 27 31  0  0  1  0  0  0  0  0999 V2000
  187.7820  178.8390  145.2090 O   0  0  0  0  0  0  0  0  0  0  0  0
  187.8570  177.7200  148.4460 C   0  0  0  0  0  3  0  0  0  0  0  0
  189.1910  177.6740  148.5280 C   0  0  0  0  0  3  0  0  0  0  0  0
  187.4750  177.6270  144.5490 C   0  0  2  0  0  0  0  0  0  0  0  0
  188.0370  177.6490  145.9260 C   0  0  1  0  0  0  0  0  0  0  0  0
  186.0140  178.3200  147.1000 F   0  0  0  0  0  0  0  0  0  0  0  0
  190.0350  177.4520  147.3400 C   0  0  0  0  0  3  0  0  0  0  0  0
  189.5100  177.4260  146.1150 C   0  0  0  0  0  3  0  0  0  0  0  0
  187.1190  177.4860  147.1540 C   0  0  2  0  0  3  0  0  0  0  0  0
  190.0470  176.8310  141.1940 C   0  0  0  0  0  3  0  0  0  0  0  0
  188.3530  177.3280  143.3680 C   0  0  0  0  0  0  0  0  0  0  0  0
  188.4360  178.2480  142.3160 C   0  0  0  0  0  3  0  0  0  0  0  0
  189.2790  177.9980  141.2300 C   0  0  0  0  0  3  0  0  0  0  0  0
  189.9750  175.9130  142.2470 C   0  0  0  0  0  3  0  0  0  0  0  0
  189.1330  176.1630  143.3340 C   0  0  0  0  0  3  0  0  0  0  0  0
  186.0360  177.3970  144.4260 N   0  0  0  0  0  2  0  0  0  0  0  0
  184.2000  178.7950  145.2240 C   0  0  0  0  0  3  0  0  0  0  0  0
  184.5350  178.7070  140.5060 C   0  0  0  0  0  3  0  0  0  0  0  0
  182.3590  178.7920  139.4570 O   0  0  0  0  0  1  0  0  0  0  0  0
  185.3640  178.6760  144.2310 C   0  0  2  0  0  3  0  0  0  0  0  0
  182.5230  178.7900  141.8760 C   0  0  0  0  0  0  0  0  0  0  0  0
  181.1390  178.8500  141.9940 O   0  0  0  0  0  1  0  0  0  0  0  0
  183.3350  178.7580  143.0140 C   0  0  0  0  0  0  0  0  0  0  0  0
  183.1340  178.7630  140.6100 C   0  0  0  0  0  0  0  0  0  0  0  0
  184.7010  178.6980  142.9070 C   0  0  0  0  0  0  0  0  0  0  0  0
  182.8900  178.7880  144.4230 C   0  0  0  0  0  3  0  0  0  0  0  0
  185.3300  178.6740  141.6600 C   0  0  0  0  0  3  0  0  0  0  0  0
  1  5  1  0  0  0  0
  2  3  2  0  0  0  0
  4 16  1  6  0  0  0
  4  1  1  0  0  0  0
  4  5  1  0  0  0  0
  5  8  1  1  0  0  0
  5  9  1  0  0  0  0
  7  3  1  0  0  0  0
  8  7  2  0  0  0  0
  9  6  1  6  0  0  0
  9  2  1  0  0  0  0
 10 13  2  0  0  0  0
 10 14  1  0  0  0  0
 11  4  1  0  0  0  0
 12 11  2  0  0  0  0
 13 12  1  0  0  0  0
 14 15  2  0  0  0  0
 15 11  1  0  0  0  0
 18 24  2  0  0  0  0
 18 27  1  0  0  0  0
 19 24  1  0  0  0  0
 20 16  1  1  0  0  0
 20 17  1  0  0  0  0
 21 22  1  0  0  0  0
 21 23  2  0  0  0  0
 23 26  1  0  0  0  0
 24 21  1  0  0  0  0
 25 23  1  0  0  0  0
 25 20  1  0  0  0  0
 26 17  2  0  0  0  0
 27 25  2  0  0  0  0
M  END
>  <MODEL>
5

>  <REMARK>
 VINA RESULT:      -7.9      2.824      5.623
  Name = 
  3 active torsions:
  status: ('A' for Active; 'I' for Inactive)
    1  A    between atoms: N_2  and  C_6
    2  A    between atoms: N_2  and  C_15
    3  A    between atoms: C_9  and  C_15
                            x       y       z     vdW  Elec       q    Type
                         _______ _______ _______ _____ _____    ______ ____

>  <TORSDO>
F 3

$$$$
=
 OpenBabel10272401083D

 27 31  0  0  1  0  0  0  0  0999 V2000
  187.3500  179.0890  143.9510 O   0  0  0  0  0  0  0  0  0  0  0  0
  184.7990  178.4510  146.1470 C   0  0  0  0  0  3  0  0  0  0  0  0
  185.5760  178.4310  147.2350 C   0  0  0  0  0  3  0  0  0  0  0  0
  187.5320  177.7910  143.4220 C   0  0  2  0  0  0  0  0  0  0  0  0
  186.8360  178.0180  144.7160 C   0  0  1  0  0  0  0  0  0  0  0  0
  184.7260  178.8310  143.8190 F   0  0  0  0  0  0  0  0  0  0  0  0
  186.9980  178.0480  147.1660 C   0  0  0  0  0  3  0  0  0  0  0  0
  187.6010  177.8400  145.9960 C   0  0  0  0  0  3  0  0  0  0  0  0
  185.2960  178.0250  144.7910 C   0  0  2  0  0  3  0  0  0  0  0  0
  191.6320  176.4850  143.4210 C   0  0  0  0  0  3  0  0  0  0  0  0
  188.9630  177.3330  143.3910 C   0  0  0  0  0  0  0  0  0  0  0  0
  189.9900  178.2510  143.6450 C   0  0  0  0  0  3  0  0  0  0  0  0
  191.3220  177.8270  143.6560 C   0  0  0  0  0  3  0  0  0  0  0  0
  190.6090  175.5630  143.1770 C   0  0  0  0  0  3  0  0  0  0  0  0
  189.2770  175.9850  143.1660 C   0  0  0  0  0  3  0  0  0  0  0  0
  186.6910  177.5310  142.2540 N   0  0  0  0  0  2  0  0  0  0  0  0
  185.3660  178.9910  140.8130 C   0  0  0  0  0  3  0  0  0  0  0  0
  189.4410  177.6420  138.8250 C   0  0  0  0  0  3  0  0  0  0  0  0
  189.2050  177.3200  136.4410 O   0  0  0  0  0  1  0  0  0  0  0  0
  186.7680  178.6700  141.3480 C   0  0  2  0  0  3  0  0  0  0  0  0
  187.2800  177.9840  137.7570 C   0  0  0  0  0  0  0  0  0  0  0  0
  186.4780  177.9970  136.6210 O   0  0  0  0  0  1  0  0  0  0  0  0
  186.7480  178.3070  139.0080 C   0  0  0  0  0  0  0  0  0  0  0  0
  188.6420  177.6480  137.6690 C   0  0  0  0  0  0  0  0  0  0  0  0
  187.5300  178.2950  140.1350 C   0  0  0  0  0  0  0  0  0  0  0  0
  185.3530  178.6940  139.3070 C   0  0  0  0  0  3  0  0  0  0  0  0
  188.8860  177.9680  140.0700 C   0  0  0  0  0  3  0  0  0  0  0  0
  1  5  1  0  0  0  0
  2  3  2  0  0  0  0
  4 16  1  6  0  0  0
  4  1  1  0  0  0  0
  4  5  1  0  0  0  0
  5  9  1  0  0  0  0
  5  8  1  1  0  0  0
  7  3  1  0  0  0  0
  8  7  2  0  0  0  0
  9  6  1  6  0  0  0
  9  2  1  0  0  0  0
 10 13  1  0  0  0  0
 11  4  1  0  0  0  0
 11 12  1  0  0  0  0
 12 13  2  0  0  0  0
 14 10  2  0  0  0  0
 15 14  1  0  0  0  0
 15 11  2  0  0  0  0
 17 20  1  0  0  0  0
 18 27  1  0  0  0  0
 19 24  1  0  0  0  0
 20 16  1  1  0  0  0
 21 23  2  0  0  0  0
 22 21  1  0  0  0  0
 23 26  1  0  0  0  0
 23 25  1  0  0  0  0
 24 21  1  0  0  0  0
 24 18  2  0  0  0  0
 25 20  1  0  0  0  0
 26 17  2  0  0  0  0
 27 25  2  0  0  0  0
M  END
>  <MODEL>
6

>  <REMARK>
 VINA RESULT:      -7.8      2.167      6.059
  Name = 
  3 active torsions:
  status: ('A' for Active; 'I' for Inactive)
    1  A    between atoms: N_2  and  C_6
    2  A    between atoms: N_2  and  C_15
    3  A    between atoms: C_9  and  C_15
                            x       y       z     vdW  Elec       q    Type
                         _______ _______ _______ _____ _____    ______ ____

>  <TORSDO>
F 3

$$$$
=
 OpenBabel10272401083D

 27 31  0  0  1  0  0  0  0  0999 V2000
  188.9850  178.8100  140.8220 O   0  0  0  0  0  0  0  0  0  0  0  0
  190.5760  176.9700  138.4090 C   0  0  0  0  0  3  0  0  0  0  0  0
  189.7670  177.3490  137.4130 C   0  0  0  0  0  3  0  0  0  0  0  0
  188.2400  177.7820  141.4460 C   0  0  2  0  0  0  0  0  0  0  0  0
  188.7910  177.6280  140.0730 C   0  0  1  0  0  0  0  0  0  0  0  0
  191.1150  177.2560  140.6890 F   0  0  0  0  0  0  0  0  0  0  0  0
  188.3670  177.7400  137.6570 C   0  0  0  0  0  3  0  0  0  0  0  0
  187.8900  177.8640  138.8950 C   0  0  0  0  0  3  0  0  0  0  0  0
  190.1030  176.8520  139.8340 C   0  0  2  0  0  3  0  0  0  0  0  0
  184.1100  178.7900  142.1090 C   0  0  0  0  0  3  0  0  0  0  0  0
  186.7900  178.1130  141.6570 C   0  0  0  0  0  0  0  0  0  0  0  0
  186.1470  177.6960  142.8290 C   0  0  0  0  0  3  0  0  0  0  0  0
  184.8090  178.0320  143.0520 C   0  0  0  0  0  3  0  0  0  0  0  0
  184.7510  179.2160  140.9410 C   0  0  0  0  0  3  0  0  0  0  0  0
  186.0890  178.8820  140.7170 C   0  0  0  0  0  3  0  0  0  0  0  0
  188.9720  177.1290  142.5300 N   0  0  0  0  0  2  0  0  0  0  0  0
  191.0360  177.9790  143.5200 C   0  0  0  0  0  3  0  0  0  0  0  0
  187.4670  177.7390  146.6170 C   0  0  0  0  0  3  0  0  0  0  0  0
  188.2440  177.1380  148.8250 O   0  0  0  0  0  1  0  0  0  0  0  0
  189.5130  178.1480  143.4200 C   0  0  2  0  0  3  0  0  0  0  0  0
  189.8340  177.3130  147.0030 C   0  0  0  0  0  0  0  0  0  0  0  0
  190.8810  176.9770  147.8530 O   0  0  0  0  0  1  0  0  0  0  0  0
  190.0690  177.5770  145.6500 C   0  0  0  0  0  0  0  0  0  0  0  0
  188.5160  177.3950  147.4870 C   0  0  0  0  0  0  0  0  0  0  0  0
  189.0420  177.9070  144.8040 C   0  0  0  0  0  0  0  0  0  0  0  0
  191.3740  177.5530  144.9550 C   0  0  0  0  0  3  0  0  0  0  0  0
  187.7260  177.9990  145.2640 C   0  0  0  0  0  3  0  0  0  0  0  0
  1  4  1  0  0  0  0
  2  9  1  0  0  0  0
  3  7  1  0  0  0  0
  3  2  2  0  0  0  0
  4 11  1  0  0  0  0
  4 16  1  1  0  0  0
  5  8  1  6  0  0  0
  5  1  1  0  0  0  0
  5  4  1  0  0  0  0
  7  8  2  0  0  0  0
  9  5  1  0  0  0  0
  9  6  1  1  0  0  0
 10 13  1  0  0  0  0
 11 12  1  0  0  0  0
 12 13  2  0  0  0  0
 14 10  2  0  0  0  0
 15 14  1  0  0  0  0
 15 11  2  0  0  0  0
 17 26  2  0  0  0  0
 18 24  1  0  0  0  0
 20 16  1  6  0  0  0
 20 17  1  0  0  0  0
 20 25  1  0  0  0  0
 21 24  2  0  0  0  0
 21 22  1  0  0  0  0
 23 21  1  0  0  0  0
 24 19  1  0  0  0  0
 25 27  1  0  0  0  0
 25 23  2  0  0  0  0
 26 23  1  0  0  0  0
 27 18  2  0  0  0  0
M  END
>  <MODEL>
7

>  <REMARK>
 VINA RESULT:      -7.7      2.016      4.538
  Name = 
  3 active torsions:
  status: ('A' for Active; 'I' for Inactive)
    1  A    between atoms: N_2  and  C_6
    2  A    between atoms: N_2  and  C_15
    3  A    between atoms: C_9  and  C_15
                            x       y       z     vdW  Elec       q    Type
                         _______ _______ _______ _____ _____    ______ ____

>  <TORSDO>
F 3

$$$$
=
 OpenBabel10272401083D

 27 31  0  0  1  0  0  0  0  0999 V2000
  187.5630  179.0730  142.2660 O   0  0  0  0  0  0  0  0  0  0  0  0
  184.2790  178.4800  143.0400 C   0  0  0  0  0  3  0  0  0  0  0  0
  184.4310  178.6490  144.3580 C   0  0  0  0  0  3  0  0  0  0  0  0
  188.0030  177.7420  142.0770 C   0  0  2  0  0  0  0  0  0  0  0  0
  186.7620  178.0580  142.8350 C   0  0  1  0  0  0  0  0  0  0  0  0
  185.3380  178.5830  140.9340 F   0  0  0  0  0  0  0  0  0  0  0  0
  185.7150  178.3820  145.0320 C   0  0  0  0  0  3  0  0  0  0  0  0
  186.8130  178.0920  144.3350 C   0  0  0  0  0  3  0  0  0  0  0  0
  185.3790  177.9440  142.1620 C   0  0  2  0  0  3  0  0  0  0  0  0
  191.6890  176.7590  144.0670 C   0  0  0  0  0  3  0  0  0  0  0  0
  189.2770  177.4060  142.7990 C   0  0  0  0  0  0  0  0  0  0  0  0
  189.6640  176.0670  142.9330 C   0  0  0  0  0  3  0  0  0  0  0  0
  190.8660  175.7450  143.5690 C   0  0  0  0  0  3  0  0  0  0  0  0
  191.3100  178.0990  143.9270 C   0  0  0  0  0  3  0  0  0  0  0  0
  190.1090  178.4220  143.2900 C   0  0  0  0  0  3  0  0  0  0  0  0
  187.8380  177.2810  140.6990 N   0  0  0  0  0  2  0  0  0  0  0  0
  187.5200  178.5430  138.6330 C   0  0  0  0  0  3  0  0  0  0  0  0
  191.8270  176.6140  138.9730 C   0  0  0  0  0  3  0  0  0  0  0  0
  192.6520  175.8920  136.8190 O   0  0  0  0  0  1  0  0  0  0  0  0
  188.4710  178.2350  139.7980 C   0  0  2  0  0  3  0  0  0  0  0  0
  190.4510  176.8960  136.9840 C   0  0  0  0  0  0  0  0  0  0  0  0
  190.2590  176.7590  135.6140 O   0  0  0  0  0  1  0  0  0  0  0  0
  189.4610  177.4670  137.7880 C   0  0  0  0  0  0  0  0  0  0  0  0
  191.6450  176.4660  137.5870 C   0  0  0  0  0  0  0  0  0  0  0  0
  189.6390  177.6050  139.1410 C   0  0  0  0  0  0  0  0  0  0  0  0
  188.1490  177.9870  137.3470 C   0  0  0  0  0  3  0  0  0  0  0  0
  190.8200  177.1890  139.7610 C   0  0  0  0  0  3  0  0  0  0  0  0
  1  5  1  0  0  0  0
  2  3  2  0  0  0  0
  3  7  1  0  0  0  0
  4 16  1  6  0  0  0
  4  1  1  0  0  0  0
  4 11  1  0  0  0  0
  4  5  1  0  0  0  0
  5  8  1  1  0  0  0
  8  7  2  0  0  0  0
  9  6  1  6  0  0  0
  9  5  1  0  0  0  0
  9  2  1  0  0  0  0
 11 12  2  0  0  0  0
 11 15  1  0  0  0  0
 12 13  1  0  0  0  0
 13 10  2  0  0  0  0
 14 10  1  0  0  0  0
 15 14  2  0  0  0  0
 17 20  1  0  0  0  0
 18 27  1  0  0  0  0
 19 24  1  0  0  0  0
 20 16  1  1  0  0  0
 21 24  1  0  0  0  0
 21 23  2  0  0  0  0
 22 21  1  0  0  0  0
 23 25  1  0  0  0  0
 24 18  2  0  0  0  0
 25 27  2  0  0  0  0
 25 20  1  0  0  0  0
 26 23  1  0  0  0  0
 26 17  2  0  0  0  0
M  END
>  <MODEL>
8

>  <REMARK>
 VINA RESULT:      -7.7      1.913      6.472
  Name = 
  3 active torsions:
  status: ('A' for Active; 'I' for Inactive)
    1  A    between atoms: N_2  and  C_6
    2  A    between atoms: N_2  and  C_15
    3  A    between atoms: C_9  and  C_15
                            x       y       z     vdW  Elec       q    Type
                         _______ _______ _______ _____ _____    ______ ____

>  <TORSDO>
F 3

$$$$
=
 OpenBabel10272401083D

 27 31  0  0  1  0  0  0  0  0999 V2000
  188.6030  176.3420  144.3220 O   0  0  0  0  0  0  0  0  0  0  0  0
  191.3860  176.9250  146.2340 C   0  0  0  0  0  3  0  0  0  0  0  0
  190.7590  176.7830  147.4080 C   0  0  0  0  0  3  0  0  0  0  0  0
  188.2830  177.6720  143.9650 C   0  0  2  0  0  0  0  0  0  0  0  0
  189.1560  177.3620  145.1290 C   0  0  1  0  0  0  0  0  0  0  0  0
  191.1690  176.7890  143.8890 F   0  0  0  0  0  0  0  0  0  0  0  0
  189.3220  177.0730  147.5610 C   0  0  0  0  0  3  0  0  0  0  0  0
  188.5590  177.3580  146.5070 C   0  0  0  0  0  3  0  0  0  0  0  0
  190.6910  177.4520  145.0070 C   0  0  2  0  0  3  0  0  0  0  0  0
  184.1680  178.7890  144.5450 C   0  0  0  0  0  3  0  0  0  0  0  0
  186.8380  178.0320  144.1650 C   0  0  0  0  0  0  0  0  0  0  0  0
  186.3890  178.4130  145.4360 C   0  0  0  0  0  3  0  0  0  0  0  0
  185.0550  178.7870  145.6250 C   0  0  0  0  0  3  0  0  0  0  0  0
  184.6160  178.4190  143.2720 C   0  0  0  0  0  3  0  0  0  0  0  0
  185.9480  178.0460  143.0810 C   0  0  0  0  0  3  0  0  0  0  0  0
  188.9470  178.1050  142.7360 N   0  0  0  0  0  2  0  0  0  0  0  0
  190.3280  176.5500  141.4570 C   0  0  0  0  0  3  0  0  0  0  0  0
  186.8540  178.4760  138.8860 C   0  0  0  0  0  3  0  0  0  0  0  0
  187.5460  178.8610  136.6020 O   0  0  0  0  0  1  0  0  0  0  0  0
  188.8990  177.0210  141.7620 C   0  0  2  0  0  3  0  0  0  0  0  0
  189.1160  177.9090  138.1850 C   0  0  0  0  0  0  0  0  0  0  0  0
  190.1000  177.8410  137.2040 O   0  0  0  0  0  1  0  0  0  0  0  0
  189.3770  177.4720  139.4870 C   0  0  0  0  0  0  0  0  0  0  0  0
  187.8400  178.4170  137.8860 C   0  0  0  0  0  0  0  0  0  0  0  0
  188.4140  177.5370  140.4610 C   0  0  0  0  0  0  0  0  0  0  0  0
  190.6420  176.9020  139.9960 C   0  0  0  0  0  3  0  0  0  0  0  0
  187.1380  178.0340  140.1860 C   0  0  0  0  0  3  0  0  0  0  0  0
  1  5  1  0  0  0  0
  2  3  2  0  0  0  0
  3  7  1  0  0  0  0
  4 16  1  6  0  0  0
  4 11  1  0  0  0  0
  4  1  1  0  0  0  0
  4  5  1  0  0  0  0
  5  8  1  1  0  0  0
  8  7  2  0  0  0  0
  9  6  1  6  0  0  0
  9  5  1  0  0  0  0
  9  2  1  0  0  0  0
 10 13  1  0  0  0  0
 11 12  1  0  0  0  0
 12 13  2  0  0  0  0
 14 10  2  0  0  0  0
 15 14  1  0  0  0  0
 15 11  2  0  0  0  0
 17 20  1  0  0  0  0
 18 27  1  0  0  0  0
 19 24  1  0  0  0  0
 20 16  1  1  0  0  0
 21 23  2  0  0  0  0
 22 21  1  0  0  0  0
 23 26  1  0  0  0  0
 23 25  1  0  0  0  0
 24 21  1  0  0  0  0
 24 18  2  0  0  0  0
 25 20  1  0  0  0  0
 26 17  2  0  0  0  0
 27 25  2  0  0  0  0
M  END
>  <MODEL>
9

>  <REMARK>
 VINA RESULT:      -7.5      2.347      6.704
  Name = 
  3 active torsions:
  status: ('A' for Active; 'I' for Inactive)
    1  A    between atoms: N_2  and  C_6
    2  A    between atoms: N_2  and  C_15
    3  A    between atoms: C_9  and  C_15
                            x       y       z     vdW  Elec       q    Type
                         _______ _______ _______ _____ _____    ______ ____

>  <TORSDO>
F 3

$$$$
