=
 OpenBabel10272401543D

 28 30  0  0  1  0  0  0  0  0999 V2000
  187.2720  178.5050  140.2860 C   0  0  0  0  0  0  0  0  0  0  0  0
  191.8050  177.2670  141.1090 O   0  0  0  0  0  0  0  0  0  0  0  0
  189.0150  177.5900  143.4770 C   0  0  0  0  0  0  0  0  0  0  0  0
  190.2680  175.4790  143.0840 C   0  0  0  0  0  1  0  0  0  0  0  0
  189.5440  177.7910  140.6320 C   0  0  0  0  0  0  0  0  0  0  0  0
  188.0790  178.0440  142.6250 C   0  0  0  0  0  3  0  0  0  0  0  0
  188.7600  178.2710  138.4560 C   0  0  0  0  0  3  0  0  0  0  0  0
  190.6230  177.3650  141.5340 C   0  0  0  0  0  0  0  0  0  0  0  0
  189.7580  177.8880  139.2930 N   0  0  0  0  0  0  0  0  0  0  0  0
  190.3110  176.9920  142.9580 C   0  0  1  0  0  3  0  0  0  0  0  0
  187.5320  178.5710  138.9520 N   0  0  0  0  0  0  0  0  0  0  0  0
  188.2880  178.0980  141.1650 C   0  0  0  0  0  0  0  0  0  0  0  0
  187.3950  177.5710  145.3870 C   0  0  0  0  0  3  0  0  0  0  0  0
  189.7620  177.6470  145.9030 C   0  0  0  0  0  0  0  0  0  0  0  0
  188.1240  177.6100  147.6900 C   0  0  0  0  0  0  0  0  0  0  0  0
  188.7290  177.6020  144.9390 C   0  0  0  0  0  0  0  0  0  0  0  0
  189.4530  177.6500  147.2670 C   0  0  0  0  0  3  0  0  0  0  0  0
  191.0670  177.7210  145.5400 F   0  0  0  0  0  0  0  0  0  0  0  0
  187.8330  177.6120  149.0130 F   0  0  0  0  0  0  0  0  0  0  0  0
  187.0940  177.5730  146.7510 C   0  0  0  0  0  3  0  0  0  0  0  0
  185.8900  178.8180  140.8010 C   0  0  1  0  0  3  0  0  0  0  0  0
  184.8030  178.8250  139.7260 C   0  0  0  0  0  2  0  0  0  0  0  0
  184.4720  180.1270  139.3450 O   0  0  0  0  0  1  0  0  0  0  0  0
  185.5030  178.0500  142.0700 C   0  0  0  0  0  2  0  0  0  0  0  0
  184.1780  178.4990  142.6750 C   0  0  0  0  0  2  0  0  0  0  0  0
  184.4290  179.3830  143.8810 C   0  0  0  0  0  2  0  0  0  0  0  0
  183.3920  179.0900  144.9440 C   0  0  0  0  0  2  0  0  0  0  0  0
  184.0270  178.9040  146.1710 O   0  0  0  0  0  1  0  0  0  0  0  0
  1 21  1  0  0  0  0
  1 12  1  0  0  0  0
  2  8  2  0  0  0  0
  3 16  1  0  0  0  0
  5 12  2  0  0  0  0
  5  8  1  0  0  0  0
  6  3  2  0  0  0  0
  7 11  1  0  0  0  0
  7  9  2  0  0  0  0
  8 10  1  0  0  0  0
  9  5  1  0  0  0  0
 10  4  1  6  0  0  0
 10  3  1  0  0  0  0
 11  1  2  0  0  0  0
 12  6  1  0  0  0  0
 13 20  1  0  0  0  0
 14 17  2  0  0  0  0
 15 19  1  0  0  0  0
 16 13  2  0  0  0  0
 16 14  1  0  0  0  0
 17 15  1  0  0  0  0
 18 14  1  0  0  0  0
 20 15  2  0  0  0  0
 21 22  1  6  0  0  0
 21 24  1  0  0  0  0
 23 22  1  0  0  0  0
 24 25  1  0  0  0  0
 25 26  1  0  0  0  0
 26 27  1  0  0  0  0
 27 28  1  0  0  0  0
M  END
>  <MODEL>
1

>  <REMARK>
 VINA RESULT:      -9.5      0.000      0.000
  Name = 
  7 active torsions:
  status: ('A' for Active; 'I' for Inactive)
    1  A    between atoms: C_1  and  C_2
    2  A    between atoms: C_2  and  C_3
    3  A    between atoms: C_2  and  C_8
    4  A    between atoms: C_3  and  C_7
    5  A    between atoms: C_6  and  C_22
    6  A    between atoms: C_7  and  C_22
    7  A    between atoms: C_10  and  C_13
                            x       y       z     vdW  Elec       q    Type
                         _______ _______ _______ _____ _____    ______ ____

>  <TORSDO>
F 7

$$$$
=
 OpenBabel10272401543D

 28 30  0  0  1  0  0  0  0  0999 V2000
  187.2080  177.7470  146.0670 C   0  0  0  0  0  0  0  0  0  0  0  0
  191.9120  176.9970  146.3300 O   0  0  0  0  0  0  0  0  0  0  0  0
  189.8220  177.6600  143.3810 C   0  0  0  0  0  0  0  0  0  0  0  0
  191.7070  179.1100  144.1040 C   0  0  0  0  0  1  0  0  0  0  0  0
  189.5900  177.4610  146.2660 C   0  0  0  0  0  0  0  0  0  0  0  0
  188.6210  177.6810  143.9870 C   0  0  0  0  0  3  0  0  0  0  0  0
  188.2240  177.4880  148.1940 C   0  0  0  0  0  3  0  0  0  0  0  0
  190.9170  177.3530  145.6440 C   0  0  0  0  0  0  0  0  0  0  0  0
  189.4470  177.3790  147.6160 N   0  0  0  0  0  0  0  0  0  0  0  0
  191.1020  177.7200  144.1970 C   0  0  1  0  0  3  0  0  0  0  0  0
  187.1210  177.6750  147.4240 N   0  0  0  0  0  0  0  0  0  0  0  0
  188.4670  177.6490  145.4530 C   0  0  0  0  0  0  0  0  0  0  0  0
  188.7620  178.0820  141.1520 C   0  0  0  0  0  3  0  0  0  0  0  0
  191.0380  177.2510  141.1900 C   0  0  0  0  0  0  0  0  0  0  0  0
  189.9390  177.7020  139.0770 C   0  0  0  0  0  0  0  0  0  0  0  0
  189.8830  177.6620  141.8930 C   0  0  0  0  0  0  0  0  0  0  0  0
  191.0580  177.2750  139.7920 C   0  0  0  0  0  3  0  0  0  0  0  0
  192.1380  176.7960  141.8410 F   0  0  0  0  0  0  0  0  0  0  0  0
  189.9660  177.7230  137.7230 F   0  0  0  0  0  0  0  0  0  0  0  0
  188.7890  178.1030  139.7560 C   0  0  0  0  0  3  0  0  0  0  0  0
  185.9680  177.9810  145.2440 C   0  0  1  0  0  3  0  0  0  0  0  0
  185.2030  179.2550  145.6050 C   0  0  0  0  0  2  0  0  0  0  0  0
  183.9950  178.9600  146.2420 O   0  0  0  0  0  1  0  0  0  0  0  0
  186.1660  177.7830  143.7370 C   0  0  0  0  0  2  0  0  0  0  0  0
  184.9690  178.2190  142.9010 C   0  0  0  0  0  2  0  0  0  0  0  0
  185.4100  179.1980  141.8300 C   0  0  0  0  0  2  0  0  0  0  0  0
  184.8170  178.7890  140.4990 C   0  0  0  0  0  2  0  0  0  0  0  0
  184.7430  179.9020  139.6640 O   0  0  0  0  0  1  0  0  0  0  0  0
  1 11  1  0  0  0  0
  3  6  2  0  0  0  0
  3 10  1  0  0  0  0
  5  9  2  0  0  0  0
  6 12  1  0  0  0  0
  8  5  1  0  0  0  0
  8  2  2  0  0  0  0
  9  7  1  0  0  0  0
 10  4  1  1  0  0  0
 10  8  1  0  0  0  0
 11  7  2  0  0  0  0
 12  1  2  0  0  0  0
 12  5  1  0  0  0  0
 13 16  1  0  0  0  0
 14 18  1  0  0  0  0
 14 16  2  0  0  0  0
 15 20  1  0  0  0  0
 15 17  2  0  0  0  0
 16  3  1  0  0  0  0
 17 14  1  0  0  0  0
 19 15  1  0  0  0  0
 20 13  2  0  0  0  0
 21 24  1  6  0  0  0
 21 22  1  0  0  0  0
 21  1  1  0  0  0  0
 22 23  1  0  0  0  0
 25 24  1  0  0  0  0
 26 25  1  0  0  0  0
 27 26  1  0  0  0  0
 28 27  1  0  0  0  0
M  END
>  <MODEL>
2

>  <REMARK>
 VINA RESULT:      -9.4      3.183      5.852
  Name = 
  7 active torsions:
  status: ('A' for Active; 'I' for Inactive)
    1  A    between atoms: C_1  and  C_2
    2  A    between atoms: C_2  and  C_3
    3  A    between atoms: C_2  and  C_8
    4  A    between atoms: C_3  and  C_7
    5  A    between atoms: C_6  and  C_22
    6  A    between atoms: C_7  and  C_22
    7  A    between atoms: C_10  and  C_13
                            x       y       z     vdW  Elec       q    Type
                         _______ _______ _______ _____ _____    ______ ____

>  <TORSDO>
F 7

$$$$
=
 OpenBabel10272401543D

 28 30  0  0  1  0  0  0  0  0999 V2000
  187.1630  177.7330  146.3310 C   0  0  0  0  0  0  0  0  0  0  0  0
  191.8920  177.1250  146.1710 O   0  0  0  0  0  0  0  0  0  0  0  0
  189.5130  177.6050  143.4120 C   0  0  0  0  0  0  0  0  0  0  0  0
  191.4110  179.1360  143.8930 C   0  0  0  0  0  1  0  0  0  0  0  0
  189.5610  177.5220  146.3120 C   0  0  0  0  0  0  0  0  0  0  0  0
  188.3740  177.6180  144.1290 C   0  0  0  0  0  3  0  0  0  0  0  0
  188.3830  177.5930  148.3590 C   0  0  0  0  0  3  0  0  0  0  0  0
  190.8260  177.4240  145.5700 C   0  0  0  0  0  0  0  0  0  0  0  0
  189.5500  177.4930  147.6710 N   0  0  0  0  0  0  0  0  0  0  0  0
  190.8610  177.7350  144.0990 C   0  0  1  0  0  3  0  0  0  0  0  0
  187.2070  177.7160  147.6920 N   0  0  0  0  0  0  0  0  0  0  0  0
  188.3610  177.6440  145.6040 C   0  0  0  0  0  0  0  0  0  0  0  0
  190.2680  176.6610  141.2190 C   0  0  0  0  0  3  0  0  0  0  0  0
  188.5370  178.3570  141.1920 C   0  0  0  0  0  0  0  0  0  0  0  0
  189.3170  177.3770  139.1170 C   0  0  0  0  0  0  0  0  0  0  0  0
  189.4320  177.5460  141.9260 C   0  0  0  0  0  0  0  0  0  0  0  0
  188.4860  178.2670  139.7980 C   0  0  0  0  0  3  0  0  0  0  0  0
  187.7340  179.2610  141.8080 F   0  0  0  0  0  0  0  0  0  0  0  0
  189.2610  177.2950  137.7650 F   0  0  0  0  0  0  0  0  0  0  0  0
  190.2110  176.5750  139.8270 C   0  0  0  0  0  3  0  0  0  0  0  0
  185.8430  177.8980  145.6220 C   0  0  1  0  0  3  0  0  0  0  0  0
  184.6900  178.3270  146.5290 C   0  0  0  0  0  2  0  0  0  0  0  0
  183.7500  179.0890  145.8320 O   0  0  0  0  0  1  0  0  0  0  0  0
  185.9280  178.6870  144.3100 C   0  0  0  0  0  2  0  0  0  0  0  0
  185.2520  177.9920  143.1350 C   0  0  0  0  0  2  0  0  0  0  0  0
  184.4450  178.9930  142.3310 C   0  0  0  0  0  2  0  0  0  0  0  0
  184.4800  178.6090  140.8680 C   0  0  0  0  0  2  0  0  0  0  0  0
  185.0540  179.6440  140.1310 O   0  0  0  0  0  1  0  0  0  0  0  0
  1 11  1  0  0  0  0
  3 10  1  0  0  0  0
  3  6  2  0  0  0  0
  5  9  2  0  0  0  0
  6 12  1  0  0  0  0
  8  2  2  0  0  0  0
  8  5  1  0  0  0  0
  9  7  1  0  0  0  0
 10  4  1  1  0  0  0
 10  8  1  0  0  0  0
 11  7  2  0  0  0  0
 12  5  1  0  0  0  0
 12  1  2  0  0  0  0
 13 16  1  0  0  0  0
 14 18  1  0  0  0  0
 14 16  2  0  0  0  0
 15 17  2  0  0  0  0
 15 20  1  0  0  0  0
 16  3  1  0  0  0  0
 17 14  1  0  0  0  0
 19 15  1  0  0  0  0
 20 13  2  0  0  0  0
 21 24  1  6  0  0  0
 21  1  1  0  0  0  0
 21 22  1  0  0  0  0
 23 22  1  0  0  0  0
 25 24  1  0  0  0  0
 26 25  1  0  0  0  0
 27 26  1  0  0  0  0
 28 27  1  0  0  0  0
M  END
>  <MODEL>
3

>  <REMARK>
 VINA RESULT:      -9.3      3.274      5.932
  Name = 
  7 active torsions:
  status: ('A' for Active; 'I' for Inactive)
    1  A    between atoms: C_1  and  C_2
    2  A    between atoms: C_2  and  C_3
    3  A    between atoms: C_2  and  C_8
    4  A    between atoms: C_3  and  C_7
    5  A    between atoms: C_6  and  C_22
    6  A    between atoms: C_7  and  C_22
    7  A    between atoms: C_10  and  C_13
                            x       y       z     vdW  Elec       q    Type
                         _______ _______ _______ _____ _____    ______ ____

>  <TORSDO>
F 7

$$$$
=
 OpenBabel10272401543D

 28 30  0  0  1  0  0  0  0  0999 V2000
  184.9110  178.3910  142.6780 C   0  0  0  0  0  0  0  0  0  0  0  0
  184.0290  178.3440  147.3660 O   0  0  0  0  0  0  0  0  0  0  0  0
  187.2040  177.8280  145.5910 C   0  0  0  0  0  0  0  0  0  0  0  0
  186.8110  179.6510  147.2350 C   0  0  0  0  0  1  0  0  0  0  0  0
  184.4310  178.4760  145.0350 C   0  0  0  0  0  0  0  0  0  0  0  0
  186.7390  177.8800  144.3290 C   0  0  0  0  0  3  0  0  0  0  0  0
  182.7320  178.9110  143.4530 C   0  0  0  0  0  3  0  0  0  0  0  0
  184.8730  178.3520  146.4310 C   0  0  0  0  0  0  0  0  0  0  0  0
  183.1400  178.7860  144.7410 N   0  0  0  0  0  0  0  0  0  0  0  0
  186.3410  178.2880  146.7530 C   0  0  1  0  0  3  0  0  0  0  0  0
  183.6120  178.7190  142.4370 N   0  0  0  0  0  0  0  0  0  0  0  0
  185.3540  178.2700  144.0050 C   0  0  0  0  0  0  0  0  0  0  0  0
  189.5630  177.5340  144.8030 C   0  0  0  0  0  3  0  0  0  0  0  0
  189.0200  176.8290  147.0580 C   0  0  0  0  0  0  0  0  0  0  0  0
  191.2820  176.5970  146.2180 C   0  0  0  0  0  0  0  0  0  0  0  0
  188.6080  177.3910  145.8280 C   0  0  0  0  0  0  0  0  0  0  0  0
  190.3490  176.4380  147.2430 C   0  0  0  0  0  3  0  0  0  0  0  0
  188.1420  176.6240  148.0710 F   0  0  0  0  0  0  0  0  0  0  0  0
  192.5690  176.2160  146.4070 F   0  0  0  0  0  0  0  0  0  0  0  0
  190.8890  177.1420  144.9960 C   0  0  0  0  0  3  0  0  0  0  0  0
  185.8690  178.2120  141.5280 C   0  0  1  0  0  3  0  0  0  0  0  0
  185.2480  178.4370  140.1490 C   0  0  0  0  0  2  0  0  0  0  0  0
  184.9970  179.7920  139.9190 O   0  0  0  0  0  1  0  0  0  0  0  0
  187.2210  178.9070  141.7210 C   0  0  0  0  0  2  0  0  0  0  0  0
  188.2570  178.5310  140.6690 C   0  0  0  0  0  2  0  0  0  0  0  0
  189.2940  177.6010  141.2680 C   0  0  0  0  0  2  0  0  0  0  0  0
  190.3680  177.3160  140.2400 C   0  0  0  0  0  2  0  0  0  0  0  0
  191.6230  177.4590  140.8290 O   0  0  0  0  0  1  0  0  0  0  0  0
  1 12  1  0  0  0  0
  3 16  1  0  0  0  0
  3 10  1  0  0  0  0
  5  8  1  0  0  0  0
  6  3  2  0  0  0  0
  7  9  2  0  0  0  0
  8 10  1  0  0  0  0
  8  2  2  0  0  0  0
  9  5  1  0  0  0  0
 10  4  1  6  0  0  0
 11  1  2  0  0  0  0
 11  7  1  0  0  0  0
 12  6  1  0  0  0  0
 12  5  2  0  0  0  0
 13 20  2  0  0  0  0
 13 16  1  0  0  0  0
 14 17  1  0  0  0  0
 14 18  1  0  0  0  0
 15 19  1  0  0  0  0
 15 17  2  0  0  0  0
 16 14  2  0  0  0  0
 20 15  1  0  0  0  0
 21 22  1  6  0  0  0
 21 24  1  0  0  0  0
 21  1  1  0  0  0  0
 23 22  1  0  0  0  0
 25 26  1  0  0  0  0
 25 24  1  0  0  0  0
 27 28  1  0  0  0  0
 27 26  1  0  0  0  0
M  END
>  <MODEL>
4

>  <REMARK>
 VINA RESULT:      -8.1      2.114      5.341
  Name = 
  7 active torsions:
  status: ('A' for Active; 'I' for Inactive)
    1  A    between atoms: C_1  and  C_2
    2  A    between atoms: C_2  and  C_3
    3  A    between atoms: C_2  and  C_8
    4  A    between atoms: C_3  and  C_7
    5  A    between atoms: C_6  and  C_22
    6  A    between atoms: C_7  and  C_22
    7  A    between atoms: C_10  and  C_13
                            x       y       z     vdW  Elec       q    Type
                         _______ _______ _______ _____ _____    ______ ____

>  <TORSDO>
F 7

$$$$
=
 OpenBabel10272401543D

 28 30  0  0  1  0  0  0  0  0999 V2000
  186.7730  178.0540  145.4470 C   0  0  0  0  0  0  0  0  0  0  0  0
  191.3090  176.6980  146.0330 O   0  0  0  0  0  0  0  0  0  0  0  0
  189.5240  177.5780  142.9440 C   0  0  0  0  0  0  0  0  0  0  0  0
  191.5330  178.7810  143.7810 C   0  0  0  0  0  1  0  0  0  0  0  0
  189.0780  177.4610  145.8090 C   0  0  0  0  0  0  0  0  0  0  0  0
  188.2990  177.7670  143.4670 C   0  0  0  0  0  3  0  0  0  0  0  0
  187.6040  177.7010  147.6390 C   0  0  0  0  0  3  0  0  0  0  0  0
  190.4170  177.1690  145.2790 C   0  0  0  0  0  0  0  0  0  0  0  0
  188.8380  177.4220  147.1460 N   0  0  0  0  0  0  0  0  0  0  0  0
  190.7440  177.4840  143.8440 C   0  0  1  0  0  3  0  0  0  0  0  0
  186.5880  178.0170  146.7950 N   0  0  0  0  0  0  0  0  0  0  0  0
  188.0460  177.7800  144.9210 C   0  0  0  0  0  0  0  0  0  0  0  0
  190.6690  176.7250  140.8870 C   0  0  0  0  0  3  0  0  0  0  0  0
  188.8680  178.3230  140.6070 C   0  0  0  0  0  0  0  0  0  0  0  0
  190.0220  177.4320  138.6700 C   0  0  0  0  0  0  0  0  0  0  0  0
  189.6820  177.5470  141.4640 C   0  0  0  0  0  0  0  0  0  0  0  0
  189.0430  178.2600  139.2220 C   0  0  0  0  0  3  0  0  0  0  0  0
  187.9270  179.1670  141.0990 F   0  0  0  0  0  0  0  0  0  0  0  0
  190.1840  177.3770  137.3260 F   0  0  0  0  0  0  0  0  0  0  0  0
  190.8370  176.6670  139.5020 C   0  0  0  0  0  3  0  0  0  0  0  0
  185.6320  178.4350  144.5400 C   0  0  1  0  0  3  0  0  0  0  0  0
  185.5200  177.5820  143.2760 C   0  0  0  0  0  2  0  0  0  0  0  0
  185.1790  178.3580  142.1660 O   0  0  0  0  0  1  0  0  0  0  0  0
  184.2970  178.6500  145.2630 C   0  0  0  0  0  2  0  0  0  0  0  0
  183.3080  179.5010  144.4780 C   0  0  0  0  0  2  0  0  0  0  0  0
  182.0890  178.6770  144.1090 C   0  0  0  0  0  2  0  0  0  0  0  0
  181.4450  179.2590  142.8690 C   0  0  0  0  0  2  0  0  0  0  0  0
  181.8430  178.5250  141.7530 O   0  0  0  0  0  1  0  0  0  0  0  0
  1 11  1  0  0  0  0
  3  6  2  0  0  0  0
  3 10  1  0  0  0  0
  5  9  2  0  0  0  0
  6 12  1  0  0  0  0
  8  5  1  0  0  0  0
  8  2  2  0  0  0  0
  9  7  1  0  0  0  0
 10  4  1  1  0  0  0
 10  8  1  0  0  0  0
 11  7  2  0  0  0  0
 12  1  2  0  0  0  0
 12  5  1  0  0  0  0
 13 16  1  0  0  0  0
 14 18  1  0  0  0  0
 14 16  2  0  0  0  0
 15 17  2  0  0  0  0
 15 20  1  0  0  0  0
 16  3  1  0  0  0  0
 17 14  1  0  0  0  0
 19 15  1  0  0  0  0
 20 13  2  0  0  0  0
 21 22  1  6  0  0  0
 21 24  1  0  0  0  0
 21  1  1  0  0  0  0
 23 22  1  0  0  0  0
 25 24  1  0  0  0  0
 26 25  1  0  0  0  0
 27 26  1  0  0  0  0
 28 27  1  0  0  0  0
M  END
>  <MODEL>
5

>  <REMARK>
 VINA RESULT:      -8.0      3.399      5.657
  Name = 
  7 active torsions:
  status: ('A' for Active; 'I' for Inactive)
    1  A    between atoms: C_1  and  C_2
    2  A    between atoms: C_2  and  C_3
    3  A    between atoms: C_2  and  C_8
    4  A    between atoms: C_3  and  C_7
    5  A    between atoms: C_6  and  C_22
    6  A    between atoms: C_7  and  C_22
    7  A    between atoms: C_10  and  C_13
                            x       y       z     vdW  Elec       q    Type
                         _______ _______ _______ _____ _____    ______ ____

>  <TORSDO>
F 7

$$$$
=
 OpenBabel10272401543D

 28 30  0  0  1  0  0  0  0  0999 V2000
  187.0230  178.4130  140.2100 C   0  0  0  0  0  0  0  0  0  0  0  0
  191.5910  177.2880  141.0030 O   0  0  0  0  0  0  0  0  0  0  0  0
  188.8110  177.5550  143.3920 C   0  0  0  0  0  0  0  0  0  0  0  0
  190.1110  175.4730  142.9980 C   0  0  0  0  0  1  0  0  0  0  0  0
  189.3150  177.7560  140.5410 C   0  0  0  0  0  0  0  0  0  0  0  0
  187.8580  177.9830  142.5440 C   0  0  0  0  0  3  0  0  0  0  0  0
  188.5030  178.2070  138.3690 C   0  0  0  0  0  3  0  0  0  0  0  0
  190.4100  177.3600  141.4380 C   0  0  0  0  0  0  0  0  0  0  0  0
  189.5160  177.8520  139.2000 N   0  0  0  0  0  0  0  0  0  0  0  0
  190.1180  176.9860  142.8650 C   0  0  1  0  0  3  0  0  0  0  0  0
  187.2720  178.4790  138.8730 N   0  0  0  0  0  0  0  0  0  0  0  0
  188.0560  178.0350  141.0830 C   0  0  0  0  0  0  0  0  0  0  0  0
  189.6080  177.6640  145.7630 C   0  0  0  0  0  3  0  0  0  0  0  0
  187.2230  177.4820  145.3710 C   0  0  0  0  0  0  0  0  0  0  0  0
  188.0820  177.6090  147.6350 C   0  0  0  0  0  0  0  0  0  0  0  0
  188.5360  177.5670  144.8560 C   0  0  0  0  0  0  0  0  0  0  0  0
  187.0060  177.5050  146.7520 C   0  0  0  0  0  3  0  0  0  0  0  0
  186.1490  177.3450  144.5540 F   0  0  0  0  0  0  0  0  0  0  0  0
  187.8620  177.6310  148.9720 F   0  0  0  0  0  0  0  0  0  0  0  0
  189.3840  177.6860  147.1410 C   0  0  0  0  0  3  0  0  0  0  0  0
  185.6380  178.6950  140.7340 C   0  0  1  0  0  3  0  0  0  0  0  0
  185.6070  179.5380  142.0100 C   0  0  0  0  0  2  0  0  0  0  0  0
  184.4860  179.2410  142.7880 O   0  0  0  0  0  1  0  0  0  0  0  0
  184.6410  179.1520  139.6640 C   0  0  0  0  0  2  0  0  0  0  0  0
  183.7350  178.0370  139.1570 C   0  0  0  0  0  2  0  0  0  0  0  0
  183.0740  177.3320  140.3260 C   0  0  0  0  0  2  0  0  0  0  0  0
  181.5980  177.6630  140.3450 C   0  0  0  0  0  2  0  0  0  0  0  0
  181.3150  178.4570  141.4550 O   0  0  0  0  0  1  0  0  0  0  0  0
  1 21  1  0  0  0  0
  1 12  1  0  0  0  0
  2  8  2  0  0  0  0
  3 16  1  0  0  0  0
  5 12  2  0  0  0  0
  5  8  1  0  0  0  0
  6  3  2  0  0  0  0
  7 11  1  0  0  0  0
  7  9  2  0  0  0  0
  8 10  1  0  0  0  0
  9  5  1  0  0  0  0
 10  4  1  6  0  0  0
 10  3  1  0  0  0  0
 11  1  2  0  0  0  0
 12  6  1  0  0  0  0
 13 20  1  0  0  0  0
 14 17  2  0  0  0  0
 15 19  1  0  0  0  0
 16 14  1  0  0  0  0
 16 13  2  0  0  0  0
 17 15  1  0  0  0  0
 18 14  1  0  0  0  0
 20 15  2  0  0  0  0
 21 24  1  6  0  0  0
 21 22  1  0  0  0  0
 22 23  1  0  0  0  0
 25 24  1  0  0  0  0
 25 26  1  0  0  0  0
 26 27  1  0  0  0  0
 27 28  1  0  0  0  0
M  END
>  <MODEL>
6

>  <REMARK>
 VINA RESULT:      -7.9      1.633      2.421
  Name = 
  7 active torsions:
  status: ('A' for Active; 'I' for Inactive)
    1  A    between atoms: C_1  and  C_2
    2  A    between atoms: C_2  and  C_3
    3  A    between atoms: C_2  and  C_8
    4  A    between atoms: C_3  and  C_7
    5  A    between atoms: C_6  and  C_22
    6  A    between atoms: C_7  and  C_22
    7  A    between atoms: C_10  and  C_13
                            x       y       z     vdW  Elec       q    Type
                         _______ _______ _______ _____ _____    ______ ____

>  <TORSDO>
F 7

$$$$
=
 OpenBabel10272401543D

 28 30  0  0  1  0  0  0  0  0999 V2000
  189.8620  177.4620  140.8660 C   0  0  0  0  0  0  0  0  0  0  0  0
  189.7520  178.1850  145.5800 O   0  0  0  0  0  0  0  0  0  0  0  0
  186.9760  178.0880  143.1750 C   0  0  0  0  0  0  0  0  0  0  0  0
  187.1960  176.5400  145.1080 C   0  0  0  0  0  1  0  0  0  0  0  0
  189.8530  177.7240  143.2590 C   0  0  0  0  0  0  0  0  0  0  0  0
  187.6920  177.9410  142.0460 C   0  0  0  0  0  3  0  0  0  0  0  0
  191.8750  177.3130  142.1090 C   0  0  0  0  0  3  0  0  0  0  0  0
  189.1220  177.9610  144.5120 C   0  0  0  0  0  0  0  0  0  0  0  0
  191.2000  177.5420  143.2640 N   0  0  0  0  0  0  0  0  0  0  0  0
  187.6200  177.8820  144.5340 C   0  0  1  0  0  3  0  0  0  0  0  0
  191.2090  177.2700  140.9270 N   0  0  0  0  0  0  0  0  0  0  0  0
  189.1460  177.6880  142.0520 C   0  0  0  0  0  0  0  0  0  0  0  0
  184.8280  178.0620  141.8870 C   0  0  0  0  0  3  0  0  0  0  0  0
  184.7930  178.9570  144.1390 C   0  0  0  0  0  0  0  0  0  0  0  0
  182.7570  178.8780  142.8250 C   0  0  0  0  0  0  0  0  0  0  0  0
  185.5170  178.3750  143.0740 C   0  0  0  0  0  0  0  0  0  0  0  0
  183.4230  179.2030  144.0070 C   0  0  0  0  0  3  0  0  0  0  0  0
  185.4040  179.3210  145.2940 F   0  0  0  0  0  0  0  0  0  0  0  0
  181.4290  179.1190  142.7060 F   0  0  0  0  0  0  0  0  0  0  0  0
  183.4600  178.3100  141.7630 C   0  0  0  0  0  3  0  0  0  0  0  0
  189.1490  177.3820  139.5400 C   0  0  1  0  0  3  0  0  0  0  0  0
  188.8930  178.7370  138.8790 C   0  0  0  0  0  2  0  0  0  0  0  0
  187.6230  178.7880  138.2990 O   0  0  0  0  0  1  0  0  0  0  0  0
  189.7110  176.3220  138.5860 C   0  0  0  0  0  2  0  0  0  0  0  0
  190.3670  176.9070  137.3420 C   0  0  0  0  0  2  0  0  0  0  0  0
  191.5000  176.0110  136.8800 C   0  0  0  0  0  2  0  0  0  0  0  0
  192.5390  175.9080  137.9760 C   0  0  0  0  0  2  0  0  0  0  0  0
  193.4900  176.9130  137.8100 O   0  0  0  0  0  1  0  0  0  0  0  0
  1 11  2  0  0  0  0
  1 12  1  0  0  0  0
  3 10  1  0  0  0  0
  5  9  1  0  0  0  0
  5  8  1  0  0  0  0
  6 12  1  0  0  0  0
  6  3  2  0  0  0  0
  7  9  2  0  0  0  0
  8 10  1  0  0  0  0
  8  2  2  0  0  0  0
 10  4  1  6  0  0  0
 11  7  1  0  0  0  0
 12  5  2  0  0  0  0
 13 16  1  0  0  0  0
 14 18  1  0  0  0  0
 15 17  2  0  0  0  0
 16  3  1  0  0  0  0
 16 14  2  0  0  0  0
 17 14  1  0  0  0  0
 19 15  1  0  0  0  0
 20 13  2  0  0  0  0
 20 15  1  0  0  0  0
 21 24  1  6  0  0  0
 21  1  1  0  0  0  0
 22 21  1  0  0  0  0
 23 22  1  0  0  0  0
 25 24  1  0  0  0  0
 26 25  1  0  0  0  0
 26 27  1  0  0  0  0
 28 27  1  0  0  0  0
M  END
>  <MODEL>
7

>  <REMARK>
 VINA RESULT:      -7.8      2.940      6.066
  Name = 
  7 active torsions:
  status: ('A' for Active; 'I' for Inactive)
    1  A    between atoms: C_1  and  C_2
    2  A    between atoms: C_2  and  C_3
    3  A    between atoms: C_2  and  C_8
    4  A    between atoms: C_3  and  C_7
    5  A    between atoms: C_6  and  C_22
    6  A    between atoms: C_7  and  C_22
    7  A    between atoms: C_10  and  C_13
                            x       y       z     vdW  Elec       q    Type
                         _______ _______ _______ _____ _____    ______ ____

>  <TORSDO>
F 7

$$$$
=
 OpenBabel10272401543D

 28 30  0  0  1  0  0  0  0  0999 V2000
  189.3160  177.9440  139.6530 C   0  0  0  0  0  0  0  0  0  0  0  0
  190.1490  177.6180  144.3390 O   0  0  0  0  0  0  0  0  0  0  0  0
  186.9690  178.1270  142.5710 C   0  0  0  0  0  0  0  0  0  0  0  0
  187.4410  176.1870  144.0530 C   0  0  0  0  0  1  0  0  0  0  0  0
  189.7770  177.6750  142.0000 C   0  0  0  0  0  0  0  0  0  0  0  0
  187.4470  178.2110  141.3170 C   0  0  0  0  0  3  0  0  0  0  0  0
  191.5120  177.4710  140.4100 C   0  0  0  0  0  3  0  0  0  0  0  0
  189.3150  177.6510  143.3950 C   0  0  0  0  0  0  0  0  0  0  0  0
  191.0850  177.4590  141.6990 N   0  0  0  0  0  0  0  0  0  0  0  0
  187.8430  177.6100  143.7000 C   0  0  1  0  0  3  0  0  0  0  0  0
  190.6330  177.7070  139.4020 N   0  0  0  0  0  0  0  0  0  0  0  0
  188.8540  177.9230  140.9790 C   0  0  0  0  0  0  0  0  0  0  0  0
  184.5970  178.3260  141.7910 C   0  0  0  0  0  3  0  0  0  0  0  0
  185.0960  178.9360  144.0830 C   0  0  0  0  0  0  0  0  0  0  0  0
  182.8250  179.0830  143.2480 C   0  0  0  0  0  0  0  0  0  0  0  0
  185.5410  178.4680  142.8260 C   0  0  0  0  0  0  0  0  0  0  0  0
  183.7460  179.2390  144.2840 C   0  0  0  0  0  3  0  0  0  0  0  0
  185.9600  179.1360  145.1100 F   0  0  0  0  0  0  0  0  0  0  0  0
  181.5180  179.3780  143.4510 F   0  0  0  0  0  0  0  0  0  0  0  0
  183.2500  178.6290  141.9990 C   0  0  0  0  0  3  0  0  0  0  0  0
  188.3610  178.1760  138.5100 C   0  0  1  0  0  3  0  0  0  0  0  0
  188.9460  178.9900  137.3560 C   0  0  0  0  0  2  0  0  0  0  0  0
  189.3330  178.1660  136.2970 O   0  0  0  0  0  1  0  0  0  0  0  0
  187.5990  176.9230  138.0630 C   0  0  0  0  0  2  0  0  0  0  0  0
  186.2750  177.2280  137.3740 C   0  0  0  0  0  2  0  0  0  0  0  0
  185.4650  178.2020  138.2070 C   0  0  0  0  0  2  0  0  0  0  0  0
  183.9900  177.9370  137.9990 C   0  0  0  0  0  2  0  0  0  0  0  0
  183.6350  176.7570  138.6500 O   0  0  0  0  0  1  0  0  0  0  0  0
  1 12  1  0  0  0  0
  3 16  1  0  0  0  0
  3 10  1  0  0  0  0
  5  8  1  0  0  0  0
  6  3  2  0  0  0  0
  7  9  2  0  0  0  0
  8 10  1  0  0  0  0
  8  2  2  0  0  0  0
  9  5  1  0  0  0  0
 10  4  1  6  0  0  0
 11  1  2  0  0  0  0
 11  7  1  0  0  0  0
 12  6  1  0  0  0  0
 12  5  2  0  0  0  0
 13 20  2  0  0  0  0
 13 16  1  0  0  0  0
 14 17  1  0  0  0  0
 14 18  1  0  0  0  0
 15 19  1  0  0  0  0
 15 17  2  0  0  0  0
 16 14  2  0  0  0  0
 20 15  1  0  0  0  0
 21 22  1  6  0  0  0
 21  1  1  0  0  0  0
 23 22  1  0  0  0  0
 24 21  1  0  0  0  0
 25 24  1  0  0  0  0
 25 26  1  0  0  0  0
 27 26  1  0  0  0  0
 27 28  1  0  0  0  0
M  END
>  <MODEL>
8

>  <REMARK>
 VINA RESULT:      -7.7      2.686      4.823
  Name = 
  7 active torsions:
  status: ('A' for Active; 'I' for Inactive)
    1  A    between atoms: C_1  and  C_2
    2  A    between atoms: C_2  and  C_3
    3  A    between atoms: C_2  and  C_8
    4  A    between atoms: C_3  and  C_7
    5  A    between atoms: C_6  and  C_22
    6  A    between atoms: C_7  and  C_22
    7  A    between atoms: C_10  and  C_13
                            x       y       z     vdW  Elec       q    Type
                         _______ _______ _______ _____ _____    ______ ____

>  <TORSDO>
F 7

$$$$
=
 OpenBabel10272401543D

 28 30  0  0  1  0  0  0  0  0999 V2000
  186.4140  178.3010  140.2300 C   0  0  0  0  0  0  0  0  0  0  0  0
  182.3840  178.8100  142.7320 O   0  0  0  0  0  0  0  0  0  0  0  0
  185.8220  178.3260  143.9330 C   0  0  0  0  0  0  0  0  0  0  0  0
  184.4290  180.3140  144.4690 C   0  0  0  0  0  1  0  0  0  0  0  0
  184.3670  178.6610  141.4450 C   0  0  0  0  0  0  0  0  0  0  0  0
  186.4310  178.1700  142.7430 C   0  0  0  0  0  3  0  0  0  0  0  0
  184.3850  178.7360  139.0840 C   0  0  0  0  0  3  0  0  0  0  0  0
  183.6420  178.7620  142.7200 C   0  0  0  0  0  0  0  0  0  0  0  0
  183.7160  178.8200  140.2630 N   0  0  0  0  0  0  0  0  0  0  0  0
  184.4040  178.8650  144.0130 C   0  0  1  0  0  3  0  0  0  0  0  0
  185.7190  178.4840  139.0740 N   0  0  0  0  0  0  0  0  0  0  0  0
  185.7400  178.3970  141.4590 C   0  0  0  0  0  0  0  0  0  0  0  0
  187.9730  177.8080  145.1060 C   0  0  0  0  0  3  0  0  0  0  0  0
  185.9640  178.0010  146.4470 C   0  0  0  0  0  0  0  0  0  0  0  0
  188.0920  177.5170  147.5010 C   0  0  0  0  0  0  0  0  0  0  0  0
  186.5870  178.0440  145.1790 C   0  0  0  0  0  0  0  0  0  0  0  0
  186.7180  177.7400  147.5950 C   0  0  0  0  0  3  0  0  0  0  0  0
  184.6250  178.1770  146.5830 F   0  0  0  0  0  0  0  0  0  0  0  0
  188.8160  177.2660  148.6190 F   0  0  0  0  0  0  0  0  0  0  0  0
  188.7210  177.5490  146.2570 C   0  0  0  0  0  3  0  0  0  0  0  0
  187.8990  178.0500  140.1860 C   0  0  1  0  0  3  0  0  0  0  0  0
  188.5050  178.1040  138.7830 C   0  0  0  0  0  2  0  0  0  0  0  0
  189.0060  179.3750  138.4930 O   0  0  0  0  0  1  0  0  0  0  0  0
  188.7010  178.8240  141.2380 C   0  0  0  0  0  2  0  0  0  0  0  0
  189.8290  178.0140  141.8640 C   0  0  0  0  0  2  0  0  0  0  0  0
  189.4160  176.5610  141.9990 C   0  0  0  0  0  2  0  0  0  0  0  0
  190.3780  175.8470  142.9220 C   0  0  0  0  0  2  0  0  0  0  0  0
  191.0520  176.7850  143.7030 O   0  0  0  0  0  1  0  0  0  0  0  0
  1 12  1  0  0  0  0
  3 10  1  0  0  0  0
  3 16  1  0  0  0  0
  5 12  2  0  0  0  0
  5  8  1  0  0  0  0
  6  3  2  0  0  0  0
  7  9  2  0  0  0  0
  8  2  2  0  0  0  0
  8 10  1  0  0  0  0
  9  5  1  0  0  0  0
 10  4  1  6  0  0  0
 11  7  1  0  0  0  0
 11  1  2  0  0  0  0
 12  6  1  0  0  0  0
 13 16  2  0  0  0  0
 13 20  1  0  0  0  0
 14 18  1  0  0  0  0
 14 17  2  0  0  0  0
 15 17  1  0  0  0  0
 15 19  1  0  0  0  0
 16 14  1  0  0  0  0
 20 15  2  0  0  0  0
 21 22  1  6  0  0  0
 21  1  1  0  0  0  0
 21 24  1  0  0  0  0
 23 22  1  0  0  0  0
 24 25  1  0  0  0  0
 25 26  1  0  0  0  0
 26 27  1  0  0  0  0
 27 28  1  0  0  0  0
M  END
>  <MODEL>
9

>  <REMARK>
 VINA RESULT:      -7.7      1.873      4.914
  Name = 
  7 active torsions:
  status: ('A' for Active; 'I' for Inactive)
    1  A    between atoms: C_1  and  C_2
    2  A    between atoms: C_2  and  C_3
    3  A    between atoms: C_2  and  C_8
    4  A    between atoms: C_3  and  C_7
    5  A    between atoms: C_6  and  C_22
    6  A    between atoms: C_7  and  C_22
    7  A    between atoms: C_10  and  C_13
                            x       y       z     vdW  Elec       q    Type
                         _______ _______ _______ _____ _____    ______ ____

>  <TORSDO>
F 7

$$$$
