=
 OpenBabel10272401143D

 27 30  0  0  1  0  0  0  0  0999 V2000
  189.2240  178.7250  144.0260 C   0  0  1  0  0  3  0  0  0  0  0  0
  188.5840  178.6770  142.6490 C   0  0  1  0  0  3  0  0  0  0  0  0
  190.6880  177.4210  142.5490 N   0  0  2  0  0  0  0  0  0  0  0  0
  184.8270  177.9870  142.5440 C   0  0  0  0  0  2  0  0  0  0  0  0
  187.0570  177.6090  144.2580 C   0  0  2  0  0  3  0  0  0  0  0  0
  191.6050  176.0400  145.0160 C   0  0  0  0  0  0  0  0  0  0  0  0
  185.9570  178.5300  144.7840 C   0  0  0  0  0  2  0  0  0  0  0  0
  189.3000  175.6260  143.3240 O   0  0  0  0  0  1  0  0  0  0  0  0
  191.6560  175.3920  146.0950 O   0  0  0  0  0  0  0  0  0  0  0  0
  188.3570  177.9010  144.9720 C   0  0  0  0  0  2  0  0  0  0  0  0
  190.6280  178.1410  143.8330 C   0  0  2  0  0  3  0  0  0  0  0  0
  189.6630  178.0840  141.7290 C   0  0  1  0  0  3  0  0  0  0  0  0
  191.9190  175.1990  143.4700 S   0  0  0  0  0  0  0  0  0  0  0  0
  191.4450  178.1380  146.0800 O   0  0  0  0  0  0  0  0  0  0  0  0
  184.6380  178.3040  144.0340 C   0  0  0  0  0  2  0  0  0  0  0  0
  191.2620  177.4680  145.0300 C   0  0  0  0  0  0  0  0  0  0  0  0
  186.1670  178.4980  142.0230 C   0  0  0  0  0  2  0  0  0  0  0  0
  190.4830  175.9610  142.6610 C   0  0  2  0  0  3  0  0  0  0  0  0
  187.3280  177.8210  142.7620 C   0  0  1  0  0  3  0  0  0  0  0  0
  189.2120  177.3320  140.4580 C   0  0  2  0  0  3  0  0  0  0  0  0
  189.9530  175.6790  138.8940 O   0  0  0  0  0  1  0  0  0  0  0  0
  190.4050  176.6440  139.7940 C   0  0  0  0  0  2  0  0  0  0  0  0
  188.4890  178.2800  139.4870 C   0  0  2  0  0  3  0  0  0  0  0  0
  187.2790  177.6330  138.8130 C   0  0  0  0  0  2  0  0  0  0  0  0
  186.2210  178.5370  138.6970 O   0  0  0  0  0  1  0  0  0  0  0  0
  189.0180  178.6490  137.0730 C   0  0  0  0  0  1  0  0  0  0  0  0
  189.4240  178.9740  138.4970 C   0  0  0  0  0  2  0  0  0  0  0  0
  1 10  1  1  0  0  0
  2 19  1  0  0  0  0
  2  1  1  0  0  0  0
  3 18  1  0  0  0  0
  3 11  1  0  0  0  0
  4 15  1  0  0  0  0
  5  7  1  0  0  0  0
  5 10  1  0  0  0  0
  6 16  1  0  0  0  0
  6  9  2  0  0  0  0
 11  1  1  0  0  0  0
 11 16  1  0  0  0  0
 12  3  1  0  0  0  0
 12  2  1  0  0  0  0
 13  6  1  0  0  0  0
 15  7  1  0  0  0  0
 16 14  2  0  0  0  0
 17  4  1  0  0  0  0
 17 19  1  0  0  0  0
 18  8  1  0  0  0  0
 18 13  1  0  0  0  0
 19  5  1  0  0  0  0
 20 12  1  0  0  0  0
 21 22  1  0  0  0  0
 22 20  1  0  0  0  0
 23 20  1  0  0  0  0
 24 23  1  0  0  0  0
 25 24  1  0  0  0  0
 26 27  1  0  0  0  0
 27 23  1  0  0  0  0
M  END
>  <MODEL>
1

>  <REMARK>
 VINA RESULT:      -5.8      0.000      0.000
  Name = 
  5 active torsions:
  status: ('A' for Active; 'I' for Inactive)
    1  A    between atoms: C_4  and  C_17
    2  A    between atoms: C_14  and  C_16
    3  A    between atoms: C_14  and  C_17
    4  A    between atoms: C_14  and  C_19
    5  A    between atoms: C_17  and  C_21
                            x       y       z     vdW  Elec       q    Type
                         _______ _______ _______ _____ _____    ______ ____

>  <TORSDO>
F 5

$$$$
=
 OpenBabel10272401143D

 27 30  0  0  1  0  0  0  0  0999 V2000
  189.0070  178.2080  137.3260 C   0  0  1  0  0  3  0  0  0  0  0  0
  187.9710  178.4780  138.4040 C   0  0  1  0  0  3  0  0  0  0  0  0
  186.8160  177.5040  136.4720 N   0  0  2  0  0  0  0  0  0  0  0  0
  188.9290  177.4870  141.9680 C   0  0  0  0  0  2  0  0  0  0  0  0
  189.6140  176.8700  139.2840 C   0  0  2  0  0  3  0  0  0  0  0  0
  188.3230  175.5950  134.7650 C   0  0  0  0  0  0  0  0  0  0  0  0
  190.7200  177.5020  140.1290 C   0  0  0  0  0  2  0  0  0  0  0  0
  187.4530  175.4420  137.5160 O   0  0  0  0  0  1  0  0  0  0  0  0
  189.0860  174.6850  134.3460 O   0  0  0  0  0  0  0  0  0  0  0  0
  189.9050  177.0780  137.8160 C   0  0  0  0  0  2  0  0  0  0  0  0
  188.1960  177.8370  136.0790 C   0  0  2  0  0  3  0  0  0  0  0  0
  186.6140  178.2650  137.7140 C   0  0  1  0  0  3  0  0  0  0  0  0
  186.5870  175.2430  135.0100 S   0  0  0  0  0  0  0  0  0  0  0  0
  189.9390  177.2960  134.5350 O   0  0  0  0  0  0  0  0  0  0  0  0
  190.4210  177.3650  141.6270 C   0  0  0  0  0  2  0  0  0  0  0  0
  188.8630  176.9250  135.0730 C   0  0  0  0  0  0  0  0  0  0  0  0
  188.1640  178.2470  140.8900 C   0  0  0  0  0  2  0  0  0  0  0  0
  186.5610  176.0570  136.6340 C   0  0  2  0  0  3  0  0  0  0  0  0
  188.2430  177.5080  139.5480 C   0  0  1  0  0  3  0  0  0  0  0  0
  185.4060  177.8510  138.5820 C   0  0  2  0  0  3  0  0  0  0  0  0
  183.5680  176.3270  138.4180 O   0  0  0  0  0  1  0  0  0  0  0  0
  184.2890  177.2850  137.7060 C   0  0  0  0  0  2  0  0  0  0  0  0
  184.9160  179.0300  139.4390 C   0  0  2  0  0  3  0  0  0  0  0  0
  184.6450  178.6380  140.8920 C   0  0  0  0  0  2  0  0  0  0  0  0
  185.2100  179.5570  141.7770 O   0  0  0  0  0  1  0  0  0  0  0  0
  182.4760  179.5570  139.5640 C   0  0  0  0  0  1  0  0  0  0  0  0
  183.7640  179.8100  138.8060 C   0  0  0  0  0  2  0  0  0  0  0  0
  1 10  1  1  0  0  0
  1  2  1  0  0  0  0
  2 19  1  0  0  0  0
  3 18  1  0  0  0  0
  3 12  1  0  0  0  0
  5 19  1  0  0  0  0
  5  7  1  0  0  0  0
  6 13  1  0  0  0  0
  6 16  1  0  0  0  0
  7 15  1  0  0  0  0
  9  6  2  0  0  0  0
 10  5  1  0  0  0  0
 11  3  1  0  0  0  0
 11  1  1  0  0  0  0
 12  2  1  0  0  0  0
 12 20  1  0  0  0  0
 13 18  1  0  0  0  0
 14 16  2  0  0  0  0
 15  4  1  0  0  0  0
 16 11  1  0  0  0  0
 17  4  1  0  0  0  0
 18  8  1  0  0  0  0
 19 17  1  0  0  0  0
 20 23  1  0  0  0  0
 22 21  1  0  0  0  0
 22 20  1  0  0  0  0
 23 24  1  0  0  0  0
 24 25  1  0  0  0  0
 27 23  1  0  0  0  0
 27 26  1  0  0  0  0
M  END
>  <MODEL>
2

>  <REMARK>
 VINA RESULT:      -5.5      4.082      7.008
  Name = 
  5 active torsions:
  status: ('A' for Active; 'I' for Inactive)
    1  A    between atoms: C_4  and  C_17
    2  A    between atoms: C_14  and  C_16
    3  A    between atoms: C_14  and  C_17
    4  A    between atoms: C_14  and  C_19
    5  A    between atoms: C_17  and  C_21
                            x       y       z     vdW  Elec       q    Type
                         _______ _______ _______ _____ _____    ______ ____

>  <TORSDO>
F 5

$$$$
=
 OpenBabel10272401143D

 27 30  0  0  1  0  0  0  0  0999 V2000
  188.0620  176.5220  142.5770 C   0  0  1  0  0  3  0  0  0  0  0  0
  187.4280  176.9730  143.8820 C   0  0  1  0  0  3  0  0  0  0  0  0
  189.8630  177.0220  144.1680 N   0  0  2  0  0  0  0  0  0  0  0  0
  184.5260  179.4420  143.5960 C   0  0  0  0  0  2  0  0  0  0  0  0
  186.7710  178.5480  142.1080 C   0  0  2  0  0  3  0  0  0  0  0  0
  191.5360  177.5980  141.7800 C   0  0  0  0  0  0  0  0  0  0  0  0
  185.4020  178.2620  141.4910 C   0  0  0  0  0  2  0  0  0  0  0  0
  189.6240  179.2130  143.2240 O   0  0  0  0  0  1  0  0  0  0  0  0
  191.9880  178.0610  140.7000 O   0  0  0  0  0  0  0  0  0  0  0  0
  187.8010  177.6020  141.5340 C   0  0  0  0  0  2  0  0  0  0  0  0
  189.5500  176.3430  142.8990 C   0  0  2  0  0  3  0  0  0  0  0  0
  188.5840  177.0120  144.8930 C   0  0  1  0  0  3  0  0  0  0  0  0
  192.1080  178.2730  143.3340 S   0  0  0  0  0  0  0  0  0  0  0  0
  190.4300  175.7910  140.7460 O   0  0  0  0  0  0  0  0  0  0  0  0
  184.3190  179.1620  142.1010 C   0  0  0  0  0  2  0  0  0  0  0  0
  190.5270  176.5310  141.7590 C   0  0  0  0  0  0  0  0  0  0  0  0
  185.3850  178.3690  144.2580 C   0  0  0  0  0  2  0  0  0  0  0  0
  190.4260  178.3800  144.0090 C   0  0  2  0  0  3  0  0  0  0  0  0
  186.7820  178.3300  143.6270 C   0  0  1  0  0  3  0  0  0  0  0  0
  188.4730  177.9710  146.0990 C   0  0  2  0  0  3  0  0  0  0  0  0
  190.2320  176.6460  147.0350 O   0  0  0  0  0  1  0  0  0  0  0  0
  189.7660  177.9550  146.9140 C   0  0  0  0  0  2  0  0  0  0  0  0
  187.2490  177.6260  146.9640 C   0  0  2  0  0  3  0  0  0  0  0  0
  186.3070  178.8140  147.1630 C   0  0  0  0  0  2  0  0  0  0  0  0
  184.9870  178.3890  147.3310 O   0  0  0  0  0  1  0  0  0  0  0  0
  187.8480  177.9340  149.3710 C   0  0  0  0  0  1  0  0  0  0  0  0
  187.6030  176.9190  148.2720 C   0  0  0  0  0  2  0  0  0  0  0  0
  1 10  1  6  0  0  0
  1 11  1  0  0  0  0
  1  2  1  0  0  0  0
  2 12  1  0  0  0  0
  3 12  1  0  0  0  0
  4 17  1  0  0  0  0
  5 19  1  0  0  0  0
  6 13  1  0  0  0  0
  7 15  1  0  0  0  0
  7  5  1  0  0  0  0
  8 18  1  0  0  0  0
  9  6  2  0  0  0  0
 10  5  1  0  0  0  0
 11  3  1  0  0  0  0
 12 20  1  0  0  0  0
 13 18  1  0  0  0  0
 14 16  2  0  0  0  0
 15  4  1  0  0  0  0
 16  6  1  0  0  0  0
 16 11  1  0  0  0  0
 18  3  1  0  0  0  0
 19  2  1  0  0  0  0
 19 17  1  0  0  0  0
 20 22  1  0  0  0  0
 20 23  1  0  0  0  0
 22 21  1  0  0  0  0
 23 24  1  0  0  0  0
 23 27  1  0  0  0  0
 24 25  1  0  0  0  0
 27 26  1  0  0  0  0
M  END
>  <MODEL>
3

>  <REMARK>
 VINA RESULT:      -5.2      2.413      5.513
  Name = 
  5 active torsions:
  status: ('A' for Active; 'I' for Inactive)
    1  A    between atoms: C_4  and  C_17
    2  A    between atoms: C_14  and  C_16
    3  A    between atoms: C_14  and  C_17
    4  A    between atoms: C_14  and  C_19
    5  A    between atoms: C_17  and  C_21
                            x       y       z     vdW  Elec       q    Type
                         _______ _______ _______ _____ _____    ______ ____

>  <TORSDO>
F 5

$$$$
=
 OpenBabel10272401143D

 27 30  0  0  1  0  0  0  0  0999 V2000
  191.2230  176.6920  136.9900 C   0  0  1  0  0  3  0  0  0  0  0  0
  189.7880  177.0810  137.3040 C   0  0  1  0  0  3  0  0  0  0  0  0
  189.7380  175.3130  135.6040 N   0  0  2  0  0  0  0  0  0  0  0  0
  188.9190  177.5300  140.9980 C   0  0  0  0  0  2  0  0  0  0  0  0
  190.8340  176.2230  139.3610 C   0  0  2  0  0  3  0  0  0  0  0  0
  191.9270  173.3030  135.6190 C   0  0  0  0  0  0  0  0  0  0  0  0
  191.3770  177.3100  140.2880 C   0  0  0  0  0  2  0  0  0  0  0  0
  189.8360  173.8830  137.5270 O   0  0  0  0  0  1  0  0  0  0  0  0
  192.8180  172.4840  135.9660 O   0  0  0  0  0  0  0  0  0  0  0  0
  191.7970  175.9950  138.2180 C   0  0  0  0  0  2  0  0  0  0  0  0
  191.1270  175.7750  135.7650 C   0  0  2  0  0  3  0  0  0  0  0  0
  188.9420  176.3800  136.2300 C   0  0  1  0  0  3  0  0  0  0  0  0
  190.2990  172.7020  135.1910 S   0  0  0  0  0  0  0  0  0  0  0  0
  193.4120  175.1290  135.4870 O   0  0  0  0  0  0  0  0  0  0  0  0
  190.3920  177.6120  141.4240 C   0  0  0  0  0  2  0  0  0  0  0  0
  192.2190  174.7420  135.5940 C   0  0  0  0  0  0  0  0  0  0  0  0
  188.7560  177.7210  139.4930 C   0  0  0  0  0  2  0  0  0  0  0  0
  189.4700  173.9790  136.1820 C   0  0  2  0  0  3  0  0  0  0  0  0
  189.4940  176.6160  138.7250 C   0  0  1  0  0  3  0  0  0  0  0  0
  187.4740  176.0330  136.5620 C   0  0  2  0  0  3  0  0  0  0  0  0
  185.9990  175.3640  134.8010 O   0  0  0  0  0  1  0  0  0  0  0  0
  186.9800  174.8930  135.6710 C   0  0  0  0  0  2  0  0  0  0  0  0
  186.5760  177.2760  136.4450 C   0  0  2  0  0  3  0  0  0  0  0  0
  187.3130  178.4930  135.8860 C   0  0  0  0  0  2  0  0  0  0  0  0
  187.3470  179.5350  136.8150 O   0  0  0  0  0  1  0  0  0  0  0  0
  184.3090  177.3680  137.4930 C   0  0  0  0  0  1  0  0  0  0  0  0
  185.7920  177.5870  137.7200 C   0  0  0  0  0  2  0  0  0  0  0  0
  1  2  1  0  0  0  0
  1 10  1  1  0  0  0
  2 19  1  0  0  0  0
  3 11  1  0  0  0  0
  3 18  1  0  0  0  0
  3 12  1  0  0  0  0
  4 15  1  0  0  0  0
  5  7  1  0  0  0  0
  6  9  2  0  0  0  0
  7 15  1  0  0  0  0
 10  5  1  0  0  0  0
 11  1  1  0  0  0  0
 12 20  1  0  0  0  0
 12  2  1  0  0  0  0
 13  6  1  0  0  0  0
 13 18  1  0  0  0  0
 14 16  2  0  0  0  0
 16  6  1  0  0  0  0
 16 11  1  0  0  0  0
 17  4  1  0  0  0  0
 18  8  1  0  0  0  0
 19  5  1  0  0  0  0
 19 17  1  0  0  0  0
 21 22  1  0  0  0  0
 22 20  1  0  0  0  0
 23 20  1  0  0  0  0
 23 27  1  0  0  0  0
 24 23  1  0  0  0  0
 24 25  1  0  0  0  0
 26 27  1  0  0  0  0
M  END
>  <MODEL>
4

>  <REMARK>
 VINA RESULT:      -5.0      4.449      6.781
  Name = 
  5 active torsions:
  status: ('A' for Active; 'I' for Inactive)
    1  A    between atoms: C_4  and  C_17
    2  A    between atoms: C_14  and  C_16
    3  A    between atoms: C_14  and  C_17
    4  A    between atoms: C_14  and  C_19
    5  A    between atoms: C_17  and  C_21
                            x       y       z     vdW  Elec       q    Type
                         _______ _______ _______ _____ _____    ______ ____

>  <TORSDO>
F 5

$$$$
=
 OpenBabel10272401143D

 27 30  0  0  1  0  0  0  0  0999 V2000
  189.3940  174.6870  136.6700 C   0  0  1  0  0  3  0  0  0  0  0  0
  189.0020  175.7500  137.6820 C   0  0  1  0  0  3  0  0  0  0  0  0
  191.2620  174.9750  138.2360 N   0  0  2  0  0  0  0  0  0  0  0  0
  187.3060  178.8790  136.2910 C   0  0  0  0  0  2  0  0  0  0  0  0
  189.0010  176.7670  135.4410 C   0  0  2  0  0  3  0  0  0  0  0  0
  193.0020  174.0510  136.0130 C   0  0  0  0  0  0  0  0  0  0  0  0
  187.6240  176.8280  134.7800 C   0  0  0  0  0  2  0  0  0  0  0  0
  191.8970  176.6460  136.6380 O   0  0  0  0  0  1  0  0  0  0  0  0
  193.5900  173.9220  134.9060 O   0  0  0  0  0  0  0  0  0  0  0  0
  189.5690  175.3720  135.3190 C   0  0  0  0  0  2  0  0  0  0  0  0
  190.6940  174.0820  137.2120 C   0  0  2  0  0  3  0  0  0  0  0  0
  190.0890  175.6880  138.7660 C   0  0  1  0  0  3  0  0  0  0  0  0
  193.8100  174.9380  137.3380 S   0  0  0  0  0  0  0  0  0  0  0  0
  191.2640  172.5570  135.4610 O   0  0  0  0  0  0  0  0  0  0  0  0
  186.9910  178.2150  134.9430 C   0  0  0  0  0  2  0  0  0  0  0  0
  191.6540  173.4990  136.1990 C   0  0  0  0  0  0  0  0  0  0  0  0
  187.6780  177.8490  137.3540 C   0  0  0  0  0  2  0  0  0  0  0  0
  192.3130  175.8860  137.7350 C   0  0  2  0  0  3  0  0  0  0  0  0
  188.9400  177.0810  136.9420 C   0  0  1  0  0  3  0  0  0  0  0  0
  190.3780  176.9610  139.5920 C   0  0  2  0  0  3  0  0  0  0  0  0
  192.4030  178.0650  140.2290 O   0  0  0  0  0  1  0  0  0  0  0  0
  191.7290  176.8460  140.2960 C   0  0  0  0  0  2  0  0  0  0  0  0
  189.2390  177.2400  140.5870 C   0  0  2  0  0  3  0  0  0  0  0  0
  188.6850  178.6610  140.4760 C   0  0  0  0  0  2  0  0  0  0  0  0
  187.2890  178.6590  140.4590 O   0  0  0  0  0  1  0  0  0  0  0  0
  188.2970  176.5480  142.7960 C   0  0  0  0  0  1  0  0  0  0  0  0
  189.5690  176.8380  142.0240 C   0  0  0  0  0  2  0  0  0  0  0  0
  1 10  1  6  0  0  0
  1 11  1  0  0  0  0
  1  2  1  0  0  0  0
  2 12  1  0  0  0  0
  3 12  1  0  0  0  0
  4 17  1  0  0  0  0
  5 19  1  0  0  0  0
  6 16  1  0  0  0  0
  6 13  1  0  0  0  0
  7 15  1  0  0  0  0
  7  5  1  0  0  0  0
  8 18  1  0  0  0  0
  9  6  2  0  0  0  0
 10  5  1  0  0  0  0
 11  3  1  0  0  0  0
 12 20  1  0  0  0  0
 13 18  1  0  0  0  0
 14 16  2  0  0  0  0
 15  4  1  0  0  0  0
 16 11  1  0  0  0  0
 18  3  1  0  0  0  0
 19 17  1  0  0  0  0
 19  2  1  0  0  0  0
 20 22  1  0  0  0  0
 20 23  1  0  0  0  0
 21 22  1  0  0  0  0
 23 27  1  0  0  0  0
 24 23  1  0  0  0  0
 25 24  1  0  0  0  0
 27 26  1  0  0  0  0
M  END
>  <MODEL>
5

>  <REMARK>
 VINA RESULT:      -4.4      3.363      7.074
  Name = 
  5 active torsions:
  status: ('A' for Active; 'I' for Inactive)
    1  A    between atoms: C_4  and  C_17
    2  A    between atoms: C_14  and  C_16
    3  A    between atoms: C_14  and  C_17
    4  A    between atoms: C_14  and  C_19
    5  A    between atoms: C_17  and  C_21
                            x       y       z     vdW  Elec       q    Type
                         _______ _______ _______ _____ _____    ______ ____

>  <TORSDO>
F 5

$$$$
=
 OpenBabel10272401143D

 27 30  0  0  1  0  0  0  0  0999 V2000
  190.8870  178.2730  143.5850 C   0  0  1  0  0  3  0  0  0  0  0  0
  189.6450  178.2580  144.4600 C   0  0  1  0  0  3  0  0  0  0  0  0
  188.9230  178.1010  142.1210 N   0  0  2  0  0  0  0  0  0  0  0  0
  189.7840  176.0440  147.5700 C   0  0  0  0  0  2  0  0  0  0  0  0
  191.0280  176.3050  145.0330 C   0  0  2  0  0  3  0  0  0  0  0  0
  190.7330  176.7480  140.1920 C   0  0  0  0  0  0  0  0  0  0  0  0
  191.9340  176.5120  146.2470 C   0  0  0  0  0  2  0  0  0  0  0  0
  189.2820  175.7590  142.4860 O   0  0  0  0  0  1  0  0  0  0  0  0
  191.5540  175.9650  139.6430 O   0  0  0  0  0  0  0  0  0  0  0  0
  191.6370  176.9670  143.8180 C   0  0  0  0  0  2  0  0  0  0  0  0
  190.3610  178.4180  142.1510 C   0  0  2  0  0  3  0  0  0  0  0  0
  188.4680  178.4150  143.4840 C   0  0  1  0  0  3  0  0  0  0  0  0
  188.9800  176.4940  139.9490 S   0  0  0  0  0  0  0  0  0  0  0  0
  192.3890  178.2710  140.8950 O   0  0  0  0  0  0  0  0  0  0  0  0
  191.3130  175.9070  147.5120 C   0  0  0  0  0  2  0  0  0  0  0  0
  191.2160  177.8410  141.0450 C   0  0  0  0  0  0  0  0  0  0  0  0
  189.2860  177.1890  146.6950 C   0  0  0  0  0  2  0  0  0  0  0  0
  188.6140  176.7130  141.7140 C   0  0  2  0  0  3  0  0  0  0  0  0
  189.6440  176.9400  145.2240 C   0  0  1  0  0  3  0  0  0  0  0  0
  187.0920  177.8450  143.8940 C   0  0  2  0  0  3  0  0  0  0  0  0
  186.1680  179.0560  142.0490 O   0  0  0  0  0  1  0  0  0  0  0  0
  186.1460  177.8210  142.6950 C   0  0  0  0  0  2  0  0  0  0  0  0
  186.4990  178.6370  145.0720 C   0  0  2  0  0  3  0  0  0  0  0  0
  186.2360  177.7680  146.3020 C   0  0  0  0  0  2  0  0  0  0  0  0
  186.3960  178.4990  147.4810 O   0  0  0  0  0  1  0  0  0  0  0  0
  184.0170  178.8910  145.2050 C   0  0  0  0  0  1  0  0  0  0  0  0
  185.3020  179.5050  144.6860 C   0  0  0  0  0  2  0  0  0  0  0  0
  1 10  1  6  0  0  0
  1  2  1  0  0  0  0
  2 19  1  0  0  0  0
  3 11  1  0  0  0  0
  3 12  1  0  0  0  0
  5 19  1  0  0  0  0
  5  7  1  0  0  0  0
  6 16  1  0  0  0  0
  7 15  1  0  0  0  0
  9  6  2  0  0  0  0
 10  5  1  0  0  0  0
 11  1  1  0  0  0  0
 12 20  1  0  0  0  0
 12  2  1  0  0  0  0
 13  6  1  0  0  0  0
 13 18  1  0  0  0  0
 14 16  2  0  0  0  0
 15  4  1  0  0  0  0
 16 11  1  0  0  0  0
 17  4  1  0  0  0  0
 18  3  1  0  0  0  0
 18  8  1  0  0  0  0
 19 17  1  0  0  0  0
 20 23  1  0  0  0  0
 21 22  1  0  0  0  0
 22 20  1  0  0  0  0
 23 24  1  0  0  0  0
 24 25  1  0  0  0  0
 27 23  1  0  0  0  0
 27 26  1  0  0  0  0
M  END
>  <MODEL>
6

>  <REMARK>
 VINA RESULT:      -4.4      2.336      5.405
  Name = 
  5 active torsions:
  status: ('A' for Active; 'I' for Inactive)
    1  A    between atoms: C_4  and  C_17
    2  A    between atoms: C_14  and  C_16
    3  A    between atoms: C_14  and  C_17
    4  A    between atoms: C_14  and  C_19
    5  A    between atoms: C_17  and  C_21
                            x       y       z     vdW  Elec       q    Type
                         _______ _______ _______ _____ _____    ______ ____

>  <TORSDO>
F 5

$$$$
=
 OpenBabel10272401143D

 27 30  0  0  1  0  0  0  0  0999 V2000
  184.1110  174.7950  135.2800 C   0  0  1  0  0  3  0  0  0  0  0  0
  185.3900  175.4090  135.8210 C   0  0  1  0  0  3  0  0  0  0  0  0
  183.4980  176.6480  136.7700 N   0  0  2  0  0  0  0  0  0  0  0  0
  188.0880  172.9660  136.9840 C   0  0  0  0  0  2  0  0  0  0  0  0
  185.2860  173.0580  136.5410 C   0  0  2  0  0  3  0  0  0  0  0  0
  180.9540  175.1790  137.2160 C   0  0  0  0  0  0  0  0  0  0  0  0
  186.0730  172.0950  135.6530 C   0  0  0  0  0  2  0  0  0  0  0  0
  183.5710  174.9010  138.4100 O   0  0  0  0  0  1  0  0  0  0  0  0
  180.0930  174.3040  137.4980 O   0  0  0  0  0  0  0  0  0  0  0  0
  183.9690  173.4040  135.8850 C   0  0  0  0  0  2  0  0  0  0  0  0
  182.9960  175.7560  135.7110 C   0  0  2  0  0  3  0  0  0  0  0  0
  184.9460  176.7040  136.5210 C   0  0  1  0  0  3  0  0  0  0  0  0
  181.3840  176.4130  138.4360 S   0  0  0  0  0  0  0  0  0  0  0  0
  181.0550  174.5960  134.9350 O   0  0  0  0  0  0  0  0  0  0  0  0
  187.4440  171.7750  136.2600 C   0  0  0  0  0  2  0  0  0  0  0  0
  181.6180  175.1640  135.9070 C   0  0  0  0  0  0  0  0  0  0  0  0
  187.5320  174.2960  136.4860 C   0  0  0  0  0  2  0  0  0  0  0  0
  183.1650  176.2110  138.1420 C   0  0  2  0  0  3  0  0  0  0  0  0
  186.0240  174.3860  136.7560 C   0  0  1  0  0  3  0  0  0  0  0  0
  185.8180  177.2540  137.6710 C   0  0  2  0  0  3  0  0  0  0  0  0
  185.5020  178.6840  139.5630 O   0  0  0  0  0  1  0  0  0  0  0  0
  185.2390  178.5660  138.1990 C   0  0  0  0  0  2  0  0  0  0  0  0
  187.2800  177.4150  137.2230 C   0  0  2  0  0  3  0  0  0  0  0  0
  188.2370  177.6650  138.3890 C   0  0  0  0  0  2  0  0  0  0  0  0
  188.7380  178.9680  138.3610 O   0  0  0  0  0  1  0  0  0  0  0  0
  188.1340  177.7350  134.8960 C   0  0  0  0  0  1  0  0  0  0  0  0
  187.4640  178.4090  136.0770 C   0  0  0  0  0  2  0  0  0  0  0  0
  1 11  1  0  0  0  0
  1  2  1  0  0  0  0
  1 10  1  1  0  0  0
  2 12  1  0  0  0  0
  2 19  1  0  0  0  0
  3 18  1  0  0  0  0
  5 19  1  0  0  0  0
  6  9  2  0  0  0  0
  6 13  1  0  0  0  0
  7 15  1  0  0  0  0
  7  5  1  0  0  0  0
 10  5  1  0  0  0  0
 11 16  1  0  0  0  0
 11  3  1  0  0  0  0
 12  3  1  0  0  0  0
 12 20  1  0  0  0  0
 14 16  2  0  0  0  0
 15  4  1  0  0  0  0
 16  6  1  0  0  0  0
 17 19  1  0  0  0  0
 17  4  1  0  0  0  0
 18  8  1  0  0  0  0
 18 13  1  0  0  0  0
 20 22  1  0  0  0  0
 22 21  1  0  0  0  0
 23 20  1  0  0  0  0
 23 24  1  0  0  0  0
 25 24  1  0  0  0  0
 26 27  1  0  0  0  0
 27 23  1  0  0  0  0
M  END
>  <MODEL>
7

>  <REMARK>
 VINA RESULT:      -4.3      5.762      9.134
  Name = 
  5 active torsions:
  status: ('A' for Active; 'I' for Inactive)
    1  A    between atoms: C_4  and  C_17
    2  A    between atoms: C_14  and  C_16
    3  A    between atoms: C_14  and  C_17
    4  A    between atoms: C_14  and  C_19
    5  A    between atoms: C_17  and  C_21
                            x       y       z     vdW  Elec       q    Type
                         _______ _______ _______ _____ _____    ______ ____

>  <TORSDO>
F 5

$$$$
=
 OpenBabel10272401143D

 27 30  0  0  1  0  0  0  0  0999 V2000
  187.8570  176.4170  142.8190 C   0  0  1  0  0  3  0  0  0  0  0  0
  188.1270  176.6770  144.2910 C   0  0  1  0  0  3  0  0  0  0  0  0
  190.2790  176.6820  143.1160 N   0  0  2  0  0  0  0  0  0  0  0  0
  185.8060  179.1630  146.0310 C   0  0  0  0  0  2  0  0  0  0  0  0
  186.7050  178.4900  143.4250 C   0  0  2  0  0  3  0  0  0  0  0  0
  190.3200  177.5930  140.2870 C   0  0  0  0  0  0  0  0  0  0  0  0
  185.2120  178.2960  143.6890 C   0  0  0  0  0  2  0  0  0  0  0  0
  189.7260  178.9870  142.7480 O   0  0  0  0  0  1  0  0  0  0  0  0
  190.1070  178.2060  139.2080 O   0  0  0  0  0  0  0  0  0  0  0  0
  187.1360  177.6350  142.2550 C   0  0  0  0  0  2  0  0  0  0  0  0
  189.2390  176.1920  142.1950 C   0  0  2  0  0  3  0  0  0  0  0  0
  189.6530  176.5700  144.4410 C   0  0  1  0  0  3  0  0  0  0  0  0
  191.7340  178.0380  141.2860 S   0  0  0  0  0  0  0  0  0  0  0  0
  188.6740  175.9540  139.8840 O   0  0  0  0  0  0  0  0  0  0  0  0
  184.7560  179.1000  144.9130 C   0  0  0  0  0  2  0  0  0  0  0  0
  189.3970  176.5410  140.7320 C   0  0  0  0  0  0  0  0  0  0  0  0
  186.7950  178.0060  145.9430 C   0  0  0  0  0  2  0  0  0  0  0  0
  190.7600  178.0490  142.8190 C   0  0  2  0  0  3  0  0  0  0  0  0
  187.5680  178.0560  144.6180 C   0  0  1  0  0  3  0  0  0  0  0  0
  190.3340  177.3460  145.5890 C   0  0  2  0  0  3  0  0  0  0  0  0
  191.9030  179.0810  145.0810 O   0  0  0  0  0  1  0  0  0  0  0  0
  191.7730  177.6990  145.2140 C   0  0  0  0  0  2  0  0  0  0  0  0
  190.2670  176.5530  146.9050 C   0  0  2  0  0  3  0  0  0  0  0  0
  189.0800  176.9540  147.7820 C   0  0  0  0  0  2  0  0  0  0  0  0
  189.3100  178.1780  148.4140 O   0  0  0  0  0  1  0  0  0  0  0  0
  192.2800  175.1840  147.4710 C   0  0  0  0  0  1  0  0  0  0  0  0
  191.5900  176.5200  147.6690 C   0  0  0  0  0  2  0  0  0  0  0  0
  1 10  1  6  0  0  0
  1  2  1  0  0  0  0
  2 12  1  0  0  0  0
  2 19  1  0  0  0  0
  3 12  1  0  0  0  0
  5  7  1  0  0  0  0
  5 19  1  0  0  0  0
  6 16  1  0  0  0  0
  6 13  1  0  0  0  0
  7 15  1  0  0  0  0
  8 18  1  0  0  0  0
  9  6  2  0  0  0  0
 10  5  1  0  0  0  0
 11  1  1  0  0  0  0
 11  3  1  0  0  0  0
 12 20  1  0  0  0  0
 13 18  1  0  0  0  0
 14 16  2  0  0  0  0
 15  4  1  0  0  0  0
 16 11  1  0  0  0  0
 17  4  1  0  0  0  0
 18  3  1  0  0  0  0
 19 17  1  0  0  0  0
 20 23  1  0  0  0  0
 21 22  1  0  0  0  0
 22 20  1  0  0  0  0
 23 27  1  0  0  0  0
 23 24  1  0  0  0  0
 24 25  1  0  0  0  0
 26 27  1  0  0  0  0
M  END
>  <MODEL>
8

>  <REMARK>
 VINA RESULT:      -4.3      2.078      5.637
  Name = 
  5 active torsions:
  status: ('A' for Active; 'I' for Inactive)
    1  A    between atoms: C_4  and  C_17
    2  A    between atoms: C_14  and  C_16
    3  A    between atoms: C_14  and  C_17
    4  A    between atoms: C_14  and  C_19
    5  A    between atoms: C_17  and  C_21
                            x       y       z     vdW  Elec       q    Type
                         _______ _______ _______ _____ _____    ______ ____

>  <TORSDO>
F 5

$$$$
=
 OpenBabel10272401143D

 27 30  0  0  1  0  0  0  0  0999 V2000
  185.8460  172.7660  137.2730 C   0  0  1  0  0  3  0  0  0  0  0  0
  184.4000  173.1810  137.4880 C   0  0  1  0  0  3  0  0  0  0  0  0
  185.7070  175.2060  137.0310 N   0  0  2  0  0  0  0  0  0  0  0  0
  181.7440  171.0380  135.7710 C   0  0  0  0  0  2  0  0  0  0  0  0
  184.5000  171.6740  135.5440 C   0  0  2  0  0  3  0  0  0  0  0  0
  188.0840  174.9600  135.2640 C   0  0  0  0  0  0  0  0  0  0  0  0
  184.1740  170.2160  135.8650 C   0  0  0  0  0  2  0  0  0  0  0  0
  185.2620  174.6110  134.7510 O   0  0  0  0  0  1  0  0  0  0  0  0
  188.8840  174.6380  134.3460 O   0  0  0  0  0  0  0  0  0  0  0  0
  185.9180  171.9890  135.9640 C   0  0  0  0  0  2  0  0  0  0  0  0
  186.6350  174.0800  137.2380 C   0  0  2  0  0  3  0  0  0  0  0  0
  184.4360  174.7150  137.5830 C   0  0  1  0  0  3  0  0  0  0  0  0
  187.1320  176.4660  135.1110 S   0  0  0  0  0  0  0  0  0  0  0  0
  188.8360  173.2880  136.7450 O   0  0  0  0  0  0  0  0  0  0  0  0
  182.7200  169.8810  135.5100 C   0  0  0  0  0  2  0  0  0  0  0  0
  187.9170  174.0890  136.4340 C   0  0  0  0  0  0  0  0  0  0  0  0
  182.2920  172.0170  136.8040 C   0  0  0  0  0  2  0  0  0  0  0  0
  185.5930  175.6500  135.6250 C   0  0  2  0  0  3  0  0  0  0  0  0
  183.5960  172.6530  136.3060 C   0  0  1  0  0  3  0  0  0  0  0  0
  183.1680  175.5050  137.1910 C   0  0  2  0  0  3  0  0  0  0  0  0
  182.8100  177.5920  136.0760 O   0  0  0  0  0  1  0  0  0  0  0  0
  183.4630  177.0050  137.1590 C   0  0  0  0  0  2  0  0  0  0  0  0
  182.0000  175.1750  138.1350 C   0  0  2  0  0  3  0  0  0  0  0  0
  180.6330  175.3420  137.4720 C   0  0  0  0  0  2  0  0  0  0  0  0
  180.6870  175.0210  136.1140 O   0  0  0  0  0  1  0  0  0  0  0  0
  180.7690  176.5120  139.8500 C   0  0  0  0  0  1  0  0  0  0  0  0
  182.0950  175.8690  139.4930 C   0  0  0  0  0  2  0  0  0  0  0  0
  1 10  1  6  0  0  0
  1  2  1  0  0  0  0
  2 12  1  0  0  0  0
  3 11  1  0  0  0  0
  3 12  1  0  0  0  0
  4 17  1  0  0  0  0
  5  7  1  0  0  0  0
  5 10  1  0  0  0  0
  5 19  1  0  0  0  0
  6 16  1  0  0  0  0
  8 18  1  0  0  0  0
  9  6  2  0  0  0  0
 11  1  1  0  0  0  0
 13  6  1  0  0  0  0
 13 18  1  0  0  0  0
 15  4  1  0  0  0  0
 15  7  1  0  0  0  0
 16 14  2  0  0  0  0
 16 11  1  0  0  0  0
 18  3  1  0  0  0  0
 19 17  1  0  0  0  0
 19  2  1  0  0  0  0
 20 12  1  0  0  0  0
 20 23  1  0  0  0  0
 21 22  1  0  0  0  0
 22 20  1  0  0  0  0
 23 27  1  0  0  0  0
 24 23  1  0  0  0  0
 25 24  1  0  0  0  0
 27 26  1  0  0  0  0
M  END
>  <MODEL>
9

>  <REMARK>
 VINA RESULT:      -4.3      7.126      9.355
  Name = 
  5 active torsions:
  status: ('A' for Active; 'I' for Inactive)
    1  A    between atoms: C_4  and  C_17
    2  A    between atoms: C_14  and  C_16
    3  A    between atoms: C_14  and  C_17
    4  A    between atoms: C_14  and  C_19
    5  A    between atoms: C_17  and  C_21
                            x       y       z     vdW  Elec       q    Type
                         _______ _______ _______ _____ _____    ______ ____

>  <TORSDO>
F 5

$$$$
