=
 OpenBabel10272413343D

 32 37  0  0  1  0  0  0  0  0999 V2000
  188.4400  177.3830  145.2370 C   0  0  0  0  0  0  0  0  0  0  0  0
  191.3460  177.3750  141.1800 C   0  0  0  0  0  0  0  0  0  0  0  0
  188.2810  178.4420  137.4790 C   0  0  0  0  0  3  0  0  0  0  0  0
  189.1470  177.8810  136.5400 C   0  0  0  0  0  3  0  0  0  0  0  0
  190.5530  177.2250  143.4030 C   0  0  0  0  0  0  0  0  0  0  0  0
  189.0240  177.7060  141.6300 N   0  0  0  0  0  0  0  0  0  0  0  0
  188.1960  177.5930  143.8710 C   0  0  0  0  0  3  0  0  0  0  0  0
  188.5790  178.3590  138.8400 C   0  0  0  0  0  3  0  0  0  0  0  0
  190.0390  177.6330  140.7240 C   0  0  0  0  0  0  0  0  0  0  0  0
  189.7490  177.7220  139.2760 C   0  0  0  0  0  0  0  0  0  0  0  0
  191.8530  176.3920  138.8050 C   0  0  2  0  0  3  0  0  0  0  0  0
  189.7370  177.0900  145.6770 C   0  0  0  0  0  3  0  0  0  0  0  0
  189.2480  177.5180  142.9560 C   0  0  0  0  0  0  0  0  0  0  0  0
  190.7930  177.0130  144.7630 C   0  0  0  0  0  3  0  0  0  0  0  0
  190.3100  177.2340  136.9610 C   0  0  0  0  0  3  0  0  0  0  0  0
  190.6300  177.1510  138.3270 C   0  0  0  0  0  0  0  0  0  0  0  0
  191.5680  177.1640  142.5040 N   0  0  0  0  0  0  0  0  0  0  0  0
  192.7350  177.3900  140.0420 S   0  0  0  0  0  0  0  0  0  0  0  0
  187.8390  177.3580  147.5320 O   0  0  0  0  0  1  0  0  0  0  0  0
  187.3280  177.4490  146.2360 C   0  0  1  0  0  3  0  0  0  0  0  0
  186.5330  178.7360  146.0800 C   0  0  0  0  0  3  0  0  0  0  0  0
  185.1160  178.4070  145.6540 C   0  0  0  0  0  2  0  0  0  0  0  0
  185.4090  178.7600  147.0960 C   0  0  0  0  0  2  0  0  0  0  0  0
  192.8260  176.0140  137.6930 C   0  0  0  0  0  2  0  0  0  0  0  0
  193.1000  174.5770  137.7220 N   0  0  0  0  0  0  0  0  0  0  0  0
  192.2980  173.9180  136.7680 N   0  0  0  0  0  2  0  0  0  0  0  0
  190.9290  173.6430  136.9520 C   0  0  0  0  0  0  0  0  0  0  0  0
  189.8050  173.4180  137.1030 N   0  0  0  0  0  0  0  0  0  0  0  0
  194.5220  174.2760  137.4910 C   0  0  0  0  0  2  0  0  0  0  0  0
  195.2810  173.8730  138.7530 C   0  0  1  0  0  3  0  0  0  0  0  0
  196.6930  174.2930  138.6430 C   0  0  0  0  0  2  0  0  0  0  0  0
  195.7590  175.0340  139.3860 O   0  0  0  0  0  0  0  0  0  0  0  0
  1 12  1  0  0  0  0
  1 20  1  0  0  0  0
  2 17  1  0  0  0  0
  3  8  1  0  0  0  0
  4 15  1  0  0  0  0
  4  3  2  0  0  0  0
  5 14  1  0  0  0  0
  6 13  2  0  0  0  0
  7  1  2  0  0  0  0
  8 10  2  0  0  0  0
  9  2  2  0  0  0  0
  9  6  1  0  0  0  0
 10  9  1  0  0  0  0
 11 24  1  6  0  0  0
 11 18  1  0  0  0  0
 13  5  1  0  0  0  0
 13  7  1  0  0  0  0
 14 12  2  0  0  0  0
 15 16  2  0  0  0  0
 16 11  1  0  0  0  0
 16 10  1  0  0  0  0
 17  5  2  0  0  0  0
 18  2  1  0  0  0  0
 20 19  1  1  0  0  0
 21 20  1  0  0  0  0
 21 23  1  0  0  0  0
 22 21  1  0  0  0  0
 22 23  1  0  0  0  0
 24 25  1  0  0  0  0
 26 27  1  0  0  0  0
 26 25  1  0  0  0  0
 27 28  3  0  0  0  0
 29 25  1  0  0  0  0
 30 29  1  6  0  0  0
 30 32  1  0  0  0  0
 31 30  1  0  0  0  0
 31 32  1  0  0  0  0
M  END
>  <MODEL>
1

>  <REMARK>
 VINA RESULT:      -8.2      0.000      0.000
  Name = 
  8 active torsions:
  status: ('A' for Active; 'I' for Inactive)
    1  A    between atoms: C_1  and  C_24
    2  A    between atoms: C_2  and  C_24
    3  A    between atoms: C_6  and  N_7
    4  A    between atoms: N_7  and  N_32
    5  A    between atoms: C_11  and  C_22
    6  A    between atoms: C_16  and  C_27
    7  A    between atoms: C_22  and  N_32
    8  A    between atoms: C_27  and  N_32
                            x       y       z     vdW  Elec       q    Type
                         _______ _______ _______ _____ _____    ______ ____

>  <TORSDO>
F 8

$$$$
=
 OpenBabel10272413343D

 32 37  0  0  1  0  0  0  0  0999 V2000
  189.2030  177.6600  145.1260 C   0  0  0  0  0  0  0  0  0  0  0  0
  191.6120  177.3030  140.7700 C   0  0  0  0  0  0  0  0  0  0  0  0
  188.1800  178.3100  137.3890 C   0  0  0  0  0  3  0  0  0  0  0  0
  188.9060  177.6600  136.3920 C   0  0  0  0  0  3  0  0  0  0  0  0
  191.0790  177.3080  143.0740 C   0  0  0  0  0  0  0  0  0  0  0  0
  189.3740  177.7630  141.4640 N   0  0  0  0  0  0  0  0  0  0  0  0
  188.8100  177.8080  143.7880 C   0  0  0  0  0  3  0  0  0  0  0  0
  188.6310  178.2860  138.7100 C   0  0  0  0  0  3  0  0  0  0  0  0
  190.2720  177.5950  140.4530 C   0  0  0  0  0  0  0  0  0  0  0  0
  189.8180  177.6210  139.0450 C   0  0  0  0  0  0  0  0  0  0  0  0
  191.7980  176.1720  138.4140 C   0  0  2  0  0  3  0  0  0  0  0  0
  190.5310  177.3320  145.4310 C   0  0  0  0  0  3  0  0  0  0  0  0
  189.7430  177.6360  142.7630 C   0  0  0  0  0  0  0  0  0  0  0  0
  191.4680  177.1580  144.4080 C   0  0  0  0  0  3  0  0  0  0  0  0
  190.0850  176.9840  136.7130 C   0  0  0  0  0  3  0  0  0  0  0  0
  190.5590  176.9590  138.0360 C   0  0  0  0  0  0  0  0  0  0  0  0
  191.9790  177.1530  142.0700 N   0  0  0  0  0  0  0  0  0  0  0  0
  192.8580  177.1930  139.4820 S   0  0  0  0  0  0  0  0  0  0  0  0
  187.0010  177.2380  145.9030 O   0  0  0  0  0  1  0  0  0  0  0  0
  188.2200  177.8300  146.2400 C   0  0  1  0  0  3  0  0  0  0  0  0
  188.7510  177.2260  147.5320 C   0  0  0  0  0  3  0  0  0  0  0  0
  189.0600  178.3330  148.5190 C   0  0  0  0  0  2  0  0  0  0  0  0
  187.7880  177.5260  148.6620 C   0  0  0  0  0  2  0  0  0  0  0  0
  192.6190  175.6900  137.2210 C   0  0  0  0  0  2  0  0  0  0  0  0
  193.2420  174.4010  137.5190 N   0  0  0  0  0  0  0  0  0  0  0  0
  192.8010  173.4320  136.5950 N   0  0  0  0  0  2  0  0  0  0  0  0
  191.4640  173.3060  136.1710 C   0  0  0  0  0  0  0  0  0  0  0  0
  190.3660  173.2030  135.8230 N   0  0  0  0  0  0  0  0  0  0  0  0
  194.7120  174.4790  137.5160 C   0  0  0  0  0  2  0  0  0  0  0  0
  195.3620  173.9370  138.7880 C   0  0  1  0  0  3  0  0  0  0  0  0
  196.7960  174.2920  138.8060 C   0  0  0  0  0  2  0  0  0  0  0  0
  195.8460  175.0180  139.5460 O   0  0  0  0  0  0  0  0  0  0  0  0
  1 12  1  0  0  0  0
  1 20  1  0  0  0  0
  2 17  1  0  0  0  0
  3  8  1  0  0  0  0
  4 15  1  0  0  0  0
  4  3  2  0  0  0  0
  5 14  1  0  0  0  0
  6 13  2  0  0  0  0
  7  1  2  0  0  0  0
  8 10  2  0  0  0  0
  9  2  2  0  0  0  0
  9  6  1  0  0  0  0
 10  9  1  0  0  0  0
 11 24  1  6  0  0  0
 11 18  1  0  0  0  0
 13  5  1  0  0  0  0
 13  7  1  0  0  0  0
 14 12  2  0  0  0  0
 15 16  2  0  0  0  0
 16 11  1  0  0  0  0
 16 10  1  0  0  0  0
 17  5  2  0  0  0  0
 18  2  1  0  0  0  0
 20 19  1  6  0  0  0
 20 21  1  0  0  0  0
 21 22  1  0  0  0  0
 21 23  1  0  0  0  0
 22 23  1  0  0  0  0
 24 25  1  0  0  0  0
 26 25  1  0  0  0  0
 27 26  1  0  0  0  0
 28 27  3  0  0  0  0
 29 25  1  0  0  0  0
 30 29  1  6  0  0  0
 30 31  1  0  0  0  0
 30 32  1  0  0  0  0
 31 32  1  0  0  0  0
M  END
>  <MODEL>
2

>  <REMARK>
 VINA RESULT:      -8.1      1.077      1.327
  Name = 
  8 active torsions:
  status: ('A' for Active; 'I' for Inactive)
    1  A    between atoms: C_1  and  C_24
    2  A    between atoms: C_2  and  C_24
    3  A    between atoms: C_6  and  N_7
    4  A    between atoms: N_7  and  N_32
    5  A    between atoms: C_11  and  C_22
    6  A    between atoms: C_16  and  C_27
    7  A    between atoms: C_22  and  N_32
    8  A    between atoms: C_27  and  N_32
                            x       y       z     vdW  Elec       q    Type
                         _______ _______ _______ _____ _____    ______ ____

>  <TORSDO>
F 8

$$$$
=
 OpenBabel10272413343D

 32 37  0  0  1  0  0  0  0  0999 V2000
  189.4350  177.6560  144.7860 C   0  0  0  0  0  0  0  0  0  0  0  0
  191.6210  177.2270  140.3210 C   0  0  0  0  0  0  0  0  0  0  0  0
  188.0820  178.4040  137.1090 C   0  0  0  0  0  3  0  0  0  0  0  0
  188.7330  177.7310  136.0750 C   0  0  0  0  0  3  0  0  0  0  0  0
  191.1960  177.2390  142.6480 C   0  0  0  0  0  0  0  0  0  0  0  0
  189.4390  177.7780  141.1200 N   0  0  0  0  0  0  0  0  0  0  0  0
  188.9860  177.8310  143.4690 C   0  0  0  0  0  3  0  0  0  0  0  0
  188.5930  178.3520  138.4070 C   0  0  0  0  0  3  0  0  0  0  0  0
  190.2820  177.5790  140.0680 C   0  0  0  0  0  0  0  0  0  0  0  0
  189.7650  177.6340  138.6830 C   0  0  0  0  0  0  0  0  0  0  0  0
  191.6490  176.1060  137.9530 C   0  0  2  0  0  3  0  0  0  0  0  0
  190.7590  177.2700  145.0270 C   0  0  0  0  0  3  0  0  0  0  0  0
  189.8630  177.6260  142.4010 C   0  0  0  0  0  0  0  0  0  0  0  0
  191.6400  177.0630  143.9610 C   0  0  0  0  0  3  0  0  0  0  0  0
  189.8950  177.0030  136.3380 C   0  0  0  0  0  3  0  0  0  0  0  0
  190.4280  176.9490  137.6370 C   0  0  0  0  0  0  0  0  0  0  0  0
  192.0410  177.0530  141.6020 N   0  0  0  0  0  0  0  0  0  0  0  0
  192.8000  177.0740  138.9750 S   0  0  0  0  0  0  0  0  0  0  0  0
  187.2580  177.3150  145.6660 O   0  0  0  0  0  1  0  0  0  0  0  0
  188.5120  177.8610  145.9460 C   0  0  1  0  0  3  0  0  0  0  0  0
  189.0800  177.2340  147.2110 C   0  0  0  0  0  3  0  0  0  0  0  0
  189.1460  178.2780  148.3070 C   0  0  0  0  0  2  0  0  0  0  0  0
  188.0290  177.2570  148.3010 C   0  0  0  0  0  2  0  0  0  0  0  0
  192.3920  175.5990  136.7210 C   0  0  0  0  0  2  0  0  0  0  0  0
  193.8360  175.7520  136.8970 N   0  0  0  0  0  0  0  0  0  0  0  0
  194.4410  174.4850  137.0140 N   0  0  0  0  0  2  0  0  0  0  0  0
  195.0700  174.0220  138.1870 C   0  0  0  0  0  0  0  0  0  0  0  0
  195.5860  173.6430  139.1500 N   0  0  0  0  0  0  0  0  0  0  0  0
  194.4530  176.5140  135.8000 C   0  0  0  0  0  2  0  0  0  0  0  0
  195.7500  175.9020  135.2760 C   0  0  1  0  0  3  0  0  0  0  0  0
  196.5020  176.9120  134.5020 C   0  0  0  0  0  2  0  0  0  0  0  0
  196.8380  176.6000  135.8300 O   0  0  0  0  0  0  0  0  0  0  0  0
  1 12  1  0  0  0  0
  1 20  1  0  0  0  0
  2 17  1  0  0  0  0
  3  8  1  0  0  0  0
  4 15  1  0  0  0  0
  4  3  2  0  0  0  0
  5 14  1  0  0  0  0
  6 13  2  0  0  0  0
  7  1  2  0  0  0  0
  8 10  2  0  0  0  0
  9  2  2  0  0  0  0
  9  6  1  0  0  0  0
 10  9  1  0  0  0  0
 11 24  1  6  0  0  0
 11 18  1  0  0  0  0
 13  5  1  0  0  0  0
 13  7  1  0  0  0  0
 14 12  2  0  0  0  0
 15 16  2  0  0  0  0
 16 11  1  0  0  0  0
 16 10  1  0  0  0  0
 17  5  2  0  0  0  0
 18  2  1  0  0  0  0
 20 19  1  6  0  0  0
 20 21  1  0  0  0  0
 21 23  1  0  0  0  0
 21 22  1  0  0  0  0
 23 22  1  0  0  0  0
 24 25  1  0  0  0  0
 25 26  1  0  0  0  0
 26 27  1  0  0  0  0
 27 28  3  0  0  0  0
 29 25  1  0  0  0  0
 30 29  1  1  0  0  0
 30 32  1  0  0  0  0
 31 30  1  0  0  0  0
 31 32  1  0  0  0  0
M  END
>  <MODEL>
3

>  <REMARK>
 VINA RESULT:      -7.9      1.776      2.457
  Name = 
  8 active torsions:
  status: ('A' for Active; 'I' for Inactive)
    1  A    between atoms: C_1  and  C_24
    2  A    between atoms: C_2  and  C_24
    3  A    between atoms: C_6  and  N_7
    4  A    between atoms: N_7  and  N_32
    5  A    between atoms: C_11  and  C_22
    6  A    between atoms: C_16  and  C_27
    7  A    between atoms: C_22  and  N_32
    8  A    between atoms: C_27  and  N_32
                            x       y       z     vdW  Elec       q    Type
                         _______ _______ _______ _____ _____    ______ ____

>  <TORSDO>
F 8

$$$$
=
 OpenBabel10272413343D

 32 37  0  0  1  0  0  0  0  0999 V2000
  189.8430  177.1390  145.1380 C   0  0  0  0  0  0  0  0  0  0  0  0
  189.0660  177.9360  140.2730 C   0  0  0  0  0  0  0  0  0  0  0  0
  184.3180  179.1980  139.9830 C   0  0  0  0  0  3  0  0  0  0  0  0
  184.2600  178.8480  138.6340 C   0  0  0  0  0  3  0  0  0  0  0  0
  190.0570  177.4210  142.3580 C   0  0  0  0  0  0  0  0  0  0  0  0
  187.7380  177.9900  142.2560 N   0  0  0  0  0  0  0  0  0  0  0  0
  188.7170  177.5050  144.3840 C   0  0  0  0  0  3  0  0  0  0  0  0
  185.4830  178.9630  140.7160 C   0  0  0  0  0  3  0  0  0  0  0  0
  187.8240  178.1310  140.9040 C   0  0  0  0  0  0  0  0  0  0  0  0
  186.6040  178.3850  140.1060 C   0  0  0  0  0  0  0  0  0  0  0  0
  187.7340  177.3270  138.1010 C   0  0  2  0  0  3  0  0  0  0  0  0
  191.0670  176.9110  144.4960 C   0  0  0  0  0  3  0  0  0  0  0  0
  188.8220  177.6490  142.9990 C   0  0  0  0  0  0  0  0  0  0  0  0
  191.1760  177.0530  143.1090 C   0  0  0  0  0  3  0  0  0  0  0  0
  185.3660  178.2600  138.0160 C   0  0  0  0  0  3  0  0  0  0  0  0
  186.5500  178.0270  138.7370 C   0  0  0  0  0  0  0  0  0  0  0  0
  190.1480  177.5730  141.0120 N   0  0  0  0  0  0  0  0  0  0  0  0
  189.2580  178.2290  138.5120 S   0  0  0  0  0  0  0  0  0  0  0  0
  191.0320  176.9560  147.1830 O   0  0  0  0  0  1  0  0  0  0  0  0
  189.7540  176.9700  146.6210 C   0  0  1  0  0  3  0  0  0  0  0  0
  188.9240  178.0820  147.2470 C   0  0  0  0  0  3  0  0  0  0  0  0
  187.9530  177.4860  148.2470 C   0  0  0  0  0  2  0  0  0  0  0  0
  189.2210  178.1570  148.7310 C   0  0  0  0  0  2  0  0  0  0  0  0
  187.6370  177.1900  136.5840 C   0  0  0  0  0  2  0  0  0  0  0  0
  187.7550  175.7860  136.1910 N   0  0  0  0  0  0  0  0  0  0  0  0
  189.1100  175.4660  135.9640 N   0  0  0  0  0  2  0  0  0  0  0  0
  189.9250  174.8040  136.9030 C   0  0  0  0  0  0  0  0  0  0  0  0
  190.5950  174.2600  137.6730 N   0  0  0  0  0  0  0  0  0  0  0  0
  187.1750  174.8770  137.1910 C   0  0  0  0  0  2  0  0  0  0  0  0
  185.9730  174.0840  136.6820 C   0  0  1  0  0  3  0  0  0  0  0  0
  185.5150  173.1450  137.7260 C   0  0  0  0  0  2  0  0  0  0  0  0
  184.8640  174.3690  137.4980 O   0  0  0  0  0  0  0  0  0  0  0  0
  1 20  1  0  0  0  0
  2  9  2  0  0  0  0
  2 17  1  0  0  0  0
  3  8  1  0  0  0  0
  4  3  2  0  0  0  0
  5 13  1  0  0  0  0
  5 14  1  0  0  0  0
  6 13  2  0  0  0  0
  7  1  2  0  0  0  0
  9  6  1  0  0  0  0
 10  8  2  0  0  0  0
 10  9  1  0  0  0  0
 11 24  1  6  0  0  0
 11 18  1  0  0  0  0
 11 16  1  0  0  0  0
 12  1  1  0  0  0  0
 13  7  1  0  0  0  0
 14 12  2  0  0  0  0
 15  4  1  0  0  0  0
 15 16  2  0  0  0  0
 16 10  1  0  0  0  0
 17  5  2  0  0  0  0
 18  2  1  0  0  0  0
 20 19  1  1  0  0  0
 20 21  1  0  0  0  0
 21 22  1  0  0  0  0
 21 23  1  0  0  0  0
 22 23  1  0  0  0  0
 25 24  1  0  0  0  0
 25 29  1  0  0  0  0
 26 25  1  0  0  0  0
 26 27  1  0  0  0  0
 27 28  3  0  0  0  0
 30 29  1  1  0  0  0
 30 32  1  0  0  0  0
 30 31  1  0  0  0  0
 32 31  1  0  0  0  0
M  END
>  <MODEL>
4

>  <REMARK>
 VINA RESULT:      -7.8      3.257      4.724
  Name = 
  8 active torsions:
  status: ('A' for Active; 'I' for Inactive)
    1  A    between atoms: C_1  and  C_24
    2  A    between atoms: C_2  and  C_24
    3  A    between atoms: C_6  and  N_7
    4  A    between atoms: N_7  and  N_32
    5  A    between atoms: C_11  and  C_22
    6  A    between atoms: C_16  and  C_27
    7  A    between atoms: C_22  and  N_32
    8  A    between atoms: C_27  and  N_32
                            x       y       z     vdW  Elec       q    Type
                         _______ _______ _______ _____ _____    ______ ____

>  <TORSDO>
F 8

$$$$
=
 OpenBabel10272413343D

 32 37  0  0  1  0  0  0  0  0999 V2000
  192.3420  176.2880  137.4510 C   0  0  0  0  0  0  0  0  0  0  0  0
  188.9410  177.6650  140.8340 C   0  0  0  0  0  0  0  0  0  0  0  0
  191.3530  177.5200  145.1220 C   0  0  0  0  0  3  0  0  0  0  0  0
  190.1620  177.4110  145.8400 C   0  0  0  0  0  3  0  0  0  0  0  0
  190.0320  177.1020  138.8120 C   0  0  0  0  0  0  0  0  0  0  0  0
  191.2280  176.9810  140.8770 N   0  0  0  0  0  0  0  0  0  0  0  0
  192.3690  176.4370  138.8460 C   0  0  0  0  0  3  0  0  0  0  0  0
  191.3300  177.5100  143.7260 C   0  0  0  0  0  3  0  0  0  0  0  0
  190.1140  177.3750  141.5550 C   0  0  0  0  0  0  0  0  0  0  0  0
  190.1160  177.3990  143.0340 C   0  0  0  0  0  0  0  0  0  0  0  0
  187.6030  177.0850  143.0100 C   0  0  2  0  0  3  0  0  0  0  0  0
  191.1590  176.5430  136.7460 C   0  0  0  0  0  3  0  0  0  0  0  0
  191.2200  176.8450  139.5260 C   0  0  0  0  0  0  0  0  0  0  0  0
  190.0060  176.9500  137.4240 C   0  0  0  0  0  3  0  0  0  0  0  0
  188.9470  177.2880  145.1640 C   0  0  0  0  0  3  0  0  0  0  0  0
  188.9050  177.2860  143.7590 C   0  0  0  0  0  0  0  0  0  0  0  0
  188.9250  177.5080  139.4840 N   0  0  0  0  0  0  0  0  0  0  0  0
  187.4850  178.3050  141.6680 S   0  0  0  0  0  0  0  0  0  0  0  0
  194.3930  176.9320  136.4470 O   0  0  0  0  0  1  0  0  0  0  0  0
  193.5570  175.8430  136.7010 C   0  0  1  0  0  3  0  0  0  0  0  0
  194.3160  174.7770  137.4780 C   0  0  0  0  0  3  0  0  0  0  0  0
  194.4280  173.5210  136.6360 C   0  0  0  0  0  2  0  0  0  0  0  0
  195.6110  174.4560  136.7610 C   0  0  0  0  0  2  0  0  0  0  0  0
  186.3570  177.1940  143.8850 C   0  0  0  0  0  2  0  0  0  0  0  0
  185.7170  178.4960  143.7000 N   0  0  0  0  0  0  0  0  0  0  0  0
  184.5370  178.3450  142.9420 N   0  0  0  0  0  2  0  0  0  0  0  0
  183.2700  178.7880  143.3700 C   0  0  0  0  0  0  0  0  0  0  0  0
  182.2300  179.1520  143.7200 N   0  0  0  0  0  0  0  0  0  0  0  0
  185.4210  179.1570  144.9810 C   0  0  0  0  0  2  0  0  0  0  0  0
  185.5910  178.2510  146.1980 C   0  0  1  0  0  3  0  0  0  0  0  0
  186.2460  178.9990  147.2910 C   0  0  0  0  0  2  0  0  0  0  0  0
  184.8570  178.7880  147.2700 O   0  0  0  0  0  0  0  0  0  0  0  0
  1  7  1  0  0  0  0
  2  9  1  0  0  0  0
  2 18  1  0  0  0  0
  3  4  1  0  0  0  0
  5 17  1  0  0  0  0
  5 13  1  0  0  0  0
  6  9  2  0  0  0  0
  7 13  2  0  0  0  0
  8  3  2  0  0  0  0
  9 10  1  0  0  0  0
 10  8  1  0  0  0  0
 10 16  2  0  0  0  0
 11 16  1  0  0  0  0
 11 24  1  1  0  0  0
 12 14  1  0  0  0  0
 12  1  2  0  0  0  0
 13  6  1  0  0  0  0
 14  5  2  0  0  0  0
 15  4  2  0  0  0  0
 16 15  1  0  0  0  0
 17  2  2  0  0  0  0
 18 11  1  0  0  0  0
 20 19  1  1  0  0  0
 20  1  1  0  0  0  0
 20 21  1  0  0  0  0
 22 23  1  0  0  0  0
 22 21  1  0  0  0  0
 23 21  1  0  0  0  0
 25 24  1  0  0  0  0
 25 29  1  0  0  0  0
 26 27  1  0  0  0  0
 26 25  1  0  0  0  0
 27 28  3  0  0  0  0
 30 29  1  6  0  0  0
 30 32  1  0  0  0  0
 30 31  1  0  0  0  0
 32 31  1  0  0  0  0
M  END
>  <MODEL>
5

>  <REMARK>
 VINA RESULT:      -7.7      2.400      9.460
  Name = 
  8 active torsions:
  status: ('A' for Active; 'I' for Inactive)
    1  A    between atoms: C_1  and  C_24
    2  A    between atoms: C_2  and  C_24
    3  A    between atoms: C_6  and  N_7
    4  A    between atoms: N_7  and  N_32
    5  A    between atoms: C_11  and  C_22
    6  A    between atoms: C_16  and  C_27
    7  A    between atoms: C_22  and  N_32
    8  A    between atoms: C_27  and  N_32
                            x       y       z     vdW  Elec       q    Type
                         _______ _______ _______ _____ _____    ______ ____

>  <TORSDO>
F 8

$$$$
=
 OpenBabel10272413343D

 32 37  0  0  1  0  0  0  0  0999 V2000
  189.6530  177.2180  145.4330 C   0  0  0  0  0  0  0  0  0  0  0  0
  189.0610  177.9660  140.5340 C   0  0  0  0  0  0  0  0  0  0  0  0
  184.3230  179.2050  140.0500 C   0  0  0  0  0  3  0  0  0  0  0  0
  184.3180  178.8420  138.7030 C   0  0  0  0  0  3  0  0  0  0  0  0
  189.9720  177.4740  142.6610 C   0  0  0  0  0  0  0  0  0  0  0  0
  187.6570  178.0330  142.4650 N   0  0  0  0  0  0  0  0  0  0  0  0
  188.5560  177.5720  144.6330 C   0  0  0  0  0  3  0  0  0  0  0  0
  185.4590  178.9820  140.8300 C   0  0  0  0  0  3  0  0  0  0  0  0
  187.7940  178.1610  141.1150 C   0  0  0  0  0  0  0  0  0  0  0  0
  186.6050  178.4020  140.2680 C   0  0  0  0  0  0  0  0  0  0  0  0
  187.8160  177.3310  138.3180 C   0  0  2  0  0  3  0  0  0  0  0  0
  190.9020  176.9900  144.8410 C   0  0  0  0  0  3  0  0  0  0  0  0
  188.7130  177.7030  143.2520 C   0  0  0  0  0  0  0  0  0  0  0  0
  191.0630  177.1190  143.4580 C   0  0  0  0  0  3  0  0  0  0  0  0
  185.4490  178.2530  138.1340 C   0  0  0  0  0  3  0  0  0  0  0  0
  186.6050  178.0310  138.9020 C   0  0  0  0  0  0  0  0  0  0  0  0
  190.1140  177.6140  141.3180 N   0  0  0  0  0  0  0  0  0  0  0  0
  189.3190  178.2430  138.7790 S   0  0  0  0  0  0  0  0  0  0  0  0
  190.7510  176.8100  147.4960 O   0  0  0  0  0  1  0  0  0  0  0  0
  189.5070  177.0630  146.9130 C   0  0  1  0  0  3  0  0  0  0  0  0
  188.8860  178.3060  147.5330 C   0  0  0  0  0  3  0  0  0  0  0  0
  187.4680  177.9980  147.9710 C   0  0  0  0  0  2  0  0  0  0  0  0
  188.5830  178.0430  148.9940 C   0  0  0  0  0  2  0  0  0  0  0  0
  187.7770  177.1790  136.8010 C   0  0  0  0  0  2  0  0  0  0  0  0
  187.9890  175.7820  136.4230 N   0  0  0  0  0  0  0  0  0  0  0  0
  187.1300  175.4390  135.3590 N   0  0  0  0  0  2  0  0  0  0  0  0
  185.7260  175.5270  135.4270 C   0  0  0  0  0  0  0  0  0  0  0  0
  184.5730  175.6000  135.4830 N   0  0  0  0  0  0  0  0  0  0  0  0
  189.3880  175.5100  136.0580 C   0  0  0  0  0  2  0  0  0  0  0  0
  189.9970  174.3170  136.7920 C   0  0  1  0  0  3  0  0  0  0  0  0
  191.3920  174.6220  137.1710 C   0  0  0  0  0  2  0  0  0  0  0  0
  190.3400  174.7140  138.0970 O   0  0  0  0  0  0  0  0  0  0  0  0
  1 20  1  0  0  0  0
  2  9  2  0  0  0  0
  2 17  1  0  0  0  0
  3  8  1  0  0  0  0
  4  3  2  0  0  0  0
  5 13  1  0  0  0  0
  5 14  1  0  0  0  0
  6 13  2  0  0  0  0
  7  1  2  0  0  0  0
  9  6  1  0  0  0  0
 10  8  2  0  0  0  0
 10  9  1  0  0  0  0
 11 24  1  6  0  0  0
 11 18  1  0  0  0  0
 11 16  1  0  0  0  0
 12  1  1  0  0  0  0
 13  7  1  0  0  0  0
 14 12  2  0  0  0  0
 15  4  1  0  0  0  0
 15 16  2  0  0  0  0
 16 10  1  0  0  0  0
 17  5  2  0  0  0  0
 18  2  1  0  0  0  0
 20 19  1  1  0  0  0
 20 21  1  0  0  0  0
 21 22  1  0  0  0  0
 21 23  1  0  0  0  0
 22 23  1  0  0  0  0
 25 24  1  0  0  0  0
 26 27  1  0  0  0  0
 26 25  1  0  0  0  0
 27 28  3  0  0  0  0
 29 25  1  0  0  0  0
 30 29  1  6  0  0  0
 30 31  1  0  0  0  0
 30 32  1  0  0  0  0
 31 32  1  0  0  0  0
M  END
>  <MODEL>
6

>  <REMARK>
 VINA RESULT:      -7.5      2.761      3.967
  Name = 
  8 active torsions:
  status: ('A' for Active; 'I' for Inactive)
    1  A    between atoms: C_1  and  C_24
    2  A    between atoms: C_2  and  C_24
    3  A    between atoms: C_6  and  N_7
    4  A    between atoms: N_7  and  N_32
    5  A    between atoms: C_11  and  C_22
    6  A    between atoms: C_16  and  C_27
    7  A    between atoms: C_22  and  N_32
    8  A    between atoms: C_27  and  N_32
                            x       y       z     vdW  Elec       q    Type
                         _______ _______ _______ _____ _____    ______ ____

>  <TORSDO>
F 8

$$$$
=
 OpenBabel10272413343D

 32 37  0  0  1  0  0  0  0  0999 V2000
  188.3570  177.5220  145.0330 C   0  0  0  0  0  0  0  0  0  0  0  0
  185.2140  178.6550  141.3250 C   0  0  0  0  0  0  0  0  0  0  0  0
  180.8110  178.9530  143.5030 C   0  0  0  0  0  3  0  0  0  0  0  0
  180.1480  178.7430  142.2940 C   0  0  0  0  0  3  0  0  0  0  0  0
  187.1510  178.1330  142.5780 C   0  0  0  0  0  0  0  0  0  0  0  0
  185.0270  178.2280  143.6670 N   0  0  0  0  0  0  0  0  0  0  0  0
  186.9710  177.7300  144.9680 C   0  0  0  0  0  3  0  0  0  0  0  0
  182.2040  178.8820  143.5570 C   0  0  0  0  0  3  0  0  0  0  0  0
  184.4240  178.5260  142.4820 C   0  0  0  0  0  0  0  0  0  0  0  0
  182.9490  178.6100  142.4010 C   0  0  0  0  0  0  0  0  0  0  0  0
  183.0820  178.0220  139.9410 C   0  0  2  0  0  3  0  0  0  0  0  0
  189.1310  177.6150  143.8690 C   0  0  0  0  0  3  0  0  0  0  0  0
  186.3680  178.0370  143.7470 C   0  0  0  0  0  0  0  0  0  0  0  0
  188.5310  177.9220  142.6440 C   0  0  0  0  0  3  0  0  0  0  0  0
  180.8760  178.4600  141.1370 C   0  0  0  0  0  3  0  0  0  0  0  0
  182.2800  178.3960  141.1720 C   0  0  0  0  0  0  0  0  0  0  0  0
  186.5550  178.4410  141.3990 N   0  0  0  0  0  0  0  0  0  0  0  0
  184.4850  179.1650  139.7660 S   0  0  0  0  0  0  0  0  0  0  0  0
  190.3940  176.9930  146.1300 O   0  0  0  0  0  1  0  0  0  0  0  0
  189.0250  177.1820  146.3280 C   0  0  1  0  0  3  0  0  0  0  0  0
  188.7960  178.2750  147.3610 C   0  0  0  0  0  3  0  0  0  0  0  0
  188.2060  177.6670  148.6180 C   0  0  0  0  0  2  0  0  0  0  0  0
  189.6760  178.0210  148.5670 C   0  0  0  0  0  2  0  0  0  0  0  0
  182.2760  178.0290  138.6450 C   0  0  0  0  0  2  0  0  0  0  0  0
  182.5050  176.7930  137.8960 N   0  0  0  0  0  0  0  0  0  0  0  0
  181.3240  176.0240  137.8710 N   0  0  0  0  0  2  0  0  0  0  0  0
  180.7690  175.4050  139.0080 C   0  0  0  0  0  0  0  0  0  0  0  0
  180.3120  174.8970  139.9420 N   0  0  0  0  0  0  0  0  0  0  0  0
  182.9760  177.0520  136.5260 C   0  0  0  0  0  2  0  0  0  0  0  0
  184.2620  176.3120  136.1650 C   0  0  1  0  0  3  0  0  0  0  0  0
  185.4320  177.0830  136.6350 C   0  0  0  0  0  2  0  0  0  0  0  0
  184.9410  175.9780  137.3510 O   0  0  0  0  0  0  0  0  0  0  0  0
  1 20  1  0  0  0  0
  2 17  2  0  0  0  0
  2  9  1  0  0  0  0
  3  8  1  0  0  0  0
  4  3  2  0  0  0  0
  5 14  2  0  0  0  0
  5 13  1  0  0  0  0
  6 13  1  0  0  0  0
  7  1  1  0  0  0  0
  9  6  2  0  0  0  0
 10  9  1  0  0  0  0
 10  8  2  0  0  0  0
 11 24  1  6  0  0  0
 11 16  1  0  0  0  0
 12  1  2  0  0  0  0
 13  7  2  0  0  0  0
 14 12  1  0  0  0  0
 15 16  2  0  0  0  0
 15  4  1  0  0  0  0
 16 10  1  0  0  0  0
 17  5  1  0  0  0  0
 18 11  1  0  0  0  0
 18  2  1  0  0  0  0
 20 19  1  6  0  0  0
 20 21  1  0  0  0  0
 21 23  1  0  0  0  0
 21 22  1  0  0  0  0
 23 22  1  0  0  0  0
 25 24  1  0  0  0  0
 26 25  1  0  0  0  0
 26 27  1  0  0  0  0
 27 28  3  0  0  0  0
 29 25  1  0  0  0  0
 30 29  1  1  0  0  0
 30 31  1  0  0  0  0
 30 32  1  0  0  0  0
 31 32  1  0  0  0  0
M  END
>  <MODEL>
7

>  <REMARK>
 VINA RESULT:      -7.4      5.305      7.895
  Name = 
  8 active torsions:
  status: ('A' for Active; 'I' for Inactive)
    1  A    between atoms: C_1  and  C_24
    2  A    between atoms: C_2  and  C_24
    3  A    between atoms: C_6  and  N_7
    4  A    between atoms: N_7  and  N_32
    5  A    between atoms: C_11  and  C_22
    6  A    between atoms: C_16  and  C_27
    7  A    between atoms: C_22  and  N_32
    8  A    between atoms: C_27  and  N_32
                            x       y       z     vdW  Elec       q    Type
                         _______ _______ _______ _____ _____    ______ ____

>  <TORSDO>
F 8

$$$$
=
 OpenBabel10272413343D

 32 37  0  0  1  0  0  0  0  0999 V2000
  188.1870  177.5440  144.7670 C   0  0  0  0  0  0  0  0  0  0  0  0
  185.0380  178.7700  141.0950 C   0  0  0  0  0  0  0  0  0  0  0  0
  180.6590  179.1320  143.3100 C   0  0  0  0  0  3  0  0  0  0  0  0
  179.9820  178.9460  142.1040 C   0  0  0  0  0  3  0  0  0  0  0  0
  186.9750  178.2000  142.3280 C   0  0  0  0  0  0  0  0  0  0  0  0
  184.8610  178.3260  143.4340 N   0  0  0  0  0  0  0  0  0  0  0  0
  186.8050  177.7790  144.7150 C   0  0  0  0  0  3  0  0  0  0  0  0
  182.0500  179.0350  143.3520 C   0  0  0  0  0  3  0  0  0  0  0  0
  184.2540  178.6460  142.2570 C   0  0  0  0  0  0  0  0  0  0  0  0
  182.7810  178.7590  142.1880 C   0  0  0  0  0  0  0  0  0  0  0  0
  182.8840  178.1900  139.7220 C   0  0  2  0  0  3  0  0  0  0  0  0
  188.9540  177.6330  143.5980 C   0  0  0  0  0  3  0  0  0  0  0  0
  186.1990  178.1090  143.5010 C   0  0  0  0  0  0  0  0  0  0  0  0
  188.3500  177.9620  142.3810 C   0  0  0  0  0  3  0  0  0  0  0  0
  180.6960  178.6590  140.9390 C   0  0  0  0  0  3  0  0  0  0  0  0
  182.0990  178.5680  140.9620 C   0  0  0  0  0  0  0  0  0  0  0  0
  186.3750  178.5310  141.1560 N   0  0  0  0  0  0  0  0  0  0  0  0
  184.3070  179.3080  139.5460 S   0  0  0  0  0  0  0  0  0  0  0  0
  190.2440  177.2920  145.9240 O   0  0  0  0  0  1  0  0  0  0  0  0
  188.8580  177.1800  146.0540 C   0  0  1  0  0  3  0  0  0  0  0  0
  188.3700  178.0640  147.1910 C   0  0  0  0  0  3  0  0  0  0  0  0
  188.1440  177.2180  148.4280 C   0  0  0  0  0  2  0  0  0  0  0  0
  189.3940  178.0620  148.3070 C   0  0  0  0  0  2  0  0  0  0  0  0
  182.0680  178.2250  138.4330 C   0  0  0  0  0  2  0  0  0  0  0  0
  182.1830  176.9500  137.7230 N   0  0  0  0  0  0  0  0  0  0  0  0
  183.1690  177.0490  136.7200 N   0  0  0  0  0  2  0  0  0  0  0  0
  184.5100  176.6540  136.9000 C   0  0  0  0  0  0  0  0  0  0  0  0
  185.6100  176.3300  137.0460 N   0  0  0  0  0  0  0  0  0  0  0  0
  182.4860  175.8330  138.6310 C   0  0  0  0  0  2  0  0  0  0  0  0
  181.3880  174.7730  138.6950 C   0  0  1  0  0  3  0  0  0  0  0  0
  180.4030  175.1360  139.7360 C   0  0  0  0  0  2  0  0  0  0  0  0
  180.1580  175.3750  138.3730 O   0  0  0  0  0  0  0  0  0  0  0  0
  1 20  1  0  0  0  0
  2 17  2  0  0  0  0
  2  9  1  0  0  0  0
  3  8  1  0  0  0  0
  4  3  2  0  0  0  0
  5 14  2  0  0  0  0
  5 13  1  0  0  0  0
  6 13  1  0  0  0  0
  7  1  1  0  0  0  0
  9  6  2  0  0  0  0
 10  9  1  0  0  0  0
 10  8  2  0  0  0  0
 11 24  1  6  0  0  0
 11 16  1  0  0  0  0
 12  1  2  0  0  0  0
 13  7  2  0  0  0  0
 14 12  1  0  0  0  0
 15 16  2  0  0  0  0
 15  4  1  0  0  0  0
 16 10  1  0  0  0  0
 17  5  1  0  0  0  0
 18 11  1  0  0  0  0
 18  2  1  0  0  0  0
 20 19  1  6  0  0  0
 20 21  1  0  0  0  0
 21 23  1  0  0  0  0
 21 22  1  0  0  0  0
 23 22  1  0  0  0  0
 25 24  1  0  0  0  0
 25 29  1  0  0  0  0
 26 27  1  0  0  0  0
 26 25  1  0  0  0  0
 27 28  3  0  0  0  0
 30 29  1  1  0  0  0
 30 31  1  0  0  0  0
 32 30  1  0  0  0  0
 32 31  1  0  0  0  0
M  END
>  <MODEL>
8

>  <REMARK>
 VINA RESULT:      -7.4      5.300      8.252
  Name = 
  8 active torsions:
  status: ('A' for Active; 'I' for Inactive)
    1  A    between atoms: C_1  and  C_24
    2  A    between atoms: C_2  and  C_24
    3  A    between atoms: C_6  and  N_7
    4  A    between atoms: N_7  and  N_32
    5  A    between atoms: C_11  and  C_22
    6  A    between atoms: C_16  and  C_27
    7  A    between atoms: C_22  and  N_32
    8  A    between atoms: C_27  and  N_32
                            x       y       z     vdW  Elec       q    Type
                         _______ _______ _______ _____ _____    ______ ____

>  <TORSDO>
F 8

$$$$
=
 OpenBabel10272413343D

 32 37  0  0  1  0  0  0  0  0999 V2000
  191.3170  176.7210  137.8740 C   0  0  0  0  0  0  0  0  0  0  0  0
  187.8050  178.4610  140.9630 C   0  0  0  0  0  0  0  0  0  0  0  0
  189.4780  177.3600  145.4590 C   0  0  0  0  0  3  0  0  0  0  0  0
  188.1970  177.4420  146.0050 C   0  0  0  0  0  3  0  0  0  0  0  0
  189.0450  177.8800  139.0350 C   0  0  0  0  0  0  0  0  0  0  0  0
  189.8740  177.2910  141.1970 N   0  0  0  0  0  0  0  0  0  0  0  0
  191.1670  176.7180  139.2680 C   0  0  0  0  0  3  0  0  0  0  0  0
  189.6600  177.4950  144.0820 C   0  0  0  0  0  3  0  0  0  0  0  0
  188.7760  177.8500  141.7790 C   0  0  0  0  0  0  0  0  0  0  0  0
  188.5640  177.7240  143.2380 C   0  0  0  0  0  0  0  0  0  0  0  0
  186.0710  177.9720  142.8640 C   0  0  2  0  0  3  0  0  0  0  0  0
  190.3280  177.2980  137.0670 C   0  0  0  0  0  3  0  0  0  0  0  0
  190.0380  177.2980  139.8500 C   0  0  0  0  0  0  0  0  0  0  0  0
  189.1940  177.8780  137.6460 C   0  0  0  0  0  3  0  0  0  0  0  0
  187.0950  177.6570  145.1750 C   0  0  0  0  0  3  0  0  0  0  0  0
  187.2620  177.8070  143.7880 C   0  0  0  0  0  0  0  0  0  0  0  0
  187.9570  178.4490  139.6120 N   0  0  0  0  0  0  0  0  0  0  0  0
  186.4030  179.3170  141.6880 S   0  0  0  0  0  0  0  0  0  0  0  0
  193.6830  176.7040  137.6910 O   0  0  0  0  0  1  0  0  0  0  0  0
  192.5130  176.0980  137.2270 C   0  0  1  0  0  3  0  0  0  0  0  0
  192.5620  174.6010  137.4990 C   0  0  0  0  0  3  0  0  0  0  0  0
  192.3290  173.8450  136.2060 C   0  0  0  0  0  2  0  0  0  0  0  0
  193.7320  173.9910  136.7550 C   0  0  0  0  0  2  0  0  0  0  0  0
  184.7580  178.2630  143.5860 C   0  0  0  0  0  2  0  0  0  0  0  0
  183.7510  178.7430  142.6400 N   0  0  0  0  0  0  0  0  0  0  0  0
  183.3080  177.6760  141.8320 N   0  0  0  0  0  2  0  0  0  0  0  0
  183.3620  177.6850  140.4240 C   0  0  0  0  0  0  0  0  0  0  0  0
  183.4070  177.6920  139.2680 N   0  0  0  0  0  0  0  0  0  0  0  0
  182.6110  179.3810  143.3160 C   0  0  0  0  0  2  0  0  0  0  0  0
  181.2490  178.9260  142.7930 C   0  0  1  0  0  3  0  0  0  0  0  0
  180.3400  178.6650  143.9280 C   0  0  0  0  0  2  0  0  0  0  0  0
  180.2760  179.8600  143.1900 O   0  0  0  0  0  0  0  0  0  0  0  0
  1  7  1  0  0  0  0
  2 18  1  0  0  0  0
  2  9  1  0  0  0  0
  3  4  1  0  0  0  0
  5 17  1  0  0  0  0
  5 13  1  0  0  0  0
  6  9  2  0  0  0  0
  7 13  2  0  0  0  0
  8  3  2  0  0  0  0
  9 10  1  0  0  0  0
 10 16  2  0  0  0  0
 10  8  1  0  0  0  0
 11 24  1  1  0  0  0
 11 16  1  0  0  0  0
 12 14  1  0  0  0  0
 12  1  2  0  0  0  0
 13  6  1  0  0  0  0
 14  5  2  0  0  0  0
 15  4  2  0  0  0  0
 16 15  1  0  0  0  0
 17  2  2  0  0  0  0
 18 11  1  0  0  0  0
 20 21  1  0  0  0  0
 20 19  1  1  0  0  0
 20  1  1  0  0  0  0
 22 23  1  0  0  0  0
 22 21  1  0  0  0  0
 23 21  1  0  0  0  0
 25 29  1  0  0  0  0
 25 24  1  0  0  0  0
 26 25  1  0  0  0  0
 27 26  1  0  0  0  0
 28 27  3  0  0  0  0
 30 32  1  0  0  0  0
 30 29  1  1  0  0  0
 30 31  1  0  0  0  0
 32 31  1  0  0  0  0
M  END
>  <MODEL>
9

>  <REMARK>
 VINA RESULT:      -7.4      3.398      9.655
  Name = 
  8 active torsions:
  status: ('A' for Active; 'I' for Inactive)
    1  A    between atoms: C_1  and  C_24
    2  A    between atoms: C_2  and  C_24
    3  A    between atoms: C_6  and  N_7
    4  A    between atoms: N_7  and  N_32
    5  A    between atoms: C_11  and  C_22
    6  A    between atoms: C_16  and  C_27
    7  A    between atoms: C_22  and  N_32
    8  A    between atoms: C_27  and  N_32
                            x       y       z     vdW  Elec       q    Type
                         _______ _______ _______ _____ _____    ______ ____

>  <TORSDO>
F 8

$$$$
