=
 OpenBabel10272414503D

 37 41  0  0  1  0  0  0  0  0999 V2000
  186.0610  175.9820  136.8120 C   0  0  1  0  0  0  0  0  0  0  0  0
  188.0620  175.6760  135.1590 C   0  0  2  0  0  3  0  0  0  0  0  0
  189.8350  177.6720  137.0470 N   0  0  2  0  0  0  0  0  0  0  0  0
  184.5270  176.1380  136.7530 C   0  0  2  0  0  3  0  0  0  0  0  0
  190.3740  176.3290  134.5960 N   0  0  0  0  0  2  0  0  0  0  0  0
  188.9780  177.8110  138.2340 C   0  0  2  0  0  3  0  0  0  0  0  0
  184.8260  177.1950  134.5180 C   0  0  0  0  0  2  0  0  0  0  0  0
  189.0210  177.9510  135.8390 C   0  0  0  0  0  2  0  0  0  0  0  0
  189.8380  177.7460  139.5060 C   0  0  2  0  0  3  0  0  0  0  0  0
  192.2840  175.5340  135.6730 O   0  0  0  0  0  0  0  0  0  0  0  0
  186.5690  176.0350  135.3480 C   0  0  2  0  0  3  0  0  0  0  0  0
  191.4660  176.2850  138.2630 C   0  0  0  0  0  2  0  0  0  0  0  0
  184.1020  177.3100  135.8570 C   0  0  0  0  0  2  0  0  0  0  0  0
  191.1370  176.0470  135.7650 C   0  0  0  0  0  0  0  0  0  0  0  0
  186.2170  177.2470  134.7190 O   0  0  0  0  0  0  0  0  0  0  0  0
  187.9590  176.8070  138.2370 O   0  0  0  0  0  0  0  0  0  0  0  0
  190.4980  176.3490  137.0830 C   0  0  2  0  0  3  0  0  0  0  0  0
  186.7210  177.0570  137.6430 C   0  0  0  0  0  0  0  0  0  0  0  0
  189.0160  176.8360  134.7740 C   0  0  2  0  0  3  0  0  0  0  0  0
  186.2240  178.2170  137.7010 O   0  0  0  0  0  0  0  0  0  0  0  0
  186.3540  174.7300  137.3570 O   0  0  0  0  0  1  0  0  0  0  0  0
  190.6770  176.4630  139.5580 C   0  0  0  0  0  2  0  0  0  0  0  0
  191.0580  177.6440  142.1790 C   0  0  0  0  0  2  0  0  0  0  0  0
  189.6150  177.8430  142.0460 N   0  0  0  0  0  0  0  0  0  0  0  0
  187.7870  178.2370  140.6380 O   0  0  0  0  0  0  0  0  0  0  0  0
  188.7830  178.0070  143.2420 C   0  0  0  0  0  2  0  0  0  0  0  0
  188.7910  177.9140  145.6310 O   0  0  0  0  0  1  0  0  0  0  0  0
  190.5160  176.6960  144.5030 C   0  0  0  0  0  2  0  0  0  0  0  0
  189.6260  177.9410  144.5140 C   0  0  1  0  0  3  0  0  0  0  0  0
  189.0110  177.9430  140.7440 C   0  0  0  0  0  0  0  0  0  0  0  0
  191.3510  176.5590  143.2170 C   0  0  0  0  0  2  0  0  0  0  0  0
  188.5100  173.4310  135.1740 C   0  0  0  0  0  1  0  0  0  0  0  0
  188.2270  174.5300  134.3470 O   0  0  0  0  0  0  0  0  0  0  0  0
  183.9500  176.2390  138.0530 O   0  0  0  0  0  0  0  0  0  0  0  0
  182.7910  175.5430  138.4010 C   0  0  0  0  0  0  0  0  0  0  0  0
  182.1130  175.9010  139.4790 C   0  0  0  0  0  2  0  0  0  0  0  0
  182.3340  174.4440  137.6180 N   0  0  0  0  0  1  0  0  0  0  0  0
  1 21  1  1  0  0  0
  1 18  1  0  0  0  0
  2 33  1  6  0  0  0
  2 11  1  0  0  0  0
  3  8  1  6  0  0  0
  3 17  1  0  0  0  0
  3  6  1  0  0  0  0
  4  1  1  0  0  0  0
  4 34  1  1  0  0  0
  5 19  1  0  0  0  0
  5 14  1  0  0  0  0
  6 16  1  1  0  0  0
  6  9  1  0  0  0  0
  7 15  1  0  0  0  0
  7 13  1  0  0  0  0
  9 22  1  0  0  0  0
  9 30  1  1  0  0  0
 10 14  2  0  0  0  0
 11 15  1  1  0  0  0
 11  1  1  0  0  0  0
 12 22  1  0  0  0  0
 13  4  1  0  0  0  0
 14 17  1  0  0  0  0
 17 12  1  1  0  0  0
 18 20  2  0  0  0  0
 18 16  1  0  0  0  0
 19  2  1  0  0  0  0
 19  8  1  1  0  0  0
 23 31  1  0  0  0  0
 24 23  1  0  0  0  0
 24 26  1  0  0  0  0
 25 30  2  0  0  0  0
 26 29  1  0  0  0  0
 28 29  1  0  0  0  0
 29 27  1  1  0  0  0
 30 24  1  0  0  0  0
 31 28  1  0  0  0  0
 33 32  1  0  0  0  0
 34 35  1  0  0  0  0
 35 36  2  0  0  0  0
 37 35  1  0  0  0  0
M  END
>  <MODEL>
1

>  <REMARK>
 VINA RESULT:      -7.7      0.000      0.000
  Name = 
  4 active torsions:
  status: ('A' for Active; 'I' for Inactive)
    1  A    between atoms: C_3  and  O_32
    2  A    between atoms: C_5  and  O_17
    3  A    between atoms: C_11  and  O_17
    4  A    between atoms: C_14  and  C_31
                            x       y       z     vdW  Elec       q    Type
                         _______ _______ _______ _____ _____    ______ ____

>  <TORSDO>
F 4

$$$$
=
 OpenBabel10272414503D

 37 41  0  0  1  0  0  0  0  0999 V2000
  186.2450  176.4240  136.9750 C   0  0  1  0  0  0  0  0  0  0  0  0
  188.7980  176.1690  136.4800 C   0  0  2  0  0  3  0  0  0  0  0  0
  189.4100  178.2140  138.9570 N   0  0  2  0  0  0  0  0  0  0  0  0
  184.9210  176.5390  136.1890 C   0  0  2  0  0  3  0  0  0  0  0  0
  191.0830  176.8820  137.0780 N   0  0  0  0  0  2  0  0  0  0  0  0
  188.0880  178.3320  139.5890 C   0  0  2  0  0  3  0  0  0  0  0  0
  186.2260  177.6000  134.3530 C   0  0  0  0  0  2  0  0  0  0  0  0
  189.2640  178.4690  137.5030 C   0  0  0  0  0  2  0  0  0  0  0  0
  188.2390  178.2920  141.1180 C   0  0  2  0  0  3  0  0  0  0  0  0
  192.2650  176.1410  138.9460 O   0  0  0  0  0  0  0  0  0  0  0  0
  187.3870  176.4890  135.9300 C   0  0  2  0  0  3  0  0  0  0  0  0
  190.2950  176.8730  140.8220 C   0  0  0  0  0  2  0  0  0  0  0  0
  184.9480  177.6980  135.1830 C   0  0  0  0  0  2  0  0  0  0  0  0
  191.2020  176.6230  138.4730 C   0  0  0  0  0  0  0  0  0  0  0  0
  187.3510  177.6890  135.1920 O   0  0  0  0  0  0  0  0  0  0  0  0
  187.2140  177.3010  139.1210 O   0  0  0  0  0  0  0  0  0  0  0  0
  190.0060  176.9090  139.3220 C   0  0  2  0  0  3  0  0  0  0  0  0
  186.4030  177.5170  138.0050 C   0  0  0  0  0  0  0  0  0  0  0  0
  189.7930  177.3530  136.5800 C   0  0  2  0  0  3  0  0  0  0  0  0
  185.9130  178.6630  137.8030 O   0  0  0  0  0  0  0  0  0  0  0  0
  186.2700  175.1810  137.6110 O   0  0  0  0  0  1  0  0  0  0  0  0
  188.9800  177.0320  141.5820 C   0  0  0  0  0  2  0  0  0  0  0  0
  188.0560  178.3500  144.0520 C   0  0  0  0  0  2  0  0  0  0  0  0
  186.8390  178.4470  143.2460 N   0  0  0  0  0  0  0  0  0  0  0  0
  185.8760  178.6760  141.1250 O   0  0  0  0  0  0  0  0  0  0  0  0
  185.5340  178.5890  143.9000 C   0  0  0  0  0  2  0  0  0  0  0  0
  184.4180  178.5670  146.0140 O   0  0  0  0  0  1  0  0  0  0  0  0
  186.5250  177.4360  145.9000 C   0  0  0  0  0  2  0  0  0  0  0  0
  185.6790  178.6180  145.4210 C   0  0  1  0  0  3  0  0  0  0  0  0
  186.9170  178.4690  141.8100 C   0  0  0  0  0  0  0  0  0  0  0  0
  187.8730  177.3180  145.1670 C   0  0  0  0  0  2  0  0  0  0  0  0
  189.2090  173.9310  136.7260 C   0  0  0  0  0  1  0  0  0  0  0  0
  189.3560  175.0270  135.8600 O   0  0  0  0  0  0  0  0  0  0  0  0
  183.7920  176.6260  137.0560 O   0  0  0  0  0  0  0  0  0  0  0  0
  182.8420  175.6060  137.1340 C   0  0  0  0  0  0  0  0  0  0  0  0
  181.8640  175.6900  138.0210 C   0  0  0  0  0  2  0  0  0  0  0  0
  182.9170  174.4690  136.2790 N   0  0  0  0  0  1  0  0  0  0  0  0
  1 21  1  1  0  0  0
  1 18  1  0  0  0  0
  2 33  1  6  0  0  0
  2 19  1  0  0  0  0
  3  8  1  6  0  0  0
  3 17  1  0  0  0  0
  3  6  1  0  0  0  0
  4  1  1  0  0  0  0
  4 34  1  1  0  0  0
  5 14  1  0  0  0  0
  6 16  1  6  0  0  0
  6  9  1  0  0  0  0
  7 13  1  0  0  0  0
  7 15  1  0  0  0  0
  9 22  1  0  0  0  0
  9 30  1  1  0  0  0
 11 15  1  1  0  0  0
 11  2  1  0  0  0  0
 11  1  1  0  0  0  0
 12 22  1  0  0  0  0
 13  4  1  0  0  0  0
 14 10  2  0  0  0  0
 14 17  1  0  0  0  0
 17 12  1  1  0  0  0
 18 16  1  0  0  0  0
 19  5  1  0  0  0  0
 19  8  1  1  0  0  0
 20 18  2  0  0  0  0
 23 31  1  0  0  0  0
 24 26  1  0  0  0  0
 24 23  1  0  0  0  0
 25 30  2  0  0  0  0
 26 29  1  0  0  0  0
 29 28  1  0  0  0  0
 29 27  1  1  0  0  0
 30 24  1  0  0  0  0
 31 28  1  0  0  0  0
 33 32  1  0  0  0  0
 34 35  1  0  0  0  0
 35 36  2  0  0  0  0
 37 35  1  0  0  0  0
M  END
>  <MODEL>
2

>  <REMARK>
 VINA RESULT:      -7.2      1.905      2.373
  Name = 
  4 active torsions:
  status: ('A' for Active; 'I' for Inactive)
    1  A    between atoms: C_3  and  O_32
    2  A    between atoms: C_5  and  O_17
    3  A    between atoms: C_11  and  O_17
    4  A    between atoms: C_14  and  C_31
                            x       y       z     vdW  Elec       q    Type
                         _______ _______ _______ _____ _____    ______ ____

>  <TORSDO>
F 4

$$$$
=
 OpenBabel10272414503D

 37 41  0  0  1  0  0  0  0  0999 V2000
  187.3430  176.4000  137.0520 C   0  0  1  0  0  0  0  0  0  0  0  0
  189.6890  176.3430  138.2010 C   0  0  2  0  0  3  0  0  0  0  0  0
  188.6110  178.5620  140.3480 N   0  0  2  0  0  0  0  0  0  0  0  0
  186.7530  176.3570  135.6260 C   0  0  2  0  0  3  0  0  0  0  0  0
  191.1270  177.2840  139.9720 N   0  0  0  0  0  2  0  0  0  0  0  0
  187.1710  178.5970  140.0540 C   0  0  2  0  0  3  0  0  0  0  0  0
  188.8580  177.4300  134.8380 C   0  0  0  0  0  2  0  0  0  0  0  0
  189.3590  178.7260  139.0780 C   0  0  0  0  0  2  0  0  0  0  0  0
  186.3750  178.6510  141.3680 C   0  0  2  0  0  3  0  0  0  0  0  0
  190.9780  176.7480  142.2370 O   0  0  0  0  0  0  0  0  0  0  0  0
  188.8800  176.5080  136.8920 C   0  0  2  0  0  3  0  0  0  0  0  0
  188.2490  177.4040  142.4900 C   0  0  0  0  0  2  0  0  0  0  0  0
  187.3350  177.4590  134.7290 C   0  0  0  0  0  2  0  0  0  0  0  0
  190.3940  177.1100  141.1800 C   0  0  0  0  0  0  0  0  0  0  0  0
  189.2490  177.6610  136.1690 O   0  0  0  0  0  0  0  0  0  0  0  0
  186.7950  177.4700  139.2580 O   0  0  0  0  0  0  0  0  0  0  0  0
  188.9180  177.3350  141.1180 C   0  0  2  0  0  3  0  0  0  0  0  0
  186.8090  177.5560  137.8640 C   0  0  0  0  0  0  0  0  0  0  0  0
  190.3780  177.6130  138.7620 C   0  0  2  0  0  3  0  0  0  0  0  0
  186.4950  178.6420  137.3030 O   0  0  0  0  0  0  0  0  0  0  0  0
  187.0290  175.1990  137.6920 O   0  0  0  0  0  1  0  0  0  0  0  0
  186.7360  177.4870  142.2980 C   0  0  0  0  0  2  0  0  0  0  0  0
  184.5080  179.3500  143.5290 C   0  0  0  0  0  2  0  0  0  0  0  0
  183.9930  179.0440  142.1940 N   0  0  0  0  0  0  0  0  0  0  0  0
  184.4530  178.6070  139.9420 O   0  0  0  0  0  0  0  0  0  0  0  0
  182.5510  179.1030  141.9330 C   0  0  0  0  0  2  0  0  0  0  0  0
  180.4090  179.3720  142.9590 O   0  0  0  0  0  1  0  0  0  0  0  0
  182.1930  178.6320  144.3740 C   0  0  0  0  0  2  0  0  0  0  0  0
  181.7790  179.5050  143.1880 C   0  0  1  0  0  3  0  0  0  0  0  0
  184.8980  178.7490  141.1160 C   0  0  0  0  0  0  0  0  0  0  0  0
  183.7160  178.5860  144.5920 C   0  0  0  0  0  2  0  0  0  0  0  0
  190.4620  174.6500  136.8690 C   0  0  0  0  0  1  0  0  0  0  0  0
  190.5500  175.2230  138.1480 O   0  0  0  0  0  0  0  0  0  0  0  0
  185.3280  176.3910  135.6360 O   0  0  0  0  0  0  0  0  0  0  0  0
  184.5610  175.2870  135.2590 C   0  0  0  0  0  0  0  0  0  0  0  0
  185.1370  174.2740  134.6340 C   0  0  0  0  0  2  0  0  0  0  0  0
  183.1630  175.2410  135.5280 N   0  0  0  0  0  1  0  0  0  0  0  0
  1 21  1  1  0  0  0
  1 18  1  0  0  0  0
  2 33  1  6  0  0  0
  2 19  1  0  0  0  0
  3  8  1  6  0  0  0
  3 17  1  0  0  0  0
  4 34  1  1  0  0  0
  4  1  1  0  0  0  0
  5 14  1  0  0  0  0
  6 16  1  1  0  0  0
  6  3  1  0  0  0  0
  6  9  1  0  0  0  0
  7 15  1  0  0  0  0
  9 30  1  6  0  0  0
  9 22  1  0  0  0  0
 11 15  1  1  0  0  0
 11  1  1  0  0  0  0
 11  2  1  0  0  0  0
 13  7  1  0  0  0  0
 13  4  1  0  0  0  0
 14 10  2  0  0  0  0
 17 14  1  0  0  0  0
 17 12  1  1  0  0  0
 18 16  1  0  0  0  0
 19  8  1  1  0  0  0
 19  5  1  0  0  0  0
 20 18  2  0  0  0  0
 22 12  1  0  0  0  0
 23 31  1  0  0  0  0
 24 23  1  0  0  0  0
 25 30  2  0  0  0  0
 26 24  1  0  0  0  0
 26 29  1  0  0  0  0
 28 31  1  0  0  0  0
 29 27  1  6  0  0  0
 29 28  1  0  0  0  0
 30 24  1  0  0  0  0
 32 33  1  0  0  0  0
 35 37  1  0  0  0  0
 35 34  1  0  0  0  0
 36 35  2  0  0  0  0
M  END
>  <MODEL>
3

>  <REMARK>
 VINA RESULT:      -7.1      2.972      4.777
  Name = 
  4 active torsions:
  status: ('A' for Active; 'I' for Inactive)
    1  A    between atoms: C_3  and  O_32
    2  A    between atoms: C_5  and  O_17
    3  A    between atoms: C_11  and  O_17
    4  A    between atoms: C_14  and  C_31
                            x       y       z     vdW  Elec       q    Type
                         _______ _______ _______ _____ _____    ______ ____

>  <TORSDO>
F 4

$$$$
=
 OpenBabel10272414503D

 37 41  0  0  1  0  0  0  0  0999 V2000
  190.1610  176.3300  142.2510 C   0  0  1  0  0  0  0  0  0  0  0  0
  190.8720  176.4690  144.7610 C   0  0  2  0  0  3  0  0  0  0  0  0
  188.3830  178.5240  145.2800 N   0  0  2  0  0  0  0  0  0  0  0  0
  190.8300  176.2650  140.8620 C   0  0  2  0  0  3  0  0  0  0  0  0
  190.4380  177.5000  146.9610 N   0  0  0  0  0  2  0  0  0  0  0  0
  187.6400  178.4300  144.0140 C   0  0  2  0  0  3  0  0  0  0  0  0
  192.7290  177.5510  141.8340 C   0  0  0  0  0  2  0  0  0  0  0  0
  189.8090  178.7890  144.9740 C   0  0  0  0  0  2  0  0  0  0  0  0
  186.1310  178.3780  144.3020 C   0  0  2  0  0  3  0  0  0  0  0  0
  188.7010  176.8990  148.3960 O   0  0  0  0  0  0  0  0  0  0  0  0
  191.2930  176.5880  143.2770 C   0  0  2  0  0  3  0  0  0  0  0  0
  186.6450  177.2870  146.5090 C   0  0  0  0  0  2  0  0  0  0  0  0
  191.7940  177.4380  140.6320 C   0  0  0  0  0  2  0  0  0  0  0  0
  189.0680  177.2290  147.2370 C   0  0  0  0  0  0  0  0  0  0  0  0
  191.9820  177.7870  143.0020 O   0  0  0  0  0  0  0  0  0  0  0  0
  188.0720  177.2920  143.2640 O   0  0  0  0  0  0  0  0  0  0  0  0
  188.1140  177.3150  146.0900 C   0  0  2  0  0  3  0  0  0  0  0  0
  189.1090  177.4110  142.3370 C   0  0  0  0  0  0  0  0  0  0  0  0
  190.8120  177.7850  145.5780 C   0  0  2  0  0  3  0  0  0  0  0  0
  189.2290  178.4760  141.6680 O   0  0  0  0  0  0  0  0  0  0  0  0
  189.5730  175.0900  142.5130 O   0  0  0  0  0  1  0  0  0  0  0  0
  185.7750  177.2320  145.2560 C   0  0  0  0  0  2  0  0  0  0  0  0
  183.3660  179.3750  144.2250 C   0  0  0  0  0  2  0  0  0  0  0  0
  183.9600  178.7880  143.0240 N   0  0  0  0  0  0  0  0  0  0  0  0
  185.8690  177.9490  141.9610 O   0  0  0  0  0  0  0  0  0  0  0  0
  183.1840  178.7130  141.7820 C   0  0  0  0  0  2  0  0  0  0  0  0
  181.0170  179.0540  140.8330 O   0  0  0  0  0  1  0  0  0  0  0  0
  181.1100  178.7040  143.1990 C   0  0  0  0  0  2  0  0  0  0  0  0
  181.7880  179.3060  141.9670 C   0  0  1  0  0  3  0  0  0  0  0  0
  185.3270  178.3400  143.0330 C   0  0  0  0  0  0  0  0  0  0  0  0
  181.9740  178.7870  144.4700 C   0  0  0  0  0  2  0  0  0  0  0  0
  192.2950  174.6990  144.4710 C   0  0  0  0  0  1  0  0  0  0  0  0
  191.5750  175.4370  145.4250 O   0  0  0  0  0  0  0  0  0  0  0  0
  189.8720  176.1630  139.8110 O   0  0  0  0  0  0  0  0  0  0  0  0
  190.2530  176.0330  138.4750 C   0  0  0  0  0  0  0  0  0  0  0  0
  189.8300  176.9140  137.5850 C   0  0  0  0  0  2  0  0  0  0  0  0
  191.0850  174.9550  138.0540 N   0  0  0  0  0  1  0  0  0  0  0  0
  1 18  1  0  0  0  0
  1 21  1  1  0  0  0
  1 11  1  0  0  0  0
  2 33  1  1  0  0  0
  2 19  1  0  0  0  0
  3  8  1  6  0  0  0
  3 17  1  0  0  0  0
  4 34  1  6  0  0  0
  4  1  1  0  0  0  0
  5 14  1  0  0  0  0
  6 16  1  1  0  0  0
  6  9  1  0  0  0  0
  6  3  1  0  0  0  0
  7 15  1  0  0  0  0
  9 30  1  6  0  0  0
  9 22  1  0  0  0  0
 11 15  1  1  0  0  0
 11  2  1  0  0  0  0
 13  4  1  0  0  0  0
 13  7  1  0  0  0  0
 14 10  2  0  0  0  0
 17 12  1  1  0  0  0
 17 14  1  0  0  0  0
 18 16  1  0  0  0  0
 19  8  1  6  0  0  0
 19  5  1  0  0  0  0
 20 18  2  0  0  0  0
 22 12  1  0  0  0  0
 23 31  1  0  0  0  0
 24 30  1  0  0  0  0
 24 23  1  0  0  0  0
 25 30  2  0  0  0  0
 26 29  1  0  0  0  0
 26 24  1  0  0  0  0
 28 31  1  0  0  0  0
 29 27  1  6  0  0  0
 29 28  1  0  0  0  0
 32 33  1  0  0  0  0
 35 34  1  0  0  0  0
 36 35  2  0  0  0  0
 37 35  1  0  0  0  0
M  END
>  <MODEL>
4

>  <REMARK>
 VINA RESULT:      -6.2      3.707      8.595
  Name = 
  4 active torsions:
  status: ('A' for Active; 'I' for Inactive)
    1  A    between atoms: C_3  and  O_32
    2  A    between atoms: C_5  and  O_17
    3  A    between atoms: C_11  and  O_17
    4  A    between atoms: C_14  and  C_31
                            x       y       z     vdW  Elec       q    Type
                         _______ _______ _______ _____ _____    ______ ____

>  <TORSDO>
F 4

$$$$
=
 OpenBabel10272414503D

 37 41  0  0  1  0  0  0  0  0999 V2000
  190.0470  176.5200  142.8620 C   0  0  1  0  0  0  0  0  0  0  0  0
  187.8780  177.6460  141.9380 C   0  0  2  0  0  3  0  0  0  0  0  0
  189.4030  178.0720  139.0770 N   0  0  2  0  0  0  0  0  0  0  0  0
  190.8630  176.4840  144.1720 C   0  0  2  0  0  3  0  0  0  0  0  0
  186.8160  178.7880  140.0250 N   0  0  0  0  0  2  0  0  0  0  0  0
  190.6250  177.2770  139.2610 C   0  0  2  0  0  3  0  0  0  0  0  0
  190.0360  178.7880  144.6260 C   0  0  0  0  0  2  0  0  0  0  0  0
  189.2500  178.9820  140.2380 C   0  0  0  0  0  2  0  0  0  0  0  0
  190.9280  176.4870  137.9770 C   0  0  2  0  0  3  0  0  0  0  0  0
  186.0280  177.7230  138.1070 O   0  0  0  0  0  0  0  0  0  0  0  0
  188.9510  177.5990  143.0520 C   0  0  2  0  0  3  0  0  0  0  0  0
  188.4610  176.4460  137.4870 C   0  0  0  0  0  2  0  0  0  0  0  0
  191.2700  177.8890  144.6350 C   0  0  0  0  0  2  0  0  0  0  0  0
  186.9690  177.8960  138.9260 C   0  0  0  0  0  0  0  0  0  0  0  0
  189.5080  178.8650  143.3250 O   0  0  0  0  0  0  0  0  0  0  0  0
  190.4940  176.4110  140.3910 O   0  0  0  0  0  0  0  0  0  0  0  0
  188.2650  177.1600  138.8230 C   0  0  2  0  0  3  0  0  0  0  0  0
  190.9020  176.8370  141.6570 C   0  0  0  0  0  0  0  0  0  0  0  0
  187.9090  178.8740  140.9910 C   0  0  2  0  0  3  0  0  0  0  0  0
  191.9110  177.5880  141.7660 O   0  0  0  0  0  0  0  0  0  0  0  0
  189.4430  175.2730  142.6860 O   0  0  0  0  0  1  0  0  0  0  0  0
  189.7400  175.6140  137.5540 C   0  0  0  0  0  2  0  0  0  0  0  0
  191.6890  174.5030  135.9450 C   0  0  0  0  0  2  0  0  0  0  0  0
  192.5380  174.7030  137.1200 N   0  0  0  0  0  0  0  0  0  0  0  0
  193.0040  175.9530  139.0430 O   0  0  0  0  0  0  0  0  0  0  0  0
  193.7720  173.9260  137.2740 C   0  0  0  0  0  2  0  0  0  0  0  0
  195.0520  172.1270  136.3580 O   0  0  0  0  0  1  0  0  0  0  0  0
  192.7140  172.1510  135.8460 C   0  0  0  0  0  2  0  0  0  0  0  0
  193.9780  172.9760  136.0950 C   0  0  1  0  0  3  0  0  0  0  0  0
  192.2040  175.7030  138.0970 C   0  0  0  0  0  0  0  0  0  0  0  0
  191.4440  173.0110  135.7140 C   0  0  0  0  0  2  0  0  0  0  0  0
  186.5660  177.6630  143.8140 C   0  0  0  0  0  1  0  0  0  0  0  0
  186.5860  177.3670  142.4410 O   0  0  0  0  0  0  0  0  0  0  0  0
  191.9920  175.6190  144.0740 O   0  0  0  0  0  0  0  0  0  0  0  0
  192.3540  174.7580  145.1110 C   0  0  0  0  0  0  0  0  0  0  0  0
  192.3570  175.2010  146.3570 C   0  0  0  0  0  2  0  0  0  0  0  0
  192.7320  173.4100  144.8460 N   0  0  0  0  0  1  0  0  0  0  0  0
  1 21  1  6  0  0  0
  1 11  1  0  0  0  0
  1  4  1  0  0  0  0
  2 33  1  1  0  0  0
  2 11  1  0  0  0  0
  3  6  1  0  0  0  0
  3  8  1  1  0  0  0
  4 34  1  6  0  0  0
  4 13  1  0  0  0  0
  5 19  1  0  0  0  0
  6 16  1  1  0  0  0
  7 13  1  0  0  0  0
  9 30  1  1  0  0  0
  9  6  1  0  0  0  0
 10 14  2  0  0  0  0
 11 15  1  6  0  0  0
 12 22  1  0  0  0  0
 14  5  1  0  0  0  0
 15  7  1  0  0  0  0
 16 18  1  0  0  0  0
 17 12  1  6  0  0  0
 17 14  1  0  0  0  0
 17  3  1  0  0  0  0
 18 20  2  0  0  0  0
 18  1  1  0  0  0  0
 19  8  1  6  0  0  0
 19  2  1  0  0  0  0
 22  9  1  0  0  0  0
 23 24  1  0  0  0  0
 24 26  1  0  0  0  0
 24 30  1  0  0  0  0
 28 29  1  0  0  0  0
 29 27  1  1  0  0  0
 29 26  1  0  0  0  0
 30 25  2  0  0  0  0
 31 28  1  0  0  0  0
 31 23  1  0  0  0  0
 33 32  1  0  0  0  0
 34 35  1  0  0  0  0
 35 36  2  0  0  0  0
 37 35  1  0  0  0  0
M  END
>  <MODEL>
5

>  <REMARK>
 VINA RESULT:      -6.0      2.946      8.004
  Name = 
  4 active torsions:
  status: ('A' for Active; 'I' for Inactive)
    1  A    between atoms: C_3  and  O_32
    2  A    between atoms: C_5  and  O_17
    3  A    between atoms: C_11  and  O_17
    4  A    between atoms: C_14  and  C_31
                            x       y       z     vdW  Elec       q    Type
                         _______ _______ _______ _____ _____    ______ ____

>  <TORSDO>
F 4

$$$$
=
 OpenBabel10272414503D

 37 41  0  0  1  0  0  0  0  0999 V2000
  184.1970  179.1940  138.7350 C   0  0  1  0  0  0  0  0  0  0  0  0
  181.7430  179.5800  139.5480 C   0  0  2  0  0  3  0  0  0  0  0  0
  182.5290  178.1380  142.3760 N   0  0  2  0  0  0  0  0  0  0  0  0
  184.9360  178.8020  137.4390 C   0  0  2  0  0  3  0  0  0  0  0  0
  180.1010  179.2150  141.3530 N   0  0  0  0  0  2  0  0  0  0  0  0
  183.9910  178.0270  142.2670 C   0  0  2  0  0  3  0  0  0  0  0  0
  182.9020  177.5190  136.7910 C   0  0  0  0  0  2  0  0  0  0  0  0
  181.9180  177.5840  141.1430 C   0  0  0  0  0  2  0  0  0  0  0  0
  184.6400  178.3870  143.6130 C   0  0  2  0  0  3  0  0  0  0  0  0
  180.0200  180.4220  143.3460 O   0  0  0  0  0  0  0  0  0  0  0  0
  182.6830  179.0270  138.4490 C   0  0  2  0  0  3  0  0  0  0  0  0
  182.6880  179.9010  144.0860 C   0  0  0  0  0  2  0  0  0  0  0  0
  184.4270  177.4720  136.8650 C   0  0  0  0  0  2  0  0  0  0  0  0
  180.7040  179.7590  142.5220 C   0  0  0  0  0  0  0  0  0  0  0  0
  182.3660  177.7050  138.0780 O   0  0  0  0  0  0  0  0  0  0  0  0
  184.4790  178.8580  141.2090 O   0  0  0  0  0  0  0  0  0  0  0  0
  182.1720  179.5390  142.6950 C   0  0  2  0  0  3  0  0  0  0  0  0
  184.6110  178.3480  139.9170 C   0  0  0  0  0  0  0  0  0  0  0  0
  180.9660  178.5360  140.3920 C   0  0  2  0  0  3  0  0  0  0  0  0
  184.9570  177.1450  139.7530 O   0  0  0  0  0  0  0  0  0  0  0  0
  184.4700  180.5360  139.0070 O   0  0  0  0  0  1  0  0  0  0  0  0
  184.2100  179.7770  144.0960 C   0  0  0  0  0  2  0  0  0  0  0  0
  186.1470  177.4820  145.9700 C   0  0  0  0  0  2  0  0  0  0  0  0
  186.8600  177.8330  144.7420 N   0  0  0  0  0  0  0  0  0  0  0  0
  186.7470  178.4130  142.4770 O   0  0  0  0  0  0  0  0  0  0  0  0
  188.3210  177.7180  144.6830 C   0  0  0  0  0  2  0  0  0  0  0  0
  190.2810  177.2880  145.9830 O   0  0  0  0  0  1  0  0  0  0  0  0
  188.3450  178.0390  147.1740 C   0  0  0  0  0  2  0  0  0  0  0  0
  188.8880  177.2110  146.0080 C   0  0  1  0  0  3  0  0  0  0  0  0
  186.1330  178.2310  143.5660 C   0  0  0  0  0  0  0  0  0  0  0  0
  186.8090  178.1480  147.1780 C   0  0  0  0  0  2  0  0  0  0  0  0
  181.1230  180.7410  137.6750 C   0  0  0  0  0  1  0  0  0  0  0  0
  180.9200  180.6210  139.0600 O   0  0  0  0  0  0  0  0  0  0  0  0
  186.3510  178.7860  137.6150 O   0  0  0  0  0  0  0  0  0  0  0  0
  187.1650  177.8560  136.9670 C   0  0  0  0  0  0  0  0  0  0  0  0
  187.4850  178.0400  135.6970 C   0  0  0  0  0  2  0  0  0  0  0  0
  187.6470  176.7030  137.6510 N   0  0  0  0  0  1  0  0  0  0  0  0
  1 21  1  1  0  0  0
  1 18  1  0  0  0  0
  2 33  1  6  0  0  0
  2 19  1  0  0  0  0
  3  8  1  6  0  0  0
  3 17  1  0  0  0  0
  4 34  1  1  0  0  0
  4  1  1  0  0  0  0
  5 14  1  0  0  0  0
  6 16  1  6  0  0  0
  6  3  1  0  0  0  0
  6  9  1  0  0  0  0
  7 13  1  0  0  0  0
  7 15  1  0  0  0  0
  9 30  1  6  0  0  0
  9 22  1  0  0  0  0
 11 15  1  1  0  0  0
 11  1  1  0  0  0  0
 11  2  1  0  0  0  0
 12 22  1  0  0  0  0
 13  4  1  0  0  0  0
 14 17  1  0  0  0  0
 14 10  2  0  0  0  0
 17 12  1  1  0  0  0
 18 16  1  0  0  0  0
 19  8  1  1  0  0  0
 19  5  1  0  0  0  0
 20 18  2  0  0  0  0
 23 31  1  0  0  0  0
 24 23  1  0  0  0  0
 25 30  2  0  0  0  0
 26 24  1  0  0  0  0
 26 29  1  0  0  0  0
 28 31  1  0  0  0  0
 29 27  1  6  0  0  0
 29 28  1  0  0  0  0
 30 24  1  0  0  0  0
 32 33  1  0  0  0  0
 35 34  1  0  0  0  0
 35 37  1  0  0  0  0
 36 35  2  0  0  0  0
M  END
>  <MODEL>
6

>  <REMARK>
 VINA RESULT:      -6.0      3.760      7.260
  Name = 
  4 active torsions:
  status: ('A' for Active; 'I' for Inactive)
    1  A    between atoms: C_3  and  O_32
    2  A    between atoms: C_5  and  O_17
    3  A    between atoms: C_11  and  O_17
    4  A    between atoms: C_14  and  C_31
                            x       y       z     vdW  Elec       q    Type
                         _______ _______ _______ _____ _____    ______ ____

>  <TORSDO>
F 4

$$$$
=
 OpenBabel10272414503D

 37 41  0  0  1  0  0  0  0  0999 V2000
  183.3710  177.8400  138.9710 C   0  0  1  0  0  0  0  0  0  0  0  0
  182.2670  176.4910  137.0240 C   0  0  2  0  0  3  0  0  0  0  0  0
  185.1930  176.3260  135.5730 N   0  0  2  0  0  0  0  0  0  0  0  0
  183.0310  179.0340  139.8870 C   0  0  2  0  0  3  0  0  0  0  0  0
  182.6010  175.4120  134.8300 N   0  0  0  0  0  2  0  0  0  0  0  0
  186.0850  176.8320  136.6270 C   0  0  2  0  0  3  0  0  0  0  0  0
  181.6220  179.9190  138.0340 C   0  0  0  0  0  2  0  0  0  0  0  0
  184.0760  177.2860  135.3960 C   0  0  0  0  0  2  0  0  0  0  0  0
  187.3610  175.9770  136.6800 C   0  0  2  0  0  3  0  0  0  0  0  0
  183.6330  173.3470  134.5030 O   0  0  0  0  0  0  0  0  0  0  0  0
  182.2410  177.7580  137.9130 C   0  0  2  0  0  3  0  0  0  0  0  0
  186.0200  174.0230  135.8370 C   0  0  0  0  0  2  0  0  0  0  0  0
  182.6670  180.2910  139.0830 C   0  0  0  0  0  2  0  0  0  0  0  0
  183.6710  174.4930  135.0250 C   0  0  0  0  0  0  0  0  0  0  0  0
  182.1430  178.9470  137.1620 O   0  0  0  0  0  0  0  0  0  0  0  0
  185.4110  176.8500  137.8880 O   0  0  0  0  0  0  0  0  0  0  0  0
  184.7980  174.9370  135.9000 C   0  0  2  0  0  3  0  0  0  0  0  0
  184.7170  177.9880  138.3010 C   0  0  0  0  0  0  0  0  0  0  0  0
  182.6620  176.6890  135.5380 C   0  0  2  0  0  3  0  0  0  0  0  0
  185.1600  179.1320  138.0000 O   0  0  0  0  0  0  0  0  0  0  0  0
  183.3640  176.6770  139.7450 O   0  0  0  0  0  1  0  0  0  0  0  0
  187.0400  174.4900  136.8740 C   0  0  0  0  0  2  0  0  0  0  0  0
  190.2620  175.6770  136.3120 C   0  0  0  0  0  2  0  0  0  0  0  0
  189.7450  176.2970  137.5320 N   0  0  0  0  0  0  0  0  0  0  0  0
  187.9020  177.1390  138.7030 O   0  0  0  0  0  0  0  0  0  0  0  0
  190.6720  176.7800  138.5600 C   0  0  0  0  0  2  0  0  0  0  0  0
  192.9690  176.8400  139.2190 O   0  0  0  0  0  1  0  0  0  0  0  0
  192.3260  175.0870  137.7210 C   0  0  0  0  0  2  0  0  0  0  0  0
  192.1240  176.5410  138.1510 C   0  0  1  0  0  3  0  0  0  0  0  0
  188.3310  176.4940  137.7040 C   0  0  0  0  0  0  0  0  0  0  0  0
  191.3150  174.6210  136.6580 C   0  0  0  0  0  2  0  0  0  0  0  0
  181.3990  174.6220  138.0200 C   0  0  0  0  0  1  0  0  0  0  0  0
  181.0980  175.7120  137.1870 O   0  0  0  0  0  0  0  0  0  0  0  0
  184.0700  179.2990  140.8270 O   0  0  0  0  0  0  0  0  0  0  0  0
  184.0340  178.7940  142.1280 C   0  0  0  0  0  0  0  0  0  0  0  0
  185.1360  178.3040  142.6700 C   0  0  0  0  0  2  0  0  0  0  0  0
  182.8220  178.7880  142.8770 N   0  0  0  0  0  1  0  0  0  0  0  0
  1 21  1  1  0  0  0
  1  4  1  0  0  0  0
  2 33  1  6  0  0  0
  2 11  1  0  0  0  0
  3  8  1  1  0  0  0
  3 17  1  0  0  0  0
  3  6  1  0  0  0  0
  4 34  1  6  0  0  0
  5 14  1  0  0  0  0
  5 19  1  0  0  0  0
  6  9  1  0  0  0  0
  6 16  1  1  0  0  0
  7 13  1  0  0  0  0
  9 22  1  0  0  0  0
  9 30  1  1  0  0  0
 10 14  2  0  0  0  0
 11 15  1  6  0  0  0
 11  1  1  0  0  0  0
 12 22  1  0  0  0  0
 13  4  1  0  0  0  0
 14 17  1  0  0  0  0
 15  7  1  0  0  0  0
 16 18  1  0  0  0  0
 17 12  1  6  0  0  0
 18  1  1  0  0  0  0
 19  8  1  1  0  0  0
 19  2  1  0  0  0  0
 20 18  2  0  0  0  0
 23 31  1  0  0  0  0
 23 24  1  0  0  0  0
 24 30  1  0  0  0  0
 24 26  1  0  0  0  0
 28 29  1  0  0  0  0
 29 26  1  0  0  0  0
 29 27  1  1  0  0  0
 30 25  2  0  0  0  0
 31 28  1  0  0  0  0
 33 32  1  0  0  0  0
 34 35  1  0  0  0  0
 35 36  2  0  0  0  0
 35 37  1  0  0  0  0
M  END
>  <MODEL>
7

>  <REMARK>
 VINA RESULT:      -5.9      2.922      5.651
  Name = 
  4 active torsions:
  status: ('A' for Active; 'I' for Inactive)
    1  A    between atoms: C_3  and  O_32
    2  A    between atoms: C_5  and  O_17
    3  A    between atoms: C_11  and  O_17
    4  A    between atoms: C_14  and  C_31
                            x       y       z     vdW  Elec       q    Type
                         _______ _______ _______ _____ _____    ______ ____

>  <TORSDO>
F 4

$$$$
=
 OpenBabel10272414503D

 37 41  0  0  1  0  0  0  0  0999 V2000
  183.2320  177.4280  139.0410 C   0  0  1  0  0  0  0  0  0  0  0  0
  181.2800  176.6150  137.5060 C   0  0  2  0  0  3  0  0  0  0  0  0
  183.5040  175.3990  135.4410 N   0  0  2  0  0  0  0  0  0  0  0  0
  183.5810  178.6490  139.9180 C   0  0  2  0  0  3  0  0  0  0  0  0
  180.6610  175.5230  135.3810 N   0  0  0  0  0  2  0  0  0  0  0  0
  184.7440  175.5210  136.2210 C   0  0  2  0  0  3  0  0  0  0  0  0
  182.1900  180.0220  138.3750 C   0  0  0  0  0  2  0  0  0  0  0  0
  182.8060  176.7070  135.4520 C   0  0  0  0  0  2  0  0  0  0  0  0
  185.5950  174.2530  136.0450 C   0  0  2  0  0  3  0  0  0  0  0  0
  180.7600  173.2280  134.9830 O   0  0  0  0  0  0  0  0  0  0  0  0
  181.9310  177.7870  138.2790 C   0  0  2  0  0  3  0  0  0  0  0  0
  183.4750  172.9490  135.6810 C   0  0  0  0  0  2  0  0  0  0  0  0
  183.5180  179.9630  139.1260 C   0  0  0  0  0  2  0  0  0  0  0  0
  181.3360  174.2700  135.3950 C   0  0  0  0  0  0  0  0  0  0  0  0
  182.0950  178.9390  137.4830 O   0  0  0  0  0  0  0  0  0  0  0  0
  184.4480  175.7680  137.5980 O   0  0  0  0  0  0  0  0  0  0  0  0
  182.7230  174.2510  135.9520 C   0  0  2  0  0  3  0  0  0  0  0  0
  184.3370  177.0770  138.0720 C   0  0  0  0  0  0  0  0  0  0  0  0
  181.3500  176.6750  135.9580 C   0  0  2  0  0  3  0  0  0  0  0  0
  185.0790  177.9790  137.5910 O   0  0  0  0  0  0  0  0  0  0  0  0
  182.9900  176.3390  139.8820 O   0  0  0  0  0  1  0  0  0  0  0  0
  184.8120  172.9890  136.4180 C   0  0  0  0  0  2  0  0  0  0  0  0
  187.5550  176.3370  135.3670 C   0  0  0  0  0  2  0  0  0  0  0  0
  187.8700  175.3530  136.4020 N   0  0  0  0  0  0  0  0  0  0  0  0
  187.1340  173.5900  137.7550 O   0  0  0  0  0  0  0  0  0  0  0  0
  189.1530  175.4160  137.1090 C   0  0  0  0  0  2  0  0  0  0  0  0
  191.2780  176.5100  137.1660 O   0  0  0  0  0  1  0  0  0  0  0  0
  190.0960  176.5650  135.0840 C   0  0  0  0  0  2  0  0  0  0  0  0
  190.0000  176.5850  136.6110 C   0  0  1  0  0  3  0  0  0  0  0  0
  186.9020  174.3570  136.7780 C   0  0  0  0  0  0  0  0  0  0  0  0
  188.7250  176.4750  134.3910 C   0  0  0  0  0  2  0  0  0  0  0  0
  180.0580  175.1830  138.8070 C   0  0  0  0  0  1  0  0  0  0  0  0
  179.9840  176.3230  137.9910 O   0  0  0  0  0  0  0  0  0  0  0  0
  184.8380  178.4940  140.5720 O   0  0  0  0  0  0  0  0  0  0  0  0
  184.9470  178.4690  141.9640 C   0  0  0  0  0  0  0  0  0  0  0  0
  183.8720  178.6700  142.7070 C   0  0  0  0  0  2  0  0  0  0  0  0
  186.2040  178.2410  142.5950 N   0  0  0  0  0  1  0  0  0  0  0  0
  1 21  1  1  0  0  0
  1  4  1  0  0  0  0
  2 33  1  6  0  0  0
  2 11  1  0  0  0  0
  3  8  1  1  0  0  0
  3 17  1  0  0  0  0
  3  6  1  0  0  0  0
  4 34  1  6  0  0  0
  5 14  1  0  0  0  0
  5 19  1  0  0  0  0
  6 16  1  1  0  0  0
  7 13  1  0  0  0  0
  9  6  1  0  0  0  0
  9 22  1  0  0  0  0
  9 30  1  1  0  0  0
 10 14  2  0  0  0  0
 11 15  1  6  0  0  0
 11  1  1  0  0  0  0
 12 22  1  0  0  0  0
 13  4  1  0  0  0  0
 14 17  1  0  0  0  0
 15  7  1  0  0  0  0
 16 18  1  0  0  0  0
 17 12  1  6  0  0  0
 18  1  1  0  0  0  0
 19  8  1  1  0  0  0
 19  2  1  0  0  0  0
 20 18  2  0  0  0  0
 23 24  1  0  0  0  0
 24 30  1  0  0  0  0
 24 26  1  0  0  0  0
 28 29  1  0  0  0  0
 29 26  1  0  0  0  0
 29 27  1  1  0  0  0
 30 25  2  0  0  0  0
 31 28  1  0  0  0  0
 31 23  1  0  0  0  0
 33 32  1  0  0  0  0
 34 35  1  0  0  0  0
 35 37  1  0  0  0  0
 35 36  2  0  0  0  0
M  END
>  <MODEL>
8

>  <REMARK>
 VINA RESULT:      -5.8      3.204      6.980
  Name = 
  4 active torsions:
  status: ('A' for Active; 'I' for Inactive)
    1  A    between atoms: C_3  and  O_32
    2  A    between atoms: C_5  and  O_17
    3  A    between atoms: C_11  and  O_17
    4  A    between atoms: C_14  and  C_31
                            x       y       z     vdW  Elec       q    Type
                         _______ _______ _______ _____ _____    ______ ____

>  <TORSDO>
F 4

$$$$
=
 OpenBabel10272414503D

 37 41  0  0  1  0  0  0  0  0999 V2000
  188.1620  176.9670  143.4540 C   0  0  1  0  0  0  0  0  0  0  0  0
  186.3570  177.7540  145.1720 C   0  0  2  0  0  3  0  0  0  0  0  0
  184.9630  179.5130  142.7940 N   0  0  2  0  0  0  0  0  0  0  0  0
  189.6800  176.6880  143.4180 C   0  0  2  0  0  3  0  0  0  0  0  0
  184.3790  179.1770  145.5600 N   0  0  0  0  0  2  0  0  0  0  0  0
  185.6830  179.0400  141.6030 C   0  0  2  0  0  3  0  0  0  0  0  0
  189.9300  178.4040  145.2050 C   0  0  0  0  0  2  0  0  0  0  0  0
  185.9560  179.8950  143.8270 C   0  0  0  0  0  2  0  0  0  0  0  0
  184.6930  178.8460  140.4420 C   0  0  2  0  0  3  0  0  0  0  0  0
  182.2160  178.6770  144.8460 O   0  0  0  0  0  0  0  0  0  0  0  0
  187.8600  177.5980  144.8370 C   0  0  2  0  0  3  0  0  0  0  0  0
  182.8950  178.3530  142.1310 C   0  0  0  0  0  2  0  0  0  0  0  0
  190.4990  177.9020  143.8800 C   0  0  0  0  0  2  0  0  0  0  0  0
  183.4390  178.7890  144.5640 C   0  0  0  0  0  0  0  0  0  0  0  0
  188.5880  178.7880  145.0360 O   0  0  0  0  0  0  0  0  0  0  0  0
  186.3950  177.8340  141.8930 O   0  0  0  0  0  0  0  0  0  0  0  0
  183.9770  178.4870  143.2020 C   0  0  2  0  0  3  0  0  0  0  0  0
  187.7160  177.8850  142.3410 C   0  0  0  0  0  0  0  0  0  0  0  0
  185.7930  179.1970  145.1920 C   0  0  2  0  0  3  0  0  0  0  0  0
  188.4890  178.7820  141.9020 O   0  0  0  0  0  0  0  0  0  0  0  0
  187.4900  175.7470  143.3460 O   0  0  0  0  0  1  0  0  0  0  0  0
  183.5470  177.9020  140.8250 C   0  0  0  0  0  2  0  0  0  0  0  0
  183.1750  178.1110  138.0340 C   0  0  0  0  0  2  0  0  0  0  0  0
  184.6350  178.0170  138.0300 N   0  0  0  0  0  0  0  0  0  0  0  0
  186.6550  178.4510  139.1280 O   0  0  0  0  0  0  0  0  0  0  0  0
  185.3380  177.5730  136.8220 C   0  0  0  0  0  2  0  0  0  0  0  0
  185.0340  176.6740  134.6280 O   0  0  0  0  0  1  0  0  0  0  0  0
  183.2490  176.3310  136.1850 C   0  0  0  0  0  2  0  0  0  0  0  0
  184.3560  177.2660  135.6930 C   0  0  1  0  0  3  0  0  0  0  0  0
  185.3930  178.4200  139.1840 C   0  0  0  0  0  0  0  0  0  0  0  0
  182.5580  176.8300  137.4670 C   0  0  0  0  0  2  0  0  0  0  0  0
  186.8220  177.3770  147.3820 C   0  0  0  0  0  1  0  0  0  0  0  0
  185.9930  177.0000  146.3120 O   0  0  0  0  0  0  0  0  0  0  0  0
  190.1080  176.2260  142.1390 O   0  0  0  0  0  0  0  0  0  0  0  0
  191.0370  176.9320  141.3730 C   0  0  0  0  0  0  0  0  0  0  0  0
  190.7410  177.2650  140.1280 C   0  0  0  0  0  2  0  0  0  0  0  0
  192.3080  177.2880  141.9110 N   0  0  0  0  0  1  0  0  0  0  0  0
  1 21  1  6  0  0  0
  1 11  1  0  0  0  0
  2 19  1  0  0  0  0
  2 33  1  1  0  0  0
  3 17  1  0  0  0  0
  3  8  1  1  0  0  0
  4 34  1  6  0  0  0
  4  1  1  0  0  0  0
  4 13  1  0  0  0  0
  6 16  1  1  0  0  0
  6  3  1  0  0  0  0
  9 30  1  6  0  0  0
  9 22  1  0  0  0  0
  9  6  1  0  0  0  0
 11 15  1  6  0  0  0
 11  2  1  0  0  0  0
 13  7  1  0  0  0  0
 14 10  2  0  0  0  0
 14  5  1  0  0  0  0
 15  7  1  0  0  0  0
 16 18  1  0  0  0  0
 17 12  1  6  0  0  0
 17 14  1  0  0  0  0
 18  1  1  0  0  0  0
 19  8  1  6  0  0  0
 19  5  1  0  0  0  0
 20 18  2  0  0  0  0
 22 12  1  0  0  0  0
 24 23  1  0  0  0  0
 24 30  1  0  0  0  0
 25 30  2  0  0  0  0
 26 24  1  0  0  0  0
 28 31  1  0  0  0  0
 29 27  1  6  0  0  0
 29 28  1  0  0  0  0
 29 26  1  0  0  0  0
 31 23  1  0  0  0  0
 33 32  1  0  0  0  0
 35 37  1  0  0  0  0
 35 34  1  0  0  0  0
 36 35  2  0  0  0  0
M  END
>  <MODEL>
9

>  <REMARK>
 VINA RESULT:      -5.8      3.156      9.244
  Name = 
  4 active torsions:
  status: ('A' for Active; 'I' for Inactive)
    1  A    between atoms: C_3  and  O_32
    2  A    between atoms: C_5  and  O_17
    3  A    between atoms: C_11  and  O_17
    4  A    between atoms: C_14  and  C_31
                            x       y       z     vdW  Elec       q    Type
                         _______ _______ _______ _____ _____    ______ ____

>  <TORSDO>
F 4

$$$$
