=
 OpenBabel10272400333D

 31 35  0  0  1  0  0  0  0  0999 V2000
  192.1920  174.8200  136.2130 C   0  0  2  0  0  3  0  0  0  0  0  0
  189.2920  176.2670  138.3480 C   0  0  1  0  0  3  0  0  0  0  0  0
  188.2260  176.4270  137.2500 C   0  0  1  0  0  3  0  0  0  0  0  0
  186.8830  174.9450  135.7160 C   0  0  0  0  0  2  0  0  0  0  0  0
  190.6890  176.1950  137.7160 C   0  0  2  0  0  3  0  0  0  0  0  0
  193.2690  174.8270  137.2980 C   0  0  0  0  0  2  0  0  0  0  0  0
  187.3670  175.1770  137.1460 C   0  0  0  0  0  2  0  0  0  0  0  0
  190.4100  177.3990  140.3610 C   0  0  1  0  0  3  0  0  0  0  0  0
  192.4120  175.8530  135.3010 O   0  0  0  0  0  1  0  0  0  0  0  0
  187.5890  178.7200  138.2770 N   0  0  0  0  0  2  0  0  0  0  0  0
  186.0080  176.0830  135.1950 C   0  0  0  0  0  2  0  0  0  0  0  0
  191.6970  177.3340  139.6580 N   0  0  0  0  0  2  0  0  0  0  0  0
  189.1960  177.3510  139.4260 C   0  0  1  0  0  3  0  0  0  0  0  0
  190.8000  174.9450  136.8340 C   0  0  0  0  0  2  0  0  0  0  0  0
  186.8790  177.2640  134.7750 C   0  0  0  0  0  2  0  0  0  0  0  0
  191.7670  176.1490  138.8070 C   0  0  2  0  0  3  0  0  0  0  0  0
  193.1540  176.0700  138.1760 C   0  0  0  0  0  2  0  0  0  0  0  0
  188.9610  178.6880  138.7630 C   0  0  0  0  0  2  0  0  0  0  0  0
  187.3090  177.6770  137.2780 C   0  0  1  0  0  3  0  0  0  0  0  0
  187.0850  178.2900  135.8960 C   0  0  0  0  0  2  0  0  0  0  0  0
  190.3220  176.4770  141.5880 C   0  0  0  0  0  2  0  0  0  0  0  0
  191.6340  177.5840  143.2250 O   0  0  0  0  0  0  0  0  0  0  0  0
  190.4850  177.1810  142.9010 C   0  0  0  0  0  0  0  0  0  0  0  0
  187.0480  177.7660  145.4120 C   0  0  0  0  0  0  0  0  0  0  0  0
  188.0640  177.6270  143.2250 C   0  0  0  0  0  3  0  0  0  0  0  0
  190.7170  177.0760  145.9130 C   0  0  0  0  0  1  0  0  0  0  0  0
  185.6290  177.9820  146.4140 Cl  0  0  0  0  0  0  0  0  0  0  0  0
  186.9330  177.8090  144.0230 C   0  0  0  0  0  3  0  0  0  0  0  0
  189.4310  177.3590  145.2130 C   0  0  0  0  0  0  0  0  0  0  0  0
  189.3250  177.4010  143.8010 C   0  0  0  0  0  0  0  0  0  0  0  0
  188.2910  177.5390  146.0030 C   0  0  0  0  0  3  0  0  0  0  0  0
  1  9  1  6  0  0  0
  1 14  1  0  0  0  0
  1  6  1  0  0  0  0
  2 13  1  0  0  0  0
  3 19  1  0  0  0  0
  3  2  1  0  0  0  0
  4  7  1  0  0  0  0
  5  2  1  0  0  0  0
  5 16  1  0  0  0  0
  6 17  1  0  0  0  0
  7  3  1  0  0  0  0
  8 21  1  0  0  0  0
 10 18  1  0  0  0  0
 11  4  1  0  0  0  0
 12  8  1  0  0  0  0
 13  8  1  0  0  0  0
 14  5  1  0  0  0  0
 15 11  1  0  0  0  0
 15 20  1  0  0  0  0
 16 12  1  0  0  0  0
 17 16  1  0  0  0  0
 18 13  1  0  0  0  0
 19 10  1  0  0  0  0
 20 19  1  0  0  0  0
 21 23  1  0  0  0  0
 23 22  2  0  0  0  0
 23 30  1  0  0  0  0
 24 31  1  0  0  0  0
 24 27  1  0  0  0  0
 25 30  2  0  0  0  0
 25 28  1  0  0  0  0
 28 24  2  0  0  0  0
 29 26  1  0  0  0  0
 29 31  2  0  0  0  0
 30 29  1  0  0  0  0
M  END
>  <MODEL>
1

>  <REMARK>
 VINA RESULT:      -9.1      0.000      0.000
  Name = 
  3 active torsions:
  status: ('A' for Active; 'I' for Inactive)
    1  A    between atoms: C_9  and  C_22
    2  A    between atoms: C_9  and  C_23
    3  A    between atoms: C_15  and  C_23
                            x       y       z     vdW  Elec       q    Type
                         _______ _______ _______ _____ _____    ______ ____

>  <TORSDO>
F 3

$$$$
=
 OpenBabel10272400333D

 31 35  0  0  1  0  0  0  0  0999 V2000
  192.1220  174.7560  136.2520 C   0  0  2  0  0  3  0  0  0  0  0  0
  189.2330  176.2510  138.3670 C   0  0  1  0  0  3  0  0  0  0  0  0
  188.1620  176.3880  137.2710 C   0  0  1  0  0  3  0  0  0  0  0  0
  186.8120  174.8730  135.7760 C   0  0  0  0  0  2  0  0  0  0  0  0
  190.6270  176.1640  137.7310 C   0  0  2  0  0  3  0  0  0  0  0  0
  193.2040  174.7860  137.3310 C   0  0  0  0  0  2  0  0  0  0  0  0
  187.3020  175.1360  137.1990 C   0  0  0  0  0  2  0  0  0  0  0  0
  190.3610  177.4260  140.3500 C   0  0  1  0  0  3  0  0  0  0  0  0
  192.3390  175.7680  135.3160 O   0  0  0  0  0  1  0  0  0  0  0  0
  187.5310  178.7030  138.2500 N   0  0  0  0  0  2  0  0  0  0  0  0
  185.9350  176.0000  135.2350 C   0  0  0  0  0  2  0  0  0  0  0  0
  191.6450  177.3450  139.6430 N   0  0  0  0  0  2  0  0  0  0  0  0
  189.1420  177.3580  139.4210 C   0  0  1  0  0  3  0  0  0  0  0  0
  190.7340  174.8950  136.8760 C   0  0  0  0  0  2  0  0  0  0  0  0
  186.8050  177.1710  134.7850 C   0  0  0  0  0  2  0  0  0  0  0  0
  191.7110  176.1420  138.8170 C   0  0  2  0  0  3  0  0  0  0  0  0
  193.0940  176.0480  138.1820 C   0  0  0  0  0  2  0  0  0  0  0  0
  188.9060  178.6810  138.7300 C   0  0  0  0  0  2  0  0  0  0  0  0
  187.2460  177.6390  137.2750 C   0  0  1  0  0  3  0  0  0  0  0  0
  187.0160  178.2210  135.8810 C   0  0  0  0  0  2  0  0  0  0  0  0
  190.2780  176.5320  141.5970 C   0  0  0  0  0  2  0  0  0  0  0  0
  192.0410  177.6270  142.7460 O   0  0  0  0  0  0  0  0  0  0  0  0
  190.8840  177.1330  142.8290 C   0  0  0  0  0  0  0  0  0  0  0  0
  188.8560  177.2230  146.6160 C   0  0  0  0  0  0  0  0  0  0  0  0
  190.8620  176.9260  145.3030 C   0  0  0  0  0  3  0  0  0  0  0  0
  187.9230  177.7150  143.0000 C   0  0  0  0  0  1  0  0  0  0  0  0
  188.0570  177.2790  148.1710 Cl  0  0  0  0  0  0  0  0  0  0  0  0
  190.2240  176.9610  146.5440 C   0  0  0  0  0  3  0  0  0  0  0  0
  188.7560  177.4160  144.1990 C   0  0  0  0  0  0  0  0  0  0  0  0
  190.1450  177.1500  144.1160 C   0  0  0  0  0  0  0  0  0  0  0  0
  188.1270  177.4520  145.4490 C   0  0  0  0  0  3  0  0  0  0  0  0
  1  9  1  6  0  0  0
  1 14  1  0  0  0  0
  1  6  1  0  0  0  0
  2 13  1  0  0  0  0
  3 19  1  0  0  0  0
  3  2  1  0  0  0  0
  4  7  1  0  0  0  0
  5  2  1  0  0  0  0
  5 16  1  0  0  0  0
  6 17  1  0  0  0  0
  7  3  1  0  0  0  0
  8 21  1  0  0  0  0
 10 18  1  0  0  0  0
 11  4  1  0  0  0  0
 12  8  1  0  0  0  0
 13  8  1  0  0  0  0
 14  5  1  0  0  0  0
 15 11  1  0  0  0  0
 15 20  1  0  0  0  0
 16 12  1  0  0  0  0
 17 16  1  0  0  0  0
 18 13  1  0  0  0  0
 19 10  1  0  0  0  0
 20 19  1  0  0  0  0
 21 23  1  0  0  0  0
 22 23  2  0  0  0  0
 23 30  1  0  0  0  0
 24 27  1  0  0  0  0
 25 28  2  0  0  0  0
 26 29  1  0  0  0  0
 28 24  1  0  0  0  0
 29 31  1  0  0  0  0
 30 29  2  0  0  0  0
 30 25  1  0  0  0  0
 31 24  2  0  0  0  0
M  END
>  <MODEL>
2

>  <REMARK>
 VINA RESULT:      -8.8      0.725      1.449
  Name = 
  3 active torsions:
  status: ('A' for Active; 'I' for Inactive)
    1  A    between atoms: C_9  and  C_22
    2  A    between atoms: C_9  and  C_23
    3  A    between atoms: C_15  and  C_23
                            x       y       z     vdW  Elec       q    Type
                         _______ _______ _______ _____ _____    ______ ____

>  <TORSDO>
F 3

$$$$
=
 OpenBabel10272400333D

 31 35  0  0  1  0  0  0  0  0999 V2000
  187.0150  177.0640  136.8630 C   0  0  2  0  0  3  0  0  0  0  0  0
  183.5940  177.7280  138.5700 C   0  0  1  0  0  3  0  0  0  0  0  0
  182.6800  177.6750  137.3330 C   0  0  1  0  0  3  0  0  0  0  0  0
  181.9440  175.9760  135.6240 C   0  0  0  0  0  2  0  0  0  0  0  0
  185.0420  178.0030  138.1410 C   0  0  2  0  0  3  0  0  0  0  0  0
  187.9020  177.2830  138.0880 C   0  0  0  0  0  2  0  0  0  0  0  0
  182.1600  176.2640  137.1090 C   0  0  0  0  0  2  0  0  0  0  0  0
  184.1310  179.0190  140.7220 C   0  0  1  0  0  3  0  0  0  0  0  0
  187.1100  178.1510  135.9920 O   0  0  0  0  0  1  0  0  0  0  0  0
  181.3910  179.7220  138.2630 N   0  0  0  0  0  2  0  0  0  0  0  0
  180.9060  176.8970  134.9870 C   0  0  0  0  0  2  0  0  0  0  0  0
  185.4810  179.2780  140.2070 N   0  0  0  0  0  2  0  0  0  0  0  0
  183.1010  178.7230  139.6250 C   0  0  1  0  0  3  0  0  0  0  0  0
  185.5620  176.8440  137.2830 C   0  0  0  0  0  2  0  0  0  0  0  0
  181.5260  178.2610  134.6950 C   0  0  0  0  0  2  0  0  0  0  0  0
  185.9420  178.1710  139.3730 C   0  0  2  0  0  3  0  0  0  0  0  0
  187.3810  178.4360  138.9430 C   0  0  0  0  0  2  0  0  0  0  0  0
  182.6530  179.9920  138.9370 C   0  0  0  0  0  2  0  0  0  0  0  0
  181.5010  178.6770  137.2330 C   0  0  1  0  0  3  0  0  0  0  0  0
  181.3320  179.2680  135.8340 C   0  0  0  0  0  2  0  0  0  0  0  0
  184.0940  178.0610  141.9230 C   0  0  0  0  0  2  0  0  0  0  0  0
  183.7860  179.6070  143.6970 O   0  0  0  0  0  0  0  0  0  0  0  0
  184.5040  178.6860  143.2230 C   0  0  0  0  0  0  0  0  0  0  0  0
  188.1080  177.4270  145.1940 C   0  0  0  0  0  0  0  0  0  0  0  0
  186.8630  177.9140  143.1820 C   0  0  0  0  0  3  0  0  0  0  0  0
  184.6540  178.5100  146.2370 C   0  0  0  0  0  1  0  0  0  0  0  0
  189.5950  176.9370  145.9760 Cl  0  0  0  0  0  0  0  0  0  0  0  0
  188.0470  177.5130  143.8040 C   0  0  0  0  0  3  0  0  0  0  0  0
  185.7950  178.1440  145.3500 C   0  0  0  0  0  0  0  0  0  0  0  0
  185.7230  178.2330  143.9380 C   0  0  0  0  0  0  0  0  0  0  0  0
  186.9880  177.7440  145.9630 C   0  0  0  0  0  3  0  0  0  0  0  0
  1  9  1  6  0  0  0
  1 14  1  0  0  0  0
  1  6  1  0  0  0  0
  2 13  1  0  0  0  0
  3  2  1  0  0  0  0
  4  7  1  0  0  0  0
  5  2  1  0  0  0  0
  5 16  1  0  0  0  0
  6 17  1  0  0  0  0
  7  3  1  0  0  0  0
  8 21  1  0  0  0  0
 10 18  1  0  0  0  0
 11  4  1  0  0  0  0
 12  8  1  0  0  0  0
 13  8  1  0  0  0  0
 14  5  1  0  0  0  0
 15 11  1  0  0  0  0
 15 20  1  0  0  0  0
 16 12  1  0  0  0  0
 17 16  1  0  0  0  0
 18 13  1  0  0  0  0
 19  3  1  0  0  0  0
 19 10  1  0  0  0  0
 20 19  1  0  0  0  0
 21 23  1  0  0  0  0
 23 22  2  0  0  0  0
 23 30  1  0  0  0  0
 24 31  1  0  0  0  0
 24 27  1  0  0  0  0
 25 28  1  0  0  0  0
 25 30  2  0  0  0  0
 28 24  2  0  0  0  0
 29 31  2  0  0  0  0
 29 26  1  0  0  0  0
 30 29  1  0  0  0  0
M  END
>  <MODEL>
3

>  <REMARK>
 VINA RESULT:      -8.5      3.919      5.482
  Name = 
  3 active torsions:
  status: ('A' for Active; 'I' for Inactive)
    1  A    between atoms: C_9  and  C_22
    2  A    between atoms: C_9  and  C_23
    3  A    between atoms: C_15  and  C_23
                            x       y       z     vdW  Elec       q    Type
                         _______ _______ _______ _____ _____    ______ ____

>  <TORSDO>
F 3

$$$$
=
 OpenBabel10272400333D

 31 35  0  0  1  0  0  0  0  0999 V2000
  186.3510  177.7420  146.8630 C   0  0  2  0  0  3  0  0  0  0  0  0
  186.8940  177.5660  143.0240 C   0  0  1  0  0  3  0  0  0  0  0  0
  188.4080  177.2950  142.9950 C   0  0  1  0  0  3  0  0  0  0  0  0
  189.9940  175.4680  143.7000 C   0  0  0  0  0  2  0  0  0  0  0  0
  186.4960  178.1800  144.3730 C   0  0  2  0  0  3  0  0  0  0  0  0
  184.8840  178.1670  146.8440 C   0  0  0  0  0  2  0  0  0  0  0  0
  188.6870  175.8000  142.9830 C   0  0  0  0  0  2  0  0  0  0  0  0
  184.9940  178.9490  141.9910 C   0  0  1  0  0  3  0  0  0  0  0  0
  187.1670  178.8190  147.2120 O   0  0  0  0  0  1  0  0  0  0  0  0
  188.6170  178.9730  141.0320 N   0  0  0  0  0  2  0  0  0  0  0  0
  191.2110  176.1130  143.0420 C   0  0  0  0  0  2  0  0  0  0  0  0
  184.7190  179.5230  143.3130 N   0  0  0  0  0  2  0  0  0  0  0  0
  186.4240  178.4140  141.8380 C   0  0  1  0  0  3  0  0  0  0  0  0
  186.7670  177.1790  145.5030 C   0  0  0  0  0  2  0  0  0  0  0  0
  191.2990  177.5860  143.4330 C   0  0  0  0  0  2  0  0  0  0  0  0
  185.0090  178.5590  144.3720 C   0  0  2  0  0  3  0  0  0  0  0  0
  184.6160  179.1620  145.7160 C   0  0  0  0  0  2  0  0  0  0  0  0
  187.4080  179.5380  141.6130 C   0  0  0  0  0  2  0  0  0  0  0  0
  189.2680  177.9850  141.9050 C   0  0  1  0  0  3  0  0  0  0  0  0
  190.5980  178.5170  142.4370 C   0  0  0  0  0  2  0  0  0  0  0  0
  183.8920  178.0100  141.4760 C   0  0  0  0  0  2  0  0  0  0  0  0
  182.4120  179.0670  139.9530 O   0  0  0  0  0  0  0  0  0  0  0  0
  183.4170  178.3190  140.0880 C   0  0  0  0  0  0  0  0  0  0  0  0
  185.5380  176.7520  136.6960 C   0  0  0  0  0  0  0  0  0  0  0  0
  185.2590  178.4150  138.4270 C   0  0  0  0  0  3  0  0  0  0  0  0
  182.5030  175.7890  138.7090 C   0  0  0  0  0  1  0  0  0  0  0  0
  186.4330  176.1190  135.3320 Cl  0  0  0  0  0  0  0  0  0  0  0  0
  185.9680  177.9160  137.3330 C   0  0  0  0  0  3  0  0  0  0  0  0
  183.6810  176.5790  138.2480 C   0  0  0  0  0  0  0  0  0  0  0  0
  184.1100  177.7610  138.9010 C   0  0  0  0  0  0  0  0  0  0  0  0
  184.4010  176.0860  137.1540 C   0  0  0  0  0  3  0  0  0  0  0  0
  1  9  1  6  0  0  0
  2  5  1  0  0  0  0
  3  2  1  0  0  0  0
  5 14  1  0  0  0  0
  6  1  1  0  0  0  0
  7  3  1  0  0  0  0
  7  4  1  0  0  0  0
  8 12  1  0  0  0  0
 10 18  1  0  0  0  0
 10 19  1  0  0  0  0
 11 15  1  0  0  0  0
 11  4  1  0  0  0  0
 12 16  1  0  0  0  0
 13  8  1  0  0  0  0
 13  2  1  0  0  0  0
 14  1  1  0  0  0  0
 16  5  1  0  0  0  0
 16 17  1  0  0  0  0
 17  6  1  0  0  0  0
 18 13  1  0  0  0  0
 19 20  1  0  0  0  0
 19  3  1  0  0  0  0
 20 15  1  0  0  0  0
 21  8  1  0  0  0  0
 22 23  2  0  0  0  0
 23 21  1  0  0  0  0
 24 31  2  0  0  0  0
 24 28  1  0  0  0  0
 25 30  1  0  0  0  0
 27 24  1  0  0  0  0
 28 25  2  0  0  0  0
 29 26  1  0  0  0  0
 29 30  2  0  0  0  0
 30 23  1  0  0  0  0
 31 29  1  0  0  0  0
M  END
>  <MODEL>
4

>  <REMARK>
 VINA RESULT:      -7.6      4.389      8.609
  Name = 
  3 active torsions:
  status: ('A' for Active; 'I' for Inactive)
    1  A    between atoms: C_9  and  C_22
    2  A    between atoms: C_9  and  C_23
    3  A    between atoms: C_15  and  C_23
                            x       y       z     vdW  Elec       q    Type
                         _______ _______ _______ _____ _____    ______ ____

>  <TORSDO>
F 3

$$$$
=
 OpenBabel10272400333D

 31 35  0  0  1  0  0  0  0  0999 V2000
  186.3320  177.9550  146.8770 C   0  0  2  0  0  3  0  0  0  0  0  0
  186.7130  177.5420  143.0370 C   0  0  1  0  0  3  0  0  0  0  0  0
  188.2400  177.3750  142.9510 C   0  0  1  0  0  3  0  0  0  0  0  0
  189.9860  175.7180  143.7000 C   0  0  0  0  0  2  0  0  0  0  0  0
  186.3330  178.2220  144.3600 C   0  0  2  0  0  3  0  0  0  0  0  0
  184.8380  178.2750  146.9020 C   0  0  0  0  0  2  0  0  0  0  0  0
  188.6270  175.9060  143.0280 C   0  0  0  0  0  2  0  0  0  0  0  0
  184.6740  178.7110  142.0080 C   0  0  1  0  0  3  0  0  0  0  0  0
  187.0830  179.1090  147.1110 O   0  0  0  0  0  1  0  0  0  0  0  0
  188.2390  178.9190  140.8690 N   0  0  0  0  0  2  0  0  0  0  0  0
  191.1210  176.3980  142.9390 C   0  0  0  0  0  2  0  0  0  0  0  0
  184.4170  179.3590  143.3000 N   0  0  0  0  0  2  0  0  0  0  0  0
  186.1300  178.2680  141.8210 C   0  0  1  0  0  3  0  0  0  0  0  0
  186.7260  177.3260  145.5410 C   0  0  0  0  0  2  0  0  0  0  0  0
  191.1190  177.8970  143.2240 C   0  0  0  0  0  2  0  0  0  0  0  0
  184.8240  178.4960  144.4060 C   0  0  2  0  0  3  0  0  0  0  0  0
  184.4480  179.1650  145.7240 C   0  0  0  0  0  2  0  0  0  0  0  0
  187.0190  179.4380  141.4700 C   0  0  0  0  0  2  0  0  0  0  0  0
  188.9980  178.0430  141.7750 C   0  0  1  0  0  3  0  0  0  0  0  0
  190.3080  178.7040  142.2020 C   0  0  0  0  0  2  0  0  0  0  0  0
  183.6200  177.6630  141.6150 C   0  0  0  0  0  2  0  0  0  0  0  0
  183.3670  176.8720  139.3930 O   0  0  0  0  0  0  0  0  0  0  0  0
  183.1130  177.7970  140.2110 C   0  0  0  0  0  0  0  0  0  0  0  0
  180.9150  181.2400  138.8770 C   0  0  0  0  0  0  0  0  0  0  0  0
  182.9330  179.9120  138.9240 C   0  0  0  0  0  3  0  0  0  0  0  0
  180.2510  178.2510  141.0720 C   0  0  0  0  0  1  0  0  0  0  0  0
  180.0320  182.6360  138.3010 Cl  0  0  0  0  0  0  0  0  0  0  0  0
  182.2320  181.0320  138.4710 C   0  0  0  0  0  3  0  0  0  0  0  0
  180.9900  179.2040  140.1960 C   0  0  0  0  0  0  0  0  0  0  0  0
  182.3300  178.9850  139.7900 C   0  0  0  0  0  0  0  0  0  0  0  0
  180.2970  180.3280  139.7340 C   0  0  0  0  0  3  0  0  0  0  0  0
  1  6  1  0  0  0  0
  1  9  1  6  0  0  0
  2  5  1  0  0  0  0
  3  7  1  0  0  0  0
  3  2  1  0  0  0  0
  5 16  1  0  0  0  0
  5 14  1  0  0  0  0
  7  4  1  0  0  0  0
  8 12  1  0  0  0  0
 10 18  1  0  0  0  0
 10 19  1  0  0  0  0
 11 15  1  0  0  0  0
 11  4  1  0  0  0  0
 12 16  1  0  0  0  0
 13  8  1  0  0  0  0
 13  2  1  0  0  0  0
 14  1  1  0  0  0  0
 16 17  1  0  0  0  0
 17  6  1  0  0  0  0
 18 13  1  0  0  0  0
 19 20  1  0  0  0  0
 19  3  1  0  0  0  0
 20 15  1  0  0  0  0
 21  8  1  0  0  0  0
 22 23  2  0  0  0  0
 23 21  1  0  0  0  0
 24 31  1  0  0  0  0
 25 30  2  0  0  0  0
 27 24  1  0  0  0  0
 28 24  2  0  0  0  0
 28 25  1  0  0  0  0
 29 26  1  0  0  0  0
 30 29  1  0  0  0  0
 30 23  1  0  0  0  0
 31 29  2  0  0  0  0
M  END
>  <MODEL>
5

>  <REMARK>
 VINA RESULT:      -7.5      4.929      8.798
  Name = 
  3 active torsions:
  status: ('A' for Active; 'I' for Inactive)
    1  A    between atoms: C_9  and  C_22
    2  A    between atoms: C_9  and  C_23
    3  A    between atoms: C_15  and  C_23
                            x       y       z     vdW  Elec       q    Type
                         _______ _______ _______ _____ _____    ______ ____

>  <TORSDO>
F 3

$$$$
=
 OpenBabel10272400333D

 31 35  0  0  1  0  0  0  0  0999 V2000
  186.3460  177.9240  146.8480 C   0  0  2  0  0  3  0  0  0  0  0  0
  186.7890  177.4930  143.0160 C   0  0  1  0  0  3  0  0  0  0  0  0
  188.3150  177.3000  142.9590 C   0  0  1  0  0  3  0  0  0  0  0  0
  190.0170  175.6150  143.7440 C   0  0  0  0  0  2  0  0  0  0  0  0
  186.3970  178.1840  144.3300 C   0  0  2  0  0  3  0  0  0  0  0  0
  184.8570  178.2700  146.8450 C   0  0  0  0  0  2  0  0  0  0  0  0
  188.6740  175.8250  143.0460 C   0  0  0  0  0  2  0  0  0  0  0  0
  184.7890  178.6950  141.9470 C   0  0  1  0  0  3  0  0  0  0  0  0
  187.1110  179.0660  147.0920 O   0  0  0  0  0  1  0  0  0  0  0  0
  188.3780  178.8380  140.8740 N   0  0  0  0  0  2  0  0  0  0  0  0
  191.1780  176.2730  143.0020 C   0  0  0  0  0  2  0  0  0  0  0  0
  184.5210  179.3510  143.2330 N   0  0  0  0  0  2  0  0  0  0  0  0
  186.2410  178.2260  141.7880 C   0  0  1  0  0  3  0  0  0  0  0  0
  186.7530  177.2850  145.5200 C   0  0  0  0  0  2  0  0  0  0  0  0
  191.1970  177.7730  143.2830 C   0  0  0  0  0  2  0  0  0  0  0  0
  184.8920  178.4840  144.3480 C   0  0  2  0  0  3  0  0  0  0  0  0
  184.5040  179.1630  145.6580 C   0  0  0  0  0  2  0  0  0  0  0  0
  187.1560  179.3800  141.4510 C   0  0  0  0  0  2  0  0  0  0  0  0
  189.1050  177.9520  141.7950 C   0  0  1  0  0  3  0  0  0  0  0  0
  190.4190  178.5910  142.2450 C   0  0  0  0  0  2  0  0  0  0  0  0
  183.7250  177.6640  141.5380 C   0  0  0  0  0  2  0  0  0  0  0  0
  183.1180  179.1220  139.7670 O   0  0  0  0  0  0  0  0  0  0  0  0
  183.0700  177.9460  140.2190 C   0  0  0  0  0  0  0  0  0  0  0  0
  181.1880  174.7680  138.0240 C   0  0  0  0  0  0  0  0  0  0  0  0
  183.1310  176.0980  138.5630 C   0  0  0  0  0  3  0  0  0  0  0  0
  180.1400  177.3060  140.6030 C   0  0  0  0  0  1  0  0  0  0  0  0
  180.4500  173.4520  137.1380 Cl  0  0  0  0  0  0  0  0  0  0  0  0
  182.5410  175.0550  137.8480 C   0  0  0  0  0  3  0  0  0  0  0  0
  181.0060  176.5730  139.6350 C   0  0  0  0  0  0  0  0  0  0  0  0
  182.3800  176.8720  139.4620 C   0  0  0  0  0  0  0  0  0  0  0  0
  180.4260  175.5230  138.9160 C   0  0  0  0  0  3  0  0  0  0  0  0
  1  9  1  6  0  0  0
  2  5  1  0  0  0  0
  3  2  1  0  0  0  0
  3  7  1  0  0  0  0
  5 16  1  0  0  0  0
  5 14  1  0  0  0  0
  6  1  1  0  0  0  0
  7  4  1  0  0  0  0
  8 12  1  0  0  0  0
 10 18  1  0  0  0  0
 10 19  1  0  0  0  0
 11 15  1  0  0  0  0
 11  4  1  0  0  0  0
 12 16  1  0  0  0  0
 13  8  1  0  0  0  0
 13  2  1  0  0  0  0
 14  1  1  0  0  0  0
 16 17  1  0  0  0  0
 17  6  1  0  0  0  0
 18 13  1  0  0  0  0
 19 20  1  0  0  0  0
 19  3  1  0  0  0  0
 20 15  1  0  0  0  0
 21  8  1  0  0  0  0
 22 23  2  0  0  0  0
 23 21  1  0  0  0  0
 24 31  1  0  0  0  0
 25 30  2  0  0  0  0
 27 24  1  0  0  0  0
 28 24  2  0  0  0  0
 28 25  1  0  0  0  0
 29 26  1  0  0  0  0
 30 29  1  0  0  0  0
 30 23  1  0  0  0  0
 31 29  2  0  0  0  0
M  END
>  <MODEL>
6

>  <REMARK>
 VINA RESULT:      -7.3      4.834      8.849
  Name = 
  3 active torsions:
  status: ('A' for Active; 'I' for Inactive)
    1  A    between atoms: C_9  and  C_22
    2  A    between atoms: C_9  and  C_23
    3  A    between atoms: C_15  and  C_23
                            x       y       z     vdW  Elec       q    Type
                         _______ _______ _______ _____ _____    ______ ____

>  <TORSDO>
F 3

$$$$
=
 OpenBabel10272400333D

 31 35  0  0  1  0  0  0  0  0999 V2000
  190.5410  175.1460  135.4350 C   0  0  2  0  0  3  0  0  0  0  0  0
  187.5580  176.1870  137.6890 C   0  0  1  0  0  3  0  0  0  0  0  0
  186.3960  175.8870  136.7250 C   0  0  1  0  0  3  0  0  0  0  0  0
  185.3640  173.8760  135.6110 C   0  0  0  0  0  2  0  0  0  0  0  0
  188.8650  176.3510  136.9000 C   0  0  2  0  0  3  0  0  0  0  0  0
  191.6670  175.6070  136.3590 C   0  0  0  0  0  2  0  0  0  0  0  0
  185.8910  174.4660  136.9180 C   0  0  0  0  0  2  0  0  0  0  0  0
  188.5090  177.8930  139.3540 C   0  0  1  0  0  3  0  0  0  0  0  0
  190.4010  176.0260  134.3600 O   0  0  0  0  0  1  0  0  0  0  0  0
  185.2700  178.0960  137.4780 N   0  0  0  0  0  2  0  0  0  0  0  0
  184.1790  174.6550  135.0460 C   0  0  0  0  0  2  0  0  0  0  0  0
  189.7020  178.0240  138.5080 N   0  0  0  0  0  2  0  0  0  0  0  0
  187.2740  177.3860  138.5990 C   0  0  1  0  0  3  0  0  0  0  0  0
  189.2250  175.0330  136.2040 C   0  0  0  0  0  2  0  0  0  0  0  0
  184.6690  175.9220  134.3490 C   0  0  0  0  0  2  0  0  0  0  0  0
  190.0080  176.7630  137.8380 C   0  0  2  0  0  3  0  0  0  0  0  0
  191.3060  176.9180  137.0530 C   0  0  0  0  0  2  0  0  0  0  0  0
  186.6390  178.4880  137.7830 C   0  0  0  0  0  2  0  0  0  0  0  0
  185.1890  176.8590  136.6870 C   0  0  1  0  0  3  0  0  0  0  0  0
  184.6930  177.1460  135.2710 C   0  0  0  0  0  2  0  0  0  0  0  0
  188.7730  177.2070  140.7030 C   0  0  0  0  0  2  0  0  0  0  0  0
  187.2310  178.7350  141.6600 O   0  0  0  0  0  0  0  0  0  0  0  0
  188.1440  177.8950  141.8780 C   0  0  0  0  0  0  0  0  0  0  0  0
  189.5330  177.0940  145.8650 C   0  0  0  0  0  0  0  0  0  0  0  0
  189.9560  177.4220  143.5090 C   0  0  0  0  0  3  0  0  0  0  0  0
  186.2150  177.7390  144.2000 C   0  0  0  0  0  1  0  0  0  0  0  0
  190.1240  176.7920  147.4830 Cl  0  0  0  0  0  0  0  0  0  0  0  0
  190.4270  177.1720  144.7990 C   0  0  0  0  0  3  0  0  0  0  0  0
  187.6820  177.5180  144.3540 C   0  0  0  0  0  0  0  0  0  0  0  0
  188.5840  177.5980  143.2640 C   0  0  0  0  0  0  0  0  0  0  0  0
  188.1660  177.2690  145.6420 C   0  0  0  0  0  3  0  0  0  0  0  0
  1  9  1  6  0  0  0
  1 14  1  0  0  0  0
  1  6  1  0  0  0  0
  2 13  1  0  0  0  0
  3  7  1  0  0  0  0
  3  2  1  0  0  0  0
  4  7  1  0  0  0  0
  5  2  1  0  0  0  0
  5 16  1  0  0  0  0
  6 17  1  0  0  0  0
  8 21  1  0  0  0  0
 10 18  1  0  0  0  0
 11  4  1  0  0  0  0
 12  8  1  0  0  0  0
 13  8  1  0  0  0  0
 14  5  1  0  0  0  0
 15 11  1  0  0  0  0
 15 20  1  0  0  0  0
 16 12  1  0  0  0  0
 17 16  1  0  0  0  0
 18 13  1  0  0  0  0
 19  3  1  0  0  0  0
 19 10  1  0  0  0  0
 20 19  1  0  0  0  0
 21 23  1  0  0  0  0
 22 23  2  0  0  0  0
 23 30  1  0  0  0  0
 24 27  1  0  0  0  0
 25 28  1  0  0  0  0
 26 29  1  0  0  0  0
 28 24  2  0  0  0  0
 29 31  2  0  0  0  0
 30 25  2  0  0  0  0
 30 29  1  0  0  0  0
 31 24  1  0  0  0  0
M  END
>  <MODEL>
7

>  <REMARK>
 VINA RESULT:      -7.2      1.884      2.570
  Name = 
  3 active torsions:
  status: ('A' for Active; 'I' for Inactive)
    1  A    between atoms: C_9  and  C_22
    2  A    between atoms: C_9  and  C_23
    3  A    between atoms: C_15  and  C_23
                            x       y       z     vdW  Elec       q    Type
                         _______ _______ _______ _____ _____    ______ ____

>  <TORSDO>
F 3

$$$$
=
 OpenBabel10272400333D

 31 35  0  0  1  0  0  0  0  0999 V2000
  190.5110  176.7050  140.4410 C   0  0  2  0  0  3  0  0  0  0  0  0
  187.8590  176.3680  137.6270 C   0  0  1  0  0  3  0  0  0  0  0  0
  188.6500  175.4940  136.6390 C   0  0  1  0  0  3  0  0  0  0  0  0
  189.6090  173.1640  136.5560 C   0  0  0  0  0  2  0  0  0  0  0  0
  188.8240  177.0750  138.5900 C   0  0  2  0  0  3  0  0  0  0  0  0
  189.7540  177.7010  141.3190 C   0  0  0  0  0  2  0  0  0  0  0  0
  188.3890  174.0180  136.8980 C   0  0  0  0  0  2  0  0  0  0  0  0
  186.3440  178.4280  137.8520 C   0  0  1  0  0  3  0  0  0  0  0  0
  191.5550  177.3420  139.7690 O   0  0  0  0  0  1  0  0  0  0  0  0
  187.7460  176.9590  134.7010 N   0  0  0  0  0  2  0  0  0  0  0  0
  190.0010  173.2550  135.0830 C   0  0  0  0  0  2  0  0  0  0  0  0
  187.3490  179.0480  138.7240 N   0  0  0  0  0  2  0  0  0  0  0  0
  186.9180  177.3500  136.9230 C   0  0  1  0  0  3  0  0  0  0  0  0
  189.5640  176.0370  139.4440 C   0  0  0  0  0  2  0  0  0  0  0  0
  190.7600  174.5540  134.8220 C   0  0  0  0  0  2  0  0  0  0  0  0
  188.0560  178.0370  139.5070 C   0  0  2  0  0  3  0  0  0  0  0  0
  189.0160  178.7310  140.4670 C   0  0  0  0  0  2  0  0  0  0  0  0
  187.6360  177.9670  135.7460 C   0  0  0  0  0  2  0  0  0  0  0  0
  188.5180  175.7780  135.1200 C   0  0  1  0  0  3  0  0  0  0  0  0
  189.8500  175.7040  134.3760 C   0  0  0  0  0  2  0  0  0  0  0  0
  185.0450  178.0370  138.5750 C   0  0  0  0  0  2  0  0  0  0  0  0
  184.0810  180.1880  138.8460 O   0  0  0  0  0  0  0  0  0  0  0  0
  184.4560  179.1290  139.4170 C   0  0  0  0  0  0  0  0  0  0  0  0
  184.1510  178.7610  143.6870 C   0  0  0  0  0  0  0  0  0  0  0  0
  185.4520  179.1640  141.6910 C   0  0  0  0  0  3  0  0  0  0  0  0
  181.8150  178.4980  140.7440 C   0  0  0  0  0  1  0  0  0  0  0  0
  184.0460  178.6410  145.4290 Cl  0  0  0  0  0  0  0  0  0  0  0  0
  185.3710  179.0590  143.0810 C   0  0  0  0  0  3  0  0  0  0  0  0
  183.0810  178.6700  141.5110 C   0  0  0  0  0  0  0  0  0  0  0  0
  184.3170  178.9710  140.8860 C   0  0  0  0  0  0  0  0  0  0  0  0
  183.0120  178.5700  142.9050 C   0  0  0  0  0  3  0  0  0  0  0  0
  1  9  1  6  0  0  0
  1  6  1  0  0  0  0
  2  5  1  0  0  0  0
  3  7  1  0  0  0  0
  3  2  1  0  0  0  0
  4  7  1  0  0  0  0
  5 14  1  0  0  0  0
  5 16  1  0  0  0  0
  8 21  1  0  0  0  0
  8 12  1  0  0  0  0
 10 19  1  0  0  0  0
 10 18  1  0  0  0  0
 11  4  1  0  0  0  0
 12 16  1  0  0  0  0
 13  2  1  0  0  0  0
 13  8  1  0  0  0  0
 14  1  1  0  0  0  0
 15 11  1  0  0  0  0
 16 17  1  0  0  0  0
 17  6  1  0  0  0  0
 18 13  1  0  0  0  0
 19  3  1  0  0  0  0
 20 15  1  0  0  0  0
 20 19  1  0  0  0  0
 21 23  1  0  0  0  0
 22 23  2  0  0  0  0
 23 30  1  0  0  0  0
 24 27  1  0  0  0  0
 25 28  2  0  0  0  0
 26 29  1  0  0  0  0
 28 24  1  0  0  0  0
 29 31  1  0  0  0  0
 30 29  2  0  0  0  0
 30 25  1  0  0  0  0
 31 24  2  0  0  0  0
M  END
>  <MODEL>
8

>  <REMARK>
 VINA RESULT:      -7.0      3.094      4.975
  Name = 
  3 active torsions:
  status: ('A' for Active; 'I' for Inactive)
    1  A    between atoms: C_9  and  C_22
    2  A    between atoms: C_9  and  C_23
    3  A    between atoms: C_15  and  C_23
                            x       y       z     vdW  Elec       q    Type
                         _______ _______ _______ _____ _____    ______ ____

>  <TORSDO>
F 3

$$$$
=
 OpenBabel10272400333D

 31 35  0  0  1  0  0  0  0  0999 V2000
  183.1430  175.1160  135.2270 C   0  0  2  0  0  3  0  0  0  0  0  0
  184.1650  177.0940  138.4060 C   0  0  1  0  0  3  0  0  0  0  0  0
  182.7700  177.3440  139.0060 C   0  0  1  0  0  3  0  0  0  0  0  0
  180.8820  175.9860  139.9780 C   0  0  0  0  0  2  0  0  0  0  0  0
  184.0420  176.7810  136.9080 C   0  0  2  0  0  3  0  0  0  0  0  0
  184.5280  175.0290  134.5850 C   0  0  0  0  0  2  0  0  0  0  0  0
  182.3910  176.2280  139.9680 C   0  0  0  0  0  2  0  0  0  0  0  0
  186.4310  178.1660  137.8570 C   0  0  1  0  0  3  0  0  0  0  0  0
  182.3530  176.0500  134.5560 O   0  0  0  0  0  1  0  0  0  0  0  0
  183.5080  179.7610  139.5790 N   0  0  0  0  0  2  0  0  0  0  0  0
  180.0900  177.2070  140.4400 C   0  0  0  0  0  2  0  0  0  0  0  0
  186.2040  177.8730  136.4370 N   0  0  0  0  0  2  0  0  0  0  0  0
  185.1400  178.2420  138.6830 C   0  0  1  0  0  3  0  0  0  0  0  0
  183.2580  175.4790  136.7080 C   0  0  0  0  0  2  0  0  0  0  0  0
  179.9820  178.2210  139.3040 C   0  0  0  0  0  2  0  0  0  0  0  0
  185.4330  176.6420  136.2750 C   0  0  2  0  0  3  0  0  0  0  0  0
  185.3090  176.3250  134.7880 C   0  0  0  0  0  2  0  0  0  0  0  0
  184.4300  179.5580  138.4700 C   0  0  0  0  0  2  0  0  0  0  0  0
  182.4800  178.7140  139.6720 C   0  0  1  0  0  3  0  0  0  0  0  0
  181.1000  179.2700  139.3240 C   0  0  0  0  0  2  0  0  0  0  0  0
  187.5610  177.3410  138.4930 C   0  0  0  0  0  2  0  0  0  0  0  0
  189.0710  179.1620  138.6770 O   0  0  0  0  0  0  0  0  0  0  0  0
  188.5700  178.1550  139.2460 C   0  0  0  0  0  0  0  0  0  0  0  0
  189.8590  177.1100  143.2090 C   0  0  0  0  0  0  0  0  0  0  0  0
  190.2160  177.1690  140.8210 C   0  0  0  0  0  3  0  0  0  0  0  0
  186.8540  178.7690  141.6580 C   0  0  0  0  0  1  0  0  0  0  0  0
  190.4170  176.6990  144.8160 Cl  0  0  0  0  0  0  0  0  0  0  0  0
  190.6580  176.8310  142.1010 C   0  0  0  0  0  3  0  0  0  0  0  0
  188.1670  178.0690  141.7590 C   0  0  0  0  0  0  0  0  0  0  0  0
  188.9710  177.7890  140.6270 C   0  0  0  0  0  0  0  0  0  0  0  0
  188.6210  177.7290  143.0380 C   0  0  0  0  0  3  0  0  0  0  0  0
  1  9  1  6  0  0  0
  1 14  1  0  0  0  0
  2 13  1  0  0  0  0
  2  3  1  0  0  0  0
  3 19  1  0  0  0  0
  3  7  1  0  0  0  0
  4 11  1  0  0  0  0
  5  2  1  0  0  0  0
  6 17  1  0  0  0  0
  6  1  1  0  0  0  0
  7  4  1  0  0  0  0
  8 21  1  0  0  0  0
  8 13  1  0  0  0  0
 10 19  1  0  0  0  0
 12  8  1  0  0  0  0
 14  5  1  0  0  0  0
 15 20  1  0  0  0  0
 15 11  1  0  0  0  0
 16 12  1  0  0  0  0
 16  5  1  0  0  0  0
 17 16  1  0  0  0  0
 18 13  1  0  0  0  0
 18 10  1  0  0  0  0
 20 19  1  0  0  0  0
 21 23  1  0  0  0  0
 22 23  2  0  0  0  0
 23 30  1  0  0  0  0
 24 27  1  0  0  0  0
 25 28  1  0  0  0  0
 26 29  1  0  0  0  0
 28 24  2  0  0  0  0
 29 31  2  0  0  0  0
 30 25  2  0  0  0  0
 30 29  1  0  0  0  0
 31 24  1  0  0  0  0
M  END
>  <MODEL>
9

>  <REMARK>
 VINA RESULT:      -6.9      4.261      6.166
  Name = 
  3 active torsions:
  status: ('A' for Active; 'I' for Inactive)
    1  A    between atoms: C_9  and  C_22
    2  A    between atoms: C_9  and  C_23
    3  A    between atoms: C_15  and  C_23
                            x       y       z     vdW  Elec       q    Type
                         _______ _______ _______ _____ _____    ______ ____

>  <TORSDO>
F 3

$$$$
