=
 OpenBabel10272400203D

 31 34  0  0  1  0  0  0  0  0999 V2000
  186.4210  178.0430  138.0570 C   0  0  0  0  0  2  0  0  0  0  0  0
  184.4690  176.5860  135.9890 C   0  0  1  0  0  3  0  0  0  0  0  0
  184.2260  177.5250  137.1020 N   0  0  2  0  0  0  0  0  0  0  0  0
  186.3230  175.8250  134.3550 C   0  0  0  0  0  1  0  0  0  0  0  0
  187.2510  177.6140  136.8520 C   0  0  0  0  0  2  0  0  0  0  0  0
  185.1530  177.2100  138.1910 C   0  0  0  0  0  2  0  0  0  0  0  0
  186.5820  178.0360  135.5490 C   0  0  0  0  0  2  0  0  0  0  0  0
  185.6010  176.9890  135.0160 C   0  0  2  0  0  3  0  0  0  0  0  0
  182.3410  178.8960  139.6160 C   0  0  2  0  0  3  0  0  0  0  0  0
  180.8640  180.7060  139.2210 C   0  0  0  0  0  1  0  0  0  0  0  0
  180.9430  179.2540  139.3110 N   0  0  0  0  0  0  0  0  0  0  0  0
  182.7460  177.4970  139.1070 C   0  0  1  0  0  3  0  0  0  0  0  0
  181.8420  176.3870  139.6230 C   0  0  0  0  0  1  0  0  0  0  0  0
  182.8310  177.4340  137.5690 C   0  0  1  0  0  3  0  0  0  0  0  0
  180.4830  178.7210  138.0220 C   0  0  0  0  0  2  0  0  0  0  0  0
  181.7970  178.7240  136.7460 S   0  0  0  0  0  0  0  0  0  0  0  0
  181.9690  178.4520  143.4940 C   0  0  1  0  0  3  0  0  0  0  0  0
  184.3290  178.4130  142.7680 C   0  0  0  0  0  3  0  0  0  0  0  0
  181.0730  178.9930  144.3960 F   0  0  0  0  0  0  0  0  0  0  0  0
  181.5250  178.7810  142.0560 C   0  0  0  0  0  2  0  0  0  0  0  0
  183.9920  178.5020  141.4780 C   0  0  0  0  0  3  0  0  0  0  0  0
  182.6800  179.1370  141.0950 C   0  0  1  0  0  3  0  0  0  0  0  0
  183.3860  178.9330  143.8120 C   0  0  0  0  0  2  0  0  0  0  0  0
  184.1180  175.1250  136.2140 C   0  0  0  0  0  0  0  0  0  0  0  0
  184.6560  173.1120  137.3600 C   0  0  0  0  0  3  0  0  0  0  0  0
  184.8790  174.4260  137.1000 N   0  0  0  0  0  0  0  0  0  0  0  0
  182.1570  175.1320  134.5880 C   0  0  0  0  0  1  0  0  0  0  0  0
  183.6200  172.4540  136.7040 C   0  0  0  0  0  0  0  0  0  0  0  0
  183.3570  171.0160  136.9710 C   0  0  0  0  0  1  0  0  0  0  0  0
  183.0640  174.4520  135.5540 C   0  0  0  0  0  0  0  0  0  0  0  0
  182.8490  173.1370  135.8210 N   0  0  0  0  0  0  0  0  0  0  0  0
  1  6  1  0  0  0  0
  2 24  1  1  0  0  0
  2  3  1  0  0  0  0
  3 14  1  0  0  0  0
  3  6  1  1  0  0  0
  5  1  1  0  0  0  0
  7  5  1  0  0  0  0
  8  4  1  1  0  0  0
  8  7  1  0  0  0  0
  8  2  1  0  0  0  0
  9 11  1  1  0  0  0
  9 22  1  0  0  0  0
 10 11  1  0  0  0  0
 12  9  1  0  0  0  0
 12 13  1  6  0  0  0
 14 16  1  6  0  0  0
 14 12  1  0  0  0  0
 15 11  1  0  0  0  0
 16 15  1  0  0  0  0
 17 23  1  0  0  0  0
 17 19  1  1  0  0  0
 18 23  1  0  0  0  0
 20 17  1  0  0  0  0
 21 18  2  0  0  0  0
 22 21  1  1  0  0  0
 22 20  1  0  0  0  0
 24 26  1  0  0  0  0
 26 25  2  0  0  0  0
 27 30  1  0  0  0  0
 28 29  1  0  0  0  0
 28 25  1  0  0  0  0
 30 31  1  0  0  0  0
 30 24  2  0  0  0  0
 31 28  2  0  0  0  0
M  END
>  <MODEL>
1

>  <REMARK>
 VINA RESULT:      -5.4      0.000      0.000
  Name = 
  3 active torsions:
  status: ('A' for Active; 'I' for Inactive)
    1  A    between atoms: C_3  and  C_22
    2  A    between atoms: C_4  and  C_5
    3  A    between atoms: N_12  and  C_21
                            x       y       z     vdW  Elec       q    Type
                         _______ _______ _______ _____ _____    ______ ____

>  <TORSDO>
F 3

$$$$
=
 OpenBabel10272400203D

 31 34  0  0  1  0  0  0  0  0999 V2000
  186.3220  178.0130  138.1350 C   0  0  0  0  0  2  0  0  0  0  0  0
  184.4040  176.5750  136.0230 C   0  0  1  0  0  3  0  0  0  0  0  0
  184.1390  177.4760  137.1620 N   0  0  2  0  0  0  0  0  0  0  0  0
  186.2760  175.8990  134.3710 C   0  0  0  0  0  1  0  0  0  0  0  0
  187.1630  177.6360  136.9200 C   0  0  0  0  0  2  0  0  0  0  0  0
  185.0710  177.1500  138.2420 C   0  0  0  0  0  2  0  0  0  0  0  0
  186.4860  178.0800  135.6280 C   0  0  0  0  0  2  0  0  0  0  0  0
  185.5280  177.0280  135.0630 C   0  0  2  0  0  3  0  0  0  0  0  0
  182.3360  178.3520  139.9430 C   0  0  2  0  0  3  0  0  0  0  0  0
  180.9340  180.2610  139.9680 C   0  0  0  0  0  1  0  0  0  0  0  0
  180.9520  178.8220  139.7450 N   0  0  0  0  0  0  0  0  0  0  0  0
  182.6770  177.0790  139.1400 C   0  0  1  0  0  3  0  0  0  0  0  0
  181.7320  175.9210  139.4230 C   0  0  0  0  0  1  0  0  0  0  0  0
  182.7460  177.3430  137.6220 C   0  0  1  0  0  3  0  0  0  0  0  0
  180.4580  178.5950  138.3800 C   0  0  0  0  0  2  0  0  0  0  0  0
  181.7600  178.8180  137.1120 S   0  0  0  0  0  0  0  0  0  0  0  0
  184.3270  179.2210  143.2060 C   0  0  1  0  0  3  0  0  0  0  0  0
  181.8930  179.0910  143.6010 C   0  0  0  0  0  3  0  0  0  0  0  0
  185.5680  178.8140  143.6570 F   0  0  0  0  0  0  0  0  0  0  0  0
  184.1230  178.7580  141.7510 C   0  0  0  0  0  2  0  0  0  0  0  0
  181.6390  178.8780  142.3060 C   0  0  0  0  0  3  0  0  0  0  0  0
  182.6980  178.2580  141.4330 C   0  0  1  0  0  3  0  0  0  0  0  0
  183.2360  178.7220  144.1550 C   0  0  0  0  0  2  0  0  0  0  0  0
  184.0830  175.1000  136.2060 C   0  0  0  0  0  0  0  0  0  0  0  0
  184.6680  173.0660  137.2870 C   0  0  0  0  0  3  0  0  0  0  0  0
  184.8620  174.3910  137.0660 N   0  0  0  0  0  0  0  0  0  0  0  0
  182.1130  175.1170  134.5900 C   0  0  0  0  0  1  0  0  0  0  0  0
  183.6420  172.4070  136.6170 C   0  0  0  0  0  0  0  0  0  0  0  0
  183.4080  170.9560  136.8420 C   0  0  0  0  0  1  0  0  0  0  0  0
  183.0390  174.4270  135.5300 C   0  0  0  0  0  0  0  0  0  0  0  0
  182.8520  173.1000  135.7580 N   0  0  0  0  0  0  0  0  0  0  0  0
  1  6  1  0  0  0  0
  2 24  1  1  0  0  0
  2  3  1  0  0  0  0
  3 14  1  0  0  0  0
  3  6  1  1  0  0  0
  5  1  1  0  0  0  0
  7  5  1  0  0  0  0
  8  4  1  1  0  0  0
  8  7  1  0  0  0  0
  8  2  1  0  0  0  0
  9 11  1  1  0  0  0
  9 22  1  0  0  0  0
 11 10  1  0  0  0  0
 12 13  1  6  0  0  0
 12  9  1  0  0  0  0
 14 16  1  1  0  0  0
 14 12  1  0  0  0  0
 15 11  1  0  0  0  0
 16 15  1  0  0  0  0
 17 19  1  1  0  0  0
 17 23  1  0  0  0  0
 18 23  1  0  0  0  0
 20 17  1  0  0  0  0
 21 18  2  0  0  0  0
 22 20  1  6  0  0  0
 22 21  1  0  0  0  0
 24 26  1  0  0  0  0
 26 25  2  0  0  0  0
 27 30  1  0  0  0  0
 28 29  1  0  0  0  0
 28 25  1  0  0  0  0
 30 31  1  0  0  0  0
 30 24  2  0  0  0  0
 31 28  2  0  0  0  0
M  END
>  <MODEL>
2

>  <REMARK>
 VINA RESULT:      -5.2      0.913      1.281
  Name = 
  3 active torsions:
  status: ('A' for Active; 'I' for Inactive)
    1  A    between atoms: C_3  and  C_22
    2  A    between atoms: C_4  and  C_5
    3  A    between atoms: N_12  and  C_21
                            x       y       z     vdW  Elec       q    Type
                         _______ _______ _______ _____ _____    ______ ____

>  <TORSDO>
F 3

$$$$
=
 OpenBabel10272400203D

 31 34  0  0  1  0  0  0  0  0999 V2000
  185.6620  178.7930  140.7910 C   0  0  0  0  0  2  0  0  0  0  0  0
  182.7000  178.0560  139.8490 C   0  0  1  0  0  3  0  0  0  0  0  0
  184.0320  177.5970  139.4090 N   0  0  2  0  0  0  0  0  0  0  0  0
  181.4970  179.1260  141.8740 C   0  0  0  0  0  1  0  0  0  0  0  0
  184.7060  179.1760  141.9140 C   0  0  0  0  0  2  0  0  0  0  0  0
  184.9530  178.7340  139.4440 C   0  0  0  0  0  2  0  0  0  0  0  0
  183.7470  178.0330  142.2290 C   0  0  0  0  0  2  0  0  0  0  0  0
  182.4740  178.0710  141.3790 C   0  0  2  0  0  3  0  0  0  0  0  0
  186.0670  175.7120  137.3940 C   0  0  2  0  0  3  0  0  0  0  0  0
  185.7440  173.3810  137.1300 C   0  0  0  0  0  1  0  0  0  0  0  0
  185.4350  174.6810  136.5510 N   0  0  0  0  0  0  0  0  0  0  0  0
  185.3410  177.0730  137.3540 C   0  0  1  0  0  3  0  0  0  0  0  0
  185.1890  177.6310  135.9460 C   0  0  0  0  0  1  0  0  0  0  0  0
  183.9660  177.0260  138.0510 C   0  0  1  0  0  3  0  0  0  0  0  0
  183.9710  174.7920  136.5080 C   0  0  0  0  0  2  0  0  0  0  0  0
  183.2560  175.3230  138.1080 S   0  0  0  0  0  0  0  0  0  0  0  0
  189.3040  176.3920  135.2880 C   0  0  1  0  0  3  0  0  0  0  0  0
  189.4410  177.3600  137.5560 C   0  0  0  0  0  3  0  0  0  0  0  0
  189.9610  175.6240  134.3460 F   0  0  0  0  0  0  0  0  0  0  0  0
  187.9510  175.7420  135.6390 C   0  0  0  0  0  2  0  0  0  0  0  0
  188.1910  176.9880  137.8500 C   0  0  0  0  0  3  0  0  0  0  0  0
  187.5780  175.8120  137.1360 C   0  0  1  0  0  3  0  0  0  0  0  0
  190.2030  176.6070  136.5070 C   0  0  0  0  0  2  0  0  0  0  0  0
  181.9550  179.0220  138.9430 C   0  0  0  0  0  0  0  0  0  0  0  0
  181.8300  181.2340  138.0810 C   0  0  0  0  0  3  0  0  0  0  0  0
  182.4320  180.2920  138.8520 N   0  0  0  0  0  0  0  0  0  0  0  0
  180.2100  177.3140  138.2140 C   0  0  0  0  0  1  0  0  0  0  0  0
  180.6890  180.8960  137.3600 C   0  0  0  0  0  0  0  0  0  0  0  0
  180.0110  181.9090  136.5100 C   0  0  0  0  0  1  0  0  0  0  0  0
  180.7970  178.6830  138.2050 C   0  0  0  0  0  0  0  0  0  0  0  0
  180.2010  179.6320  137.4360 N   0  0  0  0  0  0  0  0  0  0  0  0
  1  5  1  0  0  0  0
  2 24  1  1  0  0  0
  2  8  1  0  0  0  0
  3  6  1  6  0  0  0
  3  2  1  0  0  0  0
  5  7  1  0  0  0  0
  6  1  1  0  0  0  0
  8  4  1  6  0  0  0
  8  7  1  0  0  0  0
  9 11  1  6  0  0  0
 11 10  1  0  0  0  0
 12 13  1  6  0  0  0
 12  9  1  0  0  0  0
 12 14  1  0  0  0  0
 14 16  1  1  0  0  0
 14  3  1  0  0  0  0
 15 11  1  0  0  0  0
 15 16  1  0  0  0  0
 17 19  1  6  0  0  0
 17 20  1  0  0  0  0
 17 23  1  0  0  0  0
 18 21  2  0  0  0  0
 22 20  1  6  0  0  0
 22  9  1  0  0  0  0
 22 21  1  0  0  0  0
 23 18  1  0  0  0  0
 25 26  2  0  0  0  0
 26 24  1  0  0  0  0
 28 31  2  0  0  0  0
 28 25  1  0  0  0  0
 29 28  1  0  0  0  0
 30 27  1  0  0  0  0
 30 24  2  0  0  0  0
 31 30  1  0  0  0  0
M  END
>  <MODEL>
3

>  <REMARK>
 VINA RESULT:      -5.0      3.073      7.232
  Name = 
  3 active torsions:
  status: ('A' for Active; 'I' for Inactive)
    1  A    between atoms: C_3  and  C_22
    2  A    between atoms: C_4  and  C_5
    3  A    between atoms: N_12  and  C_21
                            x       y       z     vdW  Elec       q    Type
                         _______ _______ _______ _____ _____    ______ ____

>  <TORSDO>
F 3

$$$$
=
 OpenBabel10272400203D

 31 34  0  0  1  0  0  0  0  0999 V2000
  185.3100  172.8320  137.0960 C   0  0  0  0  0  2  0  0  0  0  0  0
  183.0730  174.9690  136.3000 C   0  0  1  0  0  3  0  0  0  0  0  0
  184.5450  174.9740  136.1880 N   0  0  2  0  0  0  0  0  0  0  0  0
  181.0660  173.3500  136.5040 C   0  0  0  0  0  1  0  0  0  0  0  0
  183.9820  172.0940  136.9720 C   0  0  0  0  0  2  0  0  0  0  0  0
  185.1060  174.3160  137.3700 C   0  0  0  0  0  2  0  0  0  0  0  0
  183.2760  172.4550  135.6700 C   0  0  0  0  0  2  0  0  0  0  0  0
  182.3730  173.6840  135.8010 C   0  0  2  0  0  3  0  0  0  0  0  0
  187.5660  176.5530  136.5540 C   0  0  2  0  0  3  0  0  0  0  0  0
  188.8980  177.1420  134.6850 C   0  0  0  0  0  1  0  0  0  0  0  0
  187.8920  177.6410  135.6130 N   0  0  0  0  0  0  0  0  0  0  0  0
  186.1380  176.6420  137.1320 C   0  0  1  0  0  3  0  0  0  0  0  0
  185.8500  177.9700  137.8160 C   0  0  0  0  0  1  0  0  0  0  0  0
  185.0570  176.3510  136.0720 C   0  0  1  0  0  3  0  0  0  0  0  0
  186.7400  178.0650  134.8060 C   0  0  0  0  0  2  0  0  0  0  0  0
  185.6440  176.6710  134.3500 S   0  0  0  0  0  0  0  0  0  0  0  0
  191.1780  175.8480  137.9070 C   0  0  1  0  0  3  0  0  0  0  0  0
  190.1110  177.7670  139.0380 C   0  0  0  0  0  3  0  0  0  0  0  0
  191.8700  174.6670  138.0960 F   0  0  0  0  0  0  0  0  0  0  0  0
  189.8740  175.5700  137.1340 C   0  0  0  0  0  2  0  0  0  0  0  0
  189.0280  177.6950  138.2590 C   0  0  0  0  0  3  0  0  0  0  0  0
  188.6550  176.3810  137.6240 C   0  0  1  0  0  3  0  0  0  0  0  0
  190.9450  176.5380  139.2520 C   0  0  0  0  0  2  0  0  0  0  0  0
  182.4490  175.8210  137.3930 C   0  0  0  0  0  0  0  0  0  0  0  0
  182.0880  176.0980  139.7260 C   0  0  0  0  0  3  0  0  0  0  0  0
  182.6180  175.4150  138.6800 N   0  0  0  0  0  0  0  0  0  0  0  0
  181.4790  177.5410  135.7820 C   0  0  0  0  0  1  0  0  0  0  0  0
  181.3480  177.2510  139.4820 C   0  0  0  0  0  0  0  0  0  0  0  0
  180.7570  178.0170  140.6100 C   0  0  0  0  0  1  0  0  0  0  0  0
  181.6990  176.9960  137.1500 C   0  0  0  0  0  0  0  0  0  0  0  0
  181.1730  177.6740  138.2040 N   0  0  0  0  0  0  0  0  0  0  0  0
  1  6  1  0  0  0  0
  2 24  1  1  0  0  0
  3  2  1  0  0  0  0
  3  6  1  1  0  0  0
  5  1  1  0  0  0  0
  7  8  1  0  0  0  0
  7  5  1  0  0  0  0
  8  2  1  0  0  0  0
  8  4  1  1  0  0  0
  9 11  1  1  0  0  0
  9 12  1  0  0  0  0
  9 22  1  0  0  0  0
 10 11  1  0  0  0  0
 12 13  1  6  0  0  0
 14 16  1  6  0  0  0
 14  3  1  0  0  0  0
 14 12  1  0  0  0  0
 15 11  1  0  0  0  0
 16 15  1  0  0  0  0
 17 19  1  1  0  0  0
 17 23  1  0  0  0  0
 18 23  1  0  0  0  0
 20 17  1  0  0  0  0
 21 18  2  0  0  0  0
 22 20  1  6  0  0  0
 22 21  1  0  0  0  0
 24 26  1  0  0  0  0
 26 25  2  0  0  0  0
 27 30  1  0  0  0  0
 28 25  1  0  0  0  0
 28 29  1  0  0  0  0
 30 24  2  0  0  0  0
 30 31  1  0  0  0  0
 31 28  2  0  0  0  0
M  END
>  <MODEL>
4

>  <REMARK>
 VINA RESULT:      -4.9      3.312      6.554
  Name = 
  3 active torsions:
  status: ('A' for Active; 'I' for Inactive)
    1  A    between atoms: C_3  and  C_22
    2  A    between atoms: C_4  and  C_5
    3  A    between atoms: N_12  and  C_21
                            x       y       z     vdW  Elec       q    Type
                         _______ _______ _______ _____ _____    ______ ____

>  <TORSDO>
F 3

$$$$
=
 OpenBabel10272400203D

 31 34  0  0  1  0  0  0  0  0999 V2000
  185.6500  179.0580  141.2020 C   0  0  0  0  0  2  0  0  0  0  0  0
  183.1560  178.0600  139.4720 C   0  0  1  0  0  3  0  0  0  0  0  0
  184.6160  177.9470  139.2800 N   0  0  2  0  0  0  0  0  0  0  0  0
  181.3830  178.4210  141.3190 C   0  0  0  0  0  1  0  0  0  0  0  0
  184.4350  179.0070  142.1200 C   0  0  0  0  0  2  0  0  0  0  0  0
  185.2450  179.1860  139.7400 C   0  0  0  0  0  2  0  0  0  0  0  0
  183.7030  177.6760  141.9850 C   0  0  0  0  0  2  0  0  0  0  0  0
  182.6410  177.6880  140.8820 C   0  0  2  0  0  3  0  0  0  0  0  0
  187.1870  176.5120  137.5230 C   0  0  2  0  0  3  0  0  0  0  0  0
  187.0340  174.3080  136.6700 C   0  0  0  0  0  1  0  0  0  0  0  0
  186.8440  175.7120  136.3330 N   0  0  0  0  0  0  0  0  0  0  0  0
  186.4480  177.8650  137.5930 C   0  0  1  0  0  3  0  0  0  0  0  0
  186.6600  178.7270  136.3570 C   0  0  0  0  0  1  0  0  0  0  0  0
  184.9390  177.6970  137.8640 C   0  0  1  0  0  3  0  0  0  0  0  0
  185.4420  175.8660  135.9220 C   0  0  0  0  0  2  0  0  0  0  0  0
  184.3030  176.0420  137.3460 S   0  0  0  0  0  0  0  0  0  0  0  0
  190.5440  176.6490  139.5440 C   0  0  1  0  0  3  0  0  0  0  0  0
  190.7180  175.2280  137.5310 C   0  0  0  0  0  3  0  0  0  0  0  0
  191.1390  177.6680  140.2630 F   0  0  0  0  0  0  0  0  0  0  0  0
  189.1160  177.0620  139.1370 C   0  0  0  0  0  2  0  0  0  0  0  0
  189.4260  175.3950  137.2340 C   0  0  0  0  0  3  0  0  0  0  0  0
  188.7060  176.6290  137.7130 C   0  0  1  0  0  3  0  0  0  0  0  0
  191.4230  176.2670  138.3520 C   0  0  0  0  0  2  0  0  0  0  0  0
  182.4100  179.0660  138.6110 C   0  0  0  0  0  0  0  0  0  0  0  0
  182.0110  181.3620  138.1410 C   0  0  0  0  0  3  0  0  0  0  0  0
  182.6390  180.3860  138.8460 N   0  0  0  0  0  0  0  0  0  0  0  0
  181.1920  177.2960  137.2400 C   0  0  0  0  0  1  0  0  0  0  0  0
  181.1050  181.0080  137.1460 C   0  0  0  0  0  0  0  0  0  0  0  0
  180.4050  182.0580  136.3610 C   0  0  0  0  0  1  0  0  0  0  0  0
  181.4920  178.7110  137.5950 C   0  0  0  0  0  0  0  0  0  0  0  0
  180.8690  179.6950  136.8950 N   0  0  0  0  0  0  0  0  0  0  0  0
  1  5  1  0  0  0  0
  2 24  1  1  0  0  0
  2  8  1  0  0  0  0
  3  2  1  0  0  0  0
  3  6  1  6  0  0  0
  6  1  1  0  0  0  0
  7  5  1  0  0  0  0
  8  4  1  1  0  0  0
  8  7  1  0  0  0  0
  9 11  1  6  0  0  0
  9 12  1  0  0  0  0
  9 22  1  0  0  0  0
 11 10  1  0  0  0  0
 12 13  1  6  0  0  0
 12 14  1  0  0  0  0
 14 16  1  1  0  0  0
 14  3  1  0  0  0  0
 15 11  1  0  0  0  0
 15 16  1  0  0  0  0
 17 19  1  6  0  0  0
 18 23  1  0  0  0  0
 20 17  1  0  0  0  0
 21 18  2  0  0  0  0
 22 21  1  1  0  0  0
 22 20  1  0  0  0  0
 23 17  1  0  0  0  0
 24 26  1  0  0  0  0
 25 26  2  0  0  0  0
 27 30  1  0  0  0  0
 28 25  1  0  0  0  0
 29 28  1  0  0  0  0
 30 24  2  0  0  0  0
 31 28  2  0  0  0  0
 31 30  1  0  0  0  0
M  END
>  <MODEL>
5

>  <REMARK>
 VINA RESULT:      -4.5      3.034      7.068
  Name = 
  3 active torsions:
  status: ('A' for Active; 'I' for Inactive)
    1  A    between atoms: C_3  and  C_22
    2  A    between atoms: C_4  and  C_5
    3  A    between atoms: N_12  and  C_21
                            x       y       z     vdW  Elec       q    Type
                         _______ _______ _______ _____ _____    ______ ____

>  <TORSDO>
F 3

$$$$
=
 OpenBabel10272400203D

 31 34  0  0  1  0  0  0  0  0999 V2000
  188.5320  174.7770  134.8470 C   0  0  0  0  0  2  0  0  0  0  0  0
  191.1240  174.8640  136.7130 C   0  0  1  0  0  3  0  0  0  0  0  0
  189.8570  175.6220  136.7260 N   0  0  2  0  0  0  0  0  0  0  0  0
  192.1430  172.6440  135.8660 C   0  0  0  0  0  1  0  0  0  0  0  0
  189.2770  173.4590  134.6740 C   0  0  0  0  0  2  0  0  0  0  0  0
  189.4540  175.8830  135.3430 C   0  0  0  0  0  2  0  0  0  0  0  0
  189.6310  172.8490  136.0260 C   0  0  0  0  0  2  0  0  0  0  0  0
  190.9810  173.3320  136.5640 C   0  0  2  0  0  3  0  0  0  0  0  0
  187.8300  177.7180  138.5300 C   0  0  2  0  0  3  0  0  0  0  0  0
  187.7970  177.6850  140.8980 C   0  0  0  0  0  1  0  0  0  0  0  0
  188.3920  178.3420  139.7420 N   0  0  0  0  0  0  0  0  0  0  0  0
  188.7700  177.7870  137.3070 C   0  0  1  0  0  3  0  0  0  0  0  0
  189.2000  179.2050  136.9620 C   0  0  0  0  0  1  0  0  0  0  0  0
  190.0100  176.8860  137.4680 C   0  0  1  0  0  3  0  0  0  0  0  0
  189.8460  178.1700  139.8550 C   0  0  0  0  0  2  0  0  0  0  0  0
  190.4160  176.5430  139.2370 S   0  0  0  0  0  0  0  0  0  0  0  0
  184.0410  177.3720  137.5870 C   0  0  1  0  0  3  0  0  0  0  0  0
  184.4000  178.9300  139.4690 C   0  0  0  0  0  3  0  0  0  0  0  0
  183.4130  177.1980  136.3680 F   0  0  0  0  0  0  0  0  0  0  0  0
  185.5640  177.2170  137.4150 C   0  0  0  0  0  2  0  0  0  0  0  0
  185.7130  178.6840  139.4940 C   0  0  0  0  0  3  0  0  0  0  0  0
  186.4050  178.2140  138.2410 C   0  0  1  0  0  3  0  0  0  0  0  0
  183.6370  178.7160  138.1950 C   0  0  0  0  0  2  0  0  0  0  0  0
  192.3660  175.5830  136.2120 C   0  0  0  0  0  0  0  0  0  0  0  0
  193.4780  176.5530  134.3480 C   0  0  0  0  0  3  0  0  0  0  0  0
  192.4070  175.9220  134.8950 N   0  0  0  0  0  0  0  0  0  0  0  0
  193.5200  175.6030  138.4840 C   0  0  0  0  0  1  0  0  0  0  0  0
  194.5700  176.8640  135.1520 C   0  0  0  0  0  0  0  0  0  0  0  0
  195.7540  177.5540  134.5760 C   0  0  0  0  0  1  0  0  0  0  0  0
  193.4770  175.9050  137.0260 C   0  0  0  0  0  0  0  0  0  0  0  0
  194.5440  176.5370  136.4690 N   0  0  0  0  0  0  0  0  0  0  0  0
  1  6  1  0  0  0  0
  2 24  1  6  0  0  0
  2  3  1  0  0  0  0
  3  6  1  6  0  0  0
  3 14  1  0  0  0  0
  5  1  1  0  0  0  0
  5  7  1  0  0  0  0
  7  8  1  0  0  0  0
  8  4  1  6  0  0  0
  8  2  1  0  0  0  0
  9 11  1  1  0  0  0
 11 15  1  0  0  0  0
 11 10  1  0  0  0  0
 12 13  1  1  0  0  0
 12 14  1  0  0  0  0
 12  9  1  0  0  0  0
 14 16  1  1  0  0  0
 16 15  1  0  0  0  0
 17 19  1  6  0  0  0
 17 23  1  0  0  0  0
 18 21  2  0  0  0  0
 20 17  1  0  0  0  0
 22 20  1  1  0  0  0
 22  9  1  0  0  0  0
 22 21  1  0  0  0  0
 23 18  1  0  0  0  0
 24 30  1  0  0  0  0
 25 26  1  0  0  0  0
 25 28  2  0  0  0  0
 26 24  2  0  0  0  0
 28 31  1  0  0  0  0
 29 28  1  0  0  0  0
 30 27  1  0  0  0  0
 31 30  2  0  0  0  0
M  END
>  <MODEL>
6

>  <REMARK>
 VINA RESULT:      -4.4      5.335      8.000
  Name = 
  3 active torsions:
  status: ('A' for Active; 'I' for Inactive)
    1  A    between atoms: C_3  and  C_22
    2  A    between atoms: C_4  and  C_5
    3  A    between atoms: N_12  and  C_21
                            x       y       z     vdW  Elec       q    Type
                         _______ _______ _______ _____ _____    ______ ____

>  <TORSDO>
F 3

$$$$
=
 OpenBabel10272400203D

 31 34  0  0  1  0  0  0  0  0999 V2000
  182.0980  181.8110  138.6970 C   0  0  0  0  0  2  0  0  0  0  0  0
  180.7930  178.9450  138.1560 C   0  0  1  0  0  3  0  0  0  0  0  0
  181.1750  179.6520  139.3940 N   0  0  2  0  0  0  0  0  0  0  0  0
  180.1840  179.3870  135.6820 C   0  0  0  0  0  1  0  0  0  0  0  0
  181.4790  181.8340  137.3040 C   0  0  0  0  0  2  0  0  0  0  0  0
  182.4140  180.3920  139.1480 C   0  0  0  0  0  2  0  0  0  0  0  0
  180.0530  181.2970  137.3300 C   0  0  0  0  0  2  0  0  0  0  0  0
  179.9830  179.7800  137.1370 C   0  0  2  0  0  3  0  0  0  0  0  0
  183.5100  179.0780  141.8380 C   0  0  2  0  0  3  0  0  0  0  0  0
  183.1930  179.8240  144.0640 C   0  0  0  0  0  1  0  0  0  0  0  0
  183.0250  178.6830  143.1730 N   0  0  0  0  0  0  0  0  0  0  0  0
  182.8330  178.3110  140.6830 C   0  0  1  0  0  3  0  0  0  0  0  0
  182.9590  176.8000  140.8120 C   0  0  0  0  0  1  0  0  0  0  0  0
  181.3520  178.7020  140.5070 C   0  0  1  0  0  3  0  0  0  0  0  0
  181.5970  178.3380  143.1860 C   0  0  0  0  0  2  0  0  0  0  0  0
  180.6080  179.3820  142.0530 S   0  0  0  0  0  0  0  0  0  0  0  0
  187.1240  177.7200  142.5210 C   0  0  1  0  0  3  0  0  0  0  0  0
  186.8320  178.4760  140.1880 C   0  0  0  0  0  3  0  0  0  0  0  0
  187.9330  177.7910  143.6380 F   0  0  0  0  0  0  0  0  0  0  0  0
  185.7090  178.2210  142.8680 C   0  0  0  0  0  2  0  0  0  0  0  0
  185.5380  178.7480  140.3800 C   0  0  0  0  0  3  0  0  0  0  0  0
  185.0450  179.0740  141.7650 C   0  0  1  0  0  3  0  0  0  0  0  0
  187.7660  178.4840  141.3610 C   0  0  0  0  0  2  0  0  0  0  0  0
  181.6880  177.8060  137.6940 C   0  0  0  0  0  0  0  0  0  0  0  0
  183.7930  177.1860  136.7810 C   0  0  0  0  0  3  0  0  0  0  0  0
  182.9260  178.1280  137.2310 N   0  0  0  0  0  0  0  0  0  0  0  0
  179.9850  175.9850  138.2190 C   0  0  0  0  0  1  0  0  0  0  0  0
  183.4110  175.8480  136.7920 C   0  0  0  0  0  0  0  0  0  0  0  0
  184.3430  174.7970  136.3050 C   0  0  0  0  0  1  0  0  0  0  0  0
  181.3060  176.4450  137.7070 C   0  0  0  0  0  0  0  0  0  0  0  0
  182.1820  175.5080  137.2550 N   0  0  0  0  0  0  0  0  0  0  0  0
  1  6  1  0  0  0  0
  2 24  1  6  0  0  0
  2  3  1  0  0  0  0
  3  6  1  6  0  0  0
  3 14  1  0  0  0  0
  5  7  1  0  0  0  0
  5  1  1  0  0  0  0
  8  4  1  6  0  0  0
  8  7  1  0  0  0  0
  8  2  1  0  0  0  0
  9 11  1  1  0  0  0
 11 15  1  0  0  0  0
 11 10  1  0  0  0  0
 12 13  1  1  0  0  0
 12  9  1  0  0  0  0
 14 12  1  0  0  0  0
 14 16  1  1  0  0  0
 16 15  1  0  0  0  0
 17 20  1  0  0  0  0
 17 19  1  1  0  0  0
 18 21  2  0  0  0  0
 18 23  1  0  0  0  0
 22 21  1  6  0  0  0
 22  9  1  0  0  0  0
 22 20  1  0  0  0  0
 23 17  1  0  0  0  0
 24 30  1  0  0  0  0
 25 28  2  0  0  0  0
 25 26  1  0  0  0  0
 26 24  2  0  0  0  0
 28 31  1  0  0  0  0
 29 28  1  0  0  0  0
 30 27  1  0  0  0  0
 31 30  2  0  0  0  0
M  END
>  <MODEL>
7

>  <REMARK>
 VINA RESULT:      -3.8      2.532      4.719
  Name = 
  3 active torsions:
  status: ('A' for Active; 'I' for Inactive)
    1  A    between atoms: C_3  and  C_22
    2  A    between atoms: C_4  and  C_5
    3  A    between atoms: N_12  and  C_21
                            x       y       z     vdW  Elec       q    Type
                         _______ _______ _______ _____ _____    ______ ____

>  <TORSDO>
F 3

$$$$
=
 OpenBabel10272400203D

 31 34  0  0  1  0  0  0  0  0999 V2000
  194.9230  174.8780  138.3060 C   0  0  0  0  0  2  0  0  0  0  0  0
  194.3460  173.3940  135.5370 C   0  0  1  0  0  3  0  0  0  0  0  0
  193.5590  174.3480  136.3420 N   0  0  2  0  0  0  0  0  0  0  0  0
  196.7780  172.6090  135.1380 C   0  0  0  0  0  1  0  0  0  0  0  0
  196.2600  174.4320  137.7280 C   0  0  0  0  0  2  0  0  0  0  0  0
  193.7690  174.0490  137.7600 C   0  0  0  0  0  2  0  0  0  0  0  0
  196.3840  174.8360  136.2630 C   0  0  0  0  0  2  0  0  0  0  0  0
  195.8250  173.7820  135.3040 C   0  0  2  0  0  3  0  0  0  0  0  0
  190.7760  176.3060  136.7600 C   0  0  2  0  0  3  0  0  0  0  0  0
  189.9200  177.6450  135.0030 C   0  0  0  0  0  1  0  0  0  0  0  0
  189.7950  176.3510  135.6600 N   0  0  0  0  0  0  0  0  0  0  0  0
  191.2480  174.8790  137.1090 C   0  0  1  0  0  3  0  0  0  0  0  0
  190.1040  173.9350  137.4480 C   0  0  0  0  0  1  0  0  0  0  0  0
  192.1270  174.2640  136.0020 C   0  0  1  0  0  3  0  0  0  0  0  0
  190.0370  175.3270  134.6340 C   0  0  0  0  0  2  0  0  0  0  0  0
  191.8190  175.0210  134.3460 S   0  0  0  0  0  0  0  0  0  0  0  0
  188.2360  177.5070  139.4940 C   0  0  1  0  0  3  0  0  0  0  0  0
  190.4790  177.0640  140.4290 C   0  0  0  0  0  3  0  0  0  0  0  0
  187.1930  178.4120  139.4410 F   0  0  0  0  0  0  0  0  0  0  0  0
  188.7670  177.2390  138.0730 C   0  0  0  0  0  2  0  0  0  0  0  0
  190.9440  176.6320  139.2530 C   0  0  0  0  0  3  0  0  0  0  0  0
  190.3030  177.1150  137.9770 C   0  0  1  0  0  3  0  0  0  0  0  0
  189.3150  178.0100  140.4560 C   0  0  0  0  0  2  0  0  0  0  0  0
  193.9180  171.9350  135.5600 C   0  0  0  0  0  0  0  0  0  0  0  0
  192.6610  170.2230  134.4940 C   0  0  0  0  0  3  0  0  0  0  0  0
  193.1100  171.5020  134.5550 N   0  0  0  0  0  0  0  0  0  0  0  0
  195.2020  171.3800  137.6900 C   0  0  0  0  0  1  0  0  0  0  0  0
  193.0350  169.3210  135.4850 C   0  0  0  0  0  0  0  0  0  0  0  0
  192.5560  167.9150  135.4410 C   0  0  0  0  0  1  0  0  0  0  0  0
  194.2990  171.0140  136.5630 C   0  0  0  0  0  0  0  0  0  0  0  0
  193.8450  169.7350  136.4930 N   0  0  0  0  0  0  0  0  0  0  0  0
  2 24  1  1  0  0  0
  2  3  1  0  0  0  0
  3  6  1  1  0  0  0
  5  1  1  0  0  0  0
  6  1  1  0  0  0  0
  7  5  1  0  0  0  0
  8  4  1  1  0  0  0
  8  2  1  0  0  0  0
  8  7  1  0  0  0  0
  9 11  1  6  0  0  0
  9 12  1  0  0  0  0
  9 22  1  0  0  0  0
 10 11  1  0  0  0  0
 12 13  1  6  0  0  0
 14 16  1  6  0  0  0
 14  3  1  0  0  0  0
 14 12  1  0  0  0  0
 15 11  1  0  0  0  0
 16 15  1  0  0  0  0
 17 19  1  6  0  0  0
 17 23  1  0  0  0  0
 18 23  1  0  0  0  0
 20 17  1  0  0  0  0
 21 18  2  0  0  0  0
 22 20  1  1  0  0  0
 22 21  1  0  0  0  0
 24 30  1  0  0  0  0
 25 26  1  0  0  0  0
 25 28  2  0  0  0  0
 26 24  2  0  0  0  0
 28 31  1  0  0  0  0
 29 28  1  0  0  0  0
 30 27  1  0  0  0  0
 31 30  2  0  0  0  0
M  END
>  <MODEL>
8

>  <REMARK>
 VINA RESULT:      -3.6      7.578      9.738
  Name = 
  3 active torsions:
  status: ('A' for Active; 'I' for Inactive)
    1  A    between atoms: C_3  and  C_22
    2  A    between atoms: C_4  and  C_5
    3  A    between atoms: N_12  and  C_21
                            x       y       z     vdW  Elec       q    Type
                         _______ _______ _______ _____ _____    ______ ____

>  <TORSDO>
F 3

$$$$
=
 OpenBabel10272400203D

 31 34  0  0  1  0  0  0  0  0999 V2000
  187.8820  177.8290  138.2020 C   0  0  0  0  0  2  0  0  0  0  0  0
  187.6490  176.2850  135.4150 C   0  0  1  0  0  3  0  0  0  0  0  0
  186.6390  176.8300  136.3430 N   0  0  2  0  0  0  0  0  0  0  0  0
  190.1350  176.5460  134.7510 C   0  0  0  0  0  1  0  0  0  0  0  0
  189.2160  177.9660  137.4790 C   0  0  0  0  0  2  0  0  0  0  0  0
  187.1000  176.6160  137.7150 C   0  0  0  0  0  2  0  0  0  0  0  0
  189.0130  178.4100  136.0340 C   0  0  0  0  0  2  0  0  0  0  0  0
  188.8180  177.2360  135.0710 C   0  0  2  0  0  3  0  0  0  0  0  0
  183.3710  177.4940  137.1420 C   0  0  2  0  0  3  0  0  0  0  0  0
  181.8660  178.4170  135.5630 C   0  0  0  0  0  1  0  0  0  0  0  0
  182.3390  177.1660  136.1410 N   0  0  0  0  0  0  0  0  0  0  0  0
  184.4070  176.3690  137.3520 C   0  0  1  0  0  3  0  0  0  0  0  0
  183.7770  175.0370  137.7300 C   0  0  0  0  0  1  0  0  0  0  0  0
  185.3300  176.1860  136.1300 C   0  0  1  0  0  3  0  0  0  0  0  0
  182.8520  176.3500  135.0330 C   0  0  0  0  0  2  0  0  0  0  0  0
  184.5660  176.7940  134.5630 S   0  0  0  0  0  0  0  0  0  0  0  0
  181.3450  177.2560  140.4900 C   0  0  1  0  0  3  0  0  0  0  0  0
  183.4370  178.5440  140.7490 C   0  0  0  0  0  3  0  0  0  0  0  0
  179.9870  177.2470  140.7390 F   0  0  0  0  0  0  0  0  0  0  0  0
  181.5990  177.1360  138.9750 C   0  0  0  0  0  2  0  0  0  0  0  0
  183.8050  178.3050  139.4870 C   0  0  0  0  0  3  0  0  0  0  0  0
  182.7540  178.0150  138.4480 C   0  0  1  0  0  3  0  0  0  0  0  0
  181.9820  178.5020  141.1100 C   0  0  0  0  0  2  0  0  0  0  0  0
  187.8390  174.7770  135.3920 C   0  0  0  0  0  0  0  0  0  0  0  0
  187.2500  172.7210  134.3550 C   0  0  0  0  0  3  0  0  0  0  0  0
  187.1590  174.0720  134.4480 N   0  0  0  0  0  0  0  0  0  0  0  0
  189.4740  174.7480  137.3470 C   0  0  0  0  0  1  0  0  0  0  0  0
  188.0620  172.0290  135.2480 C   0  0  0  0  0  0  0  0  0  0  0  0
  188.1780  170.5500  135.1660 C   0  0  0  0  0  1  0  0  0  0  0  0
  188.6660  174.0690  136.2950 C   0  0  0  0  0  0  0  0  0  0  0  0
  188.7510  172.7170  136.1930 N   0  0  0  0  0  0  0  0  0  0  0  0
  2 24  1  1  0  0  0
  2  3  1  0  0  0  0
  3  6  1  1  0  0  0
  5  1  1  0  0  0  0
  6  1  1  0  0  0  0
  7  5  1  0  0  0  0
  8  4  1  1  0  0  0
  8  2  1  0  0  0  0
  8  7  1  0  0  0  0
  9 11  1  6  0  0  0
  9 12  1  0  0  0  0
  9 22  1  0  0  0  0
 10 11  1  0  0  0  0
 12 13  1  6  0  0  0
 14 16  1  6  0  0  0
 14  3  1  0  0  0  0
 14 12  1  0  0  0  0
 15 11  1  0  0  0  0
 16 15  1  0  0  0  0
 17 19  1  6  0  0  0
 17 23  1  0  0  0  0
 18 23  1  0  0  0  0
 20 17  1  0  0  0  0
 21 18  2  0  0  0  0
 22 20  1  1  0  0  0
 22 21  1  0  0  0  0
 24 30  1  0  0  0  0
 25 26  1  0  0  0  0
 25 28  2  0  0  0  0
 26 24  2  0  0  0  0
 28 31  1  0  0  0  0
 29 28  1  0  0  0  0
 30 27  1  0  0  0  0
 31 30  2  0  0  0  0
M  END
>  <MODEL>
9

>  <REMARK>
 VINA RESULT:      -3.4      2.630      3.833
  Name = 
  3 active torsions:
  status: ('A' for Active; 'I' for Inactive)
    1  A    between atoms: C_3  and  C_22
    2  A    between atoms: C_4  and  C_5
    3  A    between atoms: N_12  and  C_21
                            x       y       z     vdW  Elec       q    Type
                         _______ _______ _______ _____ _____    ______ ____

>  <TORSDO>
F 3

$$$$
