=
 OpenBabel10272413283D

 32 37  0  0  1  0  0  0  0  0999 V2000
  187.9760  177.0920  137.1790 C   0  0  1  0  0  3  0  0  0  0  0  0
  188.0520  177.5620  142.0040 C   0  0  1  0  0  3  0  0  0  0  0  0
  183.3980  178.9170  142.9950 C   0  0  0  0  0  3  0  0  0  0  0  0
  183.6550  178.6720  144.4320 C   0  0  0  0  0  3  0  0  0  0  0  0
  189.5670  177.0970  144.0060 C   0  0  0  0  0  0  0  0  0  0  0  0
  189.7470  177.1310  145.3790 C   0  0  0  0  0  0  0  0  0  0  0  0
  188.8660  177.6490  139.7930 C   0  0  1  0  0  3  0  0  0  0  0  0
  186.4750  178.0440  140.1960 N   0  0  0  0  0  2  0  0  0  0  0  0
  189.1890  177.5480  147.4960 C   0  0  0  0  0  0  0  0  0  0  0  0
  187.2670  178.2580  137.8720 C   0  0  0  0  0  2  0  0  0  0  0  0
  184.3610  178.6950  142.0920 C   0  0  0  0  0  3  0  0  0  0  0  0
  186.8180  178.3810  141.5790 C   0  0  1  0  0  3  0  0  0  0  0  0
  185.6740  178.0990  142.5350 C   0  0  1  0  0  3  0  0  0  0  0  0
  187.3610  178.1130  144.4160 C   0  0  0  0  0  0  0  0  0  0  0  0
  190.4190  176.9810  147.4990 N   0  0  0  0  0  0  0  0  0  0  0  0
  189.8110  177.2410  137.2180 S   0  0  0  0  0  0  0  0  0  0  0  0
  187.6120  178.4250  139.3580 C   0  0  2  0  0  3  0  0  0  0  0  0
  190.7700  176.7190  146.2100 C   0  0  0  0  0  3  0  0  0  0  0  0
  190.0230  177.9900  138.8800 C   0  0  0  0  0  2  0  0  0  0  0  0
  184.9100  178.5090  144.8710 C   0  0  0  0  0  3  0  0  0  0  0  0
  186.0560  178.6680  143.9060 C   0  0  2  0  0  3  0  0  0  0  0  0
  187.5900  178.1250  145.7370 O   0  0  0  0  0  0  0  0  0  0  0  0
  189.1900  177.9750  141.1810 N   0  0  0  0  0  2  0  0  0  0  0  0
  190.5570  176.5090  143.1650 N   0  0  0  0  0  1  0  0  0  0  0  0
  188.4630  177.9690  148.7250 C   0  0  0  0  0  1  0  0  0  0  0  0
  188.3580  177.6360  143.4920 C   0  0  0  0  0  0  0  0  0  0  0  0
  188.7290  177.6590  146.2120 C   0  0  0  0  0  0  0  0  0  0  0  0
  187.5060  175.7490  137.7230 C   0  0  0  0  0  2  0  0  0  0  0  0
  186.3360  174.9820  136.5890 S   0  0  1  0  0  0  0  0  0  0  0  0
  187.1440  174.8310  135.3070 O   0  0  0  0  0  0  0  0  0  0  0  0
  186.2120  173.3410  137.1840 N   0  0  0  0  0  2  0  0  0  0  0  0
  184.8670  173.1840  137.7050 C   0  0  0  0  0  1  0  0  0  0  0  0
  1 16  1  0  0  0  0
  1 28  1  1  0  0  0
  1 10  1  0  0  0  0
  2 23  1  6  0  0  0
  2 26  1  0  0  0  0
  3  4  1  0  0  0  0
  4 20  2  0  0  0  0
  5  6  2  0  0  0  0
  6 18  1  0  0  0  0
  6 27  1  0  0  0  0
  7 19  1  6  0  0  0
  7 23  1  0  0  0  0
  9 15  1  0  0  0  0
  9 25  1  0  0  0  0
 11  3  2  0  0  0  0
 12  8  1  6  0  0  0
 12  2  1  0  0  0  0
 12 13  1  0  0  0  0
 13 11  1  6  0  0  0
 13 21  1  0  0  0  0
 14 22  1  0  0  0  0
 16 19  1  0  0  0  0
 17 10  1  6  0  0  0
 17  7  1  0  0  0  0
 17  8  1  0  0  0  0
 18 15  2  0  0  0  0
 21 14  1  0  0  0  0
 21 20  1  1  0  0  0
 22 27  1  0  0  0  0
 24  5  1  0  0  0  0
 26  5  1  0  0  0  0
 26 14  2  0  0  0  0
 27  9  2  0  0  0  0
 29 30  2  6  0  0  0
 29 31  1  0  0  0  0
 29 28  1  0  0  0  0
 31 32  1  0  0  0  0
M  END
>  <MODEL>
1

>  <REMARK>
 VINA RESULT:      -9.5      0.000      0.000
  Name = 
  3 active torsions:
  status: ('A' for Active; 'I' for Inactive)
    1  A    between atoms: S_1  and  N_10
    2  A    between atoms: S_1  and  C_24
    3  A    between atoms: C_2  and  C_24
                            x       y       z     vdW  Elec       q    Type
                         _______ _______ _______ _____ _____    ______ ____

>  <TORSDO>
F 3

$$$$
=
 OpenBabel10272413283D

 32 37  0  0  1  0  0  0  0  0999 V2000
  190.4460  176.3310  137.2340 C   0  0  1  0  0  3  0  0  0  0  0  0
  189.5690  177.1310  141.9340 C   0  0  1  0  0  3  0  0  0  0  0  0
  184.9030  178.7740  141.8620 C   0  0  0  0  0  3  0  0  0  0  0  0
  184.8470  178.6170  143.3330 C   0  0  0  0  0  3  0  0  0  0  0  0
  190.6140  176.7340  144.2300 C   0  0  0  0  0  0  0  0  0  0  0  0
  190.5130  176.8550  145.6060 C   0  0  0  0  0  0  0  0  0  0  0  0
  190.8190  177.0250  139.9380 C   0  0  1  0  0  3  0  0  0  0  0  0
  188.4250  177.5620  139.8150 N   0  0  0  0  0  2  0  0  0  0  0  0
  189.5630  177.4450  147.5350 C   0  0  0  0  0  0  0  0  0  0  0  0
  189.6830  177.5750  137.6960 C   0  0  0  0  0  2  0  0  0  0  0  0
  186.0140  178.4440  141.1910 C   0  0  0  0  0  3  0  0  0  0  0  0
  188.5000  177.9780  141.2170 C   0  0  1  0  0  3  0  0  0  0  0  0
  187.1700  177.8180  141.9310 C   0  0  1  0  0  3  0  0  0  0  0  0
  188.4380  177.8810  144.1150 C   0  0  0  0  0  0  0  0  0  0  0  0
  190.7300  176.8200  147.8240 N   0  0  0  0  0  0  0  0  0  0  0  0
  192.2410  176.3940  137.6430 S   0  0  0  0  0  0  0  0  0  0  0  0
  189.7300  177.8280  139.2090 C   0  0  2  0  0  3  0  0  0  0  0  0
  191.3190  176.4520  146.6530 C   0  0  0  0  0  3  0  0  0  0  0  0
  192.1560  177.2460  139.2660 C   0  0  0  0  0  2  0  0  0  0  0  0
  185.9740  178.4250  144.0310 C   0  0  0  0  0  3  0  0  0  0  0  0
  187.3000  178.4610  143.3160 C   0  0  2  0  0  3  0  0  0  0  0  0
  188.3940  177.9740  145.4520 O   0  0  0  0  0  0  0  0  0  0  0  0
  190.8730  177.4300  141.3420 N   0  0  0  0  0  2  0  0  0  0  0  0
  191.7170  176.0420  143.6480 N   0  0  0  0  0  1  0  0  0  0  0  0
  188.6300  177.9840  148.5600 C   0  0  0  0  0  1  0  0  0  0  0  0
  189.5700  177.2930  143.4470 C   0  0  0  0  0  0  0  0  0  0  0  0
  189.3810  177.4880  146.1790 C   0  0  0  0  0  0  0  0  0  0  0  0
  189.7940  175.0540  137.7460 C   0  0  0  0  0  2  0  0  0  0  0  0
  189.7650  173.7970  136.4560 S   0  0  1  0  0  0  0  0  0  0  0  0
  188.6290  172.8800  136.8910 O   0  0  0  0  0  0  0  0  0  0  0  0
  189.0950  174.6450  135.0800 N   0  0  0  0  0  2  0  0  0  0  0  0
  187.6630  174.7350  135.2980 C   0  0  0  0  0  1  0  0  0  0  0  0
  1 16  1  0  0  0  0
  1 10  1  0  0  0  0
  1 28  1  1  0  0  0
  2 23  1  6  0  0  0
  2 26  1  0  0  0  0
  3  4  1  0  0  0  0
  4 20  2  0  0  0  0
  5  6  2  0  0  0  0
  6 27  1  0  0  0  0
  6 18  1  0  0  0  0
  7 19  1  6  0  0  0
  7 23  1  0  0  0  0
  9 15  1  0  0  0  0
  9 25  1  0  0  0  0
 11  3  2  0  0  0  0
 12  8  1  6  0  0  0
 12 13  1  0  0  0  0
 12  2  1  0  0  0  0
 13 11  1  6  0  0  0
 13 21  1  0  0  0  0
 14 22  1  0  0  0  0
 16 19  1  0  0  0  0
 17 10  1  6  0  0  0
 17  8  1  0  0  0  0
 17  7  1  0  0  0  0
 18 15  2  0  0  0  0
 21 20  1  1  0  0  0
 21 14  1  0  0  0  0
 22 27  1  0  0  0  0
 24  5  1  0  0  0  0
 26 14  2  0  0  0  0
 26  5  1  0  0  0  0
 27  9  2  0  0  0  0
 29 30  2  1  0  0  0
 29 28  1  0  0  0  0
 31 32  1  0  0  0  0
 31 29  1  0  0  0  0
M  END
>  <MODEL>
2

>  <REMARK>
 VINA RESULT:      -9.1      1.802      2.017
  Name = 
  3 active torsions:
  status: ('A' for Active; 'I' for Inactive)
    1  A    between atoms: S_1  and  N_10
    2  A    between atoms: S_1  and  C_24
    3  A    between atoms: C_2  and  C_24
                            x       y       z     vdW  Elec       q    Type
                         _______ _______ _______ _____ _____    ______ ____

>  <TORSDO>
F 3

$$$$
=
 OpenBabel10272413283D

 32 37  0  0  1  0  0  0  0  0999 V2000
  184.7850  177.9300  137.7650 C   0  0  1  0  0  3  0  0  0  0  0  0
  187.2410  177.6270  141.9340 C   0  0  1  0  0  3  0  0  0  0  0  0
  183.8010  178.8670  145.2660 C   0  0  0  0  0  3  0  0  0  0  0  0
  184.7010  178.3930  146.3410 C   0  0  0  0  0  3  0  0  0  0  0  0
  189.4900  176.8300  142.8440 C   0  0  0  0  0  0  0  0  0  0  0  0
  190.3180  176.6430  143.9380 C   0  0  0  0  0  0  0  0  0  0  0  0
  186.8800  178.0530  139.6440 C   0  0  1  0  0  3  0  0  0  0  0  0
  185.0350  178.4100  141.2250 N   0  0  0  0  0  2  0  0  0  0  0  0
  190.9010  176.7260  146.0880 C   0  0  0  0  0  0  0  0  0  0  0  0
  184.6110  178.9800  138.8650 C   0  0  0  0  0  2  0  0  0  0  0  0
  184.1780  178.7790  143.9840 C   0  0  0  0  0  3  0  0  0  0  0  0
  186.0360  178.5190  142.2870 C   0  0  1  0  0  3  0  0  0  0  0  0
  185.4810  178.1030  143.6380 C   0  0  1  0  0  3  0  0  0  0  0  0
  187.8640  177.7960  144.4210 C   0  0  0  0  0  0  0  0  0  0  0  0
  191.9200  176.1490  145.4070 N   0  0  0  0  0  0  0  0  0  0  0  0
  186.4120  178.0480  136.9110 S   0  0  0  0  0  0  0  0  0  0  0  0
  185.6490  178.9050  139.9920 C   0  0  2  0  0  3  0  0  0  0  0  0
  191.5740  176.0900  144.0920 C   0  0  0  0  0  3  0  0  0  0  0  0
  187.4730  178.5200  138.3320 C   0  0  0  0  0  2  0  0  0  0  0  0
  185.9910  178.1460  146.0760 C   0  0  0  0  0  3  0  0  0  0  0  0
  186.5320  178.4420  144.7020 C   0  0  2  0  0  3  0  0  0  0  0  0
  188.7070  177.5950  145.4430 O   0  0  0  0  0  0  0  0  0  0  0  0
  187.8670  178.1500  140.7190 N   0  0  0  0  0  2  0  0  0  0  0  0
  189.8890  176.3700  141.5540 N   0  0  0  0  0  1  0  0  0  0  0  0
  190.9050  176.9550  147.5580 C   0  0  0  0  0  1  0  0  0  0  0  0
  188.2370  177.4590  143.0710 C   0  0  0  0  0  0  0  0  0  0  0  0
  189.8860  177.0450  145.2270 C   0  0  0  0  0  0  0  0  0  0  0  0
  184.5210  176.5250  138.2880 C   0  0  0  0  0  2  0  0  0  0  0  0
  182.7740  176.1110  138.1360 S   0  0  1  0  0  0  0  0  0  0  0  0
  182.7980  174.6260  137.8010 O   0  0  0  0  0  0  0  0  0  0  0  0
  182.2060  176.1440  139.7900 N   0  0  0  0  0  2  0  0  0  0  0  0
  181.2870  177.2630  139.8960 C   0  0  0  0  0  1  0  0  0  0  0  0
  1 28  1  1  0  0  0
  1 10  1  0  0  0  0
  2 23  1  6  0  0  0
  2 12  1  0  0  0  0
  2 26  1  0  0  0  0
  3  4  1  0  0  0  0
  5 26  1  0  0  0  0
  5  6  2  0  0  0  0
  6 18  1  0  0  0  0
  6 27  1  0  0  0  0
  7 19  1  6  0  0  0
  7 17  1  0  0  0  0
  7 23  1  0  0  0  0
  9 25  1  0  0  0  0
 11  3  2  0  0  0  0
 12  8  1  6  0  0  0
 12 13  1  0  0  0  0
 13 11  1  1  0  0  0
 13 21  1  0  0  0  0
 14 21  1  0  0  0  0
 14 22  1  0  0  0  0
 15  9  1  0  0  0  0
 16  1  1  0  0  0  0
 16 19  1  0  0  0  0
 17 10  1  6  0  0  0
 17  8  1  0  0  0  0
 18 15  2  0  0  0  0
 20  4  2  0  0  0  0
 21 20  1  1  0  0  0
 24  5  1  0  0  0  0
 26 14  2  0  0  0  0
 27 22  1  0  0  0  0
 27  9  2  0  0  0  0
 29 30  2  1  0  0  0
 29 28  1  0  0  0  0
 29 31  1  0  0  0  0
 31 32  1  0  0  0  0
M  END
>  <MODEL>
3

>  <REMARK>
 VINA RESULT:      -9.0      2.200      2.673
  Name = 
  3 active torsions:
  status: ('A' for Active; 'I' for Inactive)
    1  A    between atoms: S_1  and  N_10
    2  A    between atoms: S_1  and  C_24
    3  A    between atoms: C_2  and  C_24
                            x       y       z     vdW  Elec       q    Type
                         _______ _______ _______ _____ _____    ______ ____

>  <TORSDO>
F 3

$$$$
=
 OpenBabel10272413283D

 32 37  0  0  1  0  0  0  0  0999 V2000
  181.5340  179.8960  138.1230 C   0  0  1  0  0  3  0  0  0  0  0  0
  184.6230  178.7890  141.6920 C   0  0  1  0  0  3  0  0  0  0  0  0
  188.8430  178.0300  139.2230 C   0  0  0  0  0  3  0  0  0  0  0  0
  189.5740  178.0430  140.5100 C   0  0  0  0  0  3  0  0  0  0  0  0
  184.7590  178.7540  144.2420 C   0  0  0  0  0  0  0  0  0  0  0  0
  185.5150  178.5130  145.3770 C   0  0  0  0  0  0  0  0  0  0  0  0
  182.5720  178.8730  140.5330 C   0  0  1  0  0  3  0  0  0  0  0  0
  184.6620  178.7910  139.2460 N   0  0  0  0  0  2  0  0  0  0  0  0
  187.3260  177.9100  146.5270 C   0  0  0  0  0  0  0  0  0  0  0  0
  182.5580  178.7690  137.9630 C   0  0  0  0  0  2  0  0  0  0  0  0
  187.5180  178.2220  139.1990 C   0  0  0  0  0  3  0  0  0  0  0  0
  185.3090  178.2270  140.4310 C   0  0  1  0  0  3  0  0  0  0  0  0
  186.7920  178.5500  140.4800 C   0  0  1  0  0  3  0  0  0  0  0  0
  186.7310  178.0360  142.9530 C   0  0  0  0  0  0  0  0  0  0  0  0
  186.3760  178.2810  147.4190 N   0  0  0  0  0  0  0  0  0  0  0  0
  180.1700  179.4690  139.2840 S   0  0  0  0  0  0  0  0  0  0  0  0
  183.2650  178.3580  139.2610 C   0  0  2  0  0  3  0  0  0  0  0  0
  185.2650  178.6550  146.7280 C   0  0  0  0  0  3  0  0  0  0  0  0
  181.1090  178.4840  140.5140 C   0  0  0  0  0  2  0  0  0  0  0  0
  188.9010  177.9570  141.6650 C   0  0  0  0  0  3  0  0  0  0  0  0
  187.4080  177.7550  141.6360 C   0  0  2  0  0  3  0  0  0  0  0  0
  187.4150  177.8160  144.0840 O   0  0  0  0  0  0  0  0  0  0  0  0
  183.2370  178.3220  141.7140 N   0  0  0  0  0  2  0  0  0  0  0  0
  183.4430  179.2920  144.3540 N   0  0  0  0  0  1  0  0  0  0  0  0
  188.6880  177.4450  146.9050 C   0  0  0  0  0  1  0  0  0  0  0  0
  185.3600  178.4750  142.9850 C   0  0  0  0  0  0  0  0  0  0  0  0
  186.8450  178.0390  145.2530 C   0  0  0  0  0  0  0  0  0  0  0  0
  182.2050  181.2100  138.4980 C   0  0  0  0  0  2  0  0  0  0  0  0
  181.1640  182.6060  138.0370 S   0  0  1  0  0  0  0  0  0  0  0  0
  182.1740  183.7020  137.7220 O   0  0  0  0  0  0  0  0  0  0  0  0
  180.5550  182.1530  136.4610 N   0  0  0  0  0  2  0  0  0  0  0  0
  180.7290  183.3050  135.5960 C   0  0  0  0  0  1  0  0  0  0  0  0
  1 28  1  1  0  0  0
  1 16  1  0  0  0  0
  2 23  1  1  0  0  0
  2 26  1  0  0  0  0
  3  4  1  0  0  0  0
  4 20  2  0  0  0  0
  5 24  1  0  0  0  0
  5  6  2  0  0  0  0
  6 18  1  0  0  0  0
  7 19  1  6  0  0  0
  7 23  1  0  0  0  0
  8 17  1  0  0  0  0
  9 25  1  0  0  0  0
  9 15  1  0  0  0  0
 10  1  1  0  0  0  0
 11  3  2  0  0  0  0
 12  8  1  6  0  0  0
 12 13  1  0  0  0  0
 12  2  1  0  0  0  0
 13 11  1  6  0  0  0
 13 21  1  0  0  0  0
 14 26  2  0  0  0  0
 14 22  1  0  0  0  0
 16 19  1  0  0  0  0
 17 10  1  6  0  0  0
 17  7  1  0  0  0  0
 18 15  2  0  0  0  0
 21 20  1  1  0  0  0
 21 14  1  0  0  0  0
 22 27  1  0  0  0  0
 26  5  1  0  0  0  0
 27  6  1  0  0  0  0
 27  9  2  0  0  0  0
 29 30  2  6  0  0  0
 29 28  1  0  0  0  0
 31 29  1  0  0  0  0
 32 31  1  0  0  0  0
M  END
>  <MODEL>
4

>  <REMARK>
 VINA RESULT:      -8.3      4.264      6.135
  Name = 
  3 active torsions:
  status: ('A' for Active; 'I' for Inactive)
    1  A    between atoms: S_1  and  N_10
    2  A    between atoms: S_1  and  C_24
    3  A    between atoms: C_2  and  C_24
                            x       y       z     vdW  Elec       q    Type
                         _______ _______ _______ _____ _____    ______ ____

>  <TORSDO>
F 3

$$$$
=
 OpenBabel10272413283D

 32 37  0  0  1  0  0  0  0  0999 V2000
  181.4870  178.2490  139.4420 C   0  0  1  0  0  3  0  0  0  0  0  0
  185.7900  178.1580  141.6730 C   0  0  1  0  0  3  0  0  0  0  0  0
  184.5010  178.4440  146.4410 C   0  0  0  0  0  3  0  0  0  0  0  0
  185.8880  178.0880  146.8160 C   0  0  0  0  0  3  0  0  0  0  0  0
  188.2640  177.7700  141.1710 C   0  0  0  0  0  0  0  0  0  0  0  0
  189.5610  177.6780  141.6470 C   0  0  0  0  0  0  0  0  0  0  0  0
  184.2200  178.6610  139.9890 C   0  0  1  0  0  3  0  0  0  0  0  0
  183.4610  178.5280  142.3210 N   0  0  0  0  0  2  0  0  0  0  0  0
  191.1750  177.7270  143.1840 C   0  0  0  0  0  0  0  0  0  0  0  0
  181.7800  179.1630  140.6340 C   0  0  0  0  0  2  0  0  0  0  0  0
  184.1520  178.5230  145.1510 C   0  0  0  0  0  3  0  0  0  0  0  0
  184.8460  178.7620  142.7310 C   0  0  1  0  0  3  0  0  0  0  0  0
  185.1520  178.1500  144.0860 C   0  0  1  0  0  3  0  0  0  0  0  0
  187.6040  178.2760  143.4890 C   0  0  0  0  0  0  0  0  0  0  0  0
  191.7470  177.4170  141.9950 N   0  0  0  0  0  0  0  0  0  0  0  0
  182.3830  178.7510  137.9130 S   0  0  0  0  0  0  0  0  0  0  0  0
  183.2560  179.2200  141.0490 C   0  0  2  0  0  3  0  0  0  0  0  0
  190.7700  177.3810  141.0480 C   0  0  0  0  0  3  0  0  0  0  0  0
  183.9590  179.3280  138.6560 C   0  0  0  0  0  2  0  0  0  0  0  0
  186.8620  178.1250  145.8970 C   0  0  0  0  0  3  0  0  0  0  0  0
  186.5490  178.6180  144.5090 C   0  0  2  0  0  3  0  0  0  0  0  0
  188.8780  178.1790  143.8940 O   0  0  0  0  0  0  0  0  0  0  0  0
  185.6020  178.8800  140.4150 N   0  0  0  0  0  2  0  0  0  0  0  0
  187.9780  177.4910  139.8020 N   0  0  0  0  0  1  0  0  0  0  0  0
  191.9250  177.8500  144.4630 C   0  0  0  0  0  1  0  0  0  0  0  0
  187.2490  178.1160  142.1020 C   0  0  0  0  0  0  0  0  0  0  0  0
  189.8270  177.8940  143.0220 C   0  0  0  0  0  0  0  0  0  0  0  0
  181.7330  176.7860  139.7860 C   0  0  0  0  0  2  0  0  0  0  0  0
  181.9010  175.8020  138.2860 S   0  0  1  0  0  0  0  0  0  0  0  0
  183.2330  175.0920  138.4860 O   0  0  0  0  0  0  0  0  0  0  0  0
  180.7240  174.5260  138.5060 N   0  0  0  0  0  2  0  0  0  0  0  0
  180.1000  174.7480  139.7970 C   0  0  0  0  0  1  0  0  0  0  0  0
  1 28  1  1  0  0  0
  1 10  1  0  0  0  0
  2 23  1  6  0  0  0
  2 26  1  0  0  0  0
  2 12  1  0  0  0  0
  3  4  1  0  0  0  0
  5  6  2  0  0  0  0
  5 26  1  0  0  0  0
  6 27  1  0  0  0  0
  7 19  1  6  0  0  0
  7 23  1  0  0  0  0
  7 17  1  0  0  0  0
  9 25  1  0  0  0  0
 11  3  2  0  0  0  0
 12  8  1  6  0  0  0
 12 13  1  0  0  0  0
 13 21  1  0  0  0  0
 13 11  1  1  0  0  0
 14 22  1  0  0  0  0
 14 21  1  0  0  0  0
 15  9  1  0  0  0  0
 16 19  1  0  0  0  0
 16  1  1  0  0  0  0
 17 10  1  6  0  0  0
 17  8  1  0  0  0  0
 18  6  1  0  0  0  0
 18 15  2  0  0  0  0
 20  4  2  0  0  0  0
 21 20  1  1  0  0  0
 24  5  1  0  0  0  0
 26 14  2  0  0  0  0
 27  9  2  0  0  0  0
 27 22  1  0  0  0  0
 29 30  2  1  0  0  0
 29 31  1  0  0  0  0
 29 28  1  0  0  0  0
 31 32  1  0  0  0  0
M  END
>  <MODEL>
5

>  <REMARK>
 VINA RESULT:      -8.0      3.107      4.459
  Name = 
  3 active torsions:
  status: ('A' for Active; 'I' for Inactive)
    1  A    between atoms: S_1  and  N_10
    2  A    between atoms: S_1  and  C_24
    3  A    between atoms: C_2  and  C_24
                            x       y       z     vdW  Elec       q    Type
                         _______ _______ _______ _____ _____    ______ ____

>  <TORSDO>
F 3

$$$$
=
 OpenBabel10272413283D

 32 37  0  0  1  0  0  0  0  0999 V2000
  185.1600  177.5580  136.7800 C   0  0  1  0  0  3  0  0  0  0  0  0
  186.5950  177.8870  141.4000 C   0  0  1  0  0  3  0  0  0  0  0  0
  182.3730  178.9970  143.7290 C   0  0  0  0  0  3  0  0  0  0  0  0
  183.0390  178.7210  145.0220 C   0  0  0  0  0  3  0  0  0  0  0  0
  188.6340  177.4330  142.8680 C   0  0  0  0  0  0  0  0  0  0  0  0
  189.1980  177.4340  144.1330 C   0  0  0  0  0  0  0  0  0  0  0  0
  186.7390  178.0770  139.0550 C   0  0  1  0  0  3  0  0  0  0  0  0
  184.5510  178.3500  140.1370 N   0  0  0  0  0  2  0  0  0  0  0  0
  189.2540  177.7630  146.3370 C   0  0  0  0  0  0  0  0  0  0  0  0
  184.6370  178.6690  137.6950 C   0  0  0  0  0  2  0  0  0  0  0  0
  183.0450  178.8470  142.5800 C   0  0  0  0  0  3  0  0  0  0  0  0
  185.2630  178.6610  141.3780 C   0  0  1  0  0  3  0  0  0  0  0  0
  184.4500  178.2980  142.6070 C   0  0  1  0  0  3  0  0  0  0  0  0
  186.6030  178.3340  143.9300 C   0  0  0  0  0  0  0  0  0  0  0  0
  190.4530  177.2520  145.9660 N   0  0  0  0  0  0  0  0  0  0  0  0
  186.9230  177.7890  136.3030 S   0  0  0  0  0  0  0  0  0  0  0  0
  185.3870  178.8070  139.0260 C   0  0  2  0  0  3  0  0  0  0  0  0
  190.4300  177.0450  144.6210 C   0  0  0  0  0  3  0  0  0  0  0  0
  187.5750  178.4980  137.8650 C   0  0  0  0  0  2  0  0  0  0  0  0
  184.3720  178.6030  145.0790 C   0  0  0  0  0  3  0  0  0  0  0  0
  185.1880  178.8430  143.8360 C   0  0  2  0  0  3  0  0  0  0  0  0
  187.1990  178.3170  145.1300 O   0  0  0  0  0  0  0  0  0  0  0  0
  187.4350  178.3760  140.3060 N   0  0  0  0  0  2  0  0  0  0  0  0
  189.3630  176.9160  141.7560 N   0  0  0  0  0  1  0  0  0  0  0  0
  188.8940  178.1120  147.7370 C   0  0  0  0  0  1  0  0  0  0  0  0
  187.3100  177.9310  142.7410 C   0  0  0  0  0  0  0  0  0  0  0  0
  188.4420  177.8900  145.2420 C   0  0  0  0  0  0  0  0  0  0  0  0
  184.9130  176.1800  137.3790 C   0  0  0  0  0  2  0  0  0  0  0  0
  183.5600  175.3520  136.5250 S   0  0  1  0  0  0  0  0  0  0  0  0
  183.2260  176.3130  135.3930 O   0  0  0  0  0  0  0  0  0  0  0  0
  184.3510  174.0230  135.7080 N   0  0  0  0  0  2  0  0  0  0  0  0
  185.0750  173.2780  136.7210 C   0  0  0  0  0  1  0  0  0  0  0  0
  1 28  1  1  0  0  0
  1 10  1  0  0  0  0
  2 23  1  6  0  0  0
  2 26  1  0  0  0  0
  3  4  1  0  0  0  0
  4 20  2  0  0  0  0
  5  6  2  0  0  0  0
  6 18  1  0  0  0  0
  6 27  1  0  0  0  0
  7 19  1  6  0  0  0
  7 23  1  0  0  0  0
  9 25  1  0  0  0  0
 11  3  2  0  0  0  0
 12  8  1  6  0  0  0
 12  2  1  0  0  0  0
 12 13  1  0  0  0  0
 13 11  1  6  0  0  0
 13 21  1  0  0  0  0
 14 22  1  0  0  0  0
 15  9  1  0  0  0  0
 16  1  1  0  0  0  0
 16 19  1  0  0  0  0
 17 10  1  6  0  0  0
 17  7  1  0  0  0  0
 17  8  1  0  0  0  0
 18 15  2  0  0  0  0
 21 14  1  0  0  0  0
 21 20  1  1  0  0  0
 22 27  1  0  0  0  0
 24  5  1  0  0  0  0
 26  5  1  0  0  0  0
 26 14  2  0  0  0  0
 27  9  2  0  0  0  0
 29 30  2  6  0  0  0
 29 28  1  0  0  0  0
 31 29  1  0  0  0  0
 31 32  1  0  0  0  0
M  END
>  <MODEL>
6

>  <REMARK>
 VINA RESULT:      -7.7      1.657      1.952
  Name = 
  3 active torsions:
  status: ('A' for Active; 'I' for Inactive)
    1  A    between atoms: S_1  and  N_10
    2  A    between atoms: S_1  and  C_24
    3  A    between atoms: C_2  and  C_24
                            x       y       z     vdW  Elec       q    Type
                         _______ _______ _______ _____ _____    ______ ____

>  <TORSDO>
F 3

$$$$
=
 OpenBabel10272413283D

 32 37  0  0  1  0  0  0  0  0999 V2000
  182.2360  178.4230  140.3090 C   0  0  1  0  0  3  0  0  0  0  0  0
  187.0480  177.8530  140.4780 C   0  0  1  0  0  3  0  0  0  0  0  0
  187.9040  177.6260  145.3450 C   0  0  0  0  0  3  0  0  0  0  0  0
  189.2800  177.1600  145.0600 C   0  0  0  0  0  3  0  0  0  0  0  0
  189.0360  177.4070  138.9370 C   0  0  0  0  0  0  0  0  0  0  0  0
  190.3980  177.1950  138.8050 C   0  0  0  0  0  0  0  0  0  0  0  0
  184.9730  178.6310  139.6750 C   0  0  1  0  0  3  0  0  0  0  0  0
  185.2500  178.2560  142.0860 N   0  0  0  0  0  2  0  0  0  0  0  0
  192.5030  176.9800  139.5060 C   0  0  0  0  0  0  0  0  0  0  0  0
  183.0870  179.1710  141.3390 C   0  0  0  0  0  2  0  0  0  0  0  0
  187.0560  177.8770  144.3390 C   0  0  0  0  0  3  0  0  0  0  0  0
  186.6950  178.3710  141.8850 C   0  0  1  0  0  3  0  0  0  0  0  0
  187.4790  177.5860  142.9210 C   0  0  1  0  0  3  0  0  0  0  0  0
  189.4570  177.6620  141.3500 C   0  0  0  0  0  0  0  0  0  0  0  0
  192.4930  176.7870  138.1650 N   0  0  0  0  0  0  0  0  0  0  0  0
  182.4550  179.0610  138.5960 S   0  0  0  0  0  0  0  0  0  0  0  0
  184.5990  179.1060  141.0890 C   0  0  2  0  0  3  0  0  0  0  0  0
  191.2110  176.9130  137.7250 C   0  0  0  0  0  3  0  0  0  0  0  0
  184.2440  179.4660  138.6440 C   0  0  0  0  0  2  0  0  0  0  0  0
  189.7790  177.2590  143.8220 C   0  0  0  0  0  3  0  0  0  0  0  0
  188.9620  177.9310  142.7490 C   0  0  2  0  0  3  0  0  0  0  0  0
  190.7680  177.4540  141.1630 O   0  0  0  0  0  0  0  0  0  0  0  0
  186.4200  178.7290  139.4890 N   0  0  0  0  0  2  0  0  0  0  0  0
  188.1780  177.3090  137.8010 N   0  0  0  0  0  1  0  0  0  0  0  0
  193.7260  176.9100  140.3490 C   0  0  0  0  0  1  0  0  0  0  0  0
  188.5410  177.6880  140.2390 C   0  0  0  0  0  0  0  0  0  0  0  0
  191.2330  177.2310  139.9500 C   0  0  0  0  0  0  0  0  0  0  0  0
  182.4620  176.9190  140.3860 C   0  0  0  0  0  2  0  0  0  0  0  0
  182.0870  176.1410  138.8050 S   0  0  1  0  0  0  0  0  0  0  0  0
  183.2790  175.2200  138.5820 O   0  0  0  0  0  0  0  0  0  0  0  0
  180.7890  175.0360  139.1960 N   0  0  0  0  0  2  0  0  0  0  0  0
  180.2490  174.5590  137.9360 C   0  0  0  0  0  1  0  0  0  0  0  0
  1 28  1  6  0  0  0
  1 10  1  0  0  0  0
  2 23  1  6  0  0  0
  2 12  1  0  0  0  0
  4  3  1  0  0  0  0
  5 26  1  0  0  0  0
  6  5  2  0  0  0  0
  6 27  1  0  0  0  0
  7 19  1  6  0  0  0
  7 17  1  0  0  0  0
  9 27  2  0  0  0  0
  9 25  1  0  0  0  0
 11  3  2  0  0  0  0
 12  8  1  1  0  0  0
 12 13  1  0  0  0  0
 13 11  1  1  0  0  0
 14 21  1  0  0  0  0
 15  9  1  0  0  0  0
 16 19  1  0  0  0  0
 16  1  1  0  0  0  0
 17 10  1  6  0  0  0
 17  8  1  0  0  0  0
 18 15  2  0  0  0  0
 18  6  1  0  0  0  0
 20  4  2  0  0  0  0
 21 13  1  0  0  0  0
 21 20  1  1  0  0  0
 22 14  1  0  0  0  0
 23  7  1  0  0  0  0
 24  5  1  0  0  0  0
 26  2  1  0  0  0  0
 26 14  2  0  0  0  0
 27 22  1  0  0  0  0
 29 30  2  1  0  0  0
 29 31  1  0  0  0  0
 29 28  1  0  0  0  0
 32 31  1  0  0  0  0
M  END
>  <MODEL>
7

>  <REMARK>
 VINA RESULT:      -7.4      3.309      5.650
  Name = 
  3 active torsions:
  status: ('A' for Active; 'I' for Inactive)
    1  A    between atoms: S_1  and  N_10
    2  A    between atoms: S_1  and  C_24
    3  A    between atoms: C_2  and  C_24
                            x       y       z     vdW  Elec       q    Type
                         _______ _______ _______ _____ _____    ______ ____

>  <TORSDO>
F 3

$$$$
=
 OpenBabel10272413283D

 32 37  0  0  1  0  0  0  0  0999 V2000
  194.0910  175.3060  136.1910 C   0  0  1  0  0  3  0  0  0  0  0  0
  190.1000  176.8880  138.4430 C   0  0  1  0  0  3  0  0  0  0  0  0
  191.7750  177.8250  143.0030 C   0  0  0  0  0  3  0  0  0  0  0  0
  190.5100  178.5350  143.2990 C   0  0  0  0  0  3  0  0  0  0  0  0
  187.6900  177.5680  137.9400 C   0  0  0  0  0  0  0  0  0  0  0  0
  186.4780  178.0450  138.4120 C   0  0  0  0  0  0  0  0  0  0  0  0
  191.3930  175.6080  136.9460 C   0  0  1  0  0  3  0  0  0  0  0  0
  192.3850  176.2970  139.0850 N   0  0  0  0  0  2  0  0  0  0  0  0
  185.0350  178.7730  139.9470 C   0  0  0  0  0  0  0  0  0  0  0  0
  193.7640  174.8710  137.6220 C   0  0  0  0  0  2  0  0  0  0  0  0
  191.9800  177.2920  141.7920 C   0  0  0  0  0  3  0  0  0  0  0  0
  191.0260  176.4660  139.6010 C   0  0  1  0  0  3  0  0  0  0  0  0
  190.9590  177.5070  140.7030 C   0  0  1  0  0  3  0  0  0  0  0  0
  188.4750  177.6750  140.2720 C   0  0  0  0  0  0  0  0  0  0  0  0
  184.4120  178.8110  138.7440 N   0  0  0  0  0  0  0  0  0  0  0  0
  192.9800  174.5430  134.9360 S   0  0  0  0  0  0  0  0  0  0  0  0
  192.3460  175.2240  138.0900 C   0  0  2  0  0  3  0  0  0  0  0  0
  185.2850  178.3700  137.7970 C   0  0  0  0  0  3  0  0  0  0  0  0
  191.4080  174.5300  135.8830 C   0  0  0  0  0  2  0  0  0  0  0  0
  189.4600  178.4060  142.4780 C   0  0  0  0  0  3  0  0  0  0  0  0
  189.5510  177.4640  141.3060 C   0  0  2  0  0  3  0  0  0  0  0  0
  187.2810  178.1310  140.6740 O   0  0  0  0  0  0  0  0  0  0  0  0
  190.0420  175.7960  137.4720 N   0  0  0  0  0  2  0  0  0  0  0  0
  187.8850  177.3580  136.5430 N   0  0  0  0  0  1  0  0  0  0  0  0
  184.4020  179.1900  141.2270 C   0  0  0  0  0  1  0  0  0  0  0  0
  188.7170  177.3350  138.8930 C   0  0  0  0  0  0  0  0  0  0  0  0
  186.3140  178.3120  139.7950 C   0  0  0  0  0  0  0  0  0  0  0  0
  194.1300  176.8230  136.0640 C   0  0  0  0  0  2  0  0  0  0  0  0
  195.5430  177.3390  135.0740 S   0  0  1  0  0  0  0  0  0  0  0  0
  195.7310  178.7970  135.4720 O   0  0  0  0  0  0  0  0  0  0  0  0
  196.8920  176.5330  135.8440 N   0  0  0  0  0  2  0  0  0  0  0  0
  197.6150  175.8330  134.7990 C   0  0  0  0  0  1  0  0  0  0  0  0
  1 28  1  1  0  0  0
  1 10  1  0  0  0  0
  2 23  1  6  0  0  0
  2 26  1  0  0  0  0
  2 12  1  0  0  0  0
  3  4  1  0  0  0  0
  5  6  2  0  0  0  0
  5 26  1  0  0  0  0
  6 27  1  0  0  0  0
  7 19  1  6  0  0  0
  7 23  1  0  0  0  0
  7 17  1  0  0  0  0
  9 25  1  0  0  0  0
 11  3  2  0  0  0  0
 12  8  1  6  0  0  0
 12 13  1  0  0  0  0
 13 21  1  0  0  0  0
 13 11  1  1  0  0  0
 14 22  1  0  0  0  0
 14 21  1  0  0  0  0
 15  9  1  0  0  0  0
 16 19  1  0  0  0  0
 16  1  1  0  0  0  0
 17 10  1  6  0  0  0
 17  8  1  0  0  0  0
 18  6  1  0  0  0  0
 18 15  2  0  0  0  0
 20  4  2  0  0  0  0
 21 20  1  1  0  0  0
 24  5  1  0  0  0  0
 26 14  2  0  0  0  0
 27  9  2  0  0  0  0
 27 22  1  0  0  0  0
 29 30  2  1  0  0  0
 29 31  1  0  0  0  0
 29 28  1  0  0  0  0
 32 31  1  0  0  0  0
M  END
>  <MODEL>
8

>  <REMARK>
 VINA RESULT:      -7.1      4.263      7.336
  Name = 
  3 active torsions:
  status: ('A' for Active; 'I' for Inactive)
    1  A    between atoms: S_1  and  N_10
    2  A    between atoms: S_1  and  C_24
    3  A    between atoms: C_2  and  C_24
                            x       y       z     vdW  Elec       q    Type
                         _______ _______ _______ _____ _____    ______ ____

>  <TORSDO>
F 3

$$$$
=
 OpenBabel10272413283D

 32 37  0  0  1  0  0  0  0  0999 V2000
  184.0230  177.2850  136.3770 C   0  0  1  0  0  3  0  0  0  0  0  0
  184.7080  178.0350  141.1180 C   0  0  1  0  0  3  0  0  0  0  0  0
  180.1140  178.9660  142.7020 C   0  0  0  0  0  3  0  0  0  0  0  0
  180.5900  178.8310  144.0970 C   0  0  0  0  0  3  0  0  0  0  0  0
  186.5240  177.8420  142.9030 C   0  0  0  0  0  0  0  0  0  0  0  0
  186.8850  177.9720  144.2330 C   0  0  0  0  0  0  0  0  0  0  0  0
  185.1970  178.0780  138.8120 C   0  0  1  0  0  3  0  0  0  0  0  0
  182.8550  178.2510  139.5340 N   0  0  0  0  0  2  0  0  0  0  0  0
  186.5800  178.4520  146.3890 C   0  0  0  0  0  0  0  0  0  0  0  0
  183.2930  178.4110  137.1140 C   0  0  0  0  0  2  0  0  0  0  0  0
  180.9630  178.7920  141.6810 C   0  0  0  0  0  3  0  0  0  0  0  0
  183.3460  178.7000  140.8390 C   0  0  1  0  0  3  0  0  0  0  0  0
  182.3800  178.3580  141.9590 C   0  0  1  0  0  3  0  0  0  0  0  0
  184.2980  178.6500  143.5780 C   0  0  0  0  0  0  0  0  0  0  0  0
  187.8540  178.0130  146.2410 N   0  0  0  0  0  0  0  0  0  0  0  0
  185.8190  177.6210  136.1490 S   0  0  0  0  0  0  0  0  0  0  0  0
  183.8190  178.6970  138.5270 C   0  0  2  0  0  3  0  0  0  0  0  0
  188.0510  177.7140  144.9270 C   0  0  0  0  0  3  0  0  0  0  0  0
  186.1750  178.4820  137.7300 C   0  0  0  0  0  2  0  0  0  0  0  0
  181.9030  178.8210  144.3600 C   0  0  0  0  0  3  0  0  0  0  0  0
  182.8830  179.0400  143.2360 C   0  0  2  0  0  3  0  0  0  0  0  0
  184.7030  178.7610  144.8510 O   0  0  0  0  0  0  0  0  0  0  0  0
  185.6700  178.5140  140.1260 N   0  0  0  0  0  2  0  0  0  0  0  0
  187.4480  177.3100  141.9550 N   0  0  0  0  0  1  0  0  0  0  0  0
  185.9880  178.8650  147.6890 C   0  0  0  0  0  1  0  0  0  0  0  0
  185.2040  178.2250  142.5430 C   0  0  0  0  0  0  0  0  0  0  0  0
  185.9400  178.4410  145.1800 C   0  0  0  0  0  0  0  0  0  0  0  0
  183.7800  175.9350  137.0390 C   0  0  0  0  0  2  0  0  0  0  0  0
  182.0560  175.4450  136.8620 S   0  0  1  0  0  0  0  0  0  0  0  0
  182.1450  174.1520  136.0620 O   0  0  0  0  0  0  0  0  0  0  0  0
  181.6240  174.8990  138.4670 N   0  0  0  0  0  2  0  0  0  0  0  0
  180.1750  174.8250  138.5100 C   0  0  0  0  0  1  0  0  0  0  0  0
  1 28  1  1  0  0  0
  1 10  1  0  0  0  0
  2 23  1  6  0  0  0
  2 26  1  0  0  0  0
  3  4  1  0  0  0  0
  4 20  2  0  0  0  0
  5  6  2  0  0  0  0
  6 18  1  0  0  0  0
  6 27  1  0  0  0  0
  7 19  1  6  0  0  0
  7 23  1  0  0  0  0
  9 25  1  0  0  0  0
 11  3  2  0  0  0  0
 12  8  1  6  0  0  0
 12  2  1  0  0  0  0
 12 13  1  0  0  0  0
 13 11  1  6  0  0  0
 13 21  1  0  0  0  0
 14 22  1  0  0  0  0
 15  9  1  0  0  0  0
 16  1  1  0  0  0  0
 16 19  1  0  0  0  0
 17 10  1  6  0  0  0
 17  7  1  0  0  0  0
 17  8  1  0  0  0  0
 18 15  2  0  0  0  0
 21 14  1  0  0  0  0
 21 20  1  1  0  0  0
 22 27  1  0  0  0  0
 24  5  1  0  0  0  0
 26  5  1  0  0  0  0
 26 14  2  0  0  0  0
 27  9  2  0  0  0  0
 29 30  2  6  0  0  0
 29 28  1  0  0  0  0
 29 31  1  0  0  0  0
 31 32  1  0  0  0  0
M  END
>  <MODEL>
9

>  <REMARK>
 VINA RESULT:      -6.7      2.812      3.670
  Name = 
  3 active torsions:
  status: ('A' for Active; 'I' for Inactive)
    1  A    between atoms: S_1  and  N_10
    2  A    between atoms: S_1  and  C_24
    3  A    between atoms: C_2  and  C_24
                            x       y       z     vdW  Elec       q    Type
                         _______ _______ _______ _____ _____    ______ ____

>  <TORSDO>
F 3

$$$$
