=
 OpenBabel10272415333D

 34 37  0  0  1  0  0  0  0  0999 V2000
  188.8420  177.0580  142.9200 O   0  0  0  0  0  0  0  0  0  0  0  0
  190.1420  178.9060  143.8880 C   0  0  1  0  0  3  0  0  0  0  0  0
  191.7870  176.6780  145.0570 C   0  0  0  0  0  2  0  0  0  0  0  0
  191.2310  176.9900  142.6460 C   0  0  0  0  0  0  0  0  0  0  0  0
  190.0120  177.8590  142.7690 C   0  0  1  0  0  3  0  0  0  0  0  0
  189.8950  178.4070  145.3190 C   0  0  0  0  0  2  0  0  0  0  0  0
  191.9430  177.1080  141.6610 O   0  0  0  0  0  0  0  0  0  0  0  0
  192.7380  175.3040  143.3790 F   0  0  0  0  0  0  0  0  0  0  0  0
  190.4300  177.0130  145.6670 C   0  0  2  0  0  3  0  0  0  0  0  0
  191.5850  175.9930  143.7150 C   0  0  1  0  0  3  0  0  0  0  0  0
  191.3620  179.5830  143.8090 O   0  0  0  0  0  1  0  0  0  0  0  0
  190.4240  176.7920  147.1510 C   0  0  0  0  0  0  0  0  0  0  0  0
  191.3400  175.9700  147.6530 C   0  0  0  0  0  2  0  0  0  0  0  0
  189.4760  177.4320  148.0320 N   0  0  0  0  0  0  0  0  0  0  0  0
  189.8640  178.5190  148.7430 O   0  0  0  0  0  1  0  0  0  0  0  0
  187.2090  178.1780  147.6110 C   0  0  0  0  0  2  0  0  0  0  0  0
  187.3760  177.8670  148.9700 O   0  0  0  0  0  0  0  0  0  0  0  0
  188.0650  177.0510  148.0530 C   0  0  2  0  0  3  0  0  0  0  0  0
  185.7620  178.8640  141.9030 C   0  0  0  0  0  0  0  0  0  0  0  0
  185.3080  179.6050  140.8150 O   0  0  0  0  0  1  0  0  0  0  0  0
  184.9250  178.6350  143.0180 C   0  0  0  0  0  0  0  0  0  0  0  0
  185.4160  177.8810  144.0910 C   0  0  0  0  0  3  0  0  0  0  0  0
  187.0700  178.3460  141.8840 C   0  0  0  0  0  0  0  0  0  0  0  0
  186.7090  177.3590  144.0660 C   0  0  0  0  0  3  0  0  0  0  0  0
  187.5430  177.5810  142.9620 C   0  0  0  0  0  0  0  0  0  0  0  0
  183.5440  179.1680  143.1010 C   0  0  0  0  0  0  0  0  0  0  0  0
  183.2130  179.9760  144.0080 O   0  0  0  0  0  0  0  0  0  0  0  0
  182.5630  178.7680  142.1470 N   0  0  0  0  0  1  0  0  0  0  0  0
  187.9600  178.6000  140.7090 C   0  0  0  0  0  2  0  0  0  0  0  0
  187.7340  177.6360  139.7240 O   0  0  0  0  0  0  0  0  0  0  0  0
  188.9320  176.5200  138.0610 N   0  0  0  0  0  0  0  0  0  0  0  0
  189.4300  177.8990  138.1410 C   0  0  0  0  0  2  0  0  0  0  0  0
  189.0110  177.2100  139.3560 C   0  0  1  0  0  3  0  0  0  0  0  0
  190.0210  175.7170  137.9860 O   0  0  0  0  0  1  0  0  0  0  0  0
  1 25  1  0  0  0  0
  2 11  1  1  0  0  0
  2  6  1  0  0  0  0
  3  9  1  0  0  0  0
  4  5  1  0  0  0  0
  4 10  1  0  0  0  0
  5  1  1  1  0  0  0
  5  2  1  0  0  0  0
  6  9  1  0  0  0  0
  7  4  2  0  0  0  0
  9 12  1  1  0  0  0
 10  8  1  6  0  0  0
 10  3  1  0  0  0  0
 12 13  2  0  0  0  0
 12 14  1  0  0  0  0
 14 15  1  0  0  0  0
 16 18  1  0  0  0  0
 16 17  1  0  0  0  0
 18 14  1  1  0  0  0
 18 17  1  0  0  0  0
 19 21  1  0  0  0  0
 20 19  1  0  0  0  0
 21 26  1  0  0  0  0
 21 22  2  0  0  0  0
 23 19  2  0  0  0  0
 23 25  1  0  0  0  0
 24 22  1  0  0  0  0
 25 24  2  0  0  0  0
 26 27  2  0  0  0  0
 28 26  1  0  0  0  0
 29 23  1  0  0  0  0
 30 29  1  0  0  0  0
 31 32  1  0  0  0  0
 31 33  1  0  0  0  0
 32 33  1  0  0  0  0
 33 30  1  6  0  0  0
 34 31  1  0  0  0  0
M  END
>  <MODEL>
1

>  <REMARK>
 VINA RESULT:      -7.9      0.000      0.000
  Name = 
  9 active torsions:
  status: ('A' for Active; 'I' for Inactive)
    1  A    between atoms: O_1  and  C_9
    2  A    between atoms: O_1  and  C_34
    3  A    between atoms: C_3  and  C_25
    4  A    between atoms: C_5  and  O_22
    5  A    between atoms: C_5  and  C_32
    6  A    between atoms: N_11  and  C_21
    7  A    between atoms: N_11  and  C_26
    8  A    between atoms: C_19  and  O_22
    9  A    between atoms: C_26  and  C_28
                            x       y       z     vdW  Elec       q    Type
                         _______ _______ _______ _____ _____    ______ ____

>  <TORSDO>
F 9

$$$$
=
 OpenBabel10272415333D

 34 37  0  0  1  0  0  0  0  0999 V2000
  188.9900  177.2720  142.6750 O   0  0  0  0  0  0  0  0  0  0  0  0
  190.3840  178.9860  143.7520 C   0  0  1  0  0  3  0  0  0  0  0  0
  191.5500  176.6300  145.2080 C   0  0  0  0  0  2  0  0  0  0  0  0
  191.3640  176.8880  142.7340 C   0  0  0  0  0  0  0  0  0  0  0  0
  190.2650  177.9100  142.6590 C   0  0  1  0  0  3  0  0  0  0  0  0
  189.8860  178.5960  145.1500 C   0  0  0  0  0  2  0  0  0  0  0  0
  192.2090  176.8650  141.8530 O   0  0  0  0  0  0  0  0  0  0  0  0
  192.5240  175.0630  143.7220 F   0  0  0  0  0  0  0  0  0  0  0  0
  190.1820  177.1640  145.6140 C   0  0  2  0  0  3  0  0  0  0  0  0
  191.4390  175.9090  143.8740 C   0  0  1  0  0  3  0  0  0  0  0  0
  191.6830  179.4990  143.8190 O   0  0  0  0  0  1  0  0  0  0  0  0
  189.9500  177.0210  147.0900 C   0  0  0  0  0  0  0  0  0  0  0  0
  190.8720  176.3720  147.7950 C   0  0  0  0  0  2  0  0  0  0  0  0
  188.7850  177.5550  147.7530 N   0  0  0  0  0  0  0  0  0  0  0  0
  188.9440  178.5170  148.6950 O   0  0  0  0  0  1  0  0  0  0  0  0
  186.8820  178.2680  146.4330 C   0  0  0  0  0  2  0  0  0  0  0  0
  186.5330  178.1960  147.7920 O   0  0  0  0  0  0  0  0  0  0  0  0
  187.4300  177.2170  147.3230 C   0  0  2  0  0  3  0  0  0  0  0  0
  186.8130  178.4950  139.9270 C   0  0  0  0  0  0  0  0  0  0  0  0
  186.9020  178.7140  138.5550 O   0  0  0  0  0  1  0  0  0  0  0  0
  185.6100  178.7550  140.6210 C   0  0  0  0  0  0  0  0  0  0  0  0
  185.5580  178.5180  142.0010 C   0  0  0  0  0  3  0  0  0  0  0  0
  187.9380  178.0130  140.6220 C   0  0  0  0  0  0  0  0  0  0  0  0
  186.6710  178.0300  142.6850 C   0  0  0  0  0  3  0  0  0  0  0  0
  187.8650  177.7680  142.0020 C   0  0  0  0  0  0  0  0  0  0  0  0
  184.3980  179.2780  139.9470 C   0  0  0  0  0  0  0  0  0  0  0  0
  184.4560  180.2880  139.1970 O   0  0  0  0  0  0  0  0  0  0  0  0
  183.1380  178.6400  140.1410 N   0  0  0  0  0  1  0  0  0  0  0  0
  189.2150  177.7500  139.8880 C   0  0  0  0  0  2  0  0  0  0  0  0
  189.1270  176.5360  139.2020 O   0  0  0  0  0  0  0  0  0  0  0  0
  190.4530  175.0310  138.0090 N   0  0  0  0  0  0  0  0  0  0  0  0
  190.4390  176.3070  137.2830 C   0  0  0  0  0  2  0  0  0  0  0  0
  190.4240  176.3040  138.7420 C   0  0  1  0  0  3  0  0  0  0  0  0
  191.7390  174.6070  138.0240 O   0  0  0  0  0  1  0  0  0  0  0  0
  2 11  1  1  0  0  0
  2  6  1  0  0  0  0
  3  9  1  0  0  0  0
  4 10  1  0  0  0  0
  5  1  1  1  0  0  0
  5  4  1  0  0  0  0
  5  2  1  0  0  0  0
  6  9  1  0  0  0  0
  7  4  2  0  0  0  0
  9 12  1  1  0  0  0
 10  8  1  6  0  0  0
 10  3  1  0  0  0  0
 12 14  1  0  0  0  0
 12 13  2  0  0  0  0
 14 15  1  0  0  0  0
 16 18  1  0  0  0  0
 16 17  1  0  0  0  0
 18 14  1  1  0  0  0
 18 17  1  0  0  0  0
 19 21  2  0  0  0  0
 19 23  1  0  0  0  0
 20 19  1  0  0  0  0
 21 22  1  0  0  0  0
 22 24  2  0  0  0  0
 23 25  2  0  0  0  0
 25  1  1  0  0  0  0
 25 24  1  0  0  0  0
 26 28  1  0  0  0  0
 26 21  1  0  0  0  0
 27 26  2  0  0  0  0
 29 23  1  0  0  0  0
 30 29  1  0  0  0  0
 31 34  1  0  0  0  0
 31 33  1  0  0  0  0
 32 31  1  0  0  0  0
 32 33  1  0  0  0  0
 33 30  1  6  0  0  0
M  END
>  <MODEL>
2

>  <REMARK>
 VINA RESULT:      -7.8      1.439      1.722
  Name = 
  9 active torsions:
  status: ('A' for Active; 'I' for Inactive)
    1  A    between atoms: O_1  and  C_9
    2  A    between atoms: O_1  and  C_34
    3  A    between atoms: C_3  and  C_25
    4  A    between atoms: C_5  and  O_22
    5  A    between atoms: C_5  and  C_32
    6  A    between atoms: N_11  and  C_21
    7  A    between atoms: N_11  and  C_26
    8  A    between atoms: C_19  and  O_22
    9  A    between atoms: C_26  and  C_28
                            x       y       z     vdW  Elec       q    Type
                         _______ _______ _______ _____ _____    ______ ____

>  <TORSDO>
F 9

$$$$
=
 OpenBabel10272415333D

 34 37  0  0  1  0  0  0  0  0999 V2000
  189.4400  177.6990  142.1590 O   0  0  0  0  0  0  0  0  0  0  0  0
  190.7010  179.1260  143.7150 C   0  0  1  0  0  3  0  0  0  0  0  0
  191.0640  176.5560  145.2320 C   0  0  0  0  0  2  0  0  0  0  0  0
  191.6220  176.9410  142.8330 C   0  0  0  0  0  0  0  0  0  0  0  0
  190.7450  178.1270  142.5460 C   0  0  1  0  0  3  0  0  0  0  0  0
  189.7780  178.7620  144.8870 C   0  0  0  0  0  2  0  0  0  0  0  0
  192.6700  176.8210  142.2160 O   0  0  0  0  0  0  0  0  0  0  0  0
  192.1860  174.9170  143.9430 F   0  0  0  0  0  0  0  0  0  0  0  0
  189.7260  177.2840  145.2930 C   0  0  2  0  0  3  0  0  0  0  0  0
  191.2330  175.9170  143.8630 C   0  0  1  0  0  3  0  0  0  0  0  0
  191.9870  179.4220  144.1770 O   0  0  0  0  0  1  0  0  0  0  0  0
  189.0690  177.1200  146.6320 C   0  0  0  0  0  0  0  0  0  0  0  0
  189.7610  176.4980  147.5820 C   0  0  0  0  0  2  0  0  0  0  0  0
  187.7400  177.6060  146.9150 N   0  0  0  0  0  0  0  0  0  0  0  0
  187.5410  178.3920  148.0020 O   0  0  0  0  0  1  0  0  0  0  0  0
  186.0880  178.7280  145.5420 C   0  0  0  0  0  2  0  0  0  0  0  0
  185.4570  177.9560  146.5310 O   0  0  0  0  0  0  0  0  0  0  0  0
  186.6350  177.4210  145.9770 C   0  0  2  0  0  3  0  0  0  0  0  0
  187.4100  178.1180  139.0790 C   0  0  0  0  0  0  0  0  0  0  0  0
  186.2350  178.7570  138.6930 O   0  0  0  0  0  1  0  0  0  0  0  0
  188.1720  177.3830  138.1430 C   0  0  0  0  0  0  0  0  0  0  0  0
  189.3510  176.7590  138.5700 C   0  0  0  0  0  3  0  0  0  0  0  0
  187.8340  178.2070  140.4180 C   0  0  0  0  0  0  0  0  0  0  0  0
  189.7740  176.8580  139.8950 C   0  0  0  0  0  3  0  0  0  0  0  0
  189.0240  177.5860  140.8260 C   0  0  0  0  0  0  0  0  0  0  0  0
  187.7690  177.2410  136.7240 C   0  0  0  0  0  0  0  0  0  0  0  0
  188.2780  177.9640  135.8280 O   0  0  0  0  0  0  0  0  0  0  0  0
  186.7890  176.2750  136.3510 N   0  0  0  0  0  1  0  0  0  0  0  0
  187.0200  178.9740  141.4110 C   0  0  0  0  0  2  0  0  0  0  0  0
  186.0020  178.1630  141.9200 O   0  0  0  0  0  0  0  0  0  0  0  0
  183.7470  178.0500  141.3330 N   0  0  0  0  0  0  0  0  0  0  0  0
  183.8370  178.4890  142.7320 C   0  0  0  0  0  2  0  0  0  0  0  0
  184.8430  178.9250  141.7700 C   0  0  1  0  0  3  0  0  0  0  0  0
  182.8320  178.8490  140.7340 O   0  0  0  0  0  1  0  0  0  0  0  0
  2 11  1  1  0  0  0
  2  6  1  0  0  0  0
  3  9  1  0  0  0  0
  4 10  1  0  0  0  0
  5  1  1  1  0  0  0
  5  4  1  0  0  0  0
  5  2  1  0  0  0  0
  6  9  1  0  0  0  0
  7  4  2  0  0  0  0
  9 12  1  1  0  0  0
 10  8  1  1  0  0  0
 10  3  1  0  0  0  0
 12 14  1  0  0  0  0
 12 13  2  0  0  0  0
 14 15  1  0  0  0  0
 16 18  1  0  0  0  0
 16 17  1  0  0  0  0
 18 17  1  0  0  0  0
 18 14  1  1  0  0  0
 19 23  1  0  0  0  0
 20 19  1  0  0  0  0
 21 22  1  0  0  0  0
 21 19  2  0  0  0  0
 22 24  2  0  0  0  0
 23 25  2  0  0  0  0
 23 29  1  0  0  0  0
 24 25  1  0  0  0  0
 25  1  1  0  0  0  0
 26 21  1  0  0  0  0
 27 26  2  0  0  0  0
 28 26  1  0  0  0  0
 29 30  1  0  0  0  0
 31 33  1  0  0  0  0
 31 32  1  0  0  0  0
 33 30  1  1  0  0  0
 33 32  1  0  0  0  0
 34 31  1  0  0  0  0
M  END
>  <MODEL>
3

>  <REMARK>
 VINA RESULT:      -7.8      1.620      4.182
  Name = 
  9 active torsions:
  status: ('A' for Active; 'I' for Inactive)
    1  A    between atoms: O_1  and  C_9
    2  A    between atoms: O_1  and  C_34
    3  A    between atoms: C_3  and  C_25
    4  A    between atoms: C_5  and  O_22
    5  A    between atoms: C_5  and  C_32
    6  A    between atoms: N_11  and  C_21
    7  A    between atoms: N_11  and  C_26
    8  A    between atoms: C_19  and  O_22
    9  A    between atoms: C_26  and  C_28
                            x       y       z     vdW  Elec       q    Type
                         _______ _______ _______ _____ _____    ______ ____

>  <TORSDO>
F 9

$$$$
=
 OpenBabel10272415333D

 34 37  0  0  1  0  0  0  0  0999 V2000
  184.8660  178.1690  141.1580 O   0  0  0  0  0  0  0  0  0  0  0  0
  184.0280  179.4630  139.2430 C   0  0  1  0  0  3  0  0  0  0  0  0
  183.1660  176.7640  138.2390 C   0  0  0  0  0  2  0  0  0  0  0  0
  182.6020  177.7600  140.4540 C   0  0  0  0  0  0  0  0  0  0  0  0
  183.7090  178.7680  140.5780 C   0  0  1  0  0  3  0  0  0  0  0  0
  184.8970  178.6720  138.2550 C   0  0  0  0  0  2  0  0  0  0  0  0
  181.5270  177.9970  140.9850 O   0  0  0  0  0  0  0  0  0  0  0  0
  181.6480  175.7110  139.7210 F   0  0  0  0  0  0  0  0  0  0  0  0
  184.6340  177.1650  138.1570 C   0  0  2  0  0  3  0  0  0  0  0  0
  182.7960  176.4820  139.6870 C   0  0  1  0  0  3  0  0  0  0  0  0
  182.8630  179.9170  138.6180 O   0  0  0  0  0  1  0  0  0  0  0  0
  185.2960  176.5840  136.9420 C   0  0  0  0  0  0  0  0  0  0  0  0
  185.0610  177.1750  135.7740 C   0  0  0  0  0  2  0  0  0  0  0  0
  186.1620  175.4310  136.9990 N   0  0  0  0  0  0  0  0  0  0  0  0
  187.3850  175.5510  137.5710 O   0  0  0  0  0  1  0  0  0  0  0  0
  184.9510  173.4620  137.7300 C   0  0  0  0  0  2  0  0  0  0  0  0
  186.2910  173.1380  137.4600 O   0  0  0  0  0  0  0  0  0  0  0  0
  185.6970  174.0980  136.6180 C   0  0  2  0  0  3  0  0  0  0  0  0
  186.8530  178.0800  144.2930 C   0  0  0  0  0  0  0  0  0  0  0  0
  188.1560  177.7820  144.6850 O   0  0  0  0  0  1  0  0  0  0  0  0
  185.8920  178.4930  145.2430 C   0  0  0  0  0  0  0  0  0  0  0  0
  184.5940  178.7880  144.8080 C   0  0  0  0  0  3  0  0  0  0  0  0
  186.4990  177.9620  142.9360 C   0  0  0  0  0  0  0  0  0  0  0  0
  184.2480  178.6810  143.4620 C   0  0  0  0  0  3  0  0  0  0  0  0
  185.1970  178.2740  142.5160 C   0  0  0  0  0  0  0  0  0  0  0  0
  186.2020  178.6200  146.6870 C   0  0  0  0  0  0  0  0  0  0  0  0
  185.6710  179.5210  147.3880 O   0  0  0  0  0  0  0  0  0  0  0  0
  187.1150  177.7180  147.3050 N   0  0  0  0  0  1  0  0  0  0  0  0
  187.5140  177.5120  141.9340 C   0  0  0  0  0  2  0  0  0  0  0  0
  187.9830  178.6090  141.2070 O   0  0  0  0  0  0  0  0  0  0  0  0
  188.8400  179.0980  139.0920 N   0  0  0  0  0  0  0  0  0  0  0  0
  189.4350  177.8360  139.5490 C   0  0  0  0  0  2  0  0  0  0  0  0
  188.0520  178.1500  139.8910 C   0  0  1  0  0  3  0  0  0  0  0  0
  188.4750  178.9110  137.8010 O   0  0  0  0  0  1  0  0  0  0  0  0
  1 25  1  0  0  0  0
  2 11  1  6  0  0  0
  2  5  1  0  0  0  0
  3 10  1  0  0  0  0
  4  5  1  0  0  0  0
  4  7  2  0  0  0  0
  5  1  1  6  0  0  0
  6  2  1  0  0  0  0
  9 12  1  6  0  0  0
  9  3  1  0  0  0  0
  9  6  1  0  0  0  0
 10  8  1  6  0  0  0
 10  4  1  0  0  0  0
 12 14  1  0  0  0  0
 13 12  2  0  0  0  0
 14 15  1  0  0  0  0
 17 16  1  0  0  0  0
 18 14  1  1  0  0  0
 18 17  1  0  0  0  0
 18 16  1  0  0  0  0
 19 20  1  0  0  0  0
 19 21  1  0  0  0  0
 21 26  1  0  0  0  0
 22 21  2  0  0  0  0
 23 19  2  0  0  0  0
 24 22  1  0  0  0  0
 25 23  1  0  0  0  0
 25 24  2  0  0  0  0
 26 28  1  0  0  0  0
 26 27  2  0  0  0  0
 29 23  1  0  0  0  0
 30 29  1  0  0  0  0
 31 32  1  0  0  0  0
 31 33  1  0  0  0  0
 32 33  1  0  0  0  0
 33 30  1  1  0  0  0
 34 31  1  0  0  0  0
M  END
>  <MODEL>
4

>  <REMARK>
 VINA RESULT:      -7.6      3.733      7.895
  Name = 
  9 active torsions:
  status: ('A' for Active; 'I' for Inactive)
    1  A    between atoms: O_1  and  C_9
    2  A    between atoms: O_1  and  C_34
    3  A    between atoms: C_3  and  C_25
    4  A    between atoms: C_5  and  O_22
    5  A    between atoms: C_5  and  C_32
    6  A    between atoms: N_11  and  C_21
    7  A    between atoms: N_11  and  C_26
    8  A    between atoms: C_19  and  O_22
    9  A    between atoms: C_26  and  C_28
                            x       y       z     vdW  Elec       q    Type
                         _______ _______ _______ _____ _____    ______ ____

>  <TORSDO>
F 9

$$$$
=
 OpenBabel10272415333D

 34 37  0  0  1  0  0  0  0  0999 V2000
  184.7840  178.1600  141.2850 O   0  0  0  0  0  0  0  0  0  0  0  0
  183.9520  179.6370  139.5040 C   0  0  1  0  0  3  0  0  0  0  0  0
  183.4450  177.0460  138.0680 C   0  0  0  0  0  2  0  0  0  0  0  0
  182.6280  177.6520  140.3450 C   0  0  0  0  0  0  0  0  0  0  0  0
  183.6140  178.7290  140.6990 C   0  0  1  0  0  3  0  0  0  0  0  0
  184.9650  179.0830  138.4930 C   0  0  0  0  0  2  0  0  0  0  0  0
  181.5010  177.7090  140.8110 O   0  0  0  0  0  0  0  0  0  0  0  0
  181.9440  175.6530  139.2570 F   0  0  0  0  0  0  0  0  0  0  0  0
  184.8670  177.5880  138.1650 C   0  0  2  0  0  3  0  0  0  0  0  0
  183.0070  176.5230  139.4270 C   0  0  1  0  0  3  0  0  0  0  0  0
  182.7940  180.0690  138.8530 O   0  0  0  0  0  1  0  0  0  0  0  0
  185.6680  177.2540  136.9410 C   0  0  0  0  0  0  0  0  0  0  0  0
  185.0320  177.2460  135.7740 C   0  0  0  0  0  2  0  0  0  0  0  0
  187.0780  176.9490  136.9900 N   0  0  0  0  0  0  0  0  0  0  0  0
  187.4740  175.7130  137.3810 O   0  0  0  0  0  1  0  0  0  0  0  0
  188.8910  178.4500  137.5690 C   0  0  0  0  0  2  0  0  0  0  0  0
  187.8400  179.1630  136.9700 O   0  0  0  0  0  0  0  0  0  0  0  0
  188.0850  177.8710  136.4680 C   0  0  2  0  0  3  0  0  0  0  0  0
  186.7320  178.0390  144.4430 C   0  0  0  0  0  0  0  0  0  0  0  0
  188.0150  177.6860  144.8550 O   0  0  0  0  0  1  0  0  0  0  0  0
  185.7820  178.5160  145.3740 C   0  0  0  0  0  0  0  0  0  0  0  0
  184.5040  178.8650  144.9200 C   0  0  0  0  0  3  0  0  0  0  0  0
  186.3870  177.9110  143.0850 C   0  0  0  0  0  0  0  0  0  0  0  0
  184.1670  178.7480  143.5710 C   0  0  0  0  0  3  0  0  0  0  0  0
  185.1060  178.2770  142.6440 C   0  0  0  0  0  0  0  0  0  0  0  0
  186.0830  178.6570  146.8190 C   0  0  0  0  0  0  0  0  0  0  0  0
  185.6070  179.6090  147.4920 O   0  0  0  0  0  0  0  0  0  0  0  0
  186.9240  177.7090  147.4710 N   0  0  0  0  0  1  0  0  0  0  0  0
  187.3890  177.3930  142.1030 C   0  0  0  0  0  2  0  0  0  0  0  0
  188.3200  178.3910  141.8030 O   0  0  0  0  0  0  0  0  0  0  0  0
  190.5260  177.7550  142.2190 N   0  0  0  0  0  0  0  0  0  0  0  0
  189.7120  176.5390  142.0960 C   0  0  0  0  0  2  0  0  0  0  0  0
  189.4080  177.7000  141.2680 C   0  0  1  0  0  3  0  0  0  0  0  0
  191.6540  177.5410  141.5000 O   0  0  0  0  0  1  0  0  0  0  0  0
  1 25  1  0  0  0  0
  2 11  1  6  0  0  0
  2  5  1  0  0  0  0
  3  9  1  0  0  0  0
  3 10  1  0  0  0  0
  4  5  1  0  0  0  0
  4  7  2  0  0  0  0
  5  1  1  6  0  0  0
  6  2  1  0  0  0  0
  9 12  1  6  0  0  0
  9  6  1  0  0  0  0
 10  8  1  6  0  0  0
 10  4  1  0  0  0  0
 12 14  1  0  0  0  0
 13 12  2  0  0  0  0
 14 15  1  0  0  0  0
 17 16  1  0  0  0  0
 18 17  1  0  0  0  0
 18 14  1  1  0  0  0
 18 16  1  0  0  0  0
 19 20  1  0  0  0  0
 19 21  1  0  0  0  0
 21 26  1  0  0  0  0
 22 21  2  0  0  0  0
 23 19  2  0  0  0  0
 24 22  1  0  0  0  0
 25 23  1  0  0  0  0
 25 24  2  0  0  0  0
 26 28  1  0  0  0  0
 26 27  2  0  0  0  0
 29 23  1  0  0  0  0
 30 29  1  0  0  0  0
 32 31  1  0  0  0  0
 33 30  1  1  0  0  0
 33 32  1  0  0  0  0
 33 31  1  0  0  0  0
 34 31  1  0  0  0  0
M  END
>  <MODEL>
5

>  <REMARK>
 VINA RESULT:      -7.3      3.437      7.858
  Name = 
  9 active torsions:
  status: ('A' for Active; 'I' for Inactive)
    1  A    between atoms: O_1  and  C_9
    2  A    between atoms: O_1  and  C_34
    3  A    between atoms: C_3  and  C_25
    4  A    between atoms: C_5  and  O_22
    5  A    between atoms: C_5  and  C_32
    6  A    between atoms: N_11  and  C_21
    7  A    between atoms: N_11  and  C_26
    8  A    between atoms: C_19  and  O_22
    9  A    between atoms: C_26  and  C_28
                            x       y       z     vdW  Elec       q    Type
                         _______ _______ _______ _____ _____    ______ ____

>  <TORSDO>
F 9

$$$$
=
 OpenBabel10272415333D

 34 37  0  0  1  0  0  0  0  0999 V2000
  188.3590  177.1270  140.2740 O   0  0  0  0  0  0  0  0  0  0  0  0
  189.2850  178.6550  138.5850 C   0  0  1  0  0  3  0  0  0  0  0  0
  187.6750  176.9760  136.6830 C   0  0  0  0  0  2  0  0  0  0  0  0
  186.8160  178.1270  138.7210 C   0  0  0  0  0  0  0  0  0  0  0  0
  188.0960  178.2900  139.4900 C   0  0  1  0  0  3  0  0  0  0  0  0
  189.9320  177.4990  137.8100 C   0  0  0  0  0  2  0  0  0  0  0  0
  185.9290  178.9540  138.8710 O   0  0  0  0  0  0  0  0  0  0  0  0
  185.3630  177.0280  137.1940 F   0  0  0  0  0  0  0  0  0  0  0  0
  188.9860  176.4350  137.2410 C   0  0  2  0  0  3  0  0  0  0  0  0
  186.6180  176.9740  137.7760 C   0  0  1  0  0  3  0  0  0  0  0  0
  188.9610  179.7050  137.7210 O   0  0  0  0  0  1  0  0  0  0  0  0
  189.6940  175.5680  136.2410 C   0  0  0  0  0  0  0  0  0  0  0  0
  189.4170  175.7640  134.9550 C   0  0  0  0  0  2  0  0  0  0  0  0
  190.6460  174.5530  136.6220 N   0  0  0  0  0  0  0  0  0  0  0  0
  190.2180  173.4770  137.3280 O   0  0  0  0  0  1  0  0  0  0  0  0
  192.9720  174.8930  137.2140 C   0  0  0  0  0  2  0  0  0  0  0  0
  192.5630  175.8500  136.2710 O   0  0  0  0  0  0  0  0  0  0  0  0
  192.0210  174.5590  136.1260 C   0  0  2  0  0  3  0  0  0  0  0  0
  189.2120  177.1700  143.8860 C   0  0  0  0  0  0  0  0  0  0  0  0
  188.5430  177.1870  145.1080 O   0  0  0  0  0  1  0  0  0  0  0  0
  190.6240  177.1530  143.8380 C   0  0  0  0  0  0  0  0  0  0  0  0
  191.2590  177.1320  142.5900 C   0  0  0  0  0  3  0  0  0  0  0  0
  188.4650  177.1740  142.6940 C   0  0  0  0  0  0  0  0  0  0  0  0
  190.5170  177.1250  141.4100 C   0  0  0  0  0  3  0  0  0  0  0  0
  189.1170  177.1400  141.4520 C   0  0  0  0  0  0  0  0  0  0  0  0
  191.4630  177.1640  145.0600 C   0  0  0  0  0  0  0  0  0  0  0  0
  191.8390  178.2470  145.5810 O   0  0  0  0  0  0  0  0  0  0  0  0
  191.8620  175.9370  145.6660 N   0  0  0  0  0  1  0  0  0  0  0  0
  186.9710  177.2050  142.7460 C   0  0  0  0  0  2  0  0  0  0  0  0
  186.5360  178.4670  143.1590 O   0  0  0  0  0  0  0  0  0  0  0  0
  184.7520  179.4730  144.2790 N   0  0  0  0  0  0  0  0  0  0  0  0
  184.2050  178.5820  143.2480 C   0  0  0  0  0  2  0  0  0  0  0  0
  185.4220  178.2050  143.9580 C   0  0  1  0  0  3  0  0  0  0  0  0
  184.0320  179.2540  145.4050 O   0  0  0  0  0  1  0  0  0  0  0  0
  1 25  1  0  0  0  0
  2 11  1  6  0  0  0
  2  5  1  0  0  0  0
  3  9  1  0  0  0  0
  3 10  1  0  0  0  0
  4  7  2  0  0  0  0
  4  5  1  0  0  0  0
  5  1  1  6  0  0  0
  6  2  1  0  0  0  0
  9 12  1  6  0  0  0
  9  6  1  0  0  0  0
 10  8  1  6  0  0  0
 10  4  1  0  0  0  0
 12 14  1  0  0  0  0
 13 12  2  0  0  0  0
 14 15  1  0  0  0  0
 17 16  1  0  0  0  0
 18 17  1  0  0  0  0
 18 14  1  1  0  0  0
 18 16  1  0  0  0  0
 19 20  1  0  0  0  0
 21 19  1  0  0  0  0
 21 26  1  0  0  0  0
 22 21  2  0  0  0  0
 23 29  1  0  0  0  0
 23 19  2  0  0  0  0
 24 25  2  0  0  0  0
 24 22  1  0  0  0  0
 25 23  1  0  0  0  0
 26 27  2  0  0  0  0
 26 28  1  0  0  0  0
 29 30  1  0  0  0  0
 31 34  1  0  0  0  0
 32 33  1  0  0  0  0
 32 31  1  0  0  0  0
 33 30  1  6  0  0  0
 33 31  1  0  0  0  0
M  END
>  <MODEL>
6

>  <REMARK>
 VINA RESULT:      -7.3      2.893      8.284
  Name = 
  9 active torsions:
  status: ('A' for Active; 'I' for Inactive)
    1  A    between atoms: O_1  and  C_9
    2  A    between atoms: O_1  and  C_34
    3  A    between atoms: C_3  and  C_25
    4  A    between atoms: C_5  and  O_22
    5  A    between atoms: C_5  and  C_32
    6  A    between atoms: N_11  and  C_21
    7  A    between atoms: N_11  and  C_26
    8  A    between atoms: C_19  and  O_22
    9  A    between atoms: C_26  and  C_28
                            x       y       z     vdW  Elec       q    Type
                         _______ _______ _______ _____ _____    ______ ____

>  <TORSDO>
F 9

$$$$
=
 OpenBabel10272415333D

 34 37  0  0  1  0  0  0  0  0999 V2000
  187.8380  177.8100  140.2880 O   0  0  0  0  0  0  0  0  0  0  0  0
  188.9820  178.9410  138.4290 C   0  0  1  0  0  3  0  0  0  0  0  0
  188.6180  176.2960  137.0500 C   0  0  0  0  0  2  0  0  0  0  0  0
  186.8230  177.6630  138.1110 C   0  0  0  0  0  0  0  0  0  0  0  0
  187.6480  178.4950  139.0510 C   0  0  1  0  0  3  0  0  0  0  0  0
  190.1070  177.8980  138.4110 C   0  0  0  0  0  2  0  0  0  0  0  0
  185.7900  178.1330  137.6590 O   0  0  0  0  0  0  0  0  0  0  0  0
  186.3330  175.7030  136.8580 F   0  0  0  0  0  0  0  0  0  0  0  0
  189.7030  176.4500  138.1100 C   0  0  2  0  0  3  0  0  0  0  0  0
  187.2530  176.2760  137.7190 C   0  0  1  0  0  3  0  0  0  0  0  0
  188.7910  179.4800  137.1530 O   0  0  0  0  0  1  0  0  0  0  0  0
  190.9060  175.6120  137.7920 C   0  0  0  0  0  0  0  0  0  0  0  0
  190.7130  174.3140  137.5820 C   0  0  0  0  0  2  0  0  0  0  0  0
  192.2390  176.1600  137.7070 N   0  0  0  0  0  0  0  0  0  0  0  0
  192.8720  176.5370  138.8450 O   0  0  0  0  0  1  0  0  0  0  0  0
  194.1660  175.2600  136.5450 C   0  0  0  0  0  2  0  0  0  0  0  0
  194.2930  176.6500  136.6950 O   0  0  0  0  0  0  0  0  0  0  0  0
  192.9940  176.1630  136.4550 C   0  0  2  0  0  3  0  0  0  0  0  0
  186.7000  177.7070  143.8200 C   0  0  0  0  0  0  0  0  0  0  0  0
  187.0830  177.1000  145.0140 O   0  0  0  0  0  1  0  0  0  0  0  0
  185.5820  178.5700  143.7770 C   0  0  0  0  0  0  0  0  0  0  0  0
  185.2320  179.1650  142.5580 C   0  0  0  0  0  3  0  0  0  0  0  0
  187.4380  177.4490  142.6500 C   0  0  0  0  0  0  0  0  0  0  0  0
  185.9710  178.9170  141.4020 C   0  0  0  0  0  3  0  0  0  0  0  0
  187.0820  178.0640  141.4400 C   0  0  0  0  0  0  0  0  0  0  0  0
  184.7580  178.8670  144.9720 C   0  0  0  0  0  0  0  0  0  0  0  0
  185.2920  179.1900  146.0660 O   0  0  0  0  0  0  0  0  0  0  0  0
  183.3370  178.7880  144.9000 N   0  0  0  0  0  1  0  0  0  0  0  0
  188.6140  176.5250  142.6940 C   0  0  0  0  0  2  0  0  0  0  0  0
  189.7720  177.2440  143.0010 O   0  0  0  0  0  0  0  0  0  0  0  0
  191.7010  176.1130  143.6690 N   0  0  0  0  0  0  0  0  0  0  0  0
  191.5090  177.2640  144.5620 C   0  0  0  0  0  2  0  0  0  0  0  0
  190.3490  176.5380  144.0570 C   0  0  1  0  0  3  0  0  0  0  0  0
  192.0150  175.0580  144.4580 O   0  0  0  0  0  1  0  0  0  0  0  0
  1 25  1  0  0  0  0
  2 11  1  6  0  0  0
  2  5  1  0  0  0  0
  3 10  1  0  0  0  0
  3  9  1  0  0  0  0
  4  5  1  0  0  0  0
  5  1  1  1  0  0  0
  6  2  1  0  0  0  0
  7  4  2  0  0  0  0
  9 12  1  6  0  0  0
  9  6  1  0  0  0  0
 10  8  1  6  0  0  0
 10  4  1  0  0  0  0
 13 12  2  0  0  0  0
 14 12  1  0  0  0  0
 14 15  1  0  0  0  0
 16 17  1  0  0  0  0
 18 16  1  0  0  0  0
 18 17  1  0  0  0  0
 18 14  1  1  0  0  0
 19 20  1  0  0  0  0
 21 19  1  0  0  0  0
 21 26  1  0  0  0  0
 22 21  2  0  0  0  0
 23 29  1  0  0  0  0
 23 19  2  0  0  0  0
 24 25  2  0  0  0  0
 24 22  1  0  0  0  0
 25 23  1  0  0  0  0
 26 27  2  0  0  0  0
 28 26  1  0  0  0  0
 29 30  1  0  0  0  0
 31 33  1  0  0  0  0
 31 34  1  0  0  0  0
 31 32  1  0  0  0  0
 33 30  1  6  0  0  0
 33 32  1  0  0  0  0
M  END
>  <MODEL>
7

>  <REMARK>
 VINA RESULT:      -7.1      3.040      7.151
  Name = 
  9 active torsions:
  status: ('A' for Active; 'I' for Inactive)
    1  A    between atoms: O_1  and  C_9
    2  A    between atoms: O_1  and  C_34
    3  A    between atoms: C_3  and  C_25
    4  A    between atoms: C_5  and  O_22
    5  A    between atoms: C_5  and  C_32
    6  A    between atoms: N_11  and  C_21
    7  A    between atoms: N_11  and  C_26
    8  A    between atoms: C_19  and  O_22
    9  A    between atoms: C_26  and  C_28
                            x       y       z     vdW  Elec       q    Type
                         _______ _______ _______ _____ _____    ______ ____

>  <TORSDO>
F 9

$$$$
=
 OpenBabel10272415333D

 34 37  0  0  1  0  0  0  0  0999 V2000
  187.7740  177.7900  140.6120 O   0  0  0  0  0  0  0  0  0  0  0  0
  189.0850  178.9010  138.8540 C   0  0  1  0  0  3  0  0  0  0  0  0
  188.2490  176.5270  137.2110 C   0  0  0  0  0  2  0  0  0  0  0  0
  186.7320  178.0620  138.4610 C   0  0  0  0  0  0  0  0  0  0  0  0
  187.6980  178.6290  139.4610 C   0  0  1  0  0  3  0  0  0  0  0  0
  190.0090  177.6860  138.6940 C   0  0  0  0  0  2  0  0  0  0  0  0
  185.7950  178.7520  138.0900 O   0  0  0  0  0  0  0  0  0  0  0  0
  185.8940  176.3680  137.0200 F   0  0  0  0  0  0  0  0  0  0  0  0
  189.3520  176.3720  138.2520 C   0  0  2  0  0  3  0  0  0  0  0  0
  186.9070  176.6730  137.9110 C   0  0  1  0  0  3  0  0  0  0  0  0
  188.9820  179.6010  137.6480 O   0  0  0  0  0  1  0  0  0  0  0  0
  190.3870  175.3780  137.8130 C   0  0  0  0  0  0  0  0  0  0  0  0
  191.6110  175.5030  138.3170 C   0  0  0  0  0  2  0  0  0  0  0  0
  190.1010  174.3120  136.8830 N   0  0  0  0  0  0  0  0  0  0  0  0
  189.5420  173.1650  137.3430 O   0  0  0  0  0  1  0  0  0  0  0  0
  191.5300  173.9560  134.9580 C   0  0  0  0  0  2  0  0  0  0  0  0
  191.3340  175.3300  135.1730 O   0  0  0  0  0  0  0  0  0  0  0  0
  190.2340  174.4920  135.4390 C   0  0  2  0  0  3  0  0  0  0  0  0
  186.7760  177.6290  144.1840 C   0  0  0  0  0  0  0  0  0  0  0  0
  187.1860  176.9790  145.3450 O   0  0  0  0  0  1  0  0  0  0  0  0
  185.6860  178.5280  144.2080 C   0  0  0  0  0  0  0  0  0  0  0  0
  185.3070  179.1660  143.0200 C   0  0  0  0  0  3  0  0  0  0  0  0
  187.4580  177.3800  142.9790 C   0  0  0  0  0  0  0  0  0  0  0  0
  185.9910  178.9250  141.8290 C   0  0  0  0  0  3  0  0  0  0  0  0
  187.0740  178.0370  141.8000 C   0  0  0  0  0  0  0  0  0  0  0  0
  184.9200  178.8190  145.4440 C   0  0  0  0  0  0  0  0  0  0  0  0
  183.6620  178.7570  145.4580 O   0  0  0  0  0  0  0  0  0  0  0  0
  185.6030  179.1770  146.6420 N   0  0  0  0  0  1  0  0  0  0  0  0
  188.6040  176.4190  142.9520 C   0  0  0  0  0  2  0  0  0  0  0  0
  189.8120  177.1190  142.9080 O   0  0  0  0  0  0  0  0  0  0  0  0
  191.5900  177.6130  144.3370 N   0  0  0  0  0  0  0  0  0  0  0  0
  190.5860  178.6770  144.4660 C   0  0  0  0  0  2  0  0  0  0  0  0
  190.1570  177.3000  144.2480 C   0  0  1  0  0  3  0  0  0  0  0  0
  191.9770  177.2890  145.5930 O   0  0  0  0  0  1  0  0  0  0  0  0
  1 25  1  0  0  0  0
  2 11  1  6  0  0  0
  2  5  1  0  0  0  0
  3 10  1  0  0  0  0
  3  9  1  0  0  0  0
  4  5  1  0  0  0  0
  5  1  1  1  0  0  0
  6  2  1  0  0  0  0
  7  4  2  0  0  0  0
  9 12  1  6  0  0  0
  9  6  1  0  0  0  0
 10  8  1  6  0  0  0
 10  4  1  0  0  0  0
 12 13  2  0  0  0  0
 14 15  1  0  0  0  0
 14 12  1  0  0  0  0
 16 17  1  0  0  0  0
 16 18  1  0  0  0  0
 17 18  1  0  0  0  0
 18 14  1  1  0  0  0
 19 21  1  0  0  0  0
 19 20  1  0  0  0  0
 21 26  1  0  0  0  0
 22 21  2  0  0  0  0
 23 19  2  0  0  0  0
 24 22  1  0  0  0  0
 25 24  2  0  0  0  0
 25 23  1  0  0  0  0
 26 27  2  0  0  0  0
 26 28  1  0  0  0  0
 29 23  1  0  0  0  0
 30 29  1  0  0  0  0
 31 32  1  0  0  0  0
 31 34  1  0  0  0  0
 33 30  1  6  0  0  0
 33 31  1  0  0  0  0
 33 32  1  0  0  0  0
M  END
>  <MODEL>
8

>  <REMARK>
 VINA RESULT:      -7.1      2.931      7.387
  Name = 
  9 active torsions:
  status: ('A' for Active; 'I' for Inactive)
    1  A    between atoms: O_1  and  C_9
    2  A    between atoms: O_1  and  C_34
    3  A    between atoms: C_3  and  C_25
    4  A    between atoms: C_5  and  O_22
    5  A    between atoms: C_5  and  C_32
    6  A    between atoms: N_11  and  C_21
    7  A    between atoms: N_11  and  C_26
    8  A    between atoms: C_19  and  O_22
    9  A    between atoms: C_26  and  C_28
                            x       y       z     vdW  Elec       q    Type
                         _______ _______ _______ _____ _____    ______ ____

>  <TORSDO>
F 9

$$$$
=
 OpenBabel10272415333D

 34 37  0  0  1  0  0  0  0  0999 V2000
  188.4740  177.5840  139.9430 O   0  0  0  0  0  0  0  0  0  0  0  0
  190.0800  176.7610  138.2740 C   0  0  1  0  0  3  0  0  0  0  0  0
  187.7100  176.9030  136.4310 C   0  0  0  0  0  2  0  0  0  0  0  0
  188.5880  178.7590  137.8470 C   0  0  0  0  0  0  0  0  0  0  0  0
  189.3410  177.9680  138.8780 C   0  0  1  0  0  3  0  0  0  0  0  0
  189.2280  175.5170  137.9830 C   0  0  0  0  0  2  0  0  0  0  0  0
  188.9820  179.8790  137.5600 O   0  0  0  0  0  0  0  0  0  0  0  0
  186.8440  179.1020  136.2680 F   0  0  0  0  0  0  0  0  0  0  0  0
  187.8180  175.7590  137.4320 C   0  0  2  0  0  3  0  0  0  0  0  0
  187.3730  178.1910  137.1660 C   0  0  1  0  0  3  0  0  0  0  0  0
  190.8120  177.1300  137.1410 O   0  0  0  0  0  1  0  0  0  0  0  0
  187.2330  174.4900  136.8830 C   0  0  0  0  0  0  0  0  0  0  0  0
  187.9170  173.8610  135.9320 C   0  0  0  0  0  2  0  0  0  0  0  0
  185.9800  173.9430  137.3460 N   0  0  0  0  0  0  0  0  0  0  0  0
  185.9870  172.7940  138.0660 O   0  0  0  0  0  1  0  0  0  0  0  0
  183.8680  174.0680  136.1640 C   0  0  0  0  0  2  0  0  0  0  0  0
  184.6350  175.2190  135.9160 O   0  0  0  0  0  0  0  0  0  0  0  0
  184.7230  174.6760  137.2120 C   0  0  2  0  0  3  0  0  0  0  0  0
  188.2930  177.6660  143.6510 C   0  0  0  0  0  0  0  0  0  0  0  0
  187.3260  177.8480  144.6360 O   0  0  0  0  0  1  0  0  0  0  0  0
  189.6410  177.4220  143.9990 C   0  0  0  0  0  0  0  0  0  0  0  0
  190.5820  177.2400  142.9790 C   0  0  0  0  0  3  0  0  0  0  0  0
  187.9160  177.7310  142.2960 C   0  0  0  0  0  0  0  0  0  0  0  0
  190.2040  177.2940  141.6380 C   0  0  0  0  0  3  0  0  0  0  0  0
  188.8700  177.5330  141.2870 C   0  0  0  0  0  0  0  0  0  0  0  0
  190.1000  177.3590  145.4070 C   0  0  0  0  0  0  0  0  0  0  0  0
  189.3160  177.6160  146.3590 O   0  0  0  0  0  0  0  0  0  0  0  0
  191.4480  177.0040  145.7050 N   0  0  0  0  0  1  0  0  0  0  0  0
  186.4910  178.0010  141.9280 C   0  0  0  0  0  2  0  0  0  0  0  0
  186.4290  179.0510  141.0090 O   0  0  0  0  0  0  0  0  0  0  0  0
  184.9300  179.6300  139.3160 N   0  0  0  0  0  0  0  0  0  0  0  0
  184.7220  178.2150  139.6510 C   0  0  0  0  0  2  0  0  0  0  0  0
  185.0720  179.1640  140.7020 C   0  0  1  0  0  3  0  0  0  0  0  0
  183.7020  180.1910  139.2230 O   0  0  0  0  0  1  0  0  0  0  0  0
  1 25  1  0  0  0  0
  2 11  1  6  0  0  0
  2  5  1  0  0  0  0
  3 10  1  0  0  0  0
  3  9  1  0  0  0  0
  4  5  1  0  0  0  0
  5  1  1  1  0  0  0
  6  2  1  0  0  0  0
  7  4  2  0  0  0  0
  9 12  1  6  0  0  0
  9  6  1  0  0  0  0
 10  8  1  6  0  0  0
 10  4  1  0  0  0  0
 12 14  1  0  0  0  0
 13 12  2  0  0  0  0
 14 15  1  0  0  0  0
 16 18  1  0  0  0  0
 17 16  1  0  0  0  0
 17 18  1  0  0  0  0
 18 14  1  6  0  0  0
 19 21  1  0  0  0  0
 19 20  1  0  0  0  0
 21 26  1  0  0  0  0
 22 21  2  0  0  0  0
 23 19  2  0  0  0  0
 24 22  1  0  0  0  0
 25 24  2  0  0  0  0
 25 23  1  0  0  0  0
 26 28  1  0  0  0  0
 26 27  2  0  0  0  0
 29 23  1  0  0  0  0
 30 29  1  0  0  0  0
 31 32  1  0  0  0  0
 31 33  1  0  0  0  0
 32 33  1  0  0  0  0
 33 30  1  6  0  0  0
 34 31  1  0  0  0  0
M  END
>  <MODEL>
9

>  <REMARK>
 VINA RESULT:      -6.9      3.389      7.811
  Name = 
  9 active torsions:
  status: ('A' for Active; 'I' for Inactive)
    1  A    between atoms: O_1  and  C_9
    2  A    between atoms: O_1  and  C_34
    3  A    between atoms: C_3  and  C_25
    4  A    between atoms: C_5  and  O_22
    5  A    between atoms: C_5  and  C_32
    6  A    between atoms: N_11  and  C_21
    7  A    between atoms: N_11  and  C_26
    8  A    between atoms: C_19  and  O_22
    9  A    between atoms: C_26  and  C_28
                            x       y       z     vdW  Elec       q    Type
                         _______ _______ _______ _____ _____    ______ ____

>  <TORSDO>
F 9

$$$$
