=
 OpenBabel10272400453D

 25 28  0  0  0  0  0  0  0  0999 V2000
  187.0040  177.8640  145.0590 C   0  0  0  0  0  0  0  0  0  0  0  0
  188.2290  177.4160  144.5200 C   0  0  0  0  0  0  0  0  0  0  0  0
  187.9220  177.7990  147.3190 C   0  0  0  0  0  3  0  0  0  0  0  0
  185.8090  178.1760  144.3800 C   0  0  0  0  0  0  0  0  0  0  0  0
  190.0860  176.8500  141.3610 C   0  0  0  0  0  0  0  0  0  0  0  0
  183.2900  178.8830  143.3940 C   0  0  0  0  0  3  0  0  0  0  0  0
  189.1390  177.3540  146.7940 C   0  0  0  0  0  3  0  0  0  0  0  0
  184.7920  178.5890  145.2390 C   0  0  0  0  0  0  0  0  0  0  0  0
  183.5290  178.9470  144.7740 C   0  0  0  0  0  3  0  0  0  0  0  0
  190.6090  176.7060  144.8770 C   0  0  0  0  0  0  0  0  0  0  0  0
  191.9330  176.3090  145.9610 Cl  0  0  0  0  0  0  0  0  0  0  0  0
  190.3670  176.7800  140.0880 C   0  0  0  0  0  3  0  0  0  0  0  0
  188.3790  177.1560  143.0440 C   0  0  0  0  0  2  0  0  0  0  0  0
  184.3050  178.4690  142.5130 C   0  0  0  0  0  3  0  0  0  0  0  0
  186.8780  178.0460  146.4370 C   0  0  0  0  0  0  0  0  0  0  0  0
  185.3290  178.5830  146.8340 S   0  0  0  0  0  0  0  0  0  0  0  0
  190.8110  176.6190  143.5970 N   0  0  0  0  0  0  0  0  0  0  0  0
  185.5710  178.1130  143.0020 C   0  0  0  0  0  3  0  0  0  0  0  0
  189.8000  176.9200  142.6310 C   0  0  0  0  0  0  0  0  0  0  0  0
  189.3040  177.1580  145.4080 C   0  0  0  0  0  0  0  0  0  0  0  0
  189.3650  177.0790  139.0540 C   0  0  0  0  0  0  0  0  0  0  0  0
  189.1200  176.2410  138.1430 O   0  0  0  0  0  0  0  0  0  0  0  0
  188.6470  178.3590  139.0800 C   0  0  0  0  0  0  0  0  0  0  0  0
  187.5080  178.5100  139.8610 O   0  0  0  0  0  1  0  0  0  0  0  0
  189.0590  179.3310  138.3930 O   0  0  0  0  0  0  0  0  0  0  0  0
  1 15  1  0  0  0  0
  2  1  2  0  0  0  0
  2 20  1  0  0  0  0
  4  1  1  0  0  0  0
  4  8  1  0  0  0  0
  5 19  2  0  0  0  0
  6  9  1  0  0  0  0
  7  3  1  0  0  0  0
  8 16  1  0  0  0  0
  9  8  2  0  0  0  0
 10 20  1  0  0  0  0
 10 11  1  0  0  0  0
 12  5  2  0  0  0  0
 13  2  1  0  0  0  0
 14 18  1  0  0  0  0
 14  6  2  0  0  0  0
 15 16  1  0  0  0  0
 15  3  2  0  0  0  0
 17 10  2  0  0  0  0
 18  4  2  0  0  0  0
 19 13  1  0  0  0  0
 19 17  1  0  0  0  0
 20  7  2  0  0  0  0
 21 23  1  0  0  0  0
 21 12  1  0  0  0  0
 22 21  2  0  0  0  0
 23 24  1  0  0  0  0
 25 23  2  0  0  0  0
M  END
>  <MODEL>
1

>  <REMARK>
 VINA RESULT:     -11.5      0.000      0.000
  Name = 
  2 active torsions:
  status: ('A' for Active; 'I' for Inactive)
    1  A    between atoms: C_2  and  C_21
    2  A    between atoms: C_15  and  C_21
                            x       y       z     vdW  Elec       q    Type
                         _______ _______ _______ _____ _____    ______ ____

>  <TORSDO>
F 2

$$$$
=
 OpenBabel10272400453D

 25 28  0  0  0  0  0  0  0  0999 V2000
  187.1270  177.8910  145.4200 C   0  0  0  0  0  0  0  0  0  0  0  0
  188.4100  177.4710  145.0100 C   0  0  0  0  0  0  0  0  0  0  0  0
  187.7810  177.7530  147.7660 C   0  0  0  0  0  3  0  0  0  0  0  0
  186.0130  178.2180  144.6200 C   0  0  0  0  0  0  0  0  0  0  0  0
  190.6210  177.0300  142.0660 C   0  0  0  0  0  0  0  0  0  0  0  0
  183.6150  178.9400  143.3770 C   0  0  0  0  0  3  0  0  0  0  0  0
  189.0550  177.3360  147.3690 C   0  0  0  0  0  3  0  0  0  0  0  0
  184.9000  178.5930  145.3700 C   0  0  0  0  0  0  0  0  0  0  0  0
  183.6940  178.9570  144.7770 C   0  0  0  0  0  3  0  0  0  0  0  0
  190.7410  176.7670  145.6120 C   0  0  0  0  0  0  0  0  0  0  0  0
  191.9380  176.3420  146.8260 Cl  0  0  0  0  0  0  0  0  0  0  0  0
  191.0460  177.0070  140.8330 C   0  0  0  0  0  3  0  0  0  0  0  0
  188.7300  177.2640  143.5520 C   0  0  0  0  0  2  0  0  0  0  0  0
  184.7280  178.5650  142.6040 C   0  0  0  0  0  3  0  0  0  0  0  0
  186.8420  178.0240  146.7800 C   0  0  0  0  0  0  0  0  0  0  0  0
  185.2520  178.5340  147.0160 S   0  0  0  0  0  0  0  0  0  0  0  0
  191.0890  176.7260  144.3620 N   0  0  0  0  0  0  0  0  0  0  0  0
  185.9350  178.2010  143.2230 C   0  0  0  0  0  3  0  0  0  0  0  0
  190.1910  177.0540  143.2970 C   0  0  0  0  0  0  0  0  0  0  0  0
  189.3800  177.1910  146.0060 C   0  0  0  0  0  0  0  0  0  0  0  0
  190.1660  177.3340  139.7020 C   0  0  0  0  0  0  0  0  0  0  0  0
  189.2710  178.2160  139.8220 O   0  0  0  0  0  0  0  0  0  0  0  0
  190.3260  176.6300  138.4230 C   0  0  0  0  0  0  0  0  0  0  0  0
  190.7590  175.3090  138.3980 O   0  0  0  0  0  1  0  0  0  0  0  0
  190.0730  177.2180  137.3390 O   0  0  0  0  0  0  0  0  0  0  0  0
  1 15  1  0  0  0  0
  2  1  2  0  0  0  0
  2 20  1  0  0  0  0
  4  8  1  0  0  0  0
  4  1  1  0  0  0  0
  5 19  2  0  0  0  0
  6  9  1  0  0  0  0
  7  3  1  0  0  0  0
  8 16  1  0  0  0  0
  9  8  2  0  0  0  0
 10 20  1  0  0  0  0
 10 11  1  0  0  0  0
 12  5  2  0  0  0  0
 13  2  1  0  0  0  0
 14 18  1  0  0  0  0
 14  6  2  0  0  0  0
 15 16  1  0  0  0  0
 15  3  2  0  0  0  0
 17 10  2  0  0  0  0
 18  4  2  0  0  0  0
 19 13  1  0  0  0  0
 19 17  1  0  0  0  0
 20  7  2  0  0  0  0
 21 22  2  0  0  0  0
 21 12  1  0  0  0  0
 23 21  1  0  0  0  0
 24 23  1  0  0  0  0
 25 23  2  0  0  0  0
M  END
>  <MODEL>
2

>  <REMARK>
 VINA RESULT:     -11.0      0.903      1.424
  Name = 
  2 active torsions:
  status: ('A' for Active; 'I' for Inactive)
    1  A    between atoms: C_2  and  C_21
    2  A    between atoms: C_15  and  C_21
                            x       y       z     vdW  Elec       q    Type
                         _______ _______ _______ _____ _____    ______ ____

>  <TORSDO>
F 2

$$$$
=
 OpenBabel10272400453D

 25 28  0  0  0  0  0  0  0  0999 V2000
  186.2050  178.3020  144.3900 C   0  0  0  0  0  0  0  0  0  0  0  0
  186.3150  178.4360  142.9900 C   0  0  0  0  0  0  0  0  0  0  0  0
  183.8310  178.8560  144.3040 C   0  0  0  0  0  3  0  0  0  0  0  0
  187.2100  177.9680  145.3210 C   0  0  0  0  0  0  0  0  0  0  0  0
  188.5710  177.9050  140.0960 C   0  0  0  0  0  0  0  0  0  0  0  0
  188.9170  177.3370  147.4440 C   0  0  0  0  0  3  0  0  0  0  0  0
  183.9310  178.9920  142.9160 C   0  0  0  0  0  3  0  0  0  0  0  0
  186.7400  177.9270  146.6330 C   0  0  0  0  0  0  0  0  0  0  0  0
  187.5680  177.6160  147.7080 C   0  0  0  0  0  3  0  0  0  0  0  0
  185.2300  178.9190  140.7800 C   0  0  0  0  0  0  0  0  0  0  0  0
  183.8280  179.4260  139.8510 Cl  0  0  0  0  0  0  0  0  0  0  0  0
  189.6250  177.5970  139.3910 C   0  0  0  0  0  3  0  0  0  0  0  0
  187.6420  178.2720  142.2960 C   0  0  0  0  0  2  0  0  0  0  0  0
  189.4080  177.3730  146.1270 C   0  0  0  0  0  3  0  0  0  0  0  0
  184.9740  178.5120  145.0130 C   0  0  0  0  0  0  0  0  0  0  0  0
  185.0970  178.2950  146.6810 S   0  0  0  0  0  0  0  0  0  0  0  0
  186.3250  178.6350  140.1420 N   0  0  0  0  0  0  0  0  0  0  0  0
  188.5560  177.6900  145.0580 C   0  0  0  0  0  3  0  0  0  0  0  0
  187.5210  178.2130  140.8040 C   0  0  0  0  0  0  0  0  0  0  0  0
  185.1570  178.7880  142.2520 C   0  0  0  0  0  0  0  0  0  0  0  0
  190.8790  177.1590  140.0200 C   0  0  0  0  0  0  0  0  0  0  0  0
  191.9000  176.9270  139.3160 O   0  0  0  0  0  0  0  0  0  0  0  0
  190.9440  176.9850  141.4770 C   0  0  0  0  0  0  0  0  0  0  0  0
  190.3840  175.8640  142.0770 O   0  0  0  0  0  0  0  0  0  0  0  0
  191.5080  177.8540  142.1940 O   0  0  0  0  0  1  0  0  0  0  0  0
  1 15  2  0  0  0  0
  1  4  1  0  0  0  0
  2  1  1  0  0  0  0
  3 15  1  0  0  0  0
  4  8  1  0  0  0  0
  5 19  2  0  0  0  0
  6  9  1  0  0  0  0
  7  3  2  0  0  0  0
  8 16  1  0  0  0  0
  8  9  2  0  0  0  0
 10 20  1  0  0  0  0
 11 10  1  0  0  0  0
 12 21  1  0  0  0  0
 12  5  2  0  0  0  0
 13  2  1  0  0  0  0
 14  6  2  0  0  0  0
 15 16  1  0  0  0  0
 17 10  2  0  0  0  0
 17 19  1  0  0  0  0
 18  4  2  0  0  0  0
 18 14  1  0  0  0  0
 19 13  1  0  0  0  0
 20  7  1  0  0  0  0
 20  2  2  0  0  0  0
 21 23  1  0  0  0  0
 22 21  2  0  0  0  0
 23 24  2  0  0  0  0
 23 25  1  0  0  0  0
M  END
>  <MODEL>
3

>  <REMARK>
 VINA RESULT:     -10.5      2.939      4.661
  Name = 
  2 active torsions:
  status: ('A' for Active; 'I' for Inactive)
    1  A    between atoms: C_2  and  C_21
    2  A    between atoms: C_15  and  C_21
                            x       y       z     vdW  Elec       q    Type
                         _______ _______ _______ _____ _____    ______ ____

>  <TORSDO>
F 2

$$$$
=
 OpenBabel10272400453D

 25 28  0  0  0  0  0  0  0  0999 V2000
  186.9430  177.8840  144.8200 C   0  0  0  0  0  0  0  0  0  0  0  0
  188.0870  177.4740  144.1020 C   0  0  0  0  0  0  0  0  0  0  0  0
  188.0960  177.5380  146.9420 C   0  0  0  0  0  3  0  0  0  0  0  0
  185.6940  178.2990  144.3170 C   0  0  0  0  0  0  0  0  0  0  0  0
  189.5710  177.2350  140.7130 C   0  0  0  0  0  0  0  0  0  0  0  0
  183.1090  179.1710  143.7020 C   0  0  0  0  0  3  0  0  0  0  0  0
  189.2330  177.1300  146.2390 C   0  0  0  0  0  3  0  0  0  0  0  0
  184.7890  178.6330  145.3250 C   0  0  0  0  0  0  0  0  0  0  0  0
  183.4970  179.0700  145.0460 C   0  0  0  0  0  3  0  0  0  0  0  0
  190.4640  176.6750  144.1100 C   0  0  0  0  0  0  0  0  0  0  0  0
  191.8830  176.1260  144.9890 Cl  0  0  0  0  0  0  0  0  0  0  0  0
  189.7100  177.3060  139.4170 C   0  0  0  0  0  3  0  0  0  0  0  0
  188.0670  177.3830  142.5980 C   0  0  0  0  0  2  0  0  0  0  0  0
  184.0080  178.8380  142.6730 C   0  0  0  0  0  3  0  0  0  0  0  0
  186.9720  177.9090  146.2150 C   0  0  0  0  0  0  0  0  0  0  0  0
  185.4950  178.4300  146.8400 S   0  0  0  0  0  0  0  0  0  0  0  0
  190.5240  176.7310  142.8150 N   0  0  0  0  0  0  0  0  0  0  0  0
  185.3060  178.4000  142.9760 C   0  0  0  0  0  3  0  0  0  0  0  0
  189.4260  177.1640  142.0060 C   0  0  0  0  0  0  0  0  0  0  0  0
  189.2410  177.0920  144.8300 C   0  0  0  0  0  0  0  0  0  0  0  0
  188.6150  177.7430  138.5410 C   0  0  0  0  0  0  0  0  0  0  0  0
  187.6080  178.3330  139.0220 O   0  0  0  0  0  0  0  0  0  0  0  0
  188.6890  177.4920  137.0960 C   0  0  0  0  0  0  0  0  0  0  0  0
  189.2740  178.4260  136.2490 O   0  0  0  0  0  0  0  0  0  0  0  0
  188.2230  176.4260  136.6130 O   0  0  0  0  0  1  0  0  0  0  0  0
  1 15  1  0  0  0  0
  2  1  2  0  0  0  0
  2 20  1  0  0  0  0
  4  1  1  0  0  0  0
  4  8  1  0  0  0  0
  5 19  2  0  0  0  0
  6  9  1  0  0  0  0
  7  3  1  0  0  0  0
  8 16  1  0  0  0  0
  9  8  2  0  0  0  0
 10 20  1  0  0  0  0
 10 11  1  0  0  0  0
 12  5  2  0  0  0  0
 13  2  1  0  0  0  0
 14 18  1  0  0  0  0
 14  6  2  0  0  0  0
 15 16  1  0  0  0  0
 15  3  2  0  0  0  0
 17 10  2  0  0  0  0
 18  4  2  0  0  0  0
 19 13  1  0  0  0  0
 19 17  1  0  0  0  0
 20  7  2  0  0  0  0
 21 22  2  0  0  0  0
 21 12  1  0  0  0  0
 23 21  1  0  0  0  0
 24 23  2  0  0  0  0
 25 23  1  0  0  0  0
M  END
>  <MODEL>
4

>  <REMARK>
 VINA RESULT:     -10.4      0.916      1.402
  Name = 
  2 active torsions:
  status: ('A' for Active; 'I' for Inactive)
    1  A    between atoms: C_2  and  C_21
    2  A    between atoms: C_15  and  C_21
                            x       y       z     vdW  Elec       q    Type
                         _______ _______ _______ _____ _____    ______ ____

>  <TORSDO>
F 2

$$$$
=
 OpenBabel10272400453D

 25 28  0  0  0  0  0  0  0  0999 V2000
  189.5280  177.4690  143.9070 C   0  0  0  0  0  0  0  0  0  0  0  0
  188.5220  177.7370  144.8610 C   0  0  0  0  0  0  0  0  0  0  0  0
  191.1010  176.8610  145.6700 C   0  0  0  0  0  3  0  0  0  0  0  0
  189.4570  177.5760  142.5040 C   0  0  0  0  0  0  0  0  0  0  0  0
  184.9230  178.5200  145.2810 C   0  0  0  0  0  0  0  0  0  0  0  0
  189.6950  177.6620  139.7190 C   0  0  0  0  0  3  0  0  0  0  0  0
  190.1120  177.1250  146.6210 C   0  0  0  0  0  3  0  0  0  0  0  0
  190.6510  177.2290  141.8740 C   0  0  0  0  0  0  0  0  0  0  0  0
  190.7970  177.2630  140.4900 C   0  0  0  0  0  3  0  0  0  0  0  0
  187.7940  177.8150  147.2600 C   0  0  0  0  0  0  0  0  0  0  0  0
  188.1690  177.6760  148.9710 Cl  0  0  0  0  0  0  0  0  0  0  0  0
  183.6760  178.7880  145.0040 C   0  0  0  0  0  3  0  0  0  0  0  0
  187.1720  178.2570  144.4400 C   0  0  0  0  0  2  0  0  0  0  0  0
  188.4820  178.0150  140.3370 C   0  0  0  0  0  3  0  0  0  0  0  0
  190.7870  177.0380  144.3290 C   0  0  0  0  0  0  0  0  0  0  0  0
  191.8100  176.7860  143.0120 S   0  0  0  0  0  0  0  0  0  0  0  0
  186.5790  178.1180  146.9170 N   0  0  0  0  0  0  0  0  0  0  0  0
  188.3570  177.9740  141.7350 C   0  0  0  0  0  3  0  0  0  0  0  0
  186.1700  178.2540  145.5530 C   0  0  0  0  0  0  0  0  0  0  0  0
  188.8290  177.5620  146.2340 C   0  0  0  0  0  0  0  0  0  0  0  0
  183.2030  178.9390  143.6200 C   0  0  0  0  0  0  0  0  0  0  0  0
  182.0000  179.2390  143.3860 O   0  0  0  0  0  0  0  0  0  0  0  0
  184.1340  178.7370  142.5030 C   0  0  0  0  0  0  0  0  0  0  0  0
  185.0560  179.7230  142.1700 O   0  0  0  0  0  1  0  0  0  0  0  0
  184.1040  177.6680  141.8370 O   0  0  0  0  0  0  0  0  0  0  0  0
  1 15  1  0  0  0  0
  1  2  2  0  0  0  0
  2 20  1  0  0  0  0
  3  7  1  0  0  0  0
  4  1  1  0  0  0  0
  5 19  2  0  0  0  0
  6 14  2  0  0  0  0
  6  9  1  0  0  0  0
  8  4  1  0  0  0  0
  8 16  1  0  0  0  0
  9  8  2  0  0  0  0
 10 11  1  0  0  0  0
 12  5  2  0  0  0  0
 13  2  1  0  0  0  0
 13 19  1  0  0  0  0
 14 18  1  0  0  0  0
 15  3  2  0  0  0  0
 16 15  1  0  0  0  0
 17 10  2  0  0  0  0
 18  4  2  0  0  0  0
 19 17  1  0  0  0  0
 20  7  2  0  0  0  0
 20 10  1  0  0  0  0
 21 12  1  0  0  0  0
 22 21  2  0  0  0  0
 23 21  1  0  0  0  0
 24 23  1  0  0  0  0
 25 23  2  0  0  0  0
M  END
>  <MODEL>
5

>  <REMARK>
 VINA RESULT:     -10.3      2.933      5.592
  Name = 
  2 active torsions:
  status: ('A' for Active; 'I' for Inactive)
    1  A    between atoms: C_2  and  C_21
    2  A    between atoms: C_15  and  C_21
                            x       y       z     vdW  Elec       q    Type
                         _______ _______ _______ _____ _____    ______ ____

>  <TORSDO>
F 2

$$$$
=
 OpenBabel10272400453D

 25 28  0  0  0  0  0  0  0  0999 V2000
  187.7100  177.8010  145.6430 C   0  0  0  0  0  0  0  0  0  0  0  0
  186.9330  178.1800  144.5280 C   0  0  0  0  0  0  0  0  0  0  0  0
  185.8090  178.1240  147.1370 C   0  0  0  0  0  3  0  0  0  0  0  0
  189.0660  177.4170  145.6770 C   0  0  0  0  0  0  0  0  0  0  0  0
  186.8960  178.3700  140.8250 C   0  0  0  0  0  0  0  0  0  0  0  0
  191.7030  176.6090  146.1390 C   0  0  0  0  0  3  0  0  0  0  0  0
  185.0310  178.5010  146.0380 C   0  0  0  0  0  3  0  0  0  0  0  0
  189.5080  177.1090  146.9630 C   0  0  0  0  0  0  0  0  0  0  0  0
  190.8150  176.7050  147.2210 C   0  0  0  0  0  3  0  0  0  0  0  0
  184.7260  178.9180  143.5910 C   0  0  0  0  0  0  0  0  0  0  0  0
  183.0640  179.4330  143.8340 Cl  0  0  0  0  0  0  0  0  0  0  0  0
  187.2790  178.2920  139.5800 C   0  0  0  0  0  3  0  0  0  0  0  0
  187.5400  178.2670  143.1520 C   0  0  0  0  0  2  0  0  0  0  0  0
  191.2740  176.9150  144.8350 C   0  0  0  0  0  3  0  0  0  0  0  0
  187.1360  177.7800  146.9150 C   0  0  0  0  0  0  0  0  0  0  0  0
  188.2590  177.2980  148.0760 S   0  0  0  0  0  0  0  0  0  0  0  0
  185.1820  178.8560  142.3770 N   0  0  0  0  0  0  0  0  0  0  0  0
  189.9520  177.3210  144.5980 C   0  0  0  0  0  3  0  0  0  0  0  0
  186.5190  178.4490  142.0710 C   0  0  0  0  0  0  0  0  0  0  0  0
  185.5770  178.5350  144.7390 C   0  0  0  0  0  0  0  0  0  0  0  0
  188.6400  177.8800  139.2110 C   0  0  0  0  0  0  0  0  0  0  0  0
  189.3140  177.1390  139.9790 O   0  0  0  0  0  0  0  0  0  0  0  0
  189.2220  178.3330  137.9410 C   0  0  0  0  0  0  0  0  0  0  0  0
  190.0170  177.4780  137.1870 O   0  0  0  0  0  0  0  0  0  0  0  0
  189.0050  179.5030  137.5260 O   0  0  0  0  0  1  0  0  0  0  0  0
  1  4  1  0  0  0  0
  1 15  2  0  0  0  0
  2 20  2  0  0  0  0
  2  1  1  0  0  0  0
  4  8  1  0  0  0  0
  5 19  2  0  0  0  0
  6  9  1  0  0  0  0
  7  3  2  0  0  0  0
  8  9  2  0  0  0  0
  8 16  1  0  0  0  0
 10 11  1  0  0  0  0
 10 20  1  0  0  0  0
 12  5  2  0  0  0  0
 13  2  1  0  0  0  0
 14  6  2  0  0  0  0
 15  3  1  0  0  0  0
 15 16  1  0  0  0  0
 17 10  2  0  0  0  0
 18 14  1  0  0  0  0
 18  4  2  0  0  0  0
 19 17  1  0  0  0  0
 19 13  1  0  0  0  0
 20  7  1  0  0  0  0
 21 12  1  0  0  0  0
 21 22  2  0  0  0  0
 23 21  1  0  0  0  0
 24 23  2  0  0  0  0
 25 23  1  0  0  0  0
M  END
>  <MODEL>
6

>  <REMARK>
 VINA RESULT:     -10.3      2.725      4.717
  Name = 
  2 active torsions:
  status: ('A' for Active; 'I' for Inactive)
    1  A    between atoms: C_2  and  C_21
    2  A    between atoms: C_15  and  C_21
                            x       y       z     vdW  Elec       q    Type
                         _______ _______ _______ _____ _____    ______ ____

>  <TORSDO>
F 2

$$$$
=
 OpenBabel10272400453D

 25 28  0  0  0  0  0  0  0  0999 V2000
  187.9910  177.6600  145.5110 C   0  0  0  0  0  0  0  0  0  0  0  0
  187.3610  178.0310  144.3030 C   0  0  0  0  0  0  0  0  0  0  0  0
  185.9300  178.0430  146.7570 C   0  0  0  0  0  3  0  0  0  0  0  0
  189.3250  177.2540  145.7150 C   0  0  0  0  0  0  0  0  0  0  0  0
  187.7760  178.1520  140.6210 C   0  0  0  0  0  0  0  0  0  0  0  0
  191.8720  176.4110  146.5060 C   0  0  0  0  0  3  0  0  0  0  0  0
  185.2980  178.4120  145.5660 C   0  0  0  0  0  3  0  0  0  0  0  0
  189.6030  176.9630  147.0500 C   0  0  0  0  0  0  0  0  0  0  0  0
  190.8620  176.5420  147.4710 C   0  0  0  0  0  3  0  0  0  0  0  0
  185.2990  178.7880  143.0940 C   0  0  0  0  0  0  0  0  0  0  0  0
  183.6300  179.3350  143.1250 Cl  0  0  0  0  0  0  0  0  0  0  0  0
  188.3050  178.0430  139.4330 C   0  0  0  0  0  3  0  0  0  0  0  0
  188.1320  178.0820  143.0100 C   0  0  0  0  0  2  0  0  0  0  0  0
  191.6090  176.7000  145.1560 C   0  0  0  0  0  3  0  0  0  0  0  0
  187.2670  177.6730  146.7040 C   0  0  0  0  0  0  0  0  0  0  0  0
  188.2330  177.1940  148.0000 S   0  0  0  0  0  0  0  0  0  0  0  0
  185.8970  178.6950  141.9450 N   0  0  0  0  0  0  0  0  0  0  0  0
  190.3330  177.1230  144.7530 C   0  0  0  0  0  3  0  0  0  0  0  0
  187.2530  178.2600  141.8100 C   0  0  0  0  0  0  0  0  0  0  0  0
  185.9970  178.4120  144.3430 C   0  0  0  0  0  0  0  0  0  0  0  0
  189.6930  177.6010  139.2380 C   0  0  0  0  0  0  0  0  0  0  0  0
  190.2090  177.6050  138.0860 O   0  0  0  0  0  0  0  0  0  0  0  0
  190.4850  177.1500  140.3890 C   0  0  0  0  0  0  0  0  0  0  0  0
  191.6590  177.8090  140.7350 O   0  0  0  0  0  0  0  0  0  0  0  0
  190.1060  176.1620  141.0710 O   0  0  0  0  0  1  0  0  0  0  0  0
  1  4  1  0  0  0  0
  1 15  2  0  0  0  0
  2 20  2  0  0  0  0
  2  1  1  0  0  0  0
  4  8  1  0  0  0  0
  5 19  2  0  0  0  0
  6  9  1  0  0  0  0
  7  3  2  0  0  0  0
  8  9  2  0  0  0  0
  8 16  1  0  0  0  0
 10 11  1  0  0  0  0
 10 20  1  0  0  0  0
 12  5  2  0  0  0  0
 13  2  1  0  0  0  0
 14  6  2  0  0  0  0
 15  3  1  0  0  0  0
 15 16  1  0  0  0  0
 17 10  2  0  0  0  0
 18 14  1  0  0  0  0
 18  4  2  0  0  0  0
 19 17  1  0  0  0  0
 19 13  1  0  0  0  0
 20  7  1  0  0  0  0
 21 12  1  0  0  0  0
 21 23  1  0  0  0  0
 22 21  2  0  0  0  0
 23 24  2  0  0  0  0
 23 25  1  0  0  0  0
M  END
>  <MODEL>
7

>  <REMARK>
 VINA RESULT:     -10.1      2.682      4.750
  Name = 
  2 active torsions:
  status: ('A' for Active; 'I' for Inactive)
    1  A    between atoms: C_2  and  C_21
    2  A    between atoms: C_15  and  C_21
                            x       y       z     vdW  Elec       q    Type
                         _______ _______ _______ _____ _____    ______ ____

>  <TORSDO>
F 2

$$$$
=
 OpenBabel10272400453D

 25 28  0  0  0  0  0  0  0  0999 V2000
  186.9920  178.1120  142.4870 C   0  0  0  0  0  0  0  0  0  0  0  0
  187.0350  177.8930  143.8800 C   0  0  0  0  0  0  0  0  0  0  0  0
  184.6830  178.8860  142.6350 C   0  0  0  0  0  3  0  0  0  0  0  0
  188.0070  177.8980  141.5330 C   0  0  0  0  0  0  0  0  0  0  0  0
  189.2770  177.0600  146.7140 C   0  0  0  0  0  0  0  0  0  0  0  0
  189.7580  177.6090  139.3720 C   0  0  0  0  0  3  0  0  0  0  0  0
  184.7170  178.6710  144.0160 C   0  0  0  0  0  3  0  0  0  0  0  0
  187.6090  178.2250  140.2370 C   0  0  0  0  0  0  0  0  0  0  0  0
  188.4600  178.0900  139.1440 C   0  0  0  0  0  3  0  0  0  0  0  0
  185.8930  177.9780  146.1120 C   0  0  0  0  0  0  0  0  0  0  0  0
  184.4490  178.2530  147.0740 Cl  0  0  0  0  0  0  0  0  0  0  0  0
  190.3460  176.7440  147.3920 C   0  0  0  0  0  3  0  0  0  0  0  0
  188.2610  177.3110  144.5370 C   0  0  0  0  0  2  0  0  0  0  0  0
  190.1760  177.2760  140.6720 C   0  0  0  0  0  3  0  0  0  0  0  0
  185.8250  178.6020  141.8980 C   0  0  0  0  0  0  0  0  0  0  0  0
  186.0180  178.7780  140.2320 S   0  0  0  0  0  0  0  0  0  0  0  0
  186.9830  177.6220  146.7220 N   0  0  0  0  0  0  0  0  0  0  0  0
  189.3020  177.4190  141.7600 C   0  0  0  0  0  3  0  0  0  0  0  0
  188.2110  177.3750  146.0320 C   0  0  0  0  0  0  0  0  0  0  0  0
  185.8770  178.1780  144.6460 C   0  0  0  0  0  0  0  0  0  0  0  0
  191.6330  176.4790  146.7340 C   0  0  0  0  0  0  0  0  0  0  0  0
  192.6050  176.0160  147.3930 O   0  0  0  0  0  0  0  0  0  0  0  0
  191.7920  176.7570  145.3010 C   0  0  0  0  0  0  0  0  0  0  0  0
  191.9620  178.0610  144.8530 O   0  0  0  0  0  1  0  0  0  0  0  0
  191.7740  175.8130  144.4660 O   0  0  0  0  0  0  0  0  0  0  0  0
  1  2  2  0  0  0  0
  2 13  1  0  0  0  0
  2 20  1  0  0  0  0
  3  7  1  0  0  0  0
  4 18  1  0  0  0  0
  4  1  1  0  0  0  0
  5 12  2  0  0  0  0
  6 14  1  0  0  0  0
  7 20  2  0  0  0  0
  8  4  2  0  0  0  0
  9  6  2  0  0  0  0
  9  8  1  0  0  0  0
 10 17  2  0  0  0  0
 10 11  1  0  0  0  0
 13 19  1  0  0  0  0
 14 18  2  0  0  0  0
 15  1  1  0  0  0  0
 15  3  2  0  0  0  0
 16  8  1  0  0  0  0
 16 15  1  0  0  0  0
 19  5  2  0  0  0  0
 19 17  1  0  0  0  0
 20 10  1  0  0  0  0
 21 12  1  0  0  0  0
 21 22  2  0  0  0  0
 23 21  1  0  0  0  0
 24 23  1  0  0  0  0
 25 23  2  0  0  0  0
M  END
>  <MODEL>
8

>  <REMARK>
 VINA RESULT:     -10.1      3.672      5.982
  Name = 
  2 active torsions:
  status: ('A' for Active; 'I' for Inactive)
    1  A    between atoms: C_2  and  C_21
    2  A    between atoms: C_15  and  C_21
                            x       y       z     vdW  Elec       q    Type
                         _______ _______ _______ _____ _____    ______ ____

>  <TORSDO>
F 2

$$$$
=
 OpenBabel10272400453D

 25 28  0  0  0  0  0  0  0  0999 V2000
  188.8920  177.6470  143.5220 C   0  0  0  0  0  0  0  0  0  0  0  0
  187.5260  177.8990  143.7730 C   0  0  0  0  0  0  0  0  0  0  0  0
  189.3460  177.4790  145.9130 C   0  0  0  0  0  3  0  0  0  0  0  0
  189.5560  177.5660  142.2820 C   0  0  0  0  0  0  0  0  0  0  0  0
  184.2000  178.2510  142.1710 C   0  0  0  0  0  0  0  0  0  0  0  0
  191.2020  177.3290  140.0340 C   0  0  0  0  0  3  0  0  0  0  0  0
  187.9950  177.7290  146.1700 C   0  0  0  0  0  3  0  0  0  0  0  0
  190.9180  177.3010  142.4140 C   0  0  0  0  0  0  0  0  0  0  0  0
  191.7600  177.1790  141.3120 C   0  0  0  0  0  3  0  0  0  0  0  0
  185.6540  178.1840  145.4170 C   0  0  0  0  0  0  0  0  0  0  0  0
  185.0910  178.3130  147.0770 Cl  0  0  0  0  0  0  0  0  0  0  0  0
  183.2680  178.3150  141.2600 C   0  0  0  0  0  3  0  0  0  0  0  0
  186.5690  178.1810  142.6430 C   0  0  0  0  0  2  0  0  0  0  0  0
  189.8300  177.5960  139.8820 C   0  0  0  0  0  3  0  0  0  0  0  0
  189.7670  177.4420  144.5900 C   0  0  0  0  0  0  0  0  0  0  0  0
  191.3360  177.1620  144.0390 S   0  0  0  0  0  0  0  0  0  0  0  0
  184.7820  178.2790  144.4610 N   0  0  0  0  0  0  0  0  0  0  0  0
  188.9990  177.7150  141.0060 C   0  0  0  0  0  3  0  0  0  0  0  0
  185.1350  178.1870  143.0780 C   0  0  0  0  0  0  0  0  0  0  0  0
  187.0820  177.9410  145.1180 C   0  0  0  0  0  0  0  0  0  0  0  0
  183.5770  178.2270  139.8260 C   0  0  0  0  0  0  0  0  0  0  0  0
  182.9730  177.3960  139.0930 O   0  0  0  0  0  0  0  0  0  0  0  0
  184.5950  179.1090  139.2410 C   0  0  0  0  0  0  0  0  0  0  0  0
  184.3110  180.4480  139.0020 O   0  0  0  0  0  1  0  0  0  0  0  0
  185.7340  178.6570  138.9510 O   0  0  0  0  0  0  0  0  0  0  0  0
  1  2  2  0  0  0  0
  1 15  1  0  0  0  0
  2 20  1  0  0  0  0
  3  7  1  0  0  0  0
  4  8  1  0  0  0  0
  4  1  1  0  0  0  0
  5 19  2  0  0  0  0
  6  9  1  0  0  0  0
  8 16  1  0  0  0  0
  9  8  2  0  0  0  0
 10 11  1  0  0  0  0
 12  5  2  0  0  0  0
 13 19  1  0  0  0  0
 13  2  1  0  0  0  0
 14  6  2  0  0  0  0
 14 18  1  0  0  0  0
 15  3  2  0  0  0  0
 16 15  1  0  0  0  0
 17 10  2  0  0  0  0
 18  4  2  0  0  0  0
 19 17  1  0  0  0  0
 20 10  1  0  0  0  0
 20  7  2  0  0  0  0
 21 12  1  0  0  0  0
 22 21  2  0  0  0  0
 23 21  1  0  0  0  0
 24 23  1  0  0  0  0
 25 23  2  0  0  0  0
M  END
>  <MODEL>
9

>  <REMARK>
 VINA RESULT:     -10.0      2.944      5.342
  Name = 
  2 active torsions:
  status: ('A' for Active; 'I' for Inactive)
    1  A    between atoms: C_2  and  C_21
    2  A    between atoms: C_15  and  C_21
                            x       y       z     vdW  Elec       q    Type
                         _______ _______ _______ _____ _____    ______ ____

>  <TORSDO>
F 2

$$$$
