=
 OpenBabel10272414493D

 37 41  0  0  1  0  0  0  0  0999 V2000
  186.5280  178.2350  139.7650 C   0  0  0  0  0  0  0  0  0  0  0  0
  185.7960  177.2400  137.7170 O   0  0  0  0  0  0  0  0  0  0  0  0
  185.1070  178.4860  140.2270 C   0  0  2  0  0  3  0  0  0  0  0  0
  186.7250  178.1430  138.2610 C   0  0  2  0  0  3  0  0  0  0  0  0
  184.9090  178.1010  141.6890 C   0  0  0  0  0  2  0  0  0  0  0  0
  188.1340  177.7050  137.8700 C   0  0  0  0  0  2  0  0  0  0  0  0
  184.5230  177.8260  137.8500 C   0  0  2  0  0  3  0  0  0  0  0  0
  187.5760  178.3230  140.6260 C   0  0  0  0  0  0  0  0  0  0  0  0
  189.1600  178.4780  138.6790 C   0  0  0  0  0  2  0  0  0  0  0  0
  188.9930  178.1260  140.1520 C   0  0  0  0  0  2  0  0  0  0  0  0
  184.0770  177.7860  139.3270 C   0  0  2  0  0  3  0  0  0  0  0  0
  185.9640  178.8110  142.5250 C   0  0  2  0  0  3  0  0  0  0  0  0
  187.3630  178.3460  142.1210 C   0  0  0  0  0  2  0  0  0  0  0  0
  182.6410  179.9090  139.3010 C   0  0  0  0  0  2  0  0  0  0  0  0
  182.2040  180.2750  137.8920 C   0  0  0  0  0  2  0  0  0  0  0  0
  179.9830  179.1200  137.7200 N   0  0  0  0  0  0  0  0  0  0  0  0
  180.6810  180.4080  137.8630 C   0  0  2  0  0  3  0  0  0  0  0  0
  180.2010  178.2590  138.8910 C   0  0  0  0  0  2  0  0  0  0  0  0
  181.5710  177.5600  138.8890 C   0  0  1  0  0  3  0  0  0  0  0  0
  180.3320  178.4330  136.4750 C   0  0  0  0  0  1  0  0  0  0  0  0
  182.6790  178.3930  139.5560 C   0  0  1  0  0  3  0  0  0  0  0  0
  180.0610  176.0380  140.1640 C   0  0  0  0  0  1  0  0  0  0  0  0
  181.4540  176.2130  139.5880 C   0  0  0  0  0  2  0  0  0  0  0  0
  180.6890  182.7970  137.1320 C   0  0  0  0  0  1  0  0  0  0  0  0
  180.2310  181.3930  136.7890 C   0  0  0  0  0  2  0  0  0  0  0  0
  184.4710  178.8980  144.5240 C   0  0  0  0  0  3  0  0  0  0  0  0
  185.7280  178.5970  143.9850 C   0  0  0  0  0  0  0  0  0  0  0  0
  186.7390  178.0980  144.8210 C   0  0  0  0  0  3  0  0  0  0  0  0
  187.5670  177.3780  147.0650 C   0  0  0  0  0  1  0  0  0  0  0  0
  185.2370  178.2080  146.7160 C   0  0  0  0  0  3  0  0  0  0  0  0
  186.4930  177.9050  146.1830 C   0  0  0  0  0  0  0  0  0  0  0  0
  184.2270  178.7050  145.8870 C   0  0  0  0  0  3  0  0  0  0  0  0
  183.5990  177.1190  137.0350 O   0  0  0  0  0  0  0  0  0  0  0  0
  183.8660  175.8330  136.5660 C   0  0  0  0  0  0  0  0  0  0  0  0
  184.2480  175.6790  135.3760 O   0  0  0  0  0  0  0  0  0  0  0  0
  183.7180  174.7310  137.4120 O   0  0  0  0  0  0  0  0  0  0  0  0
  184.7550  173.7780  137.5900 C   0  0  0  0  0  1  0  0  0  0  0  0
  1  3  1  0  0  0  0
  1  8  2  0  0  0  0
  2  7  1  0  0  0  0
  2  4  1  0  0  0  0
  3  5  1  1  0  0  0
  4  6  1  1  0  0  0
  4  1  1  0  0  0  0
  5 12  1  0  0  0  0
  6  9  1  0  0  0  0
  7 33  1  6  0  0  0
  7 11  1  0  0  0  0
  8 13  1  0  0  0  0
  9 10  1  0  0  0  0
 10  8  1  0  0  0  0
 11 21  1  6  0  0  0
 11  3  1  0  0  0  0
 12 27  1  1  0  0  0
 13 12  1  0  0  0  0
 15 14  1  0  0  0  0
 16 17  1  0  0  0  0
 16 18  1  0  0  0  0
 17 25  1  6  0  0  0
 17 15  1  0  0  0  0
 19 18  1  0  0  0  0
 19 21  1  0  0  0  0
 19 23  1  1  0  0  0
 20 16  1  0  0  0  0
 21 14  1  6  0  0  0
 23 22  1  0  0  0  0
 25 24  1  0  0  0  0
 26 32  1  0  0  0  0
 27 26  2  0  0  0  0
 27 28  1  0  0  0  0
 28 31  2  0  0  0  0
 31 30  1  0  0  0  0
 31 29  1  0  0  0  0
 32 30  2  0  0  0  0
 34 33  1  0  0  0  0
 34 36  1  0  0  0  0
 35 34  2  0  0  0  0
 36 37  1  0  0  0  0
M  END
>  <MODEL>
1

>  <REMARK>
 VINA RESULT:      -7.4      0.000      0.000
  Name = 
  7 active torsions:
  status: ('A' for Active; 'I' for Inactive)
    1  A    between atoms: O_3  and  C_21
    2  A    between atoms: C_6  and  C_31
    3  A    between atoms: C_17  and  C_23
    4  A    between atoms: C_20  and  O_25
    5  A    between atoms: C_21  and  O_25
    6  A    between atoms: C_27  and  C_33
    7  A    between atoms: C_29  and  C_36
                            x       y       z     vdW  Elec       q    Type
                         _______ _______ _______ _____ _____    ______ ____

>  <TORSDO>
F 7

$$$$
=
 OpenBabel10272414493D

 37 41  0  0  1  0  0  0  0  0999 V2000
  187.0200  178.1920  140.2090 C   0  0  0  0  0  0  0  0  0  0  0  0
  188.9820  178.6310  141.5020 O   0  0  0  0  0  0  0  0  0  0  0  0
  186.1650  178.0100  141.4460 C   0  0  2  0  0  3  0  0  0  0  0  0
  188.5040  177.9220  140.3880 C   0  0  2  0  0  3  0  0  0  0  0  0
  184.8280  178.7320  141.3240 C   0  0  0  0  0  2  0  0  0  0  0  0
  189.3320  178.3020  139.1630 C   0  0  0  0  0  2  0  0  0  0  0  0
  188.3990  178.0500  142.6440 C   0  0  2  0  0  3  0  0  0  0  0  0
  186.4590  178.3540  138.9810 C   0  0  0  0  0  0  0  0  0  0  0  0
  188.6590  177.7870  137.9030 C   0  0  0  0  0  2  0  0  0  0  0  0
  187.3120  178.4810  137.7450 C   0  0  0  0  0  2  0  0  0  0  0  0
  186.9050  178.4320  142.7240 C   0  0  2  0  0  3  0  0  0  0  0  0
  184.1520  178.2850  140.0360 C   0  0  2  0  0  3  0  0  0  0  0  0
  184.9950  178.6880  138.8250 C   0  0  0  0  0  2  0  0  0  0  0  0
  187.1020  176.9140  144.7800 C   0  0  0  0  0  2  0  0  0  0  0  0
  187.8110  177.6120  145.9290 C   0  0  0  0  0  2  0  0  0  0  0  0
  185.8890  178.6010  147.2030 N   0  0  0  0  0  0  0  0  0  0  0  0
  186.9220  177.5530  147.1720 C   0  0  2  0  0  3  0  0  0  0  0  0
  184.9180  178.4300  146.1130 C   0  0  0  0  0  2  0  0  0  0  0  0
  185.4330  178.9260  144.7520 C   0  0  1  0  0  3  0  0  0  0  0  0
  186.4630  179.9480  147.2060 C   0  0  0  0  0  1  0  0  0  0  0  0
  186.1950  177.8490  143.9620 C   0  0  1  0  0  3  0  0  0  0  0  0
  182.9520  178.9340  144.4960 C   0  0  0  0  0  1  0  0  0  0  0  0
  184.2640  179.4370  143.9230 C   0  0  0  0  0  2  0  0  0  0  0  0
  189.2250  177.7440  148.1220 C   0  0  0  0  0  1  0  0  0  0  0  0
  187.7540  177.5700  148.4490 C   0  0  0  0  0  2  0  0  0  0  0  0
  181.8130  178.4750  140.8910 C   0  0  0  0  0  3  0  0  0  0  0  0
  182.7670  178.8410  139.9340 C   0  0  0  0  0  0  0  0  0  0  0  0
  182.4090  179.7210  138.9010 C   0  0  0  0  0  3  0  0  0  0  0  0
  180.7340  181.1590  137.7320 C   0  0  0  0  0  1  0  0  0  0  0  0
  180.1600  179.8580  139.7870 C   0  0  0  0  0  3  0  0  0  0  0  0
  181.1090  180.2270  138.8290 C   0  0  0  0  0  0  0  0  0  0  0  0
  180.5130  178.9820  140.8170 C   0  0  0  0  0  3  0  0  0  0  0  0
  189.0890  178.5030  143.8000 O   0  0  0  0  0  0  0  0  0  0  0  0
  190.4810  178.5120  143.8690 C   0  0  0  0  0  0  0  0  0  0  0  0
  191.0870  179.6150  143.9200 O   0  0  0  0  0  0  0  0  0  0  0  0
  191.1930  177.3100  143.8860 O   0  0  0  0  0  0  0  0  0  0  0  0
  191.5030  176.6400  145.0980 C   0  0  0  0  0  1  0  0  0  0  0  0
  1  4  1  0  0  0  0
  1  3  1  0  0  0  0
  2  7  1  0  0  0  0
  3  5  1  6  0  0  0
  3 11  1  0  0  0  0
  4  6  1  6  0  0  0
  4  2  1  0  0  0  0
  7 11  1  0  0  0  0
  7 33  1  1  0  0  0
  8  1  2  0  0  0  0
  9  6  1  0  0  0  0
 10  9  1  0  0  0  0
 10  8  1  0  0  0  0
 11 21  1  1  0  0  0
 12 27  1  6  0  0  0
 12  5  1  0  0  0  0
 13  8  1  0  0  0  0
 13 12  1  0  0  0  0
 14 15  1  0  0  0  0
 15 17  1  0  0  0  0
 16 20  1  0  0  0  0
 17 16  1  0  0  0  0
 17 25  1  1  0  0  0
 18 16  1  0  0  0  0
 19 23  1  6  0  0  0
 19 18  1  0  0  0  0
 21 19  1  0  0  0  0
 21 14  1  1  0  0  0
 23 22  1  0  0  0  0
 24 25  1  0  0  0  0
 27 26  2  0  0  0  0
 28 27  1  0  0  0  0
 29 31  1  0  0  0  0
 30 32  2  0  0  0  0
 31 28  2  0  0  0  0
 31 30  1  0  0  0  0
 32 26  1  0  0  0  0
 33 34  1  0  0  0  0
 34 36  1  0  0  0  0
 34 35  2  0  0  0  0
 36 37  1  0  0  0  0
M  END
>  <MODEL>
2

>  <REMARK>
 VINA RESULT:      -7.3      3.388      7.985
  Name = 
  7 active torsions:
  status: ('A' for Active; 'I' for Inactive)
    1  A    between atoms: O_3  and  C_21
    2  A    between atoms: C_6  and  C_31
    3  A    between atoms: C_17  and  C_23
    4  A    between atoms: C_20  and  O_25
    5  A    between atoms: C_21  and  O_25
    6  A    between atoms: C_27  and  C_33
    7  A    between atoms: C_29  and  C_36
                            x       y       z     vdW  Elec       q    Type
                         _______ _______ _______ _____ _____    ______ ____

>  <TORSDO>
F 7

$$$$
=
 OpenBabel10272414493D

 37 41  0  0  1  0  0  0  0  0999 V2000
  189.0880  177.4140  142.6570 C   0  0  0  0  0  0  0  0  0  0  0  0
  190.5150  176.1620  141.2030 O   0  0  0  0  0  0  0  0  0  0  0  0
  188.3110  178.0020  141.4970 C   0  0  2  0  0  3  0  0  0  0  0  0
  190.5110  176.9800  142.3460 C   0  0  2  0  0  3  0  0  0  0  0  0
  186.8080  177.9690  141.7450 C   0  0  0  0  0  2  0  0  0  0  0  0
  191.1710  176.2280  143.4980 C   0  0  0  0  0  2  0  0  0  0  0  0
  190.1700  176.9780  140.1090 C   0  0  2  0  0  3  0  0  0  0  0  0
  188.6200  177.4920  143.9310 C   0  0  0  0  0  0  0  0  0  0  0  0
  190.9170  176.9590  144.8050 C   0  0  0  0  0  2  0  0  0  0  0  0
  189.4200  176.9540  145.0900 C   0  0  0  0  0  2  0  0  0  0  0  0
  188.6660  177.3240  140.1650 C   0  0  2  0  0  3  0  0  0  0  0  0
  186.5220  178.6390  143.0810 C   0  0  2  0  0  3  0  0  0  0  0  0
  187.1850  177.8610  144.2190 C   0  0  0  0  0  2  0  0  0  0  0  0
  189.3490  178.5650  138.0290 C   0  0  0  0  0  2  0  0  0  0  0  0
  189.4700  177.6210  136.8440 C   0  0  0  0  0  2  0  0  0  0  0  0
  187.1750  177.7500  135.8380 N   0  0  0  0  0  0  0  0  0  0  0  0
  188.5890  178.1360  135.7050 C   0  0  2  0  0  3  0  0  0  0  0  0
  186.5580  178.3720  137.0190 C   0  0  0  0  0  2  0  0  0  0  0  0
  186.9140  177.6650  138.3380 C   0  0  1  0  0  3  0  0  0  0  0  0
  186.9920  176.2980  135.8370 C   0  0  0  0  0  1  0  0  0  0  0  0
  188.2010  178.2010  138.9860 C   0  0  1  0  0  3  0  0  0  0  0  0
  184.5470  178.3980  138.6180 C   0  0  0  0  0  1  0  0  0  0  0  0
  185.7550  177.8000  139.3140 C   0  0  0  0  0  2  0  0  0  0  0  0
  190.2780  176.7310  134.5160 C   0  0  0  0  0  1  0  0  0  0  0  0
  189.1420  177.7210  134.3460 C   0  0  0  0  0  2  0  0  0  0  0  0
  184.5830  179.0280  144.6060 C   0  0  0  0  0  3  0  0  0  0  0  0
  185.0510  178.7760  143.3110 C   0  0  0  0  0  0  0  0  0  0  0  0
  184.1350  178.6590  142.2540 C   0  0  0  0  0  3  0  0  0  0  0  0
  181.7980  178.6670  141.3710 C   0  0  0  0  0  1  0  0  0  0  0  0
  182.3030  179.0440  143.7890 C   0  0  0  0  0  3  0  0  0  0  0  0
  182.7650  178.7920  142.4940 C   0  0  0  0  0  0  0  0  0  0  0  0
  183.2120  179.1610  144.8440 C   0  0  0  0  0  3  0  0  0  0  0  0
  190.4750  176.2920  138.9030 O   0  0  0  0  0  0  0  0  0  0  0  0
  191.7790  175.9180  138.5810 C   0  0  0  0  0  0  0  0  0  0  0  0
  192.7190  176.7330  138.7770 O   0  0  0  0  0  0  0  0  0  0  0  0
  192.0380  174.6510  138.0520 O   0  0  0  0  0  0  0  0  0  0  0  0
  191.2530  174.0990  137.0080 C   0  0  0  0  0  1  0  0  0  0  0  0
  1  8  2  0  0  0  0
  2  4  1  0  0  0  0
  3  5  1  1  0  0  0
  3  1  1  0  0  0  0
  4  1  1  0  0  0  0
  4  6  1  1  0  0  0
  5 12  1  0  0  0  0
  6  9  1  0  0  0  0
  7 33  1  6  0  0  0
  7 11  1  0  0  0  0
  7  2  1  0  0  0  0
  8 13  1  0  0  0  0
  8 10  1  0  0  0  0
  9 10  1  0  0  0  0
 11 21  1  6  0  0  0
 11  3  1  0  0  0  0
 12 27  1  1  0  0  0
 12 13  1  0  0  0  0
 15 14  1  0  0  0  0
 16 18  1  0  0  0  0
 17 25  1  6  0  0  0
 17 16  1  0  0  0  0
 17 15  1  0  0  0  0
 18 19  1  0  0  0  0
 19 21  1  0  0  0  0
 19 23  1  1  0  0  0
 20 16  1  0  0  0  0
 21 14  1  6  0  0  0
 22 23  1  0  0  0  0
 25 24  1  0  0  0  0
 26 32  1  0  0  0  0
 27 26  2  0  0  0  0
 28 31  2  0  0  0  0
 28 27  1  0  0  0  0
 29 31  1  0  0  0  0
 30 32  2  0  0  0  0
 31 30  1  0  0  0  0
 34 35  2  0  0  0  0
 34 33  1  0  0  0  0
 36 34  1  0  0  0  0
 37 36  1  0  0  0  0
M  END
>  <MODEL>
3

>  <REMARK>
 VINA RESULT:      -7.0      3.508      6.173
  Name = 
  7 active torsions:
  status: ('A' for Active; 'I' for Inactive)
    1  A    between atoms: O_3  and  C_21
    2  A    between atoms: C_6  and  C_31
    3  A    between atoms: C_17  and  C_23
    4  A    between atoms: C_20  and  O_25
    5  A    between atoms: C_21  and  O_25
    6  A    between atoms: C_27  and  C_33
    7  A    between atoms: C_29  and  C_36
                            x       y       z     vdW  Elec       q    Type
                         _______ _______ _______ _____ _____    ______ ____

>  <TORSDO>
F 7

$$$$
=
 OpenBabel10272414493D

 37 41  0  0  1  0  0  0  0  0999 V2000
  188.2670  177.8240  139.9050 C   0  0  0  0  0  0  0  0  0  0  0  0
  187.0240  177.3200  137.9250 O   0  0  0  0  0  0  0  0  0  0  0  0
  187.0520  178.4050  140.5990 C   0  0  2  0  0  3  0  0  0  0  0  0
  188.2370  177.8580  138.3860 C   0  0  2  0  0  3  0  0  0  0  0  0
  186.9360  177.9210  142.0400 C   0  0  0  0  0  2  0  0  0  0  0  0
  189.3940  177.0930  137.7490 C   0  0  0  0  0  2  0  0  0  0  0  0
  186.0060  178.2180  138.2980 C   0  0  2  0  0  3  0  0  0  0  0  0
  189.3940  177.5140  140.5980 C   0  0  0  0  0  0  0  0  0  0  0  0
  190.6960  177.4490  138.4470 C   0  0  0  0  0  2  0  0  0  0  0  0
  190.6200  176.9870  139.8970 C   0  0  0  0  0  2  0  0  0  0  0  0
  185.7570  178.1310  139.8190 C   0  0  2  0  0  3  0  0  0  0  0  0
  188.2490  178.2050  142.7540 C   0  0  2  0  0  3  0  0  0  0  0  0
  189.3890  177.4190  142.1050 C   0  0  0  0  0  2  0  0  0  0  0  0
  184.0970  179.9780  139.1880 C   0  0  0  0  0  2  0  0  0  0  0  0
  182.8660  179.4160  138.4970 C   0  0  0  0  0  2  0  0  0  0  0  0
  181.2990  179.0680  140.4260 N   0  0  0  0  0  0  0  0  0  0  0  0
  181.6170  179.8870  139.2440 C   0  0  2  0  0  3  0  0  0  0  0  0
  182.3440  179.1820  141.4540 C   0  0  0  0  0  2  0  0  0  0  0  0
  183.5910  178.3340  141.1550 C   0  0  1  0  0  3  0  0  0  0  0  0
  181.0350  177.6700  140.0800 C   0  0  0  0  0  1  0  0  0  0  0  0
  184.6390  179.0720  140.3060 C   0  0  1  0  0  3  0  0  0  0  0  0
  183.6570  178.6790  143.6250 C   0  0  0  0  0  1  0  0  0  0  0  0
  184.2210  177.8800  142.4640 C   0  0  0  0  0  2  0  0  0  0  0  0
  180.8710  180.0160  136.8640 C   0  0  0  0  0  1  0  0  0  0  0  0
  180.4160  179.9840  138.3100 C   0  0  0  0  0  2  0  0  0  0  0  0
  186.8840  177.8590  144.8160 C   0  0  0  0  0  3  0  0  0  0  0  0
  188.1470  177.8950  144.2130 C   0  0  0  0  0  0  0  0  0  0  0  0
  189.2900  177.6380  144.9860 C   0  0  0  0  0  3  0  0  0  0  0  0
  190.3820  177.0770  147.1610 C   0  0  0  0  0  1  0  0  0  0  0  0
  187.9040  177.3150  146.9440 C   0  0  0  0  0  3  0  0  0  0  0  0
  189.1680  177.3490  146.3470 C   0  0  0  0  0  0  0  0  0  0  0  0
  186.7630  177.5710  146.1780 C   0  0  0  0  0  3  0  0  0  0  0  0
  184.8190  177.8980  137.5840 O   0  0  0  0  0  0  0  0  0  0  0  0
  184.7350  176.7710  136.7670 C   0  0  0  0  0  0  0  0  0  0  0  0
  185.0040  176.8780  135.5410 O   0  0  0  0  0  0  0  0  0  0  0  0
  184.3630  175.5370  137.3060 O   0  0  0  0  0  0  0  0  0  0  0  0
  183.2750  175.4090  138.2070 C   0  0  0  0  0  1  0  0  0  0  0  0
  1  8  2  0  0  0  0
  1  3  1  0  0  0  0
  2  7  1  0  0  0  0
  2  4  1  0  0  0  0
  3  5  1  1  0  0  0
  4  6  1  6  0  0  0
  4  1  1  0  0  0  0
  5 12  1  0  0  0  0
  6  9  1  0  0  0  0
  7 33  1  6  0  0  0
  7 11  1  0  0  0  0
  8 13  1  0  0  0  0
  9 10  1  0  0  0  0
 10  8  1  0  0  0  0
 11 21  1  1  0  0  0
 11  3  1  0  0  0  0
 12 27  1  1  0  0  0
 13 12  1  0  0  0  0
 15 14  1  0  0  0  0
 15 17  1  0  0  0  0
 16 18  1  0  0  0  0
 17 25  1  6  0  0  0
 17 16  1  0  0  0  0
 19 18  1  0  0  0  0
 19 23  1  1  0  0  0
 20 16  1  0  0  0  0
 21 14  1  6  0  0  0
 21 19  1  0  0  0  0
 23 22  1  0  0  0  0
 24 25  1  0  0  0  0
 26 32  1  0  0  0  0
 27 26  2  0  0  0  0
 27 28  1  0  0  0  0
 28 31  2  0  0  0  0
 31 30  1  0  0  0  0
 31 29  1  0  0  0  0
 32 30  2  0  0  0  0
 34 36  1  0  0  0  0
 34 33  1  0  0  0  0
 35 34  2  0  0  0  0
 36 37  1  0  0  0  0
M  END
>  <MODEL>
4

>  <REMARK>
 VINA RESULT:      -6.9      1.446      2.484
  Name = 
  7 active torsions:
  status: ('A' for Active; 'I' for Inactive)
    1  A    between atoms: O_3  and  C_21
    2  A    between atoms: C_6  and  C_31
    3  A    between atoms: C_17  and  C_23
    4  A    between atoms: C_20  and  O_25
    5  A    between atoms: C_21  and  O_25
    6  A    between atoms: C_27  and  C_33
    7  A    between atoms: C_29  and  C_36
                            x       y       z     vdW  Elec       q    Type
                         _______ _______ _______ _____ _____    ______ ____

>  <TORSDO>
F 7

$$$$
=
 OpenBabel10272414493D

 37 41  0  0  1  0  0  0  0  0999 V2000
  185.3790  178.2030  144.0020 C   0  0  0  0  0  0  0  0  0  0  0  0
  183.3090  179.3750  143.7620 O   0  0  0  0  0  0  0  0  0  0  0  0
  185.3850  177.7790  142.5480 C   0  0  2  0  0  3  0  0  0  0  0  0
  184.0120  178.4930  144.5990 C   0  0  2  0  0  3  0  0  0  0  0  0
  186.7550  177.9650  141.9070 C   0  0  0  0  0  2  0  0  0  0  0  0
  184.0890  179.0930  146.0010 C   0  0  0  0  0  2  0  0  0  0  0  0
  183.0120  178.6730  142.5780 C   0  0  2  0  0  3  0  0  0  0  0  0
  186.4950  178.0980  144.7710 C   0  0  0  0  0  0  0  0  0  0  0  0
  185.0850  178.3150  146.8430 C   0  0  0  0  0  2  0  0  0  0  0  0
  186.4730  178.4700  146.2320 C   0  0  0  0  0  2  0  0  0  0  0  0
  184.2940  178.4950  141.7360 C   0  0  2  0  0  3  0  0  0  0  0  0
  187.7910  177.2500  142.7620 C   0  0  2  0  0  3  0  0  0  0  0  0
  187.8550  177.8760  144.1550 C   0  0  0  0  0  2  0  0  0  0  0  0
  182.7830  176.8780  140.4430 C   0  0  0  0  0  2  0  0  0  0  0  0
  181.5520  177.5780  139.8910 C   0  0  0  0  0  2  0  0  0  0  0  0
  182.3170  178.2420  137.5950 N   0  0  0  0  0  0  0  0  0  0  0  0
  181.4730  177.3300  138.3840 C   0  0  2  0  0  3  0  0  0  0  0  0
  183.7440  178.0290  137.8740 C   0  0  0  0  0  2  0  0  0  0  0  0
  184.2130  178.6720  139.1900 C   0  0  1  0  0  3  0  0  0  0  0  0
  181.9380  179.6450  137.7730 C   0  0  0  0  0  1  0  0  0  0  0  0
  184.0500  177.7500  140.4090 C   0  0  1  0  0  3  0  0  0  0  0  0
  186.3080  178.4120  137.8620 C   0  0  0  0  0  1  0  0  0  0  0  0
  185.6690  179.0930  139.0580 C   0  0  0  0  0  2  0  0  0  0  0  0
  179.9820  177.6580  136.4060 C   0  0  0  0  0  1  0  0  0  0  0  0
  180.0300  177.3620  137.8930 C   0  0  0  0  0  2  0  0  0  0  0  0
  190.2820  177.3570  142.9000 C   0  0  0  0  0  3  0  0  0  0  0  0
  189.1340  177.2640  142.1040 C   0  0  0  0  0  0  0  0  0  0  0  0
  189.2620  177.1850  140.7090 C   0  0  0  0  0  3  0  0  0  0  0  0
  190.6600  177.1160  138.6400 C   0  0  0  0  0  1  0  0  0  0  0  0
  191.6720  177.2920  140.9170 C   0  0  0  0  0  3  0  0  0  0  0  0
  190.5290  177.1990  140.1180 C   0  0  0  0  0  0  0  0  0  0  0  0
  191.5480  177.3710  142.3070 C   0  0  0  0  0  3  0  0  0  0  0  0
  182.0330  179.3940  141.8430 O   0  0  0  0  0  0  0  0  0  0  0  0
  180.7290  179.5480  142.3110 C   0  0  0  0  0  0  0  0  0  0  0  0
  180.1300  180.6380  142.1150 O   0  0  0  0  0  0  0  0  0  0  0  0
  180.0930  178.5000  142.9820 O   0  0  0  0  0  0  0  0  0  0  0  0
  179.9820  178.4740  144.3960 C   0  0  0  0  0  1  0  0  0  0  0  0
  1  4  1  0  0  0  0
  1  8  2  0  0  0  0
  2  4  1  0  0  0  0
  3  5  1  6  0  0  0
  3  1  1  0  0  0  0
  4  6  1  1  0  0  0
  5 12  1  0  0  0  0
  6  9  1  0  0  0  0
  7 33  1  6  0  0  0
  7  2  1  0  0  0  0
  8 10  1  0  0  0  0
 10  9  1  0  0  0  0
 11 21  1  6  0  0  0
 11  3  1  0  0  0  0
 11  7  1  0  0  0  0
 12 27  1  6  0  0  0
 12 13  1  0  0  0  0
 13  8  1  0  0  0  0
 15 14  1  0  0  0  0
 16 20  1  0  0  0  0
 16 18  1  0  0  0  0
 16 17  1  0  0  0  0
 17 25  1  6  0  0  0
 17 15  1  0  0  0  0
 18 19  1  0  0  0  0
 19 23  1  6  0  0  0
 19 21  1  0  0  0  0
 21 14  1  1  0  0  0
 22 23  1  0  0  0  0
 24 25  1  0  0  0  0
 27 26  2  0  0  0  0
 28 27  1  0  0  0  0
 29 31  1  0  0  0  0
 30 32  2  0  0  0  0
 31 28  2  0  0  0  0
 31 30  1  0  0  0  0
 32 26  1  0  0  0  0
 33 34  1  0  0  0  0
 34 36  1  0  0  0  0
 35 34  2  0  0  0  0
 36 37  1  0  0  0  0
M  END
>  <MODEL>
5

>  <REMARK>
 VINA RESULT:      -6.6      2.770      5.854
  Name = 
  7 active torsions:
  status: ('A' for Active; 'I' for Inactive)
    1  A    between atoms: O_3  and  C_21
    2  A    between atoms: C_6  and  C_31
    3  A    between atoms: C_17  and  C_23
    4  A    between atoms: C_20  and  O_25
    5  A    between atoms: C_21  and  O_25
    6  A    between atoms: C_27  and  C_33
    7  A    between atoms: C_29  and  C_36
                            x       y       z     vdW  Elec       q    Type
                         _______ _______ _______ _____ _____    ______ ____

>  <TORSDO>
F 7

$$$$
=
 OpenBabel10272414493D

 37 41  0  0  1  0  0  0  0  0999 V2000
  187.4420  178.0810  145.7840 C   0  0  0  0  0  0  0  0  0  0  0  0
  188.9800  176.7900  147.0820 O   0  0  0  0  0  0  0  0  0  0  0  0
  188.2400  177.8760  144.5130 C   0  0  2  0  0  3  0  0  0  0  0  0
  188.2280  177.9770  147.0810 C   0  0  2  0  0  3  0  0  0  0  0  0
  187.3440  177.5280  143.3300 C   0  0  0  0  0  2  0  0  0  0  0  0
  187.3400  178.0050  148.3210 C   0  0  0  0  0  2  0  0  0  0  0  0
  189.9780  176.9310  146.0990 C   0  0  2  0  0  3  0  0  0  0  0  0
  186.1690  178.5560  145.7490 C   0  0  0  0  0  0  0  0  0  0  0  0
  186.3120  179.1160  148.1960 C   0  0  0  0  0  2  0  0  0  0  0  0
  185.3960  178.8100  147.0180 C   0  0  0  0  0  2  0  0  0  0  0  0
  189.3490  176.8280  144.6930 C   0  0  2  0  0  3  0  0  0  0  0  0
  186.2610  178.5900  143.2130 C   0  0  2  0  0  3  0  0  0  0  0  0
  185.3790  178.5890  144.4630 C   0  0  0  0  0  2  0  0  0  0  0  0
  190.3560  175.7490  142.5980 C   0  0  0  0  0  2  0  0  0  0  0  0
  189.4800  175.9680  141.3750 C   0  0  0  0  0  2  0  0  0  0  0  0
  190.4510  178.0690  140.4070 N   0  0  0  0  0  0  0  0  0  0  0  0
  190.3190  176.6100  140.2700 C   0  0  2  0  0  3  0  0  0  0  0  0
  191.2010  178.4280  141.6190 C   0  0  0  0  0  2  0  0  0  0  0  0
  190.3610  178.3450  142.9050 C   0  0  1  0  0  3  0  0  0  0  0  0
  189.1570  178.7530  140.3520 C   0  0  0  0  0  1  0  0  0  0  0  0
  190.3820  176.9520  143.5560 C   0  0  1  0  0  3  0  0  0  0  0  0
  192.2750  179.0640  144.3330 C   0  0  0  0  0  1  0  0  0  0  0  0
  190.8560  179.3830  143.9010 C   0  0  0  0  0  2  0  0  0  0  0  0
  190.9400  175.9880  137.9310 C   0  0  0  0  0  1  0  0  0  0  0  0
  189.7910  176.2380  138.8880 C   0  0  0  0  0  2  0  0  0  0  0  0
  184.0830  178.0780  142.1040 C   0  0  0  0  0  3  0  0  0  0  0  0
  185.4420  178.3900  141.9780 C   0  0  0  0  0  0  0  0  0  0  0  0
  186.0100  178.5110  140.7000 C   0  0  0  0  0  3  0  0  0  0  0  0
  185.8290  178.4490  138.2100 C   0  0  0  0  0  1  0  0  0  0  0  0
  183.8670  178.0090  139.6930 C   0  0  0  0  0  3  0  0  0  0  0  0
  185.2230  178.3200  139.5610 C   0  0  0  0  0  0  0  0  0  0  0  0
  183.2970  177.8870  140.9630 C   0  0  0  0  0  3  0  0  0  0  0  0
  190.9550  175.9160  146.2800 O   0  0  0  0  0  0  0  0  0  0  0  0
  191.9690  176.0320  147.2310 C   0  0  0  0  0  0  0  0  0  0  0  0
  192.8840  175.1670  147.2640 O   0  0  0  0  0  0  0  0  0  0  0  0
  191.9690  177.1010  148.1310 O   0  0  0  0  0  0  0  0  0  0  0  0
  192.8430  177.1390  149.2480 C   0  0  0  0  0  1  0  0  0  0  0  0
  1  4  1  0  0  0  0
  3  5  1  6  0  0  0
  3 11  1  0  0  0  0
  3  1  1  0  0  0  0
  4  2  1  0  0  0  0
  4  6  1  1  0  0  0
  7 33  1  1  0  0  0
  7  2  1  0  0  0  0
  8  1  2  0  0  0  0
  8 10  1  0  0  0  0
  9  6  1  0  0  0  0
 10  9  1  0  0  0  0
 11 21  1  6  0  0  0
 11  7  1  0  0  0  0
 12 27  1  6  0  0  0
 12  5  1  0  0  0  0
 12 13  1  0  0  0  0
 13  8  1  0  0  0  0
 15 14  1  0  0  0  0
 16 18  1  0  0  0  0
 17 25  1  6  0  0  0
 17 16  1  0  0  0  0
 17 15  1  0  0  0  0
 18 19  1  0  0  0  0
 19 21  1  0  0  0  0
 19 23  1  1  0  0  0
 20 16  1  0  0  0  0
 21 14  1  6  0  0  0
 23 22  1  0  0  0  0
 24 25  1  0  0  0  0
 27 26  1  0  0  0  0
 28 27  2  0  0  0  0
 29 31  1  0  0  0  0
 30 32  1  0  0  0  0
 31 30  2  0  0  0  0
 31 28  1  0  0  0  0
 32 26  2  0  0  0  0
 33 34  1  0  0  0  0
 34 35  2  0  0  0  0
 34 36  1  0  0  0  0
 36 37  1  0  0  0  0
M  END
>  <MODEL>
6

>  <REMARK>
 VINA RESULT:      -6.4      4.854      9.373
  Name = 
  7 active torsions:
  status: ('A' for Active; 'I' for Inactive)
    1  A    between atoms: O_3  and  C_21
    2  A    between atoms: C_6  and  C_31
    3  A    between atoms: C_17  and  C_23
    4  A    between atoms: C_20  and  O_25
    5  A    between atoms: C_21  and  O_25
    6  A    between atoms: C_27  and  C_33
    7  A    between atoms: C_29  and  C_36
                            x       y       z     vdW  Elec       q    Type
                         _______ _______ _______ _____ _____    ______ ____

>  <TORSDO>
F 7

$$$$
=
 OpenBabel10272414493D

 37 41  0  0  1  0  0  0  0  0999 V2000
  189.5960  177.1780  139.7510 C   0  0  0  0  0  0  0  0  0  0  0  0
  187.5950  178.4860  139.7750 O   0  0  0  0  0  0  0  0  0  0  0  0
  189.2750  176.5910  138.3930 C   0  0  2  0  0  3  0  0  0  0  0  0
  188.4030  177.6500  140.5650 C   0  0  2  0  0  3  0  0  0  0  0  0
  190.4910  176.5850  137.4740 C   0  0  0  0  0  2  0  0  0  0  0  0
  188.8040  178.3990  141.8330 C   0  0  0  0  0  2  0  0  0  0  0  0
  187.0180  177.6800  138.7760 C   0  0  2  0  0  3  0  0  0  0  0  0
  190.8390  177.0690  140.2910 C   0  0  0  0  0  0  0  0  0  0  0  0
  189.9050  177.6410  142.5540 C   0  0  0  0  0  2  0  0  0  0  0  0
  191.1420  177.6060  141.6660 C   0  0  0  0  0  2  0  0  0  0  0  0
  188.0840  177.2980  137.7270 C   0  0  2  0  0  3  0  0  0  0  0  0
  191.6370  175.8870  138.1920 C   0  0  2  0  0  3  0  0  0  0  0  0
  192.0260  176.6620  139.4510 C   0  0  0  0  0  2  0  0  0  0  0  0
  186.9880  175.0750  137.0760 C   0  0  0  0  0  2  0  0  0  0  0  0
  185.4930  175.0820  137.3510 C   0  0  0  0  0  2  0  0  0  0  0  0
  184.5620  175.8520  135.1530 N   0  0  0  0  0  0  0  0  0  0  0  0
  184.7490  174.7140  136.0670 C   0  0  2  0  0  3  0  0  0  0  0  0
  185.8490  176.3460  134.6400 C   0  0  0  0  0  2  0  0  0  0  0  0
  186.6080  177.2290  135.6440 C   0  0  1  0  0  3  0  0  0  0  0  0
  183.7750  176.9290  135.7570 C   0  0  0  0  0  1  0  0  0  0  0  0
  187.5260  176.4290  136.5830 C   0  0  1  0  0  3  0  0  0  0  0  0
  188.6990  177.6380  134.3470 C   0  0  0  0  0  1  0  0  0  0  0  0
  187.4280  178.2650  134.8880 C   0  0  0  0  0  2  0  0  0  0  0  0
  183.6390  172.5990  136.7980 C   0  0  0  0  0  1  0  0  0  0  0  0
  183.4180  174.0380  136.3740 C   0  0  0  0  0  2  0  0  0  0  0  0
  192.7280  176.1620  135.9620 C   0  0  0  0  0  3  0  0  0  0  0  0
  192.8130  175.7120  137.2850 C   0  0  0  0  0  0  0  0  0  0  0  0
  193.9970  175.1070  137.7360 C   0  0  0  0  0  3  0  0  0  0  0  0
  196.3340  174.3140  137.3510 C   0  0  0  0  0  1  0  0  0  0  0  0
  194.9920  175.4070  135.5490 C   0  0  0  0  0  3  0  0  0  0  0  0
  195.0820  174.9550  136.8690 C   0  0  0  0  0  0  0  0  0  0  0  0
  193.8140  176.0100  135.0960 C   0  0  0  0  0  3  0  0  0  0  0  0
  185.9520  178.3920  138.1620 O   0  0  0  0  0  0  0  0  0  0  0  0
  184.7850  178.7110  138.8560 C   0  0  0  0  0  0  0  0  0  0  0  0
  184.5360  179.9170  139.1180 O   0  0  0  0  0  0  0  0  0  0  0  0
  183.9020  177.7020  139.2490 O   0  0  0  0  0  0  0  0  0  0  0  0
  182.8210  177.9540  140.1320 C   0  0  0  0  0  1  0  0  0  0  0  0
  1  8  2  0  0  0  0
  1  4  1  0  0  0  0
  2  4  1  0  0  0  0
  3  5  1  6  0  0  0
  3  1  1  0  0  0  0
  4  6  1  1  0  0  0
  5 12  1  0  0  0  0
  6  9  1  0  0  0  0
  7 33  1  6  0  0  0
  7  2  1  0  0  0  0
  8 10  1  0  0  0  0
 10  9  1  0  0  0  0
 11 21  1  6  0  0  0
 11  3  1  0  0  0  0
 11  7  1  0  0  0  0
 12 27  1  6  0  0  0
 12 13  1  0  0  0  0
 13  8  1  0  0  0  0
 14 15  1  0  0  0  0
 16 20  1  0  0  0  0
 16 17  1  0  0  0  0
 17 25  1  1  0  0  0
 17 15  1  0  0  0  0
 18 16  1  0  0  0  0
 18 19  1  0  0  0  0
 19 23  1  6  0  0  0
 19 21  1  0  0  0  0
 21 14  1  1  0  0  0
 22 23  1  0  0  0  0
 25 24  1  0  0  0  0
 26 27  1  0  0  0  0
 27 28  2  0  0  0  0
 30 31  2  0  0  0  0
 31 29  1  0  0  0  0
 31 28  1  0  0  0  0
 32 30  1  0  0  0  0
 32 26  2  0  0  0  0
 33 34  1  0  0  0  0
 34 35  2  0  0  0  0
 34 36  1  0  0  0  0
 36 37  1  0  0  0  0
M  END
>  <MODEL>
7

>  <REMARK>
 VINA RESULT:      -6.4      3.624      7.696
  Name = 
  7 active torsions:
  status: ('A' for Active; 'I' for Inactive)
    1  A    between atoms: O_3  and  C_21
    2  A    between atoms: C_6  and  C_31
    3  A    between atoms: C_17  and  C_23
    4  A    between atoms: C_20  and  O_25
    5  A    between atoms: C_21  and  O_25
    6  A    between atoms: C_27  and  C_33
    7  A    between atoms: C_29  and  C_36
                            x       y       z     vdW  Elec       q    Type
                         _______ _______ _______ _____ _____    ______ ____

>  <TORSDO>
F 7

$$$$
=
 OpenBabel10272414493D

 37 41  0  0  1  0  0  0  0  0999 V2000
  185.6750  178.5030  142.2340 C   0  0  0  0  0  0  0  0  0  0  0  0
  187.4540  177.1130  143.0210 O   0  0  0  0  0  0  0  0  0  0  0  0
  186.2770  178.6010  140.8470 C   0  0  2  0  0  3  0  0  0  0  0  0
  186.6550  178.2180  143.3590 C   0  0  2  0  0  3  0  0  0  0  0  0
  185.2270  178.4130  139.7570 C   0  0  0  0  0  2  0  0  0  0  0  0
  185.9680  177.9460  144.6940 C   0  0  0  0  0  2  0  0  0  0  0  0
  188.2810  177.5100  141.9540 C   0  0  2  0  0  3  0  0  0  0  0  0
  184.3910  178.8780  142.4730 C   0  0  0  0  0  0  0  0  0  0  0  0
  184.8820  178.9790  144.9370 C   0  0  0  0  0  2  0  0  0  0  0  0
  183.8110  178.8310  143.8640 C   0  0  0  0  0  2  0  0  0  0  0  0
  187.4490  177.6250  140.6580 C   0  0  2  0  0  3  0  0  0  0  0  0
  184.0900  179.3930  140.0070 C   0  0  2  0  0  3  0  0  0  0  0  0
  183.4120  179.0920  141.3430 C   0  0  0  0  0  2  0  0  0  0  0  0
  189.7310  178.4170  139.8030 C   0  0  0  0  0  2  0  0  0  0  0  0
  190.7120  177.2630  139.6680 C   0  0  0  0  0  2  0  0  0  0  0  0
  190.3800  176.5750  137.2780 N   0  0  0  0  0  0  0  0  0  0  0  0
  191.2660  177.2470  138.2420 C   0  0  2  0  0  3  0  0  0  0  0  0
  189.1140  177.3050  137.1150 C   0  0  0  0  0  2  0  0  0  0  0  0
  188.1160  177.0610  138.2590 C   0  0  1  0  0  3  0  0  0  0  0  0
  190.1510  175.1690  137.6160 C   0  0  0  0  0  1  0  0  0  0  0  0
  188.2870  178.0380  139.4330 C   0  0  1  0  0  3  0  0  0  0  0  0
  186.6650  177.9880  136.4540 C   0  0  0  0  0  1  0  0  0  0  0  0
  186.6960  177.1520  137.7200 C   0  0  0  0  0  2  0  0  0  0  0  0
  193.3960  176.9130  139.5040 C   0  0  0  0  0  1  0  0  0  0  0  0
  192.6680  176.6490  138.2010 C   0  0  0  0  0  2  0  0  0  0  0  0
  183.0310  178.2350  138.0640 C   0  0  0  0  0  3  0  0  0  0  0  0
  183.1010  179.3670  138.8850 C   0  0  0  0  0  0  0  0  0  0  0  0
  182.2440  180.4520  138.6440 C   0  0  0  0  0  3  0  0  0  0  0  0
  180.4230  181.5540  137.3380 C   0  0  0  0  0  1  0  0  0  0  0  0
  181.2630  179.2690  136.7730 C   0  0  0  0  0  3  0  0  0  0  0  0
  181.3280  180.4020  137.5900 C   0  0  0  0  0  0  0  0  0  0  0  0
  182.1150  178.1870  137.0100 C   0  0  0  0  0  3  0  0  0  0  0  0
  189.3210  176.5560  141.7910 O   0  0  0  0  0  0  0  0  0  0  0  0
  190.1470  176.1820  142.8500 C   0  0  0  0  0  0  0  0  0  0  0  0
  190.4820  174.9740  142.9710 O   0  0  0  0  0  0  0  0  0  0  0  0
  190.6000  177.1380  143.7620 O   0  0  0  0  0  0  0  0  0  0  0  0
  191.6070  178.0780  143.4240 C   0  0  0  0  0  1  0  0  0  0  0  0
  1  8  2  0  0  0  0
  1  4  1  0  0  0  0
  2  4  1  0  0  0  0
  3  5  1  6  0  0  0
  3  1  1  0  0  0  0
  4  6  1  1  0  0  0
  5 12  1  0  0  0  0
  6  9  1  0  0  0  0
  7 33  1  6  0  0  0
  7  2  1  0  0  0  0
  8 10  1  0  0  0  0
 10  9  1  0  0  0  0
 11 21  1  6  0  0  0
 11  3  1  0  0  0  0
 11  7  1  0  0  0  0
 12 27  1  6  0  0  0
 12 13  1  0  0  0  0
 13  8  1  0  0  0  0
 15 14  1  0  0  0  0
 16 20  1  0  0  0  0
 16 17  1  0  0  0  0
 17 25  1  1  0  0  0
 17 15  1  0  0  0  0
 18 16  1  0  0  0  0
 18 19  1  0  0  0  0
 19 23  1  6  0  0  0
 19 21  1  0  0  0  0
 21 14  1  1  0  0  0
 22 23  1  0  0  0  0
 25 24  1  0  0  0  0
 26 27  1  0  0  0  0
 28 27  2  0  0  0  0
 29 31  1  0  0  0  0
 30 32  1  0  0  0  0
 30 31  2  0  0  0  0
 31 28  1  0  0  0  0
 32 26  2  0  0  0  0
 33 34  1  0  0  0  0
 34 35  2  0  0  0  0
 34 36  1  0  0  0  0
 37 36  1  0  0  0  0
M  END
>  <MODEL>
8

>  <REMARK>
 VINA RESULT:      -6.4      3.342      8.146
  Name = 
  7 active torsions:
  status: ('A' for Active; 'I' for Inactive)
    1  A    between atoms: O_3  and  C_21
    2  A    between atoms: C_6  and  C_31
    3  A    between atoms: C_17  and  C_23
    4  A    between atoms: C_20  and  O_25
    5  A    between atoms: C_21  and  O_25
    6  A    between atoms: C_27  and  C_33
    7  A    between atoms: C_29  and  C_36
                            x       y       z     vdW  Elec       q    Type
                         _______ _______ _______ _____ _____    ______ ____

>  <TORSDO>
F 7

$$$$
=
 OpenBabel10272414493D

 37 41  0  0  1  0  0  0  0  0999 V2000
  186.2270  178.4600  140.1770 C   0  0  0  0  0  0  0  0  0  0  0  0
  185.6210  177.8840  142.4170 O   0  0  0  0  0  0  0  0  0  0  0  0
  187.7070  178.3460  140.4780 C   0  0  2  0  0  3  0  0  0  0  0  0
  185.3340  178.7710  141.3660 C   0  0  2  0  0  3  0  0  0  0  0  0
  188.4530  177.5900  139.3850 C   0  0  0  0  0  2  0  0  0  0  0  0
  183.8470  178.6860  141.0340 C   0  0  0  0  0  2  0  0  0  0  0  0
  186.9130  178.1950  142.8810 C   0  0  2  0  0  3  0  0  0  0  0  0
  185.7690  178.5120  138.8980 C   0  0  0  0  0  0  0  0  0  0  0  0
  183.5670  179.4020  139.7240 C   0  0  0  0  0  2  0  0  0  0  0  0
  184.3010  178.6790  138.6020 C   0  0  0  0  0  2  0  0  0  0  0  0
  187.9680  177.7220  141.8580 C   0  0  2  0  0  3  0  0  0  0  0  0
  188.1450  178.2430  138.0460 C   0  0  2  0  0  3  0  0  0  0  0  0
  186.6520  178.1340  137.7320 C   0  0  0  0  0  2  0  0  0  0  0  0
  189.4950  178.5990  143.7190 C   0  0  0  0  0  2  0  0  0  0  0  0
  189.7250  177.5530  144.7980 C   0  0  0  0  0  2  0  0  0  0  0  0
  191.8250  176.4360  144.0000 N   0  0  0  0  0  0  0  0  0  0  0  0
  191.2300  177.3540  144.9850 C   0  0  2  0  0  3  0  0  0  0  0  0
  191.7470  176.9850  142.6390 C   0  0  0  0  0  2  0  0  0  0  0  0
  190.3580  176.8330  141.9970 C   0  0  1  0  0  3  0  0  0  0  0  0
  191.2480  175.0920  144.0720 C   0  0  0  0  0  1  0  0  0  0  0  0
  189.4150  178.0090  142.3010 C   0  0  1  0  0  3  0  0  0  0  0  0
  191.8180  177.2880  140.0270 C   0  0  0  0  0  1  0  0  0  0  0  0
  190.5100  176.6760  140.4910 C   0  0  0  0  0  2  0  0  0  0  0  0
  190.3060  176.9140  147.2640 C   0  0  0  0  0  1  0  0  0  0  0  0
  191.5570  176.9140  146.4070 C   0  0  0  0  0  2  0  0  0  0  0  0
  188.5810  177.8390  135.6210 C   0  0  0  0  0  3  0  0  0  0  0  0
  188.9680  177.6430  136.9520 C   0  0  0  0  0  0  0  0  0  0  0  0
  190.1190  176.8910  137.2350 C   0  0  0  0  0  3  0  0  0  0  0  0
  192.0900  175.5450  136.4990 C   0  0  0  0  0  1  0  0  0  0  0  0
  190.4810  176.5390  134.8670 C   0  0  0  0  0  3  0  0  0  0  0  0
  190.8720  176.3410  136.1940 C   0  0  0  0  0  0  0  0  0  0  0  0
  189.3350  177.2880  134.5800 C   0  0  0  0  0  3  0  0  0  0  0  0
  187.1220  177.5620  144.1350 O   0  0  0  0  0  0  0  0  0  0  0  0
  186.4000  177.9260  145.2720 C   0  0  0  0  0  0  0  0  0  0  0  0
  186.5790  177.2890  146.3440 O   0  0  0  0  0  0  0  0  0  0  0  0
  185.4950  178.9890  145.2200 O   0  0  0  0  0  0  0  0  0  0  0  0
  184.0950  178.7880  145.3320 C   0  0  0  0  0  1  0  0  0  0  0  0
  1  3  1  0  0  0  0
  1  4  1  0  0  0  0
  2  7  1  0  0  0  0
  3  5  1  6  0  0  0
  3 11  1  0  0  0  0
  4  6  1  6  0  0  0
  4  2  1  0  0  0  0
  7 33  1  1  0  0  0
  8  1  2  0  0  0  0
  9  6  1  0  0  0  0
 10  8  1  0  0  0  0
 10  9  1  0  0  0  0
 11 21  1  1  0  0  0
 11  7  1  0  0  0  0
 12 27  1  6  0  0  0
 12  5  1  0  0  0  0
 13 12  1  0  0  0  0
 13  8  1  0  0  0  0
 14 15  1  0  0  0  0
 15 17  1  0  0  0  0
 16 20  1  0  0  0  0
 16 17  1  0  0  0  0
 17 25  1  1  0  0  0
 18 16  1  0  0  0  0
 19 23  1  6  0  0  0
 19 21  1  0  0  0  0
 19 18  1  0  0  0  0
 21 14  1  1  0  0  0
 22 23  1  0  0  0  0
 25 24  1  0  0  0  0
 26 27  1  0  0  0  0
 27 28  2  0  0  0  0
 30 31  2  0  0  0  0
 31 29  1  0  0  0  0
 31 28  1  0  0  0  0
 32 30  1  0  0  0  0
 32 26  2  0  0  0  0
 33 34  1  0  0  0  0
 34 35  2  0  0  0  0
 36 34  1  0  0  0  0
 36 37  1  0  0  0  0
M  END
>  <MODEL>
9

>  <REMARK>
 VINA RESULT:      -6.4      4.020      9.326
  Name = 
  7 active torsions:
  status: ('A' for Active; 'I' for Inactive)
    1  A    between atoms: O_3  and  C_21
    2  A    between atoms: C_6  and  C_31
    3  A    between atoms: C_17  and  C_23
    4  A    between atoms: C_20  and  O_25
    5  A    between atoms: C_21  and  O_25
    6  A    between atoms: C_27  and  C_33
    7  A    between atoms: C_29  and  C_36
                            x       y       z     vdW  Elec       q    Type
                         _______ _______ _______ _____ _____    ______ ____

>  <TORSDO>
F 7

$$$$
