=
 OpenBabel10272415003D

 37 41  0  0  1  0  0  0  0  0999 V2000
  182.5830  174.4110  135.1000 C   0  0  0  0  0  2  0  0  0  0  0  0
  184.6710  177.6370  137.4900 C   0  0  2  0  0  3  0  0  0  0  0  0
  181.2180  173.9750  134.5930 C   0  0  2  0  0  3  0  0  0  0  0  0
  181.6810  176.0440  139.5840 C   0  0  0  0  0  2  0  0  0  0  0  0
  183.3760  176.9090  137.8830 C   0  0  2  0  0  3  0  0  0  0  0  0
  185.6760  176.5680  137.1160 C   0  0  1  0  0  3  0  0  0  0  0  0
  183.0060  176.8030  139.3880 C   0  0  1  0  0  3  0  0  0  0  0  0
  180.2010  174.4580  135.6170 C   0  0  0  0  0  2  0  0  0  0  0  0
  184.8410  175.3900  136.6320 C   0  0  2  0  0  3  0  0  0  0  0  0
  184.2890  179.8000  138.7580 C   0  0  0  0  0  2  0  0  0  0  0  0
  180.9870  174.9170  136.8440 C   0  0  2  0  0  0  0  0  0  0  0  0
  180.5660  176.5740  138.7270 C   0  0  0  0  0  3  0  0  0  0  0  0
  185.2390  178.6260  138.5050 C   0  0  0  0  0  2  0  0  0  0  0  0
  183.4500  175.5260  137.2480 C   0  0  2  0  0  3  0  0  0  0  0  0
  183.0630  178.1360  140.1880 C   0  0  1  0  0  3  0  0  0  0  0  0
  180.2670  176.0730  137.5170 C   0  0  0  0  0  3  0  0  0  0  0  0
  182.3060  175.3860  136.2310 C   0  0  1  0  0  3  0  0  0  0  0  0
  182.9270  179.3730  139.3110 C   0  0  0  0  0  2  0  0  0  0  0  0
  181.2320  173.8270  137.7280 O   0  0  0  0  0  0  0  0  0  0  0  0
  180.0440  173.1010  137.9430 C   0  0  0  0  0  1  0  0  0  0  0  0
  182.4250  171.8390  135.0410 C   0  0  0  0  0  1  0  0  0  0  0  0
  181.1570  172.4600  134.4880 C   0  0  0  0  0  2  0  0  0  0  0  0
  185.4540  174.0280  136.9800 C   0  0  1  0  0  3  0  0  0  0  0  0
  184.5120  173.2220  137.8580 C   0  0  0  0  0  1  0  0  0  0  0  0
  185.8600  173.2350  135.7400 C   0  0  0  0  0  2  0  0  0  0  0  0
  187.3670  173.0450  135.6810 C   0  0  0  0  0  2  0  0  0  0  0  0
  187.9000  173.0170  136.9700 O   0  0  0  0  0  1  0  0  0  0  0  0
  182.1490  178.2210  141.4080 C   0  0  0  0  0  2  0  0  0  0  0  0
  182.4980  179.0820  143.7100 C   0  0  0  0  0  2  0  0  0  0  0  0
  184.4180  178.3180  142.4590 C   0  0  0  0  0  2  0  0  0  0  0  0
  185.8940  178.4050  144.3300 O   0  0  0  0  0  1  0  0  0  0  0  0
  183.7210  179.3450  144.5590 C   0  0  0  0  0  2  0  0  0  0  0  0
  184.9120  179.1240  143.6490 C   0  0  2  0  0  3  0  0  0  0  0  0
  182.9420  178.0560  142.6950 C   0  0  2  0  0  3  0  0  0  0  0  0
  186.5770  177.0510  135.9890 C   0  0  0  0  0  2  0  0  0  0  0  0
  188.0190  176.6740  136.2620 C   0  0  0  0  0  2  0  0  0  0  0  0
  188.2170  176.4840  137.7500 C   0  0  0  0  0  1  0  0  0  0  0  0
  1 17  1  0  0  0  0
  2  5  1  0  0  0  0
  2 13  1  1  0  0  0
  3 22  1  1  0  0  0
  3  1  1  0  0  0  0
  3  8  1  0  0  0  0
  5  7  1  0  0  0  0
  6  2  1  0  0  0  0
  7  4  1  0  0  0  0
  7 15  1  0  0  0  0
  8 11  1  0  0  0  0
  9 23  1  0  0  0  0
  9  6  1  0  0  0  0
  9 14  1  0  0  0  0
 10 18  1  0  0  0  0
 11 16  1  0  0  0  0
 11 19  1  0  0  0  0
 12  4  1  0  0  0  0
 13 10  1  0  0  0  0
 14  5  1  0  0  0  0
 15 28  1  0  0  0  0
 16 12  2  0  0  0  0
 17 11  1  0  0  0  0
 17 14  1  0  0  0  0
 18 15  1  0  0  0  0
 19 20  1  0  0  0  0
 22 21  1  0  0  0  0
 23 24  1  0  0  0  0
 25 23  1  0  0  0  0
 26 25  1  0  0  0  0
 26 27  1  0  0  0  0
 28 34  1  0  0  0  0
 29 32  1  0  0  0  0
 30 34  1  0  0  0  0
 30 33  1  0  0  0  0
 33 31  1  0  0  0  0
 33 32  1  0  0  0  0
 34 29  1  0  0  0  0
 35 36  1  0  0  0  0
 35  6  1  0  0  0  0
 36 37  1  0  0  0  0
M  END
>  <MODEL>
1

>  <REMARK>
 VINA RESULT:      -5.1      0.000      0.000
  Name = 
  9 active torsions:
  status: ('A' for Active; 'I' for Inactive)
    1  A    between atoms: C_3  and  C_32
    2  A    between atoms: C_5  and  C_23
    3  A    between atoms: C_6  and  C_31
    4  A    between atoms: C_6  and  C_35
    5  A    between atoms: C_9  and  C_13
    6  A    between atoms: C_9  and  C_16
    7  A    between atoms: O_11  and  C_26
    8  A    between atoms: C_20  and  C_21
    9  A    between atoms: C_21  and  C_32
                            x       y       z     vdW  Elec       q    Type
                         _______ _______ _______ _____ _____    ______ ____

>  <TORSDO>
F 9

$$$$
=
 OpenBabel10272415003D

 37 41  0  0  1  0  0  0  0  0999 V2000
  189.6280  178.7260  144.0330 C   0  0  0  0  0  2  0  0  0  0  0  0
  187.3750  178.6590  140.1080 C   0  0  2  0  0  3  0  0  0  0  0  0
  191.0180  178.8850  144.6260 C   0  0  2  0  0  3  0  0  0  0  0  0
  190.3670  176.0290  140.0610 C   0  0  0  0  0  2  0  0  0  0  0  0
  188.6850  177.9160  140.4180 C   0  0  2  0  0  3  0  0  0  0  0  0
  186.4160  178.3400  141.2360 C   0  0  1  0  0  3  0  0  0  0  0  0
  189.0220  176.6300  139.6140 C   0  0  1  0  0  3  0  0  0  0  0  0
  191.9930  178.3330  143.5960 C   0  0  0  0  0  2  0  0  0  0  0  0
  187.3010  178.0490  142.4400 C   0  0  2  0  0  3  0  0  0  0  0  0
  187.6540  178.8860  137.5980 C   0  0  0  0  0  2  0  0  0  0  0  0
  191.1640  177.6020  142.5420 C   0  0  2  0  0  0  0  0  0  0  0  0
  191.4830  177.0350  140.0830 C   0  0  0  0  0  3  0  0  0  0  0  0
  186.7500  178.4080  138.7380 C   0  0  0  0  0  2  0  0  0  0  0  0
  188.6720  177.6270  141.9140 C   0  0  2  0  0  3  0  0  0  0  0  0
  188.9010  176.7550  138.0680 C   0  0  1  0  0  3  0  0  0  0  0  0
  191.8270  177.7280  141.1810 C   0  0  0  0  0  3  0  0  0  0  0  0
  189.8440  178.3740  142.5720 C   0  0  1  0  0  3  0  0  0  0  0  0
  189.0160  178.1890  137.5670 C   0  0  0  0  0  2  0  0  0  0  0  0
  190.9340  176.2490  142.9240 O   0  0  0  0  0  0  0  0  0  0  0  0
  192.0220  175.7680  143.6790 C   0  0  0  0  0  1  0  0  0  0  0  0
  189.8140  177.4140  146.2400 C   0  0  0  0  0  1  0  0  0  0  0  0
  191.1330  178.0890  145.9150 C   0  0  0  0  0  2  0  0  0  0  0  0
  186.7270  176.9730  143.3690 C   0  0  1  0  0  3  0  0  0  0  0  0
  187.6870  175.8030  143.4980 C   0  0  0  0  0  1  0  0  0  0  0  0
  186.3510  177.5260  144.7430 C   0  0  0  0  0  2  0  0  0  0  0  0
  185.1040  178.3900  144.6630 C   0  0  0  0  0  2  0  0  0  0  0  0
  184.8170  178.9390  145.9130 O   0  0  0  0  0  1  0  0  0  0  0  0
  189.7820  175.8130  137.2520 C   0  0  0  0  0  2  0  0  0  0  0  0
  187.4830  174.9600  136.8640 C   0  0  0  0  0  2  0  0  0  0  0  0
  189.3040  173.3760  136.9440 C   0  0  0  0  0  2  0  0  0  0  0  0
  187.9820  171.5490  136.1690 O   0  0  0  0  0  1  0  0  0  0  0  0
  186.8820  173.5800  136.7380 C   0  0  0  0  0  2  0  0  0  0  0  0
  187.9970  172.6100  137.0730 C   0  0  2  0  0  3  0  0  0  0  0  0
  188.9410  174.7840  136.5120 C   0  0  2  0  0  3  0  0  0  0  0  0
  185.5270  179.5380  141.5360 C   0  0  0  0  0  2  0  0  0  0  0  0
  184.0890  179.2390  141.1630 C   0  0  0  0  0  2  0  0  0  0  0  0
  183.8940  177.7420  141.0650 C   0  0  0  0  0  1  0  0  0  0  0  0
  1  3  1  0  0  0  0
  2 13  1  6  0  0  0
  2  5  1  0  0  0  0
  2  6  1  0  0  0  0
  3 22  1  1  0  0  0
  4 12  1  0  0  0  0
  5 14  1  0  0  0  0
  6 35  1  0  0  0  0
  6  9  1  0  0  0  0
  7  4  1  0  0  0  0
  7  5  1  0  0  0  0
  8  3  1  0  0  0  0
  9 23  1  0  0  0  0
 10 13  1  0  0  0  0
 11 17  1  0  0  0  0
 11 19  1  0  0  0  0
 11  8  1  0  0  0  0
 12 16  2  0  0  0  0
 14  9  1  0  0  0  0
 14 17  1  0  0  0  0
 15  7  1  0  0  0  0
 16 11  1  0  0  0  0
 17  1  1  0  0  0  0
 18 10  1  0  0  0  0
 18 15  1  0  0  0  0
 19 20  1  0  0  0  0
 22 21  1  0  0  0  0
 23 24  1  0  0  0  0
 23 25  1  0  0  0  0
 26 25  1  0  0  0  0
 26 27  1  0  0  0  0
 28 15  1  0  0  0  0
 30 33  1  0  0  0  0
 31 33  1  0  0  0  0
 32 29  1  0  0  0  0
 32 33  1  0  0  0  0
 34 29  1  0  0  0  0
 34 30  1  0  0  0  0
 34 28  1  0  0  0  0
 36 35  1  0  0  0  0
 37 36  1  0  0  0  0
M  END
>  <MODEL>
2

>  <REMARK>
 VINA RESULT:      -4.9      3.746      9.694
  Name = 
  9 active torsions:
  status: ('A' for Active; 'I' for Inactive)
    1  A    between atoms: C_3  and  C_32
    2  A    between atoms: C_5  and  C_23
    3  A    between atoms: C_6  and  C_31
    4  A    between atoms: C_6  and  C_35
    5  A    between atoms: C_9  and  C_13
    6  A    between atoms: C_9  and  C_16
    7  A    between atoms: O_11  and  C_26
    8  A    between atoms: C_20  and  C_21
    9  A    between atoms: C_21  and  C_32
                            x       y       z     vdW  Elec       q    Type
                         _______ _______ _______ _____ _____    ______ ____

>  <TORSDO>
F 9

$$$$
=
 OpenBabel10272415003D

 37 41  0  0  1  0  0  0  0  0999 V2000
  189.5320  178.7350  144.3190 C   0  0  0  0  0  2  0  0  0  0  0  0
  187.6350  178.6150  140.2110 C   0  0  2  0  0  3  0  0  0  0  0  0
  190.8660  178.8930  145.0300 C   0  0  2  0  0  3  0  0  0  0  0  0
  190.5900  175.9570  140.4780 C   0  0  0  0  0  2  0  0  0  0  0  0
  188.9040  177.8660  140.6490 C   0  0  2  0  0  3  0  0  0  0  0  0
  186.5770  178.3270  141.2550 C   0  0  1  0  0  3  0  0  0  0  0  0
  189.2970  176.5620  139.9020 C   0  0  1  0  0  3  0  0  0  0  0  0
  191.9230  178.3120  144.1000 C   0  0  0  0  0  2  0  0  0  0  0  0
  187.3480  178.0500  142.5380 C   0  0  2  0  0  3  0  0  0  0  0  0
  188.1380  178.7920  137.7320 C   0  0  0  0  0  2  0  0  0  0  0  0
  191.1810  177.5690  142.9900 C   0  0  2  0  0  0  0  0  0  0  0  0
  191.7110  176.9520  140.5800 C   0  0  0  0  0  3  0  0  0  0  0  0
  187.1310  178.3440  138.7950 C   0  0  0  0  0  2  0  0  0  0  0  0
  188.7550  177.6050  142.1430 C   0  0  2  0  0  3  0  0  0  0  0  0
  189.3140  176.6590  138.3500 C   0  0  1  0  0  3  0  0  0  0  0  0
  191.9640  177.6620  141.6920 C   0  0  0  0  0  3  0  0  0  0  0  0
  189.8730  178.3540  142.8890 C   0  0  1  0  0  3  0  0  0  0  0  0
  189.4890  178.0810  137.8340 C   0  0  0  0  0  2  0  0  0  0  0  0
  190.9040  176.2260  143.3740 O   0  0  0  0  0  0  0  0  0  0  0  0
  191.9890  175.6960  144.1000 C   0  0  0  0  0  1  0  0  0  0  0  0
  189.5730  177.3260  146.4760 C   0  0  0  0  0  1  0  0  0  0  0  0
  190.8570  178.1200  146.3380 C   0  0  0  0  0  2  0  0  0  0  0  0
  186.6820  176.9980  143.4320 C   0  0  1  0  0  3  0  0  0  0  0  0
  187.5840  175.7870  143.6040 C   0  0  0  0  0  1  0  0  0  0  0  0
  186.2610  177.5630  144.7880 C   0  0  0  0  0  2  0  0  0  0  0  0
  185.0090  178.4140  144.6610 C   0  0  0  0  0  2  0  0  0  0  0  0
  184.5690  178.8150  145.9220 O   0  0  0  0  0  1  0  0  0  0  0  0
  190.2540  175.6920  137.6320 C   0  0  0  0  0  2  0  0  0  0  0  0
  191.3350  175.9720  135.4140 C   0  0  0  0  0  2  0  0  0  0  0  0
  192.7010  176.1600  137.3970 C   0  0  0  0  0  2  0  0  0  0  0  0
  194.6070  176.9770  136.2200 O   0  0  0  0  0  1  0  0  0  0  0  0
  192.7630  176.1630  134.9590 C   0  0  0  0  0  2  0  0  0  0  0  0
  193.6190  175.9940  136.1970 C   0  0  2  0  0  3  0  0  0  0  0  0
  191.3160  176.4470  136.8480 C   0  0  2  0  0  3  0  0  0  0  0  0
  185.6780  179.5380  141.4530 C   0  0  0  0  0  2  0  0  0  0  0  0
  184.3270  179.3100  140.8050 C   0  0  0  0  0  2  0  0  0  0  0  0
  183.7230  178.0280  141.3360 C   0  0  0  0  0  1  0  0  0  0  0  0
  1  3  1  0  0  0  0
  2 13  1  6  0  0  0
  2  5  1  0  0  0  0
  2  6  1  0  0  0  0
  3 22  1  1  0  0  0
  4 12  1  0  0  0  0
  5 14  1  0  0  0  0
  6 35  1  0  0  0  0
  6  9  1  0  0  0  0
  7  4  1  0  0  0  0
  7  5  1  0  0  0  0
  8  3  1  0  0  0  0
  9 23  1  0  0  0  0
 10 18  1  0  0  0  0
 10 13  1  0  0  0  0
 11 19  1  0  0  0  0
 11  8  1  0  0  0  0
 12 16  2  0  0  0  0
 14  9  1  0  0  0  0
 14 17  1  0  0  0  0
 15  7  1  0  0  0  0
 16 11  1  0  0  0  0
 17 11  1  0  0  0  0
 17  1  1  0  0  0  0
 18 15  1  0  0  0  0
 19 20  1  0  0  0  0
 22 21  1  0  0  0  0
 23 24  1  0  0  0  0
 23 25  1  0  0  0  0
 26 25  1  0  0  0  0
 26 27  1  0  0  0  0
 28 15  1  0  0  0  0
 29 34  1  0  0  0  0
 32 29  1  0  0  0  0
 32 33  1  0  0  0  0
 33 31  1  0  0  0  0
 33 30  1  0  0  0  0
 34 30  1  0  0  0  0
 34 28  1  0  0  0  0
 36 37  1  0  0  0  0
 36 35  1  0  0  0  0
M  END
>  <MODEL>
3

>  <REMARK>
 VINA RESULT:      -4.9      4.988     10.174
  Name = 
  9 active torsions:
  status: ('A' for Active; 'I' for Inactive)
    1  A    between atoms: C_3  and  C_32
    2  A    between atoms: C_5  and  C_23
    3  A    between atoms: C_6  and  C_31
    4  A    between atoms: C_6  and  C_35
    5  A    between atoms: C_9  and  C_13
    6  A    between atoms: C_9  and  C_16
    7  A    between atoms: O_11  and  C_26
    8  A    between atoms: C_20  and  C_21
    9  A    between atoms: C_21  and  C_32
                            x       y       z     vdW  Elec       q    Type
                         _______ _______ _______ _____ _____    ______ ____

>  <TORSDO>
F 9

$$$$
=
 OpenBabel10272415003D

 37 41  0  0  1  0  0  0  0  0999 V2000
  187.5630  176.2680  134.8050 C   0  0  0  0  0  2  0  0  0  0  0  0
  191.3990  175.1940  136.9540 C   0  0  2  0  0  3  0  0  0  0  0  0
  186.6970  177.4480  134.3960 C   0  0  2  0  0  3  0  0  0  0  0  0
  189.0600  177.4300  139.2770 C   0  0  0  0  0  2  0  0  0  0  0  0
  190.3230  176.1740  137.4480 C   0  0  2  0  0  3  0  0  0  0  0  0
  190.6790  173.9220  136.5570 C   0  0  1  0  0  3  0  0  0  0  0  0
  190.1840  176.4220  138.9760 C   0  0  1  0  0  3  0  0  0  0  0  0
  186.8890  178.5170  135.4620 C   0  0  0  0  0  2  0  0  0  0  0  0
  189.2760  174.3640  136.1650 C   0  0  2  0  0  3  0  0  0  0  0  0
  193.3950  176.1790  138.1680 C   0  0  0  0  0  2  0  0  0  0  0  0
  187.6330  177.8600  136.6240 C   0  0  2  0  0  0  0  0  0  0  0  0
  189.1700  178.6930  138.4710 C   0  0  0  0  0  3  0  0  0  0  0  0
  192.5660  174.9200  137.8990 C   0  0  0  0  0  2  0  0  0  0  0  0
  189.0020  175.6970  136.8580 C   0  0  2  0  0  3  0  0  0  0  0  0
  191.5070  176.7500  139.7250 C   0  0  1  0  0  3  0  0  0  0  0  0
  188.5400  178.8750  137.2990 C   0  0  0  0  0  3  0  0  0  0  0  0
  188.4600  176.7850  135.9160 C   0  0  1  0  0  3  0  0  0  0  0  0
  192.5930  177.3100  138.8160 C   0  0  0  0  0  2  0  0  0  0  0  0
  186.7220  177.2430  137.5280 O   0  0  0  0  0  0  0  0  0  0  0  0
  185.6450  178.1100  137.7960 C   0  0  0  0  0  1  0  0  0  0  0  0
  185.1130  175.5220  134.3460 C   0  0  0  0  0  1  0  0  0  0  0  0
  185.2360  177.0340  134.3460 C   0  0  0  0  0  2  0  0  0  0  0  0
  188.1940  173.3390  136.5210 C   0  0  1  0  0  3  0  0  0  0  0  0
  187.0680  173.9930  137.3040 C   0  0  0  0  0  1  0  0  0  0  0  0
  187.6530  172.6070  135.2940 C   0  0  0  0  0  2  0  0  0  0  0  0
  186.1750  172.2910  135.4530 C   0  0  0  0  0  2  0  0  0  0  0  0
  185.9320  170.9540  135.1360 O   0  0  0  0  0  1  0  0  0  0  0  0
  191.3640  177.5870  140.9940 C   0  0  0  0  0  2  0  0  0  0  0  0
  189.7370  176.6000  142.5890 C   0  0  0  0  0  2  0  0  0  0  0  0
  191.8920  177.3000  143.4240 C   0  0  0  0  0  2  0  0  0  0  0  0
  191.5920  176.2870  145.5600 O   0  0  0  0  0  1  0  0  0  0  0  0
  189.7300  176.3880  144.0850 C   0  0  0  0  0  2  0  0  0  0  0  0
  190.9660  177.0910  144.6090 C   0  0  2  0  0  3  0  0  0  0  0  0
  191.1970  176.6980  142.2170 C   0  0  2  0  0  3  0  0  0  0  0  0
  191.3610  173.2720  135.3620 C   0  0  0  0  0  2  0  0  0  0  0  0
  192.2370  172.1200  135.8110 C   0  0  0  0  0  2  0  0  0  0  0  0
  193.6600  172.3620  135.3570 C   0  0  0  0  0  1  0  0  0  0  0  0
  1 17  1  0  0  0  0
  2  5  1  0  0  0  0
  2 13  1  1  0  0  0
  3 22  1  1  0  0  0
  3  1  1  0  0  0  0
  3  8  1  0  0  0  0
  5  7  1  0  0  0  0
  6  2  1  0  0  0  0
  7  4  1  0  0  0  0
  7 15  1  0  0  0  0
  8 11  1  0  0  0  0
  9 23  1  0  0  0  0
  9  6  1  0  0  0  0
  9 14  1  0  0  0  0
 10 18  1  0  0  0  0
 11 16  1  0  0  0  0
 11 19  1  0  0  0  0
 12  4  1  0  0  0  0
 13 10  1  0  0  0  0
 14  5  1  0  0  0  0
 15 28  1  0  0  0  0
 16 12  2  0  0  0  0
 17 11  1  0  0  0  0
 17 14  1  0  0  0  0
 18 15  1  0  0  0  0
 19 20  1  0  0  0  0
 21 22  1  0  0  0  0
 23 24  1  0  0  0  0
 25 26  1  0  0  0  0
 25 23  1  0  0  0  0
 27 26  1  0  0  0  0
 28 34  1  0  0  0  0
 29 32  1  0  0  0  0
 30 33  1  0  0  0  0
 32 33  1  0  0  0  0
 33 31  1  0  0  0  0
 34 29  1  0  0  0  0
 34 30  1  0  0  0  0
 35 36  1  0  0  0  0
 35  6  1  0  0  0  0
 37 36  1  0  0  0  0
M  END
>  <MODEL>
4

>  <REMARK>
 VINA RESULT:      -4.8      4.128      6.829
  Name = 
  9 active torsions:
  status: ('A' for Active; 'I' for Inactive)
    1  A    between atoms: C_3  and  C_32
    2  A    between atoms: C_5  and  C_23
    3  A    between atoms: C_6  and  C_31
    4  A    between atoms: C_6  and  C_35
    5  A    between atoms: C_9  and  C_13
    6  A    between atoms: C_9  and  C_16
    7  A    between atoms: O_11  and  C_26
    8  A    between atoms: C_20  and  C_21
    9  A    between atoms: C_21  and  C_32
                            x       y       z     vdW  Elec       q    Type
                         _______ _______ _______ _____ _____    ______ ____

>  <TORSDO>
F 9

$$$$
=
 OpenBabel10272415003D

 37 41  0  0  1  0  0  0  0  0999 V2000
  184.0490  174.1360  137.2690 C   0  0  0  0  0  2  0  0  0  0  0  0
  187.0480  177.4060  138.1670 C   0  0  2  0  0  3  0  0  0  0  0  0
  183.8740  172.6270  137.2580 C   0  0  2  0  0  3  0  0  0  0  0  0
  188.5500  174.7910  135.5640 C   0  0  0  0  0  2  0  0  0  0  0  0
  187.3090  176.1320  137.3470 C   0  0  2  0  0  3  0  0  0  0  0  0
  185.7850  178.0300  137.6110 C   0  0  1  0  0  3  0  0  0  0  0  0
  188.4380  176.1490  136.2790 C   0  0  1  0  0  3  0  0  0  0  0  0
  185.2420  172.0350  136.9440 C   0  0  0  0  0  2  0  0  0  0  0  0
  184.9910  176.8690  137.0290 C   0  0  2  0  0  3  0  0  0  0  0  0
  189.4160  177.8300  138.9700 C   0  0  0  0  0  2  0  0  0  0  0  0
  186.1360  173.1900  136.4960 C   0  0  2  0  0  0  0  0  0  0  0  0
  188.6410  173.6310  136.5150 C   0  0  0  0  0  3  0  0  0  0  0  0
  188.1930  178.4120  138.2560 C   0  0  0  0  0  2  0  0  0  0  0  0
  185.9780  175.7450  136.7160 C   0  0  2  0  0  3  0  0  0  0  0  0
  189.8120  176.6920  136.7650 C   0  0  1  0  0  3  0  0  0  0  0  0
  187.5700  172.9300  136.9250 C   0  0  0  0  0  3  0  0  0  0  0  0
  185.5490  174.3750  137.2650 C   0  0  1  0  0  3  0  0  0  0  0  0
  190.0000  176.5990  138.2730 C   0  0  0  0  0  2  0  0  0  0  0  0
  186.0080  173.4180  135.0970 O   0  0  0  0  0  0  0  0  0  0  0  0
  186.0990  172.2000  134.3970 C   0  0  0  0  0  1  0  0  0  0  0  0
  182.4880  173.4240  135.3450 C   0  0  0  0  0  1  0  0  0  0  0  0
  182.8830  172.2210  136.1810 C   0  0  0  0  0  2  0  0  0  0  0  0
  184.1910  177.2480  135.7770 C   0  0  1  0  0  3  0  0  0  0  0  0
  184.7720  176.5770  134.5430 C   0  0  0  0  0  1  0  0  0  0  0  0
  182.7020  176.9390  135.9170 C   0  0  0  0  0  2  0  0  0  0  0  0
  181.8640  178.1930  135.7340 C   0  0  0  0  0  2  0  0  0  0  0  0
  181.6590  178.8190  136.9640 O   0  0  0  0  0  1  0  0  0  0  0  0
  191.0370  176.1640  136.0230 C   0  0  0  0  0  2  0  0  0  0  0  0
  193.3910  176.3930  136.7790 C   0  0  0  0  0  2  0  0  0  0  0  0
  192.3950  174.1930  136.7560 C   0  0  0  0  0  2  0  0  0  0  0  0
  194.1950  173.1720  137.9410 O   0  0  0  0  0  1  0  0  0  0  0  0
  194.4650  175.4100  137.1810 C   0  0  0  0  0  2  0  0  0  0  0  0
  193.9010  174.0350  136.8860 C   0  0  2  0  0  3  0  0  0  0  0  0
  192.0900  175.6600  136.9980 C   0  0  2  0  0  3  0  0  0  0  0  0
  184.9820  178.6900  138.7220 C   0  0  0  0  0  2  0  0  0  0  0  0
  183.9830  177.7130  139.3080 C   0  0  0  0  0  2  0  0  0  0  0  0
  183.7390  178.0520  140.7620 C   0  0  0  0  0  1  0  0  0  0  0  0
  2 13  1  6  0  0  0
  3 22  1  6  0  0  0
  3  1  1  0  0  0  0
  4  7  1  0  0  0  0
  4 12  1  0  0  0  0
  5  2  1  0  0  0  0
  6  2  1  0  0  0  0
  6 35  1  0  0  0  0
  7 15  1  0  0  0  0
  7  5  1  0  0  0  0
  8  3  1  0  0  0  0
  9  6  1  0  0  0  0
 11 16  1  0  0  0  0
 11  8  1  0  0  0  0
 11 17  1  0  0  0  0
 12 16  2  0  0  0  0
 13 10  1  0  0  0  0
 14  9  1  0  0  0  0
 14 17  1  0  0  0  0
 14  5  1  0  0  0  0
 15 18  1  0  0  0  0
 17  1  1  0  0  0  0
 18 10  1  0  0  0  0
 19 11  1  0  0  0  0
 20 19  1  0  0  0  0
 21 22  1  0  0  0  0
 23 25  1  0  0  0  0
 23  9  1  0  0  0  0
 24 23  1  0  0  0  0
 26 25  1  0  0  0  0
 26 27  1  0  0  0  0
 28 15  1  0  0  0  0
 28 34  1  0  0  0  0
 29 34  1  0  0  0  0
 29 32  1  0  0  0  0
 30 33  1  0  0  0  0
 30 34  1  0  0  0  0
 33 32  1  0  0  0  0
 33 31  1  0  0  0  0
 35 36  1  0  0  0  0
 36 37  1  0  0  0  0
M  END
>  <MODEL>
5

>  <REMARK>
 VINA RESULT:      -4.7      2.827      7.129
  Name = 
  9 active torsions:
  status: ('A' for Active; 'I' for Inactive)
    1  A    between atoms: C_3  and  C_32
    2  A    between atoms: C_5  and  C_23
    3  A    between atoms: C_6  and  C_31
    4  A    between atoms: C_6  and  C_35
    5  A    between atoms: C_9  and  C_13
    6  A    between atoms: C_9  and  C_16
    7  A    between atoms: O_11  and  C_26
    8  A    between atoms: C_20  and  C_21
    9  A    between atoms: C_21  and  C_32
                            x       y       z     vdW  Elec       q    Type
                         _______ _______ _______ _____ _____    ______ ____

>  <TORSDO>
F 9

$$$$
=
 OpenBabel10272415003D

 37 41  0  0  1  0  0  0  0  0999 V2000
  182.6790  178.4450  136.3380 C   0  0  0  0  0  2  0  0  0  0  0  0
  186.3420  178.3580  138.9960 C   0  0  2  0  0  3  0  0  0  0  0  0
  181.3190  179.1020  136.1780 C   0  0  2  0  0  3  0  0  0  0  0  0
  183.0410  177.6890  141.1230 C   0  0  0  0  0  2  0  0  0  0  0  0
  184.8780  178.3100  139.4630 C   0  0  2  0  0  3  0  0  0  0  0  0
  186.4890  177.3080  137.9140 C   0  0  1  0  0  3  0  0  0  0  0  0
  184.5510  177.6410  140.8260 C   0  0  1  0  0  3  0  0  0  0  0  0
  180.8210  179.4160  137.5820 C   0  0  0  0  0  2  0  0  0  0  0  0
  185.1030  177.1750  137.3000 C   0  0  2  0  0  3  0  0  0  0  0  0
  187.3700  179.3770  141.0780 C   0  0  0  0  0  2  0  0  0  0  0  0
  181.7500  178.6940  138.5570 C   0  0  2  0  0  0  0  0  0  0  0  0
  182.4560  179.0650  140.9720 C   0  0  0  0  0  3  0  0  0  0  0  0
  187.4130  178.2200  140.0760 C   0  0  0  0  0  2  0  0  0  0  0  0
  184.0890  177.6520  138.3380 C   0  0  2  0  0  3  0  0  0  0  0  0
  185.4180  178.1110  142.0290 C   0  0  1  0  0  3  0  0  0  0  0  0
  181.8900  179.5030  139.8350 C   0  0  0  0  0  3  0  0  0  0  0  0
  183.0720  178.6670  137.7890 C   0  0  1  0  0  3  0  0  0  0  0  0
  186.0390  179.4870  141.8250 C   0  0  0  0  0  2  0  0  0  0  0  0
  181.3060  177.3620  138.7900 O   0  0  0  0  0  0  0  0  0  0  0  0
  179.9820  177.3690  139.2710 C   0  0  0  0  0  1  0  0  0  0  0  0
  181.0940  176.9410  134.9540 C   0  0  0  0  0  1  0  0  0  0  0  0
  180.3530  178.1470  135.4960 C   0  0  0  0  0  2  0  0  0  0  0  0
  184.7750  175.7470  136.8450 C   0  0  1  0  0  3  0  0  0  0  0  0
  186.0070  174.8620  136.9180 C   0  0  0  0  0  1  0  0  0  0  0  0
  183.6140  175.1350  137.6260 C   0  0  0  0  0  2  0  0  0  0  0  0
  182.7580  174.2530  136.7330 C   0  0  0  0  0  2  0  0  0  0  0  0
  181.5460  173.9650  137.3600 O   0  0  0  0  0  1  0  0  0  0  0  0
  184.7670  177.9980  143.4050 C   0  0  0  0  0  2  0  0  0  0  0  0
  186.5960  177.5180  145.0140 C   0  0  0  0  0  2  0  0  0  0  0  0
  184.8500  179.0510  145.6740 C   0  0  0  0  0  2  0  0  0  0  0  0
  185.9820  179.7720  147.6440 O   0  0  0  0  0  1  0  0  0  0  0  0
  186.8640  177.9160  146.4470 C   0  0  0  0  0  2  0  0  0  0  0  0
  185.6190  178.6390  146.9180 C   0  0  2  0  0  3  0  0  0  0  0  0
  185.6660  178.5830  144.4830 C   0  0  2  0  0  3  0  0  0  0  0  0
  187.4750  177.7700  136.8510 C   0  0  0  0  0  2  0  0  0  0  0  0
  186.7400  178.2310  135.6090 C   0  0  0  0  0  2  0  0  0  0  0  0
  187.4260  177.6730  134.3810 C   0  0  0  0  0  1  0  0  0  0  0  0
  1 17  1  0  0  0  0
  2  5  1  0  0  0  0
  2 13  1  1  0  0  0
  3 22  1  1  0  0  0
  3  1  1  0  0  0  0
  3  8  1  0  0  0  0
  5  7  1  0  0  0  0
  6  2  1  0  0  0  0
  7  4  1  0  0  0  0
  7 15  1  0  0  0  0
  8 11  1  0  0  0  0
  9  6  1  0  0  0  0
  9 14  1  0  0  0  0
 10 18  1  0  0  0  0
 11 19  1  0  0  0  0
 11 16  1  0  0  0  0
 12  4  1  0  0  0  0
 13 10  1  0  0  0  0
 14  5  1  0  0  0  0
 15 28  1  0  0  0  0
 16 12  2  0  0  0  0
 17 14  1  0  0  0  0
 17 11  1  0  0  0  0
 18 15  1  0  0  0  0
 19 20  1  0  0  0  0
 21 22  1  0  0  0  0
 23 24  1  0  0  0  0
 23  9  1  0  0  0  0
 23 25  1  0  0  0  0
 26 27  1  0  0  0  0
 26 25  1  0  0  0  0
 28 34  1  0  0  0  0
 29 32  1  0  0  0  0
 30 33  1  0  0  0  0
 32 33  1  0  0  0  0
 33 31  1  0  0  0  0
 34 29  1  0  0  0  0
 34 30  1  0  0  0  0
 35  6  1  0  0  0  0
 36 35  1  0  0  0  0
 37 36  1  0  0  0  0
M  END
>  <MODEL>
6

>  <REMARK>
 VINA RESULT:      -4.3      2.131      3.751
  Name = 
  9 active torsions:
  status: ('A' for Active; 'I' for Inactive)
    1  A    between atoms: C_3  and  C_32
    2  A    between atoms: C_5  and  C_23
    3  A    between atoms: C_6  and  C_31
    4  A    between atoms: C_6  and  C_35
    5  A    between atoms: C_9  and  C_13
    6  A    between atoms: C_9  and  C_16
    7  A    between atoms: O_11  and  C_26
    8  A    between atoms: C_20  and  C_21
    9  A    between atoms: C_21  and  C_32
                            x       y       z     vdW  Elec       q    Type
                         _______ _______ _______ _____ _____    ______ ____

>  <TORSDO>
F 9

$$$$
=
 OpenBabel10272415003D

 37 41  0  0  1  0  0  0  0  0999 V2000
  190.2490  175.3300  137.9130 C   0  0  0  0  0  2  0  0  0  0  0  0
  186.2100  173.6180  136.7980 C   0  0  2  0  0  3  0  0  0  0  0  0
  190.9260  176.3200  138.8460 C   0  0  2  0  0  3  0  0  0  0  0  0
  186.1590  177.5960  136.5960 C   0  0  0  0  0  2  0  0  0  0  0  0
  186.5430  175.1050  137.0010 C   0  0  2  0  0  3  0  0  0  0  0  0
  187.2620  173.0600  135.8610 C   0  0  1  0  0  3  0  0  0  0  0  0
  185.6780  176.1700  136.2720 C   0  0  1  0  0  3  0  0  0  0  0  0
  189.9170  177.4300  139.1050 C   0  0  0  0  0  2  0  0  0  0  0  0
  188.4910  173.9310  136.0790 C   0  0  2  0  0  3  0  0  0  0  0  0
  183.7390  173.7030  137.3590 C   0  0  0  0  0  2  0  0  0  0  0  0
  188.7750  177.2370  138.1090 C   0  0  2  0  0  0  0  0  0  0  0  0
  186.3060  177.8470  138.0700 C   0  0  0  0  0  3  0  0  0  0  0  0
  184.7950  173.2880  136.3310 C   0  0  0  0  0  2  0  0  0  0  0  0
  188.0150  175.2690  136.6410 C   0  0  2  0  0  3  0  0  0  0  0  0
  184.1390  176.0020  136.4250 C   0  0  1  0  0  3  0  0  0  0  0  0
  187.4630  177.6830  138.7320 C   0  0  0  0  0  3  0  0  0  0  0  0
  188.7820  175.7230  137.8940 C   0  0  1  0  0  3  0  0  0  0  0  0
  183.7380  175.2040  137.6580 C   0  0  0  0  0  2  0  0  0  0  0  0
  189.0560  177.8950  136.8790 O   0  0  0  0  0  0  0  0  0  0  0  0
  189.3540  179.2520  137.1120 C   0  0  0  0  0  1  0  0  0  0  0  0
  192.4810  176.1540  136.9050 C   0  0  0  0  0  1  0  0  0  0  0  0
  192.1660  176.9000  138.1870 C   0  0  0  0  0  2  0  0  0  0  0  0
  189.3170  174.1460  134.8050 C   0  0  1  0  0  3  0  0  0  0  0  0
  189.2380  175.5920  134.3480 C   0  0  0  0  0  1  0  0  0  0  0  0
  190.7700  173.7020  134.9680 C   0  0  0  0  0  2  0  0  0  0  0  0
  190.9230  172.2170  134.6850 C   0  0  0  0  0  2  0  0  0  0  0  0
  192.1580  171.7630  135.1500 O   0  0  0  0  0  1  0  0  0  0  0  0
  183.3140  177.2800  136.3020 C   0  0  0  0  0  2  0  0  0  0  0  0
  181.0090  177.6480  137.1500 C   0  0  0  0  0  2  0  0  0  0  0  0
  182.8360  178.7950  138.2360 C   0  0  0  0  0  2  0  0  0  0  0  0
  181.5040  179.5620  140.0580 O   0  0  0  0  0  1  0  0  0  0  0  0
  180.4110  178.5460  138.2070 C   0  0  0  0  0  2  0  0  0  0  0  0
  181.5350  179.4500  138.6690 C   0  0  2  0  0  3  0  0  0  0  0  0
  182.4600  177.4990  137.5410 C   0  0  2  0  0  3  0  0  0  0  0  0
  187.5890  171.6190  136.2220 C   0  0  0  0  0  2  0  0  0  0  0  0
  187.5310  170.7360  134.9920 C   0  0  0  0  0  2  0  0  0  0  0  0
  186.1160  170.2380  134.7950 C   0  0  0  0  0  1  0  0  0  0  0  0
  1  3  1  0  0  0  0
  2 13  1  6  0  0  0
  2  5  1  0  0  0  0
  3 22  1  6  0  0  0
  3  8  1  0  0  0  0
  4 12  1  0  0  0  0
  6  9  1  0  0  0  0
  6 35  1  0  0  0  0
  6  2  1  0  0  0  0
  7 15  1  0  0  0  0
  7  4  1  0  0  0  0
  7  5  1  0  0  0  0
  9 14  1  0  0  0  0
 10 18  1  0  0  0  0
 11 16  1  0  0  0  0
 11  8  1  0  0  0  0
 12 16  2  0  0  0  0
 13 10  1  0  0  0  0
 14  5  1  0  0  0  0
 14 17  1  0  0  0  0
 15 18  1  0  0  0  0
 17  1  1  0  0  0  0
 17 11  1  0  0  0  0
 19 20  1  0  0  0  0
 19 11  1  0  0  0  0
 21 22  1  0  0  0  0
 23 25  1  0  0  0  0
 23  9  1  0  0  0  0
 24 23  1  0  0  0  0
 26 25  1  0  0  0  0
 26 27  1  0  0  0  0
 28 15  1  0  0  0  0
 28 34  1  0  0  0  0
 29 34  1  0  0  0  0
 29 32  1  0  0  0  0
 30 33  1  0  0  0  0
 32 33  1  0  0  0  0
 33 31  1  0  0  0  0
 34 30  1  0  0  0  0
 36 35  1  0  0  0  0
 37 36  1  0  0  0  0
M  END
>  <MODEL>
7

>  <REMARK>
 VINA RESULT:      -4.1      3.194      6.831
  Name = 
  9 active torsions:
  status: ('A' for Active; 'I' for Inactive)
    1  A    between atoms: C_3  and  C_32
    2  A    between atoms: C_5  and  C_23
    3  A    between atoms: C_6  and  C_31
    4  A    between atoms: C_6  and  C_35
    5  A    between atoms: C_9  and  C_13
    6  A    between atoms: C_9  and  C_16
    7  A    between atoms: O_11  and  C_26
    8  A    between atoms: C_20  and  C_21
    9  A    between atoms: C_21  and  C_32
                            x       y       z     vdW  Elec       q    Type
                         _______ _______ _______ _____ _____    ______ ____

>  <TORSDO>
F 9

$$$$
=
 OpenBabel10272415003D

 37 41  0  0  1  0  0  0  0  0999 V2000
  182.5470  177.3770  136.1890 C   0  0  0  0  0  2  0  0  0  0  0  0
  187.0480  177.1470  136.6110 C   0  0  2  0  0  3  0  0  0  0  0  0
  181.3570  178.2930  136.4190 C   0  0  2  0  0  3  0  0  0  0  0  0
  185.3550  178.1290  140.0810 C   0  0  0  0  0  2  0  0  0  0  0  0
  186.0590  177.6550  137.6740 C   0  0  2  0  0  3  0  0  0  0  0  0
  186.5250  175.8080  136.1350 C   0  0  1  0  0  3  0  0  0  0  0  0
  186.4660  177.5760  139.1710 C   0  0  1  0  0  3  0  0  0  0  0  0
  181.7080  179.1650  137.6170 C   0  0  0  0  0  2  0  0  0  0  0  0
  185.0190  175.8690  136.3510 C   0  0  2  0  0  3  0  0  0  0  0  0
  189.0920  178.4580  137.3400 C   0  0  0  0  0  2  0  0  0  0  0  0
  182.9630  178.5690  138.2510 C   0  0  2  0  0  0  0  0  0  0  0  0
  184.8710  179.4880  139.6600 C   0  0  0  0  0  3  0  0  0  0  0  0
  188.5170  177.0760  137.0190 C   0  0  0  0  0  2  0  0  0  0  0  0
  184.7500  176.9140  137.4320 C   0  0  2  0  0  3  0  0  0  0  0  0
  187.8700  178.1510  139.5150 C   0  0  1  0  0  3  0  0  0  0  0  0
  183.8160  179.6750  138.8500 C   0  0  0  0  0  3  0  0  0  0  0  0
  183.6670  177.9350  137.0500 C   0  0  1  0  0  3  0  0  0  0  0  0
  188.3760  179.1620  138.4950 C   0  0  0  0  0  2  0  0  0  0  0  0
  182.6250  177.5580  139.1950 O   0  0  0  0  0  0  0  0  0  0  0  0
  181.6120  178.0200  140.0580 C   0  0  0  0  0  1  0  0  0  0  0  0
  180.4600  175.9990  136.8060 C   0  0  0  0  0  1  0  0  0  0  0  0
  180.1160  177.4740  136.7310 C   0  0  0  0  0  2  0  0  0  0  0  0
  184.4060  174.5190  136.7410 C   0  0  1  0  0  3  0  0  0  0  0  0
  183.7270  174.6070  138.0970 C   0  0  0  0  0  1  0  0  0  0  0  0
  183.4450  173.9840  135.6820 C   0  0  0  0  0  2  0  0  0  0  0  0
  183.8800  172.6130  135.1910 C   0  0  0  0  0  2  0  0  0  0  0  0
  184.8870  172.1040  136.0130 O   0  0  0  0  0  1  0  0  0  0  0  0
  188.0470  178.6680  140.9400 C   0  0  0  0  0  2  0  0  0  0  0  0
  187.5360  177.3420  142.9760 C   0  0  0  0  0  2  0  0  0  0  0  0
  189.8310  177.9580  142.5450 C   0  0  0  0  0  2  0  0  0  0  0  0
  190.7150  176.5560  144.2600 O   0  0  0  0  0  1  0  0  0  0  0  0
  188.3580  176.8570  144.1470 C   0  0  0  0  0  2  0  0  0  0  0  0
  189.7230  177.4970  143.9890 C   0  0  2  0  0  3  0  0  0  0  0  0
  188.5340  177.5630  141.8640 C   0  0  2  0  0  3  0  0  0  0  0  0
  186.8200  175.6150  134.6550 C   0  0  0  0  0  2  0  0  0  0  0  0
  187.2120  174.1790  134.3730 C   0  0  0  0  0  2  0  0  0  0  0  0
  188.3390  173.7730  135.2980 C   0  0  0  0  0  1  0  0  0  0  0  0
  1  3  1  0  0  0  0
  1 17  1  0  0  0  0
  2 13  1  1  0  0  0
  2  5  1  0  0  0  0
  3 22  1  1  0  0  0
  3  8  1  0  0  0  0
  5  7  1  0  0  0  0
  6  9  1  0  0  0  0
  6  2  1  0  0  0  0
  7 15  1  0  0  0  0
  7  4  1  0  0  0  0
  8 11  1  0  0  0  0
  9 23  1  0  0  0  0
  9 14  1  0  0  0  0
 10 18  1  0  0  0  0
 11 16  1  0  0  0  0
 11 19  1  0  0  0  0
 12  4  1  0  0  0  0
 13 10  1  0  0  0  0
 14  5  1  0  0  0  0
 15 28  1  0  0  0  0
 16 12  2  0  0  0  0
 17 14  1  0  0  0  0
 17 11  1  0  0  0  0
 18 15  1  0  0  0  0
 19 20  1  0  0  0  0
 22 21  1  0  0  0  0
 23 24  1  0  0  0  0
 25 23  1  0  0  0  0
 26 25  1  0  0  0  0
 26 27  1  0  0  0  0
 28 34  1  0  0  0  0
 29 32  1  0  0  0  0
 30 33  1  0  0  0  0
 33 32  1  0  0  0  0
 33 31  1  0  0  0  0
 34 30  1  0  0  0  0
 34 29  1  0  0  0  0
 35  6  1  0  0  0  0
 36 35  1  0  0  0  0
 36 37  1  0  0  0  0
M  END
>  <MODEL>
8

>  <REMARK>
 VINA RESULT:      -4.0      2.537      4.236
  Name = 
  9 active torsions:
  status: ('A' for Active; 'I' for Inactive)
    1  A    between atoms: C_3  and  C_32
    2  A    between atoms: C_5  and  C_23
    3  A    between atoms: C_6  and  C_31
    4  A    between atoms: C_6  and  C_35
    5  A    between atoms: C_9  and  C_13
    6  A    between atoms: C_9  and  C_16
    7  A    between atoms: O_11  and  C_26
    8  A    between atoms: C_20  and  C_21
    9  A    between atoms: C_21  and  C_32
                            x       y       z     vdW  Elec       q    Type
                         _______ _______ _______ _____ _____    ______ ____

>  <TORSDO>
F 9

$$$$
=
 OpenBabel10272415003D

 37 41  0  0  1  0  0  0  0  0999 V2000
  182.9910  173.7850  134.6600 C   0  0  0  0  0  2  0  0  0  0  0  0
  187.4120  174.6390  135.1190 C   0  0  2  0  0  3  0  0  0  0  0  0
  181.6590  174.4450  134.3460 C   0  0  2  0  0  3  0  0  0  0  0  0
  185.2620  177.0370  137.4620 C   0  0  0  0  0  2  0  0  0  0  0  0
  186.2600  175.4580  135.7230 C   0  0  2  0  0  3  0  0  0  0  0  0
  187.1480  173.1900  135.4700 C   0  0  1  0  0  3  0  0  0  0  0  0
  186.5280  176.2870  137.0090 C   0  0  1  0  0  3  0  0  0  0  0  0
  181.7550  175.8770  134.8540 C   0  0  0  0  0  2  0  0  0  0  0  0
  185.6360  173.0870  135.6220 C   0  0  2  0  0  3  0  0  0  0  0  0
  189.1540  176.4780  134.9860 C   0  0  0  0  0  2  0  0  0  0  0  0
  183.0200  175.9630  135.7080 C   0  0  2  0  0  0  0  0  0  0  0  0
  184.6200  177.8300  136.3580 C   0  0  0  0  0  3  0  0  0  0  0  0
  188.8290  175.0690  135.4900 C   0  0  0  0  0  2  0  0  0  0  0  0
  185.1080  174.4840  135.9410 C   0  0  2  0  0  3  0  0  0  0  0  0
  187.7880  177.1980  136.9690 C   0  0  1  0  0  3  0  0  0  0  0  0
  183.6330  177.3480  135.5860 C   0  0  0  0  0  3  0  0  0  0  0  0
  183.9240  174.9140  135.0590 C   0  0  1  0  0  3  0  0  0  0  0  0
  188.2300  177.5570  135.5560 C   0  0  0  0  0  2  0  0  0  0  0  0
  182.7500  175.5940  137.0560 O   0  0  0  0  0  0  0  0  0  0  0  0
  181.6040  176.2670  137.5220 C   0  0  0  0  0  1  0  0  0  0  0  0
  181.0250  172.4030  135.6290 C   0  0  0  0  0  1  0  0  0  0  0  0
  180.5330  173.7220  135.0660 C   0  0  0  0  0  2  0  0  0  0  0  0
  185.2010  172.0880  136.7000 C   0  0  1  0  0  3  0  0  0  0  0  0
  184.6430  172.8130  137.9130 C   0  0  0  0  0  1  0  0  0  0  0  0
  184.2060  171.0550  136.1740 C   0  0  0  0  0  2  0  0  0  0  0  0
  184.7070  170.4180  134.8880 C   0  0  0  0  0  2  0  0  0  0  0  0
  184.2510  169.1030  134.7920 O   0  0  0  0  0  1  0  0  0  0  0  0
  187.7460  178.4340  137.8640 C   0  0  0  0  0  2  0  0  0  0  0  0
  189.7350  177.1850  138.6690 C   0  0  0  0  0  2  0  0  0  0  0  0
  188.3220  178.2780  140.2950 C   0  0  0  0  0  2  0  0  0  0  0  0
  189.8370  177.9350  142.1040 O   0  0  0  0  0  1  0  0  0  0  0  0
  190.2770  176.8430  140.0380 C   0  0  0  0  0  2  0  0  0  0  0  0
  189.2230  177.2980  141.0270 C   0  0  2  0  0  3  0  0  0  0  0  0
  188.8720  178.4050  138.8860 C   0  0  2  0  0  3  0  0  0  0  0  0
  187.6100  172.2750  134.3460 C   0  0  0  0  0  2  0  0  0  0  0  0
  188.5780  171.2340  134.8720 C   0  0  0  0  0  2  0  0  0  0  0  0
  189.9920  171.6340  134.5140 C   0  0  0  0  0  1  0  0  0  0  0  0
  1 17  1  0  0  0  0
  2  6  1  0  0  0  0
  2 13  1  1  0  0  0
  2  5  1  0  0  0  0
  3  1  1  0  0  0  0
  3  8  1  0  0  0  0
  3 22  1  1  0  0  0
  5 14  1  0  0  0  0
  5  7  1  0  0  0  0
  6  9  1  0  0  0  0
  7  4  1  0  0  0  0
  8 11  1  0  0  0  0
  9 14  1  0  0  0  0
  9 23  1  0  0  0  0
 10 13  1  0  0  0  0
 10 18  1  0  0  0  0
 11 19  1  0  0  0  0
 12  4  1  0  0  0  0
 15  7  1  0  0  0  0
 15 28  1  0  0  0  0
 16 11  1  0  0  0  0
 16 12  2  0  0  0  0
 17 11  1  0  0  0  0
 17 14  1  0  0  0  0
 18 15  1  0  0  0  0
 19 20  1  0  0  0  0
 22 21  1  0  0  0  0
 23 24  1  0  0  0  0
 25 23  1  0  0  0  0
 26 25  1  0  0  0  0
 27 26  1  0  0  0  0
 28 34  1  0  0  0  0
 29 34  1  0  0  0  0
 29 32  1  0  0  0  0
 30 33  1  0  0  0  0
 32 33  1  0  0  0  0
 33 31  1  0  0  0  0
 34 30  1  0  0  0  0
 35 36  1  0  0  0  0
 35  6  1  0  0  0  0
 37 36  1  0  0  0  0
M  END
>  <MODEL>
9

>  <REMARK>
 VINA RESULT:      -3.9      2.972      4.695
  Name = 
  9 active torsions:
  status: ('A' for Active; 'I' for Inactive)
    1  A    between atoms: C_3  and  C_32
    2  A    between atoms: C_5  and  C_23
    3  A    between atoms: C_6  and  C_31
    4  A    between atoms: C_6  and  C_35
    5  A    between atoms: C_9  and  C_13
    6  A    between atoms: C_9  and  C_16
    7  A    between atoms: O_11  and  C_26
    8  A    between atoms: C_20  and  C_21
    9  A    between atoms: C_21  and  C_32
                            x       y       z     vdW  Elec       q    Type
                         _______ _______ _______ _____ _____    ______ ____

>  <TORSDO>
F 9

$$$$
