=
 OpenBabel10272401103D

 27 30  0  0  1  0  0  0  0  0999 V2000
  188.4680  177.6720  142.3280 C   0  0  2  0  0  3  0  0  0  0  0  0
  188.8860  179.3250  140.7900 O   0  0  0  0  0  0  0  0  0  0  0  0
  187.8540  178.6180  141.3900 N   0  0  0  0  0  0  0  0  0  0  0  0
  188.2430  178.4330  139.9930 C   0  0  2  0  0  3  0  0  0  0  0  0
  189.8660  175.5910  137.9810 C   0  0  0  0  0  2  0  0  0  0  0  0
  191.1410  176.1830  137.9230 O   0  0  0  0  0  0  0  0  0  0  0  0
  188.8180  176.6430  138.3370 C   0  0  0  0  0  2  0  0  0  0  0  0
  191.4950  176.5190  139.2440 C   0  0  0  0  0  2  0  0  0  0  0  0
  190.6240  177.6740  139.7390 C   0  0  0  0  0  2  0  0  0  0  0  0
  189.1580  177.2400  139.7010 C   0  0  0  0  0  3  0  0  0  0  0  0
  187.9720  175.5530  143.3760 O   0  0  0  0  0  1  0  0  0  0  0  0
  187.4010  176.7470  142.9320 C   0  0  1  0  0  3  0  0  0  0  0  0
  185.2680  178.9500  145.9930 C   0  0  0  0  0  3  0  0  0  0  0  0
  183.3280  179.2560  144.5480 C   0  0  0  0  0  1  0  0  0  0  0  0
  185.4630  178.0690  143.7220 C   0  0  0  0  0  0  0  0  0  0  0  0
  185.0030  178.1290  142.4090 O   0  0  0  0  0  1  0  0  0  0  0  0
  186.5850  177.3910  144.0200 C   0  0  0  0  0  0  0  0  0  0  0  0
  184.7130  178.7690  144.7920 C   0  0  0  0  0  0  0  0  0  0  0  0
  187.0110  177.2540  145.4640 C   0  0  0  0  0  2  0  0  0  0  0  0
  186.6890  178.5280  146.2470 C   0  0  0  0  0  2  0  0  0  0  0  0
  189.2490  178.4140  143.4150 C   0  0  0  0  0  2  0  0  0  0  0  0
  192.0010  175.7940  145.4040 C   0  0  0  0  0  3  0  0  0  0  0  0
  190.2110  177.5100  144.1080 C   0  0  0  0  0  0  0  0  0  0  0  0
  190.9480  176.5790  143.3690 C   0  0  0  0  0  3  0  0  0  0  0  0
  191.8430  175.7210  144.0160 C   0  0  0  0  0  3  0  0  0  0  0  0
  191.2650  176.7240  146.1440 C   0  0  0  0  0  3  0  0  0  0  0  0
  190.3700  177.5820  145.4970 C   0  0  0  0  0  3  0  0  0  0  0  0
  1 12  1  0  0  0  0
  1 21  1  1  0  0  0
  2  3  1  0  0  0  0
  3  1  1  0  0  0  0
  4 10  1  1  0  0  0
  4  2  1  0  0  0  0
  4  3  1  0  0  0  0
  5  7  1  0  0  0  0
  6  5  1  0  0  0  0
  6  8  1  0  0  0  0
  7 10  1  0  0  0  0
  8  9  1  0  0  0  0
 10  9  1  0  0  0  0
 12 11  1  1  0  0  0
 12 17  1  0  0  0  0
 13 20  1  0  0  0  0
 14 18  1  0  0  0  0
 15 17  2  0  0  0  0
 15 18  1  0  0  0  0
 16 15  1  0  0  0  0
 17 19  1  0  0  0  0
 18 13  2  0  0  0  0
 19 20  1  0  0  0  0
 21 23  1  0  0  0  0
 22 26  1  0  0  0  0
 23 27  1  0  0  0  0
 24 25  1  0  0  0  0
 24 23  2  0  0  0  0
 25 22  2  0  0  0  0
 27 26  2  0  0  0  0
M  END
>  <MODEL>
1

>  <REMARK>
 VINA RESULT:      -7.6      0.000      0.000
  Name = 
  6 active torsions:
  status: ('A' for Active; 'I' for Inactive)
    1  A    between atoms: C_2  and  C_6
    2  A    between atoms: C_2  and  N_15
    3  A    between atoms: C_2  and  C_19
    4  A    between atoms: C_6  and  C_9
    5  A    between atoms: C_14  and  C_19
    6  A    between atoms: C_18  and  C_26
                            x       y       z     vdW  Elec       q    Type
                         _______ _______ _______ _____ _____    ______ ____

>  <TORSDO>
F 6

$$$$
=
 OpenBabel10272401103D

 27 30  0  0  1  0  0  0  0  0999 V2000
  189.2050  177.3320  143.4170 C   0  0  2  0  0  3  0  0  0  0  0  0
  187.6660  175.7070  143.9330 O   0  0  0  0  0  0  0  0  0  0  0  0
  188.1370  176.4810  142.8820 N   0  0  0  0  0  0  0  0  0  0  0  0
  186.8270  176.6830  143.4990 C   0  0  2  0  0  3  0  0  0  0  0  0
  185.3310  179.6370  145.4480 C   0  0  0  0  0  2  0  0  0  0  0  0
  185.1560  178.9260  146.6500 O   0  0  0  0  0  0  0  0  0  0  0  0
  185.5070  178.6610  144.2860 C   0  0  0  0  0  2  0  0  0  0  0  0
  186.3930  178.3250  146.9510 C   0  0  0  0  0  2  0  0  0  0  0  0
  186.6860  177.2050  145.9530 C   0  0  0  0  0  2  0  0  0  0  0  0
  186.7410  177.7990  144.5450 C   0  0  0  0  0  3  0  0  0  0  0  0
  190.6670  179.1630  142.8290 O   0  0  0  0  0  1  0  0  0  0  0  0
  189.5080  178.4850  142.4480 C   0  0  1  0  0  3  0  0  0  0  0  0
  189.5570  176.9020  138.4150 C   0  0  0  0  0  3  0  0  0  0  0  0
  187.5620  178.1610  137.8000 C   0  0  0  0  0  1  0  0  0  0  0  0
  188.5240  178.2240  140.1920 C   0  0  0  0  0  0  0  0  0  0  0  0
  187.3670  178.8470  140.6540 O   0  0  0  0  0  1  0  0  0  0  0  0
  189.5820  178.0620  141.0060 C   0  0  0  0  0  0  0  0  0  0  0  0
  188.5790  177.7280  138.7960 C   0  0  0  0  0  0  0  0  0  0  0  0
  190.8620  177.4750  140.4560 C   0  0  0  0  0  2  0  0  0  0  0  0
  190.5590  176.3950  139.4150 C   0  0  0  0  0  2  0  0  0  0  0  0
  190.4580  176.5070  143.7170 C   0  0  0  0  0  2  0  0  0  0  0  0
  191.4630  176.6300  147.8850 C   0  0  0  0  0  3  0  0  0  0  0  0
  190.8110  176.5590  145.1650 C   0  0  0  0  0  0  0  0  0  0  0  0
  191.8840  175.8020  145.6480 C   0  0  0  0  0  3  0  0  0  0  0  0
  192.2100  175.8390  147.0080 C   0  0  0  0  0  3  0  0  0  0  0  0
  190.3890  177.3860  147.4040 C   0  0  0  0  0  3  0  0  0  0  0  0
  190.0630  177.3510  146.0450 C   0  0  0  0  0  3  0  0  0  0  0  0
  1 21  1  6  0  0  0
  3  1  1  0  0  0  0
  3  4  1  0  0  0  0
  3  2  1  0  0  0  0
  4  2  1  0  0  0  0
  4 10  1  1  0  0  0
  5  6  1  0  0  0  0
  6  8  1  0  0  0  0
  7 10  1  0  0  0  0
  7  5  1  0  0  0  0
  9  8  1  0  0  0  0
 10  9  1  0  0  0  0
 12 11  1  1  0  0  0
 12  1  1  0  0  0  0
 13 18  2  0  0  0  0
 13 20  1  0  0  0  0
 14 18  1  0  0  0  0
 15 16  1  0  0  0  0
 15 17  2  0  0  0  0
 17 12  1  0  0  0  0
 18 15  1  0  0  0  0
 19 17  1  0  0  0  0
 20 19  1  0  0  0  0
 21 23  1  0  0  0  0
 23 24  2  0  0  0  0
 23 27  1  0  0  0  0
 24 25  1  0  0  0  0
 25 22  2  0  0  0  0
 26 22  1  0  0  0  0
 27 26  2  0  0  0  0
M  END
>  <MODEL>
2

>  <REMARK>
 VINA RESULT:      -7.4      1.629      5.774
  Name = 
  6 active torsions:
  status: ('A' for Active; 'I' for Inactive)
    1  A    between atoms: C_2  and  C_6
    2  A    between atoms: C_2  and  N_15
    3  A    between atoms: C_2  and  C_19
    4  A    between atoms: C_6  and  C_9
    5  A    between atoms: C_14  and  C_19
    6  A    between atoms: C_18  and  C_26
                            x       y       z     vdW  Elec       q    Type
                         _______ _______ _______ _____ _____    ______ ____

>  <TORSDO>
F 6

$$$$
=
 OpenBabel10272401103D

 27 30  0  0  1  0  0  0  0  0999 V2000
  188.5110  177.2110  141.7430 C   0  0  2  0  0  3  0  0  0  0  0  0
  190.2370  176.2730  140.5530 O   0  0  0  0  0  0  0  0  0  0  0  0
  189.8750  177.4200  141.2440 N   0  0  0  0  0  0  0  0  0  0  0  0
  190.0080  177.3730  139.7890 C   0  0  2  0  0  3  0  0  0  0  0  0
  187.2250  178.1940  137.2710 C   0  0  0  0  0  2  0  0  0  0  0  0
  187.5380  177.1480  136.3840 O   0  0  0  0  0  0  0  0  0  0  0  0
  188.4080  178.4630  138.1990 C   0  0  0  0  0  2  0  0  0  0  0  0
  187.5880  175.9670  137.1490 C   0  0  0  0  0  2  0  0  0  0  0  0
  188.8120  175.9910  138.0650 C   0  0  0  0  0  2  0  0  0  0  0  0
  188.7070  177.1970  138.9990 C   0  0  0  0  0  3  0  0  0  0  0  0
  188.5470  179.6230  141.6360 O   0  0  0  0  0  1  0  0  0  0  0  0
  187.9120  178.5350  142.2380 C   0  0  1  0  0  3  0  0  0  0  0  0
  183.6110  178.3780  141.7390 C   0  0  0  0  0  3  0  0  0  0  0  0
  183.2310  178.7290  144.1220 C   0  0  0  0  0  1  0  0  0  0  0  0
  185.6070  178.5230  143.1410 C   0  0  0  0  0  0  0  0  0  0  0  0
  186.1390  178.4010  144.4220 O   0  0  0  0  0  1  0  0  0  0  0  0
  186.4190  178.6250  142.0730 C   0  0  0  0  0  0  0  0  0  0  0  0
  184.1370  178.5300  142.9580 C   0  0  0  0  0  0  0  0  0  0  0  0
  185.8230  178.8590  140.7050 C   0  0  0  0  0  2  0  0  0  0  0  0
  184.4980  178.1090  140.5560 C   0  0  0  0  0  2  0  0  0  0  0  0
  188.4900  176.1410  142.8360 C   0  0  0  0  0  2  0  0  0  0  0  0
  191.1650  177.0980  146.0500 C   0  0  0  0  0  3  0  0  0  0  0  0
  189.4190  176.4830  143.9510 C   0  0  0  0  0  0  0  0  0  0  0  0
  190.7810  176.1790  143.8420 C   0  0  0  0  0  3  0  0  0  0  0  0
  191.6530  176.4870  144.8910 C   0  0  0  0  0  3  0  0  0  0  0  0
  189.8040  177.4020  146.1610 C   0  0  0  0  0  3  0  0  0  0  0  0
  188.9310  177.0940  145.1130 C   0  0  0  0  0  3  0  0  0  0  0  0
  1 12  1  0  0  0  0
  1 21  1  1  0  0  0
  2  3  1  0  0  0  0
  3  1  1  0  0  0  0
  4 10  1  6  0  0  0
  4  2  1  0  0  0  0
  4  3  1  0  0  0  0
  5  7  1  0  0  0  0
  6  8  1  0  0  0  0
  6  5  1  0  0  0  0
  7 10  1  0  0  0  0
  8  9  1  0  0  0  0
  9 10  1  0  0  0  0
 12 11  1  6  0  0  0
 13 18  2  0  0  0  0
 15 16  1  0  0  0  0
 17 12  1  0  0  0  0
 17 15  2  0  0  0  0
 18 15  1  0  0  0  0
 18 14  1  0  0  0  0
 19 17  1  0  0  0  0
 20 19  1  0  0  0  0
 20 13  1  0  0  0  0
 21 23  1  0  0  0  0
 22 26  1  0  0  0  0
 23 27  1  0  0  0  0
 24 23  2  0  0  0  0
 24 25  1  0  0  0  0
 25 22  2  0  0  0  0
 27 26  2  0  0  0  0
M  END
>  <MODEL>
3

>  <REMARK>
 VINA RESULT:      -7.3      1.849      2.901
  Name = 
  6 active torsions:
  status: ('A' for Active; 'I' for Inactive)
    1  A    between atoms: C_2  and  C_6
    2  A    between atoms: C_2  and  N_15
    3  A    between atoms: C_2  and  C_19
    4  A    between atoms: C_6  and  C_9
    5  A    between atoms: C_14  and  C_19
    6  A    between atoms: C_18  and  C_26
                            x       y       z     vdW  Elec       q    Type
                         _______ _______ _______ _____ _____    ______ ____

>  <TORSDO>
F 6

$$$$
=
 OpenBabel10272401103D

 27 30  0  0  1  0  0  0  0  0999 V2000
  188.6550  177.2420  141.6140 C   0  0  2  0  0  3  0  0  0  0  0  0
  190.4640  176.3650  140.5040 O   0  0  0  0  0  0  0  0  0  0  0  0
  190.0320  177.4980  141.1790 N   0  0  0  0  0  0  0  0  0  0  0  0
  190.2330  177.4570  139.7310 C   0  0  2  0  0  3  0  0  0  0  0  0
  187.6170  178.1160  136.9950 C   0  0  0  0  0  2  0  0  0  0  0  0
  187.9580  176.9960  136.2150 O   0  0  0  0  0  0  0  0  0  0  0  0
  188.7500  178.4400  137.9670 C   0  0  0  0  0  2  0  0  0  0  0  0
  187.9400  175.8810  137.0750 C   0  0  0  0  0  2  0  0  0  0  0  0
  189.1090  175.9590  138.0560 C   0  0  0  0  0  2  0  0  0  0  0  0
  188.9760  177.2390  138.8830 C   0  0  0  0  0  3  0  0  0  0  0  0
  188.2440  179.5880  141.2120 O   0  0  0  0  0  1  0  0  0  0  0  0
  187.9970  178.5410  142.1020 C   0  0  1  0  0  3  0  0  0  0  0  0
  183.7510  178.5720  142.9630 C   0  0  0  0  0  3  0  0  0  0  0  0
  183.1790  178.4010  140.5980 C   0  0  0  0  0  1  0  0  0  0  0  0
  185.6250  178.5770  141.3940 C   0  0  0  0  0  0  0  0  0  0  0  0
  186.0470  178.8100  140.0880 O   0  0  0  0  0  1  0  0  0  0  0  0
  186.5240  178.4090  142.3810 C   0  0  0  0  0  0  0  0  0  0  0  0
  184.1750  178.5260  141.6970 C   0  0  0  0  0  0  0  0  0  0  0  0
  186.0480  178.0560  143.7710 C   0  0  0  0  0  2  0  0  0  0  0  0
  184.7300  178.7650  144.0870 C   0  0  0  0  0  2  0  0  0  0  0  0
  188.6190  176.1550  142.6900 C   0  0  0  0  0  2  0  0  0  0  0  0
  191.1730  177.1060  146.0020 C   0  0  0  0  0  3  0  0  0  0  0  0
  189.5060  176.4950  143.8390 C   0  0  0  0  0  0  0  0  0  0  0  0
  190.8580  176.1350  143.8060 C   0  0  0  0  0  3  0  0  0  0  0  0
  191.6910  176.4410  144.8860 C   0  0  0  0  0  3  0  0  0  0  0  0
  189.8220  177.4670  146.0370 C   0  0  0  0  0  3  0  0  0  0  0  0
  188.9890  177.1610  144.9570 C   0  0  0  0  0  3  0  0  0  0  0  0
  1 12  1  0  0  0  0
  1 21  1  1  0  0  0
  2  3  1  0  0  0  0
  3  1  1  0  0  0  0
  4 10  1  6  0  0  0
  4  2  1  0  0  0  0
  4  3  1  0  0  0  0
  5  7  1  0  0  0  0
  6  5  1  0  0  0  0
  6  8  1  0  0  0  0
  7 10  1  0  0  0  0
  8  9  1  0  0  0  0
  9 10  1  0  0  0  0
 12 11  1  6  0  0  0
 12 17  1  0  0  0  0
 13 20  1  0  0  0  0
 14 18  1  0  0  0  0
 15 18  1  0  0  0  0
 15 17  2  0  0  0  0
 16 15  1  0  0  0  0
 17 19  1  0  0  0  0
 18 13  2  0  0  0  0
 19 20  1  0  0  0  0
 21 23  1  0  0  0  0
 22 26  1  0  0  0  0
 23 27  1  0  0  0  0
 24 23  2  0  0  0  0
 24 25  1  0  0  0  0
 25 22  2  0  0  0  0
 27 26  2  0  0  0  0
M  END
>  <MODEL>
4

>  <REMARK>
 VINA RESULT:      -7.2      1.837      2.644
  Name = 
  6 active torsions:
  status: ('A' for Active; 'I' for Inactive)
    1  A    between atoms: C_2  and  C_6
    2  A    between atoms: C_2  and  N_15
    3  A    between atoms: C_2  and  C_19
    4  A    between atoms: C_6  and  C_9
    5  A    between atoms: C_14  and  C_19
    6  A    between atoms: C_18  and  C_26
                            x       y       z     vdW  Elec       q    Type
                         _______ _______ _______ _____ _____    ______ ____

>  <TORSDO>
F 6

$$$$
=
 OpenBabel10272401103D

 27 30  0  0  1  0  0  0  0  0999 V2000
  187.0190  177.8710  142.7810 C   0  0  2  0  0  3  0  0  0  0  0  0
  185.9200  179.8760  142.5730 O   0  0  0  0  0  0  0  0  0  0  0  0
  186.0710  178.7890  143.4210 N   0  0  0  0  0  0  0  0  0  0  0  0
  184.8520  179.0410  142.6550 C   0  0  2  0  0  3  0  0  0  0  0  0
  183.1080  177.0590  139.8640 C   0  0  0  0  0  2  0  0  0  0  0  0
  183.2590  178.0550  138.8820 O   0  0  0  0  0  0  0  0  0  0  0  0
  183.2990  177.6630  141.2540 C   0  0  0  0  0  2  0  0  0  0  0  0
  184.6210  178.4100  138.8670 C   0  0  0  0  0  2  0  0  0  0  0  0
  184.9780  179.1630  140.1490 C   0  0  0  0  0  2  0  0  0  0  0  0
  184.7030  178.2560  141.3490 C   0  0  0  0  0  3  0  0  0  0  0  0
  187.8570  175.6130  142.9710 O   0  0  0  0  0  1  0  0  0  0  0  0
  187.3040  176.6710  143.6960 C   0  0  1  0  0  3  0  0  0  0  0  0
  189.7270  178.0380  147.0180 C   0  0  0  0  0  3  0  0  0  0  0  0
  187.8590  177.8520  148.5740 C   0  0  0  0  0  1  0  0  0  0  0  0
  187.5850  177.3550  146.0580 C   0  0  0  0  0  0  0  0  0  0  0  0
  186.2000  177.3430  146.1980 O   0  0  0  0  0  1  0  0  0  0  0  0
  188.1550  177.0070  144.8900 C   0  0  0  0  0  0  0  0  0  0  0  0
  188.4330  177.7640  147.2030 C   0  0  0  0  0  0  0  0  0  0  0  0
  189.6610  176.9280  144.7900 C   0  0  0  0  0  2  0  0  0  0  0  0
  190.3170  178.0220  145.6350 C   0  0  0  0  0  2  0  0  0  0  0  0
  188.3060  178.6010  142.3950 C   0  0  0  0  0  2  0  0  0  0  0  0
  190.0810  176.9460  138.8580 C   0  0  0  0  0  3  0  0  0  0  0  0
  188.9170  178.0180  141.1660 C   0  0  0  0  0  0  0  0  0  0  0  0
  190.1960  177.4550  141.2230 C   0  0  0  0  0  3  0  0  0  0  0  0
  190.7770  176.9180  140.0700 C   0  0  0  0  0  3  0  0  0  0  0  0
  188.8020  177.5100  138.7990 C   0  0  0  0  0  3  0  0  0  0  0  0
  188.2200  178.0460  139.9510 C   0  0  0  0  0  3  0  0  0  0  0  0
  1 21  1  1  0  0  0
  1  3  1  0  0  0  0
  1 12  1  0  0  0  0
  2  4  1  0  0  0  0
  2  3  1  0  0  0  0
  4 10  1  6  0  0  0
  4  3  1  0  0  0  0
  5  7  1  0  0  0  0
  6  5  1  0  0  0  0
  7 10  1  0  0  0  0
  8  6  1  0  0  0  0
  8  9  1  0  0  0  0
  9 10  1  0  0  0  0
 12 11  1  6  0  0  0
 12 17  1  0  0  0  0
 13 18  2  0  0  0  0
 15 16  1  0  0  0  0
 15 18  1  0  0  0  0
 17 15  2  0  0  0  0
 18 14  1  0  0  0  0
 19 17  1  0  0  0  0
 19 20  1  0  0  0  0
 20 13  1  0  0  0  0
 22 25  1  0  0  0  0
 23 24  1  0  0  0  0
 23 21  1  0  0  0  0
 25 24  2  0  0  0  0
 26 22  2  0  0  0  0
 26 27  1  0  0  0  0
 27 23  2  0  0  0  0
M  END
>  <MODEL>
5

>  <REMARK>
 VINA RESULT:      -7.1      2.251      4.799
  Name = 
  6 active torsions:
  status: ('A' for Active; 'I' for Inactive)
    1  A    between atoms: C_2  and  C_6
    2  A    between atoms: C_2  and  N_15
    3  A    between atoms: C_2  and  C_19
    4  A    between atoms: C_6  and  C_9
    5  A    between atoms: C_14  and  C_19
    6  A    between atoms: C_18  and  C_26
                            x       y       z     vdW  Elec       q    Type
                         _______ _______ _______ _____ _____    ______ ____

>  <TORSDO>
F 6

$$$$
=
 OpenBabel10272401103D

 27 30  0  0  1  0  0  0  0  0999 V2000
  189.5030  177.5370  142.3300 C   0  0  2  0  0  3  0  0  0  0  0  0
  189.4660  175.7340  140.9070 O   0  0  0  0  0  0  0  0  0  0  0  0
  190.3300  176.5650  141.6070 N   0  0  0  0  0  0  0  0  0  0  0  0
  190.1880  176.6030  140.1520 C   0  0  2  0  0  3  0  0  0  0  0  0
  188.9660  179.3670  137.7790 C   0  0  0  0  0  2  0  0  0  0  0  0
  187.8810  178.6310  137.2690 O   0  0  0  0  0  0  0  0  0  0  0  0
  189.9670  178.4250  138.4480 C   0  0  0  0  0  2  0  0  0  0  0  0
  187.1510  178.1600  138.3770 C   0  0  0  0  0  2  0  0  0  0  0  0
  187.9530  177.0860  139.1120 C   0  0  0  0  0  2  0  0  0  0  0  0
  189.2700  177.6950  139.5940 C   0  0  0  0  0  3  0  0  0  0  0  0
  190.0290  179.7240  143.2100 O   0  0  0  0  0  1  0  0  0  0  0  0
  190.3680  178.3710  143.2860 C   0  0  1  0  0  3  0  0  0  0  0  0
  190.0180  176.6810  147.2600 C   0  0  0  0  0  3  0  0  0  0  0  0
  192.1760  175.5620  147.0720 C   0  0  0  0  0  1  0  0  0  0  0  0
  191.1760  176.9200  145.1210 C   0  0  0  0  0  0  0  0  0  0  0  0
  192.1310  176.3990  144.2520 O   0  0  0  0  0  1  0  0  0  0  0  0
  190.3370  177.8880  144.7100 C   0  0  0  0  0  0  0  0  0  0  0  0
  191.0810  176.3940  146.5030 C   0  0  0  0  0  0  0  0  0  0  0  0
  189.3770  178.5100  145.6980 C   0  0  0  0  0  2  0  0  0  0  0  0
  188.8670  177.4640  146.6900 C   0  0  0  0  0  2  0  0  0  0  0  0
  188.3630  176.8360  143.0710 C   0  0  0  0  0  2  0  0  0  0  0  0
  184.7900  179.2090  143.1050 C   0  0  0  0  0  3  0  0  0  0  0  0
  187.1260  177.6690  143.0840 C   0  0  0  0  0  0  0  0  0  0  0  0
  186.2680  177.6250  144.1880 C   0  0  0  0  0  3  0  0  0  0  0  0
  185.1010  178.3950  144.1990 C   0  0  0  0  0  3  0  0  0  0  0  0
  185.6470  179.2540  142.0010 C   0  0  0  0  0  3  0  0  0  0  0  0
  186.8140  178.4840  141.9890 C   0  0  0  0  0  3  0  0  0  0  0  0
  1 21  1  1  0  0  0
  1 12  1  0  0  0  0
  2  3  1  0  0  0  0
  3  1  1  0  0  0  0
  4 10  1  1  0  0  0
  4  2  1  0  0  0  0
  4  3  1  0  0  0  0
  5  7  1  0  0  0  0
  6  5  1  0  0  0  0
  6  8  1  0  0  0  0
  7 10  1  0  0  0  0
  8  9  1  0  0  0  0
  9 10  1  0  0  0  0
 12 11  1  1  0  0  0
 12 17  1  0  0  0  0
 15 18  1  0  0  0  0
 16 15  1  0  0  0  0
 17 15  2  0  0  0  0
 17 19  1  0  0  0  0
 18 14  1  0  0  0  0
 18 13  2  0  0  0  0
 19 20  1  0  0  0  0
 20 13  1  0  0  0  0
 21 23  1  0  0  0  0
 22 25  1  0  0  0  0
 23 24  1  0  0  0  0
 24 25  2  0  0  0  0
 26 22  2  0  0  0  0
 27 26  1  0  0  0  0
 27 23  2  0  0  0  0
M  END
>  <MODEL>
6

>  <REMARK>
 VINA RESULT:      -6.9      2.008      4.982
  Name = 
  6 active torsions:
  status: ('A' for Active; 'I' for Inactive)
    1  A    between atoms: C_2  and  C_6
    2  A    between atoms: C_2  and  N_15
    3  A    between atoms: C_2  and  C_19
    4  A    between atoms: C_6  and  C_9
    5  A    between atoms: C_14  and  C_19
    6  A    between atoms: C_18  and  C_26
                            x       y       z     vdW  Elec       q    Type
                         _______ _______ _______ _____ _____    ______ ____

>  <TORSDO>
F 6

$$$$
=
 OpenBabel10272401103D

 27 30  0  0  1  0  0  0  0  0999 V2000
  186.9190  177.9410  142.5800 C   0  0  2  0  0  3  0  0  0  0  0  0
  185.8820  179.9590  142.2260 O   0  0  0  0  0  0  0  0  0  0  0  0
  185.9940  178.9290  143.1480 N   0  0  0  0  0  0  0  0  0  0  0  0
  184.7880  179.1640  142.3560 C   0  0  2  0  0  3  0  0  0  0  0  0
  183.0250  176.9570  139.7520 C   0  0  0  0  0  2  0  0  0  0  0  0
  183.1070  177.8960  138.7070 O   0  0  0  0  0  0  0  0  0  0  0  0
  183.2400  177.6510  141.0960 C   0  0  0  0  0  2  0  0  0  0  0  0
  184.4550  178.2950  138.6230 C   0  0  0  0  0  2  0  0  0  0  0  0
  184.8270  179.1360  139.8440 C   0  0  0  0  0  2  0  0  0  0  0  0
  184.6250  178.2950  141.1050 C   0  0  0  0  0  3  0  0  0  0  0  0
  187.8580  175.7500  142.9710 O   0  0  0  0  0  1  0  0  0  0  0  0
  187.1550  176.7950  143.5750 C   0  0  1  0  0  3  0  0  0  0  0  0
  188.9810  177.6670  147.4060 C   0  0  0  0  0  3  0  0  0  0  0  0
  191.2180  177.2250  146.5420 C   0  0  0  0  0  1  0  0  0  0  0  0
  189.1140  176.9170  145.0830 C   0  0  0  0  0  0  0  0  0  0  0  0
  189.8650  176.2510  144.1180 O   0  0  0  0  0  1  0  0  0  0  0  0
  187.8260  177.2270  144.8500 C   0  0  0  0  0  0  0  0  0  0  0  0
  189.7400  177.2760  146.3780 C   0  0  0  0  0  0  0  0  0  0  0  0
  187.0590  178.0380  145.8690 C   0  0  0  0  0  2  0  0  0  0  0  0
  187.4820  177.6630  147.2900 C   0  0  0  0  0  2  0  0  0  0  0  0
  188.2330  178.6030  142.1630 C   0  0  0  0  0  2  0  0  0  0  0  0
  189.8180  176.8780  138.5710 C   0  0  0  0  0  3  0  0  0  0  0  0
  188.7770  177.9960  140.9150 C   0  0  0  0  0  0  0  0  0  0  0  0
  190.0410  177.3950  140.9260 C   0  0  0  0  0  3  0  0  0  0  0  0
  190.5610  176.8350  139.7550 C   0  0  0  0  0  3  0  0  0  0  0  0
  188.5560  177.4790  138.5570 C   0  0  0  0  0  3  0  0  0  0  0  0
  188.0350  178.0380  139.7280 C   0  0  0  0  0  3  0  0  0  0  0  0
  1 21  1  1  0  0  0
  1  3  1  0  0  0  0
  1 12  1  0  0  0  0
  2  4  1  0  0  0  0
  2  3  1  0  0  0  0
  4 10  1  6  0  0  0
  4  3  1  0  0  0  0
  5  7  1  0  0  0  0
  6  5  1  0  0  0  0
  7 10  1  0  0  0  0
  8  6  1  0  0  0  0
  8  9  1  0  0  0  0
  9 10  1  0  0  0  0
 12 11  1  6  0  0  0
 12 17  1  0  0  0  0
 15 18  1  0  0  0  0
 16 15  1  0  0  0  0
 17 15  2  0  0  0  0
 17 19  1  0  0  0  0
 18 14  1  0  0  0  0
 18 13  2  0  0  0  0
 19 20  1  0  0  0  0
 20 13  1  0  0  0  0
 22 25  1  0  0  0  0
 23 24  1  0  0  0  0
 23 21  1  0  0  0  0
 25 24  2  0  0  0  0
 26 22  2  0  0  0  0
 26 27  1  0  0  0  0
 27 23  2  0  0  0  0
M  END
>  <MODEL>
7

>  <REMARK>
 VINA RESULT:      -6.9      2.196      5.026
  Name = 
  6 active torsions:
  status: ('A' for Active; 'I' for Inactive)
    1  A    between atoms: C_2  and  C_6
    2  A    between atoms: C_2  and  N_15
    3  A    between atoms: C_2  and  C_19
    4  A    between atoms: C_6  and  C_9
    5  A    between atoms: C_14  and  C_19
    6  A    between atoms: C_18  and  C_26
                            x       y       z     vdW  Elec       q    Type
                         _______ _______ _______ _____ _____    ______ ____

>  <TORSDO>
F 6

$$$$
=
 OpenBabel10272401103D

 27 30  0  0  1  0  0  0  0  0999 V2000
  188.5110  177.5720  144.3330 C   0  0  2  0  0  3  0  0  0  0  0  0
  187.4330  178.0090  146.3140 O   0  0  0  0  0  0  0  0  0  0  0  0
  187.7990  176.9720  145.4670 N   0  0  0  0  0  0  0  0  0  0  0  0
  186.4170  177.4230  145.6290 C   0  0  2  0  0  3  0  0  0  0  0  0
  184.5050  178.5730  142.5020 C   0  0  0  0  0  2  0  0  0  0  0  0
  183.5530  179.3350  143.2030 O   0  0  0  0  0  0  0  0  0  0  0  0
  185.1910  177.5930  143.4510 C   0  0  0  0  0  2  0  0  0  0  0  0
  184.2690  180.1980  144.0540 C   0  0  0  0  0  2  0  0  0  0  0  0
  184.9300  179.3960  145.1740 C   0  0  0  0  0  2  0  0  0  0  0  0
  185.8920  178.3810  144.5560 C   0  0  0  0  0  3  0  0  0  0  0  0
  187.8950  175.4590  143.3380 O   0  0  0  0  0  1  0  0  0  0  0  0
  188.8130  176.5080  143.2670 C   0  0  1  0  0  3  0  0  0  0  0  0
  189.2700  178.4070  139.4000 C   0  0  0  0  0  3  0  0  0  0  0  0
  191.0510  176.8710  138.7560 C   0  0  0  0  0  1  0  0  0  0  0  0
  189.9570  176.7790  141.0890 C   0  0  0  0  0  0  0  0  0  0  0  0
  190.9600  175.9250  141.5400 O   0  0  0  0  0  1  0  0  0  0  0  0
  188.8970  177.0570  141.8690 C   0  0  0  0  0  0  0  0  0  0  0  0
  190.0680  177.3920  139.7440 C   0  0  0  0  0  0  0  0  0  0  0  0
  187.7710  177.9040  141.3220 C   0  0  0  0  0  2  0  0  0  0  0  0
  188.3150  178.9970  140.4000 C   0  0  0  0  0  2  0  0  0  0  0  0
  189.7860  178.2750  144.8030 C   0  0  0  0  0  2  0  0  0  0  0  0
  192.2690  175.6140  147.0720 C   0  0  0  0  0  3  0  0  0  0  0  0
  190.6550  177.3570  145.5940 C   0  0  0  0  0  0  0  0  0  0  0  0
  191.4350  176.3990  144.9380 C   0  0  0  0  0  3  0  0  0  0  0  0
  192.2420  175.5280  145.6770 C   0  0  0  0  0  3  0  0  0  0  0  0
  191.4890  176.5710  147.7300 C   0  0  0  0  0  3  0  0  0  0  0  0
  190.6830  177.4420  146.9920 C   0  0  0  0  0  3  0  0  0  0  0  0
  1 21  1  1  0  0  0
  1  3  1  0  0  0  0
  3  4  1  0  0  0  0
  3  2  1  0  0  0  0
  4 10  1  6  0  0  0
  4  2  1  0  0  0  0
  5  6  1  0  0  0  0
  5  7  1  0  0  0  0
  6  8  1  0  0  0  0
  7 10  1  0  0  0  0
  8  9  1  0  0  0  0
 10  9  1  0  0  0  0
 12 11  1  6  0  0  0
 12  1  1  0  0  0  0
 13 18  2  0  0  0  0
 13 20  1  0  0  0  0
 14 18  1  0  0  0  0
 15 16  1  0  0  0  0
 15 17  2  0  0  0  0
 17 12  1  0  0  0  0
 18 15  1  0  0  0  0
 19 17  1  0  0  0  0
 20 19  1  0  0  0  0
 21 23  1  0  0  0  0
 22 26  1  0  0  0  0
 23 27  1  0  0  0  0
 24 23  2  0  0  0  0
 24 25  1  0  0  0  0
 25 22  2  0  0  0  0
 27 26  2  0  0  0  0
M  END
>  <MODEL>
8

>  <REMARK>
 VINA RESULT:      -6.9      1.752      5.601
  Name = 
  6 active torsions:
  status: ('A' for Active; 'I' for Inactive)
    1  A    between atoms: C_2  and  C_6
    2  A    between atoms: C_2  and  N_15
    3  A    between atoms: C_2  and  C_19
    4  A    between atoms: C_6  and  C_9
    5  A    between atoms: C_14  and  C_19
    6  A    between atoms: C_18  and  C_26
                            x       y       z     vdW  Elec       q    Type
                         _______ _______ _______ _____ _____    ______ ____

>  <TORSDO>
F 6

$$$$
=
 OpenBabel10272401103D

 27 30  0  0  1  0  0  0  0  0999 V2000
  188.9060  177.6150  143.9270 C   0  0  2  0  0  3  0  0  0  0  0  0
  190.9520  177.0500  144.8040 O   0  0  0  0  0  0  0  0  0  0  0  0
  189.8020  176.5010  144.2560 N   0  0  0  0  0  0  0  0  0  0  0  0
  190.1440  176.3890  145.6730 C   0  0  2  0  0  3  0  0  0  0  0  0
  187.8560  177.6410  148.4940 C   0  0  0  0  0  2  0  0  0  0  0  0
  188.9030  178.0360  149.3460 O   0  0  0  0  0  0  0  0  0  0  0  0
  188.3830  176.6790  147.4310 C   0  0  0  0  0  2  0  0  0  0  0  0
  189.7520  178.8660  148.5900 C   0  0  0  0  0  2  0  0  0  0  0  0
  190.4880  178.0380  147.5370 C   0  0  0  0  0  2  0  0  0  0  0  0
  189.4600  177.3870  146.6110 C   0  0  0  0  0  3  0  0  0  0  0  0
  187.5650  175.6920  143.3460 O   0  0  0  0  0  1  0  0  0  0  0  0
  187.5930  177.0880  143.3300 C   0  0  1  0  0  3  0  0  0  0  0  0
  184.2250  179.1050  145.1630 C   0  0  0  0  0  3  0  0  0  0  0  0
  182.9350  179.0240  143.0950 C   0  0  0  0  0  1  0  0  0  0  0  0
  185.3530  178.1370  143.2230 C   0  0  0  0  0  0  0  0  0  0  0  0
  185.4080  178.0490  141.8340 O   0  0  0  0  0  1  0  0  0  0  0  0
  186.3600  177.6590  143.9760 C   0  0  0  0  0  0  0  0  0  0  0  0
  184.1810  178.7720  143.8700 C   0  0  0  0  0  0  0  0  0  0  0  0
  186.2350  177.6730  145.4820 C   0  0  0  0  0  2  0  0  0  0  0  0
  185.4910  178.9240  145.9520 C   0  0  0  0  0  2  0  0  0  0  0  0
  189.5940  178.6050  142.9860 C   0  0  0  0  0  2  0  0  0  0  0  0
  189.7240  177.1460  138.9540 C   0  0  0  0  0  3  0  0  0  0  0  0
  189.6320  178.0920  141.5860 C   0  0  0  0  0  0  0  0  0  0  0  0
  190.7020  177.2950  141.1650 C   0  0  0  0  0  3  0  0  0  0  0  0
  190.7470  176.8210  139.8510 C   0  0  0  0  0  3  0  0  0  0  0  0
  188.6540  177.9440  139.3730 C   0  0  0  0  0  3  0  0  0  0  0  0
  188.6080  178.4170  140.6880 C   0  0  0  0  0  3  0  0  0  0  0  0
  1 21  1  6  0  0  0
  1  3  1  0  0  0  0
  2  4  1  0  0  0  0
  3  2  1  0  0  0  0
  3  4  1  0  0  0  0
  4 10  1  1  0  0  0
  5  6  1  0  0  0  0
  7  5  1  0  0  0  0
  8  6  1  0  0  0  0
  9  8  1  0  0  0  0
 10  7  1  0  0  0  0
 10  9  1  0  0  0  0
 12 11  1  1  0  0  0
 12  1  1  0  0  0  0
 12 17  1  0  0  0  0
 13 20  1  0  0  0  0
 14 18  1  0  0  0  0
 15 18  1  0  0  0  0
 15 17  2  0  0  0  0
 16 15  1  0  0  0  0
 17 19  1  0  0  0  0
 18 13  2  0  0  0  0
 19 20  1  0  0  0  0
 22 26  2  0  0  0  0
 22 25  1  0  0  0  0
 23 21  1  0  0  0  0
 24 23  1  0  0  0  0
 25 24  2  0  0  0  0
 26 27  1  0  0  0  0
 27 23  2  0  0  0  0
M  END
>  <MODEL>
9

>  <REMARK>
 VINA RESULT:      -6.7      2.108      5.448
  Name = 
  6 active torsions:
  status: ('A' for Active; 'I' for Inactive)
    1  A    between atoms: C_2  and  C_6
    2  A    between atoms: C_2  and  N_15
    3  A    between atoms: C_2  and  C_19
    4  A    between atoms: C_6  and  C_9
    5  A    between atoms: C_14  and  C_19
    6  A    between atoms: C_18  and  C_26
                            x       y       z     vdW  Elec       q    Type
                         _______ _______ _______ _____ _____    ______ ____

>  <TORSDO>
F 6

$$$$
