=
 OpenBabel10272413173D

 32 35  0  0  1  0  0  0  0  0999 V2000
  189.0130  176.1600  143.3350 O   0  0  0  0  0  0  0  0  0  0  0  0
  190.3620  175.9180  142.9750 C   0  0  2  0  0  3  0  0  0  0  0  0
  188.9030  177.4400  143.9170 C   0  0  2  0  0  3  0  0  0  0  0  0
  189.6650  177.5070  145.2390 C   0  0  0  0  0  2  0  0  0  0  0  0
  191.3620  176.0360  144.1390 C   0  0  0  0  0  2  0  0  0  0  0  0
  191.1440  177.3190  144.9330 C   0  0  2  0  0  3  0  0  0  0  0  0
  187.4680  177.7990  144.1070 C   0  0  0  0  0  0  0  0  0  0  0  0
  186.9870  178.0580  145.3950 C   0  0  0  0  0  3  0  0  0  0  0  0
  183.0400  178.7230  142.3910 C   0  0  0  0  0  3  0  0  0  0  0  0
  186.5940  177.9020  143.0170 C   0  0  0  0  0  3  0  0  0  0  0  0
  183.4860  178.8670  144.7710 C   0  0  0  0  0  3  0  0  0  0  0  0
  184.8170  178.5080  144.5440 C   0  0  0  0  0  0  0  0  0  0  0  0
  185.6850  178.4040  145.5870 N   0  0  0  0  0  0  0  0  0  0  0  0
  185.2620  178.2560  143.2290 C   0  0  0  0  0  0  0  0  0  0  0  0
  182.6000  178.9770  143.6940 C   0  0  0  0  0  3  0  0  0  0  0  0
  184.3720  178.3610  142.1580 C   0  0  0  0  0  3  0  0  0  0  0  0
  190.7770  176.5130  141.6180 C   0  0  2  0  0  3  0  0  0  0  0  0
  191.6460  177.5920  141.7870 O   0  0  0  0  0  1  0  0  0  0  0  0
  189.6400  176.8450  140.6450 C   0  0  0  0  0  2  0  0  0  0  0  0
  190.0640  176.8880  139.1790 C   0  0  2  0  0  3  0  0  0  0  0  0
  188.8940  177.3640  138.3320 C   0  0  1  0  0  3  0  0  0  0  0  0
  187.9650  178.2210  139.1670 C   0  0  0  0  0  2  0  0  0  0  0  0
  188.9420  178.8740  138.2140 C   0  0  2  0  0  3  0  0  0  0  0  0
  188.2680  179.2600  137.0560 O   0  0  0  0  0  1  0  0  0  0  0  0
  190.4580  175.6160  138.7540 O   0  0  0  0  0  0  0  0  0  0  0  0
  191.3480  175.8480  137.7000 C   0  0  0  0  0  2  0  0  0  0  0  0
  193.8030  175.4920  137.8840 C   0  0  0  0  0  1  0  0  0  0  0  0
  192.6510  176.4130  138.2370 C   0  0  0  0  0  2  0  0  0  0  0  0
  191.9170  177.2730  146.1620 N   0  0  0  0  0  2  0  0  0  0  0  0
  191.2080  176.3950  147.0790 C   0  0  0  0  0  2  0  0  0  0  0  0
  193.0700  176.1920  148.5600 O   0  0  0  0  0  1  0  0  0  0  0  0
  192.1880  175.4610  147.7630 C   0  0  0  0  0  2  0  0  0  0  0  0
  1  3  1  0  0  0  0
  2 17  1  6  0  0  0
  2  1  1  0  0  0  0
  2  5  1  0  0  0  0
  3  7  1  1  0  0  0
  3  4  1  0  0  0  0
  5  6  1  0  0  0  0
  6  4  1  0  0  0  0
  6 29  1  1  0  0  0
  7  8  1  0  0  0  0
  8 13  2  0  0  0  0
  9 15  1  0  0  0  0
 10 14  1  0  0  0  0
 10  7  2  0  0  0  0
 12 11  1  0  0  0  0
 12 13  1  0  0  0  0
 14 12  2  0  0  0  0
 15 11  2  0  0  0  0
 16  9  2  0  0  0  0
 16 14  1  0  0  0  0
 17 18  1  1  0  0  0
 19 17  1  0  0  0  0
 20 19  1  1  0  0  0
 21 22  1  0  0  0  0
 21 20  1  1  0  0  0
 23 24  1  6  0  0  0
 23 21  1  0  0  0  0
 23 22  1  0  0  0  0
 25 20  1  0  0  0  0
 26 28  1  0  0  0  0
 26 25  1  0  0  0  0
 27 28  1  0  0  0  0
 29 30  1  0  0  0  0
 30 32  1  0  0  0  0
 32 31  1  0  0  0  0
M  END
>  <MODEL>
1

>  <REMARK>
 VINA RESULT:      -8.6      0.000      0.000
  Name = 
  11 active torsions:
  status: ('A' for Active; 'I' for Inactive)
    1  A    between atoms: C_2  and  C_5
    2  A    between atoms: C_3  and  C_20
    3  A    between atoms: C_4  and  C_24
    4  A    between atoms: C_13  and  N_18
    5  A    between atoms: C_13  and  C_29
    6  A    between atoms: O_15  and  C_20
    7  A    between atoms: O_15  and  C_26
    8  A    between atoms: C_16  and  C_20
    9  A    between atoms: C_16  and  C_24
   10  A    between atoms: N_18  and  C_30
   11  A    between atoms: C_19  and  C_26
                            x       y       z     vdW  Elec       q    Type
                         _______ _______ _______ _____ _____    ______ ____

>  <TORSDO>
F 11

$$$$
=
 OpenBabel10272413173D

 32 35  0  0  1  0  0  0  0  0999 V2000
  189.8470  178.3410  142.8170 O   0  0  0  0  0  0  0  0  0  0  0  0
  191.1450  177.7730  142.7880 C   0  0  2  0  0  3  0  0  0  0  0  0
  188.9420  177.4810  142.1590 C   0  0  2  0  0  3  0  0  0  0  0  0
  189.2740  177.3720  140.6720 C   0  0  0  0  0  2  0  0  0  0  0  0
  191.6720  177.4620  141.3760 C   0  0  0  0  0  2  0  0  0  0  0  0
  190.6380  176.7080  140.5490 C   0  0  2  0  0  3  0  0  0  0  0  0
  187.5420  177.9530  142.3630 C   0  0  0  0  0  0  0  0  0  0  0  0
  186.8060  178.4190  141.2680 C   0  0  0  0  0  3  0  0  0  0  0  0
  183.6800  178.7660  145.1600 C   0  0  0  0  0  3  0  0  0  0  0  0
  186.9400  177.9200  143.6270 C   0  0  0  0  0  3  0  0  0  0  0  0
  183.5950  179.2510  142.7850 C   0  0  0  0  0  3  0  0  0  0  0  0
  184.9170  178.8170  142.6490 C   0  0  0  0  0  0  0  0  0  0  0  0
  185.5220  178.8380  141.4300 N   0  0  0  0  0  0  0  0  0  0  0  0
  185.6230  178.3530  143.7790 C   0  0  0  0  0  0  0  0  0  0  0  0
  182.9780  179.2220  144.0400 C   0  0  0  0  0  3  0  0  0  0  0  0
  185.0040  178.3320  145.0300 C   0  0  0  0  0  3  0  0  0  0  0  0
  191.4110  176.7340  143.8910 C   0  0  2  0  0  3  0  0  0  0  0  0
  191.6750  175.4770  143.3450 O   0  0  0  0  0  1  0  0  0  0  0  0
  190.3760  176.6590  145.0200 C   0  0  0  0  0  2  0  0  0  0  0  0
  190.8730  177.1920  146.3610 C   0  0  2  0  0  3  0  0  0  0  0  0
  191.2160  176.0220  147.2700 C   0  0  1  0  0  3  0  0  0  0  0  0
  192.3510  175.2170  146.6730 C   0  0  0  0  0  2  0  0  0  0  0  0
  192.6260  176.1920  147.7970 C   0  0  2  0  0  3  0  0  0  0  0  0
  192.7500  175.4910  148.9950 O   0  0  0  0  0  1  0  0  0  0  0  0
  189.8860  177.9770  146.9640 O   0  0  0  0  0  0  0  0  0  0  0  0
  188.6810  177.3340  146.6620 C   0  0  0  0  0  2  0  0  0  0  0  0
  188.0830  178.0400  148.9720 C   0  0  0  0  0  1  0  0  0  0  0  0
  187.5730  177.8650  147.5540 C   0  0  0  0  0  2  0  0  0  0  0  0
  191.0580  176.6630  139.1590 N   0  0  0  0  0  2  0  0  0  0  0  0
  192.4820  176.9580  139.1350 C   0  0  0  0  0  2  0  0  0  0  0  0
  193.9050  176.9100  137.2180 O   0  0  0  0  0  1  0  0  0  0  0  0
  193.1710  176.1030  138.0880 C   0  0  0  0  0  2  0  0  0  0  0  0
  2  1  1  0  0  0  0
  2 17  1  1  0  0  0
  3  7  1  6  0  0  0
  3  1  1  0  0  0  0
  4  3  1  0  0  0  0
  5  2  1  0  0  0  0
  6 29  1  6  0  0  0
  6  4  1  0  0  0  0
  6  5  1  0  0  0  0
  7 10  1  0  0  0  0
  8 13  1  0  0  0  0
  8  7  2  0  0  0  0
 10 14  2  0  0  0  0
 11 15  2  0  0  0  0
 12 11  1  0  0  0  0
 12 14  1  0  0  0  0
 13 12  2  0  0  0  0
 14 16  1  0  0  0  0
 15  9  1  0  0  0  0
 16  9  2  0  0  0  0
 17 18  1  6  0  0  0
 17 19  1  0  0  0  0
 20 19  1  6  0  0  0
 20 25  1  0  0  0  0
 21 20  1  6  0  0  0
 21 23  1  0  0  0  0
 22 21  1  0  0  0  0
 22 23  1  0  0  0  0
 23 24  1  1  0  0  0
 26 25  1  0  0  0  0
 26 28  1  0  0  0  0
 28 27  1  0  0  0  0
 30 29  1  0  0  0  0
 31 32  1  0  0  0  0
 32 30  1  0  0  0  0
M  END
>  <MODEL>
2

>  <REMARK>
 VINA RESULT:      -7.9      2.339      6.737
  Name = 
  11 active torsions:
  status: ('A' for Active; 'I' for Inactive)
    1  A    between atoms: C_2  and  C_5
    2  A    between atoms: C_3  and  C_20
    3  A    between atoms: C_4  and  C_24
    4  A    between atoms: C_13  and  N_18
    5  A    between atoms: C_13  and  C_29
    6  A    between atoms: O_15  and  C_20
    7  A    between atoms: O_15  and  C_26
    8  A    between atoms: C_16  and  C_20
    9  A    between atoms: C_16  and  C_24
   10  A    between atoms: N_18  and  C_30
   11  A    between atoms: C_19  and  C_26
                            x       y       z     vdW  Elec       q    Type
                         _______ _______ _______ _____ _____    ______ ____

>  <TORSDO>
F 11

$$$$
=
 OpenBabel10272413173D

 32 35  0  0  1  0  0  0  0  0999 V2000
  188.9080  176.2770  142.9210 O   0  0  0  0  0  0  0  0  0  0  0  0
  190.2670  176.0760  142.5750 C   0  0  2  0  0  3  0  0  0  0  0  0
  188.7650  177.5280  143.5570 C   0  0  2  0  0  3  0  0  0  0  0  0
  189.5030  177.5490  144.8940 C   0  0  0  0  0  2  0  0  0  0  0  0
  191.2450  176.1590  143.7600 C   0  0  0  0  0  2  0  0  0  0  0  0
  190.9900  177.4010  144.6060 C   0  0  2  0  0  3  0  0  0  0  0  0
  187.3200  177.8530  143.7360 C   0  0  0  0  0  0  0  0  0  0  0  0
  186.8220  178.0890  145.0220 C   0  0  0  0  0  3  0  0  0  0  0  0
  182.8890  178.6940  141.9880 C   0  0  0  0  0  3  0  0  0  0  0  0
  186.4540  177.9460  142.6400 C   0  0  0  0  0  3  0  0  0  0  0  0
  183.3090  178.8250  144.3730 C   0  0  0  0  0  3  0  0  0  0  0  0
  184.6500  178.4980  144.1560 C   0  0  0  0  0  0  0  0  0  0  0  0
  185.5110  178.4040  145.2050 N   0  0  0  0  0  0  0  0  0  0  0  0
  185.1130  178.2690  142.8420 C   0  0  0  0  0  0  0  0  0  0  0  0
  182.4310  178.9250  143.2890 C   0  0  0  0  0  3  0  0  0  0  0  0
  184.2300  178.3640  141.7640 C   0  0  0  0  0  3  0  0  0  0  0  0
  190.6940  176.7380  141.2530 C   0  0  2  0  0  3  0  0  0  0  0  0
  191.6490  177.7310  141.4750 O   0  0  0  0  0  1  0  0  0  0  0  0
  189.5640  177.2280  140.3410 C   0  0  0  0  0  2  0  0  0  0  0  0
  189.4210  176.4390  139.0430 C   0  0  2  0  0  3  0  0  0  0  0  0
  190.4600  176.9240  138.0450 C   0  0  1  0  0  3  0  0  0  0  0  0
  191.6850  176.0340  138.0960 C   0  0  0  0  0  2  0  0  0  0  0  0
  190.6730  175.8620  136.9850 C   0  0  2  0  0  3  0  0  0  0  0  0
  191.1550  176.4680  135.8250 O   0  0  0  0  0  1  0  0  0  0  0  0
  188.1420  176.6180  138.5080 O   0  0  0  0  0  0  0  0  0  0  0  0
  187.9310  178.0000  138.5330 C   0  0  0  0  0  2  0  0  0  0  0  0
  185.4760  178.0870  138.1390 C   0  0  0  0  0  1  0  0  0  0  0  0
  186.8410  178.3760  137.5460 C   0  0  0  0  0  2  0  0  0  0  0  0
  191.7420  177.3140  145.8460 N   0  0  0  0  0  2  0  0  0  0  0  0
  191.9720  175.9020  146.1070 C   0  0  0  0  0  2  0  0  0  0  0  0
  193.0930  175.9500  148.2140 O   0  0  0  0  0  1  0  0  0  0  0  0
  191.8830  175.6300  147.5970 C   0  0  0  0  0  2  0  0  0  0  0  0
  1  3  1  0  0  0  0
  2 17  1  6  0  0  0
  2  1  1  0  0  0  0
  2  5  1  0  0  0  0
  3  7  1  1  0  0  0
  3  4  1  0  0  0  0
  5  6  1  0  0  0  0
  6  4  1  0  0  0  0
  6 29  1  1  0  0  0
  7  8  1  0  0  0  0
  8 13  2  0  0  0  0
  9 15  1  0  0  0  0
 10 14  1  0  0  0  0
 10  7  2  0  0  0  0
 12 11  1  0  0  0  0
 12 13  1  0  0  0  0
 14 12  2  0  0  0  0
 15 11  2  0  0  0  0
 16  9  2  0  0  0  0
 16 14  1  0  0  0  0
 17 18  1  1  0  0  0
 19 17  1  0  0  0  0
 20 19  1  1  0  0  0
 21 22  1  0  0  0  0
 21 20  1  1  0  0  0
 23 24  1  6  0  0  0
 23 21  1  0  0  0  0
 23 22  1  0  0  0  0
 25 26  1  0  0  0  0
 25 20  1  0  0  0  0
 28 27  1  0  0  0  0
 28 26  1  0  0  0  0
 29 30  1  0  0  0  0
 30 32  1  0  0  0  0
 32 31  1  0  0  0  0
M  END
>  <MODEL>
3

>  <REMARK>
 VINA RESULT:      -7.9      1.072      2.485
  Name = 
  11 active torsions:
  status: ('A' for Active; 'I' for Inactive)
    1  A    between atoms: C_2  and  C_5
    2  A    between atoms: C_3  and  C_20
    3  A    between atoms: C_4  and  C_24
    4  A    between atoms: C_13  and  N_18
    5  A    between atoms: C_13  and  C_29
    6  A    between atoms: O_15  and  C_20
    7  A    between atoms: O_15  and  C_26
    8  A    between atoms: C_16  and  C_20
    9  A    between atoms: C_16  and  C_24
   10  A    between atoms: N_18  and  C_30
   11  A    between atoms: C_19  and  C_26
                            x       y       z     vdW  Elec       q    Type
                         _______ _______ _______ _____ _____    ______ ____

>  <TORSDO>
F 11

$$$$
=
 OpenBabel10272413173D

 32 35  0  0  1  0  0  0  0  0999 V2000
  189.5160  176.8610  141.2810 O   0  0  0  0  0  0  0  0  0  0  0  0
  189.5890  177.1280  139.8920 C   0  0  2  0  0  3  0  0  0  0  0  0
  190.4920  177.6230  141.9580 C   0  0  2  0  0  3  0  0  0  0  0  0
  191.9000  177.1830  141.5620 C   0  0  0  0  0  2  0  0  0  0  0  0
  190.9690  176.8620  139.2640 C   0  0  0  0  0  2  0  0  0  0  0  0
  192.0850  177.4960  140.0850 C   0  0  2  0  0  3  0  0  0  0  0  0
  190.2930  177.5210  143.4340 C   0  0  0  0  0  0  0  0  0  0  0  0
  191.3850  177.2240  144.2560 C   0  0  0  0  0  3  0  0  0  0  0  0
  187.5230  177.7720  147.3910 C   0  0  0  0  0  3  0  0  0  0  0  0
  189.0380  177.7360  144.0150 C   0  0  0  0  0  3  0  0  0  0  0  0
  189.8870  177.2610  147.5810 C   0  0  0  0  0  3  0  0  0  0  0  0
  190.0180  177.3470  146.1930 C   0  0  0  0  0  0  0  0  0  0  0  0
  191.2280  177.1440  145.6060 N   0  0  0  0  0  0  0  0  0  0  0  0
  188.8910  177.6500  145.3990 C   0  0  0  0  0  0  0  0  0  0  0  0
  188.6400  177.4760  148.1790 C   0  0  0  0  0  3  0  0  0  0  0  0
  187.6480  177.8580  146.0000 C   0  0  0  0  0  3  0  0  0  0  0  0
  188.8370  178.3940  139.4450 C   0  0  2  0  0  3  0  0  0  0  0  0
  187.8640  178.7560  140.3780 O   0  0  0  0  0  1  0  0  0  0  0  0
  188.2810  178.3860  138.0160 C   0  0  0  0  0  2  0  0  0  0  0  0
  186.9000  177.7500  137.8860 C   0  0  2  0  0  3  0  0  0  0  0  0
  186.8640  176.8800  136.6390 C   0  0  1  0  0  3  0  0  0  0  0  0
  188.1160  176.0320  136.5610 C   0  0  0  0  0  2  0  0  0  0  0  0
  186.8200  175.4210  137.0450 C   0  0  2  0  0  3  0  0  0  0  0  0
  186.2460  174.6800  136.0130 O   0  0  0  0  0  1  0  0  0  0  0  0
  185.9190  178.7410  137.7910 O   0  0  0  0  0  0  0  0  0  0  0  0
  184.8260  178.2360  138.5030 C   0  0  0  0  0  2  0  0  0  0  0  0
  184.2250  178.4640  140.9060 C   0  0  0  0  0  1  0  0  0  0  0  0
  184.4290  179.2070  139.6000 C   0  0  0  0  0  2  0  0  0  0  0  0
  193.3730  177.0110  139.6190 N   0  0  0  0  0  2  0  0  0  0  0  0
  193.1870  176.5500  138.2520 C   0  0  0  0  0  2  0  0  0  0  0  0
  195.1030  175.2630  138.8590 O   0  0  0  0  0  1  0  0  0  0  0  0
  193.9900  175.2850  138.0180 C   0  0  0  0  0  2  0  0  0  0  0  0
  1  3  1  0  0  0  0
  2 17  1  1  0  0  0
  2  1  1  0  0  0  0
  3  7  1  1  0  0  0
  4  3  1  0  0  0  0
  5  2  1  0  0  0  0
  5  6  1  0  0  0  0
  6 29  1  6  0  0  0
  6  4  1  0  0  0  0
  7 10  2  0  0  0  0
  7  8  1  0  0  0  0
  8 13  2  0  0  0  0
  9 15  1  0  0  0  0
 10 14  1  0  0  0  0
 11 15  2  0  0  0  0
 12 11  1  0  0  0  0
 13 12  1  0  0  0  0
 14 16  1  0  0  0  0
 14 12  2  0  0  0  0
 16  9  2  0  0  0  0
 17 18  1  1  0  0  0
 19 17  1  0  0  0  0
 20 19  1  6  0  0  0
 21 23  1  0  0  0  0
 21 20  1  1  0  0  0
 22 21  1  0  0  0  0
 22 23  1  0  0  0  0
 23 24  1  6  0  0  0
 25 20  1  0  0  0  0
 25 26  1  0  0  0  0
 26 28  1  0  0  0  0
 28 27  1  0  0  0  0
 30 29  1  0  0  0  0
 32 30  1  0  0  0  0
 32 31  1  0  0  0  0
M  END
>  <MODEL>
4

>  <REMARK>
 VINA RESULT:      -7.8      2.564      5.859
  Name = 
  11 active torsions:
  status: ('A' for Active; 'I' for Inactive)
    1  A    between atoms: C_2  and  C_5
    2  A    between atoms: C_3  and  C_20
    3  A    between atoms: C_4  and  C_24
    4  A    between atoms: C_13  and  N_18
    5  A    between atoms: C_13  and  C_29
    6  A    between atoms: O_15  and  C_20
    7  A    between atoms: O_15  and  C_26
    8  A    between atoms: C_16  and  C_20
    9  A    between atoms: C_16  and  C_24
   10  A    between atoms: N_18  and  C_30
   11  A    between atoms: C_19  and  C_26
                            x       y       z     vdW  Elec       q    Type
                         _______ _______ _______ _____ _____    ______ ____

>  <TORSDO>
F 11

$$$$
=
 OpenBabel10272413173D

 32 35  0  0  1  0  0  0  0  0999 V2000
  189.0640  176.7350  141.6070 O   0  0  0  0  0  0  0  0  0  0  0  0
  189.0460  176.9410  140.2050 C   0  0  2  0  0  3  0  0  0  0  0  0
  189.9960  177.6130  142.1990 C   0  0  2  0  0  3  0  0  0  0  0  0
  191.4190  177.2830  141.7500 C   0  0  0  0  0  2  0  0  0  0  0  0
  190.4130  176.7700  139.5190 C   0  0  0  0  0  2  0  0  0  0  0  0
  191.5040  177.5400  140.2530 C   0  0  2  0  0  3  0  0  0  0  0  0
  189.8780  177.5650  143.6850 C   0  0  0  0  0  0  0  0  0  0  0  0
  191.0150  177.3080  144.4580 C   0  0  0  0  0  3  0  0  0  0  0  0
  187.3210  177.9410  147.7740 C   0  0  0  0  0  3  0  0  0  0  0  0
  188.6530  177.7920  144.3250 C   0  0  0  0  0  3  0  0  0  0  0  0
  189.6960  177.4560  147.8550 C   0  0  0  0  0  3  0  0  0  0  0  0
  189.7520  177.4910  146.4600 C   0  0  0  0  0  0  0  0  0  0  0  0
  190.9310  177.2760  145.8160 N   0  0  0  0  0  0  0  0  0  0  0  0
  188.5810  177.7560  145.7170 C   0  0  0  0  0  0  0  0  0  0  0  0
  188.4820  177.6830  148.5110 C   0  0  0  0  0  3  0  0  0  0  0  0
  187.3700  177.9760  146.3760 C   0  0  0  0  0  3  0  0  0  0  0  0
  188.1600  178.1100  139.7420 C   0  0  2  0  0  3  0  0  0  0  0  0
  188.8880  179.0180  138.9710 O   0  0  0  0  0  1  0  0  0  0  0  0
  187.3410  178.8150  140.8300 C   0  0  0  0  0  2  0  0  0  0  0  0
  185.9650  178.2030  141.0730 C   0  0  2  0  0  3  0  0  0  0  0  0
  184.8990  179.1140  140.4830 C   0  0  1  0  0  3  0  0  0  0  0  0
  184.7390  178.8350  139.0030 C   0  0  0  0  0  2  0  0  0  0  0  0
  183.7380  178.2750  139.9890 C   0  0  2  0  0  3  0  0  0  0  0  0
  182.5860  179.0600  139.9720 O   0  0  0  0  0  1  0  0  0  0  0  0
  185.7390  178.0490  142.4430 O   0  0  0  0  0  0  0  0  0  0  0  0
  185.3490  179.3170  142.8890 C   0  0  0  0  0  2  0  0  0  0  0  0
  183.1200  178.9260  143.9210 C   0  0  0  0  0  1  0  0  0  0  0  0
  184.5860  179.1950  144.1950 C   0  0  0  0  0  2  0  0  0  0  0  0
  192.8070  177.1510  139.7430 N   0  0  0  0  0  2  0  0  0  0  0  0
  192.5950  176.5710  138.4260 C   0  0  0  0  0  2  0  0  0  0  0  0
  193.3040  174.7250  137.0890 O   0  0  0  0  0  1  0  0  0  0  0  0
  193.7070  175.5900  138.1070 C   0  0  0  0  0  2  0  0  0  0  0  0
  1  3  1  0  0  0  0
  2 17  1  1  0  0  0
  2  1  1  0  0  0  0
  3  7  1  1  0  0  0
  4  3  1  0  0  0  0
  5  2  1  0  0  0  0
  5  6  1  0  0  0  0
  6 29  1  6  0  0  0
  6  4  1  0  0  0  0
  7 10  2  0  0  0  0
  7  8  1  0  0  0  0
  8 13  2  0  0  0  0
  9 15  1  0  0  0  0
 10 14  1  0  0  0  0
 11 15  2  0  0  0  0
 12 11  1  0  0  0  0
 13 12  1  0  0  0  0
 14 16  1  0  0  0  0
 14 12  2  0  0  0  0
 16  9  2  0  0  0  0
 17 18  1  1  0  0  0
 17 19  1  0  0  0  0
 20 19  1  1  0  0  0
 20 25  1  0  0  0  0
 21 20  1  1  0  0  0
 22 23  1  0  0  0  0
 22 21  1  0  0  0  0
 23 24  1  6  0  0  0
 23 21  1  0  0  0  0
 25 26  1  0  0  0  0
 26 28  1  0  0  0  0
 27 28  1  0  0  0  0
 30 29  1  0  0  0  0
 31 32  1  0  0  0  0
 32 30  1  0  0  0  0
M  END
>  <MODEL>
5

>  <REMARK>
 VINA RESULT:      -7.7      2.380      6.302
  Name = 
  11 active torsions:
  status: ('A' for Active; 'I' for Inactive)
    1  A    between atoms: C_2  and  C_5
    2  A    between atoms: C_3  and  C_20
    3  A    between atoms: C_4  and  C_24
    4  A    between atoms: C_13  and  N_18
    5  A    between atoms: C_13  and  C_29
    6  A    between atoms: O_15  and  C_20
    7  A    between atoms: O_15  and  C_26
    8  A    between atoms: C_16  and  C_20
    9  A    between atoms: C_16  and  C_24
   10  A    between atoms: N_18  and  C_30
   11  A    between atoms: C_19  and  C_26
                            x       y       z     vdW  Elec       q    Type
                         _______ _______ _______ _____ _____    ______ ____

>  <TORSDO>
F 11

$$$$
=
 OpenBabel10272413173D

 32 35  0  0  1  0  0  0  0  0999 V2000
  184.5990  179.5420  140.7210 O   0  0  0  0  0  0  0  0  0  0  0  0
  184.3280  179.3600  139.3420 C   0  0  2  0  0  3  0  0  0  0  0  0
  184.0500  178.4690  141.4540 C   0  0  2  0  0  3  0  0  0  0  0  0
  182.5250  178.4690  141.3650 C   0  0  0  0  0  2  0  0  0  0  0  0
  182.8340  179.2210  139.0000 C   0  0  0  0  0  2  0  0  0  0  0  0
  182.1450  178.2140  139.9140 C   0  0  2  0  0  3  0  0  0  0  0  0
  184.5050  178.5280  142.8740 C   0  0  0  0  0  0  0  0  0  0  0  0
  183.6590  179.0750  143.8450 C   0  0  0  0  0  3  0  0  0  0  0  0
  187.7510  177.6580  146.3530 C   0  0  0  0  0  3  0  0  0  0  0  0
  185.7550  178.0290  143.2580 C   0  0  0  0  0  3  0  0  0  0  0  0
  185.6310  178.7070  146.8910 C   0  0  0  0  0  3  0  0  0  0  0  0
  185.2590  178.6470  145.5450 C   0  0  0  0  0  0  0  0  0  0  0  0
  184.0480  179.1230  145.1480 N   0  0  0  0  0  0  0  0  0  0  0  0
  186.1410  178.0860  144.5970 C   0  0  0  0  0  0  0  0  0  0  0  0
  186.8750  178.2100  147.2930 C   0  0  0  0  0  3  0  0  0  0  0  0
  187.3850  177.5970  145.0040 C   0  0  0  0  0  3  0  0  0  0  0  0
  185.3130  178.4280  138.6160 C   0  0  2  0  0  3  0  0  0  0  0  0
  184.6570  177.3130  138.0920 O   0  0  0  0  0  1  0  0  0  0  0  0
  186.5750  178.0340  139.3920 C   0  0  0  0  0  2  0  0  0  0  0  0
  187.8510  178.0380  138.5550 C   0  0  2  0  0  3  0  0  0  0  0  0
  189.0310  178.4100  139.4400 C   0  0  1  0  0  3  0  0  0  0  0  0
  188.8200  177.8700  140.8390 C   0  0  0  0  0  2  0  0  0  0  0  0
  189.7440  177.1480  139.8820 C   0  0  2  0  0  3  0  0  0  0  0  0
  191.0660  177.4600  140.1950 O   0  0  0  0  0  1  0  0  0  0  0  0
  187.7420  178.9630  137.5120 O   0  0  0  0  0  0  0  0  0  0  0  0
  188.7570  178.6160  136.6150 C   0  0  0  0  0  2  0  0  0  0  0  0
  187.0230  177.7690  135.0450 C   0  0  0  0  0  1  0  0  0  0  0  0
  188.3170  177.4390  135.7630 C   0  0  0  0  0  2  0  0  0  0  0  0
  180.7050  178.3000  139.7420 N   0  0  0  0  0  2  0  0  0  0  0  0
  180.1350  177.0860  140.3020 C   0  0  0  0  0  2  0  0  0  0  0  0
  180.3550  174.7110  140.1930 O   0  0  0  0  0  1  0  0  0  0  0  0
  180.5460  175.8880  139.4680 C   0  0  0  0  0  2  0  0  0  0  0  0
  1  3  1  0  0  0  0
  2 17  1  1  0  0  0
  2  1  1  0  0  0  0
  3  7  1  1  0  0  0
  4  3  1  0  0  0  0
  5  2  1  0  0  0  0
  5  6  1  0  0  0  0
  6 29  1  1  0  0  0
  6  4  1  0  0  0  0
  7 10  2  0  0  0  0
  7  8  1  0  0  0  0
  8 13  2  0  0  0  0
  9 15  1  0  0  0  0
 10 14  1  0  0  0  0
 11 15  2  0  0  0  0
 12 11  1  0  0  0  0
 13 12  1  0  0  0  0
 14 16  1  0  0  0  0
 14 12  2  0  0  0  0
 16  9  2  0  0  0  0
 17 18  1  1  0  0  0
 17 19  1  0  0  0  0
 20 19  1  1  0  0  0
 21 20  1  6  0  0  0
 21 23  1  0  0  0  0
 21 22  1  0  0  0  0
 23 24  1  1  0  0  0
 23 22  1  0  0  0  0
 25 20  1  0  0  0  0
 26 25  1  0  0  0  0
 27 28  1  0  0  0  0
 28 26  1  0  0  0  0
 29 30  1  0  0  0  0
 32 31  1  0  0  0  0
 32 30  1  0  0  0  0
M  END
>  <MODEL>
6

>  <REMARK>
 VINA RESULT:      -7.5      3.182      7.066
  Name = 
  11 active torsions:
  status: ('A' for Active; 'I' for Inactive)
    1  A    between atoms: C_2  and  C_5
    2  A    between atoms: C_3  and  C_20
    3  A    between atoms: C_4  and  C_24
    4  A    between atoms: C_13  and  N_18
    5  A    between atoms: C_13  and  C_29
    6  A    between atoms: O_15  and  C_20
    7  A    between atoms: O_15  and  C_26
    8  A    between atoms: C_16  and  C_20
    9  A    between atoms: C_16  and  C_24
   10  A    between atoms: N_18  and  C_30
   11  A    between atoms: C_19  and  C_26
                            x       y       z     vdW  Elec       q    Type
                         _______ _______ _______ _____ _____    ______ ____

>  <TORSDO>
F 11

$$$$
=
 OpenBabel10272413173D

 32 35  0  0  1  0  0  0  0  0999 V2000
  189.4670  178.4450  143.3770 O   0  0  0  0  0  0  0  0  0  0  0  0
  190.7840  178.0130  143.0840 C   0  0  2  0  0  3  0  0  0  0  0  0
  188.5400  177.5380  142.8220 C   0  0  2  0  0  3  0  0  0  0  0  0
  188.6100  177.5490  141.2960 C   0  0  0  0  0  2  0  0  0  0  0  0
  191.0770  177.8400  141.5830 C   0  0  0  0  0  2  0  0  0  0  0  0
  189.9840  177.0340  140.8920 C   0  0  2  0  0  3  0  0  0  0  0  0
  187.1610  177.8530  143.2980 C   0  0  0  0  0  0  0  0  0  0  0  0
  186.9250  178.0090  144.6680 C   0  0  0  0  0  3  0  0  0  0  0  0
  182.4880  178.8100  142.4970 C   0  0  0  0  0  3  0  0  0  0  0  0
  186.1010  178.0170  142.3980 C   0  0  0  0  0  3  0  0  0  0  0  0
  183.3640  178.7910  144.7590 C   0  0  0  0  0  3  0  0  0  0  0  0
  184.6320  178.4750  144.2660 C   0  0  0  0  0  0  0  0  0  0  0  0
  185.6790  178.3140  145.1210 N   0  0  0  0  0  0  0  0  0  0  0  0
  184.8290  178.3280  142.8760 C   0  0  0  0  0  0  0  0  0  0  0  0
  182.2930  178.9600  143.8740 C   0  0  0  0  0  3  0  0  0  0  0  0
  183.7550  178.4920  141.9970 C   0  0  0  0  0  3  0  0  0  0  0  0
  191.3340  176.9440  144.0440 C   0  0  2  0  0  3  0  0  0  0  0  0
  191.8130  175.8370  143.3420 O   0  0  0  0  0  1  0  0  0  0  0  0
  190.4160  176.5320  145.2010 C   0  0  0  0  0  2  0  0  0  0  0  0
  190.8420  177.0750  146.5620 C   0  0  2  0  0  3  0  0  0  0  0  0
  191.2770  175.9200  147.4490 C   0  0  1  0  0  3  0  0  0  0  0  0
  192.3550  175.1120  146.7580 C   0  0  0  0  0  2  0  0  0  0  0  0
  192.7300  176.1040  147.8370 C   0  0  2  0  0  3  0  0  0  0  0  0
  192.9720  175.4200  149.0280 O   0  0  0  0  0  1  0  0  0  0  0  0
  189.7780  177.7520  147.1650 O   0  0  0  0  0  0  0  0  0  0  0  0
  189.0260  176.7530  147.7930 C   0  0  0  0  0  2  0  0  0  0  0  0
  187.6600  178.7870  148.2240 C   0  0  0  0  0  1  0  0  0  0  0  0
  187.6380  177.2750  148.1150 C   0  0  0  0  0  2  0  0  0  0  0  0
  190.1530  177.1130  139.4510 N   0  0  0  0  0  2  0  0  0  0  0  0
  188.8800  177.5420  138.8940 C   0  0  0  0  0  2  0  0  0  0  0  0
  187.8860  179.0860  137.3680 O   0  0  0  0  0  1  0  0  0  0  0  0
  189.1090  178.5940  137.8270 C   0  0  0  0  0  2  0  0  0  0  0  0
  2  1  1  0  0  0  0
  2 17  1  1  0  0  0
  3  7  1  6  0  0  0
  3  1  1  0  0  0  0
  4  3  1  0  0  0  0
  5  2  1  0  0  0  0
  6 29  1  6  0  0  0
  6  4  1  0  0  0  0
  6  5  1  0  0  0  0
  7  8  1  0  0  0  0
  8 13  2  0  0  0  0
  9 15  1  0  0  0  0
 10 14  1  0  0  0  0
 10  7  2  0  0  0  0
 12 11  1  0  0  0  0
 12 13  1  0  0  0  0
 14 12  2  0  0  0  0
 15 11  2  0  0  0  0
 16  9  2  0  0  0  0
 16 14  1  0  0  0  0
 17 18  1  6  0  0  0
 17 19  1  0  0  0  0
 20 19  1  6  0  0  0
 20 25  1  0  0  0  0
 21 20  1  6  0  0  0
 21 23  1  0  0  0  0
 22 21  1  0  0  0  0
 22 23  1  0  0  0  0
 23 24  1  1  0  0  0
 25 26  1  0  0  0  0
 26 28  1  0  0  0  0
 28 27  1  0  0  0  0
 30 29  1  0  0  0  0
 31 32  1  0  0  0  0
 32 30  1  0  0  0  0
M  END
>  <MODEL>
7

>  <REMARK>
 VINA RESULT:      -7.5      2.108      6.808
  Name = 
  11 active torsions:
  status: ('A' for Active; 'I' for Inactive)
    1  A    between atoms: C_2  and  C_5
    2  A    between atoms: C_3  and  C_20
    3  A    between atoms: C_4  and  C_24
    4  A    between atoms: C_13  and  N_18
    5  A    between atoms: C_13  and  C_29
    6  A    between atoms: O_15  and  C_20
    7  A    between atoms: O_15  and  C_26
    8  A    between atoms: C_16  and  C_20
    9  A    between atoms: C_16  and  C_24
   10  A    between atoms: N_18  and  C_30
   11  A    between atoms: C_19  and  C_26
                            x       y       z     vdW  Elec       q    Type
                         _______ _______ _______ _____ _____    ______ ____

>  <TORSDO>
F 11

$$$$
=
 OpenBabel10272413173D

 32 35  0  0  1  0  0  0  0  0999 V2000
  188.8990  176.8500  141.6390 O   0  0  0  0  0  0  0  0  0  0  0  0
  188.8320  177.0870  140.2440 C   0  0  2  0  0  3  0  0  0  0  0  0
  189.8950  177.6710  142.2090 C   0  0  2  0  0  3  0  0  0  0  0  0
  191.2810  177.2860  141.6930 C   0  0  0  0  0  2  0  0  0  0  0  0
  190.1600  176.8690  139.4970 C   0  0  0  0  0  2  0  0  0  0  0  0
  191.3150  177.5720  140.1990 C   0  0  2  0  0  3  0  0  0  0  0  0
  189.8360  177.5940  143.6980 C   0  0  0  0  0  0  0  0  0  0  0  0
  190.9940  177.2770  144.4170 C   0  0  0  0  0  3  0  0  0  0  0  0
  187.4680  177.9770  147.8980 C   0  0  0  0  0  3  0  0  0  0  0  0
  188.6490  177.8530  144.3930 C   0  0  0  0  0  3  0  0  0  0  0  0
  189.8240  177.4020  147.8690 C   0  0  0  0  0  3  0  0  0  0  0  0
  189.8230  177.4650  146.4730 C   0  0  0  0  0  0  0  0  0  0  0  0
  190.9650  177.2200  145.7760 N   0  0  0  0  0  0  0  0  0  0  0  0
  188.6340  177.7900  145.7850 C   0  0  0  0  0  0  0  0  0  0  0  0
  188.6470  177.6600  148.5800 C   0  0  0  0  0  3  0  0  0  0  0  0
  187.4600  178.0410  146.5000 C   0  0  0  0  0  3  0  0  0  0  0  0
  187.9830  178.3070  139.8440 C   0  0  2  0  0  3  0  0  0  0  0  0
  188.3400  179.4330  140.5870 O   0  0  0  0  0  1  0  0  0  0  0  0
  186.4650  178.1000  139.8170 C   0  0  0  0  0  2  0  0  0  0  0  0
  185.6840  179.0820  140.6860 C   0  0  2  0  0  3  0  0  0  0  0  0
  184.8330  178.3070  141.6790 C   0  0  1  0  0  3  0  0  0  0  0  0
  185.6200  178.0480  142.9460 C   0  0  0  0  0  2  0  0  0  0  0  0
  184.5950  179.1590  142.9090 C   0  0  2  0  0  3  0  0  0  0  0  0
  183.4280  178.7310  143.5390 O   0  0  0  0  0  1  0  0  0  0  0  0
  184.8590  179.8810  139.8890 O   0  0  0  0  0  0  0  0  0  0  0  0
  184.2640  178.9950  138.9860 C   0  0  0  0  0  2  0  0  0  0  0  0
  181.9190  179.2160  139.7860 C   0  0  0  0  0  1  0  0  0  0  0  0
  182.8680  179.4750  138.6320 C   0  0  0  0  0  2  0  0  0  0  0  0
  192.5770  177.1350  139.6260 N   0  0  0  0  0  2  0  0  0  0  0  0
  192.2750  176.5390  138.3350 C   0  0  0  0  0  2  0  0  0  0  0  0
  194.1170  176.5100  136.8160 O   0  0  0  0  0  1  0  0  0  0  0  0
  193.4820  175.7780  137.8210 C   0  0  0  0  0  2  0  0  0  0  0  0
  1  3  1  0  0  0  0
  2 17  1  1  0  0  0
  2  1  1  0  0  0  0
  3  7  1  1  0  0  0
  4  3  1  0  0  0  0
  5  6  1  0  0  0  0
  5  2  1  0  0  0  0
  6 29  1  6  0  0  0
  6  4  1  0  0  0  0
  7 10  2  0  0  0  0
  7  8  1  0  0  0  0
  8 13  2  0  0  0  0
  9 15  1  0  0  0  0
 10 14  1  0  0  0  0
 11 15  2  0  0  0  0
 12 11  1  0  0  0  0
 13 12  1  0  0  0  0
 14 12  2  0  0  0  0
 14 16  1  0  0  0  0
 16  9  2  0  0  0  0
 17 18  1  1  0  0  0
 19 17  1  0  0  0  0
 20 19  1  6  0  0  0
 21 20  1  6  0  0  0
 21 23  1  0  0  0  0
 21 22  1  0  0  0  0
 23 22  1  0  0  0  0
 23 24  1  1  0  0  0
 25 20  1  0  0  0  0
 26 25  1  0  0  0  0
 28 26  1  0  0  0  0
 28 27  1  0  0  0  0
 30 29  1  0  0  0  0
 31 32  1  0  0  0  0
 32 30  1  0  0  0  0
M  END
>  <MODEL>
8

>  <REMARK>
 VINA RESULT:      -7.2      2.582      6.473
  Name = 
  11 active torsions:
  status: ('A' for Active; 'I' for Inactive)
    1  A    between atoms: C_2  and  C_5
    2  A    between atoms: C_3  and  C_20
    3  A    between atoms: C_4  and  C_24
    4  A    between atoms: C_13  and  N_18
    5  A    between atoms: C_13  and  C_29
    6  A    between atoms: O_15  and  C_20
    7  A    between atoms: O_15  and  C_26
    8  A    between atoms: C_16  and  C_20
    9  A    between atoms: C_16  and  C_24
   10  A    between atoms: N_18  and  C_30
   11  A    between atoms: C_19  and  C_26
                            x       y       z     vdW  Elec       q    Type
                         _______ _______ _______ _____ _____    ______ ____

>  <TORSDO>
F 11

$$$$
=
 OpenBabel10272413173D

 32 35  0  0  1  0  0  0  0  0999 V2000
  185.5930  179.3990  141.6750 O   0  0  0  0  0  0  0  0  0  0  0  0
  185.2190  179.2570  140.3160 C   0  0  2  0  0  3  0  0  0  0  0  0
  185.0660  178.3250  142.4220 C   0  0  2  0  0  3  0  0  0  0  0  0
  183.5400  178.3710  142.4440 C   0  0  0  0  0  2  0  0  0  0  0  0
  183.7000  179.1680  140.0800 C   0  0  0  0  0  2  0  0  0  0  0  0
  183.0490  178.1610  141.0190 C   0  0  2  0  0  3  0  0  0  0  0  0
  185.6230  178.3390  143.8070 C   0  0  0  0  0  0  0  0  0  0  0  0
  184.8630  178.8780  144.8490 C   0  0  0  0  0  3  0  0  0  0  0  0
  189.0910  177.3110  147.0190 C   0  0  0  0  0  3  0  0  0  0  0  0
  186.8860  177.8040  144.0870 C   0  0  0  0  0  3  0  0  0  0  0  0
  187.0400  178.3900  147.7340 C   0  0  0  0  0  3  0  0  0  0  0  0
  186.5700  178.3730  146.4180 C   0  0  0  0  0  0  0  0  0  0  0  0
  185.3450  178.8840  146.1210 N   0  0  0  0  0  0  0  0  0  0  0  0
  187.3690  177.8180  145.3950 C   0  0  0  0  0  0  0  0  0  0  0  0
  188.2980  177.8570  148.0340 C   0  0  0  0  0  3  0  0  0  0  0  0
  188.6270  177.2920  145.6990 C   0  0  0  0  0  3  0  0  0  0  0  0
  186.1210  178.3150  139.5000 C   0  0  2  0  0  3  0  0  0  0  0  0
  187.4520  178.4180  139.9060 O   0  0  0  0  0  1  0  0  0  0  0  0
  185.9820  178.3910  137.9750 C   0  0  0  0  0  2  0  0  0  0  0  0
  186.7330  177.2950  137.2240 C   0  0  2  0  0  3  0  0  0  0  0  0
  187.6940  177.9340  136.2330 C   0  0  1  0  0  3  0  0  0  0  0  0
  188.8270  178.6130  136.9740 C   0  0  0  0  0  2  0  0  0  0  0  0
  189.0460  177.2580  136.3380 C   0  0  2  0  0  3  0  0  0  0  0  0
  189.7290  177.4200  135.1330 O   0  0  0  0  0  1  0  0  0  0  0  0
  185.8320  176.4770  136.5360 O   0  0  0  0  0  0  0  0  0  0  0  0
  186.3060  175.1760  136.7310 C   0  0  0  0  0  2  0  0  0  0  0  0
  185.5640  173.0190  137.7250 C   0  0  0  0  0  1  0  0  0  0  0  0
  185.1400  174.2190  136.9000 C   0  0  0  0  0  2  0  0  0  0  0  0
  181.6040  178.2910  140.9540 N   0  0  0  0  0  2  0  0  0  0  0  0
  181.1290  178.4720  142.3170 C   0  0  0  0  0  2  0  0  0  0  0  0
  180.4000  180.6570  142.9430 O   0  0  0  0  0  1  0  0  0  0  0  0
  179.9860  179.4680  142.3400 C   0  0  0  0  0  2  0  0  0  0  0  0
  1  3  1  0  0  0  0
  2 17  1  1  0  0  0
  2  1  1  0  0  0  0
  3  4  1  0  0  0  0
  3  7  1  1  0  0  0
  5  2  1  0  0  0  0
  5  6  1  0  0  0  0
  6 29  1  1  0  0  0
  6  4  1  0  0  0  0
  7 10  2  0  0  0  0
  7  8  1  0  0  0  0
  8 13  2  0  0  0  0
  9 15  1  0  0  0  0
 10 14  1  0  0  0  0
 11 15  2  0  0  0  0
 12 11  1  0  0  0  0
 13 12  1  0  0  0  0
 14 16  1  0  0  0  0
 14 12  2  0  0  0  0
 16  9  2  0  0  0  0
 17 18  1  6  0  0  0
 19 17  1  0  0  0  0
 20 19  1  6  0  0  0
 21 23  1  0  0  0  0
 21 22  1  0  0  0  0
 21 20  1  1  0  0  0
 23 24  1  6  0  0  0
 23 22  1  0  0  0  0
 25 26  1  0  0  0  0
 25 20  1  0  0  0  0
 26 28  1  0  0  0  0
 28 27  1  0  0  0  0
 29 30  1  0  0  0  0
 30 32  1  0  0  0  0
 32 31  1  0  0  0  0
M  END
>  <MODEL>
9

>  <REMARK>
 VINA RESULT:      -7.2      3.525      6.777
  Name = 
  11 active torsions:
  status: ('A' for Active; 'I' for Inactive)
    1  A    between atoms: C_2  and  C_5
    2  A    between atoms: C_3  and  C_20
    3  A    between atoms: C_4  and  C_24
    4  A    between atoms: C_13  and  N_18
    5  A    between atoms: C_13  and  C_29
    6  A    between atoms: O_15  and  C_20
    7  A    between atoms: O_15  and  C_26
    8  A    between atoms: C_16  and  C_20
    9  A    between atoms: C_16  and  C_24
   10  A    between atoms: N_18  and  C_30
   11  A    between atoms: C_19  and  C_26
                            x       y       z     vdW  Elec       q    Type
                         _______ _______ _______ _____ _____    ______ ____

>  <TORSDO>
F 11

$$$$
