=
 OpenBabel10272401093D

 27 30  0  0  1  0  0  0  0  0999 V2000
  189.0680  177.2150  143.8990 C   0  0  2  0  0  3  0  0  0  0  0  0
  186.7880  177.7790  143.0840 N   0  0  0  0  0  0  0  0  0  0  0  0
  183.6730  178.7300  144.7800 C   0  0  0  0  0  3  0  0  0  0  0  0
  181.4980  179.2510  143.8760 O   0  0  0  0  0  1  0  0  0  0  0  0
  187.1970  177.8320  145.4410 C   0  0  0  0  0  3  0  0  0  0  0  0
  184.6350  178.2940  142.1800 C   0  0  0  0  0  3  0  0  0  0  0  0
  183.3020  178.6650  142.3840 C   0  0  0  0  0  3  0  0  0  0  0  0
  185.4910  178.1400  143.2740 C   0  0  0  0  0  0  0  0  0  0  0  0
  182.8220  178.8830  143.6800 C   0  0  0  0  0  0  0  0  0  0  0  0
  185.0060  178.3600  144.5820 C   0  0  0  0  0  0  0  0  0  0  0  0
  187.6440  177.6220  144.1330 C   0  0  0  0  0  0  0  0  0  0  0  0
  185.8710  178.2030  145.6650 C   0  0  0  0  0  3  0  0  0  0  0  0
  191.3840  176.6190  147.5230 C   0  0  0  0  0  3  0  0  0  0  0  0
  189.7380  176.7310  145.1910 C   0  0  1  0  0  3  0  0  0  0  0  0
  191.2500  176.5890  145.0070 C   0  0  0  0  0  2  0  0  0  0  0  0
  191.8540  175.9490  146.2560 C   0  0  0  0  0  2  0  0  0  0  0  0
  190.2820  177.3850  147.5660 C   0  0  0  0  0  3  0  0  0  0  0  0
  189.4890  177.7240  146.3310 C   0  0  0  0  0  2  0  0  0  0  0  0
  189.9900  178.6130  143.1660 S   0  0  0  0  0  0  0  0  0  0  0  0
  192.3100  177.1980  141.8210 F   0  0  0  0  0  0  0  0  0  0  0  0
  190.0520  176.7140  138.9870 C   0  0  0  0  0  0  0  0  0  0  0  0
  190.0630  176.1400  137.7240 O   0  0  0  0  0  1  0  0  0  0  0  0
  190.0260  177.8680  141.5370 C   0  0  0  0  0  0  0  0  0  0  0  0
  191.1990  176.6710  139.7850 C   0  0  0  0  0  3  0  0  0  0  0  0
  188.8930  177.3360  139.4610 C   0  0  0  0  0  3  0  0  0  0  0  0
  188.8810  177.9140  140.7340 C   0  0  0  0  0  3  0  0  0  0  0  0
  191.1910  177.2490  141.0580 C   0  0  0  0  0  0  0  0  0  0  0  0
  1 19  1  1  0  0  0
  1 11  1  0  0  0  0
  2  8  2  0  0  0  0
  2 11  1  0  0  0  0
  5 12  1  0  0  0  0
  6  7  2  0  0  0  0
  6  8  1  0  0  0  0
  7  9  1  0  0  0  0
  8 10  1  0  0  0  0
  9  4  1  0  0  0  0
  9  3  2  0  0  0  0
 10  3  1  0  0  0  0
 10 12  2  0  0  0  0
 11  5  2  0  0  0  0
 13 17  2  0  0  0  0
 14  1  1  6  0  0  0
 14 18  1  0  0  0  0
 15 14  1  0  0  0  0
 15 16  1  0  0  0  0
 16 13  1  0  0  0  0
 18 17  1  0  0  0  0
 21 25  2  0  0  0  0
 21 24  1  0  0  0  0
 22 21  1  0  0  0  0
 23 19  1  0  0  0  0
 24 27  2  0  0  0  0
 25 26  1  0  0  0  0
 26 23  2  0  0  0  0
 27 23  1  0  0  0  0
 27 20  1  0  0  0  0
M  END
>  <MODEL>
1

>  <REMARK>
 VINA RESULT:      -9.5      0.000      0.000
  Name = 
  4 active torsions:
  status: ('A' for Active; 'I' for Inactive)
    1  A    between atoms: S_1  and  C_15
    2  A    between atoms: S_1  and  C_18
    3  A    between atoms: C_9  and  C_15
    4  A    between atoms: C_15  and  C_19
                            x       y       z     vdW  Elec       q    Type
                         _______ _______ _______ _____ _____    ______ ____

>  <TORSDO>
F 4

$$$$
=
 OpenBabel10272401093D

 27 30  0  0  1  0  0  0  0  0999 V2000
  188.1250  177.5590  142.2130 C   0  0  2  0  0  3  0  0  0  0  0  0
  185.7070  178.0610  141.9350 N   0  0  0  0  0  0  0  0  0  0  0  0
  182.9900  178.7530  144.3060 C   0  0  0  0  0  3  0  0  0  0  0  0
  180.6570  179.2220  143.9150 O   0  0  0  0  0  1  0  0  0  0  0  0
  186.6030  177.9880  144.1520 C   0  0  0  0  0  3  0  0  0  0  0  0
  183.3950  178.5260  141.5390 C   0  0  0  0  0  3  0  0  0  0  0  0
  182.1230  178.8180  142.0420 C   0  0  0  0  0  3  0  0  0  0  0  0
  184.4680  178.3470  142.4160 C   0  0  0  0  0  0  0  0  0  0  0  0
  181.9210  178.9320  143.4220 C   0  0  0  0  0  0  0  0  0  0  0  0
  184.2630  178.4610  143.8080 C   0  0  0  0  0  0  0  0  0  0  0  0
  186.7710  177.8810  142.7680 C   0  0  0  0  0  0  0  0  0  0  0  0
  185.3420  178.2790  144.6730 C   0  0  0  0  0  3  0  0  0  0  0  0
  191.6580  177.1910  144.7110 C   0  0  0  0  0  3  0  0  0  0  0  0
  189.1680  177.3950  143.3260 C   0  0  1  0  0  3  0  0  0  0  0  0
  190.0280  176.1510  143.0960 C   0  0  0  0  0  2  0  0  0  0  0  0
  190.9350  175.9310  144.3060 C   0  0  0  0  0  2  0  0  0  0  0  0
  191.2470  178.4110  144.3310 C   0  0  0  0  0  3  0  0  0  0  0  0
  190.0960  178.6120  143.3780 C   0  0  0  0  0  2  0  0  0  0  0  0
  188.6280  178.8630  141.0340 S   0  0  0  0  0  0  0  0  0  0  0  0
  191.3780  177.6700  140.5770 F   0  0  0  0  0  0  0  0  0  0  0  0
  189.8530  175.8340  137.8090 C   0  0  0  0  0  0  0  0  0  0  0  0
  190.2160  174.9160  136.8330 O   0  0  0  0  0  1  0  0  0  0  0  0
  189.1180  177.6800  139.7800 C   0  0  0  0  0  0  0  0  0  0  0  0
  190.8060  176.3020  138.7170 C   0  0  0  0  0  3  0  0  0  0  0  0
  188.5340  176.2890  137.8820 C   0  0  0  0  0  3  0  0  0  0  0  0
  188.1670  177.2130  138.8650 C   0  0  0  0  0  3  0  0  0  0  0  0
  190.4430  177.2260  139.7020 C   0  0  0  0  0  0  0  0  0  0  0  0
  1 19  1  6  0  0  0
  1 11  1  0  0  0  0
  2  8  2  0  0  0  0
  2 11  1  0  0  0  0
  5 12  1  0  0  0  0
  6  7  2  0  0  0  0
  6  8  1  0  0  0  0
  7  9  1  0  0  0  0
  8 10  1  0  0  0  0
  9  4  1  0  0  0  0
  9  3  2  0  0  0  0
 10  3  1  0  0  0  0
 10 12  2  0  0  0  0
 11  5  2  0  0  0  0
 14  1  1  6  0  0  0
 14 18  1  0  0  0  0
 15 14  1  0  0  0  0
 15 16  1  0  0  0  0
 16 13  1  0  0  0  0
 17 13  2  0  0  0  0
 18 17  1  0  0  0  0
 21 25  2  0  0  0  0
 21 24  1  0  0  0  0
 22 21  1  0  0  0  0
 23 19  1  0  0  0  0
 24 27  2  0  0  0  0
 25 26  1  0  0  0  0
 26 23  2  0  0  0  0
 27 23  1  0  0  0  0
 27 20  1  0  0  0  0
M  END
>  <MODEL>
2

>  <REMARK>
 VINA RESULT:      -9.5      1.566      1.883
  Name = 
  4 active torsions:
  status: ('A' for Active; 'I' for Inactive)
    1  A    between atoms: S_1  and  C_15
    2  A    between atoms: S_1  and  C_18
    3  A    between atoms: C_9  and  C_15
    4  A    between atoms: C_15  and  C_19
                            x       y       z     vdW  Elec       q    Type
                         _______ _______ _______ _____ _____    ______ ____

>  <TORSDO>
F 4

$$$$
=
 OpenBabel10272401093D

 27 30  0  0  1  0  0  0  0  0999 V2000
  189.2700  177.6640  143.6160 C   0  0  2  0  0  3  0  0  0  0  0  0
  189.7470  176.9980  141.2690 N   0  0  0  0  0  0  0  0  0  0  0  0
  192.7720  177.0980  139.1900 C   0  0  0  0  0  3  0  0  0  0  0  0
  193.1170  176.4260  136.9000 O   0  0  0  0  0  1  0  0  0  0  0  0
  191.5340  177.9020  142.5790 C   0  0  0  0  0  3  0  0  0  0  0  0
  190.0810  176.3280  138.9980 C   0  0  0  0  0  3  0  0  0  0  0  0
  190.9340  176.1870  137.8990 C   0  0  0  0  0  3  0  0  0  0  0  0
  190.5700  176.8560  140.1960 C   0  0  0  0  0  0  0  0  0  0  0  0
  192.2760  176.5700  137.9940 C   0  0  0  0  0  0  0  0  0  0  0  0
  191.9250  177.2420  140.2920 C   0  0  0  0  0  0  0  0  0  0  0  0
  190.1980  177.5080  142.4500 C   0  0  0  0  0  0  0  0  0  0  0  0
  192.4000  177.7670  141.4940 C   0  0  0  0  0  3  0  0  0  0  0  0
  191.1580  176.6660  147.3960 C   0  0  0  0  0  3  0  0  0  0  0  0
  190.0230  177.6090  144.9510 C   0  0  1  0  0  3  0  0  0  0  0  0
  189.0790  177.2600  146.1030 C   0  0  0  0  0  2  0  0  0  0  0  0
  189.8300  177.3800  147.4280 C   0  0  0  0  0  2  0  0  0  0  0  0
  191.7700  176.3330  146.2490 C   0  0  0  0  0  3  0  0  0  0  0  0
  191.1280  176.5490  144.9020 C   0  0  0  0  0  2  0  0  0  0  0  0
  187.9760  176.3740  143.5420 S   0  0  0  0  0  0  0  0  0  0  0  0
  186.8840  178.1370  141.3300 F   0  0  0  0  0  0  0  0  0  0  0  0
  184.5520  179.4170  143.8370 C   0  0  0  0  0  0  0  0  0  0  0  0
  183.5140  180.3340  143.9320 O   0  0  0  0  0  1  0  0  0  0  0  0
  186.6400  177.5640  143.6450 C   0  0  0  0  0  0  0  0  0  0  0  0
  185.2110  179.2310  142.6180 C   0  0  0  0  0  3  0  0  0  0  0  0
  184.9380  178.6800  144.9600 C   0  0  0  0  0  3  0  0  0  0  0  0
  185.9820  177.7560  144.8650 C   0  0  0  0  0  3  0  0  0  0  0  0
  186.2560  178.3080  142.5190 C   0  0  0  0  0  0  0  0  0  0  0  0
  1 19  1  1  0  0  0
  2 11  1  0  0  0  0
  3 10  1  0  0  0  0
  4  9  1  0  0  0  0
  6  8  1  0  0  0  0
  7  9  1  0  0  0  0
  7  6  2  0  0  0  0
  8 10  1  0  0  0  0
  8  2  2  0  0  0  0
  9  3  2  0  0  0  0
 10 12  2  0  0  0  0
 11  5  2  0  0  0  0
 11  1  1  0  0  0  0
 12  5  1  0  0  0  0
 13 16  1  0  0  0  0
 14  1  1  6  0  0  0
 14 15  1  0  0  0  0
 15 16  1  0  0  0  0
 17 13  2  0  0  0  0
 18 14  1  0  0  0  0
 18 17  1  0  0  0  0
 19 23  1  0  0  0  0
 20 27  1  0  0  0  0
 21 22  1  0  0  0  0
 21 25  1  0  0  0  0
 23 26  1  0  0  0  0
 24 21  2  0  0  0  0
 26 25  2  0  0  0  0
 27 24  1  0  0  0  0
 27 23  2  0  0  0  0
M  END
>  <MODEL>
3

>  <REMARK>
 VINA RESULT:      -9.4      1.880      6.585
  Name = 
  4 active torsions:
  status: ('A' for Active; 'I' for Inactive)
    1  A    between atoms: S_1  and  C_15
    2  A    between atoms: S_1  and  C_18
    3  A    between atoms: C_9  and  C_15
    4  A    between atoms: C_15  and  C_19
                            x       y       z     vdW  Elec       q    Type
                         _______ _______ _______ _____ _____    ______ ____

>  <TORSDO>
F 4

$$$$
=
 OpenBabel10272401093D

 27 30  0  0  1  0  0  0  0  0999 V2000
  189.1400  177.2180  141.1370 C   0  0  2  0  0  3  0  0  0  0  0  0
  187.6450  177.4520  143.1090 N   0  0  0  0  0  0  0  0  0  0  0  0
  184.3840  179.0610  143.6180 C   0  0  0  0  0  3  0  0  0  0  0  0
  183.0180  179.2320  145.5990 O   0  0  0  0  0  1  0  0  0  0  0  0
  186.9460  178.4160  141.0330 C   0  0  0  0  0  3  0  0  0  0  0  0
  186.2970  177.6170  145.0770 C   0  0  0  0  0  3  0  0  0  0  0  0
  185.1300  178.0680  145.7010 C   0  0  0  0  0  3  0  0  0  0  0  0
  186.5120  177.8860  143.7220 C   0  0  0  0  0  0  0  0  0  0  0  0
  184.1750  178.7880  144.9730 C   0  0  0  0  0  0  0  0  0  0  0  0
  185.5480  178.6120  142.9890 C   0  0  0  0  0  0  0  0  0  0  0  0
  187.8800  177.7000  141.7890 C   0  0  0  0  0  0  0  0  0  0  0  0
  185.7750  178.8740  141.6380 C   0  0  0  0  0  3  0  0  0  0  0  0
  191.8880  177.2040  144.4990 C   0  0  0  0  0  3  0  0  0  0  0  0
  190.3280  177.2520  142.1070 C   0  0  1  0  0  3  0  0  0  0  0  0
  190.2230  178.4380  143.0670 C   0  0  0  0  0  2  0  0  0  0  0  0
  191.5010  178.5320  143.8980 C   0  0  0  0  0  2  0  0  0  0  0  0
  191.4170  176.0380  144.0310 C   0  0  0  0  0  3  0  0  0  0  0  0
  190.3800  175.9670  142.9400 C   0  0  0  0  0  2  0  0  0  0  0  0
  189.4810  178.2250  139.6490 S   0  0  0  0  0  0  0  0  0  0  0  0
  192.3620  177.2830  139.5640 F   0  0  0  0  0  0  0  0  0  0  0  0
  191.1810  174.6610  137.3070 C   0  0  0  0  0  0  0  0  0  0  0  0
  191.6880  173.5810  136.5980 O   0  0  0  0  0  1  0  0  0  0  0  0
  190.1560  176.8360  138.7400 C   0  0  0  0  0  0  0  0  0  0  0  0
  192.0330  175.4450  138.0910 C   0  0  0  0  0  3  0  0  0  0  0  0
  189.8180  174.9650  137.2360 C   0  0  0  0  0  3  0  0  0  0  0  0
  189.3070  176.0530  137.9500 C   0  0  0  0  0  3  0  0  0  0  0  0
  191.5250  176.5330  138.8060 C   0  0  0  0  0  0  0  0  0  0  0  0
  1 19  1  6  0  0  0
  1 11  1  0  0  0  0
  2  8  1  0  0  0  0
  3  9  1  0  0  0  0
  5 12  2  0  0  0  0
  5 11  1  0  0  0  0
  6  7  1  0  0  0  0
  8  6  2  0  0  0  0
  9  4  1  0  0  0  0
  9  7  2  0  0  0  0
 10  3  2  0  0  0  0
 10  8  1  0  0  0  0
 11  2  2  0  0  0  0
 12 10  1  0  0  0  0
 14  1  1  6  0  0  0
 14 18  1  0  0  0  0
 14 15  1  0  0  0  0
 15 16  1  0  0  0  0
 16 13  1  0  0  0  0
 17 13  2  0  0  0  0
 18 17  1  0  0  0  0
 21 24  1  0  0  0  0
 22 21  1  0  0  0  0
 23 27  1  0  0  0  0
 23 19  1  0  0  0  0
 24 27  2  0  0  0  0
 25 21  2  0  0  0  0
 25 26  1  0  0  0  0
 26 23  2  0  0  0  0
 27 20  1  0  0  0  0
M  END
>  <MODEL>
4

>  <REMARK>
 VINA RESULT:      -8.7      1.905      2.996
  Name = 
  4 active torsions:
  status: ('A' for Active; 'I' for Inactive)
    1  A    between atoms: S_1  and  C_15
    2  A    between atoms: S_1  and  C_18
    3  A    between atoms: C_9  and  C_15
    4  A    between atoms: C_15  and  C_19
                            x       y       z     vdW  Elec       q    Type
                         _______ _______ _______ _____ _____    ______ ____

>  <TORSDO>
F 4

$$$$
=
 OpenBabel10272401093D

 27 30  0  0  1  0  0  0  0  0999 V2000
  189.4540  176.8990  139.4140 C   0  0  2  0  0  3  0  0  0  0  0  0
  190.4910  176.5500  141.6470 N   0  0  0  0  0  0  0  0  0  0  0  0
  189.4630  177.4200  145.0630 C   0  0  0  0  0  3  0  0  0  0  0  0
  190.5670  177.0340  147.1720 O   0  0  0  0  0  1  0  0  0  0  0  0
  188.3750  177.6630  141.5380 C   0  0  0  0  0  3  0  0  0  0  0  0
  191.5910  176.1630  143.7340 C   0  0  0  0  0  3  0  0  0  0  0  0
  191.6070  176.2880  145.1260 C   0  0  0  0  0  3  0  0  0  0  0  0
  190.5120  176.6660  143.0010 C   0  0  0  0  0  0  0  0  0  0  0  0
  190.5450  176.9150  145.7900 C   0  0  0  0  0  0  0  0  0  0  0  0
  189.4430  177.2980  143.6710 C   0  0  0  0  0  0  0  0  0  0  0  0
  189.4520  177.0310  140.9070 C   0  0  0  0  0  0  0  0  0  0  0  0
  188.3730  177.7960  142.9270 C   0  0  0  0  0  3  0  0  0  0  0  0
  192.8470  175.2650  137.2540 C   0  0  0  0  0  3  0  0  0  0  0  0
  190.7030  176.1630  138.9130 C   0  0  1  0  0  3  0  0  0  0  0  0
  190.3720  175.2630  137.7210 C   0  0  0  0  0  2  0  0  0  0  0  0
  191.5980  174.4260  137.3620 C   0  0  0  0  0  2  0  0  0  0  0  0
  192.9440  176.4860  137.8000 C   0  0  0  0  0  3  0  0  0  0  0  0
  191.7760  177.1630  138.4710 C   0  0  0  0  0  2  0  0  0  0  0  0
  189.3230  178.5570  138.6540 S   0  0  0  0  0  0  0  0  0  0  0  0
  189.3970  177.8040  135.7170 F   0  0  0  0  0  0  0  0  0  0  0  0
  185.7820  177.3380  135.9980 C   0  0  0  0  0  0  0  0  0  0  0  0
  184.7080  176.9680  135.2010 O   0  0  0  0  0  1  0  0  0  0  0  0
  187.9490  178.0790  137.6070 C   0  0  0  0  0  0  0  0  0  0  0  0
  187.0700  177.3890  135.4560 C   0  0  0  0  0  3  0  0  0  0  0  0
  185.5760  177.6600  137.3420 C   0  0  0  0  0  3  0  0  0  0  0  0
  186.6580  178.0320  138.1460 C   0  0  0  0  0  3  0  0  0  0  0  0
  188.1540  177.7610  136.2560 C   0  0  0  0  0  0  0  0  0  0  0  0
  1 19  1  6  0  0  0
  1 11  1  0  0  0  0
  2  8  1  0  0  0  0
  3  9  1  0  0  0  0
  5 12  2  0  0  0  0
  6  7  1  0  0  0  0
  7  9  2  0  0  0  0
  8 10  1  0  0  0  0
  8  6  2  0  0  0  0
  9  4  1  0  0  0  0
 10  3  2  0  0  0  0
 11  5  1  0  0  0  0
 11  2  2  0  0  0  0
 12 10  1  0  0  0  0
 13 16  1  0  0  0  0
 13 17  2  0  0  0  0
 14  1  1  6  0  0  0
 15 14  1  0  0  0  0
 16 15  1  0  0  0  0
 17 18  1  0  0  0  0
 18 14  1  0  0  0  0
 20 27  1  0  0  0  0
 21 25  1  0  0  0  0
 22 21  1  0  0  0  0
 23 26  1  0  0  0  0
 23 19  1  0  0  0  0
 24 21  2  0  0  0  0
 24 27  1  0  0  0  0
 25 26  2  0  0  0  0
 27 23  2  0  0  0  0
M  END
>  <MODEL>
5

>  <REMARK>
 VINA RESULT:      -8.7      3.725      6.594
  Name = 
  4 active torsions:
  status: ('A' for Active; 'I' for Inactive)
    1  A    between atoms: S_1  and  C_15
    2  A    between atoms: S_1  and  C_18
    3  A    between atoms: C_9  and  C_15
    4  A    between atoms: C_15  and  C_19
                            x       y       z     vdW  Elec       q    Type
                         _______ _______ _______ _____ _____    ______ ____

>  <TORSDO>
F 4

$$$$
=
 OpenBabel10272401093D

 27 30  0  0  1  0  0  0  0  0999 V2000
  189.4410  176.9050  139.3180 C   0  0  2  0  0  3  0  0  0  0  0  0
  188.4790  177.1390  141.5980 N   0  0  0  0  0  0  0  0  0  0  0  0
  189.9640  177.6430  144.9180 C   0  0  0  0  0  3  0  0  0  0  0  0
  188.9190  177.8500  147.0830 O   0  0  0  0  0  1  0  0  0  0  0  0
  190.8560  177.2530  141.3520 C   0  0  0  0  0  3  0  0  0  0  0  0
  187.4350  177.3440  143.7400 C   0  0  0  0  0  3  0  0  0  0  0  0
  187.5500  177.5220  145.1220 C   0  0  0  0  0  3  0  0  0  0  0  0
  188.5820  177.3140  142.9420 C   0  0  0  0  0  0  0  0  0  0  0  0
  188.8110  177.6720  145.7100 C   0  0  0  0  0  0  0  0  0  0  0  0
  189.8540  177.4650  143.5370 C   0  0  0  0  0  0  0  0  0  0  0  0
  189.5810  177.1070  140.7970 C   0  0  0  0  0  0  0  0  0  0  0  0
  190.9910  177.4340  142.7300 C   0  0  0  0  0  3  0  0  0  0  0  0
  192.5420  175.0160  136.9370 C   0  0  0  0  0  3  0  0  0  0  0  0
  190.6130  176.0990  138.7440 C   0  0  1  0  0  3  0  0  0  0  0  0
  190.1350  175.1180  137.6720 C   0  0  0  0  0  2  0  0  0  0  0  0
  191.2980  174.2230  137.2490 C   0  0  0  0  0  2  0  0  0  0  0  0
  192.7220  176.2740  137.3700 C   0  0  0  0  0  3  0  0  0  0  0  0
  191.6480  177.0320  138.1080 C   0  0  0  0  0  2  0  0  0  0  0  0
  189.2970  178.5290  138.4910 S   0  0  0  0  0  0  0  0  0  0  0  0
  186.4380  178.4170  139.4940 F   0  0  0  0  0  0  0  0  0  0  0  0
  185.5620  177.2900  136.1280 C   0  0  0  0  0  0  0  0  0  0  0  0
  184.4360  176.9170  135.4070 O   0  0  0  0  0  1  0  0  0  0  0  0
  187.8320  178.0480  137.5790 C   0  0  0  0  0  0  0  0  0  0  0  0
  185.4400  177.6710  137.4680 C   0  0  0  0  0  3  0  0  0  0  0  0
  186.8170  177.2850  135.5140 C   0  0  0  0  0  3  0  0  0  0  0  0
  187.9510  177.6610  136.2390 C   0  0  0  0  0  3  0  0  0  0  0  0
  186.5720  178.0480  138.1960 C   0  0  0  0  0  0  0  0  0  0  0  0
  1 19  1  6  0  0  0
  1 11  1  0  0  0  0
  2  8  1  0  0  0  0
  3  9  1  0  0  0  0
  5 12  2  0  0  0  0
  6  7  1  0  0  0  0
  7  9  2  0  0  0  0
  8 10  1  0  0  0  0
  8  6  2  0  0  0  0
  9  4  1  0  0  0  0
 10  3  2  0  0  0  0
 11  5  1  0  0  0  0
 11  2  2  0  0  0  0
 12 10  1  0  0  0  0
 13 16  1  0  0  0  0
 13 17  2  0  0  0  0
 14  1  1  6  0  0  0
 15 14  1  0  0  0  0
 16 15  1  0  0  0  0
 17 18  1  0  0  0  0
 18 14  1  0  0  0  0
 21 24  1  0  0  0  0
 22 21  1  0  0  0  0
 23 27  1  0  0  0  0
 23 19  1  0  0  0  0
 24 27  2  0  0  0  0
 25 21  2  0  0  0  0
 25 26  1  0  0  0  0
 26 23  2  0  0  0  0
 27 20  1  0  0  0  0
M  END
>  <MODEL>
6

>  <REMARK>
 VINA RESULT:      -8.7      3.361      6.314
  Name = 
  4 active torsions:
  status: ('A' for Active; 'I' for Inactive)
    1  A    between atoms: S_1  and  C_15
    2  A    between atoms: S_1  and  C_18
    3  A    between atoms: C_9  and  C_15
    4  A    between atoms: C_15  and  C_19
                            x       y       z     vdW  Elec       q    Type
                         _______ _______ _______ _____ _____    ______ ____

>  <TORSDO>
F 4

$$$$
=
 OpenBabel10272401093D

 27 30  0  0  1  0  0  0  0  0999 V2000
  188.2210  178.0300  142.4390 C   0  0  2  0  0  3  0  0  0  0  0  0
  188.9330  177.6910  140.0810 N   0  0  0  0  0  0  0  0  0  0  0  0
  187.2220  178.0770  136.8550 C   0  0  0  0  0  3  0  0  0  0  0  0
  188.0200  177.7070  134.6090 O   0  0  0  0  0  1  0  0  0  0  0  0
  186.6950  178.4310  140.4970 C   0  0  0  0  0  3  0  0  0  0  0  0
  189.7320  177.3230  137.8580 C   0  0  0  0  0  3  0  0  0  0  0  0
  189.4980  177.3280  136.4790 C   0  0  0  0  0  3  0  0  0  0  0  0
  188.7130  177.6950  138.7400 C   0  0  0  0  0  0  0  0  0  0  0  0
  188.2460  177.7040  135.9790 C   0  0  0  0  0  0  0  0  0  0  0  0
  187.4510  178.0740  138.2340 C   0  0  0  0  0  0  0  0  0  0  0  0
  187.9570  178.0500  140.9630 C   0  0  0  0  0  0  0  0  0  0  0  0
  186.4430  178.4430  139.1250 C   0  0  0  0  0  3  0  0  0  0  0  0
  192.2040  177.5690  144.1040 C   0  0  0  0  0  3  0  0  0  0  0  0
  189.7220  177.9570  142.7450 C   0  0  1  0  0  3  0  0  0  0  0  0
  190.1090  178.9440  143.8470 C   0  0  0  0  0  2  0  0  0  0  0  0
  191.6290  178.9590  144.0030 C   0  0  0  0  0  2  0  0  0  0  0  0
  191.5320  176.4800  143.6980 C   0  0  0  0  0  3  0  0  0  0  0  0
  190.1080  176.5490  143.2110 C   0  0  0  0  0  2  0  0  0  0  0  0
  187.3280  176.6280  143.2000 S   0  0  0  0  0  0  0  0  0  0  0  0
  188.6810  176.6900  145.9130 F   0  0  0  0  0  0  0  0  0  0  0  0
  186.0880  179.0790  146.8780 C   0  0  0  0  0  0  0  0  0  0  0  0
  185.7090  179.8250  147.9850 O   0  0  0  0  0  1  0  0  0  0  0  0
  186.8540  177.5800  144.6420 C   0  0  0  0  0  0  0  0  0  0  0  0
  187.2080  178.2450  146.9460 C   0  0  0  0  0  3  0  0  0  0  0  0
  185.3490  179.1620  145.6940 C   0  0  0  0  0  3  0  0  0  0  0  0
  185.7310  178.4120  144.5780 C   0  0  0  0  0  3  0  0  0  0  0  0
  187.5920  177.4930  145.8320 C   0  0  0  0  0  0  0  0  0  0  0  0
  1 19  1  6  0  0  0
  2 11  1  0  0  0  0
  3 10  1  0  0  0  0
  4  9  1  0  0  0  0
  5 11  2  0  0  0  0
  6  8  1  0  0  0  0
  7  6  2  0  0  0  0
  8  2  2  0  0  0  0
  9  7  1  0  0  0  0
  9  3  2  0  0  0  0
 10  8  1  0  0  0  0
 10 12  2  0  0  0  0
 11  1  1  0  0  0  0
 12  5  1  0  0  0  0
 14  1  1  1  0  0  0
 14 18  1  0  0  0  0
 14 15  1  0  0  0  0
 15 16  1  0  0  0  0
 16 13  1  0  0  0  0
 17 13  2  0  0  0  0
 18 17  1  0  0  0  0
 19 23  1  0  0  0  0
 21 24  1  0  0  0  0
 21 22  1  0  0  0  0
 23 27  1  0  0  0  0
 25 21  2  0  0  0  0
 26 23  2  0  0  0  0
 26 25  1  0  0  0  0
 27 20  1  0  0  0  0
 27 24  2  0  0  0  0
M  END
>  <MODEL>
7

>  <REMARK>
 VINA RESULT:      -8.7      2.728      6.469
  Name = 
  4 active torsions:
  status: ('A' for Active; 'I' for Inactive)
    1  A    between atoms: S_1  and  C_15
    2  A    between atoms: S_1  and  C_18
    3  A    between atoms: C_9  and  C_15
    4  A    between atoms: C_15  and  C_19
                            x       y       z     vdW  Elec       q    Type
                         _______ _______ _______ _____ _____    ______ ____

>  <TORSDO>
F 4

$$$$
=
 OpenBabel10272401093D

 27 30  0  0  1  0  0  0  0  0999 V2000
  189.9490  176.7740  142.9570 C   0  0  2  0  0  3  0  0  0  0  0  0
  188.0550  177.3520  144.4600 N   0  0  0  0  0  0  0  0  0  0  0  0
  184.7180  178.7670  143.8750 C   0  0  0  0  0  3  0  0  0  0  0  0
  182.9510  179.2970  145.4280 O   0  0  0  0  0  1  0  0  0  0  0  0
  187.7980  177.7310  142.1110 C   0  0  0  0  0  3  0  0  0  0  0  0
  186.3090  177.8740  146.0070 C   0  0  0  0  0  3  0  0  0  0  0  0
  185.0220  178.3660  146.2470 C   0  0  0  0  0  3  0  0  0  0  0  0
  186.8050  177.8270  144.7010 C   0  0  0  0  0  0  0  0  0  0  0  0
  184.2280  178.8110  145.1830 C   0  0  0  0  0  0  0  0  0  0  0  0
  186.0030  178.2760  143.6290 C   0  0  0  0  0  0  0  0  0  0  0  0
  188.5640  177.2940  143.1970 C   0  0  0  0  0  0  0  0  0  0  0  0
  186.5110  178.2240  142.3310 C   0  0  0  0  0  3  0  0  0  0  0  0
  192.3160  175.4830  146.3600 C   0  0  0  0  0  3  0  0  0  0  0  0
  190.5410  176.1360  144.2190 C   0  0  1  0  0  3  0  0  0  0  0  0
  191.8110  175.3470  143.8960 C   0  0  0  0  0  2  0  0  0  0  0  0
  192.2720  174.5940  145.1420 C   0  0  0  0  0  2  0  0  0  0  0  0
  191.6520  176.6470  146.4260 C   0  0  0  0  0  3  0  0  0  0  0  0
  190.8990  177.2130  145.2490 C   0  0  0  0  0  2  0  0  0  0  0  0
  191.0140  178.1300  142.3480 S   0  0  0  0  0  0  0  0  0  0  0  0
  193.4880  177.2760  140.8170 F   0  0  0  0  0  0  0  0  0  0  0  0
  191.2040  176.4020  138.0990 C   0  0  0  0  0  0  0  0  0  0  0  0
  191.2540  175.8780  136.8150 O   0  0  0  0  0  1  0  0  0  0  0  0
  191.1010  177.4540  140.6910 C   0  0  0  0  0  0  0  0  0  0  0  0
  192.3840  176.5820  138.8280 C   0  0  0  0  0  3  0  0  0  0  0  0
  189.9740  176.7500  138.6630 C   0  0  0  0  0  3  0  0  0  0  0  0
  189.9220  177.2780  139.9570 C   0  0  0  0  0  3  0  0  0  0  0  0
  192.3360  177.1090  140.1220 C   0  0  0  0  0  0  0  0  0  0  0  0
  1 19  1  1  0  0  0
  1 11  1  0  0  0  0
  2  8  1  0  0  0  0
  3  9  1  0  0  0  0
  5 12  2  0  0  0  0
  5 11  1  0  0  0  0
  6  7  1  0  0  0  0
  8  6  2  0  0  0  0
  9  4  1  0  0  0  0
  9  7  2  0  0  0  0
 10  3  2  0  0  0  0
 10  8  1  0  0  0  0
 11  2  2  0  0  0  0
 12 10  1  0  0  0  0
 13 17  2  0  0  0  0
 14  1  1  6  0  0  0
 14 18  1  0  0  0  0
 15 14  1  0  0  0  0
 15 16  1  0  0  0  0
 16 13  1  0  0  0  0
 18 17  1  0  0  0  0
 21 25  2  0  0  0  0
 21 24  1  0  0  0  0
 22 21  1  0  0  0  0
 23 19  1  0  0  0  0
 24 27  2  0  0  0  0
 25 26  1  0  0  0  0
 26 23  2  0  0  0  0
 27 23  1  0  0  0  0
 27 20  1  0  0  0  0
M  END
>  <MODEL>
8

>  <REMARK>
 VINA RESULT:      -8.7      1.342      2.117
  Name = 
  4 active torsions:
  status: ('A' for Active; 'I' for Inactive)
    1  A    between atoms: S_1  and  C_15
    2  A    between atoms: S_1  and  C_18
    3  A    between atoms: C_9  and  C_15
    4  A    between atoms: C_15  and  C_19
                            x       y       z     vdW  Elec       q    Type
                         _______ _______ _______ _____ _____    ______ ____

>  <TORSDO>
F 4

$$$$
=
 OpenBabel10272401093D

 27 30  0  0  1  0  0  0  0  0999 V2000
  188.6680  177.4360  142.7850 C   0  0  2  0  0  3  0  0  0  0  0  0
  188.2440  177.7130  140.3510 N   0  0  0  0  0  0  0  0  0  0  0  0
  190.1980  176.9080  137.3480 C   0  0  0  0  0  3  0  0  0  0  0  0
  189.6820  177.2330  135.0150 O   0  0  0  0  0  1  0  0  0  0  0  0
  190.3110  176.7210  141.0380 C   0  0  0  0  0  3  0  0  0  0  0  0
  187.7240  178.0380  138.0400 C   0  0  0  0  0  3  0  0  0  0  0  0
  188.0910  177.9160  136.6960 C   0  0  0  0  0  3  0  0  0  0  0  0
  188.5920  177.5960  139.0420 C   0  0  0  0  0  0  0  0  0  0  0  0
  189.3250  177.3520  136.3510 C   0  0  0  0  0  0  0  0  0  0  0  0
  189.8370  177.0270  138.6930 C   0  0  0  0  0  0  0  0  0  0  0  0
  189.0710  177.2890  141.3490 C   0  0  0  0  0  0  0  0  0  0  0  0
  190.6930  176.5900  139.7030 C   0  0  0  0  0  3  0  0  0  0  0  0
  184.6140  178.8550  143.4190 C   0  0  0  0  0  3  0  0  0  0  0  0
  187.1560  177.6480  142.9300 C   0  0  1  0  0  3  0  0  0  0  0  0
  186.7840  178.0010  144.3710 C   0  0  0  0  0  2  0  0  0  0  0  0
  185.2630  178.0380  144.5080 C   0  0  0  0  0  2  0  0  0  0  0  0
  185.2410  179.1530  142.2710 C   0  0  0  0  0  3  0  0  0  0  0  0
  186.6830  178.7890  142.0230 C   0  0  0  0  0  2  0  0  0  0  0  0
  189.5980  178.8170  143.5420 S   0  0  0  0  0  0  0  0  0  0  0  0
  192.0740  177.0740  143.3850 F   0  0  0  0  0  0  0  0  0  0  0  0
  191.3540  176.1630  146.8510 C   0  0  0  0  0  0  0  0  0  0  0  0
  191.8810  175.3650  147.8570 O   0  0  0  0  0  1  0  0  0  0  0  0
  190.2930  177.7780  144.8260 C   0  0  0  0  0  0  0  0  0  0  0  0
  191.9820  176.2220  145.6030 C   0  0  0  0  0  3  0  0  0  0  0  0
  190.1950  176.9080  147.0870 C   0  0  0  0  0  3  0  0  0  0  0  0
  189.6640  177.7130  146.0750 C   0  0  0  0  0  3  0  0  0  0  0  0
  191.4530  177.0250  144.5890 C   0  0  0  0  0  0  0  0  0  0  0  0
  1 19  1  6  0  0  0
  2 11  1  0  0  0  0
  3 10  1  0  0  0  0
  4  9  1  0  0  0  0
  5 11  2  0  0  0  0
  6  8  1  0  0  0  0
  7  6  2  0  0  0  0
  8  2  2  0  0  0  0
  9  7  1  0  0  0  0
  9  3  2  0  0  0  0
 10  8  1  0  0  0  0
 10 12  2  0  0  0  0
 11  1  1  0  0  0  0
 12  5  1  0  0  0  0
 13 16  1  0  0  0  0
 14  1  1  1  0  0  0
 14 15  1  0  0  0  0
 15 16  1  0  0  0  0
 17 13  2  0  0  0  0
 18 17  1  0  0  0  0
 18 14  1  0  0  0  0
 19 23  1  0  0  0  0
 20 27  1  0  0  0  0
 21 25  1  0  0  0  0
 21 22  1  0  0  0  0
 23 26  1  0  0  0  0
 24 21  2  0  0  0  0
 26 25  2  0  0  0  0
 27 23  2  0  0  0  0
 27 24  1  0  0  0  0
M  END
>  <MODEL>
9

>  <REMARK>
 VINA RESULT:      -8.6      2.614      6.639
  Name = 
  4 active torsions:
  status: ('A' for Active; 'I' for Inactive)
    1  A    between atoms: S_1  and  C_15
    2  A    between atoms: S_1  and  C_18
    3  A    between atoms: C_9  and  C_15
    4  A    between atoms: C_15  and  C_19
                            x       y       z     vdW  Elec       q    Type
                         _______ _______ _______ _____ _____    ______ ____

>  <TORSDO>
F 4

$$$$
