=
 OpenBabel10272415283D

 34 39  0  0  0  0  0  0  0  0999 V2000
  183.4420  178.4380  141.3500 C   0  0  0  0  0  0  0  0  0  0  0  0
  183.0830  177.8990  137.7000 C   0  0  0  0  0  3  0  0  0  0  0  0
  181.5970  178.7190  139.2480 N   0  0  0  0  0  0  0  0  0  0  0  0
  183.6510  178.7140  143.7920 C   0  0  0  0  0  0  0  0  0  0  0  0
  184.2320  178.4160  142.5220 C   0  0  0  0  0  3  0  0  0  0  0  0
  181.5360  179.0780  142.7010 C   0  0  0  0  0  0  0  0  0  0  0  0
  180.1790  179.4680  142.4560 N   0  0  0  0  0  2  0  0  0  0  0  0
  182.2790  179.0690  143.8810 C   0  0  0  0  0  3  0  0  0  0  0  0
  181.2510  178.9440  140.5360 C   0  0  0  0  0  0  0  0  0  0  0  0
  182.1250  178.7660  141.5280 C   0  0  0  0  0  0  0  0  0  0  0  0
  180.0380  179.3660  141.0740 O   0  0  0  0  0  0  0  0  0  0  0  0
  184.2650  177.1310  137.2150 C   0  0  0  0  0  2  0  0  0  0  0  0
  185.5410  177.8820  137.3530 C   0  0  0  0  0  0  0  0  0  0  0  0
  185.9740  178.2680  138.5500 C   0  0  0  0  0  3  0  0  0  0  0  0
  182.8820  178.3170  138.9540 C   0  0  0  0  0  0  0  0  0  0  0  0
  185.2160  178.2200  139.8120 C   0  0  0  0  0  3  0  0  0  0  0  0
  183.8830  178.2540  140.0110 C   0  0  0  0  0  0  0  0  0  0  0  0
  187.8210  177.2220  144.4030 C   0  0  0  0  0  3  0  0  0  0  0  0
  186.3340  178.3770  146.4310 N   0  0  0  0  0  0  0  0  0  0  0  0
  190.2210  177.0970  147.2230 C   0  0  0  0  0  0  0  0  0  0  0  0
  189.6760  176.9420  145.9400 C   0  0  0  0  0  3  0  0  0  0  0  0
  188.3740  177.3710  145.6740 C   0  0  0  0  0  0  0  0  0  0  0  0
  184.4260  178.7020  145.0020 N   0  0  0  0  0  2  0  0  0  0  0  0
  188.1420  178.1150  147.9740 C   0  0  0  0  0  3  0  0  0  0  0  0
  187.6010  177.9610  146.6950 C   0  0  0  0  0  0  0  0  0  0  0  0
  189.4470  177.6860  148.2360 C   0  0  0  0  0  3  0  0  0  0  0  0
  185.7730  178.2440  145.1980 C   0  0  0  0  0  0  0  0  0  0  0  0
  186.5170  177.6580  144.1630 C   0  0  0  0  0  3  0  0  0  0  0  0
  191.5940  176.6450  147.5000 C   0  0  0  0  0  0  0  0  0  0  0  0
  192.1410  175.7780  146.7670 O   0  0  0  0  0  0  0  0  0  0  0  0
  192.3020  177.1730  148.5730 O   0  0  0  0  0  1  0  0  0  0  0  0
  186.4030  178.0430  136.1710 C   0  0  0  0  0  0  0  0  0  0  0  0
  186.0500  177.4500  134.9640 O   0  0  0  0  0  0  0  0  0  0  0  0
  187.4640  178.7220  136.2350 O   0  0  0  0  0  1  0  0  0  0  0  0
  1 10  2  0  0  0  0
  1  5  1  0  0  0  0
  2 15  2  0  0  0  0
  3  9  2  0  0  0  0
  4  8  1  0  0  0  0
  4 23  1  0  0  0  0
  5  4  2  0  0  0  0
  6  8  2  0  0  0  0
  7  6  1  0  0  0  0
  9 11  1  0  0  0  0
  9 10  1  0  0  0  0
 10  6  1  0  0  0  0
 11  7  1  0  0  0  0
 12 13  1  0  0  0  0
 12  2  1  0  0  0  0
 13 14  2  0  0  0  0
 14 16  1  0  0  0  0
 15  3  1  0  0  0  0
 15 17  1  0  0  0  0
 16 17  2  0  0  0  0
 17  1  1  0  0  0  0
 18 22  1  0  0  0  0
 19 25  1  0  0  0  0
 20 29  1  0  0  0  0
 20 26  1  0  0  0  0
 21 20  2  0  0  0  0
 22 21  1  0  0  0  0
 22 25  2  0  0  0  0
 23 27  1  0  0  0  0
 24 26  2  0  0  0  0
 25 24  1  0  0  0  0
 27 19  2  0  0  0  0
 28 18  2  0  0  0  0
 28 27  1  0  0  0  0
 29 31  1  0  0  0  0
 30 29  2  0  0  0  0
 32 34  1  0  0  0  0
 32 13  1  0  0  0  0
 33 32  2  0  0  0  0
M  END
>  <MODEL>
1

>  <REMARK>
 VINA RESULT:     -11.0      0.000      0.000
  Name = 
  3 active torsions:
  status: ('A' for Active; 'I' for Inactive)
    1  A    between atoms: C_3  and  C_25
    2  A    between atoms: C_7  and  C_11
    3  A    between atoms: C_8  and  N_18
                            x       y       z     vdW  Elec       q    Type
                         _______ _______ _______ _____ _____    ______ ____

>  <TORSDO>
F 3

$$$$
=
 OpenBabel10272415283D

 34 39  0  0  0  0  0  0  0  0999 V2000
  187.2900  178.1670  144.6110 C   0  0  0  0  0  0  0  0  0  0  0  0
  189.0640  177.6190  147.8190 C   0  0  0  0  0  3  0  0  0  0  0  0
  186.8320  177.9250  147.3730 N   0  0  0  0  0  0  0  0  0  0  0  0
  186.1210  178.6180  142.4860 C   0  0  0  0  0  0  0  0  0  0  0  0
  187.3080  178.2690  143.2010 C   0  0  0  0  0  3  0  0  0  0  0  0
  184.9320  178.7210  144.5770 C   0  0  0  0  0  0  0  0  0  0  0  0
  183.8730  178.7930  145.5400 N   0  0  0  0  0  2  0  0  0  0  0  0
  184.9050  178.8320  143.1880 C   0  0  0  0  0  3  0  0  0  0  0  0
  185.8430  178.2590  146.5120 C   0  0  0  0  0  0  0  0  0  0  0  0
  186.0840  178.4120  145.2090 C   0  0  0  0  0  0  0  0  0  0  0  0
  184.4920  178.4970  146.7520 O   0  0  0  0  0  0  0  0  0  0  0  0
  190.5310  177.7120  147.5720 C   0  0  0  0  0  2  0  0  0  0  0  0
  191.0390  176.6350  146.6820 C   0  0  0  0  0  0  0  0  0  0  0  0
  190.5880  176.5160  145.4360 C   0  0  0  0  0  3  0  0  0  0  0  0
  188.1060  177.7210  146.8920 C   0  0  0  0  0  0  0  0  0  0  0  0
  189.4410  177.2310  144.8490 C   0  0  0  0  0  3  0  0  0  0  0  0
  188.3530  177.7460  145.4550 C   0  0  0  0  0  0  0  0  0  0  0  0
  189.1100  177.0680  139.5440 C   0  0  0  0  0  3  0  0  0  0  0  0
  186.8060  178.3950  138.7770 N   0  0  0  0  0  0  0  0  0  0  0  0
  189.4280  176.9980  135.8540 C   0  0  0  0  0  0  0  0  0  0  0  0
  189.7150  176.7960  137.2120 C   0  0  0  0  0  3  0  0  0  0  0  0
  188.8360  177.2630  138.1920 C   0  0  0  0  0  0  0  0  0  0  0  0
  186.1040  178.7300  141.0540 N   0  0  0  0  0  2  0  0  0  0  0  0
  187.3710  178.1450  136.4670 C   0  0  0  0  0  3  0  0  0  0  0  0
  187.6570  177.9420  137.8200 C   0  0  0  0  0  0  0  0  0  0  0  0
  188.2530  177.6740  135.4890 C   0  0  0  0  0  3  0  0  0  0  0  0
  187.0500  178.2160  140.1040 C   0  0  0  0  0  0  0  0  0  0  0  0
  188.2160  177.5460  140.5040 C   0  0  0  0  0  3  0  0  0  0  0  0
  190.3550  176.5030  134.8230 C   0  0  0  0  0  0  0  0  0  0  0  0
  191.2420  177.2600  134.3460 O   0  0  0  0  0  0  0  0  0  0  0  0
  190.2610  175.1940  134.3670 O   0  0  0  0  0  1  0  0  0  0  0  0
  192.1690  175.8090  147.1380 C   0  0  0  0  0  0  0  0  0  0  0  0
  192.7540  176.0500  148.3760 O   0  0  0  0  0  1  0  0  0  0  0  0
  192.6150  174.8740  146.4180 O   0  0  0  0  0  0  0  0  0  0  0  0
  1 10  1  0  0  0  0
  1 17  1  0  0  0  0
  4  8  2  0  0  0  0
  4  5  1  0  0  0  0
  5  1  2  0  0  0  0
  6 10  2  0  0  0  0
  6  7  1  0  0  0  0
  7 11  1  0  0  0  0
  8  6  1  0  0  0  0
  9 11  1  0  0  0  0
  9  3  2  0  0  0  0
 10  9  1  0  0  0  0
 12  2  1  0  0  0  0
 13 32  1  0  0  0  0
 13 12  1  0  0  0  0
 14 13  2  0  0  0  0
 15  3  1  0  0  0  0
 15  2  2  0  0  0  0
 16 14  1  0  0  0  0
 16 17  2  0  0  0  0
 17 15  1  0  0  0  0
 18 28  2  0  0  0  0
 19 27  2  0  0  0  0
 20 21  1  0  0  0  0
 21 22  2  0  0  0  0
 22 18  1  0  0  0  0
 23  4  1  0  0  0  0
 24 25  2  0  0  0  0
 25 22  1  0  0  0  0
 25 19  1  0  0  0  0
 26 20  2  0  0  0  0
 26 24  1  0  0  0  0
 27 28  1  0  0  0  0
 27 23  1  0  0  0  0
 29 20  1  0  0  0  0
 30 29  2  0  0  0  0
 31 29  1  0  0  0  0
 32 33  1  0  0  0  0
 34 32  2  0  0  0  0
M  END
>  <MODEL>
2

>  <REMARK>
 VINA RESULT:     -10.9      2.899      9.119
  Name = 
  3 active torsions:
  status: ('A' for Active; 'I' for Inactive)
    1  A    between atoms: C_3  and  C_25
    2  A    between atoms: C_7  and  C_11
    3  A    between atoms: C_8  and  N_18
                            x       y       z     vdW  Elec       q    Type
                         _______ _______ _______ _____ _____    ______ ____

>  <TORSDO>
F 3

$$$$
=
 OpenBabel10272415283D

 34 39  0  0  0  0  0  0  0  0999 V2000
  185.3110  178.6430  142.8160 C   0  0  0  0  0  0  0  0  0  0  0  0
  185.1230  178.8300  146.5130 C   0  0  0  0  0  3  0  0  0  0  0  0
  183.4620  178.8040  144.9270 N   0  0  0  0  0  0  0  0  0  0  0  0
  185.4390  178.6060  140.3530 C   0  0  0  0  0  0  0  0  0  0  0  0
  186.0710  178.5160  141.6310 C   0  0  0  0  0  3  0  0  0  0  0  0
  183.3220  178.9120  141.4590 C   0  0  0  0  0  0  0  0  0  0  0  0
  181.9140  179.0200  141.6980 N   0  0  0  0  0  2  0  0  0  0  0  0
  184.0340  178.7920  140.2660 C   0  0  0  0  0  3  0  0  0  0  0  0
  183.0750  178.8790  143.6320 C   0  0  0  0  0  0  0  0  0  0  0  0
  183.9680  178.8430  142.6410 C   0  0  0  0  0  0  0  0  0  0  0  0
  181.8000  178.9980  143.0860 O   0  0  0  0  0  0  0  0  0  0  0  0
  186.4970  179.0480  147.0480 C   0  0  0  0  0  2  0  0  0  0  0  0
  187.4100  177.9050  146.7830 C   0  0  0  0  0  0  0  0  0  0  0  0
  187.6890  177.5340  145.5360 C   0  0  0  0  0  3  0  0  0  0  0  0
  184.8000  178.6700  145.2260 C   0  0  0  0  0  0  0  0  0  0  0  0
  187.0190  178.0090  144.3120 C   0  0  0  0  0  3  0  0  0  0  0  0
  185.7700  178.4890  144.1520 C   0  0  0  0  0  0  0  0  0  0  0  0
  189.5600  176.9770  139.7610 C   0  0  0  0  0  3  0  0  0  0  0  0
  187.9890  177.8680  137.6640 N   0  0  0  0  0  0  0  0  0  0  0  0
  191.7870  176.3470  136.8680 C   0  0  0  0  0  0  0  0  0  0  0  0
  191.3140  176.4050  138.1870 C   0  0  0  0  0  3  0  0  0  0  0  0
  190.0410  176.9140  138.4550 C   0  0  0  0  0  0  0  0  0  0  0  0
  186.1820  178.4810  139.1300 N   0  0  0  0  0  2  0  0  0  0  0  0
  189.6970  177.3170  136.0850 C   0  0  0  0  0  3  0  0  0  0  0  0
  189.2270  177.3740  137.3990 C   0  0  0  0  0  0  0  0  0  0  0  0
  190.9710  176.8050  135.8210 C   0  0  0  0  0  3  0  0  0  0  0  0
  187.4960  177.9380  138.9320 C   0  0  0  0  0  0  0  0  0  0  0  0
  188.2850  177.4910  140.0020 C   0  0  0  0  0  3  0  0  0  0  0  0
  193.1280  175.8080  136.5890 C   0  0  0  0  0  0  0  0  0  0  0  0
  193.2920  174.5760  136.3860 O   0  0  0  0  0  0  0  0  0  0  0  0
  194.2280  176.6560  136.5450 O   0  0  0  0  0  1  0  0  0  0  0  0
  188.1360  177.2970  147.9110 C   0  0  0  0  0  0  0  0  0  0  0  0
  189.1900  176.4240  147.6710 O   0  0  0  0  0  0  0  0  0  0  0  0
  187.8170  177.5640  149.1010 O   0  0  0  0  0  1  0  0  0  0  0  0
  1 17  1  0  0  0  0
  2 12  1  0  0  0  0
  3 15  1  0  0  0  0
  4  5  1  0  0  0  0
  5  1  2  0  0  0  0
  6  7  1  0  0  0  0
  6 10  2  0  0  0  0
  7 11  1  0  0  0  0
  8  4  2  0  0  0  0
  8  6  1  0  0  0  0
  9  3  2  0  0  0  0
 10  1  1  0  0  0  0
 10  9  1  0  0  0  0
 11  9  1  0  0  0  0
 13 12  1  0  0  0  0
 13 32  1  0  0  0  0
 14 13  2  0  0  0  0
 15  2  2  0  0  0  0
 16 14  1  0  0  0  0
 17 16  2  0  0  0  0
 17 15  1  0  0  0  0
 18 28  2  0  0  0  0
 19 27  2  0  0  0  0
 20 21  1  0  0  0  0
 21 22  2  0  0  0  0
 22 18  1  0  0  0  0
 23  4  1  0  0  0  0
 24 25  2  0  0  0  0
 25 19  1  0  0  0  0
 25 22  1  0  0  0  0
 26 24  1  0  0  0  0
 26 20  2  0  0  0  0
 27 23  1  0  0  0  0
 27 28  1  0  0  0  0
 29 20  1  0  0  0  0
 30 29  2  0  0  0  0
 31 29  1  0  0  0  0
 32 34  1  0  0  0  0
 33 32  2  0  0  0  0
M  END
>  <MODEL>
3

>  <REMARK>
 VINA RESULT:     -10.4      3.546      8.075
  Name = 
  3 active torsions:
  status: ('A' for Active; 'I' for Inactive)
    1  A    between atoms: C_3  and  C_25
    2  A    between atoms: C_7  and  C_11
    3  A    between atoms: C_8  and  N_18
                            x       y       z     vdW  Elec       q    Type
                         _______ _______ _______ _____ _____    ______ ____

>  <TORSDO>
F 3

$$$$
=
 OpenBabel10272415283D

 34 39  0  0  0  0  0  0  0  0999 V2000
  186.4590  177.8980  144.3600 C   0  0  0  0  0  0  0  0  0  0  0  0
  182.9770  178.7830  145.2730 C   0  0  0  0  0  3  0  0  0  0  0  0
  184.9120  178.8360  146.5100 N   0  0  0  0  0  0  0  0  0  0  0  0
  188.7600  177.2260  143.7780 C   0  0  0  0  0  0  0  0  0  0  0  0
  187.4070  177.4820  143.3970 C   0  0  0  0  0  3  0  0  0  0  0  0
  188.2020  177.8320  146.0410 C   0  0  0  0  0  0  0  0  0  0  0  0
  188.3200  178.1900  147.4230 N   0  0  0  0  0  2  0  0  0  0  0  0
  189.1690  177.4210  145.1240 C   0  0  0  0  0  3  0  0  0  0  0  0
  186.2200  178.5220  146.6560 C   0  0  0  0  0  0  0  0  0  0  0  0
  186.9320  178.0380  145.6370 C   0  0  0  0  0  0  0  0  0  0  0  0
  187.0420  178.6190  147.7750 O   0  0  0  0  0  0  0  0  0  0  0  0
  182.0720  178.3470  144.1710 C   0  0  0  0  0  2  0  0  0  0  0  0
  182.3150  179.0740  142.8980 C   0  0  0  0  0  0  0  0  0  0  0  0
  183.4960  178.9990  142.2890 C   0  0  0  0  0  3  0  0  0  0  0  0
  184.3100  178.6700  145.2820 C   0  0  0  0  0  0  0  0  0  0  0  0
  184.7300  178.4150  142.8430 C   0  0  0  0  0  3  0  0  0  0  0  0
  185.1080  178.2760  144.1280 C   0  0  0  0  0  0  0  0  0  0  0  0
  188.5660  177.3950  139.3150 C   0  0  0  0  0  3  0  0  0  0  0  0
  190.7840  176.4600  140.6810 N   0  0  0  0  0  0  0  0  0  0  0  0
  190.8460  176.5670  136.5150 C   0  0  0  0  0  0  0  0  0  0  0  0
  189.7100  177.0010  137.2130 C   0  0  0  0  0  3  0  0  0  0  0  0
  189.6890  176.9670  138.6090 C   0  0  0  0  0  0  0  0  0  0  0  0
  189.7480  176.8030  142.8260 N   0  0  0  0  0  2  0  0  0  0  0  0
  191.9420  176.0590  138.6280 C   0  0  0  0  0  3  0  0  0  0  0  0
  190.8100  176.4930  139.3220 C   0  0  0  0  0  0  0  0  0  0  0  0
  191.9600  176.0970  137.2300 C   0  0  0  0  0  3  0  0  0  0  0  0
  189.7000  176.8750  141.3920 C   0  0  0  0  0  0  0  0  0  0  0  0
  188.5690  177.3490  140.7100 C   0  0  0  0  0  3  0  0  0  0  0  0
  190.8660  176.6060  135.0440 C   0  0  0  0  0  0  0  0  0  0  0  0
  191.7940  176.0430  134.4020 O   0  0  0  0  0  1  0  0  0  0  0  0
  189.8610  177.2650  134.3460 O   0  0  0  0  0  0  0  0  0  0  0  0
  181.1840  179.7390  142.2310 C   0  0  0  0  0  0  0  0  0  0  0  0
  180.3580  180.5960  142.9480 O   0  0  0  0  0  1  0  0  0  0  0  0
  180.9540  179.5450  141.0060 O   0  0  0  0  0  0  0  0  0  0  0  0
  1 10  1  0  0  0  0
  2 15  2  0  0  0  0
  3  9  2  0  0  0  0
  4  8  2  0  0  0  0
  5  4  1  0  0  0  0
  5  1  2  0  0  0  0
  6  7  1  0  0  0  0
  7 11  1  0  0  0  0
  8  6  1  0  0  0  0
  9 11  1  0  0  0  0
 10  6  2  0  0  0  0
 10  9  1  0  0  0  0
 12  2  1  0  0  0  0
 13 12  1  0  0  0  0
 14 16  1  0  0  0  0
 14 13  2  0  0  0  0
 15  3  1  0  0  0  0
 16 17  2  0  0  0  0
 17  1  1  0  0  0  0
 17 15  1  0  0  0  0
 18 28  2  0  0  0  0
 19 27  2  0  0  0  0
 20 21  2  0  0  0  0
 20 26  1  0  0  0  0
 21 22  1  0  0  0  0
 22 18  1  0  0  0  0
 22 25  2  0  0  0  0
 23  4  1  0  0  0  0
 24 25  1  0  0  0  0
 25 19  1  0  0  0  0
 26 24  2  0  0  0  0
 27 23  1  0  0  0  0
 28 27  1  0  0  0  0
 29 20  1  0  0  0  0
 30 29  1  0  0  0  0
 31 29  2  0  0  0  0
 32 13  1  0  0  0  0
 32 33  1  0  0  0  0
 34 32  2  0  0  0  0
M  END
>  <MODEL>
4

>  <REMARK>
 VINA RESULT:     -10.3      3.412      8.111
  Name = 
  3 active torsions:
  status: ('A' for Active; 'I' for Inactive)
    1  A    between atoms: C_3  and  C_25
    2  A    between atoms: C_7  and  C_11
    3  A    between atoms: C_8  and  N_18
                            x       y       z     vdW  Elec       q    Type
                         _______ _______ _______ _____ _____    ______ ____

>  <TORSDO>
F 3

$$$$
=
 OpenBabel10272415283D

 34 39  0  0  0  0  0  0  0  0999 V2000
  185.5420  178.3210  143.1890 C   0  0  0  0  0  0  0  0  0  0  0  0
  181.9290  178.7700  142.4980 C   0  0  0  0  0  3  0  0  0  0  0  0
  183.1070  178.9050  144.4650 N   0  0  0  0  0  0  0  0  0  0  0  0
  187.9330  177.9350  143.6620 C   0  0  0  0  0  0  0  0  0  0  0  0
  186.8600  178.0880  142.7310 C   0  0  0  0  0  3  0  0  0  0  0  0
  186.3730  178.2790  145.4640 C   0  0  0  0  0  0  0  0  0  0  0  0
  185.8300  178.5220  146.7680 N   0  0  0  0  0  2  0  0  0  0  0  0
  187.6860  178.0500  145.0560 C   0  0  0  0  0  3  0  0  0  0  0  0
  184.2500  178.7110  145.1630 C   0  0  0  0  0  0  0  0  0  0  0  0
  185.3900  178.3930  144.5470 C   0  0  0  0  0  0  0  0  0  0  0  0
  184.4830  178.7890  146.5330 O   0  0  0  0  0  0  0  0  0  0  0  0
  181.6570  178.3460  141.0940 C   0  0  0  0  0  2  0  0  0  0  0  0
  182.3340  179.2050  140.0880 C   0  0  0  0  0  0  0  0  0  0  0  0
  183.6610  179.3020  140.0620 C   0  0  0  0  0  3  0  0  0  0  0  0
  183.1260  178.7900  143.0920 C   0  0  0  0  0  0  0  0  0  0  0  0
  184.5960  178.7970  141.0830 C   0  0  0  0  0  3  0  0  0  0  0  0
  184.3910  178.5810  142.3970 C   0  0  0  0  0  0  0  0  0  0  0  0
  189.4190  177.0770  139.5340 C   0  0  0  0  0  3  0  0  0  0  0  0
  191.1080  177.3010  141.7150 N   0  0  0  0  0  0  0  0  0  0  0  0
  192.7240  176.5410  137.9490 C   0  0  0  0  0  0  0  0  0  0  0  0
  191.3370  176.6810  138.1040 C   0  0  0  0  0  3  0  0  0  0  0  0
  190.7950  176.9370  139.3660 C   0  0  0  0  0  0  0  0  0  0  0  0
  189.2820  177.6990  143.2310 N   0  0  0  0  0  2  0  0  0  0  0  0
  193.0210  176.9130  140.3350 C   0  0  0  0  0  3  0  0  0  0  0  0
  191.6400  177.0530  140.4890 C   0  0  0  0  0  0  0  0  0  0  0  0
  193.5610  176.6580  139.0700 C   0  0  0  0  0  3  0  0  0  0  0  0
  189.7670  177.4450  141.9030 C   0  0  0  0  0  0  0  0  0  0  0  0
  188.9020  177.3310  140.8050 C   0  0  0  0  0  3  0  0  0  0  0  0
  193.2930  176.2730  136.6180 C   0  0  0  0  0  0  0  0  0  0  0  0
  192.7070  175.4950  135.8180 O   0  0  0  0  0  0  0  0  0  0  0  0
  194.4820  176.8780  136.2300 O   0  0  0  0  0  1  0  0  0  0  0  0
  181.5310  179.8110  139.0130 C   0  0  0  0  0  0  0  0  0  0  0  0
  180.6800  180.8740  139.2930 O   0  0  0  0  0  1  0  0  0  0  0  0
  181.6080  179.3800  137.8310 O   0  0  0  0  0  0  0  0  0  0  0  0
  1 10  1  0  0  0  0
  2 15  2  0  0  0  0
  3  9  2  0  0  0  0
  4  8  2  0  0  0  0
  5  1  2  0  0  0  0
  5  4  1  0  0  0  0
  6  7  1  0  0  0  0
  8  6  1  0  0  0  0
  9 11  1  0  0  0  0
 10  9  1  0  0  0  0
 10  6  2  0  0  0  0
 11  7  1  0  0  0  0
 12  2  1  0  0  0  0
 13 12  1  0  0  0  0
 14 13  2  0  0  0  0
 14 16  1  0  0  0  0
 15  3  1  0  0  0  0
 16 17  2  0  0  0  0
 17 15  1  0  0  0  0
 17  1  1  0  0  0  0
 18 28  2  0  0  0  0
 19 27  2  0  0  0  0
 20 21  2  0  0  0  0
 20 26  1  0  0  0  0
 21 22  1  0  0  0  0
 22 18  1  0  0  0  0
 22 25  2  0  0  0  0
 23  4  1  0  0  0  0
 24 25  1  0  0  0  0
 25 19  1  0  0  0  0
 26 24  2  0  0  0  0
 27 23  1  0  0  0  0
 28 27  1  0  0  0  0
 29 20  1  0  0  0  0
 30 29  2  0  0  0  0
 31 29  1  0  0  0  0
 32 33  1  0  0  0  0
 32 13  1  0  0  0  0
 34 32  2  0  0  0  0
M  END
>  <MODEL>
5

>  <REMARK>
 VINA RESULT:      -9.9      4.093      6.642
  Name = 
  3 active torsions:
  status: ('A' for Active; 'I' for Inactive)
    1  A    between atoms: C_3  and  C_25
    2  A    between atoms: C_7  and  C_11
    3  A    between atoms: C_8  and  N_18
                            x       y       z     vdW  Elec       q    Type
                         _______ _______ _______ _____ _____    ______ ____

>  <TORSDO>
F 3

$$$$
=
 OpenBabel10272415283D

 34 39  0  0  0  0  0  0  0  0999 V2000
  188.3830  177.6800  143.1380 C   0  0  0  0  0  0  0  0  0  0  0  0
  191.9520  177.2550  142.2320 C   0  0  0  0  0  3  0  0  0  0  0  0
  190.8830  177.0450  144.2540 N   0  0  0  0  0  0  0  0  0  0  0  0
  186.0230  178.0500  143.7570 C   0  0  0  0  0  0  0  0  0  0  0  0
  187.0430  177.9310  142.7630 C   0  0  0  0  0  3  0  0  0  0  0  0
  187.6790  177.6350  145.4560 C   0  0  0  0  0  0  0  0  0  0  0  0
  188.2930  177.3430  146.7170 N   0  0  0  0  0  2  0  0  0  0  0  0
  186.3460  177.8810  145.1300 C   0  0  0  0  0  3  0  0  0  0  0  0
  189.7810  177.2130  145.0210 C   0  0  0  0  0  0  0  0  0  0  0  0
  188.6100  177.5560  144.4820 C   0  0  0  0  0  0  0  0  0  0  0  0
  189.6240  177.0840  146.3980 O   0  0  0  0  0  0  0  0  0  0  0  0
  192.1460  177.7330  140.8330 C   0  0  0  0  0  2  0  0  0  0  0  0
  191.4120  176.9140  139.8330 C   0  0  0  0  0  0  0  0  0  0  0  0
  190.0860  176.8190  139.8760 C   0  0  0  0  0  3  0  0  0  0  0  0
  190.7890  177.2130  142.8900 C   0  0  0  0  0  0  0  0  0  0  0  0
  189.2110  177.2850  140.9660 C   0  0  0  0  0  3  0  0  0  0  0  0
  189.4880  177.4500  142.2750 C   0  0  0  0  0  0  0  0  0  0  0  0
  184.3270  179.1630  139.7730 C   0  0  0  0  0  3  0  0  0  0  0  0
  182.7520  178.7850  142.0170 N   0  0  0  0  0  0  0  0  0  0  0  0
  180.9440  179.7770  138.3950 C   0  0  0  0  0  0  0  0  0  0  0  0
  182.3370  179.6380  138.4710 C   0  0  0  0  0  3  0  0  0  0  0  0
  182.9440  179.3040  139.6850 C   0  0  0  0  0  0  0  0  0  0  0  0
  184.6530  178.3030  143.4100 N   0  0  0  0  0  2  0  0  0  0  0  0
  180.7690  179.2490  140.7640 C   0  0  0  0  0  3  0  0  0  0  0  0
  182.1570  179.1090  140.8380 C   0  0  0  0  0  0  0  0  0  0  0  0
  180.1650  179.5810  139.5470 C   0  0  0  0  0  3  0  0  0  0  0  0
  184.1010  178.6400  142.1280 C   0  0  0  0  0  0  0  0  0  0  0  0
  184.9090  178.8310  140.9980 C   0  0  0  0  0  3  0  0  0  0  0  0
  180.3080  180.1270  137.1140 C   0  0  0  0  0  0  0  0  0  0  0  0
  179.9970  179.2270  136.2890 O   0  0  0  0  0  0  0  0  0  0  0  0
  180.0410  181.4550  136.8040 O   0  0  0  0  0  1  0  0  0  0  0  0
  192.1530  176.3490  138.6930 C   0  0  0  0  0  0  0  0  0  0  0  0
  193.3680  176.9040  138.3070 O   0  0  0  0  0  1  0  0  0  0  0  0
  191.7010  175.3570  138.0590 O   0  0  0  0  0  0  0  0  0  0  0  0
  1 10  1  0  0  0  0
  2 15  2  0  0  0  0
  3  9  2  0  0  0  0
  4  8  2  0  0  0  0
  5  1  2  0  0  0  0
  5  4  1  0  0  0  0
  6  7  1  0  0  0  0
  8  6  1  0  0  0  0
  9 11  1  0  0  0  0
 10  9  1  0  0  0  0
 10  6  2  0  0  0  0
 11  7  1  0  0  0  0
 12  2  1  0  0  0  0
 13 14  2  0  0  0  0
 13 12  1  0  0  0  0
 14 16  1  0  0  0  0
 15  3  1  0  0  0  0
 16 17  2  0  0  0  0
 17 15  1  0  0  0  0
 17  1  1  0  0  0  0
 18 28  2  0  0  0  0
 19 27  2  0  0  0  0
 20 21  2  0  0  0  0
 20 26  1  0  0  0  0
 21 22  1  0  0  0  0
 22 18  1  0  0  0  0
 22 25  2  0  0  0  0
 23  4  1  0  0  0  0
 24 25  1  0  0  0  0
 25 19  1  0  0  0  0
 26 24  2  0  0  0  0
 27 23  1  0  0  0  0
 28 27  1  0  0  0  0
 29 20  1  0  0  0  0
 30 29  2  0  0  0  0
 31 29  1  0  0  0  0
 32 13  1  0  0  0  0
 33 32  1  0  0  0  0
 34 32  2  0  0  0  0
M  END
>  <MODEL>
6

>  <REMARK>
 VINA RESULT:      -9.8      3.368      8.937
  Name = 
  3 active torsions:
  status: ('A' for Active; 'I' for Inactive)
    1  A    between atoms: C_3  and  C_25
    2  A    between atoms: C_7  and  C_11
    3  A    between atoms: C_8  and  N_18
                            x       y       z     vdW  Elec       q    Type
                         _______ _______ _______ _____ _____    ______ ____

>  <TORSDO>
F 3

$$$$
=
 OpenBabel10272415283D

 34 39  0  0  0  0  0  0  0  0999 V2000
  189.9500  176.8050  137.6930 C   0  0  0  0  0  0  0  0  0  0  0  0
  191.9550  175.5860  134.8240 C   0  0  0  0  0  3  0  0  0  0  0  0
  190.0470  176.8630  134.8850 N   0  0  0  0  0  0  0  0  0  0  0  0
  188.5680  177.5420  139.5990 C   0  0  0  0  0  0  0  0  0  0  0  0
  189.7530  176.9300  139.0870 C   0  0  0  0  0  3  0  0  0  0  0  0
  187.8270  177.9150  137.3380 C   0  0  0  0  0  0  0  0  0  0  0  0
  187.0880  178.3970  136.2090 N   0  0  0  0  0  2  0  0  0  0  0  0
  187.5930  178.0590  138.7050 C   0  0  0  0  0  3  0  0  0  0  0  0
  189.0040  177.3800  135.5740 C   0  0  0  0  0  0  0  0  0  0  0  0
  188.9510  177.3080  136.9050 C   0  0  0  0  0  0  0  0  0  0  0  0
  187.8660  178.0360  135.1120 O   0  0  0  0  0  0  0  0  0  0  0  0
  192.9610  174.6080  135.3280 C   0  0  0  0  0  2  0  0  0  0  0  0
  193.9600  175.2230  136.2410 C   0  0  0  0  0  0  0  0  0  0  0  0
  193.5780  175.7910  137.3820 C   0  0  0  0  0  3  0  0  0  0  0  0
  191.0820  176.2680  135.5720 C   0  0  0  0  0  0  0  0  0  0  0  0
  192.1930  176.0840  137.7920 C   0  0  0  0  0  3  0  0  0  0  0  0
  191.1040  176.3070  137.0290 C   0  0  0  0  0  0  0  0  0  0  0  0
  191.2520  176.3890  142.9830 C   0  0  0  0  0  3  0  0  0  0  0  0
  188.8000  177.6130  143.3690 N   0  0  0  0  0  0  0  0  0  0  0  0
  191.1550  176.6690  146.6760 C   0  0  0  0  0  0  0  0  0  0  0  0
  191.6050  176.3680  145.3830 C   0  0  0  0  0  3  0  0  0  0  0  0
  190.8160  176.6850  144.2740 C   0  0  0  0  0  0  0  0  0  0  0  0
  188.3370  177.6850  141.0090 N   0  0  0  0  0  2  0  0  0  0  0  0
  189.1140  177.6080  145.7390 C   0  0  0  0  0  3  0  0  0  0  0  0
  189.5640  177.3080  144.4510 C   0  0  0  0  0  0  0  0  0  0  0  0
  189.9070  177.2910  146.8470 C   0  0  0  0  0  3  0  0  0  0  0  0
  189.2050  177.3370  142.0990 C   0  0  0  0  0  0  0  0  0  0  0  0
  190.4450  176.7150  141.8920 C   0  0  0  0  0  3  0  0  0  0  0  0
  191.9880  176.3360  147.8420 C   0  0  0  0  0  0  0  0  0  0  0  0
  192.3770  175.1530  148.0320 O   0  0  0  0  0  0  0  0  0  0  0  0
  192.3560  177.3260  148.7460 O   0  0  0  0  0  1  0  0  0  0  0  0
  195.3930  175.0450  135.9520 C   0  0  0  0  0  0  0  0  0  0  0  0
  196.3450  175.4140  136.8950 O   0  0  0  0  0  1  0  0  0  0  0  0
  195.7720  174.5530  134.8550 O   0  0  0  0  0  0  0  0  0  0  0  0
  1  5  1  0  0  0  0
  2 12  1  0  0  0  0
  2 15  2  0  0  0  0
  3 15  1  0  0  0  0
  3  9  2  0  0  0  0
  4 23  1  0  0  0  0
  5  4  2  0  0  0  0
  6  8  2  0  0  0  0
  7  6  1  0  0  0  0
  8  4  1  0  0  0  0
  9 10  1  0  0  0  0
 10  6  1  0  0  0  0
 10  1  2  0  0  0  0
 11  9  1  0  0  0  0
 11  7  1  0  0  0  0
 12 13  1  0  0  0  0
 13 14  2  0  0  0  0
 14 16  1  0  0  0  0
 15 17  1  0  0  0  0
 17  1  1  0  0  0  0
 17 16  2  0  0  0  0
 18 22  1  0  0  0  0
 19 25  1  0  0  0  0
 20 26  1  0  0  0  0
 20 29  1  0  0  0  0
 21 20  2  0  0  0  0
 22 25  2  0  0  0  0
 22 21  1  0  0  0  0
 23 27  1  0  0  0  0
 24 26  2  0  0  0  0
 25 24  1  0  0  0  0
 27 19  2  0  0  0  0
 28 27  1  0  0  0  0
 28 18  2  0  0  0  0
 29 30  2  0  0  0  0
 29 31  1  0  0  0  0
 32 13  1  0  0  0  0
 32 33  1  0  0  0  0
 34 32  2  0  0  0  0
M  END
>  <MODEL>
7

>  <REMARK>
 VINA RESULT:      -9.5      5.059      7.008
  Name = 
  3 active torsions:
  status: ('A' for Active; 'I' for Inactive)
    1  A    between atoms: C_3  and  C_25
    2  A    between atoms: C_7  and  C_11
    3  A    between atoms: C_8  and  N_18
                            x       y       z     vdW  Elec       q    Type
                         _______ _______ _______ _____ _____    ______ ____

>  <TORSDO>
F 3

$$$$
=
 OpenBabel10272415283D

 34 39  0  0  0  0  0  0  0  0999 V2000
  187.0230  178.1230  144.4310 C   0  0  0  0  0  0  0  0  0  0  0  0
  189.0520  177.7240  147.5060 C   0  0  0  0  0  3  0  0  0  0  0  0
  186.7990  178.0740  147.2320 N   0  0  0  0  0  0  0  0  0  0  0  0
  185.6870  178.4750  142.3870 C   0  0  0  0  0  0  0  0  0  0  0  0
  186.9210  178.1340  143.0200 C   0  0  0  0  0  3  0  0  0  0  0  0
  184.6870  178.7500  144.5600 C   0  0  0  0  0  0  0  0  0  0  0  0
  183.7170  178.9180  145.6020 N   0  0  0  0  0  2  0  0  0  0  0  0
  184.5430  178.7730  143.1740 C   0  0  0  0  0  3  0  0  0  0  0  0
  185.7490  178.3840  146.4370 C   0  0  0  0  0  0  0  0  0  0  0  0
  185.8800  178.4450  145.1110 C   0  0  0  0  0  0  0  0  0  0  0  0
  184.4310  178.6810  146.7740 O   0  0  0  0  0  0  0  0  0  0  0  0
  190.4950  177.7530  147.1300 C   0  0  0  0  0  2  0  0  0  0  0  0
  190.8940  176.6050  146.2750 C   0  0  0  0  0  0  0  0  0  0  0  0
  190.3340  176.4220  145.0810 C   0  0  0  0  0  3  0  0  0  0  0  0
  188.0210  177.7970  146.6590 C   0  0  0  0  0  0  0  0  0  0  0  0
  189.1600  177.1340  144.5480 C   0  0  0  0  0  3  0  0  0  0  0  0
  188.1440  177.7230  145.2080 C   0  0  0  0  0  0  0  0  0  0  0  0
  182.3780  176.7980  139.8910 C   0  0  0  0  0  3  0  0  0  0  0  0
  184.5300  178.1560  138.8040 N   0  0  0  0  0  0  0  0  0  0  0  0
  181.5380  176.7180  136.2840 C   0  0  0  0  0  0  0  0  0  0  0  0
  181.4510  176.5130  137.6690 C   0  0  0  0  0  3  0  0  0  0  0  0
  182.4530  176.9960  138.5140 C   0  0  0  0  0  0  0  0  0  0  0  0
  185.5490  178.4960  140.9570 N   0  0  0  0  0  2  0  0  0  0  0  0
  183.6460  177.8930  136.5990 C   0  0  0  0  0  3  0  0  0  0  0  0
  183.5580  177.6890  137.9780 C   0  0  0  0  0  0  0  0  0  0  0  0
  182.6400  177.4100  135.7560 C   0  0  0  0  0  3  0  0  0  0  0  0
  184.4780  177.9780  140.1530 C   0  0  0  0  0  0  0  0  0  0  0  0
  183.3930  177.2890  140.7140 C   0  0  0  0  0  3  0  0  0  0  0  0
  180.4800  176.2100  135.3960 C   0  0  0  0  0  0  0  0  0  0  0  0
  179.9830  176.9510  134.5060 O   0  0  0  0  0  0  0  0  0  0  0  0
  180.0200  174.9050  135.5300 O   0  0  0  0  0  1  0  0  0  0  0  0
  192.0370  175.7730  146.6870 C   0  0  0  0  0  0  0  0  0  0  0  0
  192.6080  175.9460  147.9420 O   0  0  0  0  0  1  0  0  0  0  0  0
  192.5060  174.8950  145.9130 O   0  0  0  0  0  0  0  0  0  0  0  0
  1 10  1  0  0  0  0
  1 17  1  0  0  0  0
  4  5  1  0  0  0  0
  4  8  2  0  0  0  0
  5  1  2  0  0  0  0
  6 10  2  0  0  0  0
  6  7  1  0  0  0  0
  7 11  1  0  0  0  0
  8  6  1  0  0  0  0
  9 11  1  0  0  0  0
  9  3  2  0  0  0  0
 10  9  1  0  0  0  0
 12  2  1  0  0  0  0
 13 32  1  0  0  0  0
 13 12  1  0  0  0  0
 14 13  2  0  0  0  0
 15  3  1  0  0  0  0
 15  2  2  0  0  0  0
 16 14  1  0  0  0  0
 16 17  2  0  0  0  0
 17 15  1  0  0  0  0
 18 28  2  0  0  0  0
 19 27  2  0  0  0  0
 20 21  1  0  0  0  0
 21 22  2  0  0  0  0
 22 18  1  0  0  0  0
 23  4  1  0  0  0  0
 24 25  2  0  0  0  0
 25 22  1  0  0  0  0
 25 19  1  0  0  0  0
 26 20  2  0  0  0  0
 26 24  1  0  0  0  0
 27 28  1  0  0  0  0
 27 23  1  0  0  0  0
 29 31  1  0  0  0  0
 29 20  1  0  0  0  0
 30 29  2  0  0  0  0
 32 33  1  0  0  0  0
 34 32  2  0  0  0  0
M  END
>  <MODEL>
8

>  <REMARK>
 VINA RESULT:      -9.5      2.680      9.926
  Name = 
  3 active torsions:
  status: ('A' for Active; 'I' for Inactive)
    1  A    between atoms: C_3  and  C_25
    2  A    between atoms: C_7  and  C_11
    3  A    between atoms: C_8  and  N_18
                            x       y       z     vdW  Elec       q    Type
                         _______ _______ _______ _____ _____    ______ ____

>  <TORSDO>
F 3

$$$$
=
 OpenBabel10272415283D

 34 39  0  0  0  0  0  0  0  0999 V2000
  183.0730  178.2810  140.7880 C   0  0  0  0  0  0  0  0  0  0  0  0
  179.9820  177.9730  138.7660 C   0  0  0  0  0  3  0  0  0  0  0  0
  180.2910  178.6560  140.9370 N   0  0  0  0  0  0  0  0  0  0  0  0
  185.1190  178.4030  142.1610 C   0  0  0  0  0  0  0  0  0  0  0  0
  184.4800  178.2010  140.8990 C   0  0  0  0  0  3  0  0  0  0  0  0
  182.9600  178.7880  143.1540 C   0  0  0  0  0  0  0  0  0  0  0  0
  181.9360  179.1620  144.0840 N   0  0  0  0  0  2  0  0  0  0  0  0
  184.3440  178.7190  143.3080 C   0  0  0  0  0  3  0  0  0  0  0  0
  181.0880  178.7890  142.0230 C   0  0  0  0  0  0  0  0  0  0  0  0
  182.4020  178.5670  141.9470 C   0  0  0  0  0  0  0  0  0  0  0  0
  180.7660  179.1470  143.3290 O   0  0  0  0  0  0  0  0  0  0  0  0
  180.3140  177.2660  137.4960 C   0  0  0  0  0  2  0  0  0  0  0  0
  181.2450  178.0350  136.6300 C   0  0  0  0  0  0  0  0  0  0  0  0
  182.4640  178.3530  137.0590 C   0  0  0  0  0  3  0  0  0  0  0  0
  180.8490  178.3040  139.7280 C   0  0  0  0  0  0  0  0  0  0  0  0
  182.9730  178.2050  138.4340 C   0  0  0  0  0  3  0  0  0  0  0  0
  182.2980  178.1950  139.6000 C   0  0  0  0  0  0  0  0  0  0  0  0
  187.4840  177.2790  145.7850 C   0  0  0  0  0  3  0  0  0  0  0  0
  188.6660  177.8970  143.3600 N   0  0  0  0  0  0  0  0  0  0  0  0
  191.0720  176.8330  146.5930 C   0  0  0  0  0  0  0  0  0  0  0  0
  189.6780  176.8760  146.7370 C   0  0  0  0  0  3  0  0  0  0  0  0
  188.8710  177.2320  145.6540 C   0  0  0  0  0  0  0  0  0  0  0  0
  186.5460  178.3290  142.3070 N   0  0  0  0  0  2  0  0  0  0  0  0
  190.8440  177.5090  144.2660 C   0  0  0  0  0  3  0  0  0  0  0  0
  189.4550  177.5510  144.4110 C   0  0  0  0  0  0  0  0  0  0  0  0
  191.6490  177.1510  145.3530 C   0  0  0  0  0  3  0  0  0  0  0  0
  187.3100  177.9480  143.4620 C   0  0  0  0  0  0  0  0  0  0  0  0
  186.7000  177.6390  144.6870 C   0  0  0  0  0  3  0  0  0  0  0  0
  191.9190  176.4560  147.7360 C   0  0  0  0  0  0  0  0  0  0  0  0
  192.2410  177.3130  148.6020 O   0  0  0  0  0  1  0  0  0  0  0  0
  192.3730  175.1500  147.8710 O   0  0  0  0  0  0  0  0  0  0  0  0
  180.8670  178.2930  135.2310 C   0  0  0  0  0  0  0  0  0  0  0  0
  181.0370  179.5600  134.6850 O   0  0  0  0  0  1  0  0  0  0  0  0
  180.3920  177.3720  134.5120 O   0  0  0  0  0  0  0  0  0  0  0  0
  1  5  2  0  0  0  0
  1 10  1  0  0  0  0
  2 15  2  0  0  0  0
  3  9  2  0  0  0  0
  4 23  1  0  0  0  0
  4  8  2  0  0  0  0
  5  4  1  0  0  0  0
  6  8  1  0  0  0  0
  6  7  1  0  0  0  0
  9 11  1  0  0  0  0
 10  9  1  0  0  0  0
 10  6  2  0  0  0  0
 11  7  1  0  0  0  0
 12  2  1  0  0  0  0
 13 14  2  0  0  0  0
 13 12  1  0  0  0  0
 14 16  1  0  0  0  0
 15  3  1  0  0  0  0
 16 17  2  0  0  0  0
 17 15  1  0  0  0  0
 17  1  1  0  0  0  0
 19 27  2  0  0  0  0
 19 25  1  0  0  0  0
 20 21  1  0  0  0  0
 20 29  1  0  0  0  0
 22 18  1  0  0  0  0
 22 21  2  0  0  0  0
 23 27  1  0  0  0  0
 24 25  2  0  0  0  0
 24 26  1  0  0  0  0
 25 22  1  0  0  0  0
 26 20  2  0  0  0  0
 27 28  1  0  0  0  0
 28 18  2  0  0  0  0
 29 31  2  0  0  0  0
 29 30  1  0  0  0  0
 32 13  1  0  0  0  0
 33 32  1  0  0  0  0
 34 32  2  0  0  0  0
M  END
>  <MODEL>
9

>  <REMARK>
 VINA RESULT:      -9.3      2.245      3.045
  Name = 
  3 active torsions:
  status: ('A' for Active; 'I' for Inactive)
    1  A    between atoms: C_3  and  C_25
    2  A    between atoms: C_7  and  C_11
    3  A    between atoms: C_8  and  N_18
                            x       y       z     vdW  Elec       q    Type
                         _______ _______ _______ _____ _____    ______ ____

>  <TORSDO>
F 3

$$$$
