=
 OpenBabel10272400443D

 25 27  0  0  1  0  0  0  0  0999 V2000
  188.3300  177.4530  144.4320 C   0  0  1  0  0  3  0  0  0  0  0  0
  191.2680  179.7530  143.7100 C   0  0  0  0  0  1  0  0  0  0  0  0
  190.7980  175.9280  143.2420 C   0  0  0  0  0  2  0  0  0  0  0  0
  190.4050  178.5250  143.4870 C   0  0  1  0  0  3  0  0  0  0  0  0
  190.4320  176.9830  145.7110 S   0  0  0  0  0  0  0  0  0  0  0  0
  189.7950  176.7480  147.0520 O   0  0  0  0  0  0  0  0  0  0  0  0
  191.2680  177.3650  142.9250 C   0  0  2  0  0  3  0  0  0  0  0  0
  188.5930  176.0920  144.1280 O   0  0  0  0  0  0  0  0  0  0  0  0
  191.9200  177.1690  145.8210 O   0  0  0  0  0  0  0  0  0  0  0  0
  189.9260  175.7990  144.4970 C   0  0  1  0  0  3  0  0  0  0  0  0
  189.6110  178.2090  144.7760 C   0  0  2  0  0  3  0  0  0  0  0  0
  187.4460  178.1340  143.3830 C   0  0  1  0  0  3  0  0  0  0  0  0
  187.3350  177.3620  142.2240 O   0  0  0  0  0  1  0  0  0  0  0  0
  186.0940  178.4640  143.9400 C   0  0  0  0  0  0  0  0  0  0  0  0
  183.5780  178.9980  145.0600 C   0  0  0  0  0  3  0  0  0  0  0  0
  185.0650  179.0080  143.1460 C   0  0  0  0  0  0  0  0  0  0  0  0
  183.8140  179.2750  143.7110 C   0  0  0  0  0  3  0  0  0  0  0  0
  184.5950  178.4520  145.8490 C   0  0  0  0  0  3  0  0  0  0  0  0
  185.2680  179.2860  141.8340 F   0  0  0  0  0  0  0  0  0  0  0  0
  185.8460  178.1840  145.2880 C   0  0  0  0  0  3  0  0  0  0  0  0
  191.5280  177.5290  141.4610 C   0  0  0  0  0  0  0  0  0  0  0  0
  192.6640  177.9020  141.0620 O   0  0  0  0  0  0  0  0  0  0  0  0
  190.4670  177.2560  140.4830 C   0  0  0  0  0  0  0  0  0  0  0  0
  189.5040  178.2200  140.2140 O   0  0  0  0  0  1  0  0  0  0  0  0
  190.4220  176.1490  139.8830 O   0  0  0  0  0  0  0  0  0  0  0  0
  1 12  1  6  0  0  0
  1 11  1  0  0  0  0
  4  2  1  1  0  0  0
  4 11  1  0  0  0  0
  5  9  2  0  0  0  0
  5  6  2  0  0  0  0
  7 21  1  6  0  0  0
  7  3  1  0  0  0  0
  7  4  1  0  0  0  0
  8  1  1  0  0  0  0
  8 10  1  0  0  0  0
 10  3  1  6  0  0  0
 10  5  1  0  0  0  0
 11  5  1  1  0  0  0
 12 13  1  6  0  0  0
 12 14  1  0  0  0  0
 14 20  1  0  0  0  0
 15 18  1  0  0  0  0
 16 17  1  0  0  0  0
 16 14  2  0  0  0  0
 17 15  2  0  0  0  0
 19 16  1  0  0  0  0
 20 18  2  0  0  0  0
 22 21  2  0  0  0  0
 23 21  1  0  0  0  0
 24 23  1  0  0  0  0
 25 23  2  0  0  0  0
M  END
>  <MODEL>
1

>  <REMARK>
 VINA RESULT:      -7.0      0.000      0.000
  Name = 
  4 active torsions:
  status: ('A' for Active; 'I' for Inactive)
    1  A    between atoms: C_1  and  C_3
    2  A    between atoms: C_1  and  C_5
    3  A    between atoms: C_2  and  C_21
    4  A    between atoms: C_15  and  C_21
                            x       y       z     vdW  Elec       q    Type
                         _______ _______ _______ _____ _____    ______ ____

>  <TORSDO>
F 4

$$$$
=
 OpenBabel10272400443D

 25 27  0  0  1  0  0  0  0  0999 V2000
  188.3500  177.9180  139.2910 C   0  0  1  0  0  3  0  0  0  0  0  0
  187.9700  174.8210  137.1210 C   0  0  0  0  0  1  0  0  0  0  0  0
  189.6160  178.2710  136.4440 C   0  0  0  0  0  2  0  0  0  0  0  0
  188.6580  176.0930  137.5820 C   0  0  1  0  0  3  0  0  0  0  0  0
  187.0130  178.2060  137.1930 S   0  0  0  0  0  0  0  0  0  0  0  0
  185.8960  179.0200  137.7840 O   0  0  0  0  0  0  0  0  0  0  0  0
  189.4260  176.7390  136.3990 C   0  0  2  0  0  3  0  0  0  0  0  0
  189.0110  178.9880  138.6340 O   0  0  0  0  0  0  0  0  0  0  0  0
  186.6630  177.6810  135.8280 O   0  0  0  0  0  0  0  0  0  0  0  0
  188.5790  179.0240  137.2880 C   0  0  1  0  0  3  0  0  0  0  0  0
  187.6350  177.0050  138.2980 C   0  0  2  0  0  3  0  0  0  0  0  0
  189.2510  177.1920  140.2940 C   0  0  1  0  0  3  0  0  0  0  0  0
  190.5430  177.7260  140.3050 O   0  0  0  0  0  1  0  0  0  0  0  0
  188.6550  177.2020  141.6700 C   0  0  0  0  0  0  0  0  0  0  0  0
  187.5000  177.3260  144.2230 C   0  0  0  0  0  3  0  0  0  0  0  0
  189.2060  176.4610  142.7340 C   0  0  0  0  0  0  0  0  0  0  0  0
  188.6230  176.5250  144.0040 C   0  0  0  0  0  3  0  0  0  0  0  0
  186.9550  178.0670  143.1710 C   0  0  0  0  0  3  0  0  0  0  0  0
  190.2960  175.6760  142.5490 F   0  0  0  0  0  0  0  0  0  0  0  0
  187.5340  178.0070  141.9010 C   0  0  0  0  0  3  0  0  0  0  0  0
  190.7280  176.0480  136.1430 C   0  0  0  0  0  0  0  0  0  0  0  0
  191.0470  175.7260  134.9680 O   0  0  0  0  0  0  0  0  0  0  0  0
  191.6390  175.7460  137.2540 C   0  0  0  0  0  0  0  0  0  0  0  0
  191.6130  174.4920  137.8530 O   0  0  0  0  0  1  0  0  0  0  0  0
  192.4480  176.6160  137.6710 O   0  0  0  0  0  0  0  0  0  0  0  0
  1 12  1  6  0  0  0
  4  2  1  6  0  0  0
  4 11  1  0  0  0  0
  5 10  1  0  0  0  0
  5  6  2  0  0  0  0
  7 21  1  1  0  0  0
  7  3  1  0  0  0  0
  7  4  1  0  0  0  0
  8  1  1  0  0  0  0
  9  5  2  0  0  0  0
 10  3  1  6  0  0  0
 10  8  1  0  0  0  0
 11  5  1  6  0  0  0
 11  1  1  0  0  0  0
 12 13  1  1  0  0  0
 12 14  1  0  0  0  0
 14 20  2  0  0  0  0
 14 16  1  0  0  0  0
 16 17  2  0  0  0  0
 17 15  1  0  0  0  0
 18 15  2  0  0  0  0
 19 16  1  0  0  0  0
 20 18  1  0  0  0  0
 21 23  1  0  0  0  0
 22 21  2  0  0  0  0
 23 25  2  0  0  0  0
 23 24  1  0  0  0  0
M  END
>  <MODEL>
2

>  <REMARK>
 VINA RESULT:      -6.7      3.876      6.394
  Name = 
  4 active torsions:
  status: ('A' for Active; 'I' for Inactive)
    1  A    between atoms: C_1  and  C_3
    2  A    between atoms: C_1  and  C_5
    3  A    between atoms: C_2  and  C_21
    4  A    between atoms: C_15  and  C_21
                            x       y       z     vdW  Elec       q    Type
                         _______ _______ _______ _____ _____    ______ ____

>  <TORSDO>
F 4

$$$$
=
 OpenBabel10272400443D

 25 27  0  0  1  0  0  0  0  0999 V2000
  183.0630  178.6920  140.8960 C   0  0  1  0  0  3  0  0  0  0  0  0
  182.8950  175.4130  138.9810 C   0  0  0  0  0  1  0  0  0  0  0  0
  182.5020  179.1020  137.8380 C   0  0  0  0  0  2  0  0  0  0  0  0
  183.1650  176.8990  139.1290 C   0  0  1  0  0  3  0  0  0  0  0  0
  180.8740  178.1750  139.7960 S   0  0  0  0  0  0  0  0  0  0  0  0
  179.9820  178.5870  140.9330 O   0  0  0  0  0  0  0  0  0  0  0  0
  182.9260  177.6180  137.7750 C   0  0  2  0  0  3  0  0  0  0  0  0
  182.8370  179.8320  140.0810 O   0  0  0  0  0  0  0  0  0  0  0  0
  180.1300  177.3780  138.7600 O   0  0  0  0  0  0  0  0  0  0  0  0
  181.8210  179.5210  139.1480 C   0  0  1  0  0  3  0  0  0  0  0  0
  182.3700  177.4530  140.3340 C   0  0  2  0  0  3  0  0  0  0  0  0
  184.5420  178.4970  141.2430 C   0  0  1  0  0  3  0  0  0  0  0  0
  185.3450  179.4690  140.6400 O   0  0  0  0  0  1  0  0  0  0  0  0
  184.7560  178.4690  142.7270 C   0  0  0  0  0  0  0  0  0  0  0  0
  185.0790  178.5040  145.5120 C   0  0  0  0  0  3  0  0  0  0  0  0
  185.9690  178.0460  143.3040 C   0  0  0  0  0  0  0  0  0  0  0  0
  186.1230  178.0620  144.6950 C   0  0  0  0  0  3  0  0  0  0  0  0
  183.8770  178.9300  144.9420 C   0  0  0  0  0  3  0  0  0  0  0  0
  186.9970  177.6130  142.5340 F   0  0  0  0  0  0  0  0  0  0  0  0
  183.7190  178.9150  143.5540 C   0  0  0  0  0  3  0  0  0  0  0  0
  184.0800  177.4340  136.8410 C   0  0  0  0  0  0  0  0  0  0  0  0
  183.8690  177.2400  135.6130 O   0  0  0  0  0  0  0  0  0  0  0  0
  185.4580  177.4810  137.3440 C   0  0  0  0  0  0  0  0  0  0  0  0
  186.0000  178.6850  137.7770 O   0  0  0  0  0  1  0  0  0  0  0  0
  186.1580  176.4340  137.3870 O   0  0  0  0  0  0  0  0  0  0  0  0
  1 12  1  6  0  0  0
  4  2  1  6  0  0  0
  4 11  1  0  0  0  0
  5  6  2  0  0  0  0
  7 21  1  6  0  0  0
  7  3  1  0  0  0  0
  7  4  1  0  0  0  0
  8  1  1  0  0  0  0
  9  5  2  0  0  0  0
 10  3  1  6  0  0  0
 10  5  1  0  0  0  0
 10  8  1  0  0  0  0
 11  5  1  6  0  0  0
 11  1  1  0  0  0  0
 12 13  1  6  0  0  0
 12 14  1  0  0  0  0
 14 16  2  0  0  0  0
 14 20  1  0  0  0  0
 16 17  1  0  0  0  0
 17 15  2  0  0  0  0
 18 15  1  0  0  0  0
 19 16  1  0  0  0  0
 20 18  2  0  0  0  0
 21 23  1  0  0  0  0
 22 21  2  0  0  0  0
 23 25  2  0  0  0  0
 23 24  1  0  0  0  0
M  END
>  <MODEL>
3

>  <REMARK>
 VINA RESULT:      -6.5      5.123      7.609
  Name = 
  4 active torsions:
  status: ('A' for Active; 'I' for Inactive)
    1  A    between atoms: C_1  and  C_3
    2  A    between atoms: C_1  and  C_5
    3  A    between atoms: C_2  and  C_21
    4  A    between atoms: C_15  and  C_21
                            x       y       z     vdW  Elec       q    Type
                         _______ _______ _______ _____ _____    ______ ____

>  <TORSDO>
F 4

$$$$
=
 OpenBabel10272400443D

 25 27  0  0  1  0  0  0  0  0999 V2000
  188.6880  177.6350  143.7200 C   0  0  1  0  0  3  0  0  0  0  0  0
  190.8740  174.5270  143.7210 C   0  0  0  0  0  1  0  0  0  0  0  0
  191.5530  178.1700  144.8760 C   0  0  0  0  0  2  0  0  0  0  0  0
  190.4150  175.8770  144.2400 C   0  0  1  0  0  3  0  0  0  0  0  0
  190.7610  177.7520  142.3190 S   0  0  0  0  0  0  0  0  0  0  0  0
  190.1450  178.4050  141.1130 O   0  0  0  0  0  0  0  0  0  0  0  0
  191.6060  176.6260  144.8930 C   0  0  2  0  0  3  0  0  0  0  0  0
  189.3480  178.7880  144.2190 O   0  0  0  0  0  0  0  0  0  0  0  0
  192.1240  177.1910  142.0190 O   0  0  0  0  0  0  0  0  0  0  0  0
  190.6860  178.7720  143.7630 C   0  0  1  0  0  3  0  0  0  0  0  0
  189.6760  176.6400  143.1160 C   0  0  2  0  0  3  0  0  0  0  0  0
  187.7050  177.0320  144.7280 C   0  0  1  0  0  3  0  0  0  0  0  0
  188.2430  177.0060  146.0180 O   0  0  0  0  0  1  0  0  0  0  0  0
  186.3920  177.7540  144.7090 C   0  0  0  0  0  0  0  0  0  0  0  0
  183.9130  179.0650  144.7790 C   0  0  0  0  0  3  0  0  0  0  0  0
  185.7010  178.0280  143.5120 C   0  0  0  0  0  0  0  0  0  0  0  0
  184.4660  178.6840  143.5530 C   0  0  0  0  0  3  0  0  0  0  0  0
  184.5930  178.7890  145.9680 C   0  0  0  0  0  3  0  0  0  0  0  0
  186.2150  177.6690  142.3100 F   0  0  0  0  0  0  0  0  0  0  0  0
  185.8260  178.1340  145.9310 C   0  0  0  0  0  3  0  0  0  0  0  0
  191.8890  176.1190  146.2720 C   0  0  0  0  0  0  0  0  0  0  0  0
  192.5200  175.0390  146.4260 O   0  0  0  0  0  0  0  0  0  0  0  0
  191.4370  176.8730  147.4480 C   0  0  0  0  0  0  0  0  0  0  0  0
  192.3570  177.2880  148.4030 O   0  0  0  0  0  1  0  0  0  0  0  0
  190.2180  177.1470  147.5990 O   0  0  0  0  0  0  0  0  0  0  0  0
  1  8  1  0  0  0  0
  1 12  1  1  0  0  0
  3  7  1  0  0  0  0
  4  2  1  6  0  0  0
  4  7  1  0  0  0  0
  5 10  1  0  0  0  0
  6  5  2  0  0  0  0
  7 21  1  1  0  0  0
  9  5  2  0  0  0  0
 10  8  1  0  0  0  0
 10  3  1  1  0  0  0
 11  5  1  1  0  0  0
 11  1  1  0  0  0  0
 11  4  1  0  0  0  0
 12 13  1  1  0  0  0
 14 12  1  0  0  0  0
 14 20  1  0  0  0  0
 15 18  1  0  0  0  0
 16 17  1  0  0  0  0
 16 14  2  0  0  0  0
 17 15  2  0  0  0  0
 19 16  1  0  0  0  0
 20 18  2  0  0  0  0
 21 22  2  0  0  0  0
 21 23  1  0  0  0  0
 23 25  2  0  0  0  0
 23 24  1  0  0  0  0
M  END
>  <MODEL>
4

>  <REMARK>
 VINA RESULT:      -6.0      1.765      4.056
  Name = 
  4 active torsions:
  status: ('A' for Active; 'I' for Inactive)
    1  A    between atoms: C_1  and  C_3
    2  A    between atoms: C_1  and  C_5
    3  A    between atoms: C_2  and  C_21
    4  A    between atoms: C_15  and  C_21
                            x       y       z     vdW  Elec       q    Type
                         _______ _______ _______ _____ _____    ______ ____

>  <TORSDO>
F 4

$$$$
=
 OpenBabel10272400443D

 25 27  0  0  1  0  0  0  0  0999 V2000
  188.7670  177.8840  143.6960 C   0  0  1  0  0  3  0  0  0  0  0  0
  190.5010  174.5040  143.5690 C   0  0  0  0  0  1  0  0  0  0  0  0
  191.7500  178.0160  144.6530 C   0  0  0  0  0  2  0  0  0  0  0  0
  190.2680  175.9030  144.1090 C   0  0  1  0  0  3  0  0  0  0  0  0
  190.7370  177.7180  142.1580 S   0  0  0  0  0  0  0  0  0  0  0  0
  190.1360  178.4530  140.9920 O   0  0  0  0  0  0  0  0  0  0  0  0
  191.5920  176.4800  144.6760 C   0  0  2  0  0  3  0  0  0  0  0  0
  189.6120  178.9340  144.1420 O   0  0  0  0  0  0  0  0  0  0  0  0
  191.9860  176.9760  141.7700 O   0  0  0  0  0  0  0  0  0  0  0  0
  190.9010  178.7350  143.5960 C   0  0  1  0  0  3  0  0  0  0  0  0
  189.5650  176.7640  143.0330 C   0  0  2  0  0  3  0  0  0  0  0  0
  187.7810  177.4190  144.7720 C   0  0  1  0  0  3  0  0  0  0  0  0
  188.1790  177.8320  146.0470 O   0  0  0  0  0  1  0  0  0  0  0  0
  186.3870  177.8780  144.4700 C   0  0  0  0  0  0  0  0  0  0  0  0
  183.8140  178.7740  143.8020 C   0  0  0  0  0  3  0  0  0  0  0  0
  185.4850  178.2620  145.4820 C   0  0  0  0  0  0  0  0  0  0  0  0
  184.2020  178.7050  145.1430 C   0  0  0  0  0  3  0  0  0  0  0  0
  184.7090  178.4010  142.7960 C   0  0  0  0  0  3  0  0  0  0  0  0
  185.8360  178.2040  146.7900 F   0  0  0  0  0  0  0  0  0  0  0  0
  185.9900  177.9580  143.1300 C   0  0  0  0  0  3  0  0  0  0  0  0
  191.8950  175.9340  146.0360 C   0  0  0  0  0  0  0  0  0  0  0  0
  192.6530  174.9350  146.1570 O   0  0  0  0  0  0  0  0  0  0  0  0
  191.3160  176.5580  147.2320 C   0  0  0  0  0  0  0  0  0  0  0  0
  192.1340  177.2320  148.1300 O   0  0  0  0  0  1  0  0  0  0  0  0
  190.0780  176.4860  147.4530 O   0  0  0  0  0  0  0  0  0  0  0  0
  1  8  1  0  0  0  0
  1 12  1  1  0  0  0
  3  7  1  0  0  0  0
  4  2  1  6  0  0  0
  4  7  1  0  0  0  0
  5 10  1  0  0  0  0
  6  5  2  0  0  0  0
  7 21  1  1  0  0  0
  9  5  2  0  0  0  0
 10  8  1  0  0  0  0
 10  3  1  1  0  0  0
 11  5  1  6  0  0  0
 11  1  1  0  0  0  0
 11  4  1  0  0  0  0
 12 13  1  1  0  0  0
 14 12  1  0  0  0  0
 14 16  1  0  0  0  0
 15 17  1  0  0  0  0
 16 19  1  0  0  0  0
 17 16  2  0  0  0  0
 18 20  1  0  0  0  0
 18 15  2  0  0  0  0
 20 14  2  0  0  0  0
 21 22  2  0  0  0  0
 21 23  1  0  0  0  0
 23 25  2  0  0  0  0
 23 24  1  0  0  0  0
M  END
>  <MODEL>
5

>  <REMARK>
 VINA RESULT:      -6.0      1.997      4.215
  Name = 
  4 active torsions:
  status: ('A' for Active; 'I' for Inactive)
    1  A    between atoms: C_1  and  C_3
    2  A    between atoms: C_1  and  C_5
    3  A    between atoms: C_2  and  C_21
    4  A    between atoms: C_15  and  C_21
                            x       y       z     vdW  Elec       q    Type
                         _______ _______ _______ _____ _____    ______ ____

>  <TORSDO>
F 4

$$$$
=
 OpenBabel10272400443D

 25 27  0  0  1  0  0  0  0  0999 V2000
  187.7220  177.6810  143.3560 C   0  0  1  0  0  3  0  0  0  0  0  0
  191.0360  179.5420  143.3950 C   0  0  0  0  0  1  0  0  0  0  0  0
  190.1540  175.8410  142.6220 C   0  0  0  0  0  2  0  0  0  0  0  0
  190.0790  178.4600  142.9280 C   0  0  1  0  0  3  0  0  0  0  0  0
  189.4140  176.8730  145.0160 S   0  0  0  0  0  0  0  0  0  0  0  0
  188.4780  176.6990  146.1800 O   0  0  0  0  0  0  0  0  0  0  0  0
  190.8750  177.2010  142.4940 C   0  0  2  0  0  3  0  0  0  0  0  0
  187.8530  176.3040  143.0360 O   0  0  0  0  0  0  0  0  0  0  0  0
  190.8550  176.8360  145.4450 O   0  0  0  0  0  0  0  0  0  0  0  0
  189.0220  175.8090  143.6590 C   0  0  1  0  0  3  0  0  0  0  0  0
  188.9910  178.2310  144.0020 C   0  0  2  0  0  3  0  0  0  0  0  0
  187.1870  178.5120  142.1860 C   0  0  1  0  0  3  0  0  0  0  0  0
  187.6100  178.0010  140.9550 O   0  0  0  0  0  1  0  0  0  0  0  0
  185.6930  178.6240  142.2340 C   0  0  0  0  0  0  0  0  0  0  0  0
  182.8990  178.7770  142.4250 C   0  0  0  0  0  3  0  0  0  0  0  0
  184.9080  178.7370  141.0700 C   0  0  0  0  0  0  0  0  0  0  0  0
  183.5150  178.8160  141.1720 C   0  0  0  0  0  3  0  0  0  0  0  0
  183.6740  178.6580  143.5810 C   0  0  0  0  0  3  0  0  0  0  0  0
  185.4820  178.7770  139.8420 F   0  0  0  0  0  0  0  0  0  0  0  0
  185.0650  178.5800  143.4840 C   0  0  0  0  0  3  0  0  0  0  0  0
  191.4630  177.3630  141.1270 C   0  0  0  0  0  0  0  0  0  0  0  0
  192.6450  177.7810  140.9980 O   0  0  0  0  0  0  0  0  0  0  0  0
  190.6720  177.0370  139.9340 C   0  0  0  0  0  0  0  0  0  0  0  0
  190.0830  178.0540  139.1910 O   0  0  0  0  0  0  0  0  0  0  0  0
  190.5210  175.8390  139.5770 O   0  0  0  0  0  1  0  0  0  0  0  0
  1 12  1  6  0  0  0
  1 11  1  0  0  0  0
  4  2  1  1  0  0  0
  4 11  1  0  0  0  0
  5  9  2  0  0  0  0
  5  6  2  0  0  0  0
  7 21  1  6  0  0  0
  7  3  1  0  0  0  0
  7  4  1  0  0  0  0
  8  1  1  0  0  0  0
  8 10  1  0  0  0  0
 10  3  1  6  0  0  0
 10  5  1  0  0  0  0
 11  5  1  1  0  0  0
 12 13  1  6  0  0  0
 12 14  1  0  0  0  0
 14 20  1  0  0  0  0
 15 18  1  0  0  0  0
 16 17  1  0  0  0  0
 16 14  2  0  0  0  0
 17 15  2  0  0  0  0
 19 16  1  0  0  0  0
 20 18  2  0  0  0  0
 22 21  2  0  0  0  0
 23 21  1  0  0  0  0
 24 23  2  0  0  0  0
 25 23  1  0  0  0  0
M  END
>  <MODEL>
6

>  <REMARK>
 VINA RESULT:      -6.0      1.225      1.483
  Name = 
  4 active torsions:
  status: ('A' for Active; 'I' for Inactive)
    1  A    between atoms: C_1  and  C_3
    2  A    between atoms: C_1  and  C_5
    3  A    between atoms: C_2  and  C_21
    4  A    between atoms: C_15  and  C_21
                            x       y       z     vdW  Elec       q    Type
                         _______ _______ _______ _____ _____    ______ ____

>  <TORSDO>
F 4

$$$$
=
 OpenBabel10272400443D

 25 27  0  0  1  0  0  0  0  0999 V2000
  183.2420  179.0150  140.8370 C   0  0  1  0  0  3  0  0  0  0  0  0
  181.6110  175.7200  139.8760 C   0  0  0  0  0  1  0  0  0  0  0  0
  182.8480  178.7170  137.7400 C   0  0  0  0  0  2  0  0  0  0  0  0
  182.5080  176.9220  139.6430 C   0  0  1  0  0  3  0  0  0  0  0  0
  181.0230  179.1840  139.6880 S   0  0  0  0  0  0  0  0  0  0  0  0
  180.4280  180.2470  140.5690 O   0  0  0  0  0  0  0  0  0  0  0  0
  182.5780  177.2460  138.1280 C   0  0  2  0  0  3  0  0  0  0  0  0
  183.5200  179.8520  139.7250 O   0  0  0  0  0  0  0  0  0  0  0  0
  179.9820  178.5160  138.8330 O   0  0  0  0  0  0  0  0  0  0  0  0
  182.4500  179.7460  138.8070 C   0  0  1  0  0  3  0  0  0  0  0  0
  182.0630  178.0850  140.5600 C   0  0  2  0  0  3  0  0  0  0  0  0
  184.4930  178.3200  141.3820 C   0  0  1  0  0  3  0  0  0  0  0  0
  185.6550  178.7930  140.7640 O   0  0  0  0  0  1  0  0  0  0  0  0
  184.5860  178.4520  142.8720 C   0  0  0  0  0  0  0  0  0  0  0  0
  184.6800  178.7830  145.6560 C   0  0  0  0  0  3  0  0  0  0  0  0
  185.7630  178.1440  143.5830 C   0  0  0  0  0  0  0  0  0  0  0  0
  185.8030  178.3080  144.9720 C   0  0  0  0  0  3  0  0  0  0  0  0
  183.5140  179.0950  144.9530 C   0  0  0  0  0  3  0  0  0  0  0  0
  186.8650  177.6820  142.9430 F   0  0  0  0  0  0  0  0  0  0  0  0
  183.4700  178.9330  143.5660 C   0  0  0  0  0  3  0  0  0  0  0  0
  183.5130  176.3260  137.4080 C   0  0  0  0  0  0  0  0  0  0  0  0
  184.7370  176.3170  137.7070 O   0  0  0  0  0  0  0  0  0  0  0  0
  183.0130  175.4320  136.3570 C   0  0  0  0  0  0  0  0  0  0  0  0
  182.7780  174.0920  136.6370 O   0  0  0  0  0  1  0  0  0  0  0  0
  182.7940  175.8710  135.1970 O   0  0  0  0  0  0  0  0  0  0  0  0
  1 12  1  6  0  0  0
  3  7  1  0  0  0  0
  4  2  1  6  0  0  0
  4 11  1  0  0  0  0
  5  6  2  0  0  0  0
  7 21  1  1  0  0  0
  7  4  1  0  0  0  0
  8  1  1  0  0  0  0
  9  5  2  0  0  0  0
 10  3  1  6  0  0  0
 10  5  1  0  0  0  0
 10  8  1  0  0  0  0
 11  5  1  6  0  0  0
 11  1  1  0  0  0  0
 12 13  1  6  0  0  0
 12 14  1  0  0  0  0
 14 20  2  0  0  0  0
 14 16  1  0  0  0  0
 16 17  2  0  0  0  0
 17 15  1  0  0  0  0
 18 15  2  0  0  0  0
 19 16  1  0  0  0  0
 20 18  1  0  0  0  0
 21 22  2  0  0  0  0
 23 24  1  0  0  0  0
 23 21  1  0  0  0  0
 25 23  2  0  0  0  0
M  END
>  <MODEL>
7

>  <REMARK>
 VINA RESULT:      -5.8      5.452      7.971
  Name = 
  4 active torsions:
  status: ('A' for Active; 'I' for Inactive)
    1  A    between atoms: C_1  and  C_3
    2  A    between atoms: C_1  and  C_5
    3  A    between atoms: C_2  and  C_21
    4  A    between atoms: C_15  and  C_21
                            x       y       z     vdW  Elec       q    Type
                         _______ _______ _______ _____ _____    ______ ____

>  <TORSDO>
F 4

$$$$
=
 OpenBabel10272400443D

 25 27  0  0  1  0  0  0  0  0999 V2000
  189.0910  177.4240  141.3210 C   0  0  1  0  0  3  0  0  0  0  0  0
  190.8560  179.3260  144.0970 C   0  0  0  0  0  1  0  0  0  0  0  0
  189.1550  175.8370  144.0250 C   0  0  0  0  0  2  0  0  0  0  0  0
  190.3950  178.0730  143.3760 C   0  0  1  0  0  3  0  0  0  0  0  0
  187.6910  178.0040  143.3150 S   0  0  0  0  0  0  0  0  0  0  0  0
  186.4660  178.4530  142.5690 O   0  0  0  0  0  0  0  0  0  0  0  0
  190.1940  176.9200  144.3930 C   0  0  2  0  0  3  0  0  0  0  0  0
  188.5850  176.1640  141.7350 O   0  0  0  0  0  0  0  0  0  0  0  0
  187.6490  178.4140  144.7610 O   0  0  0  0  0  0  0  0  0  0  0  0
  188.0680  176.2970  143.0440 C   0  0  1  0  0  3  0  0  0  0  0  0
  189.1750  178.4060  142.4870 C   0  0  2  0  0  3  0  0  0  0  0  0
  190.3720  177.3040  140.4900 C   0  0  1  0  0  3  0  0  0  0  0  0
  191.1350  176.2000  140.8790 O   0  0  0  0  0  1  0  0  0  0  0  0
  190.0690  177.2570  139.0230 C   0  0  0  0  0  0  0  0  0  0  0  0
  189.5940  177.1000  136.2630 C   0  0  0  0  0  3  0  0  0  0  0  0
  189.4050  178.3060  138.3570 C   0  0  0  0  0  0  0  0  0  0  0  0
  189.1680  178.2210  136.9810 C   0  0  0  0  0  3  0  0  0  0  0  0
  190.2590  176.0610  136.9190 C   0  0  0  0  0  3  0  0  0  0  0  0
  188.9820  179.4040  139.0310 F   0  0  0  0  0  0  0  0  0  0  0  0
  190.4970  176.1420  138.2930 C   0  0  0  0  0  3  0  0  0  0  0  0
  191.4960  176.2950  144.7840 C   0  0  0  0  0  0  0  0  0  0  0  0
  192.2420  175.7920  143.9020 O   0  0  0  0  0  0  0  0  0  0  0  0
  191.9120  176.2650  146.1920 C   0  0  0  0  0  0  0  0  0  0  0  0
  192.5690  175.1500  146.6990 O   0  0  0  0  0  0  0  0  0  0  0  0
  191.6780  177.2450  146.9480 O   0  0  0  0  0  1  0  0  0  0  0  0
  1 12  1  1  0  0  0
  1  8  1  0  0  0  0
  1 11  1  0  0  0  0
  3  7  1  0  0  0  0
  4  2  1  1  0  0  0
  4  7  1  0  0  0  0
  5  9  2  0  0  0  0
  6  5  2  0  0  0  0
  7 21  1  6  0  0  0
  8 10  1  0  0  0  0
 10  5  1  0  0  0  0
 10  3  1  1  0  0  0
 11  5  1  1  0  0  0
 11  4  1  0  0  0  0
 12 13  1  1  0  0  0
 14 12  1  0  0  0  0
 15 18  2  0  0  0  0
 15 17  1  0  0  0  0
 16 14  1  0  0  0  0
 16 19  1  0  0  0  0
 17 16  2  0  0  0  0
 18 20  1  0  0  0  0
 20 14  2  0  0  0  0
 21 23  1  0  0  0  0
 22 21  2  0  0  0  0
 23 24  2  0  0  0  0
 23 25  1  0  0  0  0
M  END
>  <MODEL>
8

>  <REMARK>
 VINA RESULT:      -5.6      2.850      5.670
  Name = 
  4 active torsions:
  status: ('A' for Active; 'I' for Inactive)
    1  A    between atoms: C_1  and  C_3
    2  A    between atoms: C_1  and  C_5
    3  A    between atoms: C_2  and  C_21
    4  A    between atoms: C_15  and  C_21
                            x       y       z     vdW  Elec       q    Type
                         _______ _______ _______ _____ _____    ______ ____

>  <TORSDO>
F 4

$$$$
=
 OpenBabel10272400443D

 25 27  0  0  1  0  0  0  0  0999 V2000
  187.9710  177.7580  145.8160 C   0  0  1  0  0  3  0  0  0  0  0  0
  191.3070  179.1030  144.5890 C   0  0  0  0  0  1  0  0  0  0  0  0
  190.3330  175.7510  146.2880 C   0  0  0  0  0  2  0  0  0  0  0  0
  190.3120  178.0060  144.9190 C   0  0  1  0  0  3  0  0  0  0  0  0
  189.7390  178.0670  147.5630 S   0  0  0  0  0  0  0  0  0  0  0  0
  188.8650  178.6850  148.6180 O   0  0  0  0  0  0  0  0  0  0  0  0
  191.0650  176.7120  145.3240 C   0  0  2  0  0  3  0  0  0  0  0  0
  188.0660  176.4710  146.4060 O   0  0  0  0  0  0  0  0  0  0  0  0
  191.2000  178.2370  147.8740 O   0  0  0  0  0  0  0  0  0  0  0  0
  189.2590  176.4120  147.1620 C   0  0  1  0  0  3  0  0  0  0  0  0
  189.2810  178.5330  145.9430 C   0  0  2  0  0  3  0  0  0  0  0  0
  187.3850  177.7190  144.4010 C   0  0  1  0  0  3  0  0  0  0  0  0
  187.4980  176.4470  143.8320 O   0  0  0  0  0  1  0  0  0  0  0  0
  185.9610  178.1880  144.3870 C   0  0  0  0  0  0  0  0  0  0  0  0
  183.2820  179.0150  144.4620 C   0  0  0  0  0  3  0  0  0  0  0  0
  185.2510  178.3990  143.1890 C   0  0  0  0  0  0  0  0  0  0  0  0
  183.9160  178.8150  143.2330 C   0  0  0  0  0  3  0  0  0  0  0  0
  183.9830  178.8000  145.6520 C   0  0  0  0  0  3  0  0  0  0  0  0
  185.8420  178.2120  141.9830 F   0  0  0  0  0  0  0  0  0  0  0  0
  185.3160  178.3850  145.6120 C   0  0  0  0  0  3  0  0  0  0  0  0
  191.5810  175.9750  144.1290 C   0  0  0  0  0  0  0  0  0  0  0  0
  192.3540  174.9920  144.2830 O   0  0  0  0  0  0  0  0  0  0  0  0
  191.1910  176.3890  142.7760 C   0  0  0  0  0  0  0  0  0  0  0  0
  191.9850  177.2820  142.0650 O   0  0  0  0  0  0  0  0  0  0  0  0
  190.1380  175.9410  142.2500 O   0  0  0  0  0  1  0  0  0  0  0  0
  1 12  1  6  0  0  0
  1 11  1  0  0  0  0
  1  8  1  0  0  0  0
  4  2  1  1  0  0  0
  4  7  1  0  0  0  0
  4 11  1  0  0  0  0
  5  9  2  0  0  0  0
  5  6  2  0  0  0  0
  7 21  1  6  0  0  0
  7  3  1  0  0  0  0
  8 10  1  0  0  0  0
 10  3  1  6  0  0  0
 10  5  1  0  0  0  0
 11  5  1  1  0  0  0
 12 13  1  1  0  0  0
 14 12  1  0  0  0  0
 14 20  1  0  0  0  0
 15 18  1  0  0  0  0
 16 17  1  0  0  0  0
 16 14  2  0  0  0  0
 17 15  2  0  0  0  0
 19 16  1  0  0  0  0
 20 18  2  0  0  0  0
 21 22  2  0  0  0  0
 23 21  1  0  0  0  0
 24 23  2  0  0  0  0
 25 23  1  0  0  0  0
M  END
>  <MODEL>
9

>  <REMARK>
 VINA RESULT:      -5.6      1.592      2.140
  Name = 
  4 active torsions:
  status: ('A' for Active; 'I' for Inactive)
    1  A    between atoms: C_1  and  C_3
    2  A    between atoms: C_1  and  C_5
    3  A    between atoms: C_2  and  C_21
    4  A    between atoms: C_15  and  C_21
                            x       y       z     vdW  Elec       q    Type
                         _______ _______ _______ _____ _____    ______ ____

>  <TORSDO>
F 4

$$$$
