=
 OpenBabel10272413583D

 30 31  0  0  1  0  0  0  0  0999 V2000
  189.0280  177.7340  146.7480 C   0  0  0  0  0  0  0  0  0  0  0  0
  191.4320  177.2020  145.0400 C   0  0  0  0  0  0  0  0  0  0  0  0
  191.7830  177.9970  143.7730 C   0  0  1  0  0  3  0  0  0  0  0  0
  189.3710  176.3930  146.9330 O   0  0  0  0  0  0  0  0  0  0  0  0
  189.3970  178.5960  147.5900 O   0  0  0  0  0  0  0  0  0  0  0  0
  191.7470  176.5930  146.1770 C   0  0  0  0  0  3  0  0  0  0  0  0
  190.7050  175.9790  147.0110 C   0  0  0  0  0  0  0  0  0  0  0  0
  188.3510  178.1830  145.4880 C   0  0  1  0  0  3  0  0  0  0  0  0
  190.4090  177.6240  143.9860 C   0  0  2  0  0  0  0  0  0  0  0  0
  192.1290  179.4260  144.1690 C   0  0  0  0  0  1  0  0  0  0  0  0
  191.0150  175.0410  147.7900 O   0  0  0  0  0  0  0  0  0  0  0  0
  189.3860  178.6770  144.4600 C   0  0  0  0  0  2  0  0  0  0  0  0
  187.3580  177.1530  144.9170 C   0  0  1  0  0  3  0  0  0  0  0  0
  186.2300  176.8350  145.8870 C   0  0  0  0  0  1  0  0  0  0  0  0
  186.8230  177.5150  143.5150 C   0  0  0  0  0  2  0  0  0  0  0  0
  185.3380  177.8940  143.3910 C   0  0  2  0  0  3  0  0  0  0  0  0
  184.7910  177.7380  141.9760 C   0  0  0  0  0  2  0  0  0  0  0  0
  183.7280  179.2160  140.2640 C   0  0  0  0  0  1  0  0  0  0  0  0
  186.0860  179.0510  140.4770 O   0  0  0  0  0  1  0  0  0  0  0  0
  184.9020  179.0470  141.2110 C   0  0  2  0  0  3  0  0  0  0  0  0
  185.0320  179.2670  143.9720 C   0  0  0  0  0  2  0  0  0  0  0  0
  182.5390  179.3540  143.9470 O   0  0  0  0  0  0  0  0  0  0  0  0
  183.6750  179.1530  145.9290 O   0  0  0  0  0  1  0  0  0  0  0  0
  183.7180  179.2660  144.6760 C   0  0  0  0  0  0  0  0  0  0  0  0
  189.9280  176.4500  143.1390 C   0  0  0  0  0  2  0  0  0  0  0  0
  190.2550  176.6450  141.6650 C   0  0  0  0  0  2  0  0  0  0  0  0
  189.2460  177.5670  141.0050 C   0  0  0  0  0  2  0  0  0  0  0  0
  189.6980  177.9020  139.6270 C   0  0  0  0  0  0  0  0  0  0  0  0
  189.0400  178.8830  138.8980 O   0  0  0  0  0  0  0  0  0  0  0  0
  190.6550  177.2700  139.1080 O   0  0  0  0  0  1  0  0  0  0  0  0
  1  4  1  0  0  0  0
  1  5  2  0  0  0  0
  2  6  2  0  0  0  0
  3  9  1  0  0  0  0
  3 10  1  1  0  0  0
  3  2  1  0  0  0  0
  4  7  1  0  0  0  0
  6  7  1  0  0  0  0
  7 11  2  0  0  0  0
  8 13  1  6  0  0  0
  8  1  1  0  0  0  0
  9 25  1  6  0  0  0
  9 12  1  0  0  0  0
  9  2  1  0  0  0  0
 12  8  1  0  0  0  0
 13 14  1  1  0  0  0
 15 13  1  0  0  0  0
 16 17  1  6  0  0  0
 16 15  1  0  0  0  0
 16 21  1  0  0  0  0
 19 20  1  0  0  0  0
 20 18  1  6  0  0  0
 20 17  1  0  0  0  0
 21 24  1  0  0  0  0
 22 24  2  0  0  0  0
 24 23  1  0  0  0  0
 26 25  1  0  0  0  0
 27 26  1  0  0  0  0
 28 27  1  0  0  0  0
 29 28  2  0  0  0  0
 30 28  1  0  0  0  0
M  END
>  <MODEL>
1

>  <REMARK>
 VINA RESULT:      -6.5      0.000      0.000
  Name = 
  11 active torsions:
  status: ('A' for Active; 'I' for Inactive)
    1  A    between atoms: C_1  and  C_4
    2  A    between atoms: C_1  and  C_22
    3  A    between atoms: C_4  and  C_12
    4  A    between atoms: C_7  and  C_23
    5  A    between atoms: C_7  and  C_25
    6  A    between atoms: C_8  and  C_12
    7  A    between atoms: C_8  and  C_30
    8  A    between atoms: C_9  and  C_12
    9  A    between atoms: C_9  and  C_21
   10  A    between atoms: C_10  and  C_15
   11  A    between atoms: C_15  and  C_25
                            x       y       z     vdW  Elec       q    Type
                         _______ _______ _______ _____ _____    ______ ____

>  <TORSDO>
F 11

$$$$
=
 OpenBabel10272413583D

 30 31  0  0  1  0  0  0  0  0999 V2000
  191.2740  176.6630  142.8190 C   0  0  0  0  0  0  0  0  0  0  0  0
  189.0970  178.2160  144.1690 C   0  0  0  0  0  0  0  0  0  0  0  0
  187.6070  177.8450  144.1090 C   0  0  1  0  0  3  0  0  0  0  0  0
  191.7340  177.9740  142.9550 O   0  0  0  0  0  0  0  0  0  0  0  0
  191.6290  175.7860  143.6520 O   0  0  0  0  0  0  0  0  0  0  0  0
  190.1850  178.6350  144.8050 C   0  0  0  0  0  3  0  0  0  0  0  0
  191.4730  178.7300  144.1030 C   0  0  0  0  0  0  0  0  0  0  0  0
  190.2510  176.3150  141.7800 C   0  0  1  0  0  3  0  0  0  0  0  0
  188.3830  177.7510  142.9010 C   0  0  2  0  0  0  0  0  0  0  0  0
  187.4000  176.5260  144.8440 C   0  0  0  0  0  1  0  0  0  0  0  0
  192.3450  179.5300  144.5270 O   0  0  0  0  0  0  0  0  0  0  0  0
  188.8320  176.3710  142.3740 C   0  0  0  0  0  2  0  0  0  0  0  0
  190.4030  177.1100  140.4700 C   0  0  1  0  0  3  0  0  0  0  0  0
  191.8490  177.1890  140.0030 C   0  0  0  0  0  1  0  0  0  0  0  0
  189.4620  176.6370  139.3420 C   0  0  0  0  0  2  0  0  0  0  0  0
  190.0590  176.4660  137.9350 C   0  0  2  0  0  3  0  0  0  0  0  0
  189.6630  177.5800  136.9720 C   0  0  0  0  0  2  0  0  0  0  0  0
  187.2870  178.3270  136.7750 C   0  0  0  0  0  1  0  0  0  0  0  0
  188.9880  179.7780  137.5720 O   0  0  0  0  0  1  0  0  0  0  0  0
  188.5710  178.4490  137.5750 C   0  0  2  0  0  3  0  0  0  0  0  0
  189.7940  175.0860  137.3500 C   0  0  0  0  0  2  0  0  0  0  0  0
  191.1070  173.2150  136.3510 O   0  0  0  0  0  0  0  0  0  0  0  0
  192.1120  174.7130  137.7680 O   0  0  0  0  0  1  0  0  0  0  0  0
  191.0660  174.3280  137.1820 C   0  0  0  0  0  0  0  0  0  0  0  0
  188.1590  178.8870  141.9090 C   0  0  0  0  0  2  0  0  0  0  0  0
  186.9890  178.6020  140.9780 C   0  0  0  0  0  2  0  0  0  0  0  0
  185.6870  179.1040  141.5750 C   0  0  0  0  0  2  0  0  0  0  0  0
  184.6280  179.1190  140.5300 C   0  0  0  0  0  0  0  0  0  0  0  0
  183.4400  178.4290  140.7330 O   0  0  0  0  0  1  0  0  0  0  0  0
  184.8220  179.7300  139.4470 O   0  0  0  0  0  0  0  0  0  0  0  0
  1  4  1  0  0  0  0
  1  5  2  0  0  0  0
  2  6  2  0  0  0  0
  3  2  1  0  0  0  0
  3 10  1  1  0  0  0
  4  7  1  0  0  0  0
  7 11  2  0  0  0  0
  7  6  1  0  0  0  0
  8 13  1  6  0  0  0
  8 12  1  0  0  0  0
  8  1  1  0  0  0  0
  9 25  1  6  0  0  0
  9  3  1  0  0  0  0
  9  2  1  0  0  0  0
 12  9  1  0  0  0  0
 13 14  1  6  0  0  0
 15 13  1  0  0  0  0
 16 17  1  6  0  0  0
 16 15  1  0  0  0  0
 17 20  1  0  0  0  0
 19 20  1  0  0  0  0
 20 18  1  6  0  0  0
 21 16  1  0  0  0  0
 22 24  2  0  0  0  0
 24 21  1  0  0  0  0
 24 23  1  0  0  0  0
 26 27  1  0  0  0  0
 26 25  1  0  0  0  0
 28 29  1  0  0  0  0
 28 27  1  0  0  0  0
 30 28  2  0  0  0  0
M  END
>  <MODEL>
2

>  <REMARK>
 VINA RESULT:      -6.4      2.541      6.341
  Name = 
  11 active torsions:
  status: ('A' for Active; 'I' for Inactive)
    1  A    between atoms: C_1  and  C_4
    2  A    between atoms: C_1  and  C_22
    3  A    between atoms: C_4  and  C_12
    4  A    between atoms: C_7  and  C_23
    5  A    between atoms: C_7  and  C_25
    6  A    between atoms: C_8  and  C_12
    7  A    between atoms: C_8  and  C_30
    8  A    between atoms: C_9  and  C_12
    9  A    between atoms: C_9  and  C_21
   10  A    between atoms: C_10  and  C_15
   11  A    between atoms: C_15  and  C_25
                            x       y       z     vdW  Elec       q    Type
                         _______ _______ _______ _____ _____    ______ ____

>  <TORSDO>
F 11

$$$$
=
 OpenBabel10272413583D

 30 31  0  0  1  0  0  0  0  0999 V2000
  185.1980  179.0240  140.0330 C   0  0  0  0  0  0  0  0  0  0  0  0
  184.1520  178.2700  142.7370 C   0  0  0  0  0  0  0  0  0  0  0  0
  184.6990  178.8270  144.0600 C   0  0  1  0  0  3  0  0  0  0  0  0
  184.6310  177.7540  139.9100 O   0  0  0  0  0  0  0  0  0  0  0  0
  184.5370  180.0400  139.6870 O   0  0  0  0  0  0  0  0  0  0  0  0
  183.1650  177.8940  141.9330 C   0  0  0  0  0  3  0  0  0  0  0  0
  183.4490  177.4090  140.5740 C   0  0  0  0  0  0  0  0  0  0  0  0
  186.5270  179.2070  140.7030 C   0  0  1  0  0  3  0  0  0  0  0  0
  185.6390  178.4520  143.0370 C   0  0  2  0  0  0  0  0  0  0  0  0
  184.3880  180.3160  144.1320 C   0  0  0  0  0  1  0  0  0  0  0  0
  182.6250  176.6440  140.0110 O   0  0  0  0  0  0  0  0  0  0  0  0
  186.3420  179.5380  142.1950 C   0  0  0  0  0  2  0  0  0  0  0  0
  187.5150  178.0550  140.4440 C   0  0  1  0  0  3  0  0  0  0  0  0
  187.7610  177.8230  138.9610 C   0  0  0  0  0  1  0  0  0  0  0  0
  188.8360  178.1790  141.2320 C   0  0  0  0  0  2  0  0  0  0  0  0
  189.8210  177.0000  141.1710 C   0  0  2  0  0  3  0  0  0  0  0  0
  190.0170  176.3070  142.5150 C   0  0  0  0  0  2  0  0  0  0  0  0
  191.8360  175.5590  144.0570 C   0  0  0  0  0  1  0  0  0  0  0  0
  191.2990  177.8550  143.7830 O   0  0  0  0  0  1  0  0  0  0  0  0
  191.3800  176.6440  143.0990 C   0  0  2  0  0  3  0  0  0  0  0  0
  191.1470  177.3760  140.5250 C   0  0  0  0  0  2  0  0  0  0  0  0
  192.5320  176.7810  138.5380 O   0  0  0  0  0  0  0  0  0  0  0  0
  190.5550  175.6920  138.9440 O   0  0  0  0  0  1  0  0  0  0  0  0
  191.3830  176.5760  139.2900 C   0  0  0  0  0  0  0  0  0  0  0  0
  186.3500  177.1240  143.2800 C   0  0  0  0  0  2  0  0  0  0  0  0
  186.7650  176.9640  144.7350 C   0  0  0  0  0  2  0  0  0  0  0  0
  188.0410  177.7340  145.0230 C   0  0  0  0  0  2  0  0  0  0  0  0
  188.5300  177.4040  146.3890 C   0  0  0  0  0  0  0  0  0  0  0  0
  187.7370  177.6730  147.4960 O   0  0  0  0  0  1  0  0  0  0  0  0
  189.6780  176.9120  146.5440 O   0  0  0  0  0  0  0  0  0  0  0  0
  1  8  1  0  0  0  0
  2  9  1  0  0  0  0
  2  3  1  0  0  0  0
  3 10  1  6  0  0  0
  4  1  1  0  0  0  0
  4  7  1  0  0  0  0
  5  1  2  0  0  0  0
  6  2  2  0  0  0  0
  7  6  1  0  0  0  0
  8 13  1  1  0  0  0
  8 12  1  0  0  0  0
  9 25  1  1  0  0  0
  9  3  1  0  0  0  0
 11  7  2  0  0  0  0
 12  9  1  0  0  0  0
 13 14  1  6  0  0  0
 13 15  1  0  0  0  0
 16 21  1  1  0  0  0
 16 15  1  0  0  0  0
 16 17  1  0  0  0  0
 17 20  1  0  0  0  0
 20 19  1  0  0  0  0
 20 18  1  1  0  0  0
 22 24  2  0  0  0  0
 23 24  1  0  0  0  0
 24 21  1  0  0  0  0
 25 26  1  0  0  0  0
 26 27  1  0  0  0  0
 27 28  1  0  0  0  0
 28 30  2  0  0  0  0
 28 29  1  0  0  0  0
M  END
>  <MODEL>
3

>  <REMARK>
 VINA RESULT:      -6.0      2.029      7.596
  Name = 
  11 active torsions:
  status: ('A' for Active; 'I' for Inactive)
    1  A    between atoms: C_1  and  C_4
    2  A    between atoms: C_1  and  C_22
    3  A    between atoms: C_4  and  C_12
    4  A    between atoms: C_7  and  C_23
    5  A    between atoms: C_7  and  C_25
    6  A    between atoms: C_8  and  C_12
    7  A    between atoms: C_8  and  C_30
    8  A    between atoms: C_9  and  C_12
    9  A    between atoms: C_9  and  C_21
   10  A    between atoms: C_10  and  C_15
   11  A    between atoms: C_15  and  C_25
                            x       y       z     vdW  Elec       q    Type
                         _______ _______ _______ _____ _____    ______ ____

>  <TORSDO>
F 11

$$$$
=
 OpenBabel10272413583D

 30 31  0  0  1  0  0  0  0  0999 V2000
  191.4120  176.7130  142.8200 C   0  0  0  0  0  0  0  0  0  0  0  0
  189.0550  178.2150  143.9010 C   0  0  0  0  0  0  0  0  0  0  0  0
  187.5950  177.7700  143.7280 C   0  0  1  0  0  3  0  0  0  0  0  0
  191.7990  178.0510  142.9340 O   0  0  0  0  0  0  0  0  0  0  0  0
  191.7290  175.8910  143.7200 O   0  0  0  0  0  0  0  0  0  0  0  0
  190.0620  178.7130  144.6090 C   0  0  0  0  0  3  0  0  0  0  0  0
  191.4020  178.8400  144.0190 C   0  0  0  0  0  0  0  0  0  0  0  0
  190.5020  176.2730  141.7120 C   0  0  1  0  0  3  0  0  0  0  0  0
  188.4790  177.6630  142.5980 C   0  0  2  0  0  0  0  0  0  0  0  0
  187.3820  176.4750  144.5020 C   0  0  0  0  0  1  0  0  0  0  0  0
  192.1970  179.6990  144.4800 O   0  0  0  0  0  0  0  0  0  0  0  0
  189.0340  176.2850  142.1770 C   0  0  0  0  0  2  0  0  0  0  0  0
  190.7350  177.0190  140.3850 C   0  0  1  0  0  3  0  0  0  0  0  0
  192.1650  177.5190  140.2430 C   0  0  0  0  0  1  0  0  0  0  0  0
  190.2770  176.2310  139.1400 C   0  0  0  0  0  2  0  0  0  0  0  0
  189.0610  176.7620  138.3620 C   0  0  2  0  0  3  0  0  0  0  0  0
  188.4020  175.7090  137.4790 C   0  0  0  0  0  2  0  0  0  0  0  0
  189.7950  174.9770  135.5370 C   0  0  0  0  0  1  0  0  0  0  0  0
  188.9010  173.4180  137.0880 O   0  0  0  0  0  1  0  0  0  0  0  0
  189.4300  174.7030  136.9850 C   0  0  2  0  0  3  0  0  0  0  0  0
  189.3700  178.0390  137.5930 C   0  0  0  0  0  2  0  0  0  0  0  0
  188.1700  178.1140  135.4070 O   0  0  0  0  0  0  0  0  0  0  0  0
  187.2420  179.0690  137.2740 O   0  0  0  0  0  1  0  0  0  0  0  0
  188.2060  178.4480  136.7540 C   0  0  0  0  0  0  0  0  0  0  0  0
  188.2940  178.7440  141.5380 C   0  0  0  0  0  2  0  0  0  0  0  0
  187.0230  178.5310  140.7300 C   0  0  0  0  0  2  0  0  0  0  0  0
  185.8140  179.0750  141.4700 C   0  0  0  0  0  2  0  0  0  0  0  0
  184.6490  179.1470  140.5460 C   0  0  0  0  0  0  0  0  0  0  0  0
  184.7660  179.8010  139.3280 O   0  0  0  0  0  0  0  0  0  0  0  0
  183.5470  178.6430  140.8850 O   0  0  0  0  0  1  0  0  0  0  0  0
  1  4  1  0  0  0  0
  1  5  2  0  0  0  0
  2  6  2  0  0  0  0
  3  2  1  0  0  0  0
  3 10  1  1  0  0  0
  4  7  1  0  0  0  0
  7 11  2  0  0  0  0
  7  6  1  0  0  0  0
  8 13  1  6  0  0  0
  8 12  1  0  0  0  0
  8  1  1  0  0  0  0
  9 25  1  6  0  0  0
  9  3  1  0  0  0  0
  9  2  1  0  0  0  0
 12  9  1  0  0  0  0
 13 14  1  6  0  0  0
 15 13  1  0  0  0  0
 16 17  1  6  0  0  0
 16 15  1  0  0  0  0
 20 18  1  6  0  0  0
 20 19  1  0  0  0  0
 20 17  1  0  0  0  0
 21 16  1  0  0  0  0
 22 24  2  0  0  0  0
 24 23  1  0  0  0  0
 24 21  1  0  0  0  0
 26 27  1  0  0  0  0
 26 25  1  0  0  0  0
 28 30  1  0  0  0  0
 28 27  1  0  0  0  0
 29 28  2  0  0  0  0
M  END
>  <MODEL>
4

>  <REMARK>
 VINA RESULT:      -6.0      2.626      6.079
  Name = 
  11 active torsions:
  status: ('A' for Active; 'I' for Inactive)
    1  A    between atoms: C_1  and  C_4
    2  A    between atoms: C_1  and  C_22
    3  A    between atoms: C_4  and  C_12
    4  A    between atoms: C_7  and  C_23
    5  A    between atoms: C_7  and  C_25
    6  A    between atoms: C_8  and  C_12
    7  A    between atoms: C_8  and  C_30
    8  A    between atoms: C_9  and  C_12
    9  A    between atoms: C_9  and  C_21
   10  A    between atoms: C_10  and  C_15
   11  A    between atoms: C_15  and  C_25
                            x       y       z     vdW  Elec       q    Type
                         _______ _______ _______ _____ _____    ______ ____

>  <TORSDO>
F 11

$$$$
=
 OpenBabel10272413583D

 30 31  0  0  1  0  0  0  0  0999 V2000
  191.3210  176.7430  142.7690 C   0  0  0  0  0  0  0  0  0  0  0  0
  189.0870  178.2130  144.1210 C   0  0  0  0  0  0  0  0  0  0  0  0
  187.6170  177.7700  144.0850 C   0  0  1  0  0  3  0  0  0  0  0  0
  191.7190  178.0770  142.8800 O   0  0  0  0  0  0  0  0  0  0  0  0
  191.7260  175.8970  143.6100 O   0  0  0  0  0  0  0  0  0  0  0  0
  190.1610  178.6920  144.7380 C   0  0  0  0  0  3  0  0  0  0  0  0
  191.4350  178.8370  144.0200 C   0  0  0  0  0  0  0  0  0  0  0  0
  190.3040  176.3320  141.7470 C   0  0  1  0  0  3  0  0  0  0  0  0
  188.3830  177.6950  142.8690 C   0  0  2  0  0  0  0  0  0  0  0  0
  187.4800  176.4550  144.8410 C   0  0  0  0  0  1  0  0  0  0  0  0
  192.2730  179.6840  144.4220 O   0  0  0  0  0  0  0  0  0  0  0  0
  188.8900  176.3300  142.3570 C   0  0  0  0  0  2  0  0  0  0  0  0
  190.4030  177.1140  140.4240 C   0  0  1  0  0  3  0  0  0  0  0  0
  191.8300  177.1920  139.9010 C   0  0  0  0  0  1  0  0  0  0  0  0
  189.4220  176.6260  139.3370 C   0  0  0  0  0  2  0  0  0  0  0  0
  189.5880  177.1890  137.9160 C   0  0  2  0  0  3  0  0  0  0  0  0
  188.5990  178.3020  137.5870 C   0  0  0  0  0  2  0  0  0  0  0  0
  187.1590  178.2000  135.5480 C   0  0  0  0  0  1  0  0  0  0  0  0
  186.2320  178.1470  137.7330 O   0  0  0  0  0  1  0  0  0  0  0  0
  187.3280  177.7290  136.9810 C   0  0  2  0  0  3  0  0  0  0  0  0
  189.5950  176.1000  136.8520 C   0  0  0  0  0  2  0  0  0  0  0  0
  190.6890  176.4880  134.6440 O   0  0  0  0  0  0  0  0  0  0  0  0
  191.9540  176.0540  136.5080 O   0  0  0  0  0  1  0  0  0  0  0  0
  190.8120  176.2000  135.9970 C   0  0  0  0  0  0  0  0  0  0  0  0
  188.0940  178.8040  141.8620 C   0  0  0  0  0  2  0  0  0  0  0  0
  186.7960  178.5570  141.1060 C   0  0  0  0  0  2  0  0  0  0  0  0
  185.6510  179.3340  141.7300 C   0  0  0  0  0  2  0  0  0  0  0  0
  184.5530  178.4000  142.1000 C   0  0  0  0  0  0  0  0  0  0  0  0
  183.8000  177.7820  141.1110 O   0  0  0  0  0  0  0  0  0  0  0  0
  184.2850  178.1950  143.3130 O   0  0  0  0  0  1  0  0  0  0  0  0
  1  4  1  0  0  0  0
  1  5  2  0  0  0  0
  2  6  2  0  0  0  0
  3  2  1  0  0  0  0
  3 10  1  1  0  0  0
  4  7  1  0  0  0  0
  7 11  2  0  0  0  0
  7  6  1  0  0  0  0
  8 13  1  6  0  0  0
  8 12  1  0  0  0  0
  8  1  1  0  0  0  0
  9 25  1  6  0  0  0
  9  3  1  0  0  0  0
  9  2  1  0  0  0  0
 12  9  1  0  0  0  0
 13 14  1  6  0  0  0
 15 13  1  0  0  0  0
 16 21  1  6  0  0  0
 16 15  1  0  0  0  0
 17 16  1  0  0  0  0
 20 18  1  6  0  0  0
 20 17  1  0  0  0  0
 20 19  1  0  0  0  0
 22 24  2  0  0  0  0
 24 23  1  0  0  0  0
 24 21  1  0  0  0  0
 26 27  1  0  0  0  0
 26 25  1  0  0  0  0
 27 28  1  0  0  0  0
 28 30  1  0  0  0  0
 29 28  2  0  0  0  0
M  END
>  <MODEL>
5

>  <REMARK>
 VINA RESULT:      -5.7      2.608      6.366
  Name = 
  11 active torsions:
  status: ('A' for Active; 'I' for Inactive)
    1  A    between atoms: C_1  and  C_4
    2  A    between atoms: C_1  and  C_22
    3  A    between atoms: C_4  and  C_12
    4  A    between atoms: C_7  and  C_23
    5  A    between atoms: C_7  and  C_25
    6  A    between atoms: C_8  and  C_12
    7  A    between atoms: C_8  and  C_30
    8  A    between atoms: C_9  and  C_12
    9  A    between atoms: C_9  and  C_21
   10  A    between atoms: C_10  and  C_15
   11  A    between atoms: C_15  and  C_25
                            x       y       z     vdW  Elec       q    Type
                         _______ _______ _______ _____ _____    ______ ____

>  <TORSDO>
F 11

$$$$
=
 OpenBabel10272413583D

 30 31  0  0  1  0  0  0  0  0999 V2000
  181.3630  178.4860  140.7660 C   0  0  0  0  0  0  0  0  0  0  0  0
  182.5000  178.6430  137.9980 C   0  0  0  0  0  0  0  0  0  0  0  0
  183.3730  177.5510  137.3610 C   0  0  1  0  0  3  0  0  0  0  0  0
  181.4730  179.8420  140.4470 O   0  0  0  0  0  0  0  0  0  0  0  0
  180.2530  177.9020  140.6420 O   0  0  0  0  0  0  0  0  0  0  0  0
  181.5320  179.5510  137.9620 C   0  0  0  0  0  3  0  0  0  0  0  0
  181.1830  180.3200  139.1650 C   0  0  0  0  0  0  0  0  0  0  0  0
  182.5790  177.6820  141.1170 C   0  0  1  0  0  3  0  0  0  0  0  0
  183.6170  177.9050  138.7340 C   0  0  2  0  0  0  0  0  0  0  0  0
  182.5270  176.2990  137.1620 C   0  0  0  0  0  1  0  0  0  0  0  0
  180.6390  181.4470  139.0350 O   0  0  0  0  0  0  0  0  0  0  0  0
  183.1420  176.9750  139.8700 C   0  0  0  0  0  2  0  0  0  0  0  0
  183.6380  178.4730  141.9080 C   0  0  1  0  0  3  0  0  0  0  0  0
  183.0630  179.1200  143.1600 C   0  0  0  0  0  1  0  0  0  0  0  0
  184.9160  177.6660  142.2160 C   0  0  0  0  0  2  0  0  0  0  0  0
  186.0110  178.3490  143.0530 C   0  0  2  0  0  3  0  0  0  0  0  0
  187.2770  178.6510  142.2600 C   0  0  0  0  0  2  0  0  0  0  0  0
  189.6200  178.4130  143.0980 C   0  0  0  0  0  1  0  0  0  0  0  0
  188.7090  176.9130  141.4990 O   0  0  0  0  0  1  0  0  0  0  0  0
  188.3840  177.6730  142.6210 C   0  0  2  0  0  3  0  0  0  0  0  0
  186.3130  177.6010  144.3440 C   0  0  0  0  0  2  0  0  0  0  0  0
  186.6720  178.1590  146.7490 O   0  0  0  0  0  1  0  0  0  0  0  0
  185.3950  179.5230  145.4190 O   0  0  0  0  0  0  0  0  0  0  0  0
  186.0880  178.4770  145.5300 C   0  0  0  0  0  0  0  0  0  0  0  0
  184.8450  178.7830  138.9570 C   0  0  0  0  0  2  0  0  0  0  0  0
  185.9540  178.4670  137.9640 C   0  0  0  0  0  2  0  0  0  0  0  0
  187.2070  178.0010  138.6820 C   0  0  0  0  0  2  0  0  0  0  0  0
  188.3990  178.2550  137.8290 C   0  0  0  0  0  0  0  0  0  0  0  0
  188.9210  179.5370  137.7270 O   0  0  0  0  0  1  0  0  0  0  0  0
  188.9160  177.3130  137.1730 O   0  0  0  0  0  0  0  0  0  0  0  0
  1  8  1  0  0  0  0
  2  9  1  0  0  0  0
  3 10  1  1  0  0  0
  3  2  1  0  0  0  0
  3  9  1  0  0  0  0
  4  1  1  0  0  0  0
  5  1  2  0  0  0  0
  6  2  2  0  0  0  0
  6  7  1  0  0  0  0
  7  4  1  0  0  0  0
  8 13  1  6  0  0  0
  9 25  1  1  0  0  0
  9 12  1  0  0  0  0
 11  7  2  0  0  0  0
 12  8  1  0  0  0  0
 13 15  1  0  0  0  0
 13 14  1  1  0  0  0
 16 15  1  6  0  0  0
 16 21  1  0  0  0  0
 17 20  1  0  0  0  0
 17 16  1  0  0  0  0
 19 20  1  0  0  0  0
 20 18  1  6  0  0  0
 21 24  1  0  0  0  0
 23 24  2  0  0  0  0
 24 22  1  0  0  0  0
 26 27  1  0  0  0  0
 26 25  1  0  0  0  0
 28 27  1  0  0  0  0
 29 28  1  0  0  0  0
 30 28  2  0  0  0  0
M  END
>  <MODEL>
6

>  <REMARK>
 VINA RESULT:      -5.4      2.669      7.716
  Name = 
  11 active torsions:
  status: ('A' for Active; 'I' for Inactive)
    1  A    between atoms: C_1  and  C_4
    2  A    between atoms: C_1  and  C_22
    3  A    between atoms: C_4  and  C_12
    4  A    between atoms: C_7  and  C_23
    5  A    between atoms: C_7  and  C_25
    6  A    between atoms: C_8  and  C_12
    7  A    between atoms: C_8  and  C_30
    8  A    between atoms: C_9  and  C_12
    9  A    between atoms: C_9  and  C_21
   10  A    between atoms: C_10  and  C_15
   11  A    between atoms: C_15  and  C_25
                            x       y       z     vdW  Elec       q    Type
                         _______ _______ _______ _____ _____    ______ ____

>  <TORSDO>
F 11

$$$$
=
 OpenBabel10272413583D

 30 31  0  0  1  0  0  0  0  0999 V2000
  189.5250  177.7190  147.4580 C   0  0  0  0  0  0  0  0  0  0  0  0
  191.4070  177.2080  145.1840 C   0  0  0  0  0  0  0  0  0  0  0  0
  191.4580  178.0500  143.9000 C   0  0  1  0  0  3  0  0  0  0  0  0
  189.8570  176.3630  147.5020 O   0  0  0  0  0  0  0  0  0  0  0  0
  190.1200  178.5330  148.2130 O   0  0  0  0  0  0  0  0  0  0  0  0
  191.9760  176.5420  146.1820 C   0  0  0  0  0  3  0  0  0  0  0  0
  191.1540  175.9150  147.2280 C   0  0  0  0  0  0  0  0  0  0  0  0
  188.5700  178.2390  146.4260 C   0  0  1  0  0  3  0  0  0  0  0  0
  190.1690  177.7000  144.4370 C   0  0  2  0  0  0  0  0  0  0  0  0
  191.9400  179.4520  144.2500 C   0  0  0  0  0  1  0  0  0  0  0  0
  191.6170  174.9370  147.8680 O   0  0  0  0  0  0  0  0  0  0  0  0
  189.3320  178.7540  145.1920 C   0  0  0  0  0  2  0  0  0  0  0  0
  187.4320  177.2590  146.0840 C   0  0  1  0  0  3  0  0  0  0  0  0
  187.2120  176.2210  147.1750 C   0  0  0  0  0  1  0  0  0  0  0  0
  186.1140  177.9520  145.6790 C   0  0  0  0  0  2  0  0  0  0  0  0
  186.0640  178.6530  144.3110 C   0  0  2  0  0  3  0  0  0  0  0  0
  184.8540  179.5650  144.1440 C   0  0  0  0  0  2  0  0  0  0  0  0
  182.5640  179.0840  143.2670 C   0  0  0  0  0  1  0  0  0  0  0  0
  183.0160  179.1630  145.5960 O   0  0  0  0  0  1  0  0  0  0  0  0
  183.5640  178.7920  144.3700 C   0  0  2  0  0  3  0  0  0  0  0  0
  186.2110  177.6810  143.1490 C   0  0  0  0  0  2  0  0  0  0  0  0
  187.6410  178.9420  141.5400 O   0  0  0  0  0  1  0  0  0  0  0  0
  185.4360  178.5300  141.0580 O   0  0  0  0  0  0  0  0  0  0  0  0
  186.3970  178.4140  141.8640 C   0  0  0  0  0  0  0  0  0  0  0  0
  189.4530  176.5760  143.6940 C   0  0  0  0  0  2  0  0  0  0  0  0
  190.2770  176.0560  142.5250 C   0  0  0  0  0  2  0  0  0  0  0  0
  189.7070  176.5380  141.2040 C   0  0  0  0  0  2  0  0  0  0  0  0
  190.8110  176.7560  140.2300 C   0  0  0  0  0  0  0  0  0  0  0  0
  190.8570  176.0200  139.0540 O   0  0  0  0  0  0  0  0  0  0  0  0
  191.7230  177.5850  140.4880 O   0  0  0  0  0  1  0  0  0  0  0  0
  1  4  1  0  0  0  0
  1  5  2  0  0  0  0
  2  6  2  0  0  0  0
  3 10  1  1  0  0  0
  3  9  1  0  0  0  0
  3  2  1  0  0  0  0
  6  7  1  0  0  0  0
  7  4  1  0  0  0  0
  7 11  2  0  0  0  0
  8 13  1  6  0  0  0
  8  1  1  0  0  0  0
  9 25  1  6  0  0  0
  9  2  1  0  0  0  0
  9 12  1  0  0  0  0
 12  8  1  0  0  0  0
 13 14  1  1  0  0  0
 15 13  1  0  0  0  0
 16 21  1  6  0  0  0
 16 15  1  0  0  0  0
 17 16  1  0  0  0  0
 17 20  1  0  0  0  0
 20 18  1  6  0  0  0
 20 19  1  0  0  0  0
 22 24  1  0  0  0  0
 23 24  2  0  0  0  0
 24 21  1  0  0  0  0
 26 25  1  0  0  0  0
 27 26  1  0  0  0  0
 28 30  1  0  0  0  0
 28 27  1  0  0  0  0
 29 28  2  0  0  0  0
M  END
>  <MODEL>
7

>  <REMARK>
 VINA RESULT:      -5.3      1.239      2.467
  Name = 
  11 active torsions:
  status: ('A' for Active; 'I' for Inactive)
    1  A    between atoms: C_1  and  C_4
    2  A    between atoms: C_1  and  C_22
    3  A    between atoms: C_4  and  C_12
    4  A    between atoms: C_7  and  C_23
    5  A    between atoms: C_7  and  C_25
    6  A    between atoms: C_8  and  C_12
    7  A    between atoms: C_8  and  C_30
    8  A    between atoms: C_9  and  C_12
    9  A    between atoms: C_9  and  C_21
   10  A    between atoms: C_10  and  C_15
   11  A    between atoms: C_15  and  C_25
                            x       y       z     vdW  Elec       q    Type
                         _______ _______ _______ _____ _____    ______ ____

>  <TORSDO>
F 11

$$$$
=
 OpenBabel10272413583D

 30 31  0  0  1  0  0  0  0  0999 V2000
  189.5950  175.0680  135.6720 C   0  0  0  0  0  0  0  0  0  0  0  0
  188.4780  176.8310  137.8210 C   0  0  0  0  0  0  0  0  0  0  0  0
  189.1080  178.1620  138.2590 C   0  0  1  0  0  3  0  0  0  0  0  0
  188.8580  174.2480  136.5290 O   0  0  0  0  0  0  0  0  0  0  0  0
  189.0780  175.4760  134.5970 O   0  0  0  0  0  0  0  0  0  0  0  0
  187.4420  176.0590  137.5160 C   0  0  0  0  0  3  0  0  0  0  0  0
  187.6460  174.6690  137.0850 C   0  0  0  0  0  0  0  0  0  0  0  0
  190.9420  175.5860  136.0800 C   0  0  1  0  0  3  0  0  0  0  0  0
  189.9790  177.0420  138.0180 C   0  0  2  0  0  0  0  0  0  0  0  0
  189.0060  179.1560  137.1090 C   0  0  0  0  0  1  0  0  0  0  0  0
  186.7190  173.8340  137.2500 O   0  0  0  0  0  0  0  0  0  0  0  0
  190.8170  176.9780  136.7230 C   0  0  0  0  0  2  0  0  0  0  0  0
  191.7600  174.5880  136.9210 C   0  0  1  0  0  3  0  0  0  0  0  0
  191.7620  173.1890  136.3240 C   0  0  0  0  0  1  0  0  0  0  0  0
  193.1890  175.0740  137.2470 C   0  0  0  0  0  2  0  0  0  0  0  0
  194.3510  174.4750  136.4370 C   0  0  2  0  0  3  0  0  0  0  0  0
  195.6430  174.3510  137.2370 C   0  0  0  0  0  2  0  0  0  0  0  0
  196.4040  174.5920  139.6050 C   0  0  0  0  0  1  0  0  0  0  0  0
  195.3270  172.6210  138.8360 O   0  0  0  0  0  1  0  0  0  0  0  0
  195.3460  174.0060  138.6870 C   0  0  2  0  0  3  0  0  0  0  0  0
  194.5690  175.1870  135.1100 C   0  0  0  0  0  2  0  0  0  0  0  0
  195.0810  177.5040  135.8790 O   0  0  0  0  0  1  0  0  0  0  0  0
  196.7040  176.2260  134.8820 O   0  0  0  0  0  0  0  0  0  0  0  0
  195.5110  176.3320  135.2700 C   0  0  0  0  0  0  0  0  0  0  0  0
  190.5030  176.3580  139.2760 C   0  0  0  0  0  2  0  0  0  0  0  0
  190.3930  177.2610  140.4970 C   0  0  0  0  0  2  0  0  0  0  0  0
  191.7300  177.3730  141.2080 C   0  0  0  0  0  2  0  0  0  0  0  0
  191.5140  177.4080  142.6800 C   0  0  0  0  0  0  0  0  0  0  0  0
  191.7620  176.2770  143.4470 O   0  0  0  0  0  1  0  0  0  0  0  0
  191.0740  178.4530  143.2270 O   0  0  0  0  0  0  0  0  0  0  0  0
  1  8  1  0  0  0  0
  1  4  1  0  0  0  0
  2  9  1  0  0  0  0
  2  3  1  0  0  0  0
  3 10  1  6  0  0  0
  4  7  1  0  0  0  0
  5  1  2  0  0  0  0
  6  2  2  0  0  0  0
  7 11  2  0  0  0  0
  7  6  1  0  0  0  0
  8 12  1  0  0  0  0
  8 13  1  1  0  0  0
  9  3  1  0  0  0  0
  9 25  1  1  0  0  0
 12  9  1  0  0  0  0
 13 14  1  6  0  0  0
 13 15  1  0  0  0  0
 16 21  1  6  0  0  0
 16 17  1  0  0  0  0
 16 15  1  0  0  0  0
 17 20  1  0  0  0  0
 20 19  1  0  0  0  0
 20 18  1  1  0  0  0
 21 24  1  0  0  0  0
 23 24  2  0  0  0  0
 24 22  1  0  0  0  0
 25 26  1  0  0  0  0
 26 27  1  0  0  0  0
 27 28  1  0  0  0  0
 28 30  2  0  0  0  0
 28 29  1  0  0  0  0
M  END
>  <MODEL>
8

>  <REMARK>
 VINA RESULT:      -5.1      4.954     10.348
  Name = 
  11 active torsions:
  status: ('A' for Active; 'I' for Inactive)
    1  A    between atoms: C_1  and  C_4
    2  A    between atoms: C_1  and  C_22
    3  A    between atoms: C_4  and  C_12
    4  A    between atoms: C_7  and  C_23
    5  A    between atoms: C_7  and  C_25
    6  A    between atoms: C_8  and  C_12
    7  A    between atoms: C_8  and  C_30
    8  A    between atoms: C_9  and  C_12
    9  A    between atoms: C_9  and  C_21
   10  A    between atoms: C_10  and  C_15
   11  A    between atoms: C_15  and  C_25
                            x       y       z     vdW  Elec       q    Type
                         _______ _______ _______ _____ _____    ______ ____

>  <TORSDO>
F 11

$$$$
=
 OpenBabel10272413583D

 30 31  0  0  1  0  0  0  0  0999 V2000
  191.4070  176.6520  142.8530 C   0  0  0  0  0  0  0  0  0  0  0  0
  189.1240  178.2190  143.9980 C   0  0  0  0  0  0  0  0  0  0  0  0
  187.6450  177.8540  143.8050 C   0  0  1  0  0  3  0  0  0  0  0  0
  191.8590  177.9620  143.0280 O   0  0  0  0  0  0  0  0  0  0  0  0
  191.6810  175.7760  143.7160 O   0  0  0  0  0  0  0  0  0  0  0  0
  190.1520  178.6340  144.7290 C   0  0  0  0  0  3  0  0  0  0  0  0
  191.4990  178.7210  144.1460 C   0  0  0  0  0  0  0  0  0  0  0  0
  190.4800  176.3070  141.7260 C   0  0  1  0  0  3  0  0  0  0  0  0
  188.5260  177.7530  142.6720 C   0  0  2  0  0  0  0  0  0  0  0  0
  187.3650  176.5380  144.5200 C   0  0  0  0  0  1  0  0  0  0  0  0
  192.3330  179.5180  144.6460 O   0  0  0  0  0  0  0  0  0  0  0  0
  189.0140  176.3700  142.1900 C   0  0  0  0  0  2  0  0  0  0  0  0
  190.7540  177.0990  140.4340 C   0  0  1  0  0  3  0  0  0  0  0  0
  192.2400  177.3250  140.1950 C   0  0  0  0  0  1  0  0  0  0  0  0
  190.0550  176.5160  139.1880 C   0  0  0  0  0  2  0  0  0  0  0  0
  190.9350  175.8280  138.1300 C   0  0  2  0  0  3  0  0  0  0  0  0
  192.2520  176.5510  137.8760 C   0  0  0  0  0  2  0  0  0  0  0  0
  193.6690  174.5000  137.6990 C   0  0  0  0  0  1  0  0  0  0  0  0
  194.2330  176.5060  136.5630 O   0  0  0  0  0  1  0  0  0  0  0  0
  193.1520  175.7270  136.9700 C   0  0  2  0  0  3  0  0  0  0  0  0
  190.1820  175.5450  136.8370 C   0  0  0  0  0  2  0  0  0  0  0  0
  187.9830  174.3830  136.6530 O   0  0  0  0  0  0  0  0  0  0  0  0
  189.8470  173.2390  137.3440 O   0  0  0  0  0  1  0  0  0  0  0  0
  189.3340  174.3270  136.9710 C   0  0  0  0  0  0  0  0  0  0  0  0
  188.3970  178.8890  141.6610 C   0  0  0  0  0  2  0  0  0  0  0  0
  187.3820  178.5660  140.5750 C   0  0  0  0  0  2  0  0  0  0  0  0
  185.9660  178.7900  141.0740 C   0  0  0  0  0  2  0  0  0  0  0  0
  185.0480  178.9770  139.9180 C   0  0  0  0  0  0  0  0  0  0  0  0
  183.7160  179.3040  140.1320 O   0  0  0  0  0  1  0  0  0  0  0  0
  185.4720  178.8050  138.7450 O   0  0  0  0  0  0  0  0  0  0  0  0
  1  4  1  0  0  0  0
  1  5  2  0  0  0  0
  2  6  2  0  0  0  0
  3  2  1  0  0  0  0
  3 10  1  1  0  0  0
  4  7  1  0  0  0  0
  7 11  2  0  0  0  0
  7  6  1  0  0  0  0
  8 13  1  6  0  0  0
  8 12  1  0  0  0  0
  8  1  1  0  0  0  0
  9 25  1  6  0  0  0
  9  3  1  0  0  0  0
  9  2  1  0  0  0  0
 12  9  1  0  0  0  0
 13 14  1  6  0  0  0
 15 13  1  0  0  0  0
 16 21  1  6  0  0  0
 16 15  1  0  0  0  0
 17 16  1  0  0  0  0
 19 20  1  0  0  0  0
 20 18  1  1  0  0  0
 20 17  1  0  0  0  0
 21 24  1  0  0  0  0
 22 24  2  0  0  0  0
 24 23  1  0  0  0  0
 26 27  1  0  0  0  0
 26 25  1  0  0  0  0
 28 29  1  0  0  0  0
 28 27  1  0  0  0  0
 30 28  2  0  0  0  0
M  END
>  <MODEL>
9

>  <REMARK>
 VINA RESULT:      -4.9      2.955      6.793
  Name = 
  11 active torsions:
  status: ('A' for Active; 'I' for Inactive)
    1  A    between atoms: C_1  and  C_4
    2  A    between atoms: C_1  and  C_22
    3  A    between atoms: C_4  and  C_12
    4  A    between atoms: C_7  and  C_23
    5  A    between atoms: C_7  and  C_25
    6  A    between atoms: C_8  and  C_12
    7  A    between atoms: C_8  and  C_30
    8  A    between atoms: C_9  and  C_12
    9  A    between atoms: C_9  and  C_21
   10  A    between atoms: C_10  and  C_15
   11  A    between atoms: C_15  and  C_25
                            x       y       z     vdW  Elec       q    Type
                         _______ _______ _______ _____ _____    ______ ____

>  <TORSDO>
F 11

$$$$
