=
 OpenBabel10272400253D

 31 34  0  0  1  0  0  0  0  0999 V2000
  184.4980  178.5710  145.7060 C   0  0  0  0  0  0  0  0  0  0  0  0
  186.2260  178.1640  142.4700 C   0  0  1  0  0  3  0  0  0  0  0  0
  187.5860  177.6050  142.7850 C   0  0  0  0  0  0  0  0  0  0  0  0
  189.3130  176.7280  144.4200 C   0  0  0  0  0  2  0  0  0  0  0  0
  185.2590  178.4200  143.3900 C   0  0  0  0  0  0  0  0  0  0  0  0
  183.2960  179.1390  145.2870 C   0  0  0  0  0  3  0  0  0  0  0  0
  187.8370  176.8410  144.0690 C   0  0  0  0  0  2  0  0  0  0  0  0
  184.6050  178.7220  140.6250 C   0  0  1  0  0  3  0  0  0  0  0  0
  184.7320  178.3590  147.0570 O   0  0  0  0  0  1  0  0  0  0  0  0
  188.2640  178.2040  140.4910 C   0  0  0  0  0  3  0  0  0  0  0  0
  190.0570  176.1810  143.2190 C   0  0  2  0  0  3  0  0  0  0  0  0
  183.7420  179.1630  141.7190 N   0  0  0  0  0  2  0  0  0  0  0  0
  185.9720  178.5410  141.1010 N   0  0  0  0  0  0  0  0  0  0  0  0
  185.4690  178.2250  144.7660 C   0  0  0  0  0  3  0  0  0  0  0  0
  191.7660  175.9310  143.6350 Cl  0  0  0  0  0  0  0  0  0  0  0  0
  184.0190  178.9790  142.9770 C   0  0  0  0  0  0  0  0  0  0  0  0
  183.0610  179.3440  143.9280 C   0  0  0  0  0  3  0  0  0  0  0  0
  187.0440  178.6120  140.1560 C   0  0  0  0  0  3  0  0  0  0  0  0
  188.5420  177.6370  141.8220 C   0  0  0  0  0  0  0  0  0  0  0  0
  189.9550  177.1820  142.0750 C   0  0  0  0  0  2  0  0  0  0  0  0
  182.8080  177.1810  139.9150 C   0  0  0  0  0  3  0  0  0  0  0  0
  184.1040  177.4160  140.0960 C   0  0  0  0  0  3  0  0  0  0  0  0
  182.3700  175.8430  139.4110 C   0  0  0  0  0  2  0  0  0  0  0  0
  183.1760  175.4110  138.1880 C   0  0  0  0  0  2  0  0  0  0  0  0
  182.8080  176.1770  136.9190 C   0  0  0  0  0  2  0  0  0  0  0  0
  183.9170  176.8080  134.8060 C   0  0  0  0  0  1  0  0  0  0  0  0
  184.0100  176.8830  136.3180 C   0  0  2  0  0  3  0  0  0  0  0  0
  186.4700  176.9050  136.9320 C   0  0  0  0  0  0  0  0  0  0  0  0
  186.5610  178.1420  136.7110 O   0  0  0  0  0  0  0  0  0  0  0  0
  187.6700  176.1460  137.3720 C   0  0  0  0  0  1  0  0  0  0  0  0
  185.2270  176.2220  136.7660 N   0  0  0  0  0  2  0  0  0  0  0  0
  1  9  1  0  0  0  0
  2  3  1  1  0  0  0
  2  5  1  0  0  0  0
  3  7  1  0  0  0  0
  5 14  1  0  0  0  0
  6  1  1  0  0  0  0
  7  4  1  0  0  0  0
  8 22  1  1  0  0  0
  8 13  1  0  0  0  0
  8 12  1  0  0  0  0
 10 19  1  0  0  0  0
 11 15  1  1  0  0  0
 11  4  1  0  0  0  0
 12 16  1  0  0  0  0
 13  2  1  0  0  0  0
 14  1  2  0  0  0  0
 16  5  2  0  0  0  0
 16 17  1  0  0  0  0
 17  6  2  0  0  0  0
 18 10  2  0  0  0  0
 18 13  1  0  0  0  0
 19 20  1  0  0  0  0
 19  3  2  0  0  0  0
 20 11  1  0  0  0  0
 21 22  2  0  0  0  0
 23 21  1  0  0  0  0
 24 23  1  0  0  0  0
 25 24  1  0  0  0  0
 27 26  1  6  0  0  0
 27 31  1  0  0  0  0
 27 25  1  0  0  0  0
 28 30  1  0  0  0  0
 29 28  2  0  0  0  0
 31 28  1  0  0  0  0
M  END
>  <MODEL>
1

>  <REMARK>
 VINA RESULT:      -7.7      0.000      0.000
  Name = 
  6 active torsions:
  status: ('A' for Active; 'I' for Inactive)
    1  A    between atoms: C_3  and  C_19
    2  A    between atoms: C_3  and  C_22
    3  A    between atoms: C_7  and  C_9
    4  A    between atoms: C_7  and  C_22
    5  A    between atoms: C_15  and  C_23
    6  A    between atoms: C_19  and  N_24
                            x       y       z     vdW  Elec       q    Type
                         _______ _______ _______ _____ _____    ______ ____

>  <TORSDO>
F 6

$$$$
=
 OpenBabel10272400253D

 31 34  0  0  1  0  0  0  0  0999 V2000
  184.5430  178.5970  145.6460 C   0  0  0  0  0  0  0  0  0  0  0  0
  186.2630  178.1660  142.4090 C   0  0  1  0  0  3  0  0  0  0  0  0
  187.6180  177.5950  142.7240 C   0  0  0  0  0  0  0  0  0  0  0  0
  189.3390  176.7050  144.3590 C   0  0  0  0  0  2  0  0  0  0  0  0
  185.3000  178.4330  143.3310 C   0  0  0  0  0  0  0  0  0  0  0  0
  183.3460  179.1750  145.2280 C   0  0  0  0  0  3  0  0  0  0  0  0
  187.8630  176.8310  144.0090 C   0  0  0  0  0  2  0  0  0  0  0  0
  184.6450  178.7350  140.5650 C   0  0  1  0  0  3  0  0  0  0  0  0
  184.7770  178.3860  146.9980 O   0  0  0  0  0  1  0  0  0  0  0  0
  188.2990  178.1820  140.4270 C   0  0  0  0  0  3  0  0  0  0  0  0
  190.0760  176.1490  143.1580 C   0  0  2  0  0  3  0  0  0  0  0  0
  183.7870  179.1870  141.6600 N   0  0  0  0  0  2  0  0  0  0  0  0
  186.0110  178.5420  141.0400 N   0  0  0  0  0  0  0  0  0  0  0  0
  185.5100  178.2390  144.7070 C   0  0  0  0  0  3  0  0  0  0  0  0
  191.7830  175.8830  143.5730 Cl  0  0  0  0  0  0  0  0  0  0  0  0
  184.0640  179.0030  142.9170 C   0  0  0  0  0  0  0  0  0  0  0  0
  183.1110  179.3790  143.8690 C   0  0  0  0  0  3  0  0  0  0  0  0
  187.0820  178.6010  140.0930 C   0  0  0  0  0  3  0  0  0  0  0  0
  188.5730  177.6160  141.7590 C   0  0  0  0  0  0  0  0  0  0  0  0
  189.9820  177.1470  142.0120 C   0  0  0  0  0  2  0  0  0  0  0  0
  182.8300  177.1660  139.9700 C   0  0  0  0  0  3  0  0  0  0  0  0
  184.1310  177.4320  140.0400 C   0  0  0  0  0  3  0  0  0  0  0  0
  182.3820  175.8330  139.4630 C   0  0  0  0  0  2  0  0  0  0  0  0
  181.5950  175.9620  138.1610 C   0  0  0  0  0  2  0  0  0  0  0  0
  182.4790  175.9640  136.9160 C   0  0  0  0  0  2  0  0  0  0  0  0
  184.9110  175.9300  136.4910 C   0  0  0  0  0  1  0  0  0  0  0  0
  183.7610  175.1800  137.1350 C   0  0  2  0  0  3  0  0  0  0  0  0
  184.3080  172.7070  137.0070 C   0  0  0  0  0  0  0  0  0  0  0  0
  185.0500  172.7730  138.0220 O   0  0  0  0  0  0  0  0  0  0  0  0
  184.1340  171.4090  136.3040 C   0  0  0  0  0  1  0  0  0  0  0  0
  183.6300  173.8660  136.5220 N   0  0  0  0  0  2  0  0  0  0  0  0
  1  9  1  0  0  0  0
  2  3  1  1  0  0  0
  2  5  1  0  0  0  0
  3  7  1  0  0  0  0
  5 14  1  0  0  0  0
  6  1  1  0  0  0  0
  7  4  1  0  0  0  0
  8 22  1  1  0  0  0
  8 13  1  0  0  0  0
  8 12  1  0  0  0  0
 10 19  1  0  0  0  0
 11 15  1  1  0  0  0
 11  4  1  0  0  0  0
 12 16  1  0  0  0  0
 13  2  1  0  0  0  0
 14  1  2  0  0  0  0
 16  5  2  0  0  0  0
 16 17  1  0  0  0  0
 17  6  2  0  0  0  0
 18 10  2  0  0  0  0
 18 13  1  0  0  0  0
 19 20  1  0  0  0  0
 19  3  2  0  0  0  0
 20 11  1  0  0  0  0
 21 22  2  0  0  0  0
 23 21  1  0  0  0  0
 24 23  1  0  0  0  0
 25 27  1  0  0  0  0
 25 24  1  0  0  0  0
 27 26  1  6  0  0  0
 28 29  2  0  0  0  0
 30 28  1  0  0  0  0
 31 28  1  0  0  0  0
 31 27  1  0  0  0  0
M  END
>  <MODEL>
2

>  <REMARK>
 VINA RESULT:      -7.6      1.578      1.889
  Name = 
  6 active torsions:
  status: ('A' for Active; 'I' for Inactive)
    1  A    between atoms: C_3  and  C_19
    2  A    between atoms: C_3  and  C_22
    3  A    between atoms: C_7  and  C_9
    4  A    between atoms: C_7  and  C_22
    5  A    between atoms: C_15  and  C_23
    6  A    between atoms: C_19  and  N_24
                            x       y       z     vdW  Elec       q    Type
                         _______ _______ _______ _____ _____    ______ ____

>  <TORSDO>
F 6

$$$$
=
 OpenBabel10272400253D

 31 34  0  0  1  0  0  0  0  0999 V2000
  191.2030  174.5450  137.0350 C   0  0  0  0  0  0  0  0  0  0  0  0
  188.1650  176.4430  137.9240 C   0  0  1  0  0  3  0  0  0  0  0  0
  187.0340  175.8100  137.1620 C   0  0  0  0  0  0  0  0  0  0  0  0
  186.1120  174.0420  135.5970 C   0  0  0  0  0  2  0  0  0  0  0  0
  189.4530  176.0080  137.9050 C   0  0  0  0  0  0  0  0  0  0  0  0
  192.1690  175.2530  137.7470 C   0  0  0  0  0  3  0  0  0  0  0  0
  187.1200  174.3740  136.6880 C   0  0  0  0  0  2  0  0  0  0  0  0
  188.7660  178.1200  139.7040 C   0  0  1  0  0  3  0  0  0  0  0  0
  191.5760  173.4660  136.2450 O   0  0  0  0  0  1  0  0  0  0  0  0
  185.6850  177.8080  137.6820 C   0  0  0  0  0  3  0  0  0  0  0  0
  184.7330  174.4560  136.0680 C   0  0  2  0  0  3  0  0  0  0  0  0
  190.1390  177.7020  139.4240 N   0  0  0  0  0  2  0  0  0  0  0  0
  187.8710  177.6550  138.6500 N   0  0  0  0  0  0  0  0  0  0  0  0
  189.8630  174.9260  137.1080 C   0  0  0  0  0  3  0  0  0  0  0  0
  183.5190  173.9770  134.8620 Cl  0  0  0  0  0  0  0  0  0  0  0  0
  190.4470  176.7080  138.6440 C   0  0  0  0  0  0  0  0  0  0  0  0
  191.7900  176.3320  138.5460 C   0  0  0  0  0  3  0  0  0  0  0  0
  186.6350  178.3440  138.4430 C   0  0  0  0  0  3  0  0  0  0  0  0
  185.8600  176.4840  137.0610 C   0  0  0  0  0  0  0  0  0  0  0  0
  184.7040  175.9680  136.2440 C   0  0  0  0  0  2  0  0  0  0  0  0
  189.1910  177.1990  141.9570 C   0  0  0  0  0  3  0  0  0  0  0  0
  188.3240  177.5300  141.0040 C   0  0  0  0  0  3  0  0  0  0  0  0
  188.6870  176.5850  143.2230 C   0  0  0  0  0  2  0  0  0  0  0  0
  188.0660  177.6300  144.1470 C   0  0  0  0  0  2  0  0  0  0  0  0
  186.6440  177.2830  144.5850 C   0  0  0  0  0  2  0  0  0  0  0  0
  184.9470  178.6920  145.6920 C   0  0  0  0  0  1  0  0  0  0  0  0
  185.6960  178.4540  144.3950 C   0  0  2  0  0  3  0  0  0  0  0  0
  184.7840  178.7520  142.0480 C   0  0  0  0  0  0  0  0  0  0  0  0
  185.6700  179.6010  141.7630 O   0  0  0  0  0  0  0  0  0  0  0  0
  183.7630  178.3840  141.0330 C   0  0  0  0  0  1  0  0  0  0  0  0
  184.7490  178.1370  143.3360 N   0  0  0  0  0  2  0  0  0  0  0  0
  1 14  2  0  0  0  0
  1  6  1  0  0  0  0
  2  3  1  6  0  0  0
  2 13  1  0  0  0  0
  4 11  1  0  0  0  0
  4  7  1  0  0  0  0
  5  2  1  0  0  0  0
  5 16  2  0  0  0  0
  6 17  2  0  0  0  0
  7  3  1  0  0  0  0
  8 22  1  1  0  0  0
  9  1  1  0  0  0  0
 10 18  2  0  0  0  0
 11 15  1  6  0  0  0
 11 20  1  0  0  0  0
 12  8  1  0  0  0  0
 13  8  1  0  0  0  0
 14  5  1  0  0  0  0
 16 12  1  0  0  0  0
 17 16  1  0  0  0  0
 18 13  1  0  0  0  0
 19  3  2  0  0  0  0
 19 10  1  0  0  0  0
 20 19  1  0  0  0  0
 21 23  1  0  0  0  0
 22 21  2  0  0  0  0
 23 24  1  0  0  0  0
 24 25  1  0  0  0  0
 27 25  1  0  0  0  0
 27 26  1  1  0  0  0
 28 31  1  0  0  0  0
 29 28  2  0  0  0  0
 30 28  1  0  0  0  0
 31 27  1  0  0  0  0
M  END
>  <MODEL>
3

>  <REMARK>
 VINA RESULT:      -7.3      3.458      8.090
  Name = 
  6 active torsions:
  status: ('A' for Active; 'I' for Inactive)
    1  A    between atoms: C_3  and  C_19
    2  A    between atoms: C_3  and  C_22
    3  A    between atoms: C_7  and  C_9
    4  A    between atoms: C_7  and  C_22
    5  A    between atoms: C_15  and  C_23
    6  A    between atoms: C_19  and  N_24
                            x       y       z     vdW  Elec       q    Type
                         _______ _______ _______ _____ _____    ______ ____

>  <TORSDO>
F 6

$$$$
=
 OpenBabel10272400253D

 31 34  0  0  1  0  0  0  0  0999 V2000
  191.2890  174.6950  137.3480 C   0  0  0  0  0  0  0  0  0  0  0  0
  188.1560  176.5380  137.9880 C   0  0  1  0  0  3  0  0  0  0  0  0
  187.0870  175.8450  137.1880 C   0  0  0  0  0  0  0  0  0  0  0  0
  186.3040  173.9920  135.6450 C   0  0  0  0  0  2  0  0  0  0  0  0
  189.4540  176.1400  138.0590 C   0  0  0  0  0  0  0  0  0  0  0  0
  192.1930  175.4570  138.0850 C   0  0  0  0  0  3  0  0  0  0  0  0
  187.2390  174.3950  136.7770 C   0  0  0  0  0  2  0  0  0  0  0  0
  188.6090  178.2990  139.7300 C   0  0  1  0  0  3  0  0  0  0  0  0
  191.7350  173.5970  136.6240 O   0  0  0  0  0  1  0  0  0  0  0  0
  185.6590  177.8230  137.5510 C   0  0  0  0  0  3  0  0  0  0  0  0
  184.8900  174.3860  136.0210 C   0  0  2  0  0  3  0  0  0  0  0  0
  190.0070  177.9100  139.5460 N   0  0  0  0  0  2  0  0  0  0  0  0
  187.7890  177.7680  138.6470 N   0  0  0  0  0  0  0  0  0  0  0  0
  189.9370  175.0400  137.3300 C   0  0  0  0  0  3  0  0  0  0  0  0
  183.7600  173.8270  134.7680 Cl  0  0  0  0  0  0  0  0  0  0  0  0
  190.3840  176.8950  138.8250 C   0  0  0  0  0  0  0  0  0  0  0  0
  191.7410  176.5540  138.8170 C   0  0  0  0  0  3  0  0  0  0  0  0
  186.5490  178.4130  138.3430 C   0  0  0  0  0  3  0  0  0  0  0  0
  185.9040  176.4810  136.9940 C   0  0  0  0  0  0  0  0  0  0  0  0
  184.8110  175.9020  136.1350 C   0  0  0  0  0  2  0  0  0  0  0  0
  188.8730  176.9940  141.8120 C   0  0  0  0  0  3  0  0  0  0  0  0
  188.1090  177.7470  141.0260 C   0  0  0  0  0  3  0  0  0  0  0  0
  188.3030  176.4470  143.0810 C   0  0  0  0  0  2  0  0  0  0  0  0
  187.5220  177.5100  143.8510 C   0  0  0  0  0  2  0  0  0  0  0  0
  187.5260  177.2890  145.3620 C   0  0  0  0  0  2  0  0  0  0  0  0
  188.8710  177.6060  147.4080 C   0  0  0  0  0  1  0  0  0  0  0  0
  188.9360  177.2860  145.9270 C   0  0  2  0  0  3  0  0  0  0  0  0
  191.0520  178.0600  144.7630 C   0  0  0  0  0  0  0  0  0  0  0  0
  191.5930  176.9310  144.8990 O   0  0  0  0  0  0  0  0  0  0  0  0
  191.7970  179.1590  144.0960 C   0  0  0  0  0  1  0  0  0  0  0  0
  189.7280  178.2980  145.2430 N   0  0  0  0  0  2  0  0  0  0  0  0
  1  6  1  0  0  0  0
  2  3  1  6  0  0  0
  2  5  1  0  0  0  0
  2 13  1  0  0  0  0
  4 11  1  0  0  0  0
  4  7  1  0  0  0  0
  5 16  2  0  0  0  0
  6 17  2  0  0  0  0
  7  3  1  0  0  0  0
  8 22  1  1  0  0  0
  9  1  1  0  0  0  0
 10 18  2  0  0  0  0
 11 15  1  6  0  0  0
 11 20  1  0  0  0  0
 12  8  1  0  0  0  0
 13  8  1  0  0  0  0
 14  1  2  0  0  0  0
 14  5  1  0  0  0  0
 16 12  1  0  0  0  0
 17 16  1  0  0  0  0
 18 13  1  0  0  0  0
 19  3  2  0  0  0  0
 19 10  1  0  0  0  0
 20 19  1  0  0  0  0
 21 23  1  0  0  0  0
 22 21  2  0  0  0  0
 23 24  1  0  0  0  0
 24 25  1  0  0  0  0
 25 27  1  0  0  0  0
 27 26  1  1  0  0  0
 28 29  2  0  0  0  0
 28 31  1  0  0  0  0
 30 28  1  0  0  0  0
 31 27  1  0  0  0  0
M  END
>  <MODEL>
4

>  <REMARK>
 VINA RESULT:      -7.2      3.870      8.607
  Name = 
  6 active torsions:
  status: ('A' for Active; 'I' for Inactive)
    1  A    between atoms: C_3  and  C_19
    2  A    between atoms: C_3  and  C_22
    3  A    between atoms: C_7  and  C_9
    4  A    between atoms: C_7  and  C_22
    5  A    between atoms: C_15  and  C_23
    6  A    between atoms: C_19  and  N_24
                            x       y       z     vdW  Elec       q    Type
                         _______ _______ _______ _____ _____    ______ ____

>  <TORSDO>
F 6

$$$$
=
 OpenBabel10272400253D

 31 34  0  0  1  0  0  0  0  0999 V2000
  191.2810  174.1440  136.8770 C   0  0  0  0  0  0  0  0  0  0  0  0
  188.3010  176.1670  137.6870 C   0  0  1  0  0  3  0  0  0  0  0  0
  187.1260  175.4460  137.0880 C   0  0  0  0  0  0  0  0  0  0  0  0
  186.1110  173.4890  135.8370 C   0  0  0  0  0  2  0  0  0  0  0  0
  189.5860  175.7250  137.6480 C   0  0  0  0  0  0  0  0  0  0  0  0
  192.2880  174.9350  137.4270 C   0  0  0  0  0  3  0  0  0  0  0  0
  187.1840  173.9580  136.8080 C   0  0  0  0  0  2  0  0  0  0  0  0
  189.0100  178.0650  139.1830 C   0  0  1  0  0  3  0  0  0  0  0  0
  191.6050  172.9660  136.2190 O   0  0  0  0  0  1  0  0  0  0  0  0
  185.8100  177.5060  137.4150 C   0  0  0  0  0  3  0  0  0  0  0  0
  184.7640  173.9740  136.3310 C   0  0  2  0  0  3  0  0  0  0  0  0
  190.3630  177.6030  138.8790 N   0  0  0  0  0  2  0  0  0  0  0  0
  188.0520  177.4680  138.2590 N   0  0  0  0  0  0  0  0  0  0  0  0
  189.9480  174.5410  136.9810 C   0  0  0  0  0  3  0  0  0  0  0  0
  183.4770  173.3450  135.2780 Cl  0  0  0  0  0  0  0  0  0  0  0  0
  190.6230  176.5100  138.2230 C   0  0  0  0  0  0  0  0  0  0  0  0
  191.9580  176.1150  138.0940 C   0  0  0  0  0  3  0  0  0  0  0  0
  186.8040  178.1320  138.0370 C   0  0  0  0  0  3  0  0  0  0  0  0
  185.9470  176.1090  136.9690 C   0  0  0  0  0  0  0  0  0  0  0  0
  184.7430  175.4960  136.3030 C   0  0  0  0  0  2  0  0  0  0  0  0
  187.8490  178.3980  141.3390 C   0  0  0  0  0  3  0  0  0  0  0  0
  188.6500  177.6590  140.5760 C   0  0  0  0  0  3  0  0  0  0  0  0
  187.5520  177.9520  142.7350 C   0  0  0  0  0  2  0  0  0  0  0  0
  188.1720  176.5880  143.0330 C   0  0  0  0  0  2  0  0  0  0  0  0
  189.4060  176.6670  143.9290 C   0  0  0  0  0  2  0  0  0  0  0  0
  190.8540  178.6600  144.0950 C   0  0  0  0  0  1  0  0  0  0  0  0
  189.5530  178.0380  144.5660 C   0  0  2  0  0  3  0  0  0  0  0  0
  188.3940  177.7830  146.8060 C   0  0  0  0  0  0  0  0  0  0  0  0
  187.2550  177.7850  146.2680 O   0  0  0  0  0  0  0  0  0  0  0  0
  188.5100  177.6620  148.2830 C   0  0  0  0  0  1  0  0  0  0  0  0
  189.5770  177.8940  146.0140 N   0  0  0  0  0  2  0  0  0  0  0  0
  1 14  2  0  0  0  0
  1  6  1  0  0  0  0
  2  3  1  6  0  0  0
  2 13  1  0  0  0  0
  4 11  1  0  0  0  0
  4  7  1  0  0  0  0
  5  2  1  0  0  0  0
  5 16  2  0  0  0  0
  6 17  2  0  0  0  0
  7  3  1  0  0  0  0
  8 22  1  1  0  0  0
  9  1  1  0  0  0  0
 10 18  2  0  0  0  0
 11 15  1  6  0  0  0
 12  8  1  0  0  0  0
 13  8  1  0  0  0  0
 14  5  1  0  0  0  0
 16 12  1  0  0  0  0
 17 16  1  0  0  0  0
 18 13  1  0  0  0  0
 19  3  2  0  0  0  0
 19 10  1  0  0  0  0
 20 11  1  0  0  0  0
 20 19  1  0  0  0  0
 21 23  1  0  0  0  0
 22 21  2  0  0  0  0
 23 24  1  0  0  0  0
 24 25  1  0  0  0  0
 25 27  1  0  0  0  0
 27 26  1  6  0  0  0
 27 31  1  0  0  0  0
 28 30  1  0  0  0  0
 29 28  2  0  0  0  0
 31 28  1  0  0  0  0
M  END
>  <MODEL>
5

>  <REMARK>
 VINA RESULT:      -7.2      3.776      8.797
  Name = 
  6 active torsions:
  status: ('A' for Active; 'I' for Inactive)
    1  A    between atoms: C_3  and  C_19
    2  A    between atoms: C_3  and  C_22
    3  A    between atoms: C_7  and  C_9
    4  A    between atoms: C_7  and  C_22
    5  A    between atoms: C_15  and  C_23
    6  A    between atoms: C_19  and  N_24
                            x       y       z     vdW  Elec       q    Type
                         _______ _______ _______ _____ _____    ______ ____

>  <TORSDO>
F 6

$$$$
=
 OpenBabel10272400253D

 31 34  0  0  1  0  0  0  0  0999 V2000
  192.8040  174.3880  137.3440 C   0  0  0  0  0  0  0  0  0  0  0  0
  189.3320  175.6070  137.6370 C   0  0  1  0  0  3  0  0  0  0  0  0
  188.4630  174.5660  136.9880 C   0  0  0  0  0  0  0  0  0  0  0  0
  188.1430  172.3350  135.8270 C   0  0  0  0  0  2  0  0  0  0  0  0
  190.6810  175.5150  137.7770 C   0  0  0  0  0  0  0  0  0  0  0  0
  193.4990  175.4490  137.9200 C   0  0  0  0  0  3  0  0  0  0  0  0
  188.9300  173.1300  136.8590 C   0  0  0  0  0  2  0  0  0  0  0  0
  189.3410  177.7160  139.0130 C   0  0  1  0  0  3  0  0  0  0  0  0
  193.4960  173.2960  136.8390 O   0  0  0  0  0  1  0  0  0  0  0  0
  186.6380  176.2250  136.9760 C   0  0  0  0  0  3  0  0  0  0  0  0
  186.6650  172.4800  136.1280 C   0  0  2  0  0  3  0  0  0  0  0  0
  190.7950  177.6060  138.9000 N   0  0  0  0  0  2  0  0  0  0  0  0
  188.6910  176.8310  138.0530 N   0  0  0  0  0  0  0  0  0  0  0  0
  191.4110  174.4280  137.2680 C   0  0  0  0  0  3  0  0  0  0  0  0
  185.7240  171.4700  135.0080 Cl  0  0  0  0  0  0  0  0  0  0  0  0
  191.4040  176.5800  138.3820 C   0  0  0  0  0  0  0  0  0  0  0  0
  192.8010  176.5410  138.4330 C   0  0  0  0  0  3  0  0  0  0  0  0
  187.3550  177.1280  137.6380 C   0  0  0  0  0  3  0  0  0  0  0  0
  187.1800  174.8870  136.6820 C   0  0  0  0  0  0  0  0  0  0  0  0
  186.2650  173.9380  135.9530 C   0  0  0  0  0  2  0  0  0  0  0  0
  188.1850  178.1190  141.1600 C   0  0  0  0  0  3  0  0  0  0  0  0
  188.9220  177.3210  140.3930 C   0  0  0  0  0  3  0  0  0  0  0  0
  187.8240  177.6770  142.5410 C   0  0  0  0  0  2  0  0  0  0  0  0
  188.5850  176.4160  142.9450 C   0  0  0  0  0  2  0  0  0  0  0  0
  189.7660  176.6920  143.8730 C   0  0  0  0  0  2  0  0  0  0  0  0
  190.8600  178.8820  144.1940 C   0  0  0  0  0  1  0  0  0  0  0  0
  189.6450  178.0470  144.5500 C   0  0  2  0  0  3  0  0  0  0  0  0
  188.3610  177.7020  146.7090 C   0  0  0  0  0  0  0  0  0  0  0  0
  187.2570  177.7000  146.1050 O   0  0  0  0  0  0  0  0  0  0  0  0
  188.3940  177.5370  148.1860 C   0  0  0  0  0  1  0  0  0  0  0  0
  189.5860  177.8580  145.9920 N   0  0  0  0  0  2  0  0  0  0  0  0
  1  6  1  0  0  0  0
  2  3  1  6  0  0  0
  2  5  1  0  0  0  0
  2 13  1  0  0  0  0
  4 11  1  0  0  0  0
  4  7  1  0  0  0  0
  5 16  2  0  0  0  0
  6 17  2  0  0  0  0
  7  3  1  0  0  0  0
  8 22  1  1  0  0  0
  9  1  1  0  0  0  0
 10 18  2  0  0  0  0
 11 15  1  6  0  0  0
 12  8  1  0  0  0  0
 13  8  1  0  0  0  0
 14  1  2  0  0  0  0
 14  5  1  0  0  0  0
 16 17  1  0  0  0  0
 16 12  1  0  0  0  0
 18 13  1  0  0  0  0
 19 10  1  0  0  0  0
 19  3  2  0  0  0  0
 20 11  1  0  0  0  0
 20 19  1  0  0  0  0
 21 23  1  0  0  0  0
 22 21  2  0  0  0  0
 23 24  1  0  0  0  0
 24 25  1  0  0  0  0
 25 27  1  0  0  0  0
 27 26  1  1  0  0  0
 27 31  1  0  0  0  0
 28 30  1  0  0  0  0
 29 28  2  0  0  0  0
 31 28  1  0  0  0  0
M  END
>  <MODEL>
6

>  <REMARK>
 VINA RESULT:      -7.2      4.168      8.999
  Name = 
  6 active torsions:
  status: ('A' for Active; 'I' for Inactive)
    1  A    between atoms: C_3  and  C_19
    2  A    between atoms: C_3  and  C_22
    3  A    between atoms: C_7  and  C_9
    4  A    between atoms: C_7  and  C_22
    5  A    between atoms: C_15  and  C_23
    6  A    between atoms: C_19  and  N_24
                            x       y       z     vdW  Elec       q    Type
                         _______ _______ _______ _____ _____    ______ ____

>  <TORSDO>
F 6

$$$$
=
 OpenBabel10272400253D

 31 34  0  0  1  0  0  0  0  0999 V2000
  185.3050  178.4130  142.7150 C   0  0  0  0  0  0  0  0  0  0  0  0
  188.9020  177.8210  142.1300 C   0  0  1  0  0  3  0  0  0  0  0  0
  189.4950  177.4710  143.4670 C   0  0  0  0  0  0  0  0  0  0  0  0
  189.2810  177.0110  145.9510 C   0  0  0  0  0  2  0  0  0  0  0  0
  187.5840  178.0710  141.9070 C   0  0  0  0  0  0  0  0  0  0  0  0
  184.8920  178.7780  141.4360 C   0  0  0  0  0  3  0  0  0  0  0  0
  188.6330  176.9040  144.5780 C   0  0  0  0  0  2  0  0  0  0  0  0
  189.3380  177.9530  139.6540 C   0  0  1  0  0  3  0  0  0  0  0  0
  184.3930  178.3960  143.7610 O   0  0  0  0  0  1  0  0  0  0  0  0
  191.7210  177.8610  142.4810 C   0  0  0  0  0  3  0  0  0  0  0  0
  190.6710  176.4130  145.8790 C   0  0  2  0  0  3  0  0  0  0  0  0
  187.9540  178.4200  139.5850 N   0  0  0  0  0  2  0  0  0  0  0  0
  189.8190  177.9960  141.0310 N   0  0  0  0  0  0  0  0  0  0  0  0
  186.6380  178.0720  142.9460 C   0  0  0  0  0  3  0  0  0  0  0  0
  191.4100  176.4200  147.4960 Cl  0  0  0  0  0  0  0  0  0  0  0  0
  187.1430  178.4250  140.6020 C   0  0  0  0  0  0  0  0  0  0  0  0
  185.8090  178.7860  140.3850 C   0  0  0  0  0  3  0  0  0  0  0  0
  191.2280  178.0780  141.2660 C   0  0  0  0  0  3  0  0  0  0  0  0
  190.8440  177.4980  143.6080 C   0  0  0  0  0  0  0  0  0  0  0  0
  191.5210  177.2480  144.9300 C   0  0  0  0  0  2  0  0  0  0  0  0
  190.2420  176.1780  138.1920 C   0  0  0  0  0  3  0  0  0  0  0  0
  189.4100  176.5430  139.1630 C   0  0  0  0  0  3  0  0  0  0  0  0
  190.2440  174.7570  137.7260 C   0  0  0  0  0  2  0  0  0  0  0  0
  191.5570  174.3920  137.0370 C   0  0  0  0  0  2  0  0  0  0  0  0
  192.1800  175.5550  136.2670 C   0  0  0  0  0  2  0  0  0  0  0  0
  194.3640  176.2570  135.3560 C   0  0  0  0  0  1  0  0  0  0  0  0
  193.6580  175.7110  136.5820 C   0  0  2  0  0  3  0  0  0  0  0  0
  195.0060  174.1860  138.0930 C   0  0  0  0  0  0  0  0  0  0  0  0
  195.2460  175.1230  138.9000 O   0  0  0  0  0  0  0  0  0  0  0  0
  195.5530  172.8290  138.3560 C   0  0  0  0  0  1  0  0  0  0  0  0
  194.2130  174.4110  136.9270 N   0  0  0  0  0  2  0  0  0  0  0  0
  1 14  1  0  0  0  0
  1  9  1  0  0  0  0
  2  5  1  1  0  0  0
  2  3  1  0  0  0  0
  3 19  2  0  0  0  0
  3  7  1  0  0  0  0
  5 14  2  0  0  0  0
  6  1  2  0  0  0  0
  7  4  1  0  0  0  0
  8 22  1  1  0  0  0
  8 13  1  0  0  0  0
 10 19  1  0  0  0  0
 11  4  1  0  0  0  0
 11 15  1  1  0  0  0
 12  8  1  0  0  0  0
 12 16  1  0  0  0  0
 13 18  1  0  0  0  0
 13  2  1  0  0  0  0
 16  5  1  0  0  0  0
 17 16  2  0  0  0  0
 17  6  1  0  0  0  0
 18 10  2  0  0  0  0
 19 20  1  0  0  0  0
 20 11  1  0  0  0  0
 21 22  2  0  0  0  0
 23 21  1  0  0  0  0
 24 23  1  0  0  0  0
 25 27  1  0  0  0  0
 25 24  1  0  0  0  0
 27 26  1  6  0  0  0
 27 31  1  0  0  0  0
 28 30  1  0  0  0  0
 28 29  2  0  0  0  0
 31 28  1  0  0  0  0
M  END
>  <MODEL>
7

>  <REMARK>
 VINA RESULT:      -7.2      4.067      5.930
  Name = 
  6 active torsions:
  status: ('A' for Active; 'I' for Inactive)
    1  A    between atoms: C_3  and  C_19
    2  A    between atoms: C_3  and  C_22
    3  A    between atoms: C_7  and  C_9
    4  A    between atoms: C_7  and  C_22
    5  A    between atoms: C_15  and  C_23
    6  A    between atoms: C_19  and  N_24
                            x       y       z     vdW  Elec       q    Type
                         _______ _______ _______ _____ _____    ______ ____

>  <TORSDO>
F 6

$$$$
=
 OpenBabel10272400253D

 31 34  0  0  1  0  0  0  0  0999 V2000
  192.7610  174.1810  136.5380 C   0  0  0  0  0  0  0  0  0  0  0  0
  190.1410  176.2620  138.0960 C   0  0  1  0  0  3  0  0  0  0  0  0
  188.8390  175.8340  137.4780 C   0  0  0  0  0  0  0  0  0  0  0  0
  187.4850  174.3500  135.9320 C   0  0  0  0  0  2  0  0  0  0  0  0
  191.3510  175.7060  137.8210 C   0  0  0  0  0  0  0  0  0  0  0  0
  193.9020  174.7070  137.1410 C   0  0  0  0  0  3  0  0  0  0  0  0
  188.6820  174.4570  136.8650 C   0  0  0  0  0  2  0  0  0  0  0  0
  191.2030  177.6640  139.8980 C   0  0  1  0  0  3  0  0  0  0  0  0
  192.8780  173.1650  135.6000 O   0  0  0  0  0  1  0  0  0  0  0  0
  187.8290  177.8860  138.4000 C   0  0  0  0  0  3  0  0  0  0  0  0
  186.2540  174.8450  136.6640 C   0  0  2  0  0  3  0  0  0  0  0  0
  192.4580  177.1450  139.3550 N   0  0  0  0  0  2  0  0  0  0  0  0
  190.1070  177.4090  138.9700 N   0  0  0  0  0  0  0  0  0  0  0  0
  191.5030  174.6830  136.8700 C   0  0  0  0  0  3  0  0  0  0  0  0
  184.8190  174.6260  135.6380 Cl  0  0  0  0  0  0  0  0  0  0  0  0
  192.5220  176.2170  138.4460 C   0  0  0  0  0  0  0  0  0  0  0  0
  193.7810  175.7230  138.0890 C   0  0  0  0  0  3  0  0  0  0  0  0
  188.9420  178.2370  139.0380 C   0  0  0  0  0  3  0  0  0  0  0  0
  187.7500  176.6280  137.6380 C   0  0  0  0  0  0  0  0  0  0  0  0
  186.4280  176.3230  136.9820 C   0  0  0  0  0  2  0  0  0  0  0  0
  191.7160  177.0760  142.2430 C   0  0  0  0  0  3  0  0  0  0  0  0
  190.9040  176.9810  141.1940 C   0  0  0  0  0  3  0  0  0  0  0  0
  191.3750  176.3440  143.5010 C   0  0  0  0  0  2  0  0  0  0  0  0
  191.2620  177.2930  144.6920 C   0  0  0  0  0  2  0  0  0  0  0  0
  190.0020  178.1570  144.6600 C   0  0  0  0  0  2  0  0  0  0  0  0
  187.7860  177.5510  143.7560 C   0  0  0  0  0  1  0  0  0  0  0  0
  188.7500  177.3350  144.9070 C   0  0  2  0  0  3  0  0  0  0  0  0
  188.5710  177.3300  147.4370 C   0  0  0  0  0  0  0  0  0  0  0  0
  189.5500  176.5470  147.5490 O   0  0  0  0  0  0  0  0  0  0  0  0
  187.8640  177.8070  148.6540 C   0  0  0  0  0  1  0  0  0  0  0  0
  188.1300  177.7690  146.1510 N   0  0  0  0  0  2  0  0  0  0  0  0
  1 14  2  0  0  0  0
  1  6  1  0  0  0  0
  2  3  1  6  0  0  0
  2 13  1  0  0  0  0
  3 19  2  0  0  0  0
  4 11  1  0  0  0  0
  4  7  1  0  0  0  0
  5  2  1  0  0  0  0
  5 16  2  0  0  0  0
  6 17  2  0  0  0  0
  7  3  1  0  0  0  0
  8 22  1  1  0  0  0
  9  1  1  0  0  0  0
 10 18  2  0  0  0  0
 11 15  1  6  0  0  0
 11 20  1  0  0  0  0
 12  8  1  0  0  0  0
 13 18  1  0  0  0  0
 13  8  1  0  0  0  0
 14  5  1  0  0  0  0
 16 12  1  0  0  0  0
 17 16  1  0  0  0  0
 19 10  1  0  0  0  0
 20 19  1  0  0  0  0
 21 23  1  0  0  0  0
 22 21  2  0  0  0  0
 23 24  1  0  0  0  0
 25 24  1  0  0  0  0
 25 27  1  0  0  0  0
 27 26  1  6  0  0  0
 27 31  1  0  0  0  0
 28 29  2  0  0  0  0
 28 30  1  0  0  0  0
 31 28  1  0  0  0  0
M  END
>  <MODEL>
8

>  <REMARK>
 VINA RESULT:      -7.0      4.191      9.455
  Name = 
  6 active torsions:
  status: ('A' for Active; 'I' for Inactive)
    1  A    between atoms: C_3  and  C_19
    2  A    between atoms: C_3  and  C_22
    3  A    between atoms: C_7  and  C_9
    4  A    between atoms: C_7  and  C_22
    5  A    between atoms: C_15  and  C_23
    6  A    between atoms: C_19  and  N_24
                            x       y       z     vdW  Elec       q    Type
                         _______ _______ _______ _____ _____    ______ ____

>  <TORSDO>
F 6

$$$$
=
 OpenBabel10272400253D

 31 34  0  0  1  0  0  0  0  0999 V2000
  185.2270  178.4240  143.0600 C   0  0  0  0  0  0  0  0  0  0  0  0
  188.7820  177.8210  142.2700 C   0  0  1  0  0  3  0  0  0  0  0  0
  189.4510  177.4730  143.5700 C   0  0  0  0  0  0  0  0  0  0  0  0
  189.3800  177.0210  146.0640 C   0  0  0  0  0  2  0  0  0  0  0  0
  187.4540  178.0740  142.1220 C   0  0  0  0  0  0  0  0  0  0  0  0
  184.7410  178.7870  141.8060 C   0  0  0  0  0  3  0  0  0  0  0  0
  188.6540  176.9120  144.7310 C   0  0  0  0  0  2  0  0  0  0  0  0
  189.0740  177.9450  139.7710 C   0  0  1  0  0  3  0  0  0  0  0  0
  184.3770  178.4130  144.1580 O   0  0  0  0  0  1  0  0  0  0  0  0
  191.6170  177.8540  142.4550 C   0  0  0  0  0  3  0  0  0  0  0  0
  190.7630  176.4190  145.9130 C   0  0  2  0  0  3  0  0  0  0  0  0
  187.6900  178.4140  139.7820 N   0  0  0  0  0  2  0  0  0  0  0  0
  189.6340  177.9900  141.1180 N   0  0  0  0  0  0  0  0  0  0  0  0
  186.5700  178.0800  143.2150 C   0  0  0  0  0  3  0  0  0  0  0  0
  191.5940  176.4290  147.4840 Cl  0  0  0  0  0  0  0  0  0  0  0  0
  186.9390  178.4250  140.8440 C   0  0  0  0  0  0  0  0  0  0  0  0
  185.5960  178.7900  140.7040 C   0  0  0  0  0  3  0  0  0  0  0  0
  191.0540  178.0690  141.2700 C   0  0  0  0  0  3  0  0  0  0  0  0
  190.8070  177.4970  143.6320 C   0  0  0  0  0  0  0  0  0  0  0  0
  191.5580  177.2490  144.9140 C   0  0  0  0  0  2  0  0  0  0  0  0
  189.7310  176.1970  138.1530 C   0  0  0  0  0  3  0  0  0  0  0  0
  189.1140  176.5330  139.2820 C   0  0  0  0  0  3  0  0  0  0  0  0
  189.7080  174.7710  137.7030 C   0  0  0  0  0  2  0  0  0  0  0  0
  189.0140  174.6190  136.3510 C   0  0  0  0  0  2  0  0  0  0  0  0
  187.8390  173.6430  136.3800 C   0  0  0  0  0  2  0  0  0  0  0  0
  185.6660  173.1830  137.4560 C   0  0  0  0  0  1  0  0  0  0  0  0
  186.5930  174.2800  136.9700 C   0  0  2  0  0  3  0  0  0  0  0  0
  185.9000  176.4940  135.9460 C   0  0  0  0  0  0  0  0  0  0  0  0
  186.4860  177.1460  136.8500 O   0  0  0  0  0  0  0  0  0  0  0  0
  185.1730  177.2150  134.8690 C   0  0  0  0  0  1  0  0  0  0  0  0
  185.9250  175.0660  135.9430 N   0  0  0  0  0  2  0  0  0  0  0  0
  1 14  1  0  0  0  0
  1  9  1  0  0  0  0
  2  5  1  1  0  0  0
  2  3  1  0  0  0  0
  3 19  2  0  0  0  0
  3  7  1  0  0  0  0
  5 14  2  0  0  0  0
  6  1  2  0  0  0  0
  7  4  1  0  0  0  0
  8 22  1  1  0  0  0
  8 12  1  0  0  0  0
  8 13  1  0  0  0  0
 10 19  1  0  0  0  0
 11  4  1  0  0  0  0
 11 15  1  1  0  0  0
 12 16  1  0  0  0  0
 13 18  1  0  0  0  0
 13  2  1  0  0  0  0
 16  5  1  0  0  0  0
 17 16  2  0  0  0  0
 17  6  1  0  0  0  0
 18 10  2  0  0  0  0
 19 20  1  0  0  0  0
 20 11  1  0  0  0  0
 21 22  2  0  0  0  0
 23 21  1  0  0  0  0
 24 25  1  0  0  0  0
 24 23  1  0  0  0  0
 25 27  1  0  0  0  0
 27 26  1  6  0  0  0
 28 29  2  0  0  0  0
 30 28  1  0  0  0  0
 31 28  1  0  0  0  0
 31 27  1  0  0  0  0
M  END
>  <MODEL>
9

>  <REMARK>
 VINA RESULT:      -6.9      2.258      3.926
  Name = 
  6 active torsions:
  status: ('A' for Active; 'I' for Inactive)
    1  A    between atoms: C_3  and  C_19
    2  A    between atoms: C_3  and  C_22
    3  A    between atoms: C_7  and  C_9
    4  A    between atoms: C_7  and  C_22
    5  A    between atoms: C_15  and  C_23
    6  A    between atoms: C_19  and  N_24
                            x       y       z     vdW  Elec       q    Type
                         _______ _______ _______ _____ _____    ______ ____

>  <TORSDO>
F 6

$$$$
