=
 OpenBabel10272401013D

 27 32  0  0  1  0  0  0  0  0999 V2000
  191.2240  174.2150  137.6620 C   0  0  0  0  0  2  0  0  0  0  0  0
  190.9440  176.7060  137.9700 C   0  0  1  0  0  3  0  0  0  0  0  0
  189.1440  176.2770  136.0630 C   0  0  0  0  0  2  0  0  0  0  0  0
  187.5620  178.4480  139.5100 N   0  0  0  0  0  0  0  0  0  0  0  0
  185.4940  178.5860  139.1770 N   0  0  0  0  0  0  0  0  0  0  0  0
  190.8630  176.5780  139.5260 C   0  0  0  0  0  2  0  0  0  0  0  0
  187.3420  178.0560  138.2600 C   0  0  0  0  0  0  0  0  0  0  0  0
  186.2330  174.0090  136.9040 C   0  0  0  0  0  3  0  0  0  0  0  0
  186.0120  178.1160  137.9700 C   0  0  0  0  0  3  0  0  0  0  0  0
  186.8670  172.7830  137.1180 C   0  0  0  0  0  3  0  0  0  0  0  0
  188.7900  177.7120  138.0350 C   0  0  1  0  0  3  0  0  0  0  0  0
  191.6620  175.5800  137.3680 N   0  0  0  0  0  0  0  0  0  0  0  0
  186.4530  178.7830  140.1090 N   0  0  0  0  0  0  0  0  0  0  0  0
  188.9630  178.2690  139.3210 C   0  0  2  0  0  3  0  0  0  0  0  0
  190.4910  173.6280  136.4660 C   0  0  0  0  0  2  0  0  0  0  0  0
  189.6120  176.9820  137.3010 C   0  0  1  0  0  3  0  0  0  0  0  0
  186.9850  175.1310  136.5510 C   0  0  0  0  0  3  0  0  0  0  0  0
  189.5700  177.1520  140.1770 C   0  0  0  0  0  2  0  0  0  0  0  0
  188.2520  172.6790  136.9740 C   0  0  0  0  0  3  0  0  0  0  0  0
  189.0140  173.7970  136.6160 C   0  0  0  0  0  0  0  0  0  0  0  0
  188.3750  175.0370  136.4060 C   0  0  0  0  0  0  0  0  0  0  0  0
  194.9790  176.2850  134.8960 N   0  0  0  0  0  0  0  0  0  0  0  0
  192.7980  175.8230  136.5120 C   0  0  0  0  0  0  0  0  0  0  0  0
  192.6240  176.0920  135.1490 C   0  0  0  0  0  3  0  0  0  0  0  0
  193.7380  176.3240  134.3460 C   0  0  0  0  0  3  0  0  0  0  0  0
  195.1560  176.0310  136.1940 N   0  0  0  0  0  0  0  0  0  0  0  0
  194.1030  175.7980  137.0200 C   0  0  0  0  0  3  0  0  0  0  0  0
  2  6  1  1  0  0  0
  3 21  1  0  0  0  0
  4 13  1  0  0  0  0
  5 13  2  0  0  0  0
  6 18  1  0  0  0  0
  7  4  1  0  0  0  0
  8 10  1  0  0  0  0
  9  7  2  0  0  0  0
  9  5  1  0  0  0  0
 11  7  1  1  0  0  0
 11 14  1  0  0  0  0
 12  1  1  0  0  0  0
 12  2  1  0  0  0  0
 14  4  1  0  0  0  0
 14 18  1  1  0  0  0
 15 20  1  0  0  0  0
 15  1  1  0  0  0  0
 16  3  1  1  0  0  0
 16  2  1  0  0  0  0
 16 11  1  0  0  0  0
 17  8  2  0  0  0  0
 19 10  2  0  0  0  0
 20 19  1  0  0  0  0
 21 17  1  0  0  0  0
 21 20  2  0  0  0  0
 22 26  1  0  0  0  0
 23 27  1  0  0  0  0
 23 12  1  0  0  0  0
 24 23  2  0  0  0  0
 25 22  2  0  0  0  0
 25 24  1  0  0  0  0
 26 27  2  0  0  0  0
M  END
>  <MODEL>
1

>  <REMARK>
 VINA RESULT:      -6.6      0.000      0.000
  Name = 
  1 active torsions:
  status: ('A' for Active; 'I' for Inactive)
    1  A    between atoms: C_9  and  N_15
                            x       y       z     vdW  Elec       q    Type
                         _______ _______ _______ _____ _____    ______ ____

>  <TORSDO>
F 1

$$$$
=
 OpenBabel10272401013D

 27 32  0  0  1  0  0  0  0  0999 V2000
  191.8990  174.0580  137.3270 C   0  0  0  0  0  2  0  0  0  0  0  0
  191.6280  176.5250  137.7950 C   0  0  1  0  0  3  0  0  0  0  0  0
  190.2840  176.3450  135.5100 C   0  0  0  0  0  2  0  0  0  0  0  0
  188.0390  178.2920  138.7150 N   0  0  0  0  0  0  0  0  0  0  0  0
  186.1010  178.5570  137.9530 N   0  0  0  0  0  0  0  0  0  0  0  0
  191.2000  176.2710  139.2780 C   0  0  0  0  0  2  0  0  0  0  0  0
  188.0910  178.0170  137.4160 C   0  0  0  0  0  0  0  0  0  0  0  0
  187.1960  174.1560  135.4820 C   0  0  0  0  0  3  0  0  0  0  0  0
  186.8610  178.1660  136.8490 C   0  0  0  0  0  3  0  0  0  0  0  0
  187.7320  172.8880  135.7140 C   0  0  0  0  0  3  0  0  0  0  0  0
  189.5420  177.6250  137.4820 C   0  0  1  0  0  3  0  0  0  0  0  0
  192.4290  175.4200  137.2630 N   0  0  0  0  0  0  0  0  0  0  0  0
  186.8350  178.6290  139.0860 N   0  0  0  0  0  0  0  0  0  0  0  0
  189.4410  178.0630  138.8210 C   0  0  2  0  0  3  0  0  0  0  0  0
  191.4330  173.6100  135.9500 C   0  0  0  0  0  2  0  0  0  0  0  0
  190.4860  176.9200  136.8810 C   0  0  1  0  0  3  0  0  0  0  0  0
  188.0390  175.2670  135.4070 C   0  0  0  0  0  3  0  0  0  0  0  0
  189.8120  176.8500  139.6810 C   0  0  0  0  0  2  0  0  0  0  0  0
  189.1110  172.7300  135.8670 C   0  0  0  0  0  3  0  0  0  0  0  0
  189.9650  173.8370  135.7900 C   0  0  0  0  0  0  0  0  0  0  0  0
  189.4230  175.1190  135.5600 C   0  0  0  0  0  0  0  0  0  0  0  0
  196.2310  176.1610  135.6460 N   0  0  0  0  0  0  0  0  0  0  0  0
  193.7330  175.6800  136.7010 C   0  0  0  0  0  0  0  0  0  0  0  0
  193.8940  176.5930  135.6530 C   0  0  0  0  0  3  0  0  0  0  0  0
  195.1640  176.8250  135.1310 C   0  0  0  0  0  3  0  0  0  0  0  0
  196.0890  175.2890  136.6460 N   0  0  0  0  0  0  0  0  0  0  0  0
  194.8720  175.0280  137.1910 C   0  0  0  0  0  3  0  0  0  0  0  0
  2  6  1  1  0  0  0
  3 21  1  0  0  0  0
  4 14  1  0  0  0  0
  4 13  1  0  0  0  0
  5 13  2  0  0  0  0
  6 18  1  0  0  0  0
  7  4  1  0  0  0  0
  8 10  1  0  0  0  0
  9  7  2  0  0  0  0
  9  5  1  0  0  0  0
 10 19  2  0  0  0  0
 11  7  1  1  0  0  0
 11 14  1  0  0  0  0
 12  1  1  0  0  0  0
 12  2  1  0  0  0  0
 14 18  1  1  0  0  0
 15  1  1  0  0  0  0
 16  3  1  1  0  0  0
 16 11  1  0  0  0  0
 16  2  1  0  0  0  0
 17  8  2  0  0  0  0
 17 21  1  0  0  0  0
 20 19  1  0  0  0  0
 20 15  1  0  0  0  0
 21 20  2  0  0  0  0
 22 26  1  0  0  0  0
 23 27  1  0  0  0  0
 23 12  1  0  0  0  0
 24 23  2  0  0  0  0
 25 22  2  0  0  0  0
 25 24  1  0  0  0  0
 26 27  2  0  0  0  0
M  END
>  <MODEL>
2

>  <REMARK>
 VINA RESULT:      -6.4      1.137      1.205
  Name = 
  1 active torsions:
  status: ('A' for Active; 'I' for Inactive)
    1  A    between atoms: C_9  and  N_15
                            x       y       z     vdW  Elec       q    Type
                         _______ _______ _______ _____ _____    ______ ____

>  <TORSDO>
F 1

$$$$
=
 OpenBabel10272401013D

 27 32  0  0  1  0  0  0  0  0999 V2000
  189.8390  178.3910  145.7820 C   0  0  0  0  0  2  0  0  0  0  0  0
  189.4160  177.5860  143.4270 C   0  0  1  0  0  3  0  0  0  0  0  0
  187.3060  176.5360  144.6520 C   0  0  0  0  0  2  0  0  0  0  0  0
  186.2870  178.8730  141.1030 N   0  0  0  0  0  0  0  0  0  0  0  0
  184.1900  178.9810  141.0940 N   0  0  0  0  0  0  0  0  0  0  0  0
  189.6680  179.0050  142.8190 C   0  0  0  0  0  2  0  0  0  0  0  0
  185.8490  178.0210  142.0240 C   0  0  0  0  0  0  0  0  0  0  0  0
  184.8350  178.9380  146.2170 C   0  0  0  0  0  3  0  0  0  0  0  0
  184.4870  178.0390  142.0790 C   0  0  0  0  0  3  0  0  0  0  0  0
  185.6020  179.5390  147.2170 C   0  0  0  0  0  3  0  0  0  0  0  0
  187.2440  177.6620  142.4610 C   0  0  1  0  0  3  0  0  0  0  0  0
  190.0890  177.4200  144.7170 N   0  0  0  0  0  0  0  0  0  0  0  0
  185.3000  179.4830  140.5070 N   0  0  0  0  0  0  0  0  0  0  0  0
  187.6280  178.4810  141.3760 C   0  0  2  0  0  3  0  0  0  0  0  0
  188.9280  177.7890  146.8410 C   0  0  0  0  0  2  0  0  0  0  0  0
  187.9570  177.1800  143.4650 C   0  0  1  0  0  3  0  0  0  0  0  0
  185.3990  177.9560  145.4000 C   0  0  0  0  0  3  0  0  0  0  0  0
  188.4920  179.5920  141.9830 C   0  0  0  0  0  2  0  0  0  0  0  0
  186.9310  179.1550  147.4030 C   0  0  0  0  0  3  0  0  0  0  0  0
  187.5050  178.1690  146.5930 C   0  0  0  0  0  0  0  0  0  0  0  0
  186.7320  177.5650  145.5780 C   0  0  0  0  0  0  0  0  0  0  0  0
  192.7320  174.2100  145.2850 N   0  0  0  0  0  0  0  0  0  0  0  0
  190.9990  176.3190  144.9200 C   0  0  0  0  0  0  0  0  0  0  0  0
  191.6070  176.1100  146.1640 C   0  0  0  0  0  3  0  0  0  0  0  0
  192.4800  175.0380  146.3310 C   0  0  0  0  0  3  0  0  0  0  0  0
  192.1570  174.3980  144.0960 N   0  0  0  0  0  0  0  0  0  0  0  0
  191.2970  175.4280  143.8810 C   0  0  0  0  0  3  0  0  0  0  0  0
  1 15  1  0  0  0  0
  2  6  1  1  0  0  0
  2 16  1  0  0  0  0
  2 12  1  0  0  0  0
  3 21  1  0  0  0  0
  4 14  1  0  0  0  0
  4  7  1  0  0  0  0
  5  9  1  0  0  0  0
  7  9  2  0  0  0  0
  8 10  1  0  0  0  0
 10 19  2  0  0  0  0
 11  7  1  1  0  0  0
 11 16  1  0  0  0  0
 12 23  1  0  0  0  0
 12  1  1  0  0  0  0
 13  5  2  0  0  0  0
 13  4  1  0  0  0  0
 14 18  1  1  0  0  0
 14 11  1  0  0  0  0
 16  3  1  1  0  0  0
 17 21  1  0  0  0  0
 17  8  2  0  0  0  0
 18  6  1  0  0  0  0
 20 15  1  0  0  0  0
 20 19  1  0  0  0  0
 21 20  2  0  0  0  0
 22 25  1  0  0  0  0
 23 24  1  0  0  0  0
 24 25  2  0  0  0  0
 26 22  2  0  0  0  0
 27 26  1  0  0  0  0
 27 23  2  0  0  0  0
M  END
>  <MODEL>
3

>  <REMARK>
 VINA RESULT:      -6.1      6.119      8.244
  Name = 
  1 active torsions:
  status: ('A' for Active; 'I' for Inactive)
    1  A    between atoms: C_9  and  N_15
                            x       y       z     vdW  Elec       q    Type
                         _______ _______ _______ _____ _____    ______ ____

>  <TORSDO>
F 1

$$$$
=
 OpenBabel10272401013D

 27 32  0  0  1  0  0  0  0  0999 V2000
  185.9630  179.5380  142.0500 C   0  0  0  0  0  2  0  0  0  0  0  0
  184.8820  178.7760  144.2010 C   0  0  1  0  0  3  0  0  0  0  0  0
  186.4590  176.6930  143.7210 C   0  0  0  0  0  2  0  0  0  0  0  0
  186.9100  178.3410  147.7430 N   0  0  0  0  0  0  0  0  0  0  0  0
  188.5410  177.3200  148.5820 N   0  0  0  0  0  0  0  0  0  0  0  0
  185.1520  180.1460  144.9070 C   0  0  0  0  0  2  0  0  0  0  0  0
  187.1990  177.3330  146.9270 C   0  0  0  0  0  0  0  0  0  0  0  0
  190.1930  177.3140  143.6890 C   0  0  0  0  0  3  0  0  0  0  0  0
  188.2570  176.6210  147.4080 C   0  0  0  0  0  3  0  0  0  0  0  0
  190.3400  178.1690  142.5950 C   0  0  0  0  0  3  0  0  0  0  0  0
  186.1510  177.7450  145.9280 C   0  0  1  0  0  3  0  0  0  0  0  0
  184.8350  178.9150  142.7440 N   0  0  0  0  0  0  0  0  0  0  0  0
  187.7100  178.3690  148.7730 N   0  0  0  0  0  0  0  0  0  0  0  0
  185.8160  178.7070  146.9070 C   0  0  2  0  0  3  0  0  0  0  0  0
  186.7910  178.4810  141.3370 C   0  0  0  0  0  2  0  0  0  0  0  0
  185.7930  177.6550  144.6590 C   0  0  1  0  0  3  0  0  0  0  0  0
  188.9280  176.8350  144.0350 C   0  0  0  0  0  3  0  0  0  0  0  0
  185.9820  180.0680  146.2220 C   0  0  0  0  0  2  0  0  0  0  0  0
  189.2220  178.5400  141.8440 C   0  0  0  0  0  3  0  0  0  0  0  0
  187.9510  178.0610  142.1800 C   0  0  0  0  0  0  0  0  0  0  0  0
  187.8010  177.2020  143.2890 C   0  0  0  0  0  0  0  0  0  0  0  0
  181.4600  177.5900  140.6310 N   0  0  0  0  0  0  0  0  0  0  0  0
  183.6800  178.4560  142.0120 C   0  0  0  0  0  0  0  0  0  0  0  0
  183.8230  177.6630  140.8670 C   0  0  0  0  0  3  0  0  0  0  0  0
  182.6910  177.2340  140.1810 C   0  0  0  0  0  3  0  0  0  0  0  0
  181.3110  178.3440  141.7220 N   0  0  0  0  0  0  0  0  0  0  0  0
  182.3840  178.7880  142.4270 C   0  0  0  0  0  3  0  0  0  0  0  0
  1 12  1  0  0  0  0
  2 16  1  0  0  0  0
  2  6  1  1  0  0  0
  4 13  1  0  0  0  0
  5 13  2  0  0  0  0
  6 18  1  0  0  0  0
  7  9  2  0  0  0  0
  7  4  1  0  0  0  0
  8 17  1  0  0  0  0
  9  5  1  0  0  0  0
 10  8  2  0  0  0  0
 11 14  1  0  0  0  0
 11  7  1  6  0  0  0
 12  2  1  0  0  0  0
 14 18  1  6  0  0  0
 14  4  1  0  0  0  0
 15  1  1  0  0  0  0
 15 20  1  0  0  0  0
 16  3  1  6  0  0  0
 16 11  1  0  0  0  0
 19 20  2  0  0  0  0
 19 10  1  0  0  0  0
 20 21  1  0  0  0  0
 21  3  1  0  0  0  0
 21 17  2  0  0  0  0
 22 26  1  0  0  0  0
 23 27  1  0  0  0  0
 23 12  1  0  0  0  0
 24 23  2  0  0  0  0
 25 22  2  0  0  0  0
 25 24  1  0  0  0  0
 26 27  2  0  0  0  0
M  END
>  <MODEL>
4

>  <REMARK>
 VINA RESULT:      -6.1      6.654      9.626
  Name = 
  1 active torsions:
  status: ('A' for Active; 'I' for Inactive)
    1  A    between atoms: C_9  and  N_15
                            x       y       z     vdW  Elec       q    Type
                         _______ _______ _______ _____ _____    ______ ____

>  <TORSDO>
F 1

$$$$
=
 OpenBabel10272401013D

 27 32  0  0  1  0  0  0  0  0999 V2000
  187.9240  176.2850  142.7940 C   0  0  0  0  0  2  0  0  0  0  0  0
  190.4390  176.3370  143.0160 C   0  0  1  0  0  3  0  0  0  0  0  0
  189.8070  178.4420  144.5090 C   0  0  0  0  0  2  0  0  0  0  0  0
  192.4370  175.5910  146.5230 N   0  0  0  0  0  0  0  0  0  0  0  0
  192.5750  176.2680  148.5050 N   0  0  0  0  0  0  0  0  0  0  0  0
  190.5150  174.8110  143.3470 C   0  0  0  0  0  2  0  0  0  0  0  0
  191.8920  176.8020  146.5590 C   0  0  0  0  0  0  0  0  0  0  0  0
  187.7280  177.8090  147.6080 C   0  0  0  0  0  3  0  0  0  0  0  0
  191.9420  177.3090  147.8230 C   0  0  0  0  0  3  0  0  0  0  0  0
  186.5270  177.3460  147.0670 C   0  0  0  0  0  3  0  0  0  0  0  0
  191.4920  176.7460  145.1090 C   0  0  1  0  0  3  0  0  0  0  0  0
  189.2310  176.6710  142.2590 N   0  0  0  0  0  0  0  0  0  0  0  0
  192.8700  175.2250  147.6980 N   0  0  0  0  0  0  0  0  0  0  0  0
  192.2060  175.5270  145.1190 C   0  0  2  0  0  3  0  0  0  0  0  0
  187.2040  177.5030  143.3530 C   0  0  0  0  0  2  0  0  0  0  0  0
  190.6550  177.2410  144.2130 C   0  0  1  0  0  3  0  0  0  0  0  0
  188.7800  178.1720  146.7640 C   0  0  0  0  0  3  0  0  0  0  0  0
  191.1950  174.4530  144.7010 C   0  0  0  0  0  2  0  0  0  0  0  0
  186.3760  177.2500  145.6820 C   0  0  0  0  0  3  0  0  0  0  0  0
  187.4230  177.6150  144.8270 C   0  0  0  0  0  0  0  0  0  0  0  0
  188.6390  178.0780  145.3730 C   0  0  0  0  0  0  0  0  0  0  0  0
  189.5210  178.6740  138.5830 N   0  0  0  0  0  0  0  0  0  0  0  0
  189.3370  177.3560  140.9940 C   0  0  0  0  0  0  0  0  0  0  0  0
  190.3720  177.0560  140.1000 C   0  0  0  0  0  3  0  0  0  0  0  0
  190.4500  177.7310  138.8850 C   0  0  0  0  0  3  0  0  0  0  0  0
  188.5290  178.9680  139.4260 N   0  0  0  0  0  0  0  0  0  0  0  0
  188.4090  178.3370  140.6240 C   0  0  0  0  0  3  0  0  0  0  0  0
  1 15  1  0  0  0  0
  2  6  1  1  0  0  0
  2 16  1  0  0  0  0
  3 21  1  0  0  0  0
  4  7  1  0  0  0  0
  4 13  1  0  0  0  0
  6 18  1  0  0  0  0
  7  9  2  0  0  0  0
  9  5  1  0  0  0  0
 10  8  1  0  0  0  0
 11 14  1  0  0  0  0
 11  7  1  1  0  0  0
 12  1  1  0  0  0  0
 12  2  1  0  0  0  0
 13  5  2  0  0  0  0
 14 18  1  1  0  0  0
 14  4  1  0  0  0  0
 15 20  1  0  0  0  0
 16  3  1  1  0  0  0
 16 11  1  0  0  0  0
 17  8  2  0  0  0  0
 19 10  2  0  0  0  0
 20 21  2  0  0  0  0
 20 19  1  0  0  0  0
 21 17  1  0  0  0  0
 22 25  2  0  0  0  0
 22 26  1  0  0  0  0
 23 12  1  0  0  0  0
 24 23  2  0  0  0  0
 25 24  1  0  0  0  0
 26 27  2  0  0  0  0
 27 23  1  0  0  0  0
M  END
>  <MODEL>
5

>  <REMARK>
 VINA RESULT:      -5.7      5.682      8.431
  Name = 
  1 active torsions:
  status: ('A' for Active; 'I' for Inactive)
    1  A    between atoms: C_9  and  N_15
                            x       y       z     vdW  Elec       q    Type
                         _______ _______ _______ _____ _____    ______ ____

>  <TORSDO>
F 1

$$$$
=
 OpenBabel10272401013D

 27 32  0  0  1  0  0  0  0  0999 V2000
  182.3270  177.4680  139.2830 C   0  0  0  0  0  2  0  0  0  0  0  0
  183.9810  177.6150  137.3800 C   0  0  1  0  0  3  0  0  0  0  0  0
  184.9320  179.5280  138.9590 C   0  0  0  0  0  2  0  0  0  0  0  0
  187.9480  176.6170  137.7230 N   0  0  0  0  0  0  0  0  0  0  0  0
  189.6680  177.0990  138.8240 N   0  0  0  0  0  0  0  0  0  0  0  0
  184.2110  176.0680  137.3640 C   0  0  0  0  0  2  0  0  0  0  0  0
  187.7230  177.7920  138.3020 C   0  0  0  0  0  0  0  0  0  0  0  0
  186.1890  178.4930  142.3760 C   0  0  0  0  0  3  0  0  0  0  0  0
  188.8020  178.1720  139.0410 C   0  0  0  0  0  3  0  0  0  0  0  0
  185.0230  178.0310  142.9900 C   0  0  0  0  0  3  0  0  0  0  0  0
  186.3130  177.8620  137.7800 C   0  0  1  0  0  3  0  0  0  0  0  0
  182.6790  177.9660  137.9530 N   0  0  0  0  0  0  0  0  0  0  0  0
  189.1320  176.1570  138.0180 N   0  0  0  0  0  0  0  0  0  0  0  0
  186.6730  176.6830  137.0910 C   0  0  2  0  0  3  0  0  0  0  0  0
  182.4240  178.5880  140.3070 C   0  0  0  0  0  2  0  0  0  0  0  0
  185.1250  178.4040  137.9860 C   0  0  1  0  0  3  0  0  0  0  0  0
  186.1410  178.9870  141.0710 C   0  0  0  0  0  3  0  0  0  0  0  0
  185.6860  175.6100  137.5630 C   0  0  0  0  0  2  0  0  0  0  0  0
  183.8090  178.0660  142.3010 C   0  0  0  0  0  3  0  0  0  0  0  0
  183.7500  178.5630  140.9940 C   0  0  0  0  0  0  0  0  0  0  0  0
  184.9280  179.0260  140.3710 C   0  0  0  0  0  0  0  0  0  0  0  0
  179.9870  180.3100  135.7460 N   0  0  0  0  0  0  0  0  0  0  0  0
  181.7550  178.7780  137.1990 C   0  0  0  0  0  0  0  0  0  0  0  0
  181.4940  180.1020  137.5710 C   0  0  0  0  0  3  0  0  0  0  0  0
  180.5980  180.8630  136.8250 C   0  0  0  0  0  3  0  0  0  0  0  0
  180.2290  179.0490  135.3810 N   0  0  0  0  0  0  0  0  0  0  0  0
  181.0950  178.2650  136.0750 C   0  0  0  0  0  3  0  0  0  0  0  0
  1 15  1  0  0  0  0
  2  6  1  1  0  0  0
  2 12  1  0  0  0  0
  2 16  1  0  0  0  0
  3 21  1  0  0  0  0
  4 13  1  0  0  0  0
  4  7  1  0  0  0  0
  5  9  1  0  0  0  0
  6 18  1  0  0  0  0
  7  9  2  0  0  0  0
  8 10  1  0  0  0  0
 11 16  1  0  0  0  0
 11  7  1  1  0  0  0
 12  1  1  0  0  0  0
 13  5  2  0  0  0  0
 14 18  1  1  0  0  0
 14  4  1  0  0  0  0
 14 11  1  0  0  0  0
 15 20  1  0  0  0  0
 16  3  1  1  0  0  0
 17  8  2  0  0  0  0
 19 10  2  0  0  0  0
 20 19  1  0  0  0  0
 21 20  2  0  0  0  0
 21 17  1  0  0  0  0
 22 25  1  0  0  0  0
 23 24  1  0  0  0  0
 23 12  1  0  0  0  0
 25 24  2  0  0  0  0
 26 22  2  0  0  0  0
 26 27  1  0  0  0  0
 27 23  2  0  0  0  0
M  END
>  <MODEL>
6

>  <REMARK>
 VINA RESULT:      -5.6      3.844      8.623
  Name = 
  1 active torsions:
  status: ('A' for Active; 'I' for Inactive)
    1  A    between atoms: C_9  and  N_15
                            x       y       z     vdW  Elec       q    Type
                         _______ _______ _______ _____ _____    ______ ____

>  <TORSDO>
F 1

$$$$
=
 OpenBabel10272401013D

 27 32  0  0  1  0  0  0  0  0999 V2000
  183.1040  177.8520  141.0900 C   0  0  0  0  0  2  0  0  0  0  0  0
  183.5660  177.9420  138.6090 C   0  0  1  0  0  3  0  0  0  0  0  0
  185.5930  179.4080  139.5030 C   0  0  0  0  0  2  0  0  0  0  0  0
  186.8140  176.1760  136.8260 N   0  0  0  0  0  0  0  0  0  0  0  0
  188.9120  176.1700  136.8850 N   0  0  0  0  0  0  0  0  0  0  0  0
  183.3900  176.3970  138.4460 C   0  0  0  0  0  2  0  0  0  0  0  0
  187.1890  177.2820  137.4600 C   0  0  0  0  0  0  0  0  0  0  0  0
  188.1110  177.6980  141.7530 C   0  0  0  0  0  3  0  0  0  0  0  0
  188.5470  177.3460  137.5400 C   0  0  0  0  0  3  0  0  0  0  0  0
  187.3390  177.3840  142.8730 C   0  0  0  0  0  3  0  0  0  0  0  0
  185.7680  177.6870  137.7470 C   0  0  1  0  0  3  0  0  0  0  0  0
  182.8480  178.4510  139.7800 N   0  0  0  0  0  0  0  0  0  0  0  0
  187.8420  175.4640  136.4560 N   0  0  0  0  0  0  0  0  0  0  0  0
  185.4490  176.5670  136.9480 C   0  0  2  0  0  3  0  0  0  0  0  0
  183.9570  178.7830  141.9370 C   0  0  0  0  0  2  0  0  0  0  0  0
  185.0050  178.4110  138.5490 C   0  0  1  0  0  3  0  0  0  0  0  0
  187.5320  178.3650  140.6710 C   0  0  0  0  0  3  0  0  0  0  0  0
  184.6140  175.6450  137.8430 C   0  0  0  0  0  2  0  0  0  0  0  0
  185.9900  177.7420  142.9140 C   0  0  0  0  0  3  0  0  0  0  0  0
  185.4010  178.4150  141.8370 C   0  0  0  0  0  0  0  0  0  0  0  0
  186.1790  178.7270  140.7020 C   0  0  0  0  0  0  0  0  0  0  0  0
  180.0450  181.5470  139.3650 N   0  0  0  0  0  0  0  0  0  0  0  0
  181.8880  179.5180  139.6310 C   0  0  0  0  0  0  0  0  0  0  0  0
  181.9430  180.3840  138.5320 C   0  0  0  0  0  3  0  0  0  0  0  0
  181.0030  181.4050  138.4130 C   0  0  0  0  0  3  0  0  0  0  0  0
  179.9820  180.7260  140.4150 N   0  0  0  0  0  0  0  0  0  0  0  0
  180.8750  179.7150  140.5780 C   0  0  0  0  0  3  0  0  0  0  0  0
  1 15  1  0  0  0  0
  2  6  1  1  0  0  0
  2 12  1  0  0  0  0
  3 21  1  0  0  0  0
  4 14  1  0  0  0  0
  4  7  1  0  0  0  0
  5  9  1  0  0  0  0
  7  9  2  0  0  0  0
  8 10  1  0  0  0  0
 10 19  2  0  0  0  0
 11  7  1  1  0  0  0
 11 16  1  0  0  0  0
 12  1  1  0  0  0  0
 13  4  1  0  0  0  0
 13  5  2  0  0  0  0
 14 11  1  0  0  0  0
 14 18  1  1  0  0  0
 16  2  1  0  0  0  0
 16  3  1  1  0  0  0
 17 21  1  0  0  0  0
 17  8  2  0  0  0  0
 18  6  1  0  0  0  0
 20 15  1  0  0  0  0
 20 19  1  0  0  0  0
 21 20  2  0  0  0  0
 22 26  1  0  0  0  0
 23 12  1  0  0  0  0
 23 27  1  0  0  0  0
 24 23  2  0  0  0  0
 25 24  1  0  0  0  0
 25 22  2  0  0  0  0
 26 27  2  0  0  0  0
M  END
>  <MODEL>
7

>  <REMARK>
 VINA RESULT:      -5.5      3.721      8.839
  Name = 
  1 active torsions:
  status: ('A' for Active; 'I' for Inactive)
    1  A    between atoms: C_9  and  N_15
                            x       y       z     vdW  Elec       q    Type
                         _______ _______ _______ _____ _____    ______ ____

>  <TORSDO>
F 1

$$$$
=
 OpenBabel10272401013D

 27 32  0  0  1  0  0  0  0  0999 V2000
  189.3560  178.4410  138.7900 C   0  0  0  0  0  2  0  0  0  0  0  0
  190.8570  176.4780  139.3080 C   0  0  1  0  0  3  0  0  0  0  0  0
  188.9310  175.2360  137.9650 C   0  0  0  0  0  2  0  0  0  0  0  0
  192.9440  174.3870  136.4590 N   0  0  0  0  0  0  0  0  0  0  0  0
  192.6530  173.2820  134.6980 N   0  0  0  0  0  0  0  0  0  0  0  0
  192.1380  177.2370  138.8290 C   0  0  0  0  0  2  0  0  0  0  0  0
  191.6580  174.0540  136.4150 C   0  0  0  0  0  0  0  0  0  0  0  0
  188.4240  176.2240  134.3460 C   0  0  0  0  0  3  0  0  0  0  0  0
  191.3920  173.3330  135.2910 C   0  0  0  0  0  3  0  0  0  0  0  0
  188.0190  177.5550  134.4590 C   0  0  0  0  0  3  0  0  0  0  0  0
  191.3420  174.8220  137.6710 C   0  0  1  0  0  3  0  0  0  0  0  0
  189.7980  177.4030  139.7200 N   0  0  0  0  0  0  0  0  0  0  0  0
  193.5920  173.9310  135.4220 N   0  0  0  0  0  0  0  0  0  0  0  0
  192.7400  175.0200  137.7180 C   0  0  2  0  0  3  0  0  0  0  0  0
  188.0020  178.0780  138.2000 C   0  0  0  0  0  2  0  0  0  0  0  0
  190.3710  175.4160  138.3430 C   0  0  1  0  0  3  0  0  0  0  0  0
  188.7050  175.4810  135.4940 C   0  0  0  0  0  3  0  0  0  0  0  0
  192.9430  176.5390  137.6940 C   0  0  0  0  0  2  0  0  0  0  0  0
  187.8900  178.1420  135.7190 C   0  0  0  0  0  3  0  0  0  0  0  0
  188.1650  177.4040  136.8770 C   0  0  0  0  0  0  0  0  0  0  0  0
  188.5810  176.0610  136.7630 C   0  0  0  0  0  0  0  0  0  0  0  0
  188.0960  177.1060  143.5450 N   0  0  0  0  0  0  0  0  0  0  0  0
  189.2180  177.2940  141.0370 C   0  0  0  0  0  0  0  0  0  0  0  0
  189.7110  176.3690  141.9650 C   0  0  0  0  0  3  0  0  0  0  0  0
  189.1320  176.2870  143.2280 C   0  0  0  0  0  3  0  0  0  0  0  0
  187.6190  177.9930  142.6690 N   0  0  0  0  0  0  0  0  0  0  0  0
  188.1490  178.1120  141.4230 C   0  0  0  0  0  3  0  0  0  0  0  0
  1 12  1  0  0  0  0
  2  6  1  6  0  0  0
  2 12  1  0  0  0  0
  4 14  1  0  0  0  0
  5  9  1  0  0  0  0
  5 13  2  0  0  0  0
  7  4  1  0  0  0  0
  8 10  2  0  0  0  0
  8 17  1  0  0  0  0
  9  7  2  0  0  0  0
 10 19  1  0  0  0  0
 11  7  1  6  0  0  0
 11 14  1  0  0  0  0
 11 16  1  0  0  0  0
 12 23  1  0  0  0  0
 13  4  1  0  0  0  0
 14 18  1  6  0  0  0
 15  1  1  0  0  0  0
 16  3  1  6  0  0  0
 16  2  1  0  0  0  0
 17 21  2  0  0  0  0
 18  6  1  0  0  0  0
 19 20  2  0  0  0  0
 20 15  1  0  0  0  0
 21 20  1  0  0  0  0
 21  3  1  0  0  0  0
 23 27  2  0  0  0  0
 23 24  1  0  0  0  0
 24 25  2  0  0  0  0
 25 22  1  0  0  0  0
 26 22  2  0  0  0  0
 27 26  1  0  0  0  0
M  END
>  <MODEL>
8

>  <REMARK>
 VINA RESULT:      -5.4      2.146      6.265
  Name = 
  1 active torsions:
  status: ('A' for Active; 'I' for Inactive)
    1  A    between atoms: C_9  and  N_15
                            x       y       z     vdW  Elec       q    Type
                         _______ _______ _______ _____ _____    ______ ____

>  <TORSDO>
F 1

$$$$
=
 OpenBabel10272401013D

 27 32  0  0  1  0  0  0  0  0999 V2000
  190.0300  176.5850  135.1110 C   0  0  0  0  0  2  0  0  0  0  0  0
  189.8580  174.3800  136.3290 C   0  0  1  0  0  3  0  0  0  0  0  0
  187.8330  175.6800  137.4530 C   0  0  0  0  0  2  0  0  0  0  0  0
  186.7350  171.7560  135.8720 N   0  0  0  0  0  0  0  0  0  0  0  0
  184.6470  171.6480  136.0560 N   0  0  0  0  0  0  0  0  0  0  0  0
  189.9600  173.5560  135.0040 C   0  0  0  0  0  2  0  0  0  0  0  0
  186.3560  172.7880  136.6180 C   0  0  0  0  0  0  0  0  0  0  0  0
  184.9800  176.7300  135.1980 C   0  0  0  0  0  3  0  0  0  0  0  0
  185.0040  172.7860  136.7810 C   0  0  0  0  0  3  0  0  0  0  0  0
  185.6000  177.6460  134.3460 C   0  0  0  0  0  3  0  0  0  0  0  0
  187.7570  173.3320  136.7080 C   0  0  1  0  0  3  0  0  0  0  0  0
  190.4680  175.7050  136.1950 N   0  0  0  0  0  0  0  0  0  0  0  0
  185.7160  171.0300  135.5050 N   0  0  0  0  0  0  0  0  0  0  0  0
  188.0970  172.1430  136.0260 C   0  0  2  0  0  3  0  0  0  0  0  0
  189.1420  177.6930  135.6580 C   0  0  0  0  0  2  0  0  0  0  0  0
  188.4650  174.4280  136.9220 C   0  0  1  0  0  3  0  0  0  0  0  0
  185.7150  176.1090  136.2090 C   0  0  0  0  0  3  0  0  0  0  0  0
  188.7710  172.5900  134.7240 C   0  0  0  0  0  2  0  0  0  0  0  0
  186.9550  177.9440  134.5090 C   0  0  0  0  0  3  0  0  0  0  0  0
  187.7000  177.3300  135.5220 C   0  0  0  0  0  0  0  0  0  0  0  0
  187.0750  176.4000  136.3790 C   0  0  0  0  0  0  0  0  0  0  0  0
  193.4840  176.9130  138.8510 N   0  0  0  0  0  0  0  0  0  0  0  0
  191.4990  176.1220  137.1130 C   0  0  0  0  0  0  0  0  0  0  0  0
  191.1830  176.5040  138.4230 C   0  0  0  0  0  3  0  0  0  0  0  0
  192.1990  176.9010  139.2880 C   0  0  0  0  0  3  0  0  0  0  0  0
  193.7970  176.5500  137.6060 N   0  0  0  0  0  0  0  0  0  0  0  0
  192.8440  176.1540  136.7220 C   0  0  0  0  0  3  0  0  0  0  0  0
  1 15  1  0  0  0  0
  1 12  1  0  0  0  0
  2  6  1  6  0  0  0
  2 16  1  0  0  0  0
  4 14  1  0  0  0  0
  4  7  1  0  0  0  0
  5  9  1  0  0  0  0
  7  9  2  0  0  0  0
  8 17  1  0  0  0  0
 10 19  1  0  0  0  0
 10  8  2  0  0  0  0
 11  7  1  6  0  0  0
 11 16  1  0  0  0  0
 12  2  1  0  0  0  0
 12 23  1  0  0  0  0
 13  4  1  0  0  0  0
 13  5  2  0  0  0  0
 14 18  1  6  0  0  0
 14 11  1  0  0  0  0
 16  3  1  6  0  0  0
 17 21  2  0  0  0  0
 18  6  1  0  0  0  0
 19 20  2  0  0  0  0
 20 15  1  0  0  0  0
 20 21  1  0  0  0  0
 21  3  1  0  0  0  0
 22 25  1  0  0  0  0
 23 24  1  0  0  0  0
 24 25  2  0  0  0  0
 26 22  2  0  0  0  0
 27 23  2  0  0  0  0
 27 26  1  0  0  0  0
M  END
>  <MODEL>
9

>  <REMARK>
 VINA RESULT:      -5.3      2.963      4.865
  Name = 
  1 active torsions:
  status: ('A' for Active; 'I' for Inactive)
    1  A    between atoms: C_9  and  N_15
                            x       y       z     vdW  Elec       q    Type
                         _______ _______ _______ _____ _____    ______ ____

>  <TORSDO>
F 1

$$$$
