=
 OpenBabel10272413473D

 30 32  0  0  1  0  0  0  0  0999 V2000
  184.7540  178.6220  144.8700 C   0  0  0  0  0  0  0  0  0  0  0  0
  184.6380  178.9160  146.1910 N   0  0  0  0  0  0  0  0  0  0  0  0
  183.3980  178.9840  143.8090 Cl  0  0  0  0  0  0  0  0  0  0  0  0
  186.9930  177.7570  145.2790 C   0  0  0  0  0  0  0  0  0  0  0  0
  185.6340  178.6570  147.0730 C   0  0  0  0  0  3  0  0  0  0  0  0
  185.9360  178.0350  144.3760 C   0  0  0  0  0  0  0  0  0  0  0  0
  186.8210  178.0750  146.6350 C   0  0  0  0  0  3  0  0  0  0  0  0
  190.7160  176.6630  143.0640 C   0  0  0  0  0  3  0  0  0  0  0  0
  191.2620  177.2230  144.1410 C   0  0  0  0  0  3  0  0  0  0  0  0
  189.5110  175.7890  143.1420 C   0  0  0  0  0  2  0  0  0  0  0  0
  189.4190  177.1270  145.8000 C   0  0  0  0  0  3  0  0  0  0  0  0
  188.3310  176.5470  143.6500 C   0  0  0  0  0  3  0  0  0  0  0  0
  190.7310  177.1270  145.5200 C   0  0  0  0  0  0  0  0  0  0  0  0
  188.2780  177.1430  144.8490 C   0  0  0  0  0  0  0  0  0  0  0  0
  191.4090  175.0180  147.4600 O   0  0  0  0  0  0  0  0  0  0  0  0
  191.9890  176.1350  147.5170 C   0  0  0  0  0  0  0  0  0  0  0  0
  191.6270  177.2040  146.6360 N   0  0  0  0  0  2  0  0  0  0  0  0
  192.9780  176.3410  148.4680 O   0  0  0  0  0  1  0  0  0  0  0  0
  186.0170  177.6500  142.9300 C   0  0  0  0  0  2  0  0  0  0  0  0
  186.1770  179.1350  141.8980 S   0  0  0  0  0  0  0  0  0  0  0  0
  187.7570  178.5490  141.2050 C   0  0  0  0  0  2  0  0  0  0  0  0
  187.7530  178.4780  139.6670 C   0  0  2  0  0  3  0  0  0  0  0  0
  186.4580  178.3930  139.1500 O   0  0  0  0  0  1  0  0  0  0  0  0
  190.8500  176.3840  139.0980 C   0  0  0  0  0  2  0  0  0  0  0  0
  188.6170  177.4380  139.0920 N   0  0  0  0  0  0  0  0  0  0  0  0
  189.5860  176.6190  136.9330 C   0  0  2  0  0  3  0  0  0  0  0  0
  188.5420  177.5090  137.6250 C   0  0  0  0  0  2  0  0  0  0  0  0
  190.0070  177.5880  139.5330 C   0  0  0  0  0  2  0  0  0  0  0  0
  188.9380  175.8580  135.7970 C   0  0  0  0  0  1  0  0  0  0  0  0
  190.2400  175.6420  137.9070 C   0  0  0  0  0  2  0  0  0  0  0  0
  1  2  1  0  0  0  0
  2  5  2  0  0  0  0
  3  1  1  0  0  0  0
  4  7  2  0  0  0  0
  6  1  2  0  0  0  0
  6  4  1  0  0  0  0
  7  5  1  0  0  0  0
  8 10  1  0  0  0  0
  8  9  2  0  0  0  0
  9 13  1  0  0  0  0
 10 12  1  0  0  0  0
 12 14  2  0  0  0  0
 13 11  2  0  0  0  0
 13 17  1  0  0  0  0
 14  4  1  0  0  0  0
 14 11  1  0  0  0  0
 15 16  2  0  0  0  0
 16 18  1  0  0  0  0
 17 16  1  0  0  0  0
 19  6  1  0  0  0  0
 20 19  1  0  0  0  0
 21 20  1  0  0  0  0
 22 23  1  1  0  0  0
 22 21  1  0  0  0  0
 24 28  1  0  0  0  0
 25 28  1  0  0  0  0
 25 22  1  0  0  0  0
 26 29  1  6  0  0  0
 26 27  1  0  0  0  0
 26 30  1  0  0  0  0
 27 25  1  0  0  0  0
 30 24  1  0  0  0  0
M  END
>  <MODEL>
1

>  <REMARK>
 VINA RESULT:      -9.5      0.000      0.000
  Name = 
  7 active torsions:
  status: ('A' for Active; 'I' for Inactive)
    1  A    between atoms: S_1  and  C_4
    2  A    between atoms: S_1  and  C_5
    3  A    between atoms: C_4  and  C_27
    4  A    between atoms: C_5  and  C_22
    5  A    between atoms: N_8  and  C_27
    6  A    between atoms: N_16  and  C_25
    7  A    between atoms: C_19  and  C_29
                            x       y       z     vdW  Elec       q    Type
                         _______ _______ _______ _____ _____    ______ ____

>  <TORSDO>
F 7

$$$$
=
 OpenBabel10272413473D

 30 32  0  0  1  0  0  0  0  0999 V2000
  184.4030  178.6550  144.7160 C   0  0  0  0  0  0  0  0  0  0  0  0
  184.2120  178.8600  146.0450 N   0  0  0  0  0  0  0  0  0  0  0  0
  183.0910  179.0490  143.6120 Cl  0  0  0  0  0  0  0  0  0  0  0  0
  186.6440  177.8240  145.1850 C   0  0  0  0  0  0  0  0  0  0  0  0
  185.1700  178.5700  146.9600 C   0  0  0  0  0  3  0  0  0  0  0  0
  185.6250  178.1320  144.2480 C   0  0  0  0  0  0  0  0  0  0  0  0
  186.3940  178.0490  146.5480 C   0  0  0  0  0  3  0  0  0  0  0  0
  190.5660  177.0630  143.1860 C   0  0  0  0  0  3  0  0  0  0  0  0
  191.0040  177.4310  144.3890 C   0  0  0  0  0  3  0  0  0  0  0  0
  189.3620  176.2040  143.0030 C   0  0  0  0  0  2  0  0  0  0  0  0
  189.0090  177.0850  145.8240 C   0  0  0  0  0  3  0  0  0  0  0  0
  188.1360  176.8830  143.5140 C   0  0  0  0  0  3  0  0  0  0  0  0
  190.3420  177.1140  145.6760 C   0  0  0  0  0  0  0  0  0  0  0  0
  187.9660  177.2730  144.7850 C   0  0  0  0  0  0  0  0  0  0  0  0
  192.2830  175.0130  146.3760 O   0  0  0  0  0  0  0  0  0  0  0  0
  192.1160  175.9970  147.1450 C   0  0  0  0  0  0  0  0  0  0  0  0
  191.1260  176.9950  146.8700 N   0  0  0  0  0  2  0  0  0  0  0  0
  192.8860  176.1010  148.2950 O   0  0  0  0  0  1  0  0  0  0  0  0
  185.7890  177.8430  142.7870 C   0  0  0  0  0  2  0  0  0  0  0  0
  185.7960  179.3940  141.8420 S   0  0  0  0  0  0  0  0  0  0  0  0
  185.8330  178.4930  140.2590 C   0  0  0  0  0  2  0  0  0  0  0  0
  184.6250  178.8040  139.3580 C   0  0  2  0  0  3  0  0  0  0  0  0
  184.5070  180.1710  139.0940 O   0  0  0  0  0  1  0  0  0  0  0  0
  181.7010  176.4180  139.5930 C   0  0  0  0  0  2  0  0  0  0  0  0
  183.3470  178.2450  139.8180 N   0  0  0  0  0  0  0  0  0  0  0  0
  180.9080  178.7650  140.0450 C   0  0  2  0  0  3  0  0  0  0  0  0
  182.3270  179.3040  139.8040 C   0  0  0  0  0  2  0  0  0  0  0  0
  182.9180  177.1210  138.9800 C   0  0  0  0  0  2  0  0  0  0  0  0
  180.1850  179.6520  141.0370 C   0  0  0  0  0  1  0  0  0  0  0  0
  180.9210  177.3240  140.5490 C   0  0  0  0  0  2  0  0  0  0  0  0
  1  2  1  0  0  0  0
  2  5  2  0  0  0  0
  3  1  1  0  0  0  0
  4  7  2  0  0  0  0
  6  1  2  0  0  0  0
  6  4  1  0  0  0  0
  7  5  1  0  0  0  0
  8  9  2  0  0  0  0
  9 13  1  0  0  0  0
 10  8  1  0  0  0  0
 10 12  1  0  0  0  0
 12 14  2  0  0  0  0
 13 11  2  0  0  0  0
 13 17  1  0  0  0  0
 14  4  1  0  0  0  0
 14 11  1  0  0  0  0
 15 16  2  0  0  0  0
 16 18  1  0  0  0  0
 17 16  1  0  0  0  0
 19  6  1  0  0  0  0
 20 19  1  0  0  0  0
 21 20  1  0  0  0  0
 22 23  1  1  0  0  0
 22 25  1  0  0  0  0
 22 21  1  0  0  0  0
 24 30  1  0  0  0  0
 26 30  1  0  0  0  0
 26 29  1  1  0  0  0
 27 25  1  0  0  0  0
 27 26  1  0  0  0  0
 28 24  1  0  0  0  0
 28 25  1  0  0  0  0
M  END
>  <MODEL>
2

>  <REMARK>
 VINA RESULT:      -9.4      2.841      4.250
  Name = 
  7 active torsions:
  status: ('A' for Active; 'I' for Inactive)
    1  A    between atoms: S_1  and  C_4
    2  A    between atoms: S_1  and  C_5
    3  A    between atoms: C_4  and  C_27
    4  A    between atoms: C_5  and  C_22
    5  A    between atoms: N_8  and  C_27
    6  A    between atoms: N_16  and  C_25
    7  A    between atoms: C_19  and  C_29
                            x       y       z     vdW  Elec       q    Type
                         _______ _______ _______ _____ _____    ______ ____

>  <TORSDO>
F 7

$$$$
=
 OpenBabel10272413473D

 30 32  0  0  1  0  0  0  0  0999 V2000
  184.8130  178.2200  143.3340 C   0  0  0  0  0  0  0  0  0  0  0  0
  183.8060  178.6090  144.1590 N   0  0  0  0  0  0  0  0  0  0  0  0
  184.4520  177.9760  141.6300 Cl  0  0  0  0  0  0  0  0  0  0  0  0
  186.3390  178.2180  145.2320 C   0  0  0  0  0  0  0  0  0  0  0  0
  184.0020  178.8070  145.4860 C   0  0  0  0  0  3  0  0  0  0  0  0
  186.1090  178.0140  143.8480 C   0  0  0  0  0  0  0  0  0  0  0  0
  185.2630  178.6140  146.0420 C   0  0  0  0  0  3  0  0  0  0  0  0
  189.8370  176.6410  147.5200 C   0  0  0  0  0  3  0  0  0  0  0  0
  190.3280  176.5510  146.2860 C   0  0  0  0  0  3  0  0  0  0  0  0
  189.0070  177.7950  147.9680 C   0  0  0  0  0  2  0  0  0  0  0  0
  188.8870  178.1180  145.0110 C   0  0  0  0  0  3  0  0  0  0  0  0
  187.7350  177.8730  147.1910 C   0  0  0  0  0  3  0  0  0  0  0  0
  190.0700  177.5130  145.1890 C   0  0  0  0  0  0  0  0  0  0  0  0
  187.6730  178.0290  145.8620 C   0  0  0  0  0  0  0  0  0  0  0  0
  190.5710  175.8260  142.8280 O   0  0  0  0  0  1  0  0  0  0  0  0
  191.2170  176.8960  142.9850 C   0  0  0  0  0  0  0  0  0  0  0  0
  191.0500  177.6980  144.1600 N   0  0  0  0  0  2  0  0  0  0  0  0
  192.1270  177.2910  142.0140 O   0  0  0  0  0  0  0  0  0  0  0  0
  187.1880  177.5140  142.9370 C   0  0  0  0  0  2  0  0  0  0  0  0
  187.7720  178.8580  141.8650 S   0  0  0  0  0  0  0  0  0  0  0  0
  188.4470  177.6750  140.6560 C   0  0  0  0  0  2  0  0  0  0  0  0
  188.4430  178.2140  139.2140 C   0  0  2  0  0  3  0  0  0  0  0  0
  187.1470  178.3760  138.7200 O   0  0  0  0  0  1  0  0  0  0  0  0
  189.3550  175.6760  136.5640 C   0  0  0  0  0  2  0  0  0  0  0  0
  189.2770  177.4610  138.2670 N   0  0  0  0  0  0  0  0  0  0  0  0
  191.3070  176.0020  138.1200 C   0  0  2  0  0  3  0  0  0  0  0  0
  190.4870  176.9940  138.9610 C   0  0  0  0  0  2  0  0  0  0  0  0
  188.5510  176.3230  137.6980 C   0  0  0  0  0  2  0  0  0  0  0  0
  192.7760  176.3600  138.1960 C   0  0  0  0  0  1  0  0  0  0  0  0
  190.8530  175.9750  136.6630 C   0  0  0  0  0  2  0  0  0  0  0  0
  1  6  2  0  0  0  0
  1  2  1  0  0  0  0
  2  5  2  0  0  0  0
  3  1  1  0  0  0  0
  4 14  1  0  0  0  0
  4  7  2  0  0  0  0
  5  7  1  0  0  0  0
  6  4  1  0  0  0  0
  8 10  1  0  0  0  0
  9  8  2  0  0  0  0
 11 13  2  0  0  0  0
 11 14  1  0  0  0  0
 12 10  1  0  0  0  0
 13  9  1  0  0  0  0
 14 12  2  0  0  0  0
 15 16  1  0  0  0  0
 16 17  1  0  0  0  0
 17 13  1  0  0  0  0
 18 16  2  0  0  0  0
 19  6  1  0  0  0  0
 20 19  1  0  0  0  0
 21 20  1  0  0  0  0
 22 23  1  6  0  0  0
 22 21  1  0  0  0  0
 24 30  1  0  0  0  0
 24 28  1  0  0  0  0
 25 27  1  0  0  0  0
 25 22  1  0  0  0  0
 26 29  1  6  0  0  0
 26 27  1  0  0  0  0
 28 25  1  0  0  0  0
 30 26  1  0  0  0  0
M  END
>  <MODEL>
3

>  <REMARK>
 VINA RESULT:      -9.2      1.955      2.883
  Name = 
  7 active torsions:
  status: ('A' for Active; 'I' for Inactive)
    1  A    between atoms: S_1  and  C_4
    2  A    between atoms: S_1  and  C_5
    3  A    between atoms: C_4  and  C_27
    4  A    between atoms: C_5  and  C_22
    5  A    between atoms: N_8  and  C_27
    6  A    between atoms: N_16  and  C_25
    7  A    between atoms: C_19  and  C_29
                            x       y       z     vdW  Elec       q    Type
                         _______ _______ _______ _____ _____    ______ ____

>  <TORSDO>
F 7

$$$$
=
 OpenBabel10272413473D

 30 32  0  0  1  0  0  0  0  0999 V2000
  190.1110  176.9870  146.2350 C   0  0  0  0  0  0  0  0  0  0  0  0
  190.1550  177.3270  147.5500 N   0  0  0  0  0  0  0  0  0  0  0  0
  191.5480  176.2820  145.5050 Cl  0  0  0  0  0  0  0  0  0  0  0  0
  187.8130  177.7860  146.1250 C   0  0  0  0  0  0  0  0  0  0  0  0
  189.0930  177.8850  148.1810 C   0  0  0  0  0  3  0  0  0  0  0  0
  188.9390  177.2060  145.4860 C   0  0  0  0  0  0  0  0  0  0  0  0
  187.9120  178.1240  147.4830 C   0  0  0  0  0  3  0  0  0  0  0  0
  183.9550  179.5400  144.7130 C   0  0  0  0  0  3  0  0  0  0  0  0
  184.6810  179.6990  143.6090 C   0  0  0  0  0  3  0  0  0  0  0  0
  184.0480  178.3190  145.5610 C   0  0  0  0  0  2  0  0  0  0  0  0
  186.5260  178.0710  143.9310 C   0  0  0  0  0  3  0  0  0  0  0  0
  185.4140  178.1730  146.1430 C   0  0  0  0  0  3  0  0  0  0  0  0
  185.7090  178.7530  143.1150 C   0  0  0  0  0  0  0  0  0  0  0  0
  186.5330  178.0500  145.4160 C   0  0  0  0  0  0  0  0  0  0  0  0
  183.7980  178.8800  140.8790 O   0  0  0  0  0  1  0  0  0  0  0  0
  185.0340  178.8060  140.6470 C   0  0  0  0  0  0  0  0  0  0  0  0
  185.9820  178.6660  141.7110 N   0  0  0  0  0  2  0  0  0  0  0  0
  185.4830  178.8320  139.3340 O   0  0  0  0  0  0  0  0  0  0  0  0
  188.9340  176.8930  144.0200 C   0  0  0  0  0  2  0  0  0  0  0  0
  189.9540  178.0980  143.1230 S   0  0  0  0  0  0  0  0  0  0  0  0
  189.3690  177.4770  141.5140 C   0  0  0  0  0  2  0  0  0  0  0  0
  190.4980  176.8950  140.6430 C   0  0  2  0  0  3  0  0  0  0  0  0
  191.7170  177.5410  140.8660 O   0  0  0  0  0  1  0  0  0  0  0  0
  191.0590  176.3060  136.9500 C   0  0  0  0  0  2  0  0  0  0  0  0
  190.1980  176.8190  139.2070 N   0  0  0  0  0  0  0  0  0  0  0  0
  189.4060  178.1810  137.2600 C   0  0  2  0  0  3  0  0  0  0  0  0
  189.5470  178.0690  138.7870 C   0  0  0  0  0  2  0  0  0  0  0  0
  191.4100  176.5910  138.4150 C   0  0  0  0  0  2  0  0  0  0  0  0
  188.0170  178.6680  136.9090 C   0  0  0  0  0  1  0  0  0  0  0  0
  189.6820  176.8520  136.5620 C   0  0  0  0  0  2  0  0  0  0  0  0
  1  2  1  0  0  0  0
  2  5  2  0  0  0  0
  3  1  1  0  0  0  0
  4  7  2  0  0  0  0
  6  4  1  0  0  0  0
  6  1  2  0  0  0  0
  7  5  1  0  0  0  0
  8 10  1  0  0  0  0
  9  8  2  0  0  0  0
 10 12  1  0  0  0  0
 11 14  1  0  0  0  0
 13  9  1  0  0  0  0
 13 11  2  0  0  0  0
 14  4  1  0  0  0  0
 14 12  2  0  0  0  0
 16 15  1  0  0  0  0
 16 17  1  0  0  0  0
 17 13  1  0  0  0  0
 18 16  2  0  0  0  0
 19  6  1  0  0  0  0
 20 19  1  0  0  0  0
 21 20  1  0  0  0  0
 22 23  1  6  0  0  0
 22 21  1  0  0  0  0
 24 28  1  0  0  0  0
 25 22  1  0  0  0  0
 26 29  1  1  0  0  0
 26 27  1  0  0  0  0
 27 25  1  0  0  0  0
 28 25  1  0  0  0  0
 30 24  1  0  0  0  0
 30 26  1  0  0  0  0
M  END
>  <MODEL>
4

>  <REMARK>
 VINA RESULT:      -9.2      3.028      5.526
  Name = 
  7 active torsions:
  status: ('A' for Active; 'I' for Inactive)
    1  A    between atoms: S_1  and  C_4
    2  A    between atoms: S_1  and  C_5
    3  A    between atoms: C_4  and  C_27
    4  A    between atoms: C_5  and  C_22
    5  A    between atoms: N_8  and  C_27
    6  A    between atoms: N_16  and  C_25
    7  A    between atoms: C_19  and  C_29
                            x       y       z     vdW  Elec       q    Type
                         _______ _______ _______ _____ _____    ______ ____

>  <TORSDO>
F 7

$$$$
=
 OpenBabel10272413473D

 30 32  0  0  1  0  0  0  0  0999 V2000
  190.9870  177.4470  144.3440 C   0  0  0  0  0  0  0  0  0  0  0  0
  191.5730  176.9630  145.4700 N   0  0  0  0  0  0  0  0  0  0  0  0
  192.0000  177.7500  142.9380 Cl  0  0  0  0  0  0  0  0  0  0  0  0
  188.8360  177.4460  145.4860 C   0  0  0  0  0  0  0  0  0  0  0  0
  190.8630  176.7150  146.5980 C   0  0  0  0  0  3  0  0  0  0  0  0
  189.6020  177.7010  144.3200 C   0  0  0  0  0  0  0  0  0  0  0  0
  189.4910  176.9520  146.6250 C   0  0  0  0  0  3  0  0  0  0  0  0
  184.7800  179.1890  146.1660 C   0  0  0  0  0  3  0  0  0  0  0  0
  184.7890  179.1760  144.8350 C   0  0  0  0  0  3  0  0  0  0  0  0
  185.3510  178.0790  146.9800 C   0  0  0  0  0  2  0  0  0  0  0  0
  186.5600  177.5170  144.3190 C   0  0  0  0  0  3  0  0  0  0  0  0
  186.8180  177.9440  146.7460 C   0  0  0  0  0  3  0  0  0  0  0  0
  185.4120  178.1290  143.9930 C   0  0  0  0  0  0  0  0  0  0  0  0
  187.3690  177.6800  145.5530 C   0  0  0  0  0  0  0  0  0  0  0  0
  185.5480  179.8180  141.5840 O   0  0  0  0  0  1  0  0  0  0  0  0
  185.0330  178.6700  141.5190 C   0  0  0  0  0  0  0  0  0  0  0  0
  184.8840  177.8560  142.6880 N   0  0  0  0  0  2  0  0  0  0  0  0
  184.5770  178.1960  140.2970 O   0  0  0  0  0  0  0  0  0  0  0  0
  188.9860  178.3040  143.0940 C   0  0  0  0  0  2  0  0  0  0  0  0
  189.0650  177.1260  141.7140 S   0  0  0  0  0  0  0  0  0  0  0  0
  188.5110  178.3930  140.5280 C   0  0  0  0  0  2  0  0  0  0  0  0
  188.9290  178.0880  139.0780 C   0  0  2  0  0  3  0  0  0  0  0  0
  189.0280  179.2490  138.3070 O   0  0  0  0  0  1  0  0  0  0  0  0
  188.1000  175.1110  136.8990 C   0  0  0  0  0  2  0  0  0  0  0  0
  188.1130  177.0730  138.3980 N   0  0  0  0  0  0  0  0  0  0  0  0
  186.2270  176.7900  136.7750 C   0  0  2  0  0  3  0  0  0  0  0  0
  187.0000  177.7390  137.7050 C   0  0  0  0  0  2  0  0  0  0  0  0
  188.9080  176.2950  137.4430 C   0  0  0  0  0  2  0  0  0  0  0  0
  184.7390  176.9900  136.9610 C   0  0  0  0  0  1  0  0  0  0  0  0
  186.5900  175.3270  137.0210 C   0  0  0  0  0  2  0  0  0  0  0  0
  1  2  1  0  0  0  0
  2  5  2  0  0  0  0
  3  1  1  0  0  0  0
  4 14  1  0  0  0  0
  4  7  2  0  0  0  0
  5  7  1  0  0  0  0
  6  1  2  0  0  0  0
  6  4  1  0  0  0  0
  8 10  1  0  0  0  0
  9  8  2  0  0  0  0
 11 14  1  0  0  0  0
 12 10  1  0  0  0  0
 13 11  2  0  0  0  0
 13  9  1  0  0  0  0
 14 12  2  0  0  0  0
 16 15  1  0  0  0  0
 16 17  1  0  0  0  0
 17 13  1  0  0  0  0
 18 16  2  0  0  0  0
 19  6  1  0  0  0  0
 20 19  1  0  0  0  0
 21 20  1  0  0  0  0
 22 23  1  6  0  0  0
 22 21  1  0  0  0  0
 24 30  1  0  0  0  0
 24 28  1  0  0  0  0
 25 22  1  0  0  0  0
 26 29  1  1  0  0  0
 26 30  1  0  0  0  0
 26 27  1  0  0  0  0
 27 25  1  0  0  0  0
 28 25  1  0  0  0  0
M  END
>  <MODEL>
5

>  <REMARK>
 VINA RESULT:      -9.1      3.430      5.496
  Name = 
  7 active torsions:
  status: ('A' for Active; 'I' for Inactive)
    1  A    between atoms: S_1  and  C_4
    2  A    between atoms: S_1  and  C_5
    3  A    between atoms: C_4  and  C_27
    4  A    between atoms: C_5  and  C_22
    5  A    between atoms: N_8  and  C_27
    6  A    between atoms: N_16  and  C_25
    7  A    between atoms: C_19  and  C_29
                            x       y       z     vdW  Elec       q    Type
                         _______ _______ _______ _____ _____    ______ ____

>  <TORSDO>
F 7

$$$$
=
 OpenBabel10272413473D

 30 32  0  0  1  0  0  0  0  0999 V2000
  184.5820  178.5650  144.8940 C   0  0  0  0  0  0  0  0  0  0  0  0
  184.4640  178.8430  146.2190 N   0  0  0  0  0  0  0  0  0  0  0  0
  183.2000  178.8710  143.8490 Cl  0  0  0  0  0  0  0  0  0  0  0  0
  186.8640  177.8040  145.2760 C   0  0  0  0  0  0  0  0  0  0  0  0
  185.4800  178.6240  147.0900 C   0  0  0  0  0  3  0  0  0  0  0  0
  185.7850  178.0390  144.3850 C   0  0  0  0  0  0  0  0  0  0  0  0
  186.6880  178.1020  146.6360 C   0  0  0  0  0  3  0  0  0  0  0  0
  190.7290  177.0680  143.1620 C   0  0  0  0  0  3  0  0  0  0  0  0
  191.2000  177.4050  144.3600 C   0  0  0  0  0  3  0  0  0  0  0  0
  189.5160  176.2200  142.9890 C   0  0  0  0  0  2  0  0  0  0  0  0
  189.2400  177.0380  145.8380 C   0  0  0  0  0  3  0  0  0  0  0  0
  188.3080  176.8930  143.5460 C   0  0  0  0  0  3  0  0  0  0  0  0
  190.5690  177.0630  145.6560 C   0  0  0  0  0  0  0  0  0  0  0  0
  188.1720  177.2550  144.8300 C   0  0  0  0  0  0  0  0  0  0  0  0
  192.3570  174.8300  146.3540 O   0  0  0  0  0  0  0  0  0  0  0  0
  192.2970  175.8440  147.0990 C   0  0  0  0  0  0  0  0  0  0  0  0
  191.3820  176.9120  146.8270 N   0  0  0  0  0  2  0  0  0  0  0  0
  193.1130  175.9160  148.2190 O   0  0  0  0  0  1  0  0  0  0  0  0
  185.8710  177.6700  142.9350 C   0  0  0  0  0  2  0  0  0  0  0  0
  185.9630  179.1690  141.9150 S   0  0  0  0  0  0  0  0  0  0  0  0
  184.8200  178.4660  140.6820 C   0  0  0  0  0  2  0  0  0  0  0  0
  184.9170  179.1530  139.3080 C   0  0  2  0  0  3  0  0  0  0  0  0
  184.1070  180.2880  139.2320 O   0  0  0  0  0  1  0  0  0  0  0  0
  183.3550  176.4220  137.2100 C   0  0  0  0  0  2  0  0  0  0  0  0
  184.6930  178.2690  138.1550 N   0  0  0  0  0  0  0  0  0  0  0  0
  185.8150  176.5730  136.6940 C   0  0  2  0  0  3  0  0  0  0  0  0
  185.9780  177.6880  137.7400 C   0  0  0  0  0  2  0  0  0  0  0  0
  183.7370  177.2040  138.4720 C   0  0  0  0  0  2  0  0  0  0  0  0
  186.8320  176.7560  135.5880 C   0  0  0  0  0  1  0  0  0  0  0  0
  184.4070  176.5440  136.1050 C   0  0  0  0  0  2  0  0  0  0  0  0
  1  2  1  0  0  0  0
  2  5  2  0  0  0  0
  3  1  1  0  0  0  0
  4  7  2  0  0  0  0
  6  1  2  0  0  0  0
  6  4  1  0  0  0  0
  7  5  1  0  0  0  0
  8  9  2  0  0  0  0
  9 13  1  0  0  0  0
 10  8  1  0  0  0  0
 10 12  1  0  0  0  0
 12 14  2  0  0  0  0
 13 11  2  0  0  0  0
 13 17  1  0  0  0  0
 14  4  1  0  0  0  0
 14 11  1  0  0  0  0
 15 16  2  0  0  0  0
 16 18  1  0  0  0  0
 17 16  1  0  0  0  0
 19  6  1  0  0  0  0
 20 19  1  0  0  0  0
 21 20  1  0  0  0  0
 22 23  1  1  0  0  0
 22 21  1  0  0  0  0
 24 28  1  0  0  0  0
 25 28  1  0  0  0  0
 25 22  1  0  0  0  0
 26 29  1  6  0  0  0
 26 27  1  0  0  0  0
 27 25  1  0  0  0  0
 30 26  1  0  0  0  0
 30 24  1  0  0  0  0
M  END
>  <MODEL>
6

>  <REMARK>
 VINA RESULT:      -9.1      2.119      2.659
  Name = 
  7 active torsions:
  status: ('A' for Active; 'I' for Inactive)
    1  A    between atoms: S_1  and  C_4
    2  A    between atoms: S_1  and  C_5
    3  A    between atoms: C_4  and  C_27
    4  A    between atoms: C_5  and  C_22
    5  A    between atoms: N_8  and  C_27
    6  A    between atoms: N_16  and  C_25
    7  A    between atoms: C_19  and  C_29
                            x       y       z     vdW  Elec       q    Type
                         _______ _______ _______ _____ _____    ______ ____

>  <TORSDO>
F 7

$$$$
=
 OpenBabel10272413473D

 30 32  0  0  1  0  0  0  0  0999 V2000
  190.6100  176.6930  144.6780 C   0  0  0  0  0  0  0  0  0  0  0  0
  191.1610  176.8610  145.9080 N   0  0  0  0  0  0  0  0  0  0  0  0
  191.6510  176.1680  143.3600 Cl  0  0  0  0  0  0  0  0  0  0  0  0
  188.4500  177.3740  145.5730 C   0  0  0  0  0  0  0  0  0  0  0  0
  190.4280  177.2750  146.9710 C   0  0  0  0  0  3  0  0  0  0  0  0
  189.2390  176.9440  144.4750 C   0  0  0  0  0  0  0  0  0  0  0  0
  189.0690  177.5380  146.8220 C   0  0  0  0  0  3  0  0  0  0  0  0
  184.3990  179.2460  145.7690 C   0  0  0  0  0  3  0  0  0  0  0  0
  184.5810  179.2630  144.4500 C   0  0  0  0  0  3  0  0  0  0  0  0
  184.8230  178.0980  146.6190 C   0  0  0  0  0  2  0  0  0  0  0  0
  186.3490  177.5530  144.1220 C   0  0  0  0  0  3  0  0  0  0  0  0
  186.3020  177.9150  146.5730 C   0  0  0  0  0  3  0  0  0  0  0  0
  185.2740  178.2140  143.6670 C   0  0  0  0  0  0  0  0  0  0  0  0
  186.9950  177.6590  145.4550 C   0  0  0  0  0  0  0  0  0  0  0  0
  186.0140  179.8070  141.3050 O   0  0  0  0  0  1  0  0  0  0  0  0
  185.3520  178.7450  141.1640 C   0  0  0  0  0  0  0  0  0  0  0  0
  184.9120  177.9890  142.2990 N   0  0  0  0  0  2  0  0  0  0  0  0
  185.0180  178.3140  139.8880 O   0  0  0  0  0  0  0  0  0  0  0  0
  188.6660  176.8240  143.0960 C   0  0  0  0  0  2  0  0  0  0  0  0
  189.1280  178.2720  142.1010 S   0  0  0  0  0  0  0  0  0  0  0  0
  189.0570  177.3040  140.5600 C   0  0  0  0  0  2  0  0  0  0  0  0
  189.3550  178.1440  139.3050 C   0  0  2  0  0  3  0  0  0  0  0  0
  188.2110  178.7800  138.8160 O   0  0  0  0  0  1  0  0  0  0  0  0
  189.8500  175.9250  136.2830 C   0  0  0  0  0  2  0  0  0  0  0  0
  190.0580  177.4280  138.2310 N   0  0  0  0  0  0  0  0  0  0  0  0
  191.8470  175.7290  137.8060 C   0  0  2  0  0  3  0  0  0  0  0  0
  191.1920  176.6920  138.8090 C   0  0  0  0  0  2  0  0  0  0  0  0
  189.1640  176.5050  137.5260 C   0  0  0  0  0  2  0  0  0  0  0  0
  193.3530  175.8550  137.8830 C   0  0  0  0  0  1  0  0  0  0  0  0
  191.3770  175.9860  136.3760 C   0  0  0  0  0  2  0  0  0  0  0  0
  1  2  1  0  0  0  0
  2  5  2  0  0  0  0
  3  1  1  0  0  0  0
  4  7  2  0  0  0  0
  6  1  2  0  0  0  0
  6  4  1  0  0  0  0
  7  5  1  0  0  0  0
  8 10  1  0  0  0  0
  9  8  2  0  0  0  0
 11 14  1  0  0  0  0
 12 10  1  0  0  0  0
 13 11  2  0  0  0  0
 13  9  1  0  0  0  0
 14  4  1  0  0  0  0
 14 12  2  0  0  0  0
 16 15  1  0  0  0  0
 16 17  1  0  0  0  0
 17 13  1  0  0  0  0
 18 16  2  0  0  0  0
 19  6  1  0  0  0  0
 20 19  1  0  0  0  0
 21 20  1  0  0  0  0
 22 23  1  6  0  0  0
 22 21  1  0  0  0  0
 24 30  1  0  0  0  0
 24 28  1  0  0  0  0
 25 27  1  0  0  0  0
 25 22  1  0  0  0  0
 26 29  1  6  0  0  0
 26 27  1  0  0  0  0
 28 25  1  0  0  0  0
 30 26  1  0  0  0  0
M  END
>  <MODEL>
7

>  <REMARK>
 VINA RESULT:      -9.0      3.362      5.436
  Name = 
  7 active torsions:
  status: ('A' for Active; 'I' for Inactive)
    1  A    between atoms: S_1  and  C_4
    2  A    between atoms: S_1  and  C_5
    3  A    between atoms: C_4  and  C_27
    4  A    between atoms: C_5  and  C_22
    5  A    between atoms: N_8  and  C_27
    6  A    between atoms: N_16  and  C_25
    7  A    between atoms: C_19  and  C_29
                            x       y       z     vdW  Elec       q    Type
                         _______ _______ _______ _____ _____    ______ ____

>  <TORSDO>
F 7

$$$$
=
 OpenBabel10272413473D

 30 32  0  0  1  0  0  0  0  0999 V2000
  188.9580  178.3370  139.4600 C   0  0  0  0  0  0  0  0  0  0  0  0
  188.5720  179.0880  138.3960 N   0  0  0  0  0  0  0  0  0  0  0  0
  188.3820  178.7910  141.0590 Cl  0  0  0  0  0  0  0  0  0  0  0  0
  190.2460  176.9130  137.9620 C   0  0  0  0  0  0  0  0  0  0  0  0
  188.9830  178.8090  137.1350 C   0  0  0  0  0  3  0  0  0  0  0  0
  189.8060  177.2270  139.2730 C   0  0  0  0  0  0  0  0  0  0  0  0
  189.8230  177.7250  136.8980 C   0  0  0  0  0  3  0  0  0  0  0  0
  192.6140  173.7040  135.9480 C   0  0  0  0  0  3  0  0  0  0  0  0
  193.6130  174.4490  136.4150 C   0  0  0  0  0  3  0  0  0  0  0  0
  191.3730  173.4490  136.7330 C   0  0  0  0  0  2  0  0  0  0  0  0
  192.5190  175.7630  138.2130 C   0  0  0  0  0  3  0  0  0  0  0  0
  190.6330  174.7180  136.9920 C   0  0  0  0  0  3  0  0  0  0  0  0
  193.6120  175.1720  137.7080 C   0  0  0  0  0  0  0  0  0  0  0  0
  191.1380  175.7600  137.6670 C   0  0  0  0  0  0  0  0  0  0  0  0
  195.3590  173.2200  139.0510 O   0  0  0  0  0  0  0  0  0  0  0  0
  195.7100  174.4270  138.9710 C   0  0  0  0  0  0  0  0  0  0  0  0
  194.8480  175.4130  138.3910 N   0  0  0  0  0  2  0  0  0  0  0  0
  196.9430  174.8130  139.4770 O   0  0  0  0  0  1  0  0  0  0  0  0
  190.2810  176.4550  140.4660 C   0  0  0  0  0  2  0  0  0  0  0  0
  191.6680  177.3200  141.2560 S   0  0  0  0  0  0  0  0  0  0  0  0
  191.0130  176.9690  142.9180 C   0  0  0  0  0  2  0  0  0  0  0  0
  190.7800  178.2380  143.7570 C   0  0  2  0  0  3  0  0  0  0  0  0
  191.9790  178.8690  144.0970 O   0  0  0  0  0  1  0  0  0  0  0  0
  189.6720  176.9540  147.1370 C   0  0  0  0  0  2  0  0  0  0  0  0
  189.9290  178.0530  144.9410 N   0  0  0  0  0  0  0  0  0  0  0  0
  187.6560  177.2900  145.6640 C   0  0  2  0  0  3  0  0  0  0  0  0
  188.5630  177.7300  144.5040 C   0  0  0  0  0  2  0  0  0  0  0  0
  190.4430  176.9930  145.8130 C   0  0  0  0  0  2  0  0  0  0  0  0
  186.3130  177.9790  145.5540 C   0  0  0  0  0  1  0  0  0  0  0  0
  188.2830  177.5890  147.0240 C   0  0  0  0  0  2  0  0  0  0  0  0
  1  3  1  0  0  0  0
  2  1  2  0  0  0  0
  4  6  2  0  0  0  0
  5  2  1  0  0  0  0
  6  1  1  0  0  0  0
  6 19  1  0  0  0  0
  7  5  2  0  0  0  0
  7  4  1  0  0  0  0
  8  9  2  0  0  0  0
  8 10  1  0  0  0  0
  9 13  1  0  0  0  0
 10 12  1  0  0  0  0
 12 14  2  0  0  0  0
 13 11  2  0  0  0  0
 13 17  1  0  0  0  0
 14  4  1  0  0  0  0
 14 11  1  0  0  0  0
 16 15  2  0  0  0  0
 16 18  1  0  0  0  0
 17 16  1  0  0  0  0
 19 20  1  0  0  0  0
 20 21  1  0  0  0  0
 21 22  1  0  0  0  0
 22 23  1  1  0  0  0
 22 25  1  0  0  0  0
 25 28  1  0  0  0  0
 26 29  1  1  0  0  0
 26 30  1  0  0  0  0
 27 25  1  0  0  0  0
 27 26  1  0  0  0  0
 28 24  1  0  0  0  0
 30 24  1  0  0  0  0
M  END
>  <MODEL>
8

>  <REMARK>
 VINA RESULT:      -9.0      3.776      7.965
  Name = 
  7 active torsions:
  status: ('A' for Active; 'I' for Inactive)
    1  A    between atoms: S_1  and  C_4
    2  A    between atoms: S_1  and  C_5
    3  A    between atoms: C_4  and  C_27
    4  A    between atoms: C_5  and  C_22
    5  A    between atoms: N_8  and  C_27
    6  A    between atoms: N_16  and  C_25
    7  A    between atoms: C_19  and  C_29
                            x       y       z     vdW  Elec       q    Type
                         _______ _______ _______ _____ _____    ______ ____

>  <TORSDO>
F 7

$$$$
=
 OpenBabel10272413473D

 30 32  0  0  1  0  0  0  0  0999 V2000
  184.6810  178.3170  143.0230 C   0  0  0  0  0  0  0  0  0  0  0  0
  183.6040  178.7800  143.7080 N   0  0  0  0  0  0  0  0  0  0  0  0
  184.5100  178.0150  141.2980 Cl  0  0  0  0  0  0  0  0  0  0  0  0
  185.9750  178.3340  145.0860 C   0  0  0  0  0  0  0  0  0  0  0  0
  183.6530  179.0260  145.0400 C   0  0  0  0  0  3  0  0  0  0  0  0
  185.8980  178.0810  143.6920 C   0  0  0  0  0  0  0  0  0  0  0  0
  184.8320  178.8060  145.7480 C   0  0  0  0  0  3  0  0  0  0  0  0
  189.1000  176.7280  147.8460 C   0  0  0  0  0  3  0  0  0  0  0  0
  189.7210  176.5400  146.6840 C   0  0  0  0  0  3  0  0  0  0  0  0
  188.2900  177.9460  148.1310 C   0  0  0  0  0  2  0  0  0  0  0  0
  188.5220  178.0950  145.1670 C   0  0  0  0  0  3  0  0  0  0  0  0
  187.1200  178.0400  147.2100 C   0  0  0  0  0  3  0  0  0  0  0  0
  189.6430  177.4450  145.5140 C   0  0  0  0  0  0  0  0  0  0  0  0
  187.2170  178.1180  145.8750 C   0  0  0  0  0  0  0  0  0  0  0  0
  190.1950  175.7190  143.1930 O   0  0  0  0  0  1  0  0  0  0  0  0
  190.9390  176.7070  143.4330 C   0  0  0  0  0  0  0  0  0  0  0  0
  190.7410  177.5190  144.5960 N   0  0  0  0  0  2  0  0  0  0  0  0
  191.9860  176.9980  142.5700 O   0  0  0  0  0  0  0  0  0  0  0  0
  187.0530  177.4990  142.9350 C   0  0  0  0  0  2  0  0  0  0  0  0
  187.7550  178.7450  141.8160 S   0  0  0  0  0  0  0  0  0  0  0  0
  188.4810  177.4590  140.7500 C   0  0  0  0  0  2  0  0  0  0  0  0
  189.3110  178.0340  139.5880 C   0  0  2  0  0  3  0  0  0  0  0  0
  188.6110  179.0120  138.8780 O   0  0  0  0  0  1  0  0  0  0  0  0
  191.8620  175.6770  138.0930 C   0  0  0  0  0  2  0  0  0  0  0  0
  189.8830  177.0310  138.6780 N   0  0  0  0  0  0  0  0  0  0  0  0
  190.3850  176.5830  136.2670 C   0  0  2  0  0  3  0  0  0  0  0  0
  189.6260  177.4430  137.2900 C   0  0  0  0  0  2  0  0  0  0  0  0
  191.3230  176.8660  138.8970 C   0  0  0  0  0  2  0  0  0  0  0  0
  189.4600  176.2060  135.1290 C   0  0  0  0  0  1  0  0  0  0  0  0
  190.9710  175.3240  136.9000 C   0  0  0  0  0  2  0  0  0  0  0  0
  1  6  2  0  0  0  0
  1  2  1  0  0  0  0
  2  5  2  0  0  0  0
  3  1  1  0  0  0  0
  4  7  2  0  0  0  0
  4 14  1  0  0  0  0
  5  7  1  0  0  0  0
  6  4  1  0  0  0  0
  8 10  1  0  0  0  0
  9  8  2  0  0  0  0
 11 13  2  0  0  0  0
 11 14  1  0  0  0  0
 12 10  1  0  0  0  0
 13  9  1  0  0  0  0
 14 12  2  0  0  0  0
 15 16  1  0  0  0  0
 16 17  1  0  0  0  0
 17 13  1  0  0  0  0
 18 16  2  0  0  0  0
 19  6  1  0  0  0  0
 20 19  1  0  0  0  0
 21 20  1  0  0  0  0
 22 23  1  6  0  0  0
 22 21  1  0  0  0  0
 24 28  1  0  0  0  0
 25 28  1  0  0  0  0
 25 22  1  0  0  0  0
 26 29  1  6  0  0  0
 26 30  1  0  0  0  0
 26 27  1  0  0  0  0
 27 25  1  0  0  0  0
 30 24  1  0  0  0  0
M  END
>  <MODEL>
9

>  <REMARK>
 VINA RESULT:      -9.0      1.983      2.758
  Name = 
  7 active torsions:
  status: ('A' for Active; 'I' for Inactive)
    1  A    between atoms: S_1  and  C_4
    2  A    between atoms: S_1  and  C_5
    3  A    between atoms: C_4  and  C_27
    4  A    between atoms: C_5  and  C_22
    5  A    between atoms: N_8  and  C_27
    6  A    between atoms: N_16  and  C_25
    7  A    between atoms: C_19  and  C_29
                            x       y       z     vdW  Elec       q    Type
                         _______ _______ _______ _____ _____    ______ ____

>  <TORSDO>
F 7

$$$$
