=
 OpenBabel10272413563D

 30 33  0  0  1  0  0  0  0  0999 V2000
  185.0850  178.3560  138.4570 C   0  0  0  0  0  3  0  0  0  0  0  0
  186.5600  178.2530  138.1220 C   0  0  0  0  0  0  0  0  0  0  0  0
  185.4970  178.7350  143.3340 C   0  0  0  0  0  2  0  0  0  0  0  0
  183.3590  178.5550  140.3130 C   0  0  0  0  0  0  0  0  0  0  0  0
  184.3790  178.5350  144.3660 C   0  0  0  0  0  2  0  0  0  0  0  0
  187.5090  178.3100  139.3200 C   0  0  0  0  0  0  0  0  0  0  0  0
  186.8900  179.2400  137.2110 F   0  0  0  0  0  0  0  0  0  0  0  0
  184.9540  178.5490  141.9530 C   0  0  0  0  0  0  0  0  0  0  0  0
  188.9740  178.2260  139.0800 C   0  0  0  0  0  1  0  0  0  0  0  0
  184.6940  178.4370  139.7250 C   0  0  0  0  0  0  0  0  0  0  0  0
  183.5280  178.6510  141.6360 C   0  0  2  0  0  3  0  0  0  0  0  0
  183.1230  179.3370  143.9950 C   0  0  0  0  0  2  0  0  0  0  0  0
  182.4850  178.8190  142.6970 C   0  0  0  0  0  2  0  0  0  0  0  0
  187.0720  178.3890  140.5860 C   0  0  0  0  0  3  0  0  0  0  0  0
  185.6300  178.4420  140.8200 C   0  0  0  0  0  0  0  0  0  0  0  0
  180.2390  177.4110  138.9600 O   0  0  0  0  0  0  0  0  0  0  0  0
  181.4970  177.5080  138.9750 C   0  0  0  0  0  0  0  0  0  0  0  0
  182.1130  178.6500  139.5990 N   0  0  0  0  0  0  0  0  0  0  0  0
  182.8330  175.4830  138.9420 N   0  0  0  0  0  0  0  0  0  0  0  0
  182.5440  176.4320  136.9070 N   0  0  0  0  0  2  0  0  0  0  0  0
  182.3020  176.4690  138.3080 C   0  0  0  0  0  0  0  0  0  0  0  0
  183.5080  174.6730  138.0270 N   0  0  0  0  0  0  0  0  0  0  0  0
  183.3560  175.2420  136.6960 C   0  0  0  0  0  3  0  0  0  0  0  0
  181.4290  179.9360  139.5500 C   0  0  0  0  0  2  0  0  0  0  0  0
  181.6350  180.5870  138.1920 C   0  0  0  0  0  2  0  0  0  0  0  0
  181.6160  182.0980  138.3280 C   0  0  0  0  0  2  0  0  0  0  0  0
  181.0600  182.6960  137.1240 N   0  0  0  0  0  2  0  0  0  0  0  0
  182.1160  184.7560  137.4400 O   0  0  0  0  0  0  0  0  0  0  0  0
  181.3550  184.0370  136.7390 C   0  0  0  0  0  0  0  0  0  0  0  0
  180.7570  184.5930  135.4970 C   0  0  0  0  0  1  0  0  0  0  0  0
  1 10  1  0  0  0  0
  2  1  2  0  0  0  0
  2  6  1  0  0  0  0
  3  5  1  0  0  0  0
  4 11  1  0  0  0  0
  6 14  2  0  0  0  0
  7  2  1  0  0  0  0
  8  3  1  0  0  0  0
  9  6  1  0  0  0  0
 10  4  2  0  0  0  0
 10 15  1  0  0  0  0
 11  8  1  0  0  0  0
 11 13  1  1  0  0  0
 12  5  1  0  0  0  0
 13 12  1  0  0  0  0
 14 15  1  0  0  0  0
 15  8  2  0  0  0  0
 16 17  2  0  0  0  0
 17 18  1  0  0  0  0
 18  4  1  0  0  0  0
 20 21  1  0  0  0  0
 21 19  2  0  0  0  0
 21 17  1  0  0  0  0
 22 19  1  0  0  0  0
 23 20  1  0  0  0  0
 23 22  2  0  0  0  0
 24 18  1  0  0  0  0
 25 26  1  0  0  0  0
 25 24  1  0  0  0  0
 27 26  1  0  0  0  0
 29 27  1  0  0  0  0
 29 28  2  0  0  0  0
 30 29  1  0  0  0  0
M  END
>  <MODEL>
1

>  <REMARK>
 VINA RESULT:      -6.7      0.000      0.000
  Name = 
  6 active torsions:
  status: ('A' for Active; 'I' for Inactive)
    1  A    between atoms: C_4  and  N_13
    2  A    between atoms: N_7  and  C_16
    3  A    between atoms: C_8  and  C_12
    4  A    between atoms: N_13  and  C_27
    5  A    between atoms: C_16  and  C_30
    6  A    between atoms: C_27  and  C_30
                            x       y       z     vdW  Elec       q    Type
                         _______ _______ _______ _____ _____    ______ ____

>  <TORSDO>
F 6

$$$$
=
 OpenBabel10272413563D

 30 33  0  0  1  0  0  0  0  0999 V2000
  189.1380  176.9890  145.1400 C   0  0  0  0  0  3  0  0  0  0  0  0
  189.1910  176.9760  146.6560 C   0  0  2  0  0  3  0  0  0  0  0  0
  184.6290  178.8550  144.6120 C   0  0  0  0  0  2  0  0  0  0  0  0
  187.7310  177.5170  143.0900 C   0  0  0  0  0  0  0  0  0  0  0  0
  183.7720  178.8350  143.3390 C   0  0  0  0  0  2  0  0  0  0  0  0
  187.9410  177.5050  147.3590 C   0  0  0  0  0  0  0  0  0  0  0  0
  190.3050  177.6790  147.0790 F   0  0  0  0  0  0  0  0  0  0  0  0
  185.9460  178.1990  144.3500 C   0  0  0  0  0  0  0  0  0  0  0  0
  187.9120  177.5370  148.8460 C   0  0  0  0  0  1  0  0  0  0  0  0
  188.0370  177.3960  144.5160 C   0  0  0  0  0  0  0  0  0  0  0  0
  186.4960  178.0240  143.0040 C   0  0  0  0  0  0  0  0  0  0  0  0
  184.5670  179.3270  142.1200 C   0  0  0  0  0  2  0  0  0  0  0  0
  185.7170  178.3700  141.7720 C   0  0  0  0  0  2  0  0  0  0  0  0
  186.8490  177.9040  146.6900 C   0  0  0  0  0  3  0  0  0  0  0  0
  186.8690  177.8440  145.2300 C   0  0  0  0  0  0  0  0  0  0  0  0
  190.6940  176.2920  141.4800 O   0  0  0  0  0  0  0  0  0  0  0  0
  190.0460  177.1230  142.1740 C   0  0  0  0  0  0  0  0  0  0  0  0
  188.6220  177.2380  141.9950 N   0  0  0  0  0  0  0  0  0  0  0  0
  191.7550  177.5700  143.8370 N   0  0  0  0  0  0  0  0  0  0  0  0
  190.4940  179.3730  143.3000 N   0  0  0  0  0  2  0  0  0  0  0  0
  190.7750  177.9900  143.1160 C   0  0  0  0  0  0  0  0  0  0  0  0
  192.2370  178.6330  144.6010 N   0  0  0  0  0  0  0  0  0  0  0  0
  191.4570  179.8230  144.2950 C   0  0  0  0  0  3  0  0  0  0  0  0
  188.0560  177.0160  140.6700 C   0  0  0  0  0  2  0  0  0  0  0  0
  188.6000  178.0420  139.6900 C   0  0  0  0  0  2  0  0  0  0  0  0
  188.9270  177.3770  138.3660 C   0  0  0  0  0  2  0  0  0  0  0  0
  190.3590  177.4490  138.1170 N   0  0  0  0  0  2  0  0  0  0  0  0
  190.6930  175.1450  138.3160 O   0  0  0  0  0  0  0  0  0  0  0  0
  191.1850  176.2860  138.1070 C   0  0  0  0  0  0  0  0  0  0  0  0
  192.6420  176.4220  137.8480 C   0  0  0  0  0  1  0  0  0  0  0  0
  1  2  1  0  0  0  0
  2  7  1  6  0  0  0
  2  6  1  0  0  0  0
  4 10  1  0  0  0  0
  5  3  1  0  0  0  0
  6  9  1  0  0  0  0
  8  3  1  0  0  0  0
  8 15  2  0  0  0  0
 10  1  2  0  0  0  0
 10 15  1  0  0  0  0
 11  4  2  0  0  0  0
 11  8  1  0  0  0  0
 12  5  1  0  0  0  0
 13 12  1  0  0  0  0
 13 11  1  0  0  0  0
 14  6  2  0  0  0  0
 15 14  1  0  0  0  0
 16 17  2  0  0  0  0
 17 21  1  0  0  0  0
 18 17  1  0  0  0  0
 18  4  1  0  0  0  0
 19 22  1  0  0  0  0
 20 23  1  0  0  0  0
 21 20  1  0  0  0  0
 21 19  2  0  0  0  0
 23 22  2  0  0  0  0
 24 18  1  0  0  0  0
 25 24  1  0  0  0  0
 26 25  1  0  0  0  0
 27 26  1  0  0  0  0
 29 27  1  0  0  0  0
 29 28  2  0  0  0  0
 30 29  1  0  0  0  0
M  END
>  <MODEL>
2

>  <REMARK>
 VINA RESULT:      -6.5      5.936      8.694
  Name = 
  6 active torsions:
  status: ('A' for Active; 'I' for Inactive)
    1  A    between atoms: C_4  and  N_13
    2  A    between atoms: N_7  and  C_16
    3  A    between atoms: C_8  and  C_12
    4  A    between atoms: N_13  and  C_27
    5  A    between atoms: C_16  and  C_30
    6  A    between atoms: C_27  and  C_30
                            x       y       z     vdW  Elec       q    Type
                         _______ _______ _______ _____ _____    ______ ____

>  <TORSDO>
F 6

$$$$
=
 OpenBabel10272413563D

 30 33  0  0  1  0  0  0  0  0999 V2000
  189.1750  176.9900  144.9510 C   0  0  0  0  0  3  0  0  0  0  0  0
  189.2050  176.9080  146.4650 C   0  0  2  0  0  3  0  0  0  0  0  0
  184.6160  178.7350  144.4350 C   0  0  0  0  0  2  0  0  0  0  0  0
  187.7820  177.5690  142.9050 C   0  0  0  0  0  0  0  0  0  0  0  0
  183.7790  178.7470  143.1480 C   0  0  0  0  0  2  0  0  0  0  0  0
  187.9270  177.3640  147.1720 C   0  0  0  0  0  0  0  0  0  0  0  0
  190.2890  177.6250  146.9390 F   0  0  0  0  0  0  0  0  0  0  0  0
  185.9570  178.1340  144.1650 C   0  0  0  0  0  0  0  0  0  0  0  0
  187.8760  177.3240  148.6570 C   0  0  0  0  0  1  0  0  0  0  0  0
  188.0700  177.3900  144.3280 C   0  0  0  0  0  0  0  0  0  0  0  0
  186.5330  178.0390  142.8210 C   0  0  0  0  0  0  0  0  0  0  0  0
  184.5760  179.3200  141.9670 C   0  0  0  0  0  2  0  0  0  0  0  0
  185.7620  178.4180  141.5940 C   0  0  0  0  0  2  0  0  0  0  0  0
  186.8340  177.7580  146.5030 C   0  0  0  0  0  3  0  0  0  0  0  0
  186.8780  177.7680  145.0430 C   0  0  0  0  0  0  0  0  0  0  0  0
  190.7960  176.4910  141.2840 O   0  0  0  0  0  0  0  0  0  0  0  0
  190.1210  177.2690  142.0120 C   0  0  0  0  0  0  0  0  0  0  0  0
  188.6980  177.3700  141.8120 N   0  0  0  0  0  0  0  0  0  0  0  0
  191.7960  177.6510  143.7250 N   0  0  0  0  0  0  0  0  0  0  0  0
  190.5000  179.4540  143.2830 N   0  0  0  0  0  2  0  0  0  0  0  0
  190.8160  178.0920  143.0180 C   0  0  0  0  0  0  0  0  0  0  0  0
  192.2430  178.6750  144.5610 N   0  0  0  0  0  0  0  0  0  0  0  0
  191.4380  179.8630  144.3180 C   0  0  0  0  0  3  0  0  0  0  0  0
  188.1610  177.2150  140.4660 C   0  0  0  0  0  2  0  0  0  0  0  0
  188.6320  178.3570  139.5810 C   0  0  0  0  0  2  0  0  0  0  0  0
  188.1120  178.1710  138.1680 C   0  0  0  0  0  2  0  0  0  0  0  0
  186.6820  178.4360  138.1280 N   0  0  0  0  0  2  0  0  0  0  0  0
  186.1350  176.3450  137.2420 O   0  0  0  0  0  0  0  0  0  0  0  0
  185.7460  177.4710  137.6510 C   0  0  0  0  0  0  0  0  0  0  0  0
  184.2970  177.8000  137.6330 C   0  0  0  0  0  1  0  0  0  0  0  0
  1  2  1  0  0  0  0
  2  7  1  1  0  0  0
  2  6  1  0  0  0  0
  4 10  1  0  0  0  0
  5  3  1  0  0  0  0
  6  9  1  0  0  0  0
  8  3  1  0  0  0  0
  8 15  2  0  0  0  0
 10  1  2  0  0  0  0
 10 15  1  0  0  0  0
 11  4  2  0  0  0  0
 11  8  1  0  0  0  0
 12  5  1  0  0  0  0
 13 12  1  0  0  0  0
 13 11  1  0  0  0  0
 14  6  2  0  0  0  0
 15 14  1  0  0  0  0
 16 17  2  0  0  0  0
 17 21  1  0  0  0  0
 18 17  1  0  0  0  0
 18  4  1  0  0  0  0
 19 22  1  0  0  0  0
 20 23  1  0  0  0  0
 21 20  1  0  0  0  0
 21 19  2  0  0  0  0
 23 22  2  0  0  0  0
 24 18  1  0  0  0  0
 25 24  1  0  0  0  0
 26 25  1  0  0  0  0
 27 26  1  0  0  0  0
 28 29  2  0  0  0  0
 29 27  1  0  0  0  0
 30 29  1  0  0  0  0
M  END
>  <MODEL>
3

>  <REMARK>
 VINA RESULT:      -6.4      5.371      7.832
  Name = 
  6 active torsions:
  status: ('A' for Active; 'I' for Inactive)
    1  A    between atoms: C_4  and  N_13
    2  A    between atoms: N_7  and  C_16
    3  A    between atoms: C_8  and  C_12
    4  A    between atoms: N_13  and  C_27
    5  A    between atoms: C_16  and  C_30
    6  A    between atoms: C_27  and  C_30
                            x       y       z     vdW  Elec       q    Type
                         _______ _______ _______ _____ _____    ______ ____

>  <TORSDO>
F 6

$$$$
=
 OpenBabel10272413563D

 30 33  0  0  1  0  0  0  0  0999 V2000
  189.7270  177.1200  139.3570 C   0  0  0  0  0  3  0  0  0  0  0  0
  190.5570  177.1000  140.6270 C   0  0  2  0  0  3  0  0  0  0  0  0
  185.6150  179.0330  141.2350 C   0  0  0  0  0  2  0  0  0  0  0  0
  187.4680  177.6710  138.3300 C   0  0  0  0  0  0  0  0  0  0  0  0
  184.2230  179.0260  140.5880 C   0  0  0  0  0  2  0  0  0  0  0  0
  189.8560  177.6390  141.8750 C   0  0  0  0  0  0  0  0  0  0  0  0
  191.7360  177.7910  140.4110 F   0  0  0  0  0  0  0  0  0  0  0  0
  186.6000  178.3650  140.3300 C   0  0  0  0  0  0  0  0  0  0  0  0
  190.6010  177.6650  143.1620 C   0  0  0  0  0  1  0  0  0  0  0  0
  188.4670  177.5400  139.3920 C   0  0  0  0  0  0  0  0  0  0  0  0
  186.3720  178.1900  138.8940 C   0  0  0  0  0  0  0  0  0  0  0  0
  184.2780  179.5150  139.1340 C   0  0  0  0  0  2  0  0  0  0  0  0
  185.0720  178.5480  138.2420 C   0  0  0  0  0  2  0  0  0  0  0  0
  188.5800  178.0510  141.8660 C   0  0  0  0  0  3  0  0  0  0  0  0
  187.8410  177.9970  140.6060 C   0  0  0  0  0  0  0  0  0  0  0  0
  186.5260  176.7680  134.9880 O   0  0  0  0  0  0  0  0  0  0  0  0
  186.7830  176.5150  136.1970 C   0  0  0  0  0  0  0  0  0  0  0  0
  187.6610  177.3870  136.9320 N   0  0  0  0  0  0  0  0  0  0  0  0
  186.9320  174.2940  137.1620 N   0  0  0  0  0  0  0  0  0  0  0  0
  184.8320  175.1370  137.1050 N   0  0  0  0  0  2  0  0  0  0  0  0
  186.2140  175.3020  136.8110 C   0  0  0  0  0  0  0  0  0  0  0  0
  186.1000  173.3260  137.7260 N   0  0  0  0  0  0  0  0  0  0  0  0
  184.7310  173.8180  137.7110 C   0  0  0  0  0  3  0  0  0  0  0  0
  188.7540  178.0470  136.2270 C   0  0  0  0  0  2  0  0  0  0  0  0
  189.4610  177.0580  135.3160 C   0  0  0  0  0  2  0  0  0  0  0  0
  190.0310  175.9120  136.1320 C   0  0  0  0  0  2  0  0  0  0  0  0
  191.4330  176.1650  136.4270 N   0  0  0  0  0  2  0  0  0  0  0  0
  191.5990  174.4470  138.0020 O   0  0  0  0  0  0  0  0  0  0  0  0
  192.1590  175.3880  137.3780 C   0  0  0  0  0  0  0  0  0  0  0  0
  193.5890  175.6950  137.6380 C   0  0  0  0  0  1  0  0  0  0  0  0
  1 10  2  0  0  0  0
  1  2  1  0  0  0  0
  2  7  1  6  0  0  0
  2  6  1  0  0  0  0
  4 11  2  0  0  0  0
  4 10  1  0  0  0  0
  5  3  1  0  0  0  0
  6  9  1  0  0  0  0
  8 15  2  0  0  0  0
  8  3  1  0  0  0  0
 10 15  1  0  0  0  0
 11  8  1  0  0  0  0
 12  5  1  0  0  0  0
 13 11  1  0  0  0  0
 13 12  1  0  0  0  0
 14  6  2  0  0  0  0
 15 14  1  0  0  0  0
 16 17  2  0  0  0  0
 17 21  1  0  0  0  0
 17 18  1  0  0  0  0
 18  4  1  0  0  0  0
 19 22  1  0  0  0  0
 20 23  1  0  0  0  0
 21 20  1  0  0  0  0
 21 19  2  0  0  0  0
 23 22  2  0  0  0  0
 24 18  1  0  0  0  0
 25 26  1  0  0  0  0
 25 24  1  0  0  0  0
 26 27  1  0  0  0  0
 27 29  1  0  0  0  0
 29 30  1  0  0  0  0
 29 28  2  0  0  0  0
M  END
>  <MODEL>
4

>  <REMARK>
 VINA RESULT:      -6.1      4.104      7.065
  Name = 
  6 active torsions:
  status: ('A' for Active; 'I' for Inactive)
    1  A    between atoms: C_4  and  N_13
    2  A    between atoms: N_7  and  C_16
    3  A    between atoms: C_8  and  C_12
    4  A    between atoms: N_13  and  C_27
    5  A    between atoms: C_16  and  C_30
    6  A    between atoms: C_27  and  C_30
                            x       y       z     vdW  Elec       q    Type
                         _______ _______ _______ _____ _____    ______ ____

>  <TORSDO>
F 6

$$$$
=
 OpenBabel10272413563D

 30 33  0  0  1  0  0  0  0  0999 V2000
  186.0590  178.0110  141.7350 C   0  0  0  0  0  3  0  0  0  0  0  0
  187.0420  177.8200  142.8750 C   0  0  2  0  0  3  0  0  0  0  0  0
  182.0770  179.0540  144.4100 C   0  0  0  0  0  2  0  0  0  0  0  0
  183.6510  178.5160  141.0990 C   0  0  0  0  0  0  0  0  0  0  0  0
  180.6200  179.0320  143.9300 C   0  0  0  0  0  2  0  0  0  0  0  0
  186.4640  178.0170  144.2770 C   0  0  0  0  0  0  0  0  0  0  0  0
  188.1250  178.6610  142.6880 F   0  0  0  0  0  0  0  0  0  0  0  0
  182.9900  178.6920  143.2820 C   0  0  0  0  0  0  0  0  0  0  0  0
  187.3620  177.8580  145.4520 C   0  0  0  0  0  1  0  0  0  0  0  0
  184.7830  178.2790  141.9950 C   0  0  0  0  0  0  0  0  0  0  0  0
  182.5970  178.7900  141.8750 C   0  0  0  0  0  0  0  0  0  0  0  0
  180.4500  179.8100  142.6170 C   0  0  0  0  0  2  0  0  0  0  0  0
  181.2000  179.1340  141.4590 C   0  0  0  0  0  2  0  0  0  0  0  0
  185.1680  178.2840  144.4940 C   0  0  0  0  0  3  0  0  0  0  0  0
  184.2820  178.4100  143.3390 C   0  0  0  0  0  0  0  0  0  0  0  0
  182.3230  178.6860  137.7700 O   0  0  0  0  0  0  0  0  0  0  0  0
  182.5810  178.0960  138.8550 C   0  0  0  0  0  0  0  0  0  0  0  0
  183.6870  178.5460  139.6600 N   0  0  0  0  0  0  0  0  0  0  0  0
  182.2880  175.8040  139.5940 N   0  0  0  0  0  0  0  0  0  0  0  0
  180.3490  176.9370  139.3060 N   0  0  0  0  0  2  0  0  0  0  0  0
  181.7700  176.9290  139.2450 C   0  0  0  0  0  0  0  0  0  0  0  0
  181.2600  174.9190  139.9200 N   0  0  0  0  0  0  0  0  0  0  0  0
  179.9840  175.5990  139.7490 C   0  0  0  0  0  3  0  0  0  0  0  0
  184.8640  179.0960  138.9990 C   0  0  0  0  0  2  0  0  0  0  0  0
  185.5090  178.0410  138.1150 C   0  0  0  0  0  2  0  0  0  0  0  0
  186.8630  178.5230  137.6290 C   0  0  0  0  0  2  0  0  0  0  0  0
  187.8340  178.4390  138.7100 N   0  0  0  0  0  2  0  0  0  0  0  0
  188.6000  176.3180  138.0990 O   0  0  0  0  0  0  0  0  0  0  0  0
  188.6750  177.3000  138.8850 C   0  0  0  0  0  0  0  0  0  0  0  0
  189.6470  177.2710  140.0090 C   0  0  0  0  0  1  0  0  0  0  0  0
  1 10  2  0  0  0  0
  1  2  1  0  0  0  0
  2  7  1  6  0  0  0
  2  6  1  0  0  0  0
  4 11  2  0  0  0  0
  4 10  1  0  0  0  0
  5  3  1  0  0  0  0
  6 14  2  0  0  0  0
  6  9  1  0  0  0  0
  8 15  2  0  0  0  0
  8  3  1  0  0  0  0
 10 15  1  0  0  0  0
 11  8  1  0  0  0  0
 12  5  1  0  0  0  0
 13 11  1  0  0  0  0
 13 12  1  0  0  0  0
 15 14  1  0  0  0  0
 16 17  2  0  0  0  0
 17 21  1  0  0  0  0
 17 18  1  0  0  0  0
 18  4  1  0  0  0  0
 19 22  1  0  0  0  0
 20 23  1  0  0  0  0
 21 20  1  0  0  0  0
 21 19  2  0  0  0  0
 23 22  2  0  0  0  0
 24 18  1  0  0  0  0
 25 24  1  0  0  0  0
 26 25  1  0  0  0  0
 26 27  1  0  0  0  0
 27 29  1  0  0  0  0
 28 29  2  0  0  0  0
 29 30  1  0  0  0  0
M  END
>  <MODEL>
5

>  <REMARK>
 VINA RESULT:      -6.1      3.044      5.103
  Name = 
  6 active torsions:
  status: ('A' for Active; 'I' for Inactive)
    1  A    between atoms: C_4  and  N_13
    2  A    between atoms: N_7  and  C_16
    3  A    between atoms: C_8  and  C_12
    4  A    between atoms: N_13  and  C_27
    5  A    between atoms: C_16  and  C_30
    6  A    between atoms: C_27  and  C_30
                            x       y       z     vdW  Elec       q    Type
                         _______ _______ _______ _____ _____    ______ ____

>  <TORSDO>
F 6

$$$$
=
 OpenBabel10272413563D

 30 33  0  0  1  0  0  0  0  0999 V2000
  182.7390  175.6790  137.8070 C   0  0  0  0  0  3  0  0  0  0  0  0
  182.0480  174.6840  136.8940 C   0  0  0  0  0  0  0  0  0  0  0  0
  180.3470  179.7210  136.3800 C   0  0  0  0  0  2  0  0  0  0  0  0
  182.9270  178.1170  138.5010 C   0  0  0  0  0  0  0  0  0  0  0  0
  180.7640  181.1740  136.6450 C   0  0  0  0  0  2  0  0  0  0  0  0
  180.9740  175.2730  135.9780 C   0  0  0  0  0  0  0  0  0  0  0  0
  181.5110  173.6620  137.6560 F   0  0  0  0  0  0  0  0  0  0  0  0
  181.3360  178.7860  136.9980 C   0  0  0  0  0  0  0  0  0  0  0  0
  180.2400  174.3650  135.0560 C   0  0  0  0  0  1  0  0  0  0  0  0
  182.4290  176.9700  137.7400 C   0  0  0  0  0  0  0  0  0  0  0  0
  182.2480  179.1860  138.0720 C   0  0  2  0  0  3  0  0  0  0  0  0
  181.1050  181.3980  138.1250 C   0  0  0  0  0  2  0  0  0  0  0  0
  182.3520  180.6040  138.5440 C   0  0  0  0  0  2  0  0  0  0  0  0
  180.6960  176.5840  135.9400 C   0  0  0  0  0  3  0  0  0  0  0  0
  181.4390  177.4770  136.8260 C   0  0  0  0  0  0  0  0  0  0  0  0
  185.8750  179.0610  140.3140 O   0  0  0  0  0  0  0  0  0  0  0  0
  185.2620  178.4720  139.3820 C   0  0  0  0  0  0  0  0  0  0  0  0
  183.8890  178.0840  139.5720 N   0  0  0  0  0  0  0  0  0  0  0  0
  186.6510  179.0340  137.4740 N   0  0  0  0  0  0  0  0  0  0  0  0
  186.0490  176.8530  137.5680 N   0  0  0  0  0  0  0  0  0  0  0  0
  185.9860  178.1550  138.1380 C   0  0  0  0  0  0  0  0  0  0  0  0
  187.2310  178.4130  136.3670 N   0  0  0  0  0  2  0  0  0  0  0  0
  186.8720  177.0030  136.3770 C   0  0  0  0  0  3  0  0  0  0  0  0
  183.4420  177.6920  140.9030 C   0  0  0  0  0  2  0  0  0  0  0  0
  182.5730  178.7850  141.5050 C   0  0  0  0  0  2  0  0  0  0  0  0
  182.6960  178.7760  143.0170 C   0  0  0  0  0  2  0  0  0  0  0  0
  184.0720  178.4960  143.3990 N   0  0  0  0  0  2  0  0  0  0  0  0
  183.7670  179.1040  145.6340 O   0  0  0  0  0  0  0  0  0  0  0  0
  184.5410  178.6830  144.7330 C   0  0  0  0  0  0  0  0  0  0  0  0
  185.9580  178.3800  145.0630 C   0  0  0  0  0  1  0  0  0  0  0  0
  2  7  1  0  0  0  0
  2  1  2  0  0  0  0
  3  5  1  0  0  0  0
  3  8  1  0  0  0  0
  4 18  1  0  0  0  0
  5 12  1  0  0  0  0
  6  2  1  0  0  0  0
  8 11  1  0  0  0  0
  9  6  1  0  0  0  0
 10  1  1  0  0  0  0
 10  4  2  0  0  0  0
 11  4  1  0  0  0  0
 11 13  1  6  0  0  0
 12 13  1  0  0  0  0
 14  6  2  0  0  0  0
 14 15  1  0  0  0  0
 15  8  2  0  0  0  0
 15 10  1  0  0  0  0
 17 18  1  0  0  0  0
 17 16  2  0  0  0  0
 18 24  1  0  0  0  0
 19 21  2  0  0  0  0
 20 21  1  0  0  0  0
 21 17  1  0  0  0  0
 22 23  1  0  0  0  0
 22 19  1  0  0  0  0
 23 20  2  0  0  0  0
 24 25  1  0  0  0  0
 25 26  1  0  0  0  0
 26 27  1  0  0  0  0
 27 29  1  0  0  0  0
 29 30  1  0  0  0  0
 29 28  2  0  0  0  0
M  END
>  <MODEL>
6

>  <REMARK>
 VINA RESULT:      -6.0      3.195      6.614
  Name = 
  6 active torsions:
  status: ('A' for Active; 'I' for Inactive)
    1  A    between atoms: C_4  and  N_13
    2  A    between atoms: N_7  and  C_16
    3  A    between atoms: C_8  and  C_12
    4  A    between atoms: N_13  and  C_27
    5  A    between atoms: C_16  and  C_30
    6  A    between atoms: C_27  and  C_30
                            x       y       z     vdW  Elec       q    Type
                         _______ _______ _______ _____ _____    ______ ____

>  <TORSDO>
F 6

$$$$
=
 OpenBabel10272413563D

 30 33  0  0  1  0  0  0  0  0999 V2000
  185.2700  178.4130  138.4760 C   0  0  0  0  0  3  0  0  0  0  0  0
  186.3580  178.3640  137.4200 C   0  0  0  0  0  0  0  0  0  0  0  0
  182.4000  174.8530  136.6900 C   0  0  0  0  0  2  0  0  0  0  0  0
  183.0460  177.4540  139.2490 C   0  0  0  0  0  0  0  0  0  0  0  0
  180.9370  174.5800  137.0670 C   0  0  0  0  0  2  0  0  0  0  0  0
  186.1570  177.3190  136.3210 C   0  0  0  0  0  0  0  0  0  0  0  0
  187.5820  178.1740  138.0350 F   0  0  0  0  0  0  0  0  0  0  0  0
  182.9180  176.0160  137.4730 C   0  0  0  0  0  0  0  0  0  0  0  0
  187.1820  177.1980  135.2500 C   0  0  0  0  0  1  0  0  0  0  0  0
  184.2110  177.6150  138.3770 C   0  0  0  0  0  0  0  0  0  0  0  0
  182.3000  176.4800  138.7170 C   0  0  2  0  0  3  0  0  0  0  0  0
  180.7480  174.5360  138.5900 C   0  0  0  0  0  2  0  0  0  0  0  0
  181.0150  175.9060  139.2320 C   0  0  0  0  0  2  0  0  0  0  0  0
  185.0710  176.5360  136.2580 C   0  0  0  0  0  3  0  0  0  0  0  0
  184.0510  176.6780  137.2950 C   0  0  0  0  0  0  0  0  0  0  0  0
  181.1190  179.1620  141.7470 O   0  0  0  0  0  0  0  0  0  0  0  0
  181.7260  179.0870  140.6440 C   0  0  0  0  0  0  0  0  0  0  0  0
  182.8010  178.1420  140.4900 N   0  0  0  0  0  0  0  0  0  0  0  0
  180.1340  180.1570  139.1590 N   0  0  0  0  0  0  0  0  0  0  0  0
  182.2730  180.8360  138.8630 N   0  0  0  0  0  0  0  0  0  0  0  0
  181.3480  180.0060  139.5560 C   0  0  0  0  0  0  0  0  0  0  0  0
  180.1110  181.1060  138.1360 N   0  0  0  0  0  2  0  0  0  0  0  0
  181.4680  181.5760  137.9020 C   0  0  0  0  0  3  0  0  0  0  0  0
  183.6400  177.8310  141.6400 C   0  0  0  0  0  2  0  0  0  0  0  0
  184.4610  179.0500  142.0330 C   0  0  0  0  0  2  0  0  0  0  0  0
  184.3570  179.2890  143.5270 C   0  0  0  0  0  2  0  0  0  0  0  0
  185.4590  178.6290  144.2110 N   0  0  0  0  0  2  0  0  0  0  0  0
  184.4800  178.7880  146.3270 O   0  0  0  0  0  0  0  0  0  0  0  0
  185.4530  178.4100  145.6210 C   0  0  0  0  0  0  0  0  0  0  0  0
  186.6080  177.7300  146.2630 C   0  0  0  0  0  1  0  0  0  0  0  0
  2  7  1  0  0  0  0
  2  1  2  0  0  0  0
  3  5  1  0  0  0  0
  3  8  1  0  0  0  0
  4 18  1  0  0  0  0
  5 12  1  0  0  0  0
  6  2  1  0  0  0  0
  8 11  1  0  0  0  0
  9  6  1  0  0  0  0
 10  1  1  0  0  0  0
 10  4  2  0  0  0  0
 11 13  1  6  0  0  0
 11  4  1  0  0  0  0
 12 13  1  0  0  0  0
 14  6  2  0  0  0  0
 14 15  1  0  0  0  0
 15  8  2  0  0  0  0
 15 10  1  0  0  0  0
 17 16  2  0  0  0  0
 18 17  1  0  0  0  0
 18 24  1  0  0  0  0
 19 21  2  0  0  0  0
 20 21  1  0  0  0  0
 21 17  1  0  0  0  0
 22 19  1  0  0  0  0
 23 22  1  0  0  0  0
 23 20  2  0  0  0  0
 24 25  1  0  0  0  0
 25 26  1  0  0  0  0
 26 27  1  0  0  0  0
 27 29  1  0  0  0  0
 29 30  1  0  0  0  0
 29 28  2  0  0  0  0
M  END
>  <MODEL>
7

>  <REMARK>
 VINA RESULT:      -5.8      2.577      6.204
  Name = 
  6 active torsions:
  status: ('A' for Active; 'I' for Inactive)
    1  A    between atoms: C_4  and  N_13
    2  A    between atoms: N_7  and  C_16
    3  A    between atoms: C_8  and  C_12
    4  A    between atoms: N_13  and  C_27
    5  A    between atoms: C_16  and  C_30
    6  A    between atoms: C_27  and  C_30
                            x       y       z     vdW  Elec       q    Type
                         _______ _______ _______ _____ _____    ______ ____

>  <TORSDO>
F 6

$$$$
=
 OpenBabel10272413563D

 30 33  0  0  1  0  0  0  0  0999 V2000
  185.7430  178.3210  142.1020 C   0  0  0  0  0  3  0  0  0  0  0  0
  184.3050  178.7790  142.2520 C   0  0  0  0  0  0  0  0  0  0  0  0
  186.7860  177.7090  146.8590 C   0  0  0  0  0  2  0  0  0  0  0  0
  187.8590  177.6060  143.3140 C   0  0  0  0  0  0  0  0  0  0  0  0
  188.1830  177.5780  147.4810 C   0  0  0  0  0  2  0  0  0  0  0  0
  183.7900  178.8570  143.6900 C   0  0  0  0  0  0  0  0  0  0  0  0
  183.4840  177.9590  141.5000 F   0  0  0  0  0  0  0  0  0  0  0  0
  186.9010  177.8620  145.3760 C   0  0  0  0  0  0  0  0  0  0  0  0
  182.3860  179.2890  143.9270 C   0  0  0  0  0  1  0  0  0  0  0  0
  186.4760  178.0660  143.1810 C   0  0  0  0  0  0  0  0  0  0  0  0
  188.0910  177.4600  144.6230 C   0  0  2  0  0  3  0  0  0  0  0  0
  189.0330  176.5390  146.7360 C   0  0  0  0  0  2  0  0  0  0  0  0
  189.3410  176.9860  145.2990 C   0  0  0  0  0  2  0  0  0  0  0  0
  184.5660  178.5930  144.7510 C   0  0  0  0  0  3  0  0  0  0  0  0
  185.9530  178.1980  144.5160 C   0  0  0  0  0  0  0  0  0  0  0  0
  190.8390  176.3110  141.7920 O   0  0  0  0  0  0  0  0  0  0  0  0
  190.1840  177.1720  142.4420 C   0  0  0  0  0  0  0  0  0  0  0  0
  188.7620  177.2800  142.2420 N   0  0  0  0  0  0  0  0  0  0  0  0
  191.8860  177.6920  144.0910 N   0  0  0  0  0  0  0  0  0  0  0  0
  190.6100  179.4630  143.4900 N   0  0  0  0  0  2  0  0  0  0  0  0
  190.9030  178.0780  143.3550 C   0  0  0  0  0  0  0  0  0  0  0  0
  192.3570  178.7860  144.8180 N   0  0  0  0  0  0  0  0  0  0  0  0
  191.5660  179.9570  144.4700 C   0  0  0  0  0  3  0  0  0  0  0  0
  188.2110  177.0010  140.9220 C   0  0  0  0  0  2  0  0  0  0  0  0
  188.6900  178.0440  139.9240 C   0  0  0  0  0  2  0  0  0  0  0  0
  189.0300  177.3840  138.6010 C   0  0  0  0  0  2  0  0  0  0  0  0
  190.4580  177.4980  138.3450 N   0  0  0  0  0  2  0  0  0  0  0  0
  190.8500  175.1980  138.4720 O   0  0  0  0  0  0  0  0  0  0  0  0
  191.3120  176.3570  138.2930 C   0  0  0  0  0  0  0  0  0  0  0  0
  192.7630  176.5370  138.0290 C   0  0  0  0  0  1  0  0  0  0  0  0
  1  2  2  0  0  0  0
  1 10  1  0  0  0  0
  2  6  1  0  0  0  0
  3  5  1  0  0  0  0
  4 11  1  0  0  0  0
  6  9  1  0  0  0  0
  6 14  2  0  0  0  0
  7  2  1  0  0  0  0
  8  3  1  0  0  0  0
 10  4  2  0  0  0  0
 10 15  1  0  0  0  0
 11 13  1  1  0  0  0
 11  8  1  0  0  0  0
 12  5  1  0  0  0  0
 13 12  1  0  0  0  0
 15 14  1  0  0  0  0
 15  8  2  0  0  0  0
 16 17  2  0  0  0  0
 17 21  1  0  0  0  0
 18 17  1  0  0  0  0
 18  4  1  0  0  0  0
 19 22  1  0  0  0  0
 20 23  1  0  0  0  0
 21 20  1  0  0  0  0
 21 19  2  0  0  0  0
 23 22  2  0  0  0  0
 24 18  1  0  0  0  0
 25 24  1  0  0  0  0
 26 25  1  0  0  0  0
 27 26  1  0  0  0  0
 29 27  1  0  0  0  0
 29 28  2  0  0  0  0
 30 29  1  0  0  0  0
M  END
>  <MODEL>
8

>  <REMARK>
 VINA RESULT:      -5.8      5.825      8.540
  Name = 
  6 active torsions:
  status: ('A' for Active; 'I' for Inactive)
    1  A    between atoms: C_4  and  N_13
    2  A    between atoms: N_7  and  C_16
    3  A    between atoms: C_8  and  C_12
    4  A    between atoms: N_13  and  C_27
    5  A    between atoms: C_16  and  C_30
    6  A    between atoms: C_27  and  C_30
                            x       y       z     vdW  Elec       q    Type
                         _______ _______ _______ _____ _____    ______ ____

>  <TORSDO>
F 6

$$$$
=
 OpenBabel10272413563D

 30 33  0  0  1  0  0  0  0  0999 V2000
  188.7880  177.2300  139.4920 C   0  0  0  0  0  3  0  0  0  0  0  0
  189.3080  177.4340  140.9020 C   0  0  2  0  0  3  0  0  0  0  0  0
  193.0530  176.1360  137.3220 C   0  0  0  0  0  2  0  0  0  0  0  0
  189.3980  176.6920  137.0840 C   0  0  0  0  0  0  0  0  0  0  0  0
  193.3410  176.1390  135.8150 C   0  0  0  0  0  2  0  0  0  0  0  0
  190.8140  177.2320  141.0800 C   0  0  0  0  0  0  0  0  0  0  0  0
  188.6140  176.6080  141.7680 F   0  0  0  0  0  0  0  0  0  0  0  0
  191.6260  176.5090  137.5680 C   0  0  0  0  0  0  0  0  0  0  0  0
  191.4060  177.4030  142.4340 C   0  0  0  0  0  1  0  0  0  0  0  0
  189.6330  176.9450  138.5060 C   0  0  0  0  0  0  0  0  0  0  0  0
  190.5860  176.4040  136.5430 C   0  0  0  0  0  0  0  0  0  0  0  0
  192.2720  175.3580  135.0380 C   0  0  0  0  0  2  0  0  0  0  0  0
  190.8990  176.0420  135.1230 C   0  0  0  0  0  2  0  0  0  0  0  0
  191.6310  176.9470  140.0560 C   0  0  0  0  0  3  0  0  0  0  0  0
  191.0500  176.8080  138.7220 C   0  0  0  0  0  0  0  0  0  0  0  0
  186.0370  175.6110  136.4430 O   0  0  0  0  0  0  0  0  0  0  0  0
  187.2920  175.4860  136.4020 C   0  0  0  0  0  0  0  0  0  0  0  0
  188.1220  176.6620  136.4170 N   0  0  0  0  0  0  0  0  0  0  0  0
  187.7790  173.2560  137.2230 N   0  0  0  0  0  0  0  0  0  0  0  0
  188.5590  173.6620  135.1370 N   0  0  0  0  0  2  0  0  0  0  0  0
  187.8720  174.1360  136.2900 C   0  0  0  0  0  0  0  0  0  0  0  0
  188.4100  172.0850  136.8010 N   0  0  0  0  0  0  0  0  0  0  0  0
  188.9350  172.2940  135.4600 C   0  0  0  0  0  3  0  0  0  0  0  0
  187.6350  177.8790  135.7800 C   0  0  0  0  0  2  0  0  0  0  0  0
  187.2600  178.9070  136.8360 C   0  0  0  0  0  2  0  0  0  0  0  0
  185.8500  178.6530  137.3340 C   0  0  0  0  0  2  0  0  0  0  0  0
  185.8690  178.4080  138.7690 N   0  0  0  0  0  2  0  0  0  0  0  0
  184.3200  180.0870  139.2590 O   0  0  0  0  0  0  0  0  0  0  0  0
  185.0730  179.1680  139.6770 C   0  0  0  0  0  0  0  0  0  0  0  0
  185.1360  178.8720  141.1320 C   0  0  0  0  0  1  0  0  0  0  0  0
  1  2  1  0  0  0  0
  2  6  1  0  0  0  0
  2  7  1  1  0  0  0
  3  8  1  0  0  0  0
  4 10  1  0  0  0  0
  5  3  1  0  0  0  0
  6  9  1  0  0  0  0
  8 15  2  0  0  0  0
 10 15  1  0  0  0  0
 10  1  2  0  0  0  0
 11  4  2  0  0  0  0
 11  8  1  0  0  0  0
 12 13  1  0  0  0  0
 12  5  1  0  0  0  0
 13 11  1  0  0  0  0
 14  6  2  0  0  0  0
 15 14  1  0  0  0  0
 17 18  1  0  0  0  0
 17 16  2  0  0  0  0
 18  4  1  0  0  0  0
 20 23  1  0  0  0  0
 20 21  1  0  0  0  0
 21 17  1  0  0  0  0
 21 19  2  0  0  0  0
 22 19  1  0  0  0  0
 23 22  2  0  0  0  0
 24 18  1  0  0  0  0
 24 25  1  0  0  0  0
 25 26  1  0  0  0  0
 26 27  1  0  0  0  0
 27 29  1  0  0  0  0
 28 29  2  0  0  0  0
 29 30  1  0  0  0  0
M  END
>  <MODEL>
9

>  <REMARK>
 VINA RESULT:      -5.8      4.137      7.340
  Name = 
  6 active torsions:
  status: ('A' for Active; 'I' for Inactive)
    1  A    between atoms: C_4  and  N_13
    2  A    between atoms: N_7  and  C_16
    3  A    between atoms: C_8  and  C_12
    4  A    between atoms: N_13  and  C_27
    5  A    between atoms: C_16  and  C_30
    6  A    between atoms: C_27  and  C_30
                            x       y       z     vdW  Elec       q    Type
                         _______ _______ _______ _____ _____    ______ ____

>  <TORSDO>
F 6

$$$$
