=
 OpenBabel10272400053D

 34 40  0  0  1  0  0  0  0  0999 V2000
  187.6340  176.8530  137.1700 C   0  0  0  0  0  0  0  0  0  0  0  0
  188.6930  174.7570  136.5720 C   0  0  0  0  0  0  0  0  0  0  0  0
  189.7180  176.1860  138.2430 C   0  0  0  0  0  0  0  0  0  0  0  0
  192.1920  175.9000  138.5460 C   0  0  1  0  0  3  0  0  0  0  0  0
  186.6280  175.4560  135.5360 C   0  0  0  0  0  3  0  0  0  0  0  0
  187.6520  174.5140  135.6730 C   0  0  0  0  0  3  0  0  0  0  0  0
  191.0060  174.2490  137.3450 N   0  0  1  0  0  0  0  0  0  0  0  0
  188.6830  175.9230  137.3400 C   0  0  0  0  0  0  0  0  0  0  0  0
  192.6670  175.9660  137.1070 C   0  0  0  0  0  2  0  0  0  0  0  0
  186.6390  176.5950  136.2790 N   0  0  0  0  0  0  0  0  0  0  0  0
  189.7160  177.3920  138.9630 C   0  0  0  0  0  0  0  0  0  0  0  0
  187.6270  178.0360  137.9110 C   0  0  0  0  0  3  0  0  0  0  0  0
  189.7540  173.7190  136.7770 C   0  0  0  0  0  2  0  0  0  0  0  0
  192.2080  177.2950  139.2030 C   0  0  0  0  0  2  0  0  0  0  0  0
  190.8800  177.7310  139.8410 C   0  0  2  0  0  3  0  0  0  0  0  0
  191.8260  174.9410  136.3500 C   0  0  1  0  0  3  0  0  0  0  0  0
  190.8430  175.1880  138.4610 C   0  0  2  0  0  3  0  0  0  0  0  0
  188.6710  178.3090  138.8010 C   0  0  0  0  0  3  0  0  0  0  0  0
  189.2730  176.2810  142.9500 C   0  0  0  0  0  0  0  0  0  0  0  0
  190.3310  176.3040  143.8640 C   0  0  0  0  0  3  0  0  0  0  0  0
  190.7120  177.2430  141.2500 C   0  0  0  0  0  0  0  0  0  0  0  0
  191.5800  176.7930  143.4740 C   0  0  0  0  0  3  0  0  0  0  0  0
  189.4640  176.7490  141.6470 C   0  0  0  0  0  3  0  0  0  0  0  0
  191.7710  177.2620  142.1700 C   0  0  0  0  0  3  0  0  0  0  0  0
  188.0620  175.8050  143.3280 F   0  0  0  0  0  0  0  0  0  0  0  0
  192.7550  173.9610  135.6520 C   0  0  0  0  0  2  0  0  0  0  0  0
  193.2350  172.9700  136.5990 N   0  0  0  0  0  2  0  0  0  0  0  0
  194.6690  172.8610  136.4000 C   0  0  0  0  0  2  0  0  0  0  0  0
  195.3550  172.5350  137.7180 C   0  0  2  0  0  3  0  0  0  0  0  0
  195.3100  173.7430  138.6610 C   0  0  0  0  0  2  0  0  0  0  0  0
  197.4250  174.4100  138.2290 C   0  0  0  0  0  2  0  0  0  0  0  0
  197.7030  173.3150  137.2010 C   0  0  0  0  0  2  0  0  0  0  0  0
  196.8110  172.1110  137.5000 C   0  0  0  0  0  2  0  0  0  0  0  0
  196.0780  174.8060  138.1470 O   0  0  0  0  0  0  0  0  0  0  0  0
  1  8  2  0  0  0  0
  1 12  1  0  0  0  0
  2 13  1  0  0  0  0
  2  8  1  0  0  0  0
  3 11  2  0  0  0  0
  4  9  1  6  0  0  0
  4 14  1  0  0  0  0
  5  6  1  0  0  0  0
  5 10  2  0  0  0  0
  6  2  2  0  0  0  0
  7 13  1  6  0  0  0
  7 17  1  0  0  0  0
  8  3  1  0  0  0  0
 10  1  1  0  0  0  0
 11 15  1  0  0  0  0
 12 18  2  0  0  0  0
 14 15  1  0  0  0  0
 15 21  1  1  0  0  0
 16 26  1  1  0  0  0
 16  9  1  0  0  0  0
 16  7  1  0  0  0  0
 17  3  1  6  0  0  0
 17  4  1  0  0  0  0
 18 11  1  0  0  0  0
 19 25  1  0  0  0  0
 19 20  1  0  0  0  0
 21 23  1  0  0  0  0
 21 24  2  0  0  0  0
 22 20  2  0  0  0  0
 23 19  2  0  0  0  0
 24 22  1  0  0  0  0
 26 27  1  0  0  0  0
 28 27  1  0  0  0  0
 29 28  1  6  0  0  0
 29 30  1  0  0  0  0
 32 33  1  0  0  0  0
 32 31  1  0  0  0  0
 33 29  1  0  0  0  0
 34 31  1  0  0  0  0
 34 30  1  0  0  0  0
M  END
>  <MODEL>
1

>  <REMARK>
 VINA RESULT:      -6.9      0.000      0.000
  Name = 
  5 active torsions:
  status: ('A' for Active; 'I' for Inactive)
    1  A    between atoms: N_3  and  C_13
    2  A    between atoms: N_3  and  C_17
    3  A    between atoms: C_11  and  C_13
    4  A    between atoms: C_12  and  C_28
    5  A    between atoms: C_17  and  C_29
                            x       y       z     vdW  Elec       q    Type
                         _______ _______ _______ _____ _____    ______ ____

>  <TORSDO>
F 5

$$$$
=
 OpenBabel10272400053D

 34 40  0  0  1  0  0  0  0  0999 V2000
  191.3780  177.3280  143.4940 C   0  0  0  0  0  0  0  0  0  0  0  0
  189.0720  176.8720  144.0790 C   0  0  0  0  0  0  0  0  0  0  0  0
  189.6740  177.2160  141.7550 C   0  0  0  0  0  0  0  0  0  0  0  0
  187.8210  178.0050  140.2590 C   0  0  1  0  0  3  0  0  0  0  0  0
  190.7920  176.9890  145.7690 C   0  0  0  0  0  3  0  0  0  0  0  0
  189.4530  176.7890  145.4210 C   0  0  0  0  0  3  0  0  0  0  0  0
  187.2630  177.1540  142.3900 N   0  0  1  0  0  0  0  0  0  0  0  0
  190.0360  177.1260  143.1030 C   0  0  0  0  0  0  0  0  0  0  0  0
  187.2670  179.1600  141.0720 C   0  0  0  0  0  2  0  0  0  0  0  0
  191.7190  177.2520  144.8080 N   0  0  0  0  0  0  0  0  0  0  0  0
  190.6520  177.5300  140.7980 C   0  0  0  0  0  0  0  0  0  0  0  0
  192.3470  177.6120  142.5300 C   0  0  0  0  0  3  0  0  0  0  0  0
  187.6520  176.5860  143.6920 C   0  0  0  0  0  2  0  0  0  0  0  0
  188.9070  178.4850  139.2750 C   0  0  0  0  0  2  0  0  0  0  0  0
  190.2480  177.7440  139.3710 C   0  0  2  0  0  3  0  0  0  0  0  0
  186.9920  178.5900  142.4600 C   0  0  1  0  0  3  0  0  0  0  0  0
  188.2410  176.9780  141.3090 C   0  0  2  0  0  3  0  0  0  0  0  0
  191.9840  177.7200  141.1840 C   0  0  0  0  0  3  0  0  0  0  0  0
  191.5780  174.6230  137.6850 C   0  0  0  0  0  0  0  0  0  0  0  0
  190.4340  174.1190  137.0590 C   0  0  0  0  0  3  0  0  0  0  0  0
  190.2890  176.4840  138.5560 C   0  0  0  0  0  0  0  0  0  0  0  0
  189.2170  174.7940  137.1800 C   0  0  0  0  0  3  0  0  0  0  0  0
  191.5050  175.8010  138.4320 C   0  0  0  0  0  3  0  0  0  0  0  0
  189.1440  175.9740  137.9270 C   0  0  0  0  0  3  0  0  0  0  0  0
  192.7580  173.9670  137.5680 F   0  0  0  0  0  0  0  0  0  0  0  0
  185.5350  178.8390  142.8150 C   0  0  0  0  0  2  0  0  0  0  0  0
  184.8180  179.3350  141.6530 N   0  0  0  0  0  2  0  0  0  0  0  0
  183.7870  178.3590  141.3480 C   0  0  0  0  0  2  0  0  0  0  0  0
  183.0360  178.7690  140.0900 C   0  0  2  0  0  3  0  0  0  0  0  0
  182.2340  177.5870  139.5330 C   0  0  0  0  0  2  0  0  0  0  0  0
  183.7420  177.0600  137.9350 C   0  0  0  0  0  2  0  0  0  0  0  0
  184.7430  178.1440  138.3320 C   0  0  0  0  0  2  0  0  0  0  0  0
  183.9940  179.2890  139.0120 C   0  0  0  0  0  2  0  0  0  0  0  0
  183.0950  176.5680  139.0820 O   0  0  0  0  0  0  0  0  0  0  0  0
  1 10  2  0  0  0  0
  2  6  1  0  0  0  0
  3  8  1  0  0  0  0
  4 14  1  1  0  0  0
  4  9  1  0  0  0  0
  4 17  1  0  0  0  0
  6  5  2  0  0  0  0
  7 16  1  0  0  0  0
  7 13  1  1  0  0  0
  8  1  1  0  0  0  0
  8  2  2  0  0  0  0
  9 16  1  0  0  0  0
 10  5  1  0  0  0  0
 11 18  1  0  0  0  0
 11  3  2  0  0  0  0
 12  1  1  0  0  0  0
 13  2  1  0  0  0  0
 14 15  1  0  0  0  0
 15 21  1  1  0  0  0
 15 11  1  0  0  0  0
 16 26  1  6  0  0  0
 17  3  1  1  0  0  0
 17  7  1  0  0  0  0
 18 12  2  0  0  0  0
 19 23  1  0  0  0  0
 20 22  1  0  0  0  0
 20 19  2  0  0  0  0
 22 24  2  0  0  0  0
 23 21  2  0  0  0  0
 24 21  1  0  0  0  0
 25 19  1  0  0  0  0
 27 26  1  0  0  0  0
 28 27  1  0  0  0  0
 29 28  1  1  0  0  0
 30 29  1  0  0  0  0
 31 32  1  0  0  0  0
 31 34  1  0  0  0  0
 32 33  1  0  0  0  0
 33 29  1  0  0  0  0
 34 30  1  0  0  0  0
M  END
>  <MODEL>
2

>  <REMARK>
 VINA RESULT:      -6.7      4.221      8.902
  Name = 
  5 active torsions:
  status: ('A' for Active; 'I' for Inactive)
    1  A    between atoms: N_3  and  C_13
    2  A    between atoms: N_3  and  C_17
    3  A    between atoms: C_11  and  C_13
    4  A    between atoms: C_12  and  C_28
    5  A    between atoms: C_17  and  C_29
                            x       y       z     vdW  Elec       q    Type
                         _______ _______ _______ _____ _____    ______ ____

>  <TORSDO>
F 5

$$$$
=
 OpenBabel10272400053D

 34 40  0  0  1  0  0  0  0  0999 V2000
  187.0050  176.5350  136.6690 C   0  0  0  0  0  0  0  0  0  0  0  0
  188.4000  174.6000  136.2440 C   0  0  0  0  0  0  0  0  0  0  0  0
  189.0060  176.1530  138.0060 C   0  0  0  0  0  0  0  0  0  0  0  0
  191.4380  176.2000  138.6210 C   0  0  1  0  0  3  0  0  0  0  0  0
  186.4070  175.0160  134.9460 C   0  0  0  0  0  3  0  0  0  0  0  0
  187.5220  174.2200  135.2250 C   0  0  0  0  0  3  0  0  0  0  0  0
  190.6430  174.4050  137.3080 N   0  0  1  0  0  0  0  0  0  0  0  0
  188.1380  175.7540  136.9850 C   0  0  0  0  0  0  0  0  0  0  0  0
  192.0780  176.3290  137.2510 C   0  0  0  0  0  2  0  0  0  0  0  0
  186.1730  176.1470  135.6650 N   0  0  0  0  0  0  0  0  0  0  0  0
  188.7530  177.3470  138.6990 C   0  0  0  0  0  0  0  0  0  0  0  0
  186.7480  177.7070  137.3830 C   0  0  0  0  0  3  0  0  0  0  0  0
  189.5540  173.7130  136.5980 C   0  0  0  0  0  2  0  0  0  0  0  0
  191.1850  177.5850  139.2510 C   0  0  0  0  0  2  0  0  0  0  0  0
  189.7420  177.8390  139.7100 C   0  0  2  0  0  3  0  0  0  0  0  0
  191.4830  175.2010  136.4130 C   0  0  1  0  0  3  0  0  0  0  0  0
  190.2170  175.3140  138.3790 C   0  0  2  0  0  3  0  0  0  0  0  0
  187.6250  178.1170  138.3920 C   0  0  0  0  0  3  0  0  0  0  0  0
  190.2560  176.1760  143.0750 C   0  0  0  0  0  0  0  0  0  0  0  0
  189.0150  176.3700  143.6890 C   0  0  0  0  0  3  0  0  0  0  0  0
  189.4640  177.3330  141.0950 C   0  0  0  0  0  0  0  0  0  0  0  0
  187.9980  177.0450  143.0110 C   0  0  0  0  0  3  0  0  0  0  0  0
  190.4790  176.6570  141.7820 C   0  0  0  0  0  3  0  0  0  0  0  0
  188.2210  177.5260  141.7160 C   0  0  0  0  0  3  0  0  0  0  0  0
  191.2430  175.5220  143.7340 F   0  0  0  0  0  0  0  0  0  0  0  0
  192.6140  174.3540  135.8530 C   0  0  0  0  0  2  0  0  0  0  0  0
  193.1470  173.4870  136.8900 N   0  0  0  0  0  2  0  0  0  0  0  0
  194.5810  173.4140  136.6780 C   0  0  0  0  0  2  0  0  0  0  0  0
  195.2740  172.9620  137.9560 C   0  0  2  0  0  3  0  0  0  0  0  0
  195.5510  174.1610  138.8700 C   0  0  0  0  0  2  0  0  0  0  0  0
  197.7230  174.3600  138.2830 C   0  0  0  0  0  2  0  0  0  0  0  0
  197.6920  173.2220  137.2650 C   0  0  0  0  0  2  0  0  0  0  0  0
  196.5890  172.2370  137.6510 C   0  0  0  0  0  2  0  0  0  0  0  0
  196.4870  175.0320  138.2820 O   0  0  0  0  0  0  0  0  0  0  0  0
  1  8  2  0  0  0  0
  1 12  1  0  0  0  0
  2 13  1  0  0  0  0
  2  8  1  0  0  0  0
  3 11  2  0  0  0  0
  4  9  1  6  0  0  0
  4 14  1  0  0  0  0
  5  6  1  0  0  0  0
  5 10  2  0  0  0  0
  6  2  2  0  0  0  0
  7 13  1  6  0  0  0
  7 17  1  0  0  0  0
  8  3  1  0  0  0  0
 10  1  1  0  0  0  0
 11 15  1  0  0  0  0
 12 18  2  0  0  0  0
 14 15  1  0  0  0  0
 15 21  1  1  0  0  0
 16 26  1  1  0  0  0
 16  9  1  0  0  0  0
 16  7  1  0  0  0  0
 17  3  1  6  0  0  0
 17  4  1  0  0  0  0
 18 11  1  0  0  0  0
 19 20  1  0  0  0  0
 19 25  1  0  0  0  0
 21 24  2  0  0  0  0
 21 23  1  0  0  0  0
 22 20  2  0  0  0  0
 23 19  2  0  0  0  0
 24 22  1  0  0  0  0
 26 27  1  0  0  0  0
 28 27  1  0  0  0  0
 29 28  1  6  0  0  0
 29 30  1  0  0  0  0
 32 33  1  0  0  0  0
 32 31  1  0  0  0  0
 33 29  1  0  0  0  0
 34 31  1  0  0  0  0
 34 30  1  0  0  0  0
M  END
>  <MODEL>
3

>  <REMARK>
 VINA RESULT:      -6.7      0.916      1.275
  Name = 
  5 active torsions:
  status: ('A' for Active; 'I' for Inactive)
    1  A    between atoms: N_3  and  C_13
    2  A    between atoms: N_3  and  C_17
    3  A    between atoms: C_11  and  C_13
    4  A    between atoms: C_12  and  C_28
    5  A    between atoms: C_17  and  C_29
                            x       y       z     vdW  Elec       q    Type
                         _______ _______ _______ _____ _____    ______ ____

>  <TORSDO>
F 5

$$$$
=
 OpenBabel10272400053D

 34 40  0  0  1  0  0  0  0  0999 V2000
  187.4880  178.0460  141.6330 C   0  0  0  0  0  0  0  0  0  0  0  0
  187.7840  176.6810  143.6130 C   0  0  0  0  0  0  0  0  0  0  0  0
  185.8500  178.1350  143.4350 C   0  0  0  0  0  0  0  0  0  0  0  0
  184.8210  178.8420  145.6110 C   0  0  1  0  0  3  0  0  0  0  0  0
  189.3800  176.6230  141.8020 C   0  0  0  0  0  3  0  0  0  0  0  0
  188.9610  176.1730  143.0580 C   0  0  0  0  0  3  0  0  0  0  0  0
  186.3600  177.0520  145.6230 N   0  0  1  0  0  0  0  0  0  0  0  0
  187.0290  177.6120  142.8960 C   0  0  0  0  0  0  0  0  0  0  0  0
  186.0480  179.3110  146.3710 C   0  0  0  0  0  2  0  0  0  0  0  0
  188.6430  177.5420  141.1220 N   0  0  0  0  0  0  0  0  0  0  0  0
  185.1390  179.1120  142.7210 C   0  0  0  0  0  0  0  0  0  0  0  0
  186.7580  178.9980  140.9190 C   0  0  0  0  0  3  0  0  0  0  0  0
  187.2900  176.1480  144.9240 C   0  0  0  0  0  2  0  0  0  0  0  0
  184.1600  180.0070  144.8460 C   0  0  0  0  0  2  0  0  0  0  0  0
  183.9430  179.7620  143.3460 C   0  0  2  0  0  3  0  0  0  0  0  0
  187.0450  178.1590  146.2900 C   0  0  1  0  0  3  0  0  0  0  0  0
  185.3250  177.6630  144.7810 C   0  0  2  0  0  3  0  0  0  0  0  0
  185.5890  179.5360  141.4650 C   0  0  0  0  0  3  0  0  0  0  0  0
  181.2460  177.9310  141.4150 C   0  0  0  0  0  0  0  0  0  0  0  0
  180.2940  177.6810  142.4080 C   0  0  0  0  0  3  0  0  0  0  0  0
  182.6610  179.0420  143.0430 C   0  0  0  0  0  0  0  0  0  0  0  0
  180.5230  178.1090  143.7180 C   0  0  0  0  0  3  0  0  0  0  0  0
  182.4260  178.6080  141.7320 C   0  0  0  0  0  3  0  0  0  0  0  0
  181.7040  178.7880  144.0360 C   0  0  0  0  0  3  0  0  0  0  0  0
  181.0240  177.5150  140.1450 F   0  0  0  0  0  0  0  0  0  0  0  0
  187.4520  177.7600  147.7000 C   0  0  0  0  0  2  0  0  0  0  0  0
  188.8560  178.0590  147.9160 N   0  0  0  0  0  2  0  0  0  0  0  0
  189.6070  176.9130  147.4340 C   0  0  0  0  0  2  0  0  0  0  0  0
  191.0490  177.3140  147.1560 C   0  0  2  0  0  3  0  0  0  0  0  0
  191.3320  177.2900  145.6500 C   0  0  0  0  0  2  0  0  0  0  0  0
  192.3570  175.2770  145.6730 C   0  0  0  0  0  2  0  0  0  0  0  0
  192.1510  175.0390  147.1680 C   0  0  0  0  0  2  0  0  0  0  0  0
  192.0350  176.3880  147.8770 C   0  0  0  0  0  2  0  0  0  0  0  0
  191.2560  175.9770  145.1480 O   0  0  0  0  0  0  0  0  0  0  0  0
  1  8  1  0  0  0  0
  2 13  1  0  0  0  0
  4 14  1  6  0  0  0
  4  9  1  0  0  0  0
  5  6  2  0  0  0  0
  6  2  1  0  0  0  0
  7 13  1  6  0  0  0
  7 16  1  0  0  0  0
  8  3  1  0  0  0  0
  8  2  2  0  0  0  0
 10  1  2  0  0  0  0
 10  5  1  0  0  0  0
 11 15  1  0  0  0  0
 11  3  2  0  0  0  0
 12 18  2  0  0  0  0
 12  1  1  0  0  0  0
 15 21  1  1  0  0  0
 15 14  1  0  0  0  0
 16  9  1  0  0  0  0
 16 26  1  1  0  0  0
 17  3  1  6  0  0  0
 17  4  1  0  0  0  0
 17  7  1  0  0  0  0
 18 11  1  0  0  0  0
 19 23  2  0  0  0  0
 19 20  1  0  0  0  0
 20 22  2  0  0  0  0
 21 24  2  0  0  0  0
 22 24  1  0  0  0  0
 23 21  1  0  0  0  0
 25 19  1  0  0  0  0
 26 27  1  0  0  0  0
 28 27  1  0  0  0  0
 29 28  1  6  0  0  0
 29 33  1  0  0  0  0
 30 29  1  0  0  0  0
 31 32  1  0  0  0  0
 32 33  1  0  0  0  0
 34 30  1  0  0  0  0
 34 31  1  0  0  0  0
M  END
>  <MODEL>
4

>  <REMARK>
 VINA RESULT:      -6.7      5.850      9.282
  Name = 
  5 active torsions:
  status: ('A' for Active; 'I' for Inactive)
    1  A    between atoms: N_3  and  C_13
    2  A    between atoms: N_3  and  C_17
    3  A    between atoms: C_11  and  C_13
    4  A    between atoms: C_12  and  C_28
    5  A    between atoms: C_17  and  C_29
                            x       y       z     vdW  Elec       q    Type
                         _______ _______ _______ _____ _____    ______ ____

>  <TORSDO>
F 5

$$$$
=
 OpenBabel10272400053D

 34 40  0  0  1  0  0  0  0  0999 V2000
  190.7010  176.4840  135.0480 C   0  0  0  0  0  0  0  0  0  0  0  0
  191.6690  175.6900  137.1220 C   0  0  0  0  0  0  0  0  0  0  0  0
  189.3730  176.4720  137.0910 C   0  0  0  0  0  0  0  0  0  0  0  0
  188.4750  177.2860  139.2870 C   0  0  1  0  0  3  0  0  0  0  0  0
  192.9470  175.7170  135.0740 C   0  0  0  0  0  3  0  0  0  0  0  0
  192.8610  175.4320  136.4400 C   0  0  0  0  0  3  0  0  0  0  0  0
  190.4830  176.0440  139.2830 N   0  0  1  0  0  0  0  0  0  0  0  0
  190.5740  176.2040  136.4260 C   0  0  0  0  0  0  0  0  0  0  0  0
  189.5840  178.2270  139.7210 C   0  0  0  0  0  2  0  0  0  0  0  0
  191.8770  176.2330  134.4110 N   0  0  0  0  0  0  0  0  0  0  0  0
  188.3040  177.0420  136.3820 C   0  0  0  0  0  0  0  0  0  0  0  0
  189.6220  177.0260  134.3460 C   0  0  0  0  0  3  0  0  0  0  0  0
  191.5470  175.3180  138.5680 C   0  0  0  0  0  2  0  0  0  0  0  0
  187.3880  178.0360  138.4910 C   0  0  0  0  0  2  0  0  0  0  0  0
  187.0600  177.4400  137.1150 C   0  0  2  0  0  3  0  0  0  0  0  0
  190.8710  177.4110  139.6310 C   0  0  1  0  0  3  0  0  0  0  0  0
  189.2060  176.1540  138.5680 C   0  0  2  0  0  3  0  0  0  0  0  0
  188.4270  177.3110  135.0140 C   0  0  0  0  0  3  0  0  0  0  0  0
  183.7310  175.6770  137.5160 C   0  0  0  0  0  0  0  0  0  0  0  0
  184.0770  174.3420  137.2850 C   0  0  0  0  0  3  0  0  0  0  0  0
  186.0380  176.3420  137.1720 C   0  0  0  0  0  0  0  0  0  0  0  0
  185.4020  174.0050  136.9960 C   0  0  0  0  0  3  0  0  0  0  0  0
  184.7090  176.6730  137.4590 C   0  0  0  0  0  3  0  0  0  0  0  0
  186.3810  175.0020  136.9400 C   0  0  0  0  0  3  0  0  0  0  0  0
  182.4460  176.0040  137.7950 F   0  0  0  0  0  0  0  0  0  0  0  0
  191.5660  177.4380  140.9830 C   0  0  0  0  0  2  0  0  0  0  0  0
  190.8500  176.6000  141.9280 N   0  0  0  0  0  2  0  0  0  0  0  0
  191.1680  177.0970  143.2540 C   0  0  0  0  0  2  0  0  0  0  0  0
  190.1860  178.1890  143.6510 C   0  0  2  0  0  3  0  0  0  0  0  0
  190.1760  178.3760  145.1730 C   0  0  0  0  0  2  0  0  0  0  0  0
  188.2950  177.1710  145.5080 C   0  0  0  0  0  2  0  0  0  0  0  0
  188.1100  176.7990  144.0380 C   0  0  0  0  0  2  0  0  0  0  0  0
  188.7680  177.8690  143.1660 C   0  0  0  0  0  2  0  0  0  0  0  0
  189.6670  177.2310  145.8130 O   0  0  0  0  0  0  0  0  0  0  0  0
  1  8  1  0  0  0  0
  2 13  1  0  0  0  0
  4 14  1  6  0  0  0
  4  9  1  0  0  0  0
  5  6  2  0  0  0  0
  6  2  1  0  0  0  0
  7 13  1  6  0  0  0
  7 16  1  0  0  0  0
  8  3  1  0  0  0  0
  8  2  2  0  0  0  0
 10  1  2  0  0  0  0
 10  5  1  0  0  0  0
 11  3  2  0  0  0  0
 11 15  1  0  0  0  0
 12 18  2  0  0  0  0
 12  1  1  0  0  0  0
 15 21  1  1  0  0  0
 15 14  1  0  0  0  0
 16  9  1  0  0  0  0
 16 26  1  1  0  0  0
 17  3  1  6  0  0  0
 17  7  1  0  0  0  0
 17  4  1  0  0  0  0
 18 11  1  0  0  0  0
 19 25  1  0  0  0  0
 20 19  2  0  0  0  0
 21 23  2  0  0  0  0
 22 20  1  0  0  0  0
 23 19  1  0  0  0  0
 24 22  2  0  0  0  0
 24 21  1  0  0  0  0
 26 27  1  0  0  0  0
 27 28  1  0  0  0  0
 29 28  1  1  0  0  0
 29 30  1  0  0  0  0
 30 34  1  0  0  0  0
 31 34  1  0  0  0  0
 32 31  1  0  0  0  0
 33 29  1  0  0  0  0
 33 32  1  0  0  0  0
M  END
>  <MODEL>
5

>  <REMARK>
 VINA RESULT:      -6.6      3.336      6.887
  Name = 
  5 active torsions:
  status: ('A' for Active; 'I' for Inactive)
    1  A    between atoms: N_3  and  C_13
    2  A    between atoms: N_3  and  C_17
    3  A    between atoms: C_11  and  C_13
    4  A    between atoms: C_12  and  C_28
    5  A    between atoms: C_17  and  C_29
                            x       y       z     vdW  Elec       q    Type
                         _______ _______ _______ _____ _____    ______ ____

>  <TORSDO>
F 5

$$$$
=
 OpenBabel10272400053D

 34 40  0  0  1  0  0  0  0  0999 V2000
  191.3500  177.3320  143.5570 C   0  0  0  0  0  0  0  0  0  0  0  0
  189.0230  176.9670  144.1210 C   0  0  0  0  0  0  0  0  0  0  0  0
  189.6620  177.2700  141.8010 C   0  0  0  0  0  0  0  0  0  0  0  0
  187.8550  178.1140  140.2790 C   0  0  1  0  0  3  0  0  0  0  0  0
  190.7290  177.0340  145.8280 C   0  0  0  0  0  3  0  0  0  0  0  0
  189.3870  176.8810  145.4670 C   0  0  0  0  0  3  0  0  0  0  0  0
  187.2440  177.3010  142.4100 N   0  0  1  0  0  0  0  0  0  0  0  0
  190.0060  177.1770  143.1530 C   0  0  0  0  0  0  0  0  0  0  0  0
  187.3360  179.2950  141.0770 C   0  0  0  0  0  2  0  0  0  0  0  0
  191.6750  177.2550  144.8760 N   0  0  0  0  0  0  0  0  0  0  0  0
  190.6610  177.5390  140.8520 C   0  0  0  0  0  0  0  0  0  0  0  0
  192.3400  177.5730  142.6020 C   0  0  0  0  0  3  0  0  0  0  0  0
  187.5980  176.7300  143.7210 C   0  0  0  0  0  2  0  0  0  0  0  0
  188.9680  178.5460  139.3030 C   0  0  0  0  0  2  0  0  0  0  0  0
  190.2810  177.7570  139.4190 C   0  0  2  0  0  3  0  0  0  0  0  0
  187.0250  178.7470  142.4670 C   0  0  1  0  0  3  0  0  0  0  0  0
  188.2260  177.0810  141.3410 C   0  0  2  0  0  3  0  0  0  0  0  0
  191.9950  177.6830  141.2510 C   0  0  0  0  0  3  0  0  0  0  0  0
  191.5230  174.6010  137.7310 C   0  0  0  0  0  0  0  0  0  0  0  0
  190.3580  174.1100  137.1340 C   0  0  0  0  0  3  0  0  0  0  0  0
  190.2830  176.4900  138.6150 C   0  0  0  0  0  0  0  0  0  0  0  0
  189.1550  174.8050  137.2770 C   0  0  0  0  0  3  0  0  0  0  0  0
  191.4860  175.7870  138.4690 C   0  0  0  0  0  3  0  0  0  0  0  0
  189.1170  175.9930  138.0160 C   0  0  0  0  0  3  0  0  0  0  0  0
  192.6900  173.9260  137.5930 F   0  0  0  0  0  0  0  0  0  0  0  0
  185.5750  179.0520  142.8030 C   0  0  0  0  0  2  0  0  0  0  0  0
  184.7100  178.0170  142.2640 N   0  0  0  0  0  2  0  0  0  0  0  0
  183.5540  178.6890  141.7000 C   0  0  0  0  0  2  0  0  0  0  0  0
  183.2990  178.1890  140.2850 C   0  0  2  0  0  3  0  0  0  0  0  0
  184.2080  178.9150  139.2870 C   0  0  0  0  0  2  0  0  0  0  0  0
  182.6210  180.3640  138.5910 C   0  0  0  0  0  2  0  0  0  0  0  0
  181.5410  179.8460  139.5390 C   0  0  0  0  0  2  0  0  0  0  0  0
  181.8340  178.3850  139.8780 C   0  0  0  0  0  2  0  0  0  0  0  0
  183.8790  180.2820  139.2140 O   0  0  0  0  0  0  0  0  0  0  0  0
  1 10  2  0  0  0  0
  2  6  1  0  0  0  0
  3  8  1  0  0  0  0
  4 14  1  1  0  0  0
  4  9  1  0  0  0  0
  4 17  1  0  0  0  0
  6  5  2  0  0  0  0
  7 16  1  0  0  0  0
  7 13  1  1  0  0  0
  8  1  1  0  0  0  0
  8  2  2  0  0  0  0
  9 16  1  0  0  0  0
 10  5  1  0  0  0  0
 11 18  1  0  0  0  0
 11  3  2  0  0  0  0
 12  1  1  0  0  0  0
 13  2  1  0  0  0  0
 14 15  1  0  0  0  0
 15 21  1  1  0  0  0
 15 11  1  0  0  0  0
 16 26  1  6  0  0  0
 17  3  1  1  0  0  0
 17  7  1  0  0  0  0
 18 12  2  0  0  0  0
 19 23  1  0  0  0  0
 20 22  1  0  0  0  0
 20 19  2  0  0  0  0
 22 24  2  0  0  0  0
 23 21  2  0  0  0  0
 24 21  1  0  0  0  0
 25 19  1  0  0  0  0
 27 26  1  0  0  0  0
 28 27  1  0  0  0  0
 29 28  1  1  0  0  0
 30 29  1  0  0  0  0
 31 34  1  0  0  0  0
 31 32  1  0  0  0  0
 32 33  1  0  0  0  0
 33 29  1  0  0  0  0
 34 30  1  0  0  0  0
M  END
>  <MODEL>
6

>  <REMARK>
 VINA RESULT:      -6.6      4.315      9.227
  Name = 
  5 active torsions:
  status: ('A' for Active; 'I' for Inactive)
    1  A    between atoms: N_3  and  C_13
    2  A    between atoms: N_3  and  C_17
    3  A    between atoms: C_11  and  C_13
    4  A    between atoms: C_12  and  C_28
    5  A    between atoms: C_17  and  C_29
                            x       y       z     vdW  Elec       q    Type
                         _______ _______ _______ _____ _____    ______ ____

>  <TORSDO>
F 5

$$$$
=
 OpenBabel10272400053D

 34 40  0  0  1  0  0  0  0  0999 V2000
  186.5890  178.6470  146.6460 C   0  0  0  0  0  0  0  0  0  0  0  0
  185.6380  177.8140  144.5790 C   0  0  0  0  0  0  0  0  0  0  0  0
  188.0480  177.9230  144.8320 C   0  0  0  0  0  0  0  0  0  0  0  0
  189.3570  178.0750  142.6980 C   0  0  1  0  0  3  0  0  0  0  0  0
  184.2310  178.5390  146.4020 C   0  0  0  0  0  3  0  0  0  0  0  0
  184.3620  178.0160  145.1130 C   0  0  0  0  0  3  0  0  0  0  0  0
  187.0810  177.4560  142.5810 N   0  0  1  0  0  0  0  0  0  0  0  0
  186.7620  178.1140  145.3490 C   0  0  0  0  0  0  0  0  0  0  0  0
  188.6240  179.1980  141.9900 C   0  0  0  0  0  2  0  0  0  0  0  0
  185.3360  178.8420  147.1360 N   0  0  0  0  0  0  0  0  0  0  0  0
  189.1630  178.2860  145.6040 C   0  0  0  0  0  0  0  0  0  0  0  0
  187.7060  178.9790  147.4160 C   0  0  0  0  0  3  0  0  0  0  0  0
  185.7860  177.1840  143.2280 C   0  0  0  0  0  2  0  0  0  0  0  0
  190.5340  178.6170  143.5340 C   0  0  0  0  0  2  0  0  0  0  0  0
  190.5350  178.1940  145.0100 C   0  0  2  0  0  3  0  0  0  0  0  0
  187.1510  178.7980  142.0020 C   0  0  1  0  0  3  0  0  0  0  0  0
  188.2570  177.3270  143.4500 C   0  0  2  0  0  3  0  0  0  0  0  0
  188.9920  178.8050  146.8930 C   0  0  0  0  0  3  0  0  0  0  0  0
  192.2120  175.3050  146.7960 C   0  0  0  0  0  0  0  0  0  0  0  0
  192.4000  174.3890  145.7570 C   0  0  0  0  0  3  0  0  0  0  0  0
  191.1860  176.8630  145.2450 C   0  0  0  0  0  0  0  0  0  0  0  0
  191.9820  174.7060  144.4620 C   0  0  0  0  0  3  0  0  0  0  0  0
  191.6060  176.5380  146.5410 C   0  0  0  0  0  3  0  0  0  0  0  0
  191.3760  175.9400  144.2060 C   0  0  0  0  0  3  0  0  0  0  0  0
  192.6170  174.9960  148.0520 F   0  0  0  0  0  0  0  0  0  0  0  0
  186.6310  178.7890  140.5740 C   0  0  0  0  0  2  0  0  0  0  0  0
  185.3890  179.5370  140.4920 N   0  0  0  0  0  2  0  0  0  0  0  0
  184.4960  178.7740  139.6390 C   0  0  0  0  0  2  0  0  0  0  0  0
  183.7240  177.7580  140.4700 C   0  0  2  0  0  3  0  0  0  0  0  0
  182.9070  176.8310  139.5630 C   0  0  0  0  0  2  0  0  0  0  0  0
  180.9520  177.9200  139.8760 C   0  0  0  0  0  2  0  0  0  0  0  0
  181.5440  179.0020  140.7770 C   0  0  0  0  0  2  0  0  0  0  0  0
  182.7900  178.4490  141.4700 C   0  0  0  0  0  2  0  0  0  0  0  0
  181.8930  177.5480  138.9000 O   0  0  0  0  0  0  0  0  0  0  0  0
  1 10  1  0  0  0  0
  1 12  1  0  0  0  0
  2  6  2  0  0  0  0
  2  8  1  0  0  0  0
  3  8  1  0  0  0  0
  3 11  2  0  0  0  0
  4  9  1  1  0  0  0
  4 17  1  0  0  0  0
  4 14  1  0  0  0  0
  5 10  2  0  0  0  0
  6  5  1  0  0  0  0
  7 13  1  1  0  0  0
  7 17  1  0  0  0  0
  8  1  2  0  0  0  0
  9 16  1  0  0  0  0
 11 18  1  0  0  0  0
 13  2  1  0  0  0  0
 14 15  1  0  0  0  0
 15 21  1  6  0  0  0
 15 11  1  0  0  0  0
 16 26  1  6  0  0  0
 16  7  1  0  0  0  0
 17  3  1  1  0  0  0
 18 12  2  0  0  0  0
 19 25  1  0  0  0  0
 20 19  2  0  0  0  0
 21 23  2  0  0  0  0
 22 20  1  0  0  0  0
 23 19  1  0  0  0  0
 24 22  2  0  0  0  0
 24 21  1  0  0  0  0
 27 26  1  0  0  0  0
 28 27  1  0  0  0  0
 29 28  1  6  0  0  0
 29 33  1  0  0  0  0
 30 29  1  0  0  0  0
 31 32  1  0  0  0  0
 32 33  1  0  0  0  0
 34 30  1  0  0  0  0
 34 31  1  0  0  0  0
M  END
>  <MODEL>
7

>  <REMARK>
 VINA RESULT:      -6.4      6.385      9.561
  Name = 
  5 active torsions:
  status: ('A' for Active; 'I' for Inactive)
    1  A    between atoms: N_3  and  C_13
    2  A    between atoms: N_3  and  C_17
    3  A    between atoms: C_11  and  C_13
    4  A    between atoms: C_12  and  C_28
    5  A    between atoms: C_17  and  C_29
                            x       y       z     vdW  Elec       q    Type
                         _______ _______ _______ _____ _____    ______ ____

>  <TORSDO>
F 5

$$$$
=
 OpenBabel10272400053D

 34 40  0  0  1  0  0  0  0  0999 V2000
  186.2120  178.6590  140.8520 C   0  0  0  0  0  0  0  0  0  0  0  0
  187.3690  178.2690  138.7600 C   0  0  0  0  0  0  0  0  0  0  0  0
  184.9440  178.2830  138.8050 C   0  0  0  0  0  0  0  0  0  0  0  0
  183.8170  176.9970  136.9690 C   0  0  1  0  0  3  0  0  0  0  0  0
  188.5840  178.6480  140.8110 C   0  0  0  0  0  3  0  0  0  0  0  0
  188.5850  178.3990  139.4350 C   0  0  0  0  0  3  0  0  0  0  0  0
  186.1170  177.4850  136.7540 N   0  0  1  0  0  0  0  0  0  0  0  0
  186.1710  178.4130  139.4620 C   0  0  0  0  0  0  0  0  0  0  0  0
  184.5630  175.6780  137.0420 C   0  0  0  0  0  2  0  0  0  0  0  0
  187.4100  178.7710  141.4850 N   0  0  0  0  0  0  0  0  0  0  0  0
  183.7530  178.3750  139.5430 C   0  0  0  0  0  0  0  0  0  0  0  0
  185.0210  178.7760  141.5720 C   0  0  0  0  0  3  0  0  0  0  0  0
  187.3620  178.0760  137.2730 C   0  0  0  0  0  2  0  0  0  0  0  0
  182.5520  176.9720  137.8510 C   0  0  0  0  0  2  0  0  0  0  0  0
  182.4420  178.1180  138.8670 C   0  0  2  0  0  3  0  0  0  0  0  0
  186.0440  176.0410  136.9770 C   0  0  1  0  0  3  0  0  0  0  0  0
  184.8770  178.0440  137.3060 C   0  0  2  0  0  3  0  0  0  0  0  0
  183.7930  178.6280  140.9190 C   0  0  0  0  0  3  0  0  0  0  0  0
  181.8200  181.7810  138.1250 C   0  0  0  0  0  0  0  0  0  0  0  0
  180.7320  181.7220  137.2490 C   0  0  0  0  0  3  0  0  0  0  0  0
  181.8260  179.3610  138.2930 C   0  0  0  0  0  0  0  0  0  0  0  0
  180.1900  180.4840  136.8920 C   0  0  0  0  0  3  0  0  0  0  0  0
  182.3650  180.6040  138.6450 C   0  0  0  0  0  3  0  0  0  0  0  0
  180.7350  179.3060  137.4120 C   0  0  0  0  0  3  0  0  0  0  0  0
  182.3460  182.9810  138.4710 F   0  0  0  0  0  0  0  0  0  0  0  0
  186.6840  175.2910  135.8200 C   0  0  0  0  0  2  0  0  0  0  0  0
  187.4620  174.1720  136.3210 N   0  0  0  0  0  2  0  0  0  0  0  0
  188.5880  174.7350  137.0430 C   0  0  0  0  0  2  0  0  0  0  0  0
  189.7760  174.9040  136.1070 C   0  0  2  0  0  3  0  0  0  0  0  0
  190.8790  173.8970  136.4510 C   0  0  0  0  0  2  0  0  0  0  0  0
  192.1400  175.3730  137.6070 C   0  0  0  0  0  2  0  0  0  0  0  0
  191.1660  176.5380  137.4430 C   0  0  0  0  0  2  0  0  0  0  0  0
  190.3430  176.3260  136.1730 C   0  0  0  0  0  2  0  0  0  0  0  0
  191.4240  174.1680  137.7210 O   0  0  0  0  0  0  0  0  0  0  0  0
  1 10  1  0  0  0  0
  1 12  1  0  0  0  0
  2  6  2  0  0  0  0
  2  8  1  0  0  0  0
  3  8  1  0  0  0  0
  3 11  2  0  0  0  0
  4  9  1  1  0  0  0
  4 17  1  0  0  0  0
  4 14  1  0  0  0  0
  5 10  2  0  0  0  0
  6  5  1  0  0  0  0
  7 16  1  0  0  0  0
  7 13  1  1  0  0  0
  7 17  1  0  0  0  0
  8  1  2  0  0  0  0
 11 18  1  0  0  0  0
 13  2  1  0  0  0  0
 14 15  1  0  0  0  0
 15 21  1  6  0  0  0
 15 11  1  0  0  0  0
 16 26  1  6  0  0  0
 16  9  1  0  0  0  0
 17  3  1  1  0  0  0
 18 12  2  0  0  0  0
 19 25  1  0  0  0  0
 19 23  1  0  0  0  0
 20 19  2  0  0  0  0
 21 23  2  0  0  0  0
 22 20  1  0  0  0  0
 22 24  2  0  0  0  0
 24 21  1  0  0  0  0
 26 27  1  0  0  0  0
 27 28  1  0  0  0  0
 29 33  1  0  0  0  0
 29 30  1  0  0  0  0
 29 28  1  1  0  0  0
 30 34  1  0  0  0  0
 31 34  1  0  0  0  0
 32 31  1  0  0  0  0
 33 32  1  0  0  0  0
M  END
>  <MODEL>
8

>  <REMARK>
 VINA RESULT:      -6.2      4.359      7.569
  Name = 
  5 active torsions:
  status: ('A' for Active; 'I' for Inactive)
    1  A    between atoms: N_3  and  C_13
    2  A    between atoms: N_3  and  C_17
    3  A    between atoms: C_11  and  C_13
    4  A    between atoms: C_12  and  C_28
    5  A    between atoms: C_17  and  C_29
                            x       y       z     vdW  Elec       q    Type
                         _______ _______ _______ _____ _____    ______ ____

>  <TORSDO>
F 5

$$$$
=
 OpenBabel10272400053D

 34 40  0  0  1  0  0  0  0  0999 V2000
  186.6020  178.6630  146.6090 C   0  0  0  0  0  0  0  0  0  0  0  0
  185.6540  177.8280  144.5420 C   0  0  0  0  0  0  0  0  0  0  0  0
  188.0630  177.9240  144.8040 C   0  0  0  0  0  0  0  0  0  0  0  0
  189.3820  178.0590  142.6750 C   0  0  1  0  0  3  0  0  0  0  0  0
  184.2440  178.5690  146.3560 C   0  0  0  0  0  3  0  0  0  0  0  0
  184.3770  178.0390  145.0690 C   0  0  0  0  0  3  0  0  0  0  0  0
  187.1030  177.4540  142.5510 N   0  0  1  0  0  0  0  0  0  0  0  0
  186.7770  178.1240  145.3150 C   0  0  0  0  0  0  0  0  0  0  0  0
  188.6590  179.1840  141.9590 C   0  0  0  0  0  2  0  0  0  0  0  0
  185.3470  178.8680  147.0930 N   0  0  0  0  0  0  0  0  0  0  0  0
  189.1770  178.2830  145.5790 C   0  0  0  0  0  0  0  0  0  0  0  0
  187.7170  178.9910  147.3820 C   0  0  0  0  0  3  0  0  0  0  0  0
  185.8040  177.1920  143.1930 C   0  0  0  0  0  2  0  0  0  0  0  0
  190.5590  178.5980  143.5140 C   0  0  0  0  0  2  0  0  0  0  0  0
  190.5510  178.1810  144.9920 C   0  0  2  0  0  3  0  0  0  0  0  0
  187.1830  178.7930  141.9670 C   0  0  1  0  0  3  0  0  0  0  0  0
  188.2750  177.3210  143.4250 C   0  0  2  0  0  3  0  0  0  0  0  0
  189.0040  178.8080  146.8660 C   0  0  0  0  0  3  0  0  0  0  0  0
  192.2020  175.2870  146.7960 C   0  0  0  0  0  0  0  0  0  0  0  0
  192.3910  174.3670  145.7610 C   0  0  0  0  0  3  0  0  0  0  0  0
  191.1940  176.8460  145.2340 C   0  0  0  0  0  0  0  0  0  0  0  0
  191.9820  174.6820  144.4630 C   0  0  0  0  0  3  0  0  0  0  0  0
  191.6040  176.5230  146.5330 C   0  0  0  0  0  3  0  0  0  0  0  0
  191.3850  175.9190  144.1990 C   0  0  0  0  0  3  0  0  0  0  0  0
  192.5970  174.9800  148.0550 F   0  0  0  0  0  0  0  0  0  0  0  0
  186.6690  178.7810  140.5370 C   0  0  0  0  0  2  0  0  0  0  0  0
  187.7400  178.4140  139.6270 N   0  0  0  0  0  2  0  0  0  0  0  0
  187.1130  178.0380  138.3720 C   0  0  0  0  0  2  0  0  0  0  0  0
  187.8360  178.7000  137.2090 C   0  0  2  0  0  3  0  0  0  0  0  0
  187.4640  178.0200  135.8870 C   0  0  0  0  0  2  0  0  0  0  0  0
  189.3420  176.7690  135.7720 C   0  0  0  0  0  2  0  0  0  0  0  0
  189.9120  177.2610  137.1010 C   0  0  0  0  0  2  0  0  0  0  0  0
  189.3570  178.6540  137.3970 C   0  0  0  0  0  2  0  0  0  0  0  0
  187.9400  176.6950  135.8560 O   0  0  0  0  0  0  0  0  0  0  0  0
  1 10  1  0  0  0  0
  1 12  1  0  0  0  0
  2  6  2  0  0  0  0
  2  8  1  0  0  0  0
  3  8  1  0  0  0  0
  3 11  2  0  0  0  0
  4  9  1  1  0  0  0
  4 17  1  0  0  0  0
  4 14  1  0  0  0  0
  5 10  2  0  0  0  0
  6  5  1  0  0  0  0
  7 13  1  1  0  0  0
  7 17  1  0  0  0  0
  8  1  2  0  0  0  0
  9 16  1  0  0  0  0
 11 18  1  0  0  0  0
 13  2  1  0  0  0  0
 14 15  1  0  0  0  0
 15 21  1  6  0  0  0
 15 11  1  0  0  0  0
 16 26  1  6  0  0  0
 16  7  1  0  0  0  0
 17  3  1  1  0  0  0
 18 12  2  0  0  0  0
 19 25  1  0  0  0  0
 20 19  2  0  0  0  0
 21 23  2  0  0  0  0
 22 20  1  0  0  0  0
 23 19  1  0  0  0  0
 24 22  2  0  0  0  0
 24 21  1  0  0  0  0
 27 26  1  0  0  0  0
 28 27  1  0  0  0  0
 29 33  1  0  0  0  0
 29 28  1  1  0  0  0
 30 29  1  0  0  0  0
 31 34  1  0  0  0  0
 31 32  1  0  0  0  0
 32 33  1  0  0  0  0
 34 30  1  0  0  0  0
M  END
>  <MODEL>
9

>  <REMARK>
 VINA RESULT:      -6.2      4.629      7.869
  Name = 
  5 active torsions:
  status: ('A' for Active; 'I' for Inactive)
    1  A    between atoms: N_3  and  C_13
    2  A    between atoms: N_3  and  C_17
    3  A    between atoms: C_11  and  C_13
    4  A    between atoms: C_12  and  C_28
    5  A    between atoms: C_17  and  C_29
                            x       y       z     vdW  Elec       q    Type
                         _______ _______ _______ _____ _____    ______ ____

>  <TORSDO>
F 5

$$$$
