=
 OpenBabel10272400213D

 31 36  0  0  1  0  0  0  0  0999 V2000
  188.9460  177.2150  137.1380 C   0  0  0  0  0  0  0  0  0  0  0  0
  185.6060  178.3960  138.3800 C   0  0  2  0  0  3  0  0  0  0  0  0
  184.6650  177.1870  138.1890 C   0  0  2  0  0  3  0  0  0  0  0  0
  184.5110  174.9510  137.0810 C   0  0  0  0  0  3  0  0  0  0  0  0
  187.0700  178.0210  138.3620 C   0  0  0  0  0  0  0  0  0  0  0  0
  189.7510  177.2840  138.2760 C   0  0  0  0  0  3  0  0  0  0  0  0
  184.9950  176.3630  136.9590 C   0  0  0  0  0  2  0  0  0  0  0  0
  185.8540  178.6020  140.8570 N   0  0  0  0  0  0  0  0  0  0  0  0
  189.4940  176.7580  135.9080 N   0  0  0  0  0  1  0  0  0  0  0  0
  182.9140  179.0360  138.5500 C   0  0  0  0  0  2  0  0  0  0  0  0
  183.3690  174.5300  137.6410 C   0  0  0  0  0  3  0  0  0  0  0  0
  187.3110  178.7250  140.7710 C   0  0  0  0  0  2  0  0  0  0  0  0
  185.2150  179.1900  139.6600 C   0  0  2  0  0  3  0  0  0  0  0  0
  187.6400  177.5870  137.2040 N   0  0  0  0  0  0  0  0  0  0  0  0
  182.3170  175.3150  138.3300 C   0  0  0  0  0  3  0  0  0  0  0  0
  187.8520  178.1060  139.5240 C   0  0  0  0  0  0  0  0  0  0  0  0
  189.1990  177.7440  139.4720 C   0  0  0  0  0  3  0  0  0  0  0  0
  183.6810  179.2750  139.8440 C   0  0  0  0  0  2  0  0  0  0  0  0
  183.2180  177.6440  137.9880 C   0  0  2  0  0  3  0  0  0  0  0  0
  182.2460  176.6380  138.5120 C   0  0  0  0  0  3  0  0  0  0  0  0
  185.4200  179.2630  142.1010 C   0  0  0  0  0  2  0  0  0  0  0  0
  187.8290  177.6740  146.3370 C   0  0  0  0  0  0  0  0  0  0  0  0
  187.1810  177.2110  143.8980 C   0  0  0  0  0  2  0  0  0  0  0  0
  184.3220  178.7030  145.5050 C   0  0  0  0  0  2  0  0  0  0  0  0
  183.9030  178.7700  144.0460 C   0  0  0  0  0  2  0  0  0  0  0  0
  188.8190  177.7820  147.4440 C   0  0  0  0  0  1  0  0  0  0  0  0
  185.1200  178.2900  143.2470 C   0  0  2  0  0  3  0  0  0  0  0  0
  188.3080  177.2430  144.9550 C   0  0  0  0  0  2  0  0  0  0  0  0
  185.5880  177.9010  145.4270 C   0  0  1  0  0  3  0  0  0  0  0  0
  186.2280  178.2780  144.1860 N   0  0  1  0  0  0  0  0  0  0  0  0
  186.5560  178.0510  146.5560 C   0  0  0  0  0  3  0  0  0  0  0  0
  1 14  2  0  0  0  0
  1  6  1  0  0  0  0
  2  5  1  1  0  0  0
  2 13  1  0  0  0  0
  3  7  1  6  0  0  0
  3  2  1  0  0  0  0
  4 11  2  0  0  0  0
  5 16  2  0  0  0  0
  6 17  2  0  0  0  0
  7  4  1  0  0  0  0
  8 21  1  0  0  0  0
  9  1  1  0  0  0  0
 10 18  1  0  0  0  0
 11 15  1  0  0  0  0
 12  8  1  0  0  0  0
 13 18  1  1  0  0  0
 13  8  1  0  0  0  0
 14  5  1  0  0  0  0
 15 20  2  0  0  0  0
 16 12  1  0  0  0  0
 17 16  1  0  0  0  0
 19  3  1  0  0  0  0
 19 20  1  1  0  0  0
 19 10  1  0  0  0  0
 22 31  2  0  0  0  0
 22 26  1  0  0  0  0
 23 28  1  0  0  0  0
 25 24  1  0  0  0  0
 27 21  1  6  0  0  0
 27 25  1  0  0  0  0
 27 30  1  0  0  0  0
 28 22  1  0  0  0  0
 29 24  1  1  0  0  0
 29 31  1  0  0  0  0
 30 23  1  6  0  0  0
 30 29  1  0  0  0  0
M  END
>  <MODEL>
1

>  <REMARK>
 VINA RESULT:      -9.4      0.000      0.000
  Name = 
  2 active torsions:
  status: ('A' for Active; 'I' for Inactive)
    1  A    between atoms: C_9  and  C_23
    2  A    between atoms: N_15  and  C_23
                            x       y       z     vdW  Elec       q    Type
                         _______ _______ _______ _____ _____    ______ ____

>  <TORSDO>
F 2

$$$$
=
 OpenBabel10272400213D

 31 36  0  0  1  0  0  0  0  0999 V2000
  191.0080  176.3310  137.2900 C   0  0  0  0  0  0  0  0  0  0  0  0
  187.4320  177.3870  137.7170 C   0  0  2  0  0  3  0  0  0  0  0  0
  186.6170  176.0820  137.5850 C   0  0  2  0  0  3  0  0  0  0  0  0
  186.8050  173.6910  136.8800 C   0  0  0  0  0  3  0  0  0  0  0  0
  188.8940  177.1500  138.0150 C   0  0  0  0  0  0  0  0  0  0  0  0
  191.5850  176.6580  138.5190 C   0  0  0  0  0  3  0  0  0  0  0  0
  187.2170  175.1030  136.5940 C   0  0  0  0  0  2  0  0  0  0  0  0
  187.2070  178.0150  140.1250 N   0  0  0  0  0  0  0  0  0  0  0  0
  191.8000  175.7310  136.2720 N   0  0  0  0  0  1  0  0  0  0  0  0
  184.7200  177.7970  137.3110 C   0  0  0  0  0  2  0  0  0  0  0  0
  185.6070  173.2640  137.3030 C   0  0  0  0  0  3  0  0  0  0  0  0
  188.6450  178.2560  140.2670 C   0  0  0  0  0  2  0  0  0  0  0  0
  186.7640  178.3400  138.7510 C   0  0  2  0  0  3  0  0  0  0  0  0
  189.6920  176.5870  137.0660 N   0  0  0  0  0  0  0  0  0  0  0  0
  184.4010  174.0510  137.6530 C   0  0  0  0  0  3  0  0  0  0  0  0
  189.4420  177.4940  139.2600 C   0  0  0  0  0  0  0  0  0  0  0  0
  190.7960  177.2530  139.5030 C   0  0  0  0  0  3  0  0  0  0  0  0
  185.2200  178.3130  138.6540 C   0  0  0  0  0  2  0  0  0  0  0  0
  185.2060  176.3660  137.0630 C   0  0  2  0  0  3  0  0  0  0  0  0
  184.2180  175.3740  137.5830 C   0  0  0  0  0  3  0  0  0  0  0  0
  186.5130  178.8280  141.1400 C   0  0  0  0  0  2  0  0  0  0  0  0
  187.8600  177.6070  145.9320 C   0  0  0  0  0  0  0  0  0  0  0  0
  187.7060  176.9060  143.4680 C   0  0  0  0  0  2  0  0  0  0  0  0
  184.6890  178.7080  144.2650 C   0  0  0  0  0  2  0  0  0  0  0  0
  184.5910  178.6320  142.7500 C   0  0  0  0  0  2  0  0  0  0  0  0
  188.6020  177.7900  147.2100 C   0  0  0  0  0  1  0  0  0  0  0  0
  185.9100  178.0050  142.2840 C   0  0  2  0  0  3  0  0  0  0  0  0
  188.5860  177.0000  144.7350 C   0  0  0  0  0  2  0  0  0  0  0  0
  185.8820  177.8410  144.5420 C   0  0  1  0  0  3  0  0  0  0  0  0
  186.7940  178.0440  143.4370 N   0  0  1  0  0  0  0  0  0  0  0  0
  186.6000  178.0690  145.8330 C   0  0  0  0  0  3  0  0  0  0  0  0
  1  6  1  0  0  0  0
  2  5  1  1  0  0  0
  2 13  1  0  0  0  0
  3  7  1  6  0  0  0
  3  2  1  0  0  0  0
  4 11  2  0  0  0  0
  5 16  2  0  0  0  0
  6 17  2  0  0  0  0
  7  4  1  0  0  0  0
  8 12  1  0  0  0  0
  8 21  1  0  0  0  0
  9  1  1  0  0  0  0
 10 18  1  0  0  0  0
 11 15  1  0  0  0  0
 13 18  1  1  0  0  0
 13  8  1  0  0  0  0
 14  1  2  0  0  0  0
 14  5  1  0  0  0  0
 16 17  1  0  0  0  0
 16 12  1  0  0  0  0
 19 10  1  1  0  0  0
 19 20  1  0  0  0  0
 19  3  1  0  0  0  0
 20 15  2  0  0  0  0
 22 26  1  0  0  0  0
 23 28  1  0  0  0  0
 25 24  1  0  0  0  0
 27 21  1  6  0  0  0
 27 25  1  0  0  0  0
 27 30  1  0  0  0  0
 28 22  1  0  0  0  0
 29 24  1  6  0  0  0
 29 31  1  0  0  0  0
 30 23  1  6  0  0  0
 30 29  1  0  0  0  0
 31 22  2  0  0  0  0
M  END
>  <MODEL>
2

>  <REMARK>
 VINA RESULT:      -9.2      1.330      1.895
  Name = 
  2 active torsions:
  status: ('A' for Active; 'I' for Inactive)
    1  A    between atoms: C_9  and  C_23
    2  A    between atoms: N_15  and  C_23
                            x       y       z     vdW  Elec       q    Type
                         _______ _______ _______ _____ _____    ______ ____

>  <TORSDO>
F 2

$$$$
=
 OpenBabel10272400213D

 31 36  0  0  1  0  0  0  0  0999 V2000
  192.3640  176.1650  137.2290 C   0  0  0  0  0  0  0  0  0  0  0  0
  188.7830  177.2320  137.5830 C   0  0  2  0  0  3  0  0  0  0  0  0
  187.9630  175.9420  137.3660 C   0  0  2  0  0  3  0  0  0  0  0  0
  188.1570  173.5830  136.5620 C   0  0  0  0  0  3  0  0  0  0  0  0
  190.2320  176.9700  137.9190 C   0  0  0  0  0  0  0  0  0  0  0  0
  192.9010  176.4320  138.4900 C   0  0  0  0  0  3  0  0  0  0  0  0
  188.5890  175.0020  136.3540 C   0  0  0  0  0  2  0  0  0  0  0  0
  188.4820  177.7560  140.0080 N   0  0  0  0  0  0  0  0  0  0  0  0
  193.1850  175.6040  136.2130 N   0  0  0  0  0  1  0  0  0  0  0  0
  186.0890  177.6840  137.1060 C   0  0  0  0  0  2  0  0  0  0  0  0
  186.9430  173.1480  136.9260 C   0  0  0  0  0  3  0  0  0  0  0  0
  189.9150  177.9780  140.2090 C   0  0  0  0  0  2  0  0  0  0  0  0
  188.0880  178.1450  138.6360 C   0  0  2  0  0  3  0  0  0  0  0  0
  191.0580  176.4420  136.9730 N   0  0  0  0  0  0  0  0  0  0  0  0
  185.7320  173.9300  137.2700 C   0  0  0  0  0  3  0  0  0  0  0  0
  190.7410  177.2540  139.1960 C   0  0  0  0  0  0  0  0  0  0  0  0
  192.0840  176.9910  139.4720 C   0  0  0  0  0  3  0  0  0  0  0  0
  186.5480  178.1360  138.4860 C   0  0  0  0  0  2  0  0  0  0  0  0
  186.5720  176.2610  136.8110 C   0  0  2  0  0  3  0  0  0  0  0  0
  185.5600  175.2560  137.2540 C   0  0  0  0  0  3  0  0  0  0  0  0
  187.7600  178.5300  141.0340 C   0  0  0  0  0  2  0  0  0  0  0  0
  188.5410  177.5070  145.9950 C   0  0  0  0  0  0  0  0  0  0  0  0
  188.8040  176.7670  143.5530 C   0  0  0  0  0  2  0  0  0  0  0  0
  185.5390  178.2550  143.8800 C   0  0  0  0  0  2  0  0  0  0  0  0
  185.6620  178.1520  142.3680 C   0  0  0  0  0  2  0  0  0  0  0  0
  189.0740  177.7790  147.3590 C   0  0  0  0  0  1  0  0  0  0  0  0
  187.0890  177.6610  142.1050 C   0  0  2  0  0  3  0  0  0  0  0  0
  189.4840  176.9660  144.9260 C   0  0  0  0  0  2  0  0  0  0  0  0
  186.7630  177.5190  144.3400 C   0  0  1  0  0  3  0  0  0  0  0  0
  187.7950  177.8040  143.3670 N   0  0  1  0  0  0  0  0  0  0  0  0
  187.2670  177.8340  145.7120 C   0  0  0  0  0  3  0  0  0  0  0  0
  1  6  1  0  0  0  0
  2  5  1  1  0  0  0
  2 13  1  0  0  0  0
  3  7  1  6  0  0  0
  3  2  1  0  0  0  0
  4 11  2  0  0  0  0
  5 16  2  0  0  0  0
  6 17  2  0  0  0  0
  7  4  1  0  0  0  0
  8 12  1  0  0  0  0
  8 21  1  0  0  0  0
  9  1  1  0  0  0  0
 10 18  1  0  0  0  0
 11 15  1  0  0  0  0
 13 18  1  1  0  0  0
 13  8  1  0  0  0  0
 14  1  2  0  0  0  0
 14  5  1  0  0  0  0
 16 17  1  0  0  0  0
 16 12  1  0  0  0  0
 19 10  1  1  0  0  0
 19 20  1  0  0  0  0
 19  3  1  0  0  0  0
 20 15  2  0  0  0  0
 22 26  1  0  0  0  0
 23 28  1  0  0  0  0
 25 24  1  0  0  0  0
 27 21  1  6  0  0  0
 27 25  1  0  0  0  0
 27 30  1  0  0  0  0
 28 22  1  0  0  0  0
 29 24  1  6  0  0  0
 29 31  1  0  0  0  0
 30 23  1  6  0  0  0
 30 29  1  0  0  0  0
 31 22  2  0  0  0  0
M  END
>  <MODEL>
3

>  <REMARK>
 VINA RESULT:      -9.2      1.969      3.022
  Name = 
  2 active torsions:
  status: ('A' for Active; 'I' for Inactive)
    1  A    between atoms: C_9  and  C_23
    2  A    between atoms: N_15  and  C_23
                            x       y       z     vdW  Elec       q    Type
                         _______ _______ _______ _____ _____    ______ ____

>  <TORSDO>
F 2

$$$$
=
 OpenBabel10272400213D

 31 36  0  0  1  0  0  0  0  0999 V2000
  192.1390  175.8460  135.9430 C   0  0  0  0  0  0  0  0  0  0  0  0
  188.8080  177.0890  137.1450 C   0  0  2  0  0  3  0  0  0  0  0  0
  187.8620  175.8770  137.0090 C   0  0  2  0  0  3  0  0  0  0  0  0
  187.6960  173.5960  135.9990 C   0  0  0  0  0  3  0  0  0  0  0  0
  190.2700  176.7100  137.1380 C   0  0  0  0  0  0  0  0  0  0  0  0
  192.9480  175.9610  137.0760 C   0  0  0  0  0  3  0  0  0  0  0  0
  188.1850  175.0000  135.8150 C   0  0  0  0  0  2  0  0  0  0  0  0
  189.0640  177.4010  139.6110 N   0  0  0  0  0  0  0  0  0  0  0  0
  192.6820  175.3340  134.7330 N   0  0  0  0  0  1  0  0  0  0  0  0
  186.1180  177.7450  137.2970 C   0  0  0  0  0  2  0  0  0  0  0  0
  186.5550  173.2030  136.5800 C   0  0  0  0  0  3  0  0  0  0  0  0
  190.5210  177.5150  139.5140 C   0  0  0  0  0  2  0  0  0  0  0  0
  188.4230  177.9390  138.3910 C   0  0  2  0  0  3  0  0  0  0  0  0
  190.8340  176.2240  135.9980 N   0  0  0  0  0  0  0  0  0  0  0  0
  185.5080  174.0210  137.2380 C   0  0  0  0  0  3  0  0  0  0  0  0
  191.0560  176.8410  138.2930 C   0  0  0  0  0  0  0  0  0  0  0  0
  192.4020  176.4730  138.2520 C   0  0  0  0  0  3  0  0  0  0  0  0
  186.8900  178.0380  138.5770 C   0  0  0  0  0  2  0  0  0  0  0  0
  186.4150  176.3300  136.7930 C   0  0  2  0  0  3  0  0  0  0  0  0
  185.4420  175.3510  137.3640 C   0  0  0  0  0  3  0  0  0  0  0  0
  188.6370  178.1170  140.8260 C   0  0  0  0  0  2  0  0  0  0  0  0
  190.7490  176.6480  145.2590 C   0  0  0  0  0  0  0  0  0  0  0  0
  190.2470  176.1060  142.8020 C   0  0  0  0  0  2  0  0  0  0  0  0
  187.3190  177.6990  144.1730 C   0  0  0  0  0  2  0  0  0  0  0  0
  186.9940  177.7180  142.6880 C   0  0  0  0  0  2  0  0  0  0  0  0
  191.6700  176.7810  146.4220 C   0  0  0  0  0  1  0  0  0  0  0  0
  188.2490  177.1900  141.9850 C   0  0  2  0  0  3  0  0  0  0  0  0
  191.3060  176.1590  143.9260 C   0  0  0  0  0  2  0  0  0  0  0  0
  188.5740  176.8750  144.2030 C   0  0  1  0  0  3  0  0  0  0  0  0
  189.2970  177.1960  142.9910 N   0  0  1  0  0  0  0  0  0  0  0  0
  189.4720  177.0520  145.3850 C   0  0  0  0  0  3  0  0  0  0  0  0
  1 14  2  0  0  0  0
  1  6  1  0  0  0  0
  2  5  1  1  0  0  0
  2 13  1  0  0  0  0
  3  7  1  6  0  0  0
  3  2  1  0  0  0  0
  4 11  2  0  0  0  0
  5 16  2  0  0  0  0
  6 17  2  0  0  0  0
  7  4  1  0  0  0  0
  8 21  1  0  0  0  0
  9  1  1  0  0  0  0
 10 18  1  0  0  0  0
 11 15  1  0  0  0  0
 12  8  1  0  0  0  0
 13 18  1  1  0  0  0
 13  8  1  0  0  0  0
 14  5  1  0  0  0  0
 15 20  2  0  0  0  0
 16 12  1  0  0  0  0
 17 16  1  0  0  0  0
 19  3  1  0  0  0  0
 19 10  1  1  0  0  0
 19 20  1  0  0  0  0
 22 31  2  0  0  0  0
 22 26  1  0  0  0  0
 23 28  1  0  0  0  0
 25 24  1  0  0  0  0
 27 21  1  6  0  0  0
 27 25  1  0  0  0  0
 27 30  1  0  0  0  0
 28 22  1  0  0  0  0
 29 24  1  1  0  0  0
 29 31  1  0  0  0  0
 30 23  1  6  0  0  0
 30 29  1  0  0  0  0
M  END
>  <MODEL>
4

>  <REMARK>
 VINA RESULT:      -8.8      2.378      3.573
  Name = 
  2 active torsions:
  status: ('A' for Active; 'I' for Inactive)
    1  A    between atoms: C_9  and  C_23
    2  A    between atoms: N_15  and  C_23
                            x       y       z     vdW  Elec       q    Type
                         _______ _______ _______ _____ _____    ______ ____

>  <TORSDO>
F 2

$$$$
=
 OpenBabel10272400213D

 31 36  0  0  1  0  0  0  0  0999 V2000
  189.3220  178.2350  137.3540 C   0  0  0  0  0  0  0  0  0  0  0  0
  187.2800  178.6090  140.4810 C   0  0  2  0  0  3  0  0  0  0  0  0
  185.8590  178.1600  140.0800 C   0  0  2  0  0  3  0  0  0  0  0  0
  184.4350  177.6290  138.0960 C   0  0  0  0  0  3  0  0  0  0  0  0
  188.3490  178.1340  139.5240 C   0  0  0  0  0  0  0  0  0  0  0  0
  190.2710  177.2730  137.7070 C   0  0  0  0  0  3  0  0  0  0  0  0
  185.5010  178.5220  138.6520 C   0  0  0  0  0  2  0  0  0  0  0  0
  188.0860  176.8120  142.0190 N   0  0  0  0  0  0  0  0  0  0  0  0
  189.3260  178.7880  136.0440 N   0  0  0  0  0  1  0  0  0  0  0  0
  185.3200  179.3460  142.2980 C   0  0  0  0  0  2  0  0  0  0  0  0
  183.3690  177.1370  138.7410 C   0  0  0  0  0  3  0  0  0  0  0  0
  189.3730  176.7020  141.3290 C   0  0  0  0  0  2  0  0  0  0  0  0
  187.5820  178.2010  141.9530 C   0  0  2  0  0  3  0  0  0  0  0  0
  188.3970  178.6440  138.2620 N   0  0  0  0  0  0  0  0  0  0  0  0
  182.9830  177.2870  140.1650 C   0  0  0  0  0  3  0  0  0  0  0  0
  189.2900  177.1680  139.9130 C   0  0  0  0  0  0  0  0  0  0  0  0
  190.2570  176.7480  138.9980 C   0  0  0  0  0  3  0  0  0  0  0  0
  186.3490  178.3800  142.8700 C   0  0  0  0  0  2  0  0  0  0  0  0
  184.8000  178.8500  140.9450 C   0  0  2  0  0  3  0  0  0  0  0  0
  183.5930  177.9900  141.1260 C   0  0  0  0  0  3  0  0  0  0  0  0
  188.2800  176.3550  143.4070 C   0  0  0  0  0  2  0  0  0  0  0  0
  188.1830  177.9540  148.2760 C   0  0  0  0  0  0  0  0  0  0  0  0
  187.5920  178.4130  145.8220 C   0  0  0  0  0  2  0  0  0  0  0  0
  190.8680  176.9140  145.8770 C   0  0  0  0  0  2  0  0  0  0  0  0
  190.5410  176.8450  144.3940 C   0  0  0  0  0  2  0  0  0  0  0  0
  187.8400  177.8490  149.7210 C   0  0  0  0  0  1  0  0  0  0  0  0
  189.0920  177.3290  144.2700 C   0  0  2  0  0  3  0  0  0  0  0  0
  187.1050  178.3860  147.2880 C   0  0  0  0  0  2  0  0  0  0  0  0
  189.7200  177.7200  146.4090 C   0  0  1  0  0  3  0  0  0  0  0  0
  188.5650  177.3440  145.6230 N   0  0  1  0  0  0  0  0  0  0  0  0
  189.4060  177.5730  147.8630 C   0  0  0  0  0  3  0  0  0  0  0  0
  1  6  2  0  0  0  0
  1 14  1  0  0  0  0
  2  5  1  6  0  0  0
  2 13  1  0  0  0  0
  3  7  1  6  0  0  0
  3  2  1  0  0  0  0
  3 19  1  0  0  0  0
  4  7  1  0  0  0  0
  4 11  2  0  0  0  0
  5 16  1  0  0  0  0
  6 17  1  0  0  0  0
  8 21  1  0  0  0  0
  9  1  1  0  0  0  0
 10 18  1  0  0  0  0
 11 15  1  0  0  0  0
 12  8  1  0  0  0  0
 13  8  1  0  0  0  0
 13 18  1  1  0  0  0
 14  5  2  0  0  0  0
 15 20  2  0  0  0  0
 16 12  1  0  0  0  0
 17 16  2  0  0  0  0
 19 20  1  1  0  0  0
 19 10  1  0  0  0  0
 22 26  1  0  0  0  0
 23 28  1  0  0  0  0
 25 24  1  0  0  0  0
 27 21  1  6  0  0  0
 27 25  1  0  0  0  0
 27 30  1  0  0  0  0
 28 22  1  0  0  0  0
 29 24  1  6  0  0  0
 29 31  1  0  0  0  0
 30 23  1  6  0  0  0
 30 29  1  0  0  0  0
 31 22  2  0  0  0  0
M  END
>  <MODEL>
5

>  <REMARK>
 VINA RESULT:      -8.0      1.735      3.325
  Name = 
  2 active torsions:
  status: ('A' for Active; 'I' for Inactive)
    1  A    between atoms: C_9  and  C_23
    2  A    between atoms: N_15  and  C_23
                            x       y       z     vdW  Elec       q    Type
                         _______ _______ _______ _____ _____    ______ ____

>  <TORSDO>
F 2

$$$$
=
 OpenBabel10272400213D

 31 36  0  0  1  0  0  0  0  0999 V2000
  184.4650  178.9630  141.8740 C   0  0  0  0  0  0  0  0  0  0  0  0
  186.6280  178.7240  138.8160 C   0  0  2  0  0  3  0  0  0  0  0  0
  187.9210  178.0330  139.3000 C   0  0  2  0  0  3  0  0  0  0  0  0
  189.1550  177.3650  141.3690 C   0  0  0  0  0  3  0  0  0  0  0  0
  185.4600  178.5310  139.7550 C   0  0  0  0  0  0  0  0  0  0  0  0
  183.3550  178.1840  141.5390 C   0  0  0  0  0  3  0  0  0  0  0  0
  188.3030  178.4110  140.7190 C   0  0  0  0  0  2  0  0  0  0  0  0
  185.5280  177.0210  137.3550 N   0  0  0  0  0  0  0  0  0  0  0  0
  184.5330  179.5910  143.1480 N   0  0  0  0  0  1  0  0  0  0  0  0
  188.7470  178.9430  137.0410 C   0  0  0  0  0  2  0  0  0  0  0  0
  190.1210  176.6330  140.7980 C   0  0  0  0  0  3  0  0  0  0  0  0
  184.2260  177.2110  137.9970 C   0  0  0  0  0  2  0  0  0  0  0  0
  186.2940  178.2870  137.3590 C   0  0  2  0  0  3  0  0  0  0  0  0
  185.4780  179.1220  140.9810 N   0  0  0  0  0  0  0  0  0  0  0  0
  190.5690  176.6110  139.3850 C   0  0  0  0  0  3  0  0  0  0  0  0
  184.3580  177.7440  139.3860 C   0  0  0  0  0  0  0  0  0  0  0  0
  183.3010  177.5820  140.2820 C   0  0  0  0  0  3  0  0  0  0  0  0
  187.5650  178.1600  136.4850 C   0  0  0  0  0  2  0  0  0  0  0  0
  189.1190  178.4440  138.4400 C   0  0  2  0  0  3  0  0  0  0  0  0
  190.1380  177.3540  138.3600 C   0  0  0  0  0  3  0  0  0  0  0  0
  185.2870  176.5220  135.9890 C   0  0  0  0  0  2  0  0  0  0  0  0
  189.7320  174.0020  136.3990 C   0  0  0  0  0  0  0  0  0  0  0  0
  188.0190  175.1620  134.8810 C   0  0  0  0  0  2  0  0  0  0  0  0
  186.1760  173.2840  137.3430 C   0  0  0  0  0  2  0  0  0  0  0  0
  185.0690  174.1290  136.7330 C   0  0  0  0  0  2  0  0  0  0  0  0
  191.1140  173.7850  136.9070 C   0  0  0  0  0  1  0  0  0  0  0  0
  185.7700  175.0850  135.7620 C   0  0  2  0  0  3  0  0  0  0  0  0
  189.5040  175.0130  135.2800 C   0  0  0  0  0  2  0  0  0  0  0  0
  187.3370  173.6000  136.4450 C   0  0  1  0  0  3  0  0  0  0  0  0
  187.1870  174.9880  136.0670 N   0  0  1  0  0  0  0  0  0  0  0  0
  188.7050  173.3760  137.0030 C   0  0  0  0  0  3  0  0  0  0  0  0
  1  9  1  0  0  0  0
  2  3  1  0  0  0  0
  2  5  1  1  0  0  0
  3  7  1  1  0  0  0
  5 14  1  0  0  0  0
  6  1  1  0  0  0  0
  7  4  1  0  0  0  0
  8 13  1  0  0  0  0
  8 12  1  0  0  0  0
 11  4  2  0  0  0  0
 12 16  1  0  0  0  0
 13 18  1  6  0  0  0
 13  2  1  0  0  0  0
 14  1  2  0  0  0  0
 15 11  1  0  0  0  0
 16  5  2  0  0  0  0
 16 17  1  0  0  0  0
 17  6  2  0  0  0  0
 18 10  1  0  0  0  0
 19 10  1  6  0  0  0
 19  3  1  0  0  0  0
 20 19  1  0  0  0  0
 20 15  2  0  0  0  0
 21  8  1  0  0  0  0
 22 26  1  0  0  0  0
 22 31  2  0  0  0  0
 23 28  1  0  0  0  0
 25 24  1  0  0  0  0
 27 21  1  1  0  0  0
 27 30  1  0  0  0  0
 27 25  1  0  0  0  0
 28 22  1  0  0  0  0
 29 31  1  1  0  0  0
 29 24  1  0  0  0  0
 30 23  1  6  0  0  0
 30 29  1  0  0  0  0
M  END
>  <MODEL>
6

>  <REMARK>
 VINA RESULT:      -7.5      2.582      7.406
  Name = 
  2 active torsions:
  status: ('A' for Active; 'I' for Inactive)
    1  A    between atoms: C_9  and  C_23
    2  A    between atoms: N_15  and  C_23
                            x       y       z     vdW  Elec       q    Type
                         _______ _______ _______ _____ _____    ______ ____

>  <TORSDO>
F 2

$$$$
=
 OpenBabel10272400213D

 31 36  0  0  1  0  0  0  0  0999 V2000
  190.8860  176.3990  138.6450 C   0  0  0  0  0  0  0  0  0  0  0  0
  188.7250  176.8670  141.6790 C   0  0  2  0  0  3  0  0  0  0  0  0
  189.6780  177.4190  142.7610 C   0  0  2  0  0  3  0  0  0  0  0  0
  192.0980  177.7670  143.2780 C   0  0  0  0  0  3  0  0  0  0  0  0
  189.2640  177.0160  140.2750 C   0  0  0  0  0  0  0  0  0  0  0  0
  190.3220  177.2760  137.7160 C   0  0  0  0  0  3  0  0  0  0  0  0
  191.0820  176.8560  142.6600 C   0  0  0  0  0  2  0  0  0  0  0  0
  187.2240  178.7890  141.1360 N   0  0  0  0  0  0  0  0  0  0  0  0
  192.0240  175.6240  138.2900 N   0  0  0  0  0  1  0  0  0  0  0  0
  187.6970  176.7320  144.2500 C   0  0  0  0  0  2  0  0  0  0  0  0
  191.9610  178.5030  144.3890 C   0  0  0  0  0  3  0  0  0  0  0  0
  187.3920  178.6020  139.6930 C   0  0  0  0  0  2  0  0  0  0  0  0
  187.3070  177.4890  141.8370 C   0  0  2  0  0  3  0  0  0  0  0  0
  190.3460  176.2860  139.8880 N   0  0  0  0  0  0  0  0  0  0  0  0
  190.7770  178.6640  145.2670 C   0  0  0  0  0  3  0  0  0  0  0  0
  188.6710  177.9040  139.3640 C   0  0  0  0  0  0  0  0  0  0  0  0
  189.2010  178.0220  138.0790 C   0  0  0  0  0  3  0  0  0  0  0  0
  186.9020  177.6420  143.3230 C   0  0  0  0  0  2  0  0  0  0  0  0
  189.1940  177.0410  144.1640 C   0  0  2  0  0  3  0  0  0  0  0  0
  189.5810  178.0720  145.1740 C   0  0  0  0  0  3  0  0  0  0  0  0
  185.9290  179.4580  141.3540 C   0  0  0  0  0  2  0  0  0  0  0  0
  181.2000  179.1030  143.2980 C   0  0  0  0  0  0  0  0  0  0  0  0
  183.6210  178.2530  143.2930 C   0  0  0  0  0  2  0  0  0  0  0  0
  182.6840  178.8540  139.8660 C   0  0  0  0  0  2  0  0  0  0  0  0
  184.1860  178.6580  139.7270 C   0  0  0  0  0  2  0  0  0  0  0  0
  179.9820  179.6210  143.9810 C   0  0  0  0  0  1  0  0  0  0  0  0
  184.7180  178.5380  141.1600 C   0  0  2  0  0  3  0  0  0  0  0  0
  182.4210  178.7390  144.1360 C   0  0  0  0  0  2  0  0  0  0  0  0
  182.4590  178.5070  141.3090 C   0  0  1  0  0  3  0  0  0  0  0  0
  183.6300  178.9680  142.0220 N   0  0  1  0  0  0  0  0  0  0  0  0
  181.2290  179.0590  141.9530 C   0  0  0  0  0  3  0  0  0  0  0  0
  1 14  1  0  0  0  0
  2  5  1  6  0  0  0
  2 13  1  0  0  0  0
  2  3  1  0  0  0  0
  3  7  1  6  0  0  0
  3 19  1  0  0  0  0
  4 11  2  0  0  0  0
  6 17  1  0  0  0  0
  6  1  2  0  0  0  0
  7  4  1  0  0  0  0
  8 21  1  0  0  0  0
  8 13  1  0  0  0  0
  9  1  1  0  0  0  0
 11 15  1  0  0  0  0
 12  8  1  0  0  0  0
 13 18  1  1  0  0  0
 14  5  2  0  0  0  0
 16 12  1  0  0  0  0
 16  5  1  0  0  0  0
 17 16  2  0  0  0  0
 18 10  1  0  0  0  0
 19 10  1  6  0  0  0
 19 20  1  0  0  0  0
 20 15  2  0  0  0  0
 22 26  1  0  0  0  0
 22 28  1  0  0  0  0
 23 28  1  0  0  0  0
 25 24  1  0  0  0  0
 25 27  1  0  0  0  0
 27 21  1  6  0  0  0
 27 30  1  0  0  0  0
 29 24  1  6  0  0  0
 29 31  1  0  0  0  0
 29 30  1  0  0  0  0
 30 23  1  1  0  0  0
 31 22  2  0  0  0  0
M  END
>  <MODEL>
7

>  <REMARK>
 VINA RESULT:      -7.4      2.414      6.175
  Name = 
  2 active torsions:
  status: ('A' for Active; 'I' for Inactive)
    1  A    between atoms: C_9  and  C_23
    2  A    between atoms: N_15  and  C_23
                            x       y       z     vdW  Elec       q    Type
                         _______ _______ _______ _____ _____    ______ ____

>  <TORSDO>
F 2

$$$$
=
 OpenBabel10272400213D

 31 36  0  0  1  0  0  0  0  0999 V2000
  180.5840  180.6050  135.6650 C   0  0  0  0  0  0  0  0  0  0  0  0
  181.7320  177.6590  137.6890 C   0  0  2  0  0  3  0  0  0  0  0  0
  182.9730  177.1270  136.9410 C   0  0  2  0  0  3  0  0  0  0  0  0
  184.2180  177.3160  134.7810 C   0  0  0  0  0  3  0  0  0  0  0  0
  181.3710  179.0780  137.3130 C   0  0  0  0  0  0  0  0  0  0  0  0
  180.7240  181.6740  136.5530 C   0  0  0  0  0  3  0  0  0  0  0  0
  182.8710  177.2760  135.4350 C   0  0  0  0  0  2  0  0  0  0  0  0
  182.6490  178.6230  139.8040 N   0  0  0  0  0  0  0  0  0  0  0  0
  180.1070  180.8360  134.3460 N   0  0  0  0  0  1  0  0  0  0  0  0
  182.4980  175.1100  138.4650 C   0  0  0  0  0  2  0  0  0  0  0  0
  185.3040  176.6060  135.1150 C   0  0  0  0  0  3  0  0  0  0  0  0
  181.8790  179.8600  139.6560 C   0  0  0  0  0  2  0  0  0  0  0  0
  181.9070  177.4810  139.2250 C   0  0  2  0  0  3  0  0  0  0  0  0
  180.9020  179.3450  136.0630 N   0  0  0  0  0  0  0  0  0  0  0  0
  185.4920  175.6480  136.2300 C   0  0  0  0  0  3  0  0  0  0  0  0
  181.5210  180.1290  138.2310 C   0  0  0  0  0  0  0  0  0  0  0  0
  181.1850  181.4280  137.8460 C   0  0  0  0  0  3  0  0  0  0  0  0
  182.5990  176.1430  139.5800 C   0  0  0  0  0  2  0  0  0  0  0  0
  183.1590  175.6260  137.1840 C   0  0  2  0  0  3  0  0  0  0  0  0
  184.6010  175.2370  137.1380 C   0  0  0  0  0  3  0  0  0  0  0  0
  182.9270  178.4360  141.2390 C   0  0  0  0  0  2  0  0  0  0  0  0
  185.9670  178.1530  145.3560 C   0  0  0  0  0  0  0  0  0  0  0  0
  184.0990  179.3950  144.1110 C   0  0  0  0  0  2  0  0  0  0  0  0
  186.5230  178.3570  141.6550 C   0  0  0  0  0  2  0  0  0  0  0  0
  185.3710  178.7900  140.7620 C   0  0  0  0  0  2  0  0  0  0  0  0
  186.5420  177.4980  146.5630 C   0  0  0  0  0  1  0  0  0  0  0  0
  184.2160  179.1190  141.7140 C   0  0  2  0  0  3  0  0  0  0  0  0
  184.5830  178.7870  145.4460 C   0  0  0  0  0  2  0  0  0  0  0  0
  186.0400  178.7820  143.0110 C   0  0  1  0  0  3  0  0  0  0  0  0
  184.6060  178.5870  143.0080 N   0  0  1  0  0  0  0  0  0  0  0  0
  186.6380  178.0880  144.1910 C   0  0  0  0  0  3  0  0  0  0  0  0
  1 14  2  0  0  0  0
  1  6  1  0  0  0  0
  2  5  1  1  0  0  0
  2 13  1  0  0  0  0
  3  7  1  6  0  0  0
  3 19  1  0  0  0  0
  3  2  1  0  0  0  0
  4 11  2  0  0  0  0
  4  7  1  0  0  0  0
  5 16  2  0  0  0  0
  6 17  2  0  0  0  0
  8 21  1  0  0  0  0
  9  1  1  0  0  0  0
 10 18  1  0  0  0  0
 11 15  1  0  0  0  0
 12  8  1  0  0  0  0
 13 18  1  6  0  0  0
 13  8  1  0  0  0  0
 14  5  1  0  0  0  0
 15 20  2  0  0  0  0
 16 12  1  0  0  0  0
 17 16  1  0  0  0  0
 19 20  1  1  0  0  0
 19 10  1  0  0  0  0
 22 28  1  0  0  0  0
 22 26  1  0  0  0  0
 23 28  1  0  0  0  0
 25 24  1  0  0  0  0
 25 27  1  0  0  0  0
 27 21  1  6  0  0  0
 27 30  1  0  0  0  0
 29 24  1  6  0  0  0
 29 31  1  0  0  0  0
 30 29  1  0  0  0  0
 30 23  1  1  0  0  0
 31 22  2  0  0  0  0
M  END
>  <MODEL>
8

>  <REMARK>
 VINA RESULT:      -7.2      2.707      4.996
  Name = 
  2 active torsions:
  status: ('A' for Active; 'I' for Inactive)
    1  A    between atoms: C_9  and  C_23
    2  A    between atoms: N_15  and  C_23
                            x       y       z     vdW  Elec       q    Type
                         _______ _______ _______ _____ _____    ______ ____

>  <TORSDO>
F 2

$$$$
=
 OpenBabel10272400213D

 31 36  0  0  1  0  0  0  0  0999 V2000
  191.0290  175.9360  143.5090 C   0  0  0  0  0  0  0  0  0  0  0  0
  187.4930  176.9670  144.2290 C   0  0  2  0  0  3  0  0  0  0  0  0
  187.5580  177.6710  145.6010 C   0  0  2  0  0  3  0  0  0  0  0  0
  189.0560  178.0400  147.5690 C   0  0  0  0  0  3  0  0  0  0  0  0
  188.8360  176.8620  143.5460 C   0  0  0  0  0  0  0  0  0  0  0  0
  191.3410  176.6550  142.3540 C   0  0  0  0  0  3  0  0  0  0  0  0
  188.5890  177.0640  146.5330 C   0  0  0  0  0  2  0  0  0  0  0  0
  186.9950  178.8080  142.6130 N   0  0  0  0  0  0  0  0  0  0  0  0
  192.0020  175.0820  144.0980 N   0  0  0  0  0  1  0  0  0  0  0  0
  185.0190  177.2990  145.4370 C   0  0  0  0  0  2  0  0  0  0  0  0
  188.3190  178.9580  148.2100 C   0  0  0  0  0  3  0  0  0  0  0  0
  188.0460  178.3740  141.6890 C   0  0  0  0  0  2  0  0  0  0  0  0
  186.4220  177.6440  143.3240 C   0  0  2  0  0  3  0  0  0  0  0  0
  189.7960  176.0500  144.0700 N   0  0  0  0  0  0  0  0  0  0  0  0
  186.8860  179.2950  148.0400 C   0  0  0  0  0  3  0  0  0  0  0  0
  189.1160  177.5970  142.3840 C   0  0  0  0  0  0  0  0  0  0  0  0
  190.3720  177.4810  141.7850 C   0  0  0  0  0  3  0  0  0  0  0  0
  185.1630  178.0580  144.1240 C   0  0  0  0  0  2  0  0  0  0  0  0
  186.2260  177.5500  146.3450 C   0  0  2  0  0  3  0  0  0  0  0  0
  185.9840  178.7270  147.2330 C   0  0  0  0  0  3  0  0  0  0  0  0
  185.9820  179.5370  141.8300 C   0  0  0  0  0  2  0  0  0  0  0  0
  181.2760  179.5050  139.8000 C   0  0  0  0  0  0  0  0  0  0  0  0
  182.8960  178.5660  141.5530 C   0  0  0  0  0  2  0  0  0  0  0  0
  184.7400  178.9480  138.4810 C   0  0  0  0  0  2  0  0  0  0  0  0
  185.8670  178.6870  139.4660 C   0  0  0  0  0  2  0  0  0  0  0  0
  179.9820  180.1180  139.3900 C   0  0  0  0  0  1  0  0  0  0  0  0
  185.2050  178.6520  140.8480 C   0  0  2  0  0  3  0  0  0  0  0  0
  181.4980  179.1580  141.2680 C   0  0  0  0  0  2  0  0  0  0  0  0
  183.5250  178.7170  139.3320 C   0  0  1  0  0  3  0  0  0  0  0  0
  183.8670  179.1850  140.6580 N   0  0  1  0  0  0  0  0  0  0  0  0
  182.2530  179.3620  138.8850 C   0  0  0  0  0  3  0  0  0  0  0  0
  1 14  1  0  0  0  0
  1  9  1  0  0  0  0
  2  5  1  6  0  0  0
  2  3  1  0  0  0  0
  3 19  1  0  0  0  0
  3  7  1  1  0  0  0
  4 11  2  0  0  0  0
  5 14  2  0  0  0  0
  6  1  2  0  0  0  0
  7  4  1  0  0  0  0
  8 13  1  0  0  0  0
 12 16  1  0  0  0  0
 12  8  1  0  0  0  0
 13 18  1  1  0  0  0
 13  2  1  0  0  0  0
 15 11  1  0  0  0  0
 16  5  1  0  0  0  0
 17  6  1  0  0  0  0
 17 16  2  0  0  0  0
 18 10  1  0  0  0  0
 19 10  1  6  0  0  0
 19 20  1  0  0  0  0
 20 15  2  0  0  0  0
 21  8  1  0  0  0  0
 22 28  1  0  0  0  0
 24 25  1  0  0  0  0
 25 27  1  0  0  0  0
 26 22  1  0  0  0  0
 27 21  1  1  0  0  0
 28 23  1  0  0  0  0
 29 24  1  6  0  0  0
 29 30  1  0  0  0  0
 30 27  1  0  0  0  0
 30 23  1  1  0  0  0
 31 29  1  0  0  0  0
 31 22  2  0  0  0  0
M  END
>  <MODEL>
9

>  <REMARK>
 VINA RESULT:      -7.1      2.686      7.407
  Name = 
  2 active torsions:
  status: ('A' for Active; 'I' for Inactive)
    1  A    between atoms: C_9  and  C_23
    2  A    between atoms: N_15  and  C_23
                            x       y       z     vdW  Elec       q    Type
                         _______ _______ _______ _____ _____    ______ ____

>  <TORSDO>
F 2

$$$$
