=
 OpenBabel10272400253D

 31 35  0  0  1  0  0  0  0  0999 V2000
  184.2770  178.8220  144.3230 C   0  0  0  0  0  0  0  0  0  0  0  0
  187.7580  177.2390  144.4010 C   0  0  1  0  0  3  0  0  0  0  0  0
  188.3180  177.3320  139.1370 O   0  0  0  0  0  0  0  0  0  0  0  0
  189.4440  177.1050  139.6550 C   0  0  0  0  0  0  0  0  0  0  0  0
  186.5140  177.9590  143.9320 C   0  0  0  0  0  0  0  0  0  0  0  0
  184.1430  179.1020  142.9610 C   0  0  0  0  0  3  0  0  0  0  0  0
  188.5920  177.4950  142.0330 C   0  0  0  0  0  0  0  0  0  0  0  0
  183.2130  179.1190  145.2190 N   0  0  0  0  0  1  0  0  0  0  0  0
  187.4120  177.8820  141.6410 N   0  0  0  0  0  0  0  0  0  0  0  0
  188.9610  177.5190  143.4910 C   0  0  0  0  0  2  0  0  0  0  0  0
  189.6090  177.1640  141.0800 N   0  0  0  0  0  2  0  0  0  0  0  0
  185.4520  178.2380  144.8060 C   0  0  0  0  0  3  0  0  0  0  0  0
  186.3650  178.2250  142.5580 C   0  0  0  0  0  0  0  0  0  0  0  0
  185.1840  178.7980  142.0780 C   0  0  0  0  0  3  0  0  0  0  0  0
  192.7510  176.0990  137.1060 C   0  0  0  0  0  0  0  0  0  0  0  0
  190.3760  176.2090  137.5350 C   0  0  0  0  0  3  0  0  0  0  0  0
  192.2360  177.5430  140.4530 O   0  0  0  0  0  1  0  0  0  0  0  0
  193.7840  175.7760  136.2900 F   0  0  0  0  0  0  0  0  0  0  0  0
  191.4390  175.8760  136.6920 C   0  0  0  0  0  3  0  0  0  0  0  0
  191.9430  176.9910  139.2110 C   0  0  0  0  0  0  0  0  0  0  0  0
  190.6080  176.7690  138.8000 C   0  0  0  0  0  0  0  0  0  0  0  0
  193.0020  176.6550  138.3620 C   0  0  0  0  0  3  0  0  0  0  0  0
  188.1080  177.5200  145.8390 C   0  0  0  0  0  0  0  0  0  0  0  0
  187.4280  178.2920  148.0420 C   0  0  0  0  0  3  0  0  0  0  0  0
  187.1370  178.0600  146.6970 C   0  0  0  0  0  3  0  0  0  0  0  0
  188.6890  177.9780  148.5460 C   0  0  0  0  0  3  0  0  0  0  0  0
  189.6640  177.4390  147.7050 C   0  0  0  0  0  3  0  0  0  0  0  0
  189.3950  177.2210  146.3440 C   0  0  0  0  0  0  0  0  0  0  0  0
  191.7300  176.3350  146.2540 C   0  0  0  0  0  2  0  0  0  0  0  0
  191.6390  177.5270  145.3320 C   0  0  0  0  0  2  0  0  0  0  0  0
  190.4500  176.5910  145.4730 C   0  0  0  0  0  3  0  0  0  0  0  0
  1 12  1  0  0  0  0
  1  8  1  0  0  0  0
  2 23  1  1  0  0  0
  3  4  2  0  0  0  0
  4 11  1  0  0  0  0
  5  2  1  0  0  0  0
  5 12  2  0  0  0  0
  6  1  2  0  0  0  0
  7 10  1  0  0  0  0
  9  7  2  0  0  0  0
  9 13  1  0  0  0  0
 10  2  1  0  0  0  0
 11  7  1  0  0  0  0
 13  5  1  0  0  0  0
 14 13  2  0  0  0  0
 14  6  1  0  0  0  0
 15 22  1  0  0  0  0
 16 21  2  0  0  0  0
 18 15  1  0  0  0  0
 19 15  2  0  0  0  0
 19 16  1  0  0  0  0
 20 17  1  0  0  0  0
 21 20  1  0  0  0  0
 21  4  1  0  0  0  0
 22 20  2  0  0  0  0
 23 28  2  0  0  0  0
 23 25  1  0  0  0  0
 24 26  1  0  0  0  0
 25 24  2  0  0  0  0
 27 26  2  0  0  0  0
 28 27  1  0  0  0  0
 30 31  1  0  0  0  0
 30 29  1  0  0  0  0
 31 29  1  0  0  0  0
 31 28  1  0  0  0  0
M  END
>  <MODEL>
1

>  <REMARK>
 VINA RESULT:     -11.8      0.000      0.000
  Name = 
  3 active torsions:
  status: ('A' for Active; 'I' for Inactive)
    1  A    between atoms: C_4  and  C_5
    2  A    between atoms: C_9  and  C_22
    3  A    between atoms: C_30  and  C_31
                            x       y       z     vdW  Elec       q    Type
                         _______ _______ _______ _____ _____    ______ ____

>  <TORSDO>
F 3

$$$$
=
 OpenBabel10272400253D

 31 35  0  0  1  0  0  0  0  0999 V2000
  191.4250  176.3840  146.2440 C   0  0  0  0  0  0  0  0  0  0  0  0
  188.5100  177.9940  144.3630 C   0  0  1  0  0  3  0  0  0  0  0  0
  190.3370  176.5970  139.5950 O   0  0  0  0  0  0  0  0  0  0  0  0
  189.1380  176.9660  139.4710 C   0  0  0  0  0  0  0  0  0  0  0  0
  189.7280  177.1600  144.6890 C   0  0  0  0  0  0  0  0  0  0  0  0
  192.1110  175.7700  145.1940 C   0  0  0  0  0  3  0  0  0  0  0  0
  188.7880  177.1690  141.9950 C   0  0  0  0  0  0  0  0  0  0  0  0
  191.9330  176.3020  147.5710 N   0  0  0  0  0  1  0  0  0  0  0  0
  189.9580  176.6760  142.2860 N   0  0  0  0  0  0  0  0  0  0  0  0
  187.8110  177.5160  143.0840 C   0  0  0  0  0  2  0  0  0  0  0  0
  188.3530  177.2680  140.6340 N   0  0  0  0  0  2  0  0  0  0  0  0
  190.2450  177.0900  145.9920 C   0  0  0  0  0  3  0  0  0  0  0  0
  190.4350  176.5550  143.6320 C   0  0  0  0  0  0  0  0  0  0  0  0
  191.6200  175.8610  143.8890 C   0  0  0  0  0  3  0  0  0  0  0  0
  187.3530  177.2430  135.5750 C   0  0  0  0  0  0  0  0  0  0  0  0
  188.0000  175.9510  137.5120 C   0  0  0  0  0  3  0  0  0  0  0  0
  188.9690  179.4980  137.9940 O   0  0  0  0  0  1  0  0  0  0  0  0
  186.7870  177.3140  134.3460 F   0  0  0  0  0  0  0  0  0  0  0  0
  187.4150  176.0220  136.2450 C   0  0  0  0  0  3  0  0  0  0  0  0
  188.4620  178.3300  137.4380 C   0  0  0  0  0  0  0  0  0  0  0  0
  188.5290  177.0960  138.1260 C   0  0  0  0  0  0  0  0  0  0  0  0
  187.8750  178.3930  136.1700 C   0  0  0  0  0  3  0  0  0  0  0  0
  187.5250  178.0890  145.4990 C   0  0  0  0  0  0  0  0  0  0  0  0
  187.0950  178.1470  147.8920 C   0  0  0  0  0  3  0  0  0  0  0  0
  187.9850  178.0240  146.8250 C   0  0  0  0  0  3  0  0  0  0  0  0
  185.7370  178.3460  147.6470 C   0  0  0  0  0  3  0  0  0  0  0  0
  185.2660  178.4150  146.3350 C   0  0  0  0  0  3  0  0  0  0  0  0
  186.1450  178.2690  145.2490 C   0  0  0  0  0  0  0  0  0  0  0  0
  184.8940  179.7230  143.6470 C   0  0  0  0  0  2  0  0  0  0  0  0
  184.0960  178.4610  143.8650 C   0  0  0  0  0  2  0  0  0  0  0  0
  185.6140  178.3980  143.8450 C   0  0  0  0  0  3  0  0  0  0  0  0
  1  8  1  0  0  0  0
  2  5  1  0  0  0  0
  2 23  1  1  0  0  0
  4  3  2  0  0  0  0
  4 11  1  0  0  0  0
  5 12  2  0  0  0  0
  6  1  2  0  0  0  0
  7  9  2  0  0  0  0
  7 10  1  0  0  0  0
  9 13  1  0  0  0  0
 10  2  1  0  0  0  0
 11  7  1  0  0  0  0
 12  1  1  0  0  0  0
 13 14  2  0  0  0  0
 13  5  1  0  0  0  0
 14  6  1  0  0  0  0
 15 22  2  0  0  0  0
 15 19  1  0  0  0  0
 16 21  1  0  0  0  0
 18 15  1  0  0  0  0
 19 16  2  0  0  0  0
 20 17  1  0  0  0  0
 20 21  2  0  0  0  0
 21  4  1  0  0  0  0
 22 20  1  0  0  0  0
 23 25  1  0  0  0  0
 25 24  2  0  0  0  0
 26 24  1  0  0  0  0
 27 26  2  0  0  0  0
 28 23  2  0  0  0  0
 28 27  1  0  0  0  0
 29 31  1  0  0  0  0
 29 30  1  0  0  0  0
 31 30  1  0  0  0  0
 31 28  1  0  0  0  0
M  END
>  <MODEL>
2

>  <REMARK>
 VINA RESULT:     -11.5      2.579      4.905
  Name = 
  3 active torsions:
  status: ('A' for Active; 'I' for Inactive)
    1  A    between atoms: C_4  and  C_5
    2  A    between atoms: C_9  and  C_22
    3  A    between atoms: C_30  and  C_31
                            x       y       z     vdW  Elec       q    Type
                         _______ _______ _______ _____ _____    ______ ____

>  <TORSDO>
F 3

$$$$
=
 OpenBabel10272400253D

 31 35  0  0  1  0  0  0  0  0999 V2000
  192.5030  176.3480  136.7300 C   0  0  0  0  0  0  0  0  0  0  0  0
  189.1880  176.5480  138.6280 C   0  0  1  0  0  3  0  0  0  0  0  0
  191.5020  176.7010  143.3870 O   0  0  0  0  0  0  0  0  0  0  0  0
  190.2940  177.0350  143.5190 C   0  0  0  0  0  0  0  0  0  0  0  0
  190.6620  176.5970  138.2960 C   0  0  0  0  0  0  0  0  0  0  0  0
  193.4170  176.4860  137.7780 C   0  0  0  0  0  3  0  0  0  0  0  0
  189.8780  177.0740  140.9980 C   0  0  0  0  0  0  0  0  0  0  0  0
  192.9680  176.1530  135.4000 N   0  0  0  0  0  1  0  0  0  0  0  0
  191.1280  176.8600  140.6990 N   0  0  0  0  0  0  0  0  0  0  0  0
  188.8630  177.3180  139.9150 C   0  0  0  0  0  2  0  0  0  0  0  0
  189.4640  177.2150  142.3610 N   0  0  0  0  0  2  0  0  0  0  0  0
  191.1300  176.3870  136.9890 C   0  0  0  0  0  3  0  0  0  0  0  0
  191.5880  176.7160  139.3490 C   0  0  0  0  0  0  0  0  0  0  0  0
  192.9600  176.6630  139.0860 C   0  0  0  0  0  3  0  0  0  0  0  0
  188.5290  177.6520  147.3860 C   0  0  0  0  0  0  0  0  0  0  0  0
  188.3440  177.5150  144.9800 C   0  0  0  0  0  3  0  0  0  0  0  0
  191.8590  176.9140  146.0000 O   0  0  0  0  0  1  0  0  0  0  0  0
  187.9580  177.8490  148.5980 F   0  0  0  0  0  0  0  0  0  0  0  0
  187.7530  177.7170  146.2300 C   0  0  0  0  0  3  0  0  0  0  0  0
  190.4950  177.1790  146.0470 C   0  0  0  0  0  0  0  0  0  0  0  0
  189.7170  177.2430  144.8690 C   0  0  0  0  0  0  0  0  0  0  0  0
  189.8960  177.3830  147.2940 C   0  0  0  0  0  3  0  0  0  0  0  0
  188.3030  177.0100  137.5000 C   0  0  0  0  0  0  0  0  0  0  0  0
  187.4300  178.8260  136.1380 C   0  0  0  0  0  3  0  0  0  0  0  0
  188.2140  178.3800  137.2030 C   0  0  0  0  0  3  0  0  0  0  0  0
  186.7330  177.9080  135.3530 C   0  0  0  0  0  3  0  0  0  0  0  0
  186.8140  176.5430  135.6360 C   0  0  0  0  0  3  0  0  0  0  0  0
  187.5800  176.0790  136.7180 C   0  0  0  0  0  0  0  0  0  0  0  0
  188.6300  173.9370  135.9720 C   0  0  0  0  0  2  0  0  0  0  0  0
  187.1370  173.8270  135.7780 C   0  0  0  0  0  2  0  0  0  0  0  0
  187.6870  174.5970  136.9670 C   0  0  0  0  0  3  0  0  0  0  0  0
  1 12  2  0  0  0  0
  1  6  1  0  0  0  0
  2 23  1  6  0  0  0
  2 10  1  0  0  0  0
  3  4  2  0  0  0  0
  4 21  1  0  0  0  0
  5  2  1  0  0  0  0
  5 13  2  0  0  0  0
  6 14  2  0  0  0  0
  7 11  1  0  0  0  0
  8  1  1  0  0  0  0
  9  7  2  0  0  0  0
 10  7  1  0  0  0  0
 11  4  1  0  0  0  0
 12  5  1  0  0  0  0
 13  9  1  0  0  0  0
 14 13  1  0  0  0  0
 15 18  1  0  0  0  0
 16 19  1  0  0  0  0
 17 20  1  0  0  0  0
 19 15  2  0  0  0  0
 20 22  2  0  0  0  0
 21 16  2  0  0  0  0
 21 20  1  0  0  0  0
 22 15  1  0  0  0  0
 24 25  2  0  0  0  0
 25 23  1  0  0  0  0
 26 27  2  0  0  0  0
 26 24  1  0  0  0  0
 27 28  1  0  0  0  0
 28 31  1  0  0  0  0
 28 23  2  0  0  0  0
 29 31  1  0  0  0  0
 30 29  1  0  0  0  0
 30 31  1  0  0  0  0
M  END
>  <MODEL>
3

>  <REMARK>
 VINA RESULT:     -11.5      3.637      9.127
  Name = 
  3 active torsions:
  status: ('A' for Active; 'I' for Inactive)
    1  A    between atoms: C_4  and  C_5
    2  A    between atoms: C_9  and  C_22
    3  A    between atoms: C_30  and  C_31
                            x       y       z     vdW  Elec       q    Type
                         _______ _______ _______ _____ _____    ______ ____

>  <TORSDO>
F 3

$$$$
=
 OpenBabel10272400253D

 31 35  0  0  1  0  0  0  0  0999 V2000
  193.1430  176.6710  138.0130 C   0  0  0  0  0  0  0  0  0  0  0  0
  189.3910  176.4420  138.7140 C   0  0  1  0  0  3  0  0  0  0  0  0
  189.9260  177.4310  143.8870 O   0  0  0  0  0  0  0  0  0  0  0  0
  188.7100  177.5540  143.5810 C   0  0  0  0  0  0  0  0  0  0  0  0
  190.8680  176.7250  138.8630 C   0  0  0  0  0  0  0  0  0  0  0  0
  193.6240  177.0640  139.2640 C   0  0  0  0  0  3  0  0  0  0  0  0
  189.1640  177.2920  141.0790 C   0  0  0  0  0  0  0  0  0  0  0  0
  194.0510  176.4460  136.9410 N   0  0  0  0  0  1  0  0  0  0  0  0
  190.4580  177.2810  141.2260 N   0  0  0  0  0  0  0  0  0  0  0  0
  188.5480  177.2520  139.7080 C   0  0  0  0  0  2  0  0  0  0  0  0
  188.3010  177.4770  142.2070 N   0  0  0  0  0  2  0  0  0  0  0  0
  191.7720  176.4870  137.8160 C   0  0  0  0  0  3  0  0  0  0  0  0
  191.3600  177.1010  140.1260 C   0  0  0  0  0  0  0  0  0  0  0  0
  192.7340  177.2730  140.3220 C   0  0  0  0  0  3  0  0  0  0  0  0
  185.6840  178.2060  146.5580 C   0  0  0  0  0  0  0  0  0  0  0  0
  186.3690  178.0460  144.2460 C   0  0  0  0  0  3  0  0  0  0  0  0
  189.2870  177.4570  146.4580 O   0  0  0  0  0  1  0  0  0  0  0  0
  184.7180  178.4130  147.4850 F   0  0  0  0  0  0  0  0  0  0  0  0
  185.3710  178.2590  145.2010 C   0  0  0  0  0  3  0  0  0  0  0  0
  187.9970  177.7210  146.0130 C   0  0  0  0  0  0  0  0  0  0  0  0
  187.6900  177.7740  144.6340 C   0  0  0  0  0  0  0  0  0  0  0  0
  186.9930  177.9370  146.9620 C   0  0  0  0  0  3  0  0  0  0  0  0
  188.8800  176.6340  137.3100 C   0  0  0  0  0  0  0  0  0  0  0  0
  188.2850  178.1340  135.4910 C   0  0  0  0  0  3  0  0  0  0  0  0
  188.7200  177.9340  136.8010 C   0  0  0  0  0  3  0  0  0  0  0  0
  188.0140  177.0400  134.6710 C   0  0  0  0  0  3  0  0  0  0  0  0
  188.1710  175.7420  135.1630 C   0  0  0  0  0  3  0  0  0  0  0  0
  188.5850  175.5230  136.4870 C   0  0  0  0  0  0  0  0  0  0  0  0
  190.1020  173.5370  136.4530 C   0  0  0  0  0  2  0  0  0  0  0  0
  188.7990  173.1500  135.7960 C   0  0  0  0  0  2  0  0  0  0  0  0
  188.7930  174.1120  136.9730 C   0  0  0  0  0  3  0  0  0  0  0  0
  1  6  1  0  0  0  0
  2 23  1  6  0  0  0
  2  5  1  0  0  0  0
  2 10  1  0  0  0  0
  4  3  2  0  0  0  0
  4 21  1  0  0  0  0
  5 13  2  0  0  0  0
  6 14  2  0  0  0  0
  7  9  2  0  0  0  0
  7 11  1  0  0  0  0
  8  1  1  0  0  0  0
 10  7  1  0  0  0  0
 11  4  1  0  0  0  0
 12  1  2  0  0  0  0
 12  5  1  0  0  0  0
 13 14  1  0  0  0  0
 13  9  1  0  0  0  0
 15 22  1  0  0  0  0
 15 18  1  0  0  0  0
 16 21  2  0  0  0  0
 16 19  1  0  0  0  0
 19 15  2  0  0  0  0
 20 17  1  0  0  0  0
 20 22  2  0  0  0  0
 21 20  1  0  0  0  0
 24 25  2  0  0  0  0
 25 23  1  0  0  0  0
 26 27  2  0  0  0  0
 26 24  1  0  0  0  0
 27 28  1  0  0  0  0
 28 31  1  0  0  0  0
 28 23  2  0  0  0  0
 29 31  1  0  0  0  0
 30 29  1  0  0  0  0
 30 31  1  0  0  0  0
M  END
>  <MODEL>
4

>  <REMARK>
 VINA RESULT:     -11.4      3.632      9.259
  Name = 
  3 active torsions:
  status: ('A' for Active; 'I' for Inactive)
    1  A    between atoms: C_4  and  C_5
    2  A    between atoms: C_9  and  C_22
    3  A    between atoms: C_30  and  C_31
                            x       y       z     vdW  Elec       q    Type
                         _______ _______ _______ _____ _____    ______ ____

>  <TORSDO>
F 3

$$$$
=
 OpenBabel10272400253D

 31 35  0  0  1  0  0  0  0  0999 V2000
  192.3030  177.2980  140.6260 C   0  0  0  0  0  0  0  0  0  0  0  0
  189.9620  177.4790  143.6450 C   0  0  1  0  0  3  0  0  0  0  0  0
  185.7570  178.8980  140.7600 O   0  0  0  0  0  0  0  0  0  0  0  0
  185.3570  178.5470  141.9030 C   0  0  0  0  0  0  0  0  0  0  0  0
  190.4790  177.4210  142.2250 C   0  0  0  0  0  0  0  0  0  0  0  0
  191.4070  177.5350  139.5800 C   0  0  0  0  0  3  0  0  0  0  0  0
  187.6700  177.7300  142.6190 C   0  0  0  0  0  0  0  0  0  0  0  0
  193.6860  177.1120  140.3490 N   0  0  0  0  0  1  0  0  0  0  0  0
  188.1980  177.9180  141.4440 N   0  0  0  0  0  0  0  0  0  0  0  0
  188.4750  177.1130  143.7300 C   0  0  0  0  0  2  0  0  0  0  0  0
  186.2790  177.9800  142.8460 N   0  0  0  0  0  2  0  0  0  0  0  0
  191.8450  177.2570  141.9450 C   0  0  0  0  0  3  0  0  0  0  0  0
  189.5850  177.6780  141.1700 C   0  0  0  0  0  0  0  0  0  0  0  0
  190.0500  177.7310  139.8530 C   0  0  0  0  0  3  0  0  0  0  0  0
  181.2680  179.0630  143.1100 C   0  0  0  0  0  0  0  0  0  0  0  0
  183.6270  178.9840  143.6290 C   0  0  0  0  0  3  0  0  0  0  0  0
  183.1220  178.3690  140.0060 O   0  0  0  0  0  1  0  0  0  0  0  0
  179.9830  179.2280  143.5060 F   0  0  0  0  0  0  0  0  0  0  0  0
  182.3020  179.1550  144.0400 C   0  0  0  0  0  3  0  0  0  0  0  0
  182.8790  178.6280  141.3500 C   0  0  0  0  0  0  0  0  0  0  0  0
  183.9350  178.7200  142.2860 C   0  0  0  0  0  0  0  0  0  0  0  0
  181.5560  178.8000  141.7690 C   0  0  0  0  0  3  0  0  0  0  0  0
  190.7660  176.6490  144.6120 C   0  0  0  0  0  0  0  0  0  0  0  0
  192.3700  174.8630  144.9990 C   0  0  0  0  0  3  0  0  0  0  0  0
  191.5880  175.6190  144.1250 C   0  0  0  0  0  3  0  0  0  0  0  0
  192.3470  175.1330  146.3670 C   0  0  0  0  0  3  0  0  0  0  0  0
  191.5360  176.1560  146.8630 C   0  0  0  0  0  3  0  0  0  0  0  0
  190.7240  176.9100  146.0010 C   0  0  0  0  0  0  0  0  0  0  0  0
  189.6060  177.8290  148.0380 C   0  0  0  0  0  2  0  0  0  0  0  0
  188.5430  177.5210  147.0110 C   0  0  0  0  0  2  0  0  0  0  0  0
  189.8990  178.0390  146.5600 C   0  0  0  0  0  3  0  0  0  0  0  0
  1 12  1  0  0  0  0
  2 10  1  0  0  0  0
  2 23  1  1  0  0  0
  3  4  2  0  0  0  0
  4 21  1  0  0  0  0
  4 11  1  0  0  0  0
  5  2  1  0  0  0  0
  6 14  1  0  0  0  0
  6  1  2  0  0  0  0
  7 11  1  0  0  0  0
  7 10  1  0  0  0  0
  8  1  1  0  0  0  0
  9  7  2  0  0  0  0
 12  5  2  0  0  0  0
 13  9  1  0  0  0  0
 13  5  1  0  0  0  0
 14 13  2  0  0  0  0
 15 18  1  0  0  0  0
 15 19  1  0  0  0  0
 16 19  2  0  0  0  0
 17 20  1  0  0  0  0
 20 22  1  0  0  0  0
 20 21  2  0  0  0  0
 21 16  1  0  0  0  0
 22 15  2  0  0  0  0
 23 28  1  0  0  0  0
 24 26  2  0  0  0  0
 25 23  2  0  0  0  0
 25 24  1  0  0  0  0
 26 27  1  0  0  0  0
 28 31  1  0  0  0  0
 28 27  2  0  0  0  0
 30 29  1  0  0  0  0
 31 30  1  0  0  0  0
 31 29  1  0  0  0  0
M  END
>  <MODEL>
5

>  <REMARK>
 VINA RESULT:     -11.2      3.556      7.300
  Name = 
  3 active torsions:
  status: ('A' for Active; 'I' for Inactive)
    1  A    between atoms: C_4  and  C_5
    2  A    between atoms: C_9  and  C_22
    3  A    between atoms: C_30  and  C_31
                            x       y       z     vdW  Elec       q    Type
                         _______ _______ _______ _____ _____    ______ ____

>  <TORSDO>
F 3

$$$$
=
 OpenBabel10272400253D

 31 35  0  0  1  0  0  0  0  0999 V2000
  187.2630  178.3630  136.6050 C   0  0  0  0  0  0  0  0  0  0  0  0
  185.0770  178.0380  139.7260 C   0  0  1  0  0  3  0  0  0  0  0  0
  189.2010  177.5910  143.0140 O   0  0  0  0  0  0  0  0  0  0  0  0
  188.1670  177.8190  143.6990 C   0  0  0  0  0  0  0  0  0  0  0  0
  186.2680  178.2380  138.8170 C   0  0  0  0  0  0  0  0  0  0  0  0
  188.5380  178.3950  137.1750 C   0  0  0  0  0  3  0  0  0  0  0  0
  186.7160  178.2280  141.6350 C   0  0  0  0  0  0  0  0  0  0  0  0
  187.1150  178.4130  135.1900 N   0  0  0  0  0  1  0  0  0  0  0  0
  187.7170  178.1480  140.8060 N   0  0  0  0  0  0  0  0  0  0  0  0
  185.3370  178.5710  141.1410 C   0  0  0  0  0  2  0  0  0  0  0  0
  186.9240  178.1230  143.0480 N   0  0  0  0  0  2  0  0  0  0  0  0
  186.1320  178.2690  137.4210 C   0  0  0  0  0  3  0  0  0  0  0  0
  187.5560  178.2500  139.3850 C   0  0  0  0  0  0  0  0  0  0  0  0
  188.6840  178.3320  138.5640 C   0  0  0  0  0  3  0  0  0  0  0  0
  188.2280  177.7080  147.9920 C   0  0  0  0  0  0  0  0  0  0  0  0
  187.0610  178.0710  145.9070 C   0  0  0  0  0  3  0  0  0  0  0  0
  190.5820  177.1310  145.2210 O   0  0  0  0  0  1  0  0  0  0  0  0
  188.2320  177.6770  149.3460 F   0  0  0  0  0  0  0  0  0  0  0  0
  187.0620  178.0380  147.3040 C   0  0  0  0  0  3  0  0  0  0  0  0
  189.4010  177.4360  145.8860 C   0  0  0  0  0  0  0  0  0  0  0  0
  188.2230  177.7710  145.1790 C   0  0  0  0  0  0  0  0  0  0  0  0
  189.3940  177.4070  147.2840 C   0  0  0  0  0  3  0  0  0  0  0  0
  183.7980  178.6120  139.1740 C   0  0  0  0  0  0  0  0  0  0  0  0
  182.4870  180.5570  138.5300 C   0  0  0  0  0  3  0  0  0  0  0  0
  183.6480  180.0050  139.0740 C   0  0  0  0  0  3  0  0  0  0  0  0
  181.4680  179.7240  138.0720 C   0  0  0  0  0  3  0  0  0  0  0  0
  181.6040  178.3370  138.1640 C   0  0  0  0  0  3  0  0  0  0  0  0
  182.7550  177.7660  138.7300 C   0  0  0  0  0  0  0  0  0  0  0  0
  183.3810  175.7230  137.4330 C   0  0  0  0  0  2  0  0  0  0  0  0
  181.9190  175.6260  137.7950 C   0  0  0  0  0  2  0  0  0  0  0  0
  182.8950  176.2660  138.7680 C   0  0  0  0  0  3  0  0  0  0  0  0
  1  6  2  0  0  0  0
  1 12  1  0  0  0  0
  2 23  1  6  0  0  0
  2 10  1  0  0  0  0
  3  4  2  0  0  0  0
  4 21  1  0  0  0  0
  5 13  1  0  0  0  0
  5  2  1  0  0  0  0
  6 14  1  0  0  0  0
  7 11  1  0  0  0  0
  8  1  1  0  0  0  0
  9  7  2  0  0  0  0
 10  7  1  0  0  0  0
 11  4  1  0  0  0  0
 12  5  2  0  0  0  0
 13  9  1  0  0  0  0
 14 13  2  0  0  0  0
 15 18  1  0  0  0  0
 16 19  2  0  0  0  0
 17 20  1  0  0  0  0
 19 15  1  0  0  0  0
 20 22  1  0  0  0  0
 21 20  2  0  0  0  0
 21 16  1  0  0  0  0
 22 15  2  0  0  0  0
 24 25  2  0  0  0  0
 25 23  1  0  0  0  0
 26 27  2  0  0  0  0
 26 24  1  0  0  0  0
 27 28  1  0  0  0  0
 28 31  1  0  0  0  0
 28 23  2  0  0  0  0
 29 30  1  0  0  0  0
 29 31  1  0  0  0  0
 30 31  1  0  0  0  0
M  END
>  <MODEL>
6

>  <REMARK>
 VINA RESULT:     -11.1      4.338      8.667
  Name = 
  3 active torsions:
  status: ('A' for Active; 'I' for Inactive)
    1  A    between atoms: C_4  and  C_5
    2  A    between atoms: C_9  and  C_22
    3  A    between atoms: C_30  and  C_31
                            x       y       z     vdW  Elec       q    Type
                         _______ _______ _______ _____ _____    ______ ____

>  <TORSDO>
F 3

$$$$
=
 OpenBabel10272400253D

 31 35  0  0  1  0  0  0  0  0999 V2000
  186.9630  178.0100  146.9900 C   0  0  0  0  0  0  0  0  0  0  0  0
  187.6240  177.6600  143.2390 C   0  0  1  0  0  3  0  0  0  0  0  0
  182.6010  178.6470  141.8900 O   0  0  0  0  0  0  0  0  0  0  0  0
  183.3170  178.7330  140.8560 C   0  0  0  0  0  0  0  0  0  0  0  0
  186.9680  177.9880  144.5610 C   0  0  0  0  0  0  0  0  0  0  0  0
  185.6260  178.4140  146.9870 C   0  0  0  0  0  3  0  0  0  0  0  0
  185.4960  178.4950  142.1690 C   0  0  0  0  0  0  0  0  0  0  0  0
  187.6460  177.8170  148.2230 N   0  0  0  0  0  1  0  0  0  0  0  0
  184.9050  178.5230  143.3290 N   0  0  0  0  0  0  0  0  0  0  0  0
  186.9970  178.4390  142.0760 C   0  0  0  0  0  2  0  0  0  0  0  0
  184.7460  178.6480  140.9590 N   0  0  0  0  0  2  0  0  0  0  0  0
  187.6280  177.7830  145.7820 C   0  0  0  0  0  3  0  0  0  0  0  0
  185.6150  178.3760  144.5650 C   0  0  0  0  0  0  0  0  0  0  0  0
  184.9510  178.5900  145.7760 C   0  0  0  0  0  3  0  0  0  0  0  0
  181.4790  179.3630  137.0260 C   0  0  0  0  0  0  0  0  0  0  0  0
  182.0990  180.1530  139.2240 C   0  0  0  0  0  3  0  0  0  0  0  0
  183.2360  176.6500  138.7880 O   0  0  0  0  0  1  0  0  0  0  0  0
  180.8960  179.5770  135.8220 F   0  0  0  0  0  0  0  0  0  0  0  0
  181.4980  180.3760  137.9820 C   0  0  0  0  0  3  0  0  0  0  0  0
  182.6670  177.8950  138.5480 C   0  0  0  0  0  0  0  0  0  0  0  0
  182.6910  178.9170  139.5250 C   0  0  0  0  0  0  0  0  0  0  0  0
  182.0630  178.1260  137.3080 C   0  0  0  0  0  3  0  0  0  0  0  0
  189.1200  177.8400  143.2490 C   0  0  0  0  0  0  0  0  0  0  0  0
  191.1400  178.4590  144.4520 C   0  0  0  0  0  3  0  0  0  0  0  0
  189.7530  178.3200  144.4080 C   0  0  0  0  0  3  0  0  0  0  0  0
  191.9120  178.1120  143.3440 C   0  0  0  0  0  3  0  0  0  0  0  0
  191.2950  177.6320  142.1860 C   0  0  0  0  0  3  0  0  0  0  0  0
  189.8980  177.5090  142.1170 C   0  0  0  0  0  0  0  0  0  0  0  0
  190.3210  176.5470  139.8490 C   0  0  0  0  0  2  0  0  0  0  0  0
  189.5590  177.8390  139.6820 C   0  0  0  0  0  2  0  0  0  0  0  0
  189.2670  176.9410  140.8720 C   0  0  0  0  0  3  0  0  0  0  0  0
  1  8  1  0  0  0  0
  2 23  1  1  0  0  0
  2  5  1  0  0  0  0
  4 11  1  0  0  0  0
  4  3  2  0  0  0  0
  5 13  2  0  0  0  0
  5 12  1  0  0  0  0
  6  1  1  0  0  0  0
  7  9  2  0  0  0  0
  9 13  1  0  0  0  0
 10  7  1  0  0  0  0
 10  2  1  0  0  0  0
 11  7  1  0  0  0  0
 12  1  2  0  0  0  0
 13 14  1  0  0  0  0
 14  6  2  0  0  0  0
 15 22  2  0  0  0  0
 15 19  1  0  0  0  0
 16 21  1  0  0  0  0
 18 15  1  0  0  0  0
 19 16  2  0  0  0  0
 20 17  1  0  0  0  0
 20 21  2  0  0  0  0
 21  4  1  0  0  0  0
 22 20  1  0  0  0  0
 23 25  1  0  0  0  0
 25 24  2  0  0  0  0
 26 24  1  0  0  0  0
 27 26  2  0  0  0  0
 28 27  1  0  0  0  0
 28 23  2  0  0  0  0
 29 31  1  0  0  0  0
 30 29  1  0  0  0  0
 30 31  1  0  0  0  0
 31 28  1  0  0  0  0
M  END
>  <MODEL>
7

>  <REMARK>
 VINA RESULT:     -10.9      3.953      6.607
  Name = 
  3 active torsions:
  status: ('A' for Active; 'I' for Inactive)
    1  A    between atoms: C_4  and  C_5
    2  A    between atoms: C_9  and  C_22
    3  A    between atoms: C_30  and  C_31
                            x       y       z     vdW  Elec       q    Type
                         _______ _______ _______ _____ _____    ______ ____

>  <TORSDO>
F 3

$$$$
=
 OpenBabel10272400253D

 31 35  0  0  1  0  0  0  0  0999 V2000
  188.5580  177.6220  147.4910 C   0  0  0  0  0  0  0  0  0  0  0  0
  187.2930  178.3560  143.9570 C   0  0  1  0  0  3  0  0  0  0  0  0
  191.7110  176.6110  141.6200 O   0  0  0  0  0  0  0  0  0  0  0  0
  190.8140  176.7270  140.7420 C   0  0  0  0  0  0  0  0  0  0  0  0
  188.1100  177.8220  145.1120 C   0  0  0  0  0  0  0  0  0  0  0  0
  189.7750  176.9940  147.2130 C   0  0  0  0  0  3  0  0  0  0  0  0
  188.9960  177.2440  142.4620 C   0  0  0  0  0  0  0  0  0  0  0  0
  188.1630  177.8400  148.8400 N   0  0  0  0  0  1  0  0  0  0  0  0
  189.7760  177.0290  143.4830 N   0  0  0  0  0  0  0  0  0  0  0  0
  187.5410  177.5660  142.6660 C   0  0  0  0  0  2  0  0  0  0  0  0
  189.4690  177.0520  141.1240 N   0  0  0  0  0  2  0  0  0  0  0  0
  187.7350  178.0490  146.4460 C   0  0  0  0  0  3  0  0  0  0  0  0
  189.3450  177.2060  144.8380 C   0  0  0  0  0  0  0  0  0  0  0  0
  190.1700  176.7920  145.8880 C   0  0  0  0  0  3  0  0  0  0  0  0
  191.6540  176.1460  136.5710 C   0  0  0  0  0  0  0  0  0  0  0  0
  190.1110  176.1550  138.4300 C   0  0  0  0  0  3  0  0  0  0  0  0
  193.4990  177.0950  139.6120 O   0  0  0  0  0  1  0  0  0  0  0  0
  191.9040  175.9590  135.2520 F   0  0  0  0  0  0  0  0  0  0  0  0
  190.3660  175.9620  137.0700 C   0  0  0  0  0  3  0  0  0  0  0  0
  192.4410  176.7190  138.7920 C   0  0  0  0  0  0  0  0  0  0  0  0
  191.1380  176.5350  139.3080 C   0  0  0  0  0  0  0  0  0  0  0  0
  192.6890  176.5240  137.4300 C   0  0  0  0  0  3  0  0  0  0  0  0
  185.8180  178.4370  144.2510 C   0  0  0  0  0  0  0  0  0  0  0  0
  184.0240  178.7880  145.8560 C   0  0  0  0  0  3  0  0  0  0  0  0
  185.3840  178.6700  145.5670 C   0  0  0  0  0  3  0  0  0  0  0  0
  183.0830  178.6820  144.8320 C   0  0  0  0  0  3  0  0  0  0  0  0
  183.5000  178.4520  143.5200 C   0  0  0  0  0  3  0  0  0  0  0  0
  184.8640  178.3080  143.2160 C   0  0  0  0  0  0  0  0  0  0  0  0
  184.8540  179.2840  140.9150 C   0  0  0  0  0  2  0  0  0  0  0  0
  184.0610  177.9990  140.8890 C   0  0  0  0  0  2  0  0  0  0  0  0
  185.2850  178.1110  141.7830 C   0  0  0  0  0  3  0  0  0  0  0  0
  1  8  1  0  0  0  0
  2 23  1  1  0  0  0
  2  5  1  0  0  0  0
  4 11  1  0  0  0  0
  4  3  2  0  0  0  0
  5 12  1  0  0  0  0
  6  1  1  0  0  0  0
  7 10  1  0  0  0  0
  7  9  2  0  0  0  0
  9 13  1  0  0  0  0
 10  2  1  0  0  0  0
 11  7  1  0  0  0  0
 12  1  2  0  0  0  0
 13  5  2  0  0  0  0
 13 14  1  0  0  0  0
 14  6  2  0  0  0  0
 15 19  2  0  0  0  0
 15 22  1  0  0  0  0
 16 21  2  0  0  0  0
 18 15  1  0  0  0  0
 19 16  1  0  0  0  0
 20 21  1  0  0  0  0
 20 17  1  0  0  0  0
 21  4  1  0  0  0  0
 22 20  2  0  0  0  0
 23 25  1  0  0  0  0
 25 24  2  0  0  0  0
 26 24  1  0  0  0  0
 27 26  2  0  0  0  0
 28 27  1  0  0  0  0
 28 23  2  0  0  0  0
 29 31  1  0  0  0  0
 30 29  1  0  0  0  0
 30 31  1  0  0  0  0
 31 28  1  0  0  0  0
M  END
>  <MODEL>
8

>  <REMARK>
 VINA RESULT:     -10.6      1.754      4.438
  Name = 
  3 active torsions:
  status: ('A' for Active; 'I' for Inactive)
    1  A    between atoms: C_4  and  C_5
    2  A    between atoms: C_9  and  C_22
    3  A    between atoms: C_30  and  C_31
                            x       y       z     vdW  Elec       q    Type
                         _______ _______ _______ _____ _____    ______ ____

>  <TORSDO>
F 3

$$$$
=
 OpenBabel10272400253D

 31 35  0  0  1  0  0  0  0  0999 V2000
  181.0900  179.9550  136.7670 C   0  0  0  0  0  0  0  0  0  0  0  0
  182.7710  176.9910  138.5040 C   0  0  1  0  0  3  0  0  0  0  0  0
  184.7420  179.9420  142.4330 O   0  0  0  0  0  0  0  0  0  0  0  0
  184.8350  178.7280  142.7590 C   0  0  0  0  0  0  0  0  0  0  0  0
  182.1980  178.3630  138.2290 C   0  0  0  0  0  0  0  0  0  0  0  0
  181.3440  180.9780  137.6830 C   0  0  0  0  0  3  0  0  0  0  0  0
  183.5030  177.9300  140.7290 C   0  0  0  0  0  0  0  0  0  0  0  0
  180.3960  180.2380  135.5570 N   0  0  0  0  0  1  0  0  0  0  0  0
  183.2110  179.1360  140.3350 N   0  0  0  0  0  0  0  0  0  0  0  0
  182.9490  176.7330  140.0050 C   0  0  0  0  0  2  0  0  0  0  0  0
  184.2470  177.7120  141.9330 N   0  0  0  0  0  2  0  0  0  0  0  0
  181.5280  178.6550  137.0300 C   0  0  0  0  0  3  0  0  0  0  0  0
  182.4680  179.4020  139.1390 C   0  0  0  0  0  0  0  0  0  0  0  0
  182.0380  180.7030  138.8650 C   0  0  0  0  0  3  0  0  0  0  0  0
  187.0010  177.5590  146.2790 C   0  0  0  0  0  0  0  0  0  0  0  0
  186.8130  177.7230  143.8750 C   0  0  0  0  0  3  0  0  0  0  0  0
  183.7860  179.1600  145.4670 O   0  0  0  0  0  1  0  0  0  0  0  0
  187.6960  177.1840  147.3800 F   0  0  0  0  0  0  0  0  0  0  0  0
  187.5320  177.3370  145.0090 C   0  0  0  0  0  3  0  0  0  0  0  0
  185.0260  178.5570  145.2860 C   0  0  0  0  0  0  0  0  0  0  0  0
  185.5560  178.3370  143.9940 C   0  0  0  0  0  0  0  0  0  0  0  0
  185.7510  178.1670  146.4160 C   0  0  0  0  0  3  0  0  0  0  0  0
  181.9880  175.8740  137.8660 C   0  0  0  0  0  0  0  0  0  0  0  0
  179.9830  174.4990  137.8040 C   0  0  0  0  0  3  0  0  0  0  0  0
  180.7430  175.5040  138.4020 C   0  0  0  0  0  3  0  0  0  0  0  0
  180.4540  173.8560  136.6590 C   0  0  0  0  0  3  0  0  0  0  0  0
  181.6880  174.2140  136.1150 C   0  0  0  0  0  3  0  0  0  0  0  0
  182.4760  175.2080  136.7180 C   0  0  0  0  0  0  0  0  0  0  0  0
  183.5510  176.5030  134.8690 C   0  0  0  0  0  2  0  0  0  0  0  0
  183.8670  175.0400  134.6710 C   0  0  0  0  0  2  0  0  0  0  0  0
  183.7800  175.6080  136.0780 C   0  0  0  0  0  3  0  0  0  0  0  0
  1 12  2  0  0  0  0
  1  6  1  0  0  0  0
  2 23  1  1  0  0  0
  2 10  1  0  0  0  0
  3  4  2  0  0  0  0
  4 21  1  0  0  0  0
  5  2  1  0  0  0  0
  5 13  2  0  0  0  0
  6 14  2  0  0  0  0
  7 11  1  0  0  0  0
  8  1  1  0  0  0  0
  9  7  2  0  0  0  0
 10  7  1  0  0  0  0
 11  4  1  0  0  0  0
 12  5  1  0  0  0  0
 13  9  1  0  0  0  0
 14 13  1  0  0  0  0
 15 22  1  0  0  0  0
 15 18  1  0  0  0  0
 16 21  2  0  0  0  0
 16 19  1  0  0  0  0
 19 15  2  0  0  0  0
 20 17  1  0  0  0  0
 20 22  2  0  0  0  0
 21 20  1  0  0  0  0
 23 25  1  0  0  0  0
 24 25  2  0  0  0  0
 26 24  1  0  0  0  0
 27 26  2  0  0  0  0
 27 28  1  0  0  0  0
 28 23  2  0  0  0  0
 29 31  1  0  0  0  0
 30 29  1  0  0  0  0
 30 31  1  0  0  0  0
 31 28  1  0  0  0  0
M  END
>  <MODEL>
9

>  <REMARK>
 VINA RESULT:     -10.4      5.965      9.687
  Name = 
  3 active torsions:
  status: ('A' for Active; 'I' for Inactive)
    1  A    between atoms: C_4  and  C_5
    2  A    between atoms: C_9  and  C_22
    3  A    between atoms: C_30  and  C_31
                            x       y       z     vdW  Elec       q    Type
                         _______ _______ _______ _____ _____    ______ ____

>  <TORSDO>
F 3

$$$$
