=
 OpenBabel10272413373D

 32 36  0  0  1  0  0  0  0  0999 V2000
  187.2720  176.8690  136.4020 C   0  0  0  0  0  0  0  0  0  0  0  0
  188.9580  177.9400  141.0200 C   0  0  0  0  0  0  0  0  0  0  0  0
  188.1550  177.6790  143.4000 C   0  0  0  0  0  0  0  0  0  0  0  0
  188.4550  177.6510  144.8440 C   0  0  0  0  0  0  0  0  0  0  0  0
  187.6180  177.8270  139.0080 C   0  0  0  0  0  0  0  0  0  0  0  0
  189.7190  176.6820  139.1220 N   0  0  0  0  0  0  0  0  0  0  0  0
  189.0250  177.6910  147.5890 C   0  0  0  0  0  3  0  0  0  0  0  0
  188.4200  176.5240  137.1220 C   0  0  0  0  0  3  0  0  0  0  0  0
  189.9310  177.1240  140.3920 C   0  0  0  0  0  0  0  0  0  0  0  0
  191.2520  176.8070  141.0530 C   0  0  2  0  0  3  0  0  0  0  0  0
  190.5600  178.3320  142.9360 C   0  0  2  0  0  3  0  0  0  0  0  0
  187.8010  177.1910  147.1360 C   0  0  0  0  0  3  0  0  0  0  0  0
  186.2940  177.6830  136.9890 C   0  0  0  0  0  3  0  0  0  0  0  0
  188.5990  177.0010  138.4240 C   0  0  0  0  0  0  0  0  0  0  0  0
  187.5150  177.1730  145.7680 C   0  0  0  0  0  3  0  0  0  0  0  0
  186.4670  178.1650  138.2900 C   0  0  0  0  0  3  0  0  0  0  0  0
  191.2290  176.9980  142.5710 C   0  0  1  0  0  3  0  0  0  0  0  0
  190.6710  178.5990  144.3690 N   0  0  0  0  0  2  0  0  0  0  0  0
  187.8060  178.2900  140.3080 C   0  0  0  0  0  3  0  0  0  0  0  0
  187.0810  177.1720  142.9740 O   0  0  0  0  0  0  0  0  0  0  0  0
  189.9690  178.1640  146.6730 C   0  0  0  0  0  3  0  0  0  0  0  0
  189.0960  178.3990  142.4540 C   0  0  1  0  0  3  0  0  0  0  0  0
  189.6920  178.1370  145.3030 C   0  0  0  0  0  0  0  0  0  0  0  0
  193.0630  176.9080  139.4910 O   0  0  0  0  0  1  0  0  0  0  0  0
  192.3720  177.6450  140.4520 C   0  0  0  0  0  2  0  0  0  0  0  0
  191.5790  175.2760  143.9190 C   0  0  0  0  0  1  0  0  0  0  0  0
  190.5840  175.9160  143.1800 O   0  0  0  0  0  0  0  0  0  0  0  0
  187.0700  176.3400  135.0270 C   0  0  0  0  0  2  0  0  0  0  0  0
  186.9830  174.9230  135.0690 O   0  0  0  0  0  0  0  0  0  0  0  0
  185.9190  174.2590  135.6840 C   0  0  0  0  0  0  0  0  0  0  0  0
  184.7650  174.3580  135.1920 O   0  0  0  0  0  0  0  0  0  0  0  0
  186.1160  173.4330  136.9110 C   0  0  0  0  0  1  0  0  0  0  0  0
  1 13  2  0  0  0  0
  1  8  1  0  0  0  0
  3  4  1  0  0  0  0
  4 23  2  0  0  0  0
  4 15  1  0  0  0  0
  5 19  1  0  0  0  0
  6  9  2  0  0  0  0
  8 14  2  0  0  0  0
  9  2  1  0  0  0  0
  9 10  1  0  0  0  0
 10 25  1  6  0  0  0
 10 17  1  0  0  0  0
 11 18  1  1  0  0  0
 12  7  1  0  0  0  0
 13 16  1  0  0  0  0
 14  5  1  0  0  0  0
 14  6  1  0  0  0  0
 15 12  2  0  0  0  0
 16  5  2  0  0  0  0
 17 11  1  0  0  0  0
 17 27  1  1  0  0  0
 18 23  1  0  0  0  0
 19  2  2  0  0  0  0
 20  3  2  0  0  0  0
 21  7  2  0  0  0  0
 22  2  1  6  0  0  0
 22 11  1  0  0  0  0
 22  3  1  0  0  0  0
 23 21  1  0  0  0  0
 24 25  1  0  0  0  0
 27 26  1  0  0  0  0
 28 29  1  0  0  0  0
 28  1  1  0  0  0  0
 29 30  1  0  0  0  0
 30 32  1  0  0  0  0
 31 30  2  0  0  0  0
M  END
>  <MODEL>
1

>  <REMARK>
 VINA RESULT:      -7.7      0.000      0.000
  Name = 
  5 active torsions:
  status: ('A' for Active; 'I' for Inactive)
    1  A    between atoms: C_1  and  O_10
    2  A    between atoms: C_2  and  C_24
    3  A    between atoms: O_10  and  C_24
    4  A    between atoms: C_13  and  C_15
    5  A    between atoms: O_25  and  C_26
                            x       y       z     vdW  Elec       q    Type
                         _______ _______ _______ _____ _____    ______ ____

>  <TORSDO>
F 5

$$$$
=
 OpenBabel10272413373D

 32 36  0  0  1  0  0  0  0  0999 V2000
  187.8920  176.8430  136.2310 C   0  0  0  0  0  0  0  0  0  0  0  0
  189.1970  177.9450  140.9640 C   0  0  0  0  0  0  0  0  0  0  0  0
  188.2200  177.6620  143.2760 C   0  0  0  0  0  0  0  0  0  0  0  0
  188.4100  177.6390  144.7380 C   0  0  0  0  0  0  0  0  0  0  0  0
  188.0170  177.8040  138.8560 C   0  0  0  0  0  0  0  0  0  0  0  0
  190.1290  176.7070  139.1300 N   0  0  0  0  0  0  0  0  0  0  0  0
  188.7680  177.6880  147.5190 C   0  0  0  0  0  3  0  0  0  0  0  0
  188.9900  176.5230  137.0370 C   0  0  0  0  0  3  0  0  0  0  0  0
  190.2330  177.1520  140.4120 C   0  0  0  0  0  0  0  0  0  0  0  0
  191.5070  176.8640  141.1720 C   0  0  2  0  0  3  0  0  0  0  0  0
  190.6380  178.3710  142.9970 C   0  0  2  0  0  3  0  0  0  0  0  0
  187.5940  177.1610  146.9740 C   0  0  0  0  0  3  0  0  0  0  0  0
  186.8550  177.6330  136.7410 C   0  0  0  0  0  3  0  0  0  0  0  0
  189.0580  177.0020  138.3480 C   0  0  0  0  0  0  0  0  0  0  0  0
  187.4130  177.1390  145.5880 C   0  0  0  0  0  3  0  0  0  0  0  0
  186.9170  178.1170  138.0520 C   0  0  0  0  0  3  0  0  0  0  0  0
  191.3640  177.0530  142.6840 C   0  0  1  0  0  3  0  0  0  0  0  0
  190.6340  178.6380  144.4340 N   0  0  0  0  0  2  0  0  0  0  0  0
  188.0940  178.2690  140.1650 C   0  0  0  0  0  3  0  0  0  0  0  0
  187.1940  177.1310  142.7690 O   0  0  0  0  0  0  0  0  0  0  0  0
  189.7680  178.1840  146.6770 C   0  0  0  0  0  3  0  0  0  0  0  0
  189.2140  178.4050  142.4040 C   0  0  1  0  0  3  0  0  0  0  0  0
  189.5970  178.1520  145.2900 C   0  0  0  0  0  0  0  0  0  0  0  0
  193.3640  177.0470  139.6730 O   0  0  0  0  0  1  0  0  0  0  0  0
  192.6500  177.7290  140.6590 C   0  0  0  0  0  2  0  0  0  0  0  0
  191.6650  175.3040  144.0100 C   0  0  0  0  0  1  0  0  0  0  0  0
  190.6990  175.9560  143.2430 O   0  0  0  0  0  0  0  0  0  0  0  0
  187.8090  176.3110  134.8450 C   0  0  0  0  0  2  0  0  0  0  0  0
  188.7280  175.2390  134.6880 O   0  0  0  0  0  0  0  0  0  0  0  0
  188.3300  173.9020  134.7350 C   0  0  0  0  0  0  0  0  0  0  0  0
  187.1230  173.6110  134.5300 O   0  0  0  0  0  0  0  0  0  0  0  0
  189.3010  172.8060  135.0230 C   0  0  0  0  0  1  0  0  0  0  0  0
  1 13  2  0  0  0  0
  1  8  1  0  0  0  0
  3  4  1  0  0  0  0
  4 23  2  0  0  0  0
  4 15  1  0  0  0  0
  5 19  1  0  0  0  0
  6  9  2  0  0  0  0
  8 14  2  0  0  0  0
  9  2  1  0  0  0  0
  9 10  1  0  0  0  0
 10 25  1  6  0  0  0
 10 17  1  0  0  0  0
 11 18  1  1  0  0  0
 12  7  1  0  0  0  0
 13 16  1  0  0  0  0
 14  5  1  0  0  0  0
 14  6  1  0  0  0  0
 15 12  2  0  0  0  0
 16  5  2  0  0  0  0
 17 11  1  0  0  0  0
 17 27  1  6  0  0  0
 18 23  1  0  0  0  0
 19  2  2  0  0  0  0
 20  3  2  0  0  0  0
 21  7  2  0  0  0  0
 22  2  1  6  0  0  0
 22 11  1  0  0  0  0
 22  3  1  0  0  0  0
 23 21  1  0  0  0  0
 24 25  1  0  0  0  0
 27 26  1  0  0  0  0
 28  1  1  0  0  0  0
 29 30  1  0  0  0  0
 29 28  1  0  0  0  0
 30 32  1  0  0  0  0
 31 30  2  0  0  0  0
M  END
>  <MODEL>
2

>  <REMARK>
 VINA RESULT:      -7.5      0.964      1.036
  Name = 
  5 active torsions:
  status: ('A' for Active; 'I' for Inactive)
    1  A    between atoms: C_1  and  O_10
    2  A    between atoms: C_2  and  C_24
    3  A    between atoms: O_10  and  C_24
    4  A    between atoms: C_13  and  C_15
    5  A    between atoms: O_25  and  C_26
                            x       y       z     vdW  Elec       q    Type
                         _______ _______ _______ _____ _____    ______ ____

>  <TORSDO>
F 5

$$$$
=
 OpenBabel10272413373D

 32 36  0  0  1  0  0  0  0  0999 V2000
  188.3970  177.5680  143.8920 C   0  0  0  0  0  0  0  0  0  0  0  0
  184.6560  178.8130  140.7670 C   0  0  0  0  0  0  0  0  0  0  0  0
  183.9210  178.2320  138.4220 C   0  0  0  0  0  0  0  0  0  0  0  0
  182.8660  178.2120  137.3920 C   0  0  0  0  0  0  0  0  0  0  0  0
  186.8420  178.4520  141.7420 C   0  0  0  0  0  0  0  0  0  0  0  0
  184.8650  177.8950  142.9760 N   0  0  0  0  0  0  0  0  0  0  0  0
  180.8760  178.2630  135.4170 C   0  0  0  0  0  3  0  0  0  0  0  0
  187.0020  177.5010  143.9700 C   0  0  0  0  0  3  0  0  0  0  0  0
  184.0680  178.3130  141.9550 C   0  0  0  0  0  0  0  0  0  0  0  0
  182.5720  178.3220  142.1680 C   0  0  2  0  0  3  0  0  0  0  0  0
  182.3670  179.5160  139.9580 C   0  0  2  0  0  3  0  0  0  0  0  0
  182.0210  177.4830  135.2360 C   0  0  0  0  0  3  0  0  0  0  0  0
  189.0120  178.0660  142.7370 C   0  0  0  0  0  3  0  0  0  0  0  0
  186.2210  177.9430  142.9000 C   0  0  0  0  0  0  0  0  0  0  0  0
  183.0150  177.4580  136.2190 C   0  0  0  0  0  3  0  0  0  0  0  0
  188.2360  178.5110  141.6620 C   0  0  0  0  0  3  0  0  0  0  0  0
  181.7770  178.4250  140.8650 C   0  0  1  0  0  3  0  0  0  0  0  0
  181.5250  179.7310  138.7820 N   0  0  0  0  0  2  0  0  0  0  0  0
  186.0510  178.8820  140.6800 C   0  0  0  0  0  3  0  0  0  0  0  0
  184.9290  177.4820  138.3000 O   0  0  0  0  0  0  0  0  0  0  0  0
  180.7180  179.0130  136.5860 C   0  0  0  0  0  3  0  0  0  0  0  0
  183.8290  179.2200  139.5680 C   0  0  1  0  0  3  0  0  0  0  0  0
  181.7040  178.9820  137.5770 C   0  0  0  0  0  0  0  0  0  0  0  0
  180.7800  179.6120  143.0910 O   0  0  0  0  0  1  0  0  0  0  0  0
  182.1660  179.4540  143.1010 C   0  0  0  0  0  2  0  0  0  0  0  0
  180.4220  176.7630  140.3090 C   0  0  0  0  0  1  0  0  0  0  0  0
  181.7490  177.1820  140.2210 O   0  0  0  0  0  0  0  0  0  0  0  0
  189.2290  177.0730  145.0220 C   0  0  0  0  0  2  0  0  0  0  0  0
  188.4960  177.1760  146.2350 O   0  0  0  0  0  0  0  0  0  0  0  0
  189.1150  177.4330  147.4600 C   0  0  0  0  0  0  0  0  0  0  0  0
  190.3160  177.0970  147.6260 O   0  0  0  0  0  0  0  0  0  0  0  0
  188.3860  178.0970  148.5800 C   0  0  0  0  0  1  0  0  0  0  0  0
  1  8  1  0  0  0  0
  1 28  1  0  0  0  0
  2  9  1  0  0  0  0
  4 23  1  0  0  0  0
  4  3  1  0  0  0  0
  5 14  1  0  0  0  0
  7 21  1  0  0  0  0
  9 10  1  0  0  0  0
  9  6  2  0  0  0  0
 10 25  1  1  0  0  0
 11 18  1  6  0  0  0
 11 17  1  0  0  0  0
 12  7  2  0  0  0  0
 12 15  1  0  0  0  0
 13  1  2  0  0  0  0
 14  6  1  0  0  0  0
 14  8  2  0  0  0  0
 15  4  2  0  0  0  0
 16  5  2  0  0  0  0
 16 13  1  0  0  0  0
 17 27  1  6  0  0  0
 17 10  1  0  0  0  0
 19  2  2  0  0  0  0
 19  5  1  0  0  0  0
 20  3  2  0  0  0  0
 21 23  2  0  0  0  0
 22  3  1  6  0  0  0
 22 11  1  0  0  0  0
 22  2  1  0  0  0  0
 23 18  1  0  0  0  0
 24 25  1  0  0  0  0
 27 26  1  0  0  0  0
 28 29  1  0  0  0  0
 29 30  1  0  0  0  0
 30 31  2  0  0  0  0
 30 32  1  0  0  0  0
M  END
>  <MODEL>
3

>  <REMARK>
 VINA RESULT:      -7.5      4.339      9.583
  Name = 
  5 active torsions:
  status: ('A' for Active; 'I' for Inactive)
    1  A    between atoms: C_1  and  O_10
    2  A    between atoms: C_2  and  C_24
    3  A    between atoms: O_10  and  C_24
    4  A    between atoms: C_13  and  C_15
    5  A    between atoms: O_25  and  C_26
                            x       y       z     vdW  Elec       q    Type
                         _______ _______ _______ _____ _____    ______ ____

>  <TORSDO>
F 5

$$$$
=
 OpenBabel10272413373D

 32 36  0  0  1  0  0  0  0  0999 V2000
  181.9190  178.7870  142.6450 C   0  0  0  0  0  0  0  0  0  0  0  0
  186.7660  178.4790  143.9590 C   0  0  0  0  0  0  0  0  0  0  0  0
  188.1360  177.3700  145.7680 C   0  0  0  0  0  0  0  0  0  0  0  0
  189.4460  176.9070  146.2630 C   0  0  0  0  0  0  0  0  0  0  0  0
  184.3790  178.8770  143.9740 C   0  0  0  0  0  0  0  0  0  0  0  0
  185.4420  178.0010  142.0140 N   0  0  0  0  0  0  0  0  0  0  0  0
  191.9550  176.1160  147.2300 C   0  0  0  0  0  3  0  0  0  0  0  0
  183.0790  178.3580  141.9910 C   0  0  0  0  0  3  0  0  0  0  0  0
  186.6600  178.0260  142.6210 C   0  0  0  0  0  0  0  0  0  0  0  0
  187.8770  177.6620  141.8040 C   0  0  2  0  0  3  0  0  0  0  0  0
  189.2850  178.4040  143.7590 C   0  0  2  0  0  3  0  0  0  0  0  0
  190.7900  175.6560  147.8500 C   0  0  0  0  0  3  0  0  0  0  0  0
  181.9890  179.2500  143.9640 C   0  0  0  0  0  3  0  0  0  0  0  0
  184.3100  178.4020  142.6490 C   0  0  0  0  0  0  0  0  0  0  0  0
  189.5390  176.0520  147.3700 C   0  0  0  0  0  3  0  0  0  0  0  0
  183.2180  179.2990  144.6290 C   0  0  0  0  0  3  0  0  0  0  0  0
  189.1060  177.3460  142.6600 C   0  0  1  0  0  3  0  0  0  0  0  0
  190.5390  178.2000  144.4830 N   0  0  0  0  0  2  0  0  0  0  0  0
  185.6110  178.9100  144.6210 C   0  0  0  0  0  3  0  0  0  0  0  0
  187.0760  176.9110  146.2780 O   0  0  0  0  0  0  0  0  0  0  0  0
  191.8700  176.9640  146.1220 C   0  0  0  0  0  3  0  0  0  0  0  0
  188.0750  178.4590  144.7150 C   0  0  1  0  0  3  0  0  0  0  0  0
  190.6200  177.3530  145.6320 C   0  0  0  0  0  0  0  0  0  0  0  0
  187.7960  178.4210  139.5350 O   0  0  0  0  0  1  0  0  0  0  0  0
  188.2190  178.7710  140.8180 C   0  0  0  0  0  2  0  0  0  0  0  0
  190.1910  175.4250  142.8620 C   0  0  0  0  0  1  0  0  0  0  0  0
  188.9950  176.0590  143.1990 O   0  0  0  0  0  0  0  0  0  0  0  0
  180.6050  178.7150  141.9510 C   0  0  0  0  0  2  0  0  0  0  0  0
  180.2940  179.9800  141.3860 O   0  0  0  0  0  0  0  0  0  0  0  0
  180.4280  180.2410  140.0210 C   0  0  0  0  0  0  0  0  0  0  0  0
  180.1970  181.4000  139.5890 O   0  0  0  0  0  0  0  0  0  0  0  0
  180.8410  179.1780  139.0580 C   0  0  0  0  0  1  0  0  0  0  0  0
  1 13  1  0  0  0  0
  2 19  1  0  0  0  0
  3  4  1  0  0  0  0
  3 20  2  0  0  0  0
  4 15  1  0  0  0  0
  5 19  2  0  0  0  0
  5 16  1  0  0  0  0
  6  9  1  0  0  0  0
  6 14  2  0  0  0  0
  7 12  1  0  0  0  0
  8  1  2  0  0  0  0
  8 14  1  0  0  0  0
  9  2  2  0  0  0  0
 10 25  1  6  0  0  0
 10  9  1  0  0  0  0
 10 17  1  0  0  0  0
 11 18  1  1  0  0  0
 11 22  1  0  0  0  0
 13 16  2  0  0  0  0
 14  5  1  0  0  0  0
 15 12  2  0  0  0  0
 17 27  1  1  0  0  0
 17 11  1  0  0  0  0
 18 23  1  0  0  0  0
 21  7  2  0  0  0  0
 22  2  1  6  0  0  0
 22  3  1  0  0  0  0
 23 21  1  0  0  0  0
 23  4  2  0  0  0  0
 24 25  1  0  0  0  0
 26 27  1  0  0  0  0
 28  1  1  0  0  0  0
 29 28  1  0  0  0  0
 30 29  1  0  0  0  0
 31 30  2  0  0  0  0
 32 30  1  0  0  0  0
M  END
>  <MODEL>
4

>  <REMARK>
 VINA RESULT:      -7.1      4.050      5.560
  Name = 
  5 active torsions:
  status: ('A' for Active; 'I' for Inactive)
    1  A    between atoms: C_1  and  O_10
    2  A    between atoms: C_2  and  C_24
    3  A    between atoms: O_10  and  C_24
    4  A    between atoms: C_13  and  C_15
    5  A    between atoms: O_25  and  C_26
                            x       y       z     vdW  Elec       q    Type
                         _______ _______ _______ _____ _____    ______ ____

>  <TORSDO>
F 5

$$$$
=
 OpenBabel10272413373D

 32 36  0  0  1  0  0  0  0  0999 V2000
  188.2320  177.7090  145.1030 C   0  0  0  0  0  0  0  0  0  0  0  0
  189.0840  177.8390  140.1460 C   0  0  0  0  0  0  0  0  0  0  0  0
  190.4210  176.5240  138.4540 C   0  0  0  0  0  0  0  0  0  0  0  0
  190.6810  176.1610  137.0490 C   0  0  0  0  0  0  0  0  0  0  0  0
  189.3680  177.8350  142.5500 C   0  0  0  0  0  0  0  0  0  0  0  0
  187.1760  177.6850  141.5950 N   0  0  0  0  0  0  0  0  0  0  0  0
  191.2220  175.5510  134.3660 C   0  0  0  0  0  3  0  0  0  0  0  0
  187.4090  177.6560  143.9740 C   0  0  0  0  0  3  0  0  0  0  0  0
  187.6830  177.7430  140.3340 C   0  0  0  0  0  0  0  0  0  0  0  0
  186.7180  177.8050  139.1730 C   0  0  2  0  0  3  0  0  0  0  0  0
  188.7040  178.2190  137.6760 C   0  0  2  0  0  3  0  0  0  0  0  0
  191.7670  174.7660  135.3850 C   0  0  0  0  0  3  0  0  0  0  0  0
  189.6200  177.8140  144.9560 C   0  0  0  0  0  3  0  0  0  0  0  0
  187.9710  177.7200  142.6960 C   0  0  0  0  0  0  0  0  0  0  0  0
  191.5000  175.0710  136.7230 C   0  0  0  0  0  3  0  0  0  0  0  0
  190.1890  177.8790  143.6800 C   0  0  0  0  0  3  0  0  0  0  0  0
  187.3700  177.4730  137.8280 C   0  0  1  0  0  3  0  0  0  0  0  0
  189.2580  178.0340  136.3370 N   0  0  0  0  0  2  0  0  0  0  0  0
  189.9150  177.8910  141.2710 C   0  0  0  0  0  3  0  0  0  0  0  0
  190.8540  175.7850  139.3820 O   0  0  0  0  0  0  0  0  0  0  0  0
  190.4000  176.6370  134.6830 C   0  0  0  0  0  3  0  0  0  0  0  0
  189.7160  177.8280  138.7730 C   0  0  1  0  0  3  0  0  0  0  0  0
  190.1200  176.9380  136.0190 C   0  0  0  0  0  0  0  0  0  0  0  0
  184.8930  179.1920  139.8620 O   0  0  0  0  0  1  0  0  0  0  0  0
  186.0560  179.1730  139.0920 C   0  0  0  0  0  2  0  0  0  0  0  0
  186.5570  175.6870  136.8000 C   0  0  0  0  0  1  0  0  0  0  0  0
  187.5380  176.0890  137.7060 O   0  0  0  0  0  0  0  0  0  0  0  0
  187.6340  177.6140  146.4620 C   0  0  0  0  0  2  0  0  0  0  0  0
  186.2210  177.5120  146.3560 O   0  0  0  0  0  0  0  0  0  0  0  0
  185.3870  178.6310  146.4080 C   0  0  0  0  0  0  0  0  0  0  0  0
  185.6110  179.5280  147.2610 O   0  0  0  0  0  0  0  0  0  0  0  0
  184.2350  178.7910  145.4730 C   0  0  0  0  0  1  0  0  0  0  0  0
  1 28  1  0  0  0  0
  2  9  2  0  0  0  0
  2 19  1  0  0  0  0
  3 20  2  0  0  0  0
  4  3  1  0  0  0  0
  5 14  1  0  0  0  0
  5 16  1  0  0  0  0
  6 14  2  0  0  0  0
  7 21  2  0  0  0  0
  7 12  1  0  0  0  0
  8  1  2  0  0  0  0
  9  6  1  0  0  0  0
 10 25  1  6  0  0  0
 10  9  1  0  0  0  0
 11 18  1  6  0  0  0
 11 17  1  0  0  0  0
 11 22  1  0  0  0  0
 12 15  2  0  0  0  0
 13  1  1  0  0  0  0
 14  8  1  0  0  0  0
 15  4  1  0  0  0  0
 16 13  2  0  0  0  0
 17 27  1  1  0  0  0
 17 10  1  0  0  0  0
 19  5  2  0  0  0  0
 21 23  1  0  0  0  0
 22  3  1  6  0  0  0
 22  2  1  0  0  0  0
 23 18  1  0  0  0  0
 23  4  2  0  0  0  0
 25 24  1  0  0  0  0
 26 27  1  0  0  0  0
 29 30  1  0  0  0  0
 29 28  1  0  0  0  0
 30 31  2  0  0  0  0
 32 30  1  0  0  0  0
M  END
>  <MODEL>
5

>  <REMARK>
 VINA RESULT:      -6.9      2.501      8.290
  Name = 
  5 active torsions:
  status: ('A' for Active; 'I' for Inactive)
    1  A    between atoms: C_1  and  O_10
    2  A    between atoms: C_2  and  C_24
    3  A    between atoms: O_10  and  C_24
    4  A    between atoms: C_13  and  C_15
    5  A    between atoms: O_25  and  C_26
                            x       y       z     vdW  Elec       q    Type
                         _______ _______ _______ _____ _____    ______ ____

>  <TORSDO>
F 5

$$$$
=
 OpenBabel10272413373D

 32 36  0  0  1  0  0  0  0  0999 V2000
  190.4040  176.7690  143.1120 C   0  0  0  0  0  0  0  0  0  0  0  0
  186.3530  178.4870  140.6740 C   0  0  0  0  0  0  0  0  0  0  0  0
  185.1110  177.9710  138.5360 C   0  0  0  0  0  0  0  0  0  0  0  0
  183.8880  178.0850  137.7210 C   0  0  0  0  0  0  0  0  0  0  0  0
  188.6100  177.8270  141.2450 C   0  0  0  0  0  0  0  0  0  0  0  0
  186.8450  177.5960  142.8480 N   0  0  0  0  0  0  0  0  0  0  0  0
  181.5880  178.3880  136.1460 C   0  0  0  0  0  3  0  0  0  0  0  0
  189.0540  176.9110  143.4500 C   0  0  0  0  0  3  0  0  0  0  0  0
  185.9360  178.1060  141.9730 C   0  0  0  0  0  0  0  0  0  0  0  0
  184.5250  178.3410  142.4580 C   0  0  2  0  0  3  0  0  0  0  0  0
  184.0750  179.5040  140.2670 C   0  0  2  0  0  3  0  0  0  0  0  0
  182.5550  177.4430  135.7960 C   0  0  0  0  0  3  0  0  0  0  0  0
  190.8530  177.1450  141.8400 C   0  0  0  0  0  3  0  0  0  0  0  0
  188.1540  177.4410  142.5210 C   0  0  0  0  0  0  0  0  0  0  0  0
  183.7030  177.2930  136.5790 C   0  0  0  0  0  3  0  0  0  0  0  0
  189.9580  177.6770  140.9070 C   0  0  0  0  0  3  0  0  0  0  0  0
  183.5190  178.5330  141.3200 C   0  0  1  0  0  3  0  0  0  0  0  0
  183.0650  179.8160  139.2580 N   0  0  0  0  0  2  0  0  0  0  0  0
  187.7010  178.3470  140.3280 C   0  0  0  0  0  3  0  0  0  0  0  0
  185.9610  177.0770  138.2670 O   0  0  0  0  0  0  0  0  0  0  0  0
  181.7620  179.1780  137.2870 C   0  0  0  0  0  3  0  0  0  0  0  0
  185.3800  178.9860  139.6300 C   0  0  1  0  0  3  0  0  0  0  0  0
  182.9040  179.0230  138.0790 C   0  0  0  0  0  0  0  0  0  0  0  0
  183.6570  179.2560  144.4920 O   0  0  0  0  0  1  0  0  0  0  0  0
  184.4670  179.5410  143.3930 C   0  0  0  0  0  2  0  0  0  0  0  0
  181.8010  177.2340  140.8020 C   0  0  0  0  0  1  0  0  0  0  0  0
  183.1940  177.2940  140.7550 O   0  0  0  0  0  0  0  0  0  0  0  0
  191.3570  176.1810  144.0920 C   0  0  0  0  0  2  0  0  0  0  0  0
  191.4690  177.0370  145.2210 O   0  0  0  0  0  0  0  0  0  0  0  0
  191.1470  176.6140  146.5120 C   0  0  0  0  0  0  0  0  0  0  0  0
  190.0340  176.9330  147.0050 O   0  0  0  0  0  0  0  0  0  0  0  0
  192.0910  175.7910  147.3240 C   0  0  0  0  0  1  0  0  0  0  0  0
  1  8  1  0  0  0  0
  1 28  1  0  0  0  0
  2  9  1  0  0  0  0
  4 23  1  0  0  0  0
  4  3  1  0  0  0  0
  5 14  1  0  0  0  0
  7 21  1  0  0  0  0
  9 10  1  0  0  0  0
  9  6  2  0  0  0  0
 10 25  1  1  0  0  0
 11 18  1  6  0  0  0
 11 17  1  0  0  0  0
 12  7  2  0  0  0  0
 12 15  1  0  0  0  0
 13  1  2  0  0  0  0
 14  6  1  0  0  0  0
 14  8  2  0  0  0  0
 15  4  2  0  0  0  0
 16  5  2  0  0  0  0
 16 13  1  0  0  0  0
 17 27  1  6  0  0  0
 17 10  1  0  0  0  0
 19  2  2  0  0  0  0
 19  5  1  0  0  0  0
 20  3  2  0  0  0  0
 21 23  2  0  0  0  0
 22  3  1  6  0  0  0
 22 11  1  0  0  0  0
 22  2  1  0  0  0  0
 23 18  1  0  0  0  0
 25 24  1  0  0  0  0
 27 26  1  0  0  0  0
 28 29  1  0  0  0  0
 29 30  1  0  0  0  0
 30 31  2  0  0  0  0
 30 32  1  0  0  0  0
M  END
>  <MODEL>
6

>  <REMARK>
 VINA RESULT:      -6.7      3.361      8.653
  Name = 
  5 active torsions:
  status: ('A' for Active; 'I' for Inactive)
    1  A    between atoms: C_1  and  O_10
    2  A    between atoms: C_2  and  C_24
    3  A    between atoms: O_10  and  C_24
    4  A    between atoms: C_13  and  C_15
    5  A    between atoms: O_25  and  C_26
                            x       y       z     vdW  Elec       q    Type
                         _______ _______ _______ _____ _____    ______ ____

>  <TORSDO>
F 5

$$$$
=
 OpenBabel10272413373D

 32 36  0  0  1  0  0  0  0  0999 V2000
  190.0650  176.9320  145.6630 C   0  0  0  0  0  0  0  0  0  0  0  0
  189.7850  177.6960  140.6980 C   0  0  0  0  0  0  0  0  0  0  0  0
  190.7380  176.6610  138.6000 C   0  0  0  0  0  0  0  0  0  0  0  0
  190.6850  176.4820  137.1380 C   0  0  0  0  0  0  0  0  0  0  0  0
  190.5990  177.4190  142.9600 C   0  0  0  0  0  0  0  0  0  0  0  0
  188.2530  177.2760  142.4980 N   0  0  0  0  0  0  0  0  0  0  0  0
  190.6270  176.2250  134.3460 C   0  0  0  0  0  3  0  0  0  0  0  0
  189.0120  176.9740  144.7440 C   0  0  0  0  0  3  0  0  0  0  0  0
  188.4640  177.5090  141.1740 C   0  0  0  0  0  0  0  0  0  0  0  0
  187.2630  177.6610  140.2700 C   0  0  2  0  0  3  0  0  0  0  0  0
  188.8550  178.3490  138.4400 C   0  0  2  0  0  3  0  0  0  0  0  0
  191.4030  175.3520  135.1130 C   0  0  0  0  0  3  0  0  0  0  0  0
  191.3830  177.1230  145.2300 C   0  0  0  0  0  3  0  0  0  0  0  0
  189.2730  177.2180  143.3930 C   0  0  0  0  0  0  0  0  0  0  0  0
  191.4350  175.4810  136.5040 C   0  0  0  0  0  3  0  0  0  0  0  0
  191.6510  177.3690  143.8790 C   0  0  0  0  0  3  0  0  0  0  0  0
  187.6050  177.5250  138.7840 C   0  0  1  0  0  3  0  0  0  0  0  0
  189.0990  178.3530  136.9990 N   0  0  0  0  0  2  0  0  0  0  0  0
  190.8450  177.6540  141.6110 C   0  0  0  0  0  3  0  0  0  0  0  0
  191.3840  175.8390  139.3090 O   0  0  0  0  0  0  0  0  0  0  0  0
  189.8720  177.2230  134.9710 C   0  0  0  0  0  3  0  0  0  0  0  0
  190.0940  177.8810  139.2300 C   0  0  1  0  0  3  0  0  0  0  0  0
  189.8920  177.3480  136.3640 C   0  0  0  0  0  0  0  0  0  0  0  0
  185.5530  179.1850  139.5750 O   0  0  0  0  0  1  0  0  0  0  0  0
  186.5700  178.9950  140.5110 C   0  0  0  0  0  2  0  0  0  0  0  0
  186.8860  175.9530  137.3980 C   0  0  0  0  0  1  0  0  0  0  0  0
  187.7720  176.1760  138.4530 O   0  0  0  0  0  0  0  0  0  0  0  0
  189.7890  176.6460  147.0960 C   0  0  0  0  0  2  0  0  0  0  0  0
  189.1970  177.7850  147.7050 O   0  0  0  0  0  0  0  0  0  0  0  0
  187.8560  177.8120  148.0910 C   0  0  0  0  0  0  0  0  0  0  0  0
  187.5150  177.2710  149.1740 O   0  0  0  0  0  0  0  0  0  0  0  0
  186.8130  178.4700  147.2500 C   0  0  0  0  0  1  0  0  0  0  0  0
  1 28  1  0  0  0  0
  2  9  2  0  0  0  0
  2 19  1  0  0  0  0
  3 20  2  0  0  0  0
  4  3  1  0  0  0  0
  5 14  1  0  0  0  0
  5 16  1  0  0  0  0
  6 14  2  0  0  0  0
  7 21  2  0  0  0  0
  7 12  1  0  0  0  0
  8  1  2  0  0  0  0
  9  6  1  0  0  0  0
 10 25  1  6  0  0  0
 10  9  1  0  0  0  0
 11 18  1  6  0  0  0
 11 17  1  0  0  0  0
 11 22  1  0  0  0  0
 12 15  2  0  0  0  0
 13  1  1  0  0  0  0
 14  8  1  0  0  0  0
 15  4  1  0  0  0  0
 16 13  2  0  0  0  0
 17 27  1  1  0  0  0
 17 10  1  0  0  0  0
 19  5  2  0  0  0  0
 21 23  1  0  0  0  0
 22  3  1  6  0  0  0
 22  2  1  0  0  0  0
 23 18  1  0  0  0  0
 23  4  2  0  0  0  0
 24 25  1  0  0  0  0
 26 27  1  0  0  0  0
 28 29  1  0  0  0  0
 29 30  1  0  0  0  0
 30 31  2  0  0  0  0
 32 30  1  0  0  0  0
M  END
>  <MODEL>
7

>  <REMARK>
 VINA RESULT:      -6.5      2.522      8.564
  Name = 
  5 active torsions:
  status: ('A' for Active; 'I' for Inactive)
    1  A    between atoms: C_1  and  O_10
    2  A    between atoms: C_2  and  C_24
    3  A    between atoms: O_10  and  C_24
    4  A    between atoms: C_13  and  C_15
    5  A    between atoms: O_25  and  C_26
                            x       y       z     vdW  Elec       q    Type
                         _______ _______ _______ _____ _____    ______ ____

>  <TORSDO>
F 5

$$$$
=
 OpenBabel10272413373D

 32 36  0  0  1  0  0  0  0  0999 V2000
  189.8530  177.4390  143.2970 C   0  0  0  0  0  0  0  0  0  0  0  0
  192.1160  176.6580  138.8720 C   0  0  0  0  0  0  0  0  0  0  0  0
  194.2350  175.5690  138.0330 C   0  0  0  0  0  0  0  0  0  0  0  0
  195.0110  174.9980  136.9170 C   0  0  0  0  0  0  0  0  0  0  0  0
  191.6320  177.3510  141.1400 C   0  0  0  0  0  0  0  0  0  0  0  0
  189.9880  176.1610  139.8660 N   0  0  0  0  0  0  0  0  0  0  0  0
  196.5080  173.9970  134.7680 C   0  0  0  0  0  3  0  0  0  0  0  0
  189.4730  176.8060  142.1090 C   0  0  0  0  0  3  0  0  0  0  0  0
  190.8200  176.0940  138.7910 C   0  0  0  0  0  0  0  0  0  0  0  0
  190.2870  175.5020  137.5070 C   0  0  2  0  0  3  0  0  0  0  0  0
  192.4230  176.2500  136.3960 C   0  0  2  0  0  3  0  0  0  0  0  0
  196.9180  173.7500  136.0810 C   0  0  0  0  0  3  0  0  0  0  0  0
  191.1240  178.0170  143.4090 C   0  0  0  0  0  3  0  0  0  0  0  0
  190.3570  176.7610  141.0280 C   0  0  0  0  0  0  0  0  0  0  0  0
  196.1730  174.2500  137.1530 C   0  0  0  0  0  3  0  0  0  0  0  0
  192.0130  177.9760  142.3300 C   0  0  0  0  0  3  0  0  0  0  0  0
  191.3890  175.1200  136.5160 C   0  0  1  0  0  3  0  0  0  0  0  0
  193.3930  175.9630  135.3400 N   0  0  0  0  0  2  0  0  0  0  0  0
  192.5050  177.2930  140.0570 C   0  0  0  0  0  3  0  0  0  0  0  0
  194.5580  175.2990  139.2230 O   0  0  0  0  0  0  0  0  0  0  0  0
  195.3470  174.7370  134.5250 C   0  0  0  0  0  3  0  0  0  0  0  0
  193.1150  176.5490  137.7420 C   0  0  1  0  0  3  0  0  0  0  0  0
  194.5930  175.2290  135.5940 C   0  0  0  0  0  0  0  0  0  0  0  0
  189.0290  176.0260  135.5390 O   0  0  0  0  0  1  0  0  0  0  0  0
  189.3100  176.4570  136.8350 C   0  0  0  0  0  2  0  0  0  0  0  0
  191.5510  172.9800  135.9680 C   0  0  0  0  0  1  0  0  0  0  0  0
  191.9870  173.9160  136.9050 O   0  0  0  0  0  0  0  0  0  0  0  0
  188.9210  177.4640  144.4560 C   0  0  0  0  0  2  0  0  0  0  0  0
  189.6120  177.9110  145.6140 O   0  0  0  0  0  0  0  0  0  0  0  0
  189.8380  177.0810  146.7140 C   0  0  0  0  0  0  0  0  0  0  0  0
  188.8790  176.7920  147.4750 O   0  0  0  0  0  0  0  0  0  0  0  0
  191.1920  176.5270  147.0110 C   0  0  0  0  0  1  0  0  0  0  0  0
  1 13  1  0  0  0  0
  1 28  1  0  0  0  0
  2 19  1  0  0  0  0
  3 20  2  0  0  0  0
  4 15  1  0  0  0  0
  4  3  1  0  0  0  0
  5 16  1  0  0  0  0
  6 14  2  0  0  0  0
  7 12  1  0  0  0  0
  8  1  2  0  0  0  0
  9  2  2  0  0  0  0
  9  6  1  0  0  0  0
 10 25  1  6  0  0  0
 10  9  1  0  0  0  0
 11 18  1  6  0  0  0
 11 17  1  0  0  0  0
 11 22  1  0  0  0  0
 12 15  2  0  0  0  0
 14  5  1  0  0  0  0
 14  8  1  0  0  0  0
 16 13  2  0  0  0  0
 17 27  1  1  0  0  0
 17 10  1  0  0  0  0
 18 23  1  0  0  0  0
 19  5  2  0  0  0  0
 21  7  2  0  0  0  0
 21 23  1  0  0  0  0
 22  3  1  1  0  0  0
 22  2  1  0  0  0  0
 23  4  2  0  0  0  0
 24 25  1  0  0  0  0
 26 27  1  0  0  0  0
 28 29  1  0  0  0  0
 29 30  1  0  0  0  0
 30 32  1  0  0  0  0
 30 31  2  0  0  0  0
M  END
>  <MODEL>
8

>  <REMARK>
 VINA RESULT:      -6.5      3.787      8.908
  Name = 
  5 active torsions:
  status: ('A' for Active; 'I' for Inactive)
    1  A    between atoms: C_1  and  O_10
    2  A    between atoms: C_2  and  C_24
    3  A    between atoms: O_10  and  C_24
    4  A    between atoms: C_13  and  C_15
    5  A    between atoms: O_25  and  C_26
                            x       y       z     vdW  Elec       q    Type
                         _______ _______ _______ _____ _____    ______ ____

>  <TORSDO>
F 5

$$$$
=
 OpenBabel10272413373D

 32 36  0  0  1  0  0  0  0  0999 V2000
  187.4920  177.7930  144.9460 C   0  0  0  0  0  0  0  0  0  0  0  0
  188.5970  178.0280  140.0430 C   0  0  0  0  0  0  0  0  0  0  0  0
  190.0490  176.7730  138.4020 C   0  0  0  0  0  0  0  0  0  0  0  0
  190.3890  176.4410  137.0060 C   0  0  0  0  0  0  0  0  0  0  0  0
  188.7560  177.9880  142.4580 C   0  0  0  0  0  0  0  0  0  0  0  0
  186.6200  177.8090  141.3880 N   0  0  0  0  0  0  0  0  0  0  0  0
  191.0830  175.8900  134.3460 C   0  0  0  0  0  3  0  0  0  0  0  0
  186.7300  177.7420  143.7740 C   0  0  0  0  0  3  0  0  0  0  0  0
  187.1910  177.9000  140.1560 C   0  0  0  0  0  0  0  0  0  0  0  0
  186.2870  177.9610  138.9470 C   0  0  2  0  0  3  0  0  0  0  0  0
  188.3380  178.4440  137.5640 C   0  0  2  0  0  3  0  0  0  0  0  0
  191.5910  175.0990  135.3790 C   0  0  0  0  0  3  0  0  0  0  0  0
  188.8840  177.9300  144.8730 C   0  0  0  0  0  3  0  0  0  0  0  0
  187.3560  177.8410  142.5290 C   0  0  0  0  0  0  0  0  0  0  0  0
  191.2480  175.3740  136.7060 C   0  0  0  0  0  3  0  0  0  0  0  0
  189.5160  178.0300  143.6300 C   0  0  0  0  0  3  0  0  0  0  0  0
  187.0140  177.6680  137.6330 C   0  0  1  0  0  3  0  0  0  0  0  0
  188.9650  178.2950  136.2520 N   0  0  0  0  0  2  0  0  0  0  0  0
  189.3670  178.0790  141.2110 C   0  0  0  0  0  3  0  0  0  0  0  0
  190.4500  176.0270  139.3380 O   0  0  0  0  0  0  0  0  0  0  0  0
  190.2210  176.9520  134.6370 C   0  0  0  0  0  3  0  0  0  0  0  0
  189.3000  178.0560  138.7050 C   0  0  1  0  0  3  0  0  0  0  0  0
  189.8660  177.2240  135.9620 C   0  0  0  0  0  0  0  0  0  0  0  0
  184.8260  179.5430  139.9930 O   0  0  0  0  0  1  0  0  0  0  0  0
  185.5990  179.3170  138.8540 C   0  0  0  0  0  2  0  0  0  0  0  0
  186.2550  175.8730  136.5800 C   0  0  0  0  0  1  0  0  0  0  0  0
  187.2190  176.2900  137.4970 O   0  0  0  0  0  0  0  0  0  0  0  0
  186.8270  177.6610  146.2700 C   0  0  0  0  0  2  0  0  0  0  0  0
  187.4910  178.4810  147.2210 O   0  0  0  0  0  0  0  0  0  0  0  0
  188.3270  177.9520  148.2080 C   0  0  0  0  0  0  0  0  0  0  0  0
  187.9850  178.0370  149.4150 O   0  0  0  0  0  0  0  0  0  0  0  0
  189.6180  177.2870  147.8640 C   0  0  0  0  0  1  0  0  0  0  0  0
  1 28  1  0  0  0  0
  2  9  2  0  0  0  0
  2 19  1  0  0  0  0
  3 20  2  0  0  0  0
  4  3  1  0  0  0  0
  5 14  1  0  0  0  0
  5 16  1  0  0  0  0
  6 14  2  0  0  0  0
  7 21  2  0  0  0  0
  7 12  1  0  0  0  0
  8  1  2  0  0  0  0
  9  6  1  0  0  0  0
 10 25  1  6  0  0  0
 10  9  1  0  0  0  0
 11 18  1  6  0  0  0
 11 17  1  0  0  0  0
 11 22  1  0  0  0  0
 12 15  2  0  0  0  0
 13  1  1  0  0  0  0
 14  8  1  0  0  0  0
 15  4  1  0  0  0  0
 16 13  2  0  0  0  0
 17 27  1  1  0  0  0
 17 10  1  0  0  0  0
 19  5  2  0  0  0  0
 21 23  1  0  0  0  0
 22  3  1  6  0  0  0
 22  2  1  0  0  0  0
 23 18  1  0  0  0  0
 23  4  2  0  0  0  0
 25 24  1  0  0  0  0
 26 27  1  0  0  0  0
 28 29  1  0  0  0  0
 29 30  1  0  0  0  0
 30 31  2  0  0  0  0
 32 30  1  0  0  0  0
M  END
>  <MODEL>
9

>  <REMARK>
 VINA RESULT:      -6.1      2.538      8.600
  Name = 
  5 active torsions:
  status: ('A' for Active; 'I' for Inactive)
    1  A    between atoms: C_1  and  O_10
    2  A    between atoms: C_2  and  C_24
    3  A    between atoms: O_10  and  C_24
    4  A    between atoms: C_13  and  C_15
    5  A    between atoms: O_25  and  C_26
                            x       y       z     vdW  Elec       q    Type
                         _______ _______ _______ _____ _____    ______ ____

>  <TORSDO>
F 5

$$$$
