=
 OpenBabel10272400323D

 31 34  0  0  1  0  0  0  0  0999 V2000
  188.2020  177.1410  146.0460 C   0  0  0  0  0  0  0  0  0  0  0  0
  186.4760  178.1910  142.9080 C   0  0  0  0  0  0  0  0  0  0  0  0
  185.0270  178.2720  143.3540 C   0  0  1  0  0  3  0  0  0  0  0  0
  183.3320  179.9340  144.4010 C   0  0  0  0  0  2  0  0  0  0  0  0
  187.4880  177.8230  143.8230 C   0  0  0  0  0  0  0  0  0  0  0  0
  189.5310  177.1060  145.6150 C   0  0  0  0  0  3  0  0  0  0  0  0
  184.8030  179.4970  144.2590 C   0  0  0  0  0  2  0  0  0  0  0  0
  188.1690  178.4360  141.1550 C   0  0  0  0  0  0  0  0  0  0  0  0
  187.8980  176.8310  147.3290 F   0  0  0  0  0  0  0  0  0  0  0  0
  184.5020  178.0290  140.8590 C   0  0  0  0  0  2  0  0  0  0  0  0
  182.3210  178.8890  143.9230 C   0  0  0  0  0  2  0  0  0  0  0  0
  189.1620  178.0880  142.0780 C   0  0  0  0  0  3  0  0  0  0  0  0
  186.8250  178.4770  141.5670 C   0  0  0  0  0  0  0  0  0  0  0  0
  187.1860  177.4970  145.1550 C   0  0  0  0  0  3  0  0  0  0  0  0
  181.7950  178.2740  141.6750 O   0  0  0  0  0  0  0  0  0  0  0  0
  188.8360  177.7800  143.3960 C   0  0  0  0  0  0  0  0  0  0  0  0
  189.8470  177.4240  144.2930 C   0  0  0  0  0  3  0  0  0  0  0  0
  185.7550  178.8410  140.5800 C   0  0  0  0  0  2  0  0  0  0  0  0
  184.0740  178.2660  142.2340 N   0  0  0  0  0  0  0  0  0  0  0  0
  182.6900  178.4600  142.5430 C   0  0  0  0  0  0  0  0  0  0  0  0
  188.6550  176.5860  138.9050 O   0  0  0  0  0  0  0  0  0  0  0  0
  188.7710  177.8300  138.7320 C   0  0  0  0  0  0  0  0  0  0  0  0
  188.5020  178.7550  139.7930 N   0  0  0  0  0  2  0  0  0  0  0  0
  188.9260  179.7310  137.3440 O   0  0  0  0  0  1  0  0  0  0  0  0
  189.1850  178.3610  137.3970 C   0  0  2  0  0  3  0  0  0  0  0  0
  189.3280  177.6050  135.0160 C   0  0  0  0  0  1  0  0  0  0  0  0
  188.4580  177.6360  136.2630 C   0  0  2  0  0  3  0  0  0  0  0  0
  187.2500  178.2950  135.9630 O   0  0  0  0  0  0  0  0  0  0  0  0
  186.1990  177.3500  135.9330 C   0  0  1  0  0  3  0  0  0  0  0  0
  185.2910  177.4410  137.1530 C   0  0  0  0  0  1  0  0  0  0  0  0
  185.4580  177.4240  134.7490 O   0  0  0  0  0  1  0  0  0  0  0  0
  1  9  1  0  0  0  0
  2  3  1  0  0  0  0
  2  5  1  0  0  0  0
  3  7  1  6  0  0  0
  5 14  1  0  0  0  0
  6  1  1  0  0  0  0
  7  4  1  0  0  0  0
  8 13  1  0  0  0  0
  8 12  2  0  0  0  0
 10 19  1  0  0  0  0
 11  4  1  0  0  0  0
 12 16  1  0  0  0  0
 13  2  2  0  0  0  0
 14  1  2  0  0  0  0
 15 20  2  0  0  0  0
 16  5  2  0  0  0  0
 16 17  1  0  0  0  0
 17  6  2  0  0  0  0
 18 10  1  0  0  0  0
 18 13  1  0  0  0  0
 19 20  1  0  0  0  0
 19  3  1  0  0  0  0
 20 11  1  0  0  0  0
 22 21  2  0  0  0  0
 22 23  1  0  0  0  0
 23  8  1  0  0  0  0
 25 24  1  1  0  0  0
 25 22  1  0  0  0  0
 27 26  1  6  0  0  0
 27 25  1  0  0  0  0
 28 27  1  0  0  0  0
 29 28  1  0  0  0  0
 29 30  1  1  0  0  0
 31 29  1  0  0  0  0
M  END
>  <MODEL>
1

>  <REMARK>
 VINA RESULT:      -8.8      0.000      0.000
  Name = 
  5 active torsions:
  status: ('A' for Active; 'I' for Inactive)
    1  A    between atoms: C_1  and  O_24
    2  A    between atoms: C_9  and  C_22
    3  A    between atoms: C_15  and  N_23
    4  A    between atoms: C_19  and  C_22
    5  A    between atoms: C_19  and  O_24
                            x       y       z     vdW  Elec       q    Type
                         _______ _______ _______ _____ _____    ______ ____

>  <TORSDO>
F 5

$$$$
=
 OpenBabel10272400323D

 31 34  0  0  1  0  0  0  0  0999 V2000
  189.4520  177.8110  147.7240 C   0  0  0  0  0  0  0  0  0  0  0  0
  187.6620  177.8400  144.4500 C   0  0  0  0  0  0  0  0  0  0  0  0
  188.8020  177.6660  143.4630 C   0  0  1  0  0  3  0  0  0  0  0  0
  190.1700  175.8100  142.2740 C   0  0  0  0  0  2  0  0  0  0  0  0
  187.9160  177.8760  145.8390 C   0  0  0  0  0  0  0  0  0  0  0  0
  188.3800  177.9410  148.6110 C   0  0  0  0  0  3  0  0  0  0  0  0
  189.3470  176.2270  143.5090 C   0  0  0  0  0  2  0  0  0  0  0  0
  185.2680  178.1070  144.8950 C   0  0  0  0  0  0  0  0  0  0  0  0
  190.7160  177.7150  148.2010 F   0  0  0  0  0  0  0  0  0  0  0  0
  187.1700  178.6890  141.7740 C   0  0  0  0  0  2  0  0  0  0  0  0
  190.6070  176.9790  141.3900 C   0  0  0  0  0  2  0  0  0  0  0  0
  185.5340  178.1210  146.2690 C   0  0  0  0  0  3  0  0  0  0  0  0
  186.3320  177.9770  143.9850 C   0  0  0  0  0  0  0  0  0  0  0  0
  189.2220  177.7800  146.3460 C   0  0  0  0  0  3  0  0  0  0  0  0
  189.2630  178.2790  139.9030 O   0  0  0  0  0  0  0  0  0  0  0  0
  186.8390  178.0130  146.7450 C   0  0  0  0  0  0  0  0  0  0  0  0
  187.0760  178.0420  148.1220 C   0  0  0  0  0  3  0  0  0  0  0  0
  186.0540  177.9690  142.5100 C   0  0  0  0  0  2  0  0  0  0  0  0
  188.4430  178.0480  142.0880 N   0  0  0  0  0  0  0  0  0  0  0  0
  189.4100  177.8060  141.0610 C   0  0  0  0  0  0  0  0  0  0  0  0
  183.8950  180.5000  143.8450 O   0  0  0  0  0  0  0  0  0  0  0  0
  183.2720  179.4060  143.9330 C   0  0  0  0  0  0  0  0  0  0  0  0
  183.9220  178.2180  144.4000 N   0  0  0  0  0  2  0  0  0  0  0  0
  181.1930  178.3490  144.2890 O   0  0  0  0  0  1  0  0  0  0  0  0
  181.8330  179.3350  143.5350 C   0  0  2  0  0  3  0  0  0  0  0  0
  180.4000  178.2700  141.7810 C   0  0  0  0  0  1  0  0  0  0  0  0
  181.6850  179.0420  142.0410 C   0  0  2  0  0  3  0  0  0  0  0  0
  182.7780  178.2800  141.5860 O   0  0  0  0  0  0  0  0  0  0  0  0
  182.7920  178.2830  140.1720 C   0  0  1  0  0  3  0  0  0  0  0  0
  183.7540  179.3150  139.5960 C   0  0  0  0  0  1  0  0  0  0  0  0
  183.0450  177.0110  139.6460 O   0  0  0  0  0  1  0  0  0  0  0  0
  1  9  1  0  0  0  0
  1  6  1  0  0  0  0
  2  5  1  0  0  0  0
  3  7  1  6  0  0  0
  3  2  1  0  0  0  0
  4  7  1  0  0  0  0
  5 14  1  0  0  0  0
  5 16  2  0  0  0  0
  8 12  2  0  0  0  0
 10 19  1  0  0  0  0
 10 18  1  0  0  0  0
 11  4  1  0  0  0  0
 12 16  1  0  0  0  0
 13  2  2  0  0  0  0
 13  8  1  0  0  0  0
 14  1  2  0  0  0  0
 15 20  2  0  0  0  0
 16 17  1  0  0  0  0
 17  6  2  0  0  0  0
 18 13  1  0  0  0  0
 19  3  1  0  0  0  0
 20 11  1  0  0  0  0
 20 19  1  0  0  0  0
 21 22  2  0  0  0  0
 22 23  1  0  0  0  0
 23  8  1  0  0  0  0
 25 22  1  0  0  0  0
 25 24  1  1  0  0  0
 27 26  1  1  0  0  0
 27 25  1  0  0  0  0
 28 27  1  0  0  0  0
 29 30  1  1  0  0  0
 29 28  1  0  0  0  0
 31 29  1  0  0  0  0
M  END
>  <MODEL>
2

>  <REMARK>
 VINA RESULT:      -8.7      2.669      6.137
  Name = 
  5 active torsions:
  status: ('A' for Active; 'I' for Inactive)
    1  A    between atoms: C_1  and  O_24
    2  A    between atoms: C_9  and  C_22
    3  A    between atoms: C_15  and  N_23
    4  A    between atoms: C_19  and  C_22
    5  A    between atoms: C_19  and  O_24
                            x       y       z     vdW  Elec       q    Type
                         _______ _______ _______ _____ _____    ______ ____

>  <TORSDO>
F 5

$$$$
=
 OpenBabel10272400323D

 31 34  0  0  1  0  0  0  0  0999 V2000
  186.4830  178.0860  146.7860 C   0  0  0  0  0  0  0  0  0  0  0  0
  187.2790  178.1030  143.1400 C   0  0  0  0  0  0  0  0  0  0  0  0
  188.7200  177.6270  143.1270 C   0  0  1  0  0  3  0  0  0  0  0  0
  190.1180  175.4420  143.0410 C   0  0  0  0  0  2  0  0  0  0  0  0
  186.5790  178.2340  144.3600 C   0  0  0  0  0  0  0  0  0  0  0  0
  185.1480  178.4970  146.7650 C   0  0  0  0  0  3  0  0  0  0  0  0
  188.8000  176.1250  143.4580 C   0  0  0  0  0  2  0  0  0  0  0  0
  185.2820  178.8410  141.9290 C   0  0  0  0  0  0  0  0  0  0  0  0
  187.0880  177.8130  147.9660 F   0  0  0  0  0  0  0  0  0  0  0  0
  188.8140  178.7490  140.8270 C   0  0  0  0  0  2  0  0  0  0  0  0
  191.2480  176.4170  142.7040 C   0  0  0  0  0  2  0  0  0  0  0  0
  184.5950  178.9470  143.1440 C   0  0  0  0  0  3  0  0  0  0  0  0
  186.6260  178.4290  141.9280 C   0  0  0  0  0  0  0  0  0  0  0  0
  187.1950  177.9560  145.5900 C   0  0  0  0  0  3  0  0  0  0  0  0
  191.4800  177.7800  140.7550 O   0  0  0  0  0  0  0  0  0  0  0  0
  185.2280  178.6540  144.3500 C   0  0  0  0  0  0  0  0  0  0  0  0
  184.5220  178.7810  145.5490 C   0  0  0  0  0  3  0  0  0  0  0  0
  187.3700  178.3210  140.6280 C   0  0  0  0  0  2  0  0  0  0  0  0
  189.4190  177.9240  141.8670 N   0  0  0  0  0  0  0  0  0  0  0  0
  190.7450  177.4090  141.7090 C   0  0  0  0  0  0  0  0  0  0  0  0
  183.2150  177.2750  140.5170 O   0  0  0  0  0  0  0  0  0  0  0  0
  183.6580  178.3380  140.0030 C   0  0  0  0  0  0  0  0  0  0  0  0
  184.6310  179.1420  140.6820 N   0  0  0  0  0  2  0  0  0  0  0  0
  181.7770  178.5980  138.6030 O   0  0  0  0  0  1  0  0  0  0  0  0
  183.1590  178.7840  138.6660 C   0  0  2  0  0  3  0  0  0  0  0  0
  182.9220  176.9560  136.9730 C   0  0  0  0  0  1  0  0  0  0  0  0
  183.8510  178.0220  137.5340 C   0  0  2  0  0  3  0  0  0  0  0  0
  185.0230  177.4050  138.0110 O   0  0  0  0  0  0  0  0  0  0  0  0
  185.9440  177.2680  136.9470 C   0  0  1  0  0  3  0  0  0  0  0  0
  186.9560  178.4060  136.8960 C   0  0  0  0  0  1  0  0  0  0  0  0
  186.5850  176.0250  136.9630 O   0  0  0  0  0  1  0  0  0  0  0  0
  1  9  1  0  0  0  0
  2  5  1  0  0  0  0
  3  2  1  0  0  0  0
  3  7  1  6  0  0  0
  4  7  1  0  0  0  0
  5 14  1  0  0  0  0
  6  1  1  0  0  0  0
  8 12  2  0  0  0  0
 10 19  1  0  0  0  0
 11  4  1  0  0  0  0
 12 16  1  0  0  0  0
 13  8  1  0  0  0  0
 13  2  2  0  0  0  0
 14  1  2  0  0  0  0
 15 20  2  0  0  0  0
 16  5  2  0  0  0  0
 16 17  1  0  0  0  0
 17  6  2  0  0  0  0
 18 10  1  0  0  0  0
 18 13  1  0  0  0  0
 19  3  1  0  0  0  0
 20 19  1  0  0  0  0
 20 11  1  0  0  0  0
 22 21  2  0  0  0  0
 22 23  1  0  0  0  0
 23  8  1  0  0  0  0
 25 24  1  1  0  0  0
 25 22  1  0  0  0  0
 27 26  1  1  0  0  0
 27 28  1  0  0  0  0
 27 25  1  0  0  0  0
 29 30  1  1  0  0  0
 29 31  1  0  0  0  0
 29 28  1  0  0  0  0
M  END
>  <MODEL>
3

>  <REMARK>
 VINA RESULT:      -8.6      1.945      5.015
  Name = 
  5 active torsions:
  status: ('A' for Active; 'I' for Inactive)
    1  A    between atoms: C_1  and  O_24
    2  A    between atoms: C_9  and  C_22
    3  A    between atoms: C_15  and  N_23
    4  A    between atoms: C_19  and  C_22
    5  A    between atoms: C_19  and  O_24
                            x       y       z     vdW  Elec       q    Type
                         _______ _______ _______ _____ _____    ______ ____

>  <TORSDO>
F 5

$$$$
=
 OpenBabel10272400323D

 31 34  0  0  1  0  0  0  0  0999 V2000
  188.4920  178.2630  147.8180 C   0  0  0  0  0  0  0  0  0  0  0  0
  188.2830  177.7620  144.1260 C   0  0  0  0  0  0  0  0  0  0  0  0
  189.7370  177.5380  143.7530 C   0  0  1  0  0  3  0  0  0  0  0  0
  191.4910  175.6380  143.5360 C   0  0  0  0  0  2  0  0  0  0  0  0
  187.9150  177.9900  145.4710 C   0  0  0  0  0  0  0  0  0  0  0  0
  187.1420  178.4350  148.1360 C   0  0  0  0  0  3  0  0  0  0  0  0
  190.2150  176.1540  144.2300 C   0  0  0  0  0  2  0  0  0  0  0  0
  185.9290  177.9280  143.4680 C   0  0  0  0  0  0  0  0  0  0  0  0
  189.4280  178.3100  148.7950 F   0  0  0  0  0  0  0  0  0  0  0  0
  188.9870  178.2310  141.4040 C   0  0  0  0  0  2  0  0  0  0  0  0
  192.2610  176.7110  142.7660 C   0  0  0  0  0  2  0  0  0  0  0  0
  185.5790  178.1340  144.8070 C   0  0  0  0  0  3  0  0  0  0  0  0
  187.2820  177.7520  143.1260 C   0  0  0  0  0  0  0  0  0  0  0  0
  188.8760  178.0420  146.4930 C   0  0  0  0  0  3  0  0  0  0  0  0
  191.6830  177.7230  140.6800 O   0  0  0  0  0  0  0  0  0  0  0  0
  186.5520  178.1700  145.8030 C   0  0  0  0  0  0  0  0  0  0  0  0
  186.1740  178.3890  147.1300 C   0  0  0  0  0  3  0  0  0  0  0  0
  187.6650  177.5400  141.6900 C   0  0  0  0  0  2  0  0  0  0  0  0
  190.0030  177.7180  142.3170 N   0  0  0  0  0  0  0  0  0  0  0  0
  191.3190  177.4110  141.8450 C   0  0  0  0  0  0  0  0  0  0  0  0
  185.5020  179.8350  141.2550 O   0  0  0  0  0  0  0  0  0  0  0  0
  184.7220  178.8540  141.3980 C   0  0  0  0  0  0  0  0  0  0  0  0
  184.9270  177.8880  142.4380 N   0  0  0  0  0  2  0  0  0  0  0  0
  183.4400  179.8160  139.6670 O   0  0  0  0  0  1  0  0  0  0  0  0
  183.5660  178.6790  140.4670 C   0  0  2  0  0  3  0  0  0  0  0  0
  181.0930  178.3490  140.2730 C   0  0  0  0  0  1  0  0  0  0  0  0
  182.2680  178.4220  141.2360 C   0  0  2  0  0  3  0  0  0  0  0  0
  182.0410  179.4580  142.1610 O   0  0  0  0  0  0  0  0  0  0  0  0
  180.7240  179.3510  142.6650 C   0  0  1  0  0  3  0  0  0  0  0  0
  180.6500  178.5360  143.9500 C   0  0  0  0  0  1  0  0  0  0  0  0
  180.1200  180.6030  142.8290 O   0  0  0  0  0  1  0  0  0  0  0  0
  1  6  1  0  0  0  0
  1  9  1  0  0  0  0
  2  5  1  0  0  0  0
  3  2  1  0  0  0  0
  3  7  1  6  0  0  0
  4  7  1  0  0  0  0
  5 16  2  0  0  0  0
  5 14  1  0  0  0  0
  8 12  2  0  0  0  0
 10 18  1  0  0  0  0
 10 19  1  0  0  0  0
 11  4  1  0  0  0  0
 12 16  1  0  0  0  0
 13  8  1  0  0  0  0
 13  2  2  0  0  0  0
 14  1  2  0  0  0  0
 15 20  2  0  0  0  0
 16 17  1  0  0  0  0
 17  6  2  0  0  0  0
 18 13  1  0  0  0  0
 19  3  1  0  0  0  0
 20 19  1  0  0  0  0
 20 11  1  0  0  0  0
 21 22  2  0  0  0  0
 22 23  1  0  0  0  0
 23  8  1  0  0  0  0
 25 24  1  1  0  0  0
 25 27  1  0  0  0  0
 25 22  1  0  0  0  0
 27 26  1  6  0  0  0
 27 28  1  0  0  0  0
 28 29  1  0  0  0  0
 29 31  1  0  0  0  0
 29 30  1  1  0  0  0
M  END
>  <MODEL>
4

>  <REMARK>
 VINA RESULT:      -8.4      3.035      6.282
  Name = 
  5 active torsions:
  status: ('A' for Active; 'I' for Inactive)
    1  A    between atoms: C_1  and  O_24
    2  A    between atoms: C_9  and  C_22
    3  A    between atoms: C_15  and  N_23
    4  A    between atoms: C_19  and  C_22
    5  A    between atoms: C_19  and  O_24
                            x       y       z     vdW  Elec       q    Type
                         _______ _______ _______ _____ _____    ______ ____

>  <TORSDO>
F 5

$$$$
=
 OpenBabel10272400323D

 31 34  0  0  1  0  0  0  0  0999 V2000
  188.7810  178.1090  147.8960 C   0  0  0  0  0  0  0  0  0  0  0  0
  188.4360  177.6650  144.2070 C   0  0  0  0  0  0  0  0  0  0  0  0
  189.8750  177.4400  143.7780 C   0  0  1  0  0  3  0  0  0  0  0  0
  191.6100  175.5360  143.4700 C   0  0  0  0  0  2  0  0  0  0  0  0
  188.1180  177.8740  145.5670 C   0  0  0  0  0  0  0  0  0  0  0  0
  187.4440  178.2820  148.2650 C   0  0  0  0  0  3  0  0  0  0  0  0
  190.3630  176.0470  144.2170 C   0  0  0  0  0  2  0  0  0  0  0  0
  186.0610  177.8510  143.6370 C   0  0  0  0  0  0  0  0  0  0  0  0
  189.7520  178.1370  148.8400 F   0  0  0  0  0  0  0  0  0  0  0  0
  189.0440  178.1720  141.4690 C   0  0  0  0  0  2  0  0  0  0  0  0
  192.3580  176.6180  142.6880 C   0  0  0  0  0  2  0  0  0  0  0  0
  185.7610  178.0380  144.9910 C   0  0  0  0  0  3  0  0  0  0  0  0
  187.4000  177.6750  143.2440 C   0  0  0  0  0  0  0  0  0  0  0  0
  189.1160  177.9070  146.5550 C   0  0  0  0  0  3  0  0  0  0  0  0
  191.7100  177.6630  140.6400 O   0  0  0  0  0  0  0  0  0  0  0  0
  186.7690  178.0550  145.9510 C   0  0  0  0  0  0  0  0  0  0  0  0
  186.4410  178.2550  147.2950 C   0  0  0  0  0  3  0  0  0  0  0  0
  187.7300  177.4830  141.7920 C   0  0  0  0  0  2  0  0  0  0  0  0
  190.0900  177.6410  142.3370 N   0  0  0  0  0  0  0  0  0  0  0  0
  191.3870  177.3350  141.8130 C   0  0  0  0  0  0  0  0  0  0  0  0
  185.4110  179.9130  141.6270 O   0  0  0  0  0  0  0  0  0  0  0  0
  184.7080  178.8690  141.7060 C   0  0  0  0  0  0  0  0  0  0  0  0
  185.0220  177.8310  142.6430 N   0  0  0  0  0  2  0  0  0  0  0  0
  183.0740  177.3780  140.8860 O   0  0  0  0  0  1  0  0  0  0  0  0
  183.5290  178.6950  140.8030 C   0  0  2  0  0  3  0  0  0  0  0  0
  182.8440  179.9930  138.7760 C   0  0  0  0  0  1  0  0  0  0  0  0
  183.8830  179.0460  139.3560 C   0  0  2  0  0  3  0  0  0  0  0  0
  183.9280  177.8770  138.5710 O   0  0  0  0  0  0  0  0  0  0  0  0
  185.2460  177.6850  138.0980 C   0  0  1  0  0  3  0  0  0  0  0  0
  185.2920  177.3100  136.6220 C   0  0  0  0  0  1  0  0  0  0  0  0
  186.0660  178.7890  138.3620 O   0  0  0  0  0  1  0  0  0  0  0  0
  1  6  1  0  0  0  0
  1  9  1  0  0  0  0
  2  5  1  0  0  0  0
  3  2  1  0  0  0  0
  3  7  1  6  0  0  0
  4  7  1  0  0  0  0
  5 16  2  0  0  0  0
  5 14  1  0  0  0  0
  8 12  2  0  0  0  0
 10 18  1  0  0  0  0
 10 19  1  0  0  0  0
 11  4  1  0  0  0  0
 12 16  1  0  0  0  0
 13  8  1  0  0  0  0
 13  2  2  0  0  0  0
 14  1  2  0  0  0  0
 15 20  2  0  0  0  0
 16 17  1  0  0  0  0
 17  6  2  0  0  0  0
 18 13  1  0  0  0  0
 19  3  1  0  0  0  0
 20 19  1  0  0  0  0
 20 11  1  0  0  0  0
 21 22  2  0  0  0  0
 22 23  1  0  0  0  0
 23  8  1  0  0  0  0
 25 24  1  6  0  0  0
 25 22  1  0  0  0  0
 27 26  1  6  0  0  0
 27 25  1  0  0  0  0
 28 27  1  0  0  0  0
 29 30  1  6  0  0  0
 29 31  1  0  0  0  0
 29 28  1  0  0  0  0
M  END
>  <MODEL>
5

>  <REMARK>
 VINA RESULT:      -8.3      2.297      5.443
  Name = 
  5 active torsions:
  status: ('A' for Active; 'I' for Inactive)
    1  A    between atoms: C_1  and  O_24
    2  A    between atoms: C_9  and  C_22
    3  A    between atoms: C_15  and  N_23
    4  A    between atoms: C_19  and  C_22
    5  A    between atoms: C_19  and  O_24
                            x       y       z     vdW  Elec       q    Type
                         _______ _______ _______ _____ _____    ______ ____

>  <TORSDO>
F 5

$$$$
=
 OpenBabel10272400323D

 31 34  0  0  1  0  0  0  0  0999 V2000
  186.3700  178.0790  146.7840 C   0  0  0  0  0  0  0  0  0  0  0  0
  187.2220  178.1060  143.1520 C   0  0  0  0  0  0  0  0  0  0  0  0
  188.6580  177.6140  143.1580 C   0  0  1  0  0  3  0  0  0  0  0  0
  190.0350  175.4160  143.0830 C   0  0  0  0  0  2  0  0  0  0  0  0
  186.5040  178.2380  144.3610 C   0  0  0  0  0  0  0  0  0  0  0  0
  185.0390  178.5040  146.7450 C   0  0  0  0  0  3  0  0  0  0  0  0
  188.7170  176.1100  143.4830 C   0  0  0  0  0  2  0  0  0  0  0  0
  185.2510  178.8700  141.9140 C   0  0  0  0  0  0  0  0  0  0  0  0
  186.9540  177.7940  147.9730 F   0  0  0  0  0  0  0  0  0  0  0  0
  188.7990  178.7460  140.8650 C   0  0  0  0  0  2  0  0  0  0  0  0
  191.1790  176.3810  142.7680 C   0  0  0  0  0  2  0  0  0  0  0  0
  184.5470  178.9780  143.1190 C   0  0  0  0  0  3  0  0  0  0  0  0
  186.5910  178.4440  141.9310 C   0  0  0  0  0  0  0  0  0  0  0  0
  187.0990  177.9480  145.5990 C   0  0  0  0  0  3  0  0  0  0  0  0
  191.4550  177.7500  140.8290 O   0  0  0  0  0  0  0  0  0  0  0  0
  185.1580  178.6720  144.3330 C   0  0  0  0  0  0  0  0  0  0  0  0
  184.4350  178.8000  145.5210 C   0  0  0  0  0  3  0  0  0  0  0  0
  187.3540  178.3350  140.6420 C   0  0  0  0  0  2  0  0  0  0  0  0
  189.3790  177.9100  141.9110 N   0  0  0  0  0  0  0  0  0  0  0  0
  190.7020  177.3820  141.7710 C   0  0  0  0  0  0  0  0  0  0  0  0
  183.1880  177.3330  140.4640 O   0  0  0  0  0  0  0  0  0  0  0  0
  183.6510  178.3940  139.9610 C   0  0  0  0  0  0  0  0  0  0  0  0
  184.6230  179.1830  140.6580 N   0  0  0  0  0  2  0  0  0  0  0  0
  181.9160  179.4350  138.7480 O   0  0  0  0  0  1  0  0  0  0  0  0
  183.1770  178.8510  138.6190 C   0  0  2  0  0  3  0  0  0  0  0  0
  184.5150  177.4160  137.0660 C   0  0  0  0  0  1  0  0  0  0  0  0
  183.1270  177.6890  137.6240 C   0  0  2  0  0  3  0  0  0  0  0  0
  182.2580  177.9990  136.5600 O   0  0  0  0  0  0  0  0  0  0  0  0
  181.3060  176.9630  136.4200 C   0  0  1  0  0  3  0  0  0  0  0  0
  181.5780  176.0750  135.2120 C   0  0  0  0  0  1  0  0  0  0  0  0
  181.1820  176.2010  137.5870 O   0  0  0  0  0  1  0  0  0  0  0  0
  1  9  1  0  0  0  0
  2  3  1  0  0  0  0
  2  5  1  0  0  0  0
  3  7  1  6  0  0  0
  4  7  1  0  0  0  0
  5 14  1  0  0  0  0
  6  1  1  0  0  0  0
  8 13  1  0  0  0  0
  8 12  2  0  0  0  0
 10 19  1  0  0  0  0
 11  4  1  0  0  0  0
 12 16  1  0  0  0  0
 13  2  2  0  0  0  0
 14  1  2  0  0  0  0
 15 20  2  0  0  0  0
 16  5  2  0  0  0  0
 16 17  1  0  0  0  0
 17  6  2  0  0  0  0
 18 10  1  0  0  0  0
 18 13  1  0  0  0  0
 19  3  1  0  0  0  0
 20 19  1  0  0  0  0
 20 11  1  0  0  0  0
 22 21  2  0  0  0  0
 22 23  1  0  0  0  0
 23  8  1  0  0  0  0
 25 24  1  1  0  0  0
 25 22  1  0  0  0  0
 27 26  1  6  0  0  0
 27 25  1  0  0  0  0
 28 27  1  0  0  0  0
 29 30  1  6  0  0  0
 29 28  1  0  0  0  0
 29 31  1  0  0  0  0
M  END
>  <MODEL>
6

>  <REMARK>
 VINA RESULT:      -8.2      2.480      5.201
  Name = 
  5 active torsions:
  status: ('A' for Active; 'I' for Inactive)
    1  A    between atoms: C_1  and  O_24
    2  A    between atoms: C_9  and  C_22
    3  A    between atoms: C_15  and  N_23
    4  A    between atoms: C_19  and  C_22
    5  A    between atoms: C_19  and  O_24
                            x       y       z     vdW  Elec       q    Type
                         _______ _______ _______ _____ _____    ______ ____

>  <TORSDO>
F 5

$$$$
=
 OpenBabel10272400323D

 31 34  0  0  1  0  0  0  0  0999 V2000
  186.1840  178.2430  146.6080 C   0  0  0  0  0  0  0  0  0  0  0  0
  186.9120  178.0480  142.9530 C   0  0  0  0  0  0  0  0  0  0  0  0
  188.3720  177.6320  142.9410 C   0  0  1  0  0  3  0  0  0  0  0  0
  189.8610  175.5070  142.9710 C   0  0  0  0  0  2  0  0  0  0  0  0
  186.2290  178.2320  144.1760 C   0  0  0  0  0  0  0  0  0  0  0  0
  184.8320  178.5950  146.5870 C   0  0  0  0  0  3  0  0  0  0  0  0
  188.5220  176.1610  143.3690 C   0  0  0  0  0  2  0  0  0  0  0  0
  184.8640  178.6200  141.7380 C   0  0  0  0  0  0  0  0  0  0  0  0
  186.8220  178.0750  147.7910 F   0  0  0  0  0  0  0  0  0  0  0  0
  188.3760  178.6000  140.5700 C   0  0  0  0  0  2  0  0  0  0  0  0
  190.9410  176.5030  142.5460 C   0  0  0  0  0  2  0  0  0  0  0  0
  184.1960  178.7790  142.9580 C   0  0  0  0  0  3  0  0  0  0  0  0
  186.2250  178.2640  141.7360 C   0  0  0  0  0  0  0  0  0  0  0  0
  186.8790  178.0620  145.4090 C   0  0  0  0  0  3  0  0  0  0  0  0
  191.0790  177.7400  140.5070 O   0  0  0  0  0  0  0  0  0  0  0  0
  184.8620  178.5940  144.1660 C   0  0  0  0  0  0  0  0  0  0  0  0
  184.1730  178.7710  145.3690 C   0  0  0  0  0  3  0  0  0  0  0  0
  186.9480  178.1010  140.4310 C   0  0  0  0  0  2  0  0  0  0  0  0
  189.0350  177.8730  141.6500 N   0  0  0  0  0  0  0  0  0  0  0  0
  190.3790  177.4040  141.4990 C   0  0  0  0  0  0  0  0  0  0  0  0
  182.9800  176.7910  140.3860 O   0  0  0  0  0  0  0  0  0  0  0  0
  183.2990  177.8820  139.8390 C   0  0  0  0  0  0  0  0  0  0  0  0
  184.1790  178.8090  140.4880 N   0  0  0  0  0  2  0  0  0  0  0  0
  183.7120  178.9270  137.7640 O   0  0  0  0  0  1  0  0  0  0  0  0
  182.7470  178.2290  138.4930 C   0  0  2  0  0  3  0  0  0  0  0  0
  180.2490  178.1890  138.3590 C   0  0  0  0  0  1  0  0  0  0  0  0
  181.4680  179.0600  138.6170 C   0  0  2  0  0  3  0  0  0  0  0  0
  181.4840  180.1160  137.6850 O   0  0  0  0  0  0  0  0  0  0  0  0
  181.3790  181.3460  138.3730 C   0  0  1  0  0  3  0  0  0  0  0  0
  180.3480  181.3070  139.4940 C   0  0  0  0  0  1  0  0  0  0  0  0
  182.6190  181.7920  138.8460 O   0  0  0  0  0  1  0  0  0  0  0  0
  1  9  1  0  0  0  0
  2  5  1  0  0  0  0
  3  2  1  0  0  0  0
  3  7  1  6  0  0  0
  4  7  1  0  0  0  0
  5 14  1  0  0  0  0
  6  1  1  0  0  0  0
  8 12  2  0  0  0  0
 10 19  1  0  0  0  0
 11  4  1  0  0  0  0
 12 16  1  0  0  0  0
 13  8  1  0  0  0  0
 13  2  2  0  0  0  0
 14  1  2  0  0  0  0
 15 20  2  0  0  0  0
 16  5  2  0  0  0  0
 16 17  1  0  0  0  0
 17  6  2  0  0  0  0
 18 10  1  0  0  0  0
 18 13  1  0  0  0  0
 19  3  1  0  0  0  0
 20 19  1  0  0  0  0
 20 11  1  0  0  0  0
 22 21  2  0  0  0  0
 22 23  1  0  0  0  0
 23  8  1  0  0  0  0
 25 24  1  6  0  0  0
 25 27  1  0  0  0  0
 25 22  1  0  0  0  0
 27 26  1  6  0  0  0
 28 29  1  0  0  0  0
 28 27  1  0  0  0  0
 29 31  1  0  0  0  0
 29 30  1  1  0  0  0
M  END
>  <MODEL>
7

>  <REMARK>
 VINA RESULT:      -7.9      2.642      5.625
  Name = 
  5 active torsions:
  status: ('A' for Active; 'I' for Inactive)
    1  A    between atoms: C_1  and  O_24
    2  A    between atoms: C_9  and  C_22
    3  A    between atoms: C_15  and  N_23
    4  A    between atoms: C_19  and  C_22
    5  A    between atoms: C_19  and  O_24
                            x       y       z     vdW  Elec       q    Type
                         _______ _______ _______ _____ _____    ______ ____

>  <TORSDO>
F 5

$$$$
=
 OpenBabel10272400323D

 31 34  0  0  1  0  0  0  0  0999 V2000
  192.0680  176.5210  138.6350 C   0  0  0  0  0  0  0  0  0  0  0  0
  189.3570  177.5450  140.9870 C   0  0  0  0  0  0  0  0  0  0  0  0
  190.0100  177.3240  142.3400 C   0  0  1  0  0  3  0  0  0  0  0  0
  191.4810  178.5520  144.0900 C   0  0  0  0  0  2  0  0  0  0  0  0
  190.0680  177.2760  139.7960 C   0  0  0  0  0  0  0  0  0  0  0  0
  191.4520  176.7630  137.4040 C   0  0  0  0  0  3  0  0  0  0  0  0
  191.0810  178.3980  142.6090 C   0  0  0  0  0  2  0  0  0  0  0  0
  187.4250  178.2520  139.6590 C   0  0  0  0  0  0  0  0  0  0  0  0
  193.3330  176.0400  138.6760 F   0  0  0  0  0  0  0  0  0  0  0  0
  187.6040  177.2330  143.2130 C   0  0  0  0  0  2  0  0  0  0  0  0
  191.0280  177.3960  144.9840 C   0  0  0  0  0  2  0  0  0  0  0  0
  188.1480  177.9990  138.4880 C   0  0  0  0  0  3  0  0  0  0  0  0
  188.0260  178.0160  140.9080 C   0  0  0  0  0  0  0  0  0  0  0  0
  191.3790  176.7750  139.8250 C   0  0  0  0  0  3  0  0  0  0  0  0
  188.8190  176.9150  145.7570 O   0  0  0  0  0  0  0  0  0  0  0  0
  189.4520  177.5130  138.5450 C   0  0  0  0  0  0  0  0  0  0  0  0
  190.1470  177.2580  137.3600 C   0  0  0  0  0  3  0  0  0  0  0  0
  187.2510  178.2770  142.1670 C   0  0  0  0  0  2  0  0  0  0  0  0
  189.0440  177.2580  143.4470 N   0  0  0  0  0  0  0  0  0  0  0  0
  189.5680  177.1730  144.7770 C   0  0  0  0  0  0  0  0  0  0  0  0
  185.2160  177.3850  137.9020 O   0  0  0  0  0  0  0  0  0  0  0  0
  185.0390  178.3380  138.7100 C   0  0  0  0  0  0  0  0  0  0  0  0
  186.0780  178.7550  139.6040 N   0  0  0  0  0  2  0  0  0  0  0  0
  183.9210  180.3690  139.1470 O   0  0  0  0  0  1  0  0  0  0  0  0
  183.7220  179.0450  138.7510 C   0  0  2  0  0  3  0  0  0  0  0  0
  181.6280  177.6840  138.9110 C   0  0  0  0  0  1  0  0  0  0  0  0
  182.7480  178.3450  139.7010 C   0  0  2  0  0  3  0  0  0  0  0  0
  182.1900  179.2770  140.5960 O   0  0  0  0  0  0  0  0  0  0  0  0
  182.1750  178.7230  141.8960 C   0  0  1  0  0  3  0  0  0  0  0  0
  183.5520  178.7190  142.5490 C   0  0  0  0  0  1  0  0  0  0  0  0
  181.2290  179.3420  142.7210 O   0  0  0  0  0  1  0  0  0  0  0  0
  1  9  1  0  0  0  0
  1 14  1  0  0  0  0
  2  3  1  0  0  0  0
  3  7  1  1  0  0  0
  3 19  1  0  0  0  0
  4 11  1  0  0  0  0
  5 14  2  0  0  0  0
  5  2  1  0  0  0  0
  6  1  2  0  0  0  0
  7  4  1  0  0  0  0
  8 13  1  0  0  0  0
 10 19  1  0  0  0  0
 12 16  1  0  0  0  0
 12  8  2  0  0  0  0
 13  2  2  0  0  0  0
 13 18  1  0  0  0  0
 16  5  1  0  0  0  0
 17  6  1  0  0  0  0
 17 16  2  0  0  0  0
 18 10  1  0  0  0  0
 19 20  1  0  0  0  0
 20 11  1  0  0  0  0
 20 15  2  0  0  0  0
 21 22  2  0  0  0  0
 22 25  1  0  0  0  0
 22 23  1  0  0  0  0
 23  8  1  0  0  0  0
 25 24  1  1  0  0  0
 25 27  1  0  0  0  0
 27 26  1  6  0  0  0
 27 28  1  0  0  0  0
 28 29  1  0  0  0  0
 29 30  1  1  0  0  0
 29 31  1  0  0  0  0
M  END
>  <MODEL>
8

>  <REMARK>
 VINA RESULT:      -7.7      3.025      6.328
  Name = 
  5 active torsions:
  status: ('A' for Active; 'I' for Inactive)
    1  A    between atoms: C_1  and  O_24
    2  A    between atoms: C_9  and  C_22
    3  A    between atoms: C_15  and  N_23
    4  A    between atoms: C_19  and  C_22
    5  A    between atoms: C_19  and  O_24
                            x       y       z     vdW  Elec       q    Type
                         _______ _______ _______ _____ _____    ______ ____

>  <TORSDO>
F 5

$$$$
=
 OpenBabel10272400323D

 31 34  0  0  1  0  0  0  0  0999 V2000
  184.5590  178.7990  139.0410 C   0  0  0  0  0  0  0  0  0  0  0  0
  188.1260  177.7270  139.2650 C   0  0  0  0  0  0  0  0  0  0  0  0
  188.4380  177.3560  137.8260 C   0  0  1  0  0  3  0  0  0  0  0  0
  189.2820  178.4130  135.6120 C   0  0  0  0  0  2  0  0  0  0  0  0
  186.8440  178.2020  139.6210 C   0  0  0  0  0  0  0  0  0  0  0  0
  184.3100  179.1620  140.3670 C   0  0  0  0  0  3  0  0  0  0  0  0
  188.5440  178.6180  136.9490 C   0  0  0  0  0  2  0  0  0  0  0  0
  188.8460  177.9620  141.5940 C   0  0  0  0  0  0  0  0  0  0  0  0
  183.5780  178.9100  138.1140 F   0  0  0  0  0  0  0  0  0  0  0  0
  190.3350  175.9740  138.8490 C   0  0  0  0  0  2  0  0  0  0  0  0
  189.4680  176.9460  135.2180 C   0  0  0  0  0  2  0  0  0  0  0  0
  187.5770  178.4500  141.9270 C   0  0  0  0  0  3  0  0  0  0  0  0
  189.1180  177.5910  140.2640 C   0  0  0  0  0  0  0  0  0  0  0  0
  185.8180  178.3210  138.6700 C   0  0  0  0  0  3  0  0  0  0  0  0
  190.9810  175.3530  136.1570 O   0  0  0  0  0  0  0  0  0  0  0  0
  186.5810  178.5680  140.9610 C   0  0  0  0  0  0  0  0  0  0  0  0
  185.3200  179.0460  141.3260 C   0  0  0  0  0  3  0  0  0  0  0  0
  190.4740  177.0600  139.9030 C   0  0  0  0  0  2  0  0  0  0  0  0
  189.6390  176.5190  137.6880 N   0  0  0  0  0  0  0  0  0  0  0  0
  190.0860  176.2170  136.3620 C   0  0  0  0  0  0  0  0  0  0  0  0
  189.7830  175.5250  142.9710 O   0  0  0  0  0  0  0  0  0  0  0  0
  190.2820  176.6450  143.2680 C   0  0  0  0  0  0  0  0  0  0  0  0
  189.8780  177.8400  142.5880 N   0  0  0  0  0  2  0  0  0  0  0  0
  191.9820  175.5120  144.4480 O   0  0  0  0  0  1  0  0  0  0  0  0
  191.3230  176.7370  144.3370 C   0  0  2  0  0  3  0  0  0  0  0  0
  191.5100  176.5390  146.8240 C   0  0  0  0  0  1  0  0  0  0  0  0
  190.7040  177.1330  145.6790 C   0  0  2  0  0  3  0  0  0  0  0  0
  189.3790  176.6640  145.7590 O   0  0  0  0  0  0  0  0  0  0  0  0
  188.5690  177.6570  146.3570 C   0  0  1  0  0  3  0  0  0  0  0  0
  187.2810  177.9090  145.5840 C   0  0  0  0  0  1  0  0  0  0  0  0
  188.3020  177.3780  147.7020 O   0  0  0  0  0  1  0  0  0  0  0  0
  1  6  1  0  0  0  0
  2  5  2  0  0  0  0
  2 13  1  0  0  0  0
  3  7  1  6  0  0  0
  3  2  1  0  0  0  0
  4  7  1  0  0  0  0
  5 16  1  0  0  0  0
  6 17  2  0  0  0  0
  8 12  1  0  0  0  0
  8 23  1  0  0  0  0
  9  1  1  0  0  0  0
 10 18  1  0  0  0  0
 11  4  1  0  0  0  0
 11 20  1  0  0  0  0
 13  8  2  0  0  0  0
 14  1  2  0  0  0  0
 14  5  1  0  0  0  0
 15 20  2  0  0  0  0
 16 17  1  0  0  0  0
 16 12  2  0  0  0  0
 18 13  1  0  0  0  0
 19  3  1  0  0  0  0
 19 10  1  0  0  0  0
 20 19  1  0  0  0  0
 21 22  2  0  0  0  0
 22 25  1  0  0  0  0
 23 22  1  0  0  0  0
 25 24  1  1  0  0  0
 25 27  1  0  0  0  0
 27 28  1  0  0  0  0
 27 26  1  1  0  0  0
 28 29  1  0  0  0  0
 29 30  1  6  0  0  0
 29 31  1  0  0  0  0
M  END
>  <MODEL>
9

>  <REMARK>
 VINA RESULT:      -7.7      3.625      7.955
  Name = 
  5 active torsions:
  status: ('A' for Active; 'I' for Inactive)
    1  A    between atoms: C_1  and  O_24
    2  A    between atoms: C_9  and  C_22
    3  A    between atoms: C_15  and  N_23
    4  A    between atoms: C_19  and  C_22
    5  A    between atoms: C_19  and  O_24
                            x       y       z     vdW  Elec       q    Type
                         _______ _______ _______ _____ _____    ______ ____

>  <TORSDO>
F 5

$$$$
