=
 OpenBabel10272415023D

 37 38  0  0  1  0  0  0  0  0999 V2000
  188.9360  178.3810  138.5190 C   0  0  0  0  0  0  0  0  0  0  0  0
  191.7400  176.9730  138.2270 C   0  0  0  0  0  2  0  0  0  0  0  0
  189.4010  177.1440  139.2360 C   0  0  1  0  0  3  0  0  0  0  0  0
  188.4550  178.2530  137.0950 C   0  0  1  0  0  3  0  0  0  0  0  0
  190.3730  176.3210  138.3770 C   0  0  1  0  0  3  0  0  0  0  0  0
  188.5060  176.7900  136.6010 C   0  0  2  0  0  3  0  0  0  0  0  0
  191.4380  173.7310  136.9280 S   0  0  0  0  0  0  0  0  0  0  0  0
  192.8320  175.9410  137.9480 C   0  0  0  0  0  2  0  0  0  0  0  0
  188.9820  179.4770  139.0590 O   0  0  0  0  0  0  0  0  0  0  0  0
  189.8270  176.0690  136.9640 C   0  0  2  0  0  3  0  0  0  0  0  0
  192.6250  175.1080  136.6760 C   0  0  2  0  0  3  0  0  0  0  0  0
  189.8320  174.5780  136.6070 C   0  0  2  0  0  3  0  0  0  0  0  0
  192.3130  175.8930  135.5630 O   0  0  0  0  0  0  0  0  0  0  0  0
  192.5800  175.1240  134.5290 O   0  0  0  0  0  1  0  0  0  0  0  0
  188.2610  176.7260  135.1190 C   0  0  0  0  0  0  0  0  0  0  0  0
  188.9540  177.3940  134.3670 O   0  0  0  0  0  0  0  0  0  0  0  0
  187.1670  175.8700  134.5600 C   0  0  0  0  0  2  0  0  0  0  0  0
  185.9260  176.6420  134.4420 C   0  0  0  0  0  0  0  0  0  0  0  0
  184.9060  177.2770  134.3460 C   0  0  0  0  0  3  0  0  0  0  0  0
  190.6850  176.1950  141.2230 C   0  0  0  0  0  1  0  0  0  0  0  0
  189.7580  177.2940  140.7280 C   0  0  2  0  0  3  0  0  0  0  0  0
  188.5060  177.3320  141.5930 C   0  0  0  0  0  2  0  0  0  0  0  0
  188.7550  176.6560  142.9310 C   0  0  0  0  0  2  0  0  0  0  0  0
  189.7200  178.6530  143.7640 F   0  0  0  0  0  0  0  0  0  0  0  0
  188.7680  177.6860  144.0420 C   0  0  2  0  0  3  0  0  0  0  0  0
  189.0990  176.9970  145.3540 C   0  0  0  0  0  2  0  0  0  0  0  0
  190.4130  177.5080  145.9280 C   0  0  0  0  0  2  0  0  0  0  0  0
  192.2800  176.2480  146.7260 O   0  0  0  0  0  1  0  0  0  0  0  0
  191.5680  176.5850  145.5740 C   0  0  0  0  0  2  0  0  0  0  0  0
  188.7140  173.8420  137.3440 C   0  0  0  0  0  2  0  0  0  0  0  0
  188.0030  172.8310  136.4530 C   0  0  0  0  0  0  0  0  0  0  0  0
  188.2580  171.5430  136.8860 F   0  0  0  0  0  0  0  0  0  0  0  0
  188.4240  172.9710  135.1440 F   0  0  0  0  0  0  0  0  0  0  0  0
  186.5120  173.0850  136.5200 C   0  0  0  0  0  1  0  0  0  0  0  0
  187.0320  178.7850  136.9700 C   0  0  0  0  0  2  0  0  0  0  0  0
  186.1010  177.9730  137.8050 C   0  0  0  0  0  3  0  0  0  0  0  0
  185.1010  178.5640  138.4490 C   0  0  0  0  0  2  0  0  0  0  0  0
  1  9  2  0  0  0  0
  1  3  1  0  0  0  0
  3 21  1  1  0  0  0
  4 35  1  1  0  0  0
  4  1  1  0  0  0  0
  5  2  1  6  0  0  0
  5  3  1  0  0  0  0
  6 15  1  6  0  0  0
  6 10  1  0  0  0  0
  6  4  1  0  0  0  0
  8  2  1  0  0  0  0
 10  5  1  0  0  0  0
 11  7  1  0  0  0  0
 11  8  1  0  0  0  0
 12  7  1  0  0  0  0
 12 10  1  0  0  0  0
 12 30  1  0  0  0  0
 13 11  1  0  0  0  0
 14 13  1  0  0  0  0
 16 15  2  0  0  0  0
 17 15  1  0  0  0  0
 18 17  1  0  0  0  0
 19 18  3  0  0  0  0
 21 20  1  0  0  0  0
 21 22  1  0  0  0  0
 22 23  1  0  0  0  0
 23 25  1  0  0  0  0
 24 25  1  0  0  0  0
 25 26  1  0  0  0  0
 26 27  1  0  0  0  0
 29 27  1  0  0  0  0
 29 28  1  0  0  0  0
 31 34  1  0  0  0  0
 31 32  1  0  0  0  0
 31 30  1  0  0  0  0
 33 31  1  0  0  0  0
 35 36  1  0  0  0  0
 36 37  2  0  0  0  0
M  END
>  <MODEL>
1

>  <REMARK>
 VINA RESULT:      -5.1      0.000      0.000
  Name = 
  15 active torsions:
  status: ('A' for Active; 'I' for Inactive)
    1  A    between atoms: C_1  and  C_5
    2  A    between atoms: C_1  and  C_36
    3  A    between atoms: C_2  and  C_18
    4  A    between atoms: C_2  and  C_35
    5  A    between atoms: C_3  and  C_32
    6  A    between atoms: C_6  and  C_31
    7  A    between atoms: C_6  and  C_35
    8  A    between atoms: C_9  and  C_13
    9  A    between atoms: C_9  and  C_16
   10  A    between atoms: C_10  and  C_37
   11  A    between atoms: O_11  and  C_33
   12  A    between atoms: C_18  and  C_19
   13  A    between atoms: C_20  and  C_21
   14  A    between atoms: C_21  and  C_32
   15  A    between atoms: C_31  and  C_37
                            x       y       z     vdW  Elec       q    Type
                         _______ _______ _______ _____ _____    ______ ____

>  <TORSDO>
F 15

$$$$
=
 OpenBabel10272415023D

 37 38  0  0  1  0  0  0  0  0999 V2000
  185.3500  178.5390  139.2760 C   0  0  0  0  0  0  0  0  0  0  0  0
  187.5320  178.6690  137.0070 C   0  0  0  0  0  2  0  0  0  0  0  0
  186.6620  177.8060  139.2470 C   0  0  1  0  0  3  0  0  0  0  0  0
  184.1980  177.9930  138.4690 C   0  0  1  0  0  3  0  0  0  0  0  0
  187.0860  177.4570  137.8110 C   0  0  1  0  0  3  0  0  0  0  0  0
  184.5820  176.6920  137.7300 C   0  0  2  0  0  3  0  0  0  0  0  0
  187.9960  175.5530  135.4690 S   0  0  0  0  0  0  0  0  0  0  0  0
  188.4970  178.2810  135.8870 C   0  0  0  0  0  2  0  0  0  0  0  0
  185.2230  179.5790  139.9060 O   0  0  0  0  0  0  0  0  0  0  0  0
  185.9580  176.7740  137.0240 C   0  0  2  0  0  3  0  0  0  0  0  0
  187.9350  177.2860  134.8650 C   0  0  2  0  0  3  0  0  0  0  0  0
  186.4140  175.4450  136.4100 C   0  0  2  0  0  3  0  0  0  0  0  0
  186.6690  177.6500  134.3980 O   0  0  0  0  0  0  0  0  0  0  0  0
  186.6980  178.9650  134.3530 O   0  0  0  0  0  1  0  0  0  0  0  0
  183.5090  176.3090  136.7480 C   0  0  0  0  0  0  0  0  0  0  0  0
  183.3790  176.9540  135.7190 O   0  0  0  0  0  0  0  0  0  0  0  0
  182.5900  175.1610  137.0290 C   0  0  0  0  0  2  0  0  0  0  0  0
  181.1920  175.5940  136.9410 C   0  0  0  0  0  0  0  0  0  0  0  0
  180.0430  175.9500  136.8670 C   0  0  0  0  0  3  0  0  0  0  0  0
  189.1150  177.6620  139.9210 C   0  0  0  0  0  1  0  0  0  0  0  0
  187.7700  178.3200  140.1860 C   0  0  2  0  0  3  0  0  0  0  0  0
  187.3880  178.1260  141.6470 C   0  0  0  0  0  2  0  0  0  0  0  0
  188.6270  178.0670  142.5240 C   0  0  0  0  0  2  0  0  0  0  0  0
  188.1840  175.7880  142.9930 F   0  0  0  0  0  0  0  0  0  0  0  0
  188.4610  177.0050  143.5920 C   0  0  2  0  0  3  0  0  0  0  0  0
  187.3180  177.4010  144.5120 C   0  0  0  0  0  2  0  0  0  0  0  0
  187.8270  177.7580  145.9010 C   0  0  0  0  0  2  0  0  0  0  0  0
  189.4970  177.2580  147.5350 O   0  0  0  0  0  1  0  0  0  0  0  0
  189.1560  177.0810  146.1940 C   0  0  0  0  0  2  0  0  0  0  0  0
  186.5340  174.3660  137.4840 C   0  0  0  0  0  2  0  0  0  0  0  0
  185.8470  173.0680  137.0800 C   0  0  0  0  0  0  0  0  0  0  0  0
  184.8260  172.7670  137.9620 F   0  0  0  0  0  0  0  0  0  0  0  0
  186.7610  172.0310  137.0590 F   0  0  0  0  0  0  0  0  0  0  0  0
  185.2620  173.2380  135.6930 C   0  0  0  0  0  1  0  0  0  0  0  0
  182.9990  177.7320  139.3730 C   0  0  0  0  0  2  0  0  0  0  0  0
  181.8740  178.6430  139.0140 C   0  0  0  0  0  3  0  0  0  0  0  0
  181.9610  179.4100  137.9320 C   0  0  0  0  0  2  0  0  0  0  0  0
  1  9  2  0  0  0  0
  3  1  1  0  0  0  0
  3 21  1  6  0  0  0
  4  1  1  0  0  0  0
  4 35  1  1  0  0  0
  5  2  1  6  0  0  0
  5  3  1  0  0  0  0
  6 15  1  6  0  0  0
  6  4  1  0  0  0  0
  7 12  1  0  0  0  0
  8  2  1  0  0  0  0
 10  6  1  0  0  0  0
 10  5  1  0  0  0  0
 11  7  1  0  0  0  0
 11  8  1  0  0  0  0
 12 10  1  0  0  0  0
 12 30  1  0  0  0  0
 13 11  1  0  0  0  0
 14 13  1  0  0  0  0
 15 17  1  0  0  0  0
 16 15  2  0  0  0  0
 18 17  1  0  0  0  0
 19 18  3  0  0  0  0
 20 21  1  0  0  0  0
 21 22  1  0  0  0  0
 22 23  1  0  0  0  0
 23 25  1  0  0  0  0
 24 25  1  0  0  0  0
 25 26  1  0  0  0  0
 26 27  1  0  0  0  0
 27 29  1  0  0  0  0
 29 28  1  0  0  0  0
 31 30  1  0  0  0  0
 31 32  1  0  0  0  0
 33 31  1  0  0  0  0
 34 31  1  0  0  0  0
 36 35  1  0  0  0  0
 37 36  2  0  0  0  0
M  END
>  <MODEL>
2

>  <REMARK>
 VINA RESULT:      -4.9      2.777      3.982
  Name = 
  15 active torsions:
  status: ('A' for Active; 'I' for Inactive)
    1  A    between atoms: C_1  and  C_5
    2  A    between atoms: C_1  and  C_36
    3  A    between atoms: C_2  and  C_18
    4  A    between atoms: C_2  and  C_35
    5  A    between atoms: C_3  and  C_32
    6  A    between atoms: C_6  and  C_31
    7  A    between atoms: C_6  and  C_35
    8  A    between atoms: C_9  and  C_13
    9  A    between atoms: C_9  and  C_16
   10  A    between atoms: C_10  and  C_37
   11  A    between atoms: O_11  and  C_33
   12  A    between atoms: C_18  and  C_19
   13  A    between atoms: C_20  and  C_21
   14  A    between atoms: C_21  and  C_32
   15  A    between atoms: C_31  and  C_37
                            x       y       z     vdW  Elec       q    Type
                         _______ _______ _______ _____ _____    ______ ____

>  <TORSDO>
F 15

$$$$
=
 OpenBabel10272415023D

 37 38  0  0  1  0  0  0  0  0999 V2000
  185.3160  178.5680  139.2810 C   0  0  0  0  0  0  0  0  0  0  0  0
  187.5240  178.7930  137.0450 C   0  0  0  0  0  2  0  0  0  0  0  0
  186.6400  177.8570  139.2500 C   0  0  1  0  0  3  0  0  0  0  0  0
  184.1830  178.0270  138.4450 C   0  0  1  0  0  3  0  0  0  0  0  0
  187.0870  177.5530  137.8110 C   0  0  1  0  0  3  0  0  0  0  0  0
  184.5970  176.7520  137.6760 C   0  0  2  0  0  3  0  0  0  0  0  0
  188.0570  175.7270  135.4310 S   0  0  0  0  0  0  0  0  0  0  0  0
  188.5100  178.4500  135.9280 C   0  0  0  0  0  2  0  0  0  0  0  0
  185.1650  179.5890  139.9370 O   0  0  0  0  0  0  0  0  0  0  0  0
  185.9800  176.8740  136.9910 C   0  0  2  0  0  3  0  0  0  0  0  0
  187.9760  177.4740  134.8720 C   0  0  2  0  0  3  0  0  0  0  0  0
  186.4650  175.5700  136.3480 C   0  0  2  0  0  3  0  0  0  0  0  0
  186.7110  177.8320  134.3990 O   0  0  0  0  0  0  0  0  0  0  0  0
  186.7350  179.1470  134.3470 O   0  0  0  0  0  1  0  0  0  0  0  0
  183.5430  176.3790  136.6710 C   0  0  0  0  0  0  0  0  0  0  0  0
  182.8430  175.3980  136.8710 O   0  0  0  0  0  0  0  0  0  0  0  0
  183.3570  177.1840  135.4220 C   0  0  0  0  0  2  0  0  0  0  0  0
  181.9660  177.6330  135.3070 C   0  0  0  0  0  0  0  0  0  0  0  0
  180.8220  178.0010  135.2140 C   0  0  0  0  0  3  0  0  0  0  0  0
  189.1090  177.8240  139.8790 C   0  0  0  0  0  1  0  0  0  0  0  0
  187.7280  178.3620  140.2170 C   0  0  2  0  0  3  0  0  0  0  0  0
  187.3860  178.0170  141.6600 C   0  0  0  0  0  2  0  0  0  0  0  0
  188.6430  177.9470  142.5090 C   0  0  0  0  0  2  0  0  0  0  0  0
  188.7100  176.1180  144.0120 F   0  0  0  0  0  0  0  0  0  0  0  0
  188.3090  177.4380  143.8970 C   0  0  2  0  0  3  0  0  0  0  0  0
  186.8090  177.5440  144.1160 C   0  0  0  0  0  2  0  0  0  0  0  0
  186.4920  178.3230  145.3840 C   0  0  0  0  0  2  0  0  0  0  0  0
  184.6730  178.7630  146.8710 O   0  0  0  0  0  1  0  0  0  0  0  0
  184.9960  178.5590  145.5290 C   0  0  0  0  0  2  0  0  0  0  0  0
  186.5890  174.4640  137.3940 C   0  0  0  0  0  2  0  0  0  0  0  0
  186.0210  173.1380  136.9050 C   0  0  0  0  0  0  0  0  0  0  0  0
  186.9480  172.1260  137.0670 F   0  0  0  0  0  0  0  0  0  0  0  0
  185.6700  173.2340  135.5700 F   0  0  0  0  0  0  0  0  0  0  0  0
  184.7860  172.8070  137.7160 C   0  0  0  0  0  1  0  0  0  0  0  0
  182.9760  177.7230  139.3260 C   0  0  0  0  0  2  0  0  0  0  0  0
  181.8950  178.7210  139.0820 C   0  0  0  0  0  3  0  0  0  0  0  0
  182.1280  179.7750  138.3070 C   0  0  0  0  0  2  0  0  0  0  0  0
  1  9  2  0  0  0  0
  3  1  1  0  0  0  0
  3 21  1  6  0  0  0
  4  1  1  0  0  0  0
  4 35  1  1  0  0  0
  5  2  1  6  0  0  0
  5  3  1  0  0  0  0
  6 15  1  6  0  0  0
  6  4  1  0  0  0  0
  7 12  1  0  0  0  0
  8  2  1  0  0  0  0
 10  6  1  0  0  0  0
 10  5  1  0  0  0  0
 11  7  1  0  0  0  0
 11  8  1  0  0  0  0
 12 10  1  0  0  0  0
 12 30  1  0  0  0  0
 13 11  1  0  0  0  0
 14 13  1  0  0  0  0
 15 16  2  0  0  0  0
 17 15  1  0  0  0  0
 18 17  1  0  0  0  0
 19 18  3  0  0  0  0
 20 21  1  0  0  0  0
 21 22  1  0  0  0  0
 22 23  1  0  0  0  0
 23 25  1  0  0  0  0
 25 24  1  0  0  0  0
 25 26  1  0  0  0  0
 26 27  1  0  0  0  0
 27 29  1  0  0  0  0
 29 28  1  0  0  0  0
 31 32  1  0  0  0  0
 31 30  1  0  0  0  0
 31 34  1  0  0  0  0
 33 31  1  0  0  0  0
 36 35  1  0  0  0  0
 37 36  2  0  0  0  0
M  END
>  <MODEL>
3

>  <REMARK>
 VINA RESULT:      -4.9      3.084      4.227
  Name = 
  15 active torsions:
  status: ('A' for Active; 'I' for Inactive)
    1  A    between atoms: C_1  and  C_5
    2  A    between atoms: C_1  and  C_36
    3  A    between atoms: C_2  and  C_18
    4  A    between atoms: C_2  and  C_35
    5  A    between atoms: C_3  and  C_32
    6  A    between atoms: C_6  and  C_31
    7  A    between atoms: C_6  and  C_35
    8  A    between atoms: C_9  and  C_13
    9  A    between atoms: C_9  and  C_16
   10  A    between atoms: C_10  and  C_37
   11  A    between atoms: O_11  and  C_33
   12  A    between atoms: C_18  and  C_19
   13  A    between atoms: C_20  and  C_21
   14  A    between atoms: C_21  and  C_32
   15  A    between atoms: C_31  and  C_37
                            x       y       z     vdW  Elec       q    Type
                         _______ _______ _______ _____ _____    ______ ____

>  <TORSDO>
F 15

$$$$
=
 OpenBabel10272415023D

 37 38  0  0  1  0  0  0  0  0999 V2000
  182.8670  179.1660  138.4490 C   0  0  0  0  0  0  0  0  0  0  0  0
  185.8660  178.8210  137.5450 C   0  0  0  0  0  2  0  0  0  0  0  0
  183.9130  178.3090  139.1080 C   0  0  1  0  0  3  0  0  0  0  0  0
  182.1820  178.6470  137.2100 C   0  0  1  0  0  3  0  0  0  0  0  0
  184.9210  177.7580  138.0870 C   0  0  1  0  0  3  0  0  0  0  0  0
  182.6860  177.2390  136.8230 C   0  0  2  0  0  3  0  0  0  0  0  0
  186.5660  175.5190  136.5970 S   0  0  0  0  0  0  0  0  0  0  0  0
  187.1850  178.2140  137.0670 C   0  0  0  0  0  2  0  0  0  0  0  0
  182.6020  180.2780  138.8810 O   0  0  0  0  0  0  0  0  0  0  0  0
  184.2280  177.1030  136.8830 C   0  0  2  0  0  3  0  0  0  0  0  0
  187.0490  177.1680  135.9530 C   0  0  2  0  0  3  0  0  0  0  0  0
  184.7290  175.6750  136.6420 C   0  0  2  0  0  3  0  0  0  0  0  0
  186.2310  177.6000  134.9050 O   0  0  0  0  0  0  0  0  0  0  0  0
  186.9000  178.5860  134.3460 O   0  0  0  0  0  1  0  0  0  0  0  0
  182.1760  176.8530  135.4620 C   0  0  0  0  0  0  0  0  0  0  0  0
  182.3080  177.6310  134.5300 O   0  0  0  0  0  0  0  0  0  0  0  0
  181.4950  175.5380  135.2440 C   0  0  0  0  0  2  0  0  0  0  0  0
  180.6640  175.1960  136.4020 C   0  0  0  0  0  0  0  0  0  0  0  0
  179.9820  174.9150  137.3560 C   0  0  0  0  0  3  0  0  0  0  0  0
  186.0100  178.7340  140.4920 C   0  0  0  0  0  1  0  0  0  0  0  0
  184.4920  178.8150  140.4430 C   0  0  2  0  0  3  0  0  0  0  0  0
  183.9040  178.0540  141.6230 C   0  0  0  0  0  2  0  0  0  0  0  0
  184.7820  178.2050  142.8530 C   0  0  0  0  0  2  0  0  0  0  0  0
  184.9420  180.4180  143.6820 F   0  0  0  0  0  0  0  0  0  0  0  0
  184.2020  179.2520  143.7830 C   0  0  2  0  0  3  0  0  0  0  0  0
  184.2520  178.7300  145.2090 C   0  0  0  0  0  2  0  0  0  0  0  0
  185.6430  178.2200  145.5610 C   0  0  0  0  0  2  0  0  0  0  0  0
  185.7950  179.7340  147.4040 O   0  0  0  0  0  1  0  0  0  0  0  0
  185.9370  178.3930  147.0430 C   0  0  0  0  0  2  0  0  0  0  0  0
  184.1640  174.7190  137.6900 C   0  0  0  0  0  2  0  0  0  0  0  0
  184.2830  173.2610  137.2680 C   0  0  0  0  0  0  0  0  0  0  0  0
  185.1610  172.5880  138.0960 F   0  0  0  0  0  0  0  0  0  0  0  0
  184.7260  173.1790  135.9600 F   0  0  0  0  0  0  0  0  0  0  0  0
  182.9190  172.6110  137.3670 C   0  0  0  0  0  1  0  0  0  0  0  0
  180.6730  178.6110  137.4190 C   0  0  0  0  0  2  0  0  0  0  0  0
  179.9970  179.5310  136.4600 C   0  0  0  0  0  3  0  0  0  0  0  0
  180.6760  180.5310  135.9090 C   0  0  0  0  0  2  0  0  0  0  0  0
  1  9  2  0  0  0  0
  1  3  1  0  0  0  0
  3 21  1  1  0  0  0
  4 35  1  1  0  0  0
  4  1  1  0  0  0  0
  5  2  1  6  0  0  0
  5  3  1  0  0  0  0
  6 15  1  6  0  0  0
  6 10  1  0  0  0  0
  6  4  1  0  0  0  0
  7 12  1  0  0  0  0
  8  2  1  0  0  0  0
 10  5  1  0  0  0  0
 11  7  1  0  0  0  0
 11  8  1  0  0  0  0
 12 10  1  0  0  0  0
 12 30  1  0  0  0  0
 13 11  1  0  0  0  0
 14 13  1  0  0  0  0
 16 15  2  0  0  0  0
 17 15  1  0  0  0  0
 17 18  1  0  0  0  0
 18 19  3  0  0  0  0
 21 20  1  0  0  0  0
 21 22  1  0  0  0  0
 22 23  1  0  0  0  0
 23 25  1  0  0  0  0
 24 25  1  0  0  0  0
 25 26  1  0  0  0  0
 26 27  1  0  0  0  0
 27 29  1  0  0  0  0
 29 28  1  0  0  0  0
 31 34  1  0  0  0  0
 31 30  1  0  0  0  0
 31 32  1  0  0  0  0
 33 31  1  0  0  0  0
 36 35  1  0  0  0  0
 37 36  2  0  0  0  0
M  END
>  <MODEL>
4

>  <REMARK>
 VINA RESULT:      -4.6      4.092      5.610
  Name = 
  15 active torsions:
  status: ('A' for Active; 'I' for Inactive)
    1  A    between atoms: C_1  and  C_5
    2  A    between atoms: C_1  and  C_36
    3  A    between atoms: C_2  and  C_18
    4  A    between atoms: C_2  and  C_35
    5  A    between atoms: C_3  and  C_32
    6  A    between atoms: C_6  and  C_31
    7  A    between atoms: C_6  and  C_35
    8  A    between atoms: C_9  and  C_13
    9  A    between atoms: C_9  and  C_16
   10  A    between atoms: C_10  and  C_37
   11  A    between atoms: O_11  and  C_33
   12  A    between atoms: C_18  and  C_19
   13  A    between atoms: C_20  and  C_21
   14  A    between atoms: C_21  and  C_32
   15  A    between atoms: C_31  and  C_37
                            x       y       z     vdW  Elec       q    Type
                         _______ _______ _______ _____ _____    ______ ____

>  <TORSDO>
F 15

$$$$
=
 OpenBabel10272415023D

 37 38  0  0  1  0  0  0  0  0999 V2000
  187.0330  178.5450  139.9310 C   0  0  0  0  0  0  0  0  0  0  0  0
  189.6330  177.8850  138.2780 C   0  0  0  0  0  2  0  0  0  0  0  0
  187.9150  177.3370  140.0860 C   0  0  1  0  0  3  0  0  0  0  0  0
  186.0320  178.5700  138.8030 C   0  0  1  0  0  3  0  0  0  0  0  0
  188.5510  176.9240  138.7490 C   0  0  1  0  0  3  0  0  0  0  0  0
  186.0740  177.2700  137.9700 C   0  0  2  0  0  3  0  0  0  0  0  0
  189.2690  174.9460  136.4010 S   0  0  0  0  0  0  0  0  0  0  0  0
  190.6430  177.1950  137.3620 C   0  0  0  0  0  2  0  0  0  0  0  0
  187.1470  179.5070  140.6760 O   0  0  0  0  0  0  0  0  0  0  0  0
  187.5130  176.8130  137.6230 C   0  0  2  0  0  3  0  0  0  0  0  0
  190.0480  176.5790  136.0900 C   0  0  2  0  0  3  0  0  0  0  0  0
  187.5740  175.4510  136.9220 C   0  0  2  0  0  3  0  0  0  0  0  0
  189.2030  177.4600  135.4100 O   0  0  0  0  0  0  0  0  0  0  0  0
  189.8870  177.8230  134.3460 O   0  0  0  0  0  1  0  0  0  0  0  0
  185.2540  177.4190  136.7190 C   0  0  0  0  0  0  0  0  0  0  0  0
  185.7970  177.7740  135.6840 O   0  0  0  0  0  0  0  0  0  0  0  0
  183.7790  177.1580  136.7340 C   0  0  0  0  0  2  0  0  0  0  0  0
  183.4740  176.0140  137.5980 C   0  0  0  0  0  0  0  0  0  0  0  0
  183.2230  175.0740  138.3110 C   0  0  0  0  0  3  0  0  0  0  0  0
  190.1250  176.5410  141.0730 C   0  0  0  0  0  1  0  0  0  0  0  0
  188.8290  177.2930  141.3260 C   0  0  2  0  0  3  0  0  0  0  0  0
  188.1090  176.6810  142.5190 C   0  0  0  0  0  2  0  0  0  0  0  0
  188.9810  176.7390  143.7620 C   0  0  0  0  0  2  0  0  0  0  0  0
  189.2610  177.8330  145.8440 F   0  0  0  0  0  0  0  0  0  0  0  0
  188.4220  177.7460  144.7460 C   0  0  2  0  0  3  0  0  0  0  0  0
  187.0390  177.2940  145.1860 C   0  0  0  0  0  2  0  0  0  0  0  0
  186.3280  178.3860  145.9730 C   0  0  0  0  0  2  0  0  0  0  0  0
  183.9750  178.7870  145.8560 O   0  0  0  0  0  1  0  0  0  0  0  0
  185.1780  178.9820  145.1760 C   0  0  0  0  0  2  0  0  0  0  0  0
  186.9680  174.3610  137.8050 C   0  0  0  0  0  2  0  0  0  0  0  0
  186.3220  173.2490  136.9880 C   0  0  0  0  0  0  0  0  0  0  0  0
  185.2980  172.6570  137.7040 F   0  0  0  0  0  0  0  0  0  0  0  0
  187.2650  172.2950  136.6540 F   0  0  0  0  0  0  0  0  0  0  0  0
  185.7510  173.8450  135.7180 C   0  0  0  0  0  1  0  0  0  0  0  0
  184.6250  178.7800  139.3520 C   0  0  0  0  0  2  0  0  0  0  0  0
  184.3940  177.8980  140.5310 C   0  0  0  0  0  3  0  0  0  0  0  0
  183.6590  178.3320  141.5500 C   0  0  0  0  0  2  0  0  0  0  0  0
  1  3  1  0  0  0  0
  1  9  2  0  0  0  0
  3 21  1  1  0  0  0
  4 35  1  1  0  0  0
  4  1  1  0  0  0  0
  5  2  1  6  0  0  0
  5  3  1  0  0  0  0
  6 15  1  6  0  0  0
  6  4  1  0  0  0  0
  7 12  1  0  0  0  0
  8  2  1  0  0  0  0
 10  6  1  0  0  0  0
 10  5  1  0  0  0  0
 11  7  1  0  0  0  0
 11  8  1  0  0  0  0
 12 10  1  0  0  0  0
 12 30  1  0  0  0  0
 13 11  1  0  0  0  0
 14 13  1  0  0  0  0
 15 17  1  0  0  0  0
 16 15  2  0  0  0  0
 17 18  1  0  0  0  0
 18 19  3  0  0  0  0
 20 21  1  0  0  0  0
 21 22  1  0  0  0  0
 22 23  1  0  0  0  0
 23 25  1  0  0  0  0
 25 26  1  0  0  0  0
 25 24  1  0  0  0  0
 26 27  1  0  0  0  0
 29 28  1  0  0  0  0
 29 27  1  0  0  0  0
 31 32  1  0  0  0  0
 31 30  1  0  0  0  0
 33 31  1  0  0  0  0
 34 31  1  0  0  0  0
 35 36  1  0  0  0  0
 36 37  2  0  0  0  0
M  END
>  <MODEL>
5

>  <REMARK>
 VINA RESULT:      -4.1      2.471      3.267
  Name = 
  15 active torsions:
  status: ('A' for Active; 'I' for Inactive)
    1  A    between atoms: C_1  and  C_5
    2  A    between atoms: C_1  and  C_36
    3  A    between atoms: C_2  and  C_18
    4  A    between atoms: C_2  and  C_35
    5  A    between atoms: C_3  and  C_32
    6  A    between atoms: C_6  and  C_31
    7  A    between atoms: C_6  and  C_35
    8  A    between atoms: C_9  and  C_13
    9  A    between atoms: C_9  and  C_16
   10  A    between atoms: C_10  and  C_37
   11  A    between atoms: O_11  and  C_33
   12  A    between atoms: C_18  and  C_19
   13  A    between atoms: C_20  and  C_21
   14  A    between atoms: C_21  and  C_32
   15  A    between atoms: C_31  and  C_37
                            x       y       z     vdW  Elec       q    Type
                         _______ _______ _______ _____ _____    ______ ____

>  <TORSDO>
F 15

$$$$
=
 OpenBabel10272415023D

 37 38  0  0  1  0  0  0  0  0999 V2000
  187.0890  178.3320  141.7370 C   0  0  0  0  0  0  0  0  0  0  0  0
  189.0040  178.8210  139.2820 C   0  0  0  0  0  2  0  0  0  0  0  0
  187.8270  177.2850  140.9480 C   0  0  1  0  0  3  0  0  0  0  0  0
  185.8160  178.9040  141.1650 C   0  0  1  0  0  3  0  0  0  0  0  0
  187.9970  177.6970  139.4780 C   0  0  1  0  0  3  0  0  0  0  0  0
  185.4610  178.2650  139.8040 C   0  0  2  0  0  3  0  0  0  0  0  0
  187.7650  177.3470  136.3530 S   0  0  0  0  0  0  0  0  0  0  0  0
  189.6170  178.7950  137.8820 C   0  0  0  0  0  2  0  0  0  0  0  0
  187.5280  178.7440  142.8010 O   0  0  0  0  0  0  0  0  0  0  0  0
  186.6730  178.1520  138.8470 C   0  0  2  0  0  3  0  0  0  0  0  0
  188.6110  178.9310  136.7330 C   0  0  2  0  0  3  0  0  0  0  0  0
  186.3650  177.3910  137.5520 C   0  0  2  0  0  3  0  0  0  0  0  0
  187.7170  179.9880  136.9210 O   0  0  0  0  0  0  0  0  0  0  0  0
  187.1040  180.1150  135.7630 O   0  0  0  0  0  1  0  0  0  0  0  0
  184.3380  179.0190  139.1460 C   0  0  0  0  0  0  0  0  0  0  0  0
  184.4850  180.2020  138.8820 O   0  0  0  0  0  0  0  0  0  0  0  0
  183.0410  178.3400  138.8310 C   0  0  0  0  0  2  0  0  0  0  0  0
  181.9750  178.8510  139.6960 C   0  0  0  0  0  0  0  0  0  0  0  0
  181.0970  179.2700  140.4090 C   0  0  0  0  0  3  0  0  0  0  0  0
  188.7100  176.0120  142.9720 C   0  0  0  0  0  1  0  0  0  0  0  0
  189.0480  176.6320  141.6250 C   0  0  2  0  0  3  0  0  0  0  0  0
  190.1830  177.6320  141.7960 C   0  0  0  0  0  2  0  0  0  0  0  0
  190.9310  177.3800  143.0940 C   0  0  0  0  0  2  0  0  0  0  0  0
  191.9820  179.2520  144.0960 F   0  0  0  0  0  0  0  0  0  0  0  0
  190.7800  178.5680  144.0230 C   0  0  2  0  0  3  0  0  0  0  0  0
  190.3830  178.0720  145.4030 C   0  0  0  0  0  2  0  0  0  0  0  0
  191.2170  176.8670  145.8160 C   0  0  0  0  0  2  0  0  0  0  0  0
  192.1510  176.9150  148.0140 O   0  0  0  0  0  1  0  0  0  0  0  0
  191.0220  176.5380  147.2870 C   0  0  0  0  0  2  0  0  0  0  0  0
  185.9130  175.9640  137.8590 C   0  0  0  0  0  2  0  0  0  0  0  0
  184.6920  175.5570  137.0440 C   0  0  0  0  0  0  0  0  0  0  0  0
  184.2180  176.6300  136.3140 F   0  0  0  0  0  0  0  0  0  0  0  0
  183.6950  175.0910  137.8820 F   0  0  0  0  0  0  0  0  0  0  0  0
  185.0900  174.4510  136.0890 C   0  0  0  0  0  1  0  0  0  0  0  0
  184.6630  178.7020  142.1410 C   0  0  0  0  0  2  0  0  0  0  0  0
  184.8540  179.5560  143.3490 C   0  0  0  0  0  3  0  0  0  0  0  0
  184.3720  179.1620  144.5230 C   0  0  0  0  0  2  0  0  0  0  0  0
  1  9  2  0  0  0  0
  3 21  1  1  0  0  0
  3  1  1  0  0  0  0
  4  1  1  0  0  0  0
  4 35  1  1  0  0  0
  5  2  1  1  0  0  0
  5  3  1  0  0  0  0
  6 15  1  6  0  0  0
  6  4  1  0  0  0  0
  7 11  1  0  0  0  0
  7 12  1  0  0  0  0
  8  2  1  0  0  0  0
 10  5  1  0  0  0  0
 10  6  1  0  0  0  0
 11 13  1  0  0  0  0
 11  8  1  0  0  0  0
 12 30  1  0  0  0  0
 12 10  1  0  0  0  0
 14 13  1  0  0  0  0
 16 15  2  0  0  0  0
 17 15  1  0  0  0  0
 17 18  1  0  0  0  0
 18 19  3  0  0  0  0
 21 22  1  0  0  0  0
 21 20  1  0  0  0  0
 22 23  1  0  0  0  0
 23 25  1  0  0  0  0
 25 24  1  0  0  0  0
 25 26  1  0  0  0  0
 26 27  1  0  0  0  0
 27 29  1  0  0  0  0
 29 28  1  0  0  0  0
 31 30  1  0  0  0  0
 31 33  1  0  0  0  0
 32 31  1  0  0  0  0
 34 31  1  0  0  0  0
 35 36  1  0  0  0  0
 36 37  2  0  0  0  0
M  END
>  <MODEL>
6

>  <REMARK>
 VINA RESULT:      -4.0      3.231      4.641
  Name = 
  15 active torsions:
  status: ('A' for Active; 'I' for Inactive)
    1  A    between atoms: C_1  and  C_5
    2  A    between atoms: C_1  and  C_36
    3  A    between atoms: C_2  and  C_18
    4  A    between atoms: C_2  and  C_35
    5  A    between atoms: C_3  and  C_32
    6  A    between atoms: C_6  and  C_31
    7  A    between atoms: C_6  and  C_35
    8  A    between atoms: C_9  and  C_13
    9  A    between atoms: C_9  and  C_16
   10  A    between atoms: C_10  and  C_37
   11  A    between atoms: O_11  and  C_33
   12  A    between atoms: C_18  and  C_19
   13  A    between atoms: C_20  and  C_21
   14  A    between atoms: C_21  and  C_32
   15  A    between atoms: C_31  and  C_37
                            x       y       z     vdW  Elec       q    Type
                         _______ _______ _______ _____ _____    ______ ____

>  <TORSDO>
F 15

$$$$
=
 OpenBabel10272415023D

 37 38  0  0  1  0  0  0  0  0999 V2000
  185.8780  173.4160  136.4610 C   0  0  0  0  0  0  0  0  0  0  0  0
  185.7420  176.2330  135.0550 C   0  0  0  0  0  2  0  0  0  0  0  0
  185.3450  174.6920  137.0520 C   0  0  1  0  0  3  0  0  0  0  0  0
  187.3710  173.2040  136.4270 C   0  0  1  0  0  3  0  0  0  0  0  0
  186.0840  175.9230  136.5060 C   0  0  1  0  0  3  0  0  0  0  0  0
  188.1340  174.3890  137.0590 C   0  0  2  0  0  3  0  0  0  0  0  0
  187.7310  178.6050  136.7020 S   0  0  0  0  0  0  0  0  0  0  0  0
  185.9480  177.7120  134.7290 C   0  0  0  0  0  2  0  0  0  0  0  0
  185.1250  172.5820  135.9800 O   0  0  0  0  0  0  0  0  0  0  0  0
  187.6100  175.7700  136.5950 C   0  0  2  0  0  3  0  0  0  0  0  0
  187.3770  178.2280  134.9400 C   0  0  2  0  0  3  0  0  0  0  0  0
  188.2610  176.9520  137.3230 C   0  0  2  0  0  3  0  0  0  0  0  0
  188.3400  177.3980  134.3610 O   0  0  0  0  0  0  0  0  0  0  0  0
  189.4760  178.0430  134.5260 O   0  0  0  0  0  1  0  0  0  0  0  0
  189.6080  174.2680  136.7920 C   0  0  0  0  0  0  0  0  0  0  0  0
  190.3770  174.1130  137.7280 O   0  0  0  0  0  0  0  0  0  0  0  0
  190.1430  174.3570  135.3960 C   0  0  0  0  0  2  0  0  0  0  0  0
  191.4740  174.9700  135.3980 C   0  0  0  0  0  0  0  0  0  0  0  0
  192.5700  175.4740  135.3980 C   0  0  0  0  0  3  0  0  0  0  0  0
  183.1430  175.2520  135.8980 C   0  0  0  0  0  1  0  0  0  0  0  0
  183.8150  174.8130  137.1890 C   0  0  2  0  0  3  0  0  0  0  0  0
  183.4360  175.7700  138.3110 C   0  0  0  0  0  2  0  0  0  0  0  0
  182.9450  177.0930  137.7470 C   0  0  0  0  0  2  0  0  0  0  0  0
  182.5640  179.3670  138.2900 F   0  0  0  0  0  0  0  0  0  0  0  0
  183.1280  178.1960  138.7700 C   0  0  2  0  0  3  0  0  0  0  0  0
  184.6130  178.4010  139.0180 C   0  0  0  0  0  2  0  0  0  0  0  0
  184.8770  178.8240  140.4560 C   0  0  0  0  0  2  0  0  0  0  0  0
  184.1400  178.5780  142.7160 O   0  0  0  0  0  1  0  0  0  0  0  0
  183.7920  178.3130  141.3910 C   0  0  0  0  0  2  0  0  0  0  0  0
  188.0050  176.8680  138.8260 C   0  0  0  0  0  2  0  0  0  0  0  0
  189.2220  177.2790  139.6440 C   0  0  0  0  0  0  0  0  0  0  0  0
  189.9040  178.3030  139.0140 F   0  0  0  0  0  0  0  0  0  0  0  0
  190.0670  176.1990  139.8180 F   0  0  0  0  0  0  0  0  0  0  0  0
  188.7570  177.7630  141.0020 C   0  0  0  0  0  1  0  0  0  0  0  0
  187.7360  171.9150  137.1540 C   0  0  0  0  0  2  0  0  0  0  0  0
  187.8750  170.7940  136.1800 C   0  0  0  0  0  3  0  0  0  0  0  0
  188.6560  170.9350  135.1140 C   0  0  0  0  0  2  0  0  0  0  0  0
  1  3  1  0  0  0  0
  3 21  1  6  0  0  0
  4  1  1  0  0  0  0
  4  6  1  0  0  0  0
  4 35  1  1  0  0  0
  5  2  1  6  0  0  0
  5 10  1  0  0  0  0
  5  3  1  0  0  0  0
  6 15  1  6  0  0  0
  7 12  1  0  0  0  0
  8 11  1  0  0  0  0
  8  2  1  0  0  0  0
  9  1  2  0  0  0  0
 10  6  1  0  0  0  0
 10 12  1  0  0  0  0
 11  7  1  0  0  0  0
 12 30  1  0  0  0  0
 13 14  1  0  0  0  0
 13 11  1  0  0  0  0
 15 16  2  0  0  0  0
 17 18  1  0  0  0  0
 17 15  1  0  0  0  0
 18 19  3  0  0  0  0
 20 21  1  0  0  0  0
 21 22  1  0  0  0  0
 23 22  1  0  0  0  0
 23 25  1  0  0  0  0
 24 25  1  0  0  0  0
 25 26  1  0  0  0  0
 26 27  1  0  0  0  0
 27 29  1  0  0  0  0
 29 28  1  0  0  0  0
 30 31  1  0  0  0  0
 31 33  1  0  0  0  0
 31 34  1  0  0  0  0
 32 31  1  0  0  0  0
 36 35  1  0  0  0  0
 37 36  2  0  0  0  0
M  END
>  <MODEL>
7

>  <REMARK>
 VINA RESULT:      -3.7      3.341      6.603
  Name = 
  15 active torsions:
  status: ('A' for Active; 'I' for Inactive)
    1  A    between atoms: C_1  and  C_5
    2  A    between atoms: C_1  and  C_36
    3  A    between atoms: C_2  and  C_18
    4  A    between atoms: C_2  and  C_35
    5  A    between atoms: C_3  and  C_32
    6  A    between atoms: C_6  and  C_31
    7  A    between atoms: C_6  and  C_35
    8  A    between atoms: C_9  and  C_13
    9  A    between atoms: C_9  and  C_16
   10  A    between atoms: C_10  and  C_37
   11  A    between atoms: O_11  and  C_33
   12  A    between atoms: C_18  and  C_19
   13  A    between atoms: C_20  and  C_21
   14  A    between atoms: C_21  and  C_32
   15  A    between atoms: C_31  and  C_37
                            x       y       z     vdW  Elec       q    Type
                         _______ _______ _______ _____ _____    ______ ____

>  <TORSDO>
F 15

$$$$
=
 OpenBabel10272415023D

 37 38  0  0  1  0  0  0  0  0999 V2000
  184.6280  177.0060  136.2110 C   0  0  0  0  0  0  0  0  0  0  0  0
  181.8590  178.4640  135.8400 C   0  0  0  0  0  2  0  0  0  0  0  0
  183.2640  176.4180  136.4400 C   0  0  1  0  0  3  0  0  0  0  0  0
  185.2230  177.8910  137.2790 C   0  0  1  0  0  3  0  0  0  0  0  0
  182.2620  177.4770  136.9260 C   0  0  1  0  0  3  0  0  0  0  0  0
  184.2840  178.0280  138.4980 C   0  0  2  0  0  3  0  0  0  0  0  0
  180.1060  178.7140  138.8660 S   0  0  0  0  0  0  0  0  0  0  0  0
  180.4820  179.0700  136.1090 C   0  0  0  0  0  2  0  0  0  0  0  0
  185.2320  176.8090  135.1660 O   0  0  0  0  0  0  0  0  0  0  0  0
  182.8090  178.2930  138.1070 C   0  0  2  0  0  3  0  0  0  0  0  0
  180.3590  179.8340  137.4330 C   0  0  2  0  0  3  0  0  0  0  0  0
  181.8460  178.2870  139.3000 C   0  0  2  0  0  3  0  0  0  0  0  0
  181.4060  180.7380  137.6330 O   0  0  0  0  0  0  0  0  0  0  0  0
  181.0400  181.8200  136.9800 O   0  0  0  0  0  1  0  0  0  0  0  0
  184.7830  179.0990  139.4280 C   0  0  0  0  0  0  0  0  0  0  0  0
  184.4910  180.2650  139.2110 O   0  0  0  0  0  0  0  0  0  0  0  0
  185.6470  178.7530  140.6010 C   0  0  0  0  0  2  0  0  0  0  0  0
  184.9330  179.0130  141.8540 C   0  0  0  0  0  0  0  0  0  0  0  0
  184.3480  179.2280  142.8860 C   0  0  0  0  0  3  0  0  0  0  0  0
  181.2320  175.3780  135.3070 C   0  0  0  0  0  1  0  0  0  0  0  0
  182.7490  175.4160  135.3880 C   0  0  2  0  0  3  0  0  0  0  0  0
  183.2800  174.0150  135.6550 C   0  0  0  0  0  2  0  0  0  0  0  0
  183.7590  173.8850  137.0920 C   0  0  0  0  0  2  0  0  0  0  0  0
  185.3210  172.7730  138.4820 F   0  0  0  0  0  0  0  0  0  0  0  0
  184.8060  172.7950  137.1970 C   0  0  2  0  0  3  0  0  0  0  0  0
  185.9170  173.0760  136.1990 C   0  0  0  0  0  2  0  0  0  0  0  0
  187.0760  173.8090  136.8590 C   0  0  0  0  0  2  0  0  0  0  0  0
  189.4200  173.6820  137.3070 O   0  0  0  0  0  1  0  0  0  0  0  0
  188.3020  172.9170  136.9730 C   0  0  0  0  0  2  0  0  0  0  0  0
  181.8760  176.9360  140.0120 C   0  0  0  0  0  2  0  0  0  0  0  0
  180.8110  175.9820  139.4870 C   0  0  0  0  0  0  0  0  0  0  0  0
  181.3980  174.8980  138.8630 F   0  0  0  0  0  0  0  0  0  0  0  0
  179.9830  176.6380  138.5940 F   0  0  0  0  0  0  0  0  0  0  0  0
  179.9820  175.4870  140.6530 C   0  0  0  0  0  1  0  0  0  0  0  0
  186.5700  177.3380  137.7300 C   0  0  0  0  0  2  0  0  0  0  0  0
  187.6780  178.1810  137.1970 C   0  0  0  0  0  3  0  0  0  0  0  0
  188.7150  177.6090  136.5940 C   0  0  0  0  0  2  0  0  0  0  0  0
  1  3  1  0  0  0  0
  1  4  1  0  0  0  0
  2  8  1  0  0  0  0
  3 21  1  6  0  0  0
  3  5  1  0  0  0  0
  4 35  1  1  0  0  0
  4  6  1  0  0  0  0
  5  2  1  6  0  0  0
  5 10  1  0  0  0  0
  6 15  1  1  0  0  0
  7 12  1  0  0  0  0
  8 11  1  0  0  0  0
  9  1  2  0  0  0  0
 10  6  1  0  0  0  0
 10 12  1  0  0  0  0
 11 13  1  0  0  0  0
 11  7  1  0  0  0  0
 12 30  1  0  0  0  0
 14 13  1  0  0  0  0
 15 17  1  0  0  0  0
 16 15  2  0  0  0  0
 17 18  1  0  0  0  0
 18 19  3  0  0  0  0
 20 21  1  0  0  0  0
 21 22  1  0  0  0  0
 22 23  1  0  0  0  0
 23 25  1  0  0  0  0
 25 24  1  0  0  0  0
 26 27  1  0  0  0  0
 26 25  1  0  0  0  0
 27 29  1  0  0  0  0
 29 28  1  0  0  0  0
 31 30  1  0  0  0  0
 31 34  1  0  0  0  0
 32 31  1  0  0  0  0
 33 31  1  0  0  0  0
 36 35  1  0  0  0  0
 37 36  2  0  0  0  0
M  END
>  <MODEL>
8

>  <REMARK>
 VINA RESULT:      -3.7      4.652      8.810
  Name = 
  15 active torsions:
  status: ('A' for Active; 'I' for Inactive)
    1  A    between atoms: C_1  and  C_5
    2  A    between atoms: C_1  and  C_36
    3  A    between atoms: C_2  and  C_18
    4  A    between atoms: C_2  and  C_35
    5  A    between atoms: C_3  and  C_32
    6  A    between atoms: C_6  and  C_31
    7  A    between atoms: C_6  and  C_35
    8  A    between atoms: C_9  and  C_13
    9  A    between atoms: C_9  and  C_16
   10  A    between atoms: C_10  and  C_37
   11  A    between atoms: O_11  and  C_33
   12  A    between atoms: C_18  and  C_19
   13  A    between atoms: C_20  and  C_21
   14  A    between atoms: C_21  and  C_32
   15  A    between atoms: C_31  and  C_37
                            x       y       z     vdW  Elec       q    Type
                         _______ _______ _______ _____ _____    ______ ____

>  <TORSDO>
F 15

$$$$
=
 OpenBabel10272415023D

 37 38  0  0  1  0  0  0  0  0999 V2000
  186.0450  178.4910  139.4970 C   0  0  0  0  0  0  0  0  0  0  0  0
  189.0030  178.2620  138.4350 C   0  0  0  0  0  2  0  0  0  0  0  0
  187.0520  177.4350  139.8590 C   0  0  1  0  0  3  0  0  0  0  0  0
  185.3100  178.3700  138.1850 C   0  0  1  0  0  3  0  0  0  0  0  0
  188.0090  177.1390  138.6940 C   0  0  1  0  0  3  0  0  0  0  0  0
  185.7270  177.1020  137.4090 C   0  0  2  0  0  3  0  0  0  0  0  0
  189.4990  175.3220  136.5920 S   0  0  0  0  0  0  0  0  0  0  0  0
  190.2770  177.7480  137.7660 C   0  0  0  0  0  2  0  0  0  0  0  0
  185.8510  179.4520  140.2270 O   0  0  0  0  0  0  0  0  0  0  0  0
  187.2590  176.8790  137.3790 C   0  0  2  0  0  3  0  0  0  0  0  0
  190.0630  177.0590  136.4120 C   0  0  2  0  0  3  0  0  0  0  0  0
  187.6750  175.5500  136.7380 C   0  0  2  0  0  3  0  0  0  0  0  0
  189.2520  177.8040  135.5510 O   0  0  0  0  0  0  0  0  0  0  0  0
  189.5610  177.3710  134.3470 O   0  0  0  0  0  1  0  0  0  0  0  0
  185.1720  177.1330  136.0120 C   0  0  0  0  0  0  0  0  0  0  0  0
  185.6780  177.8740  135.1830 O   0  0  0  0  0  0  0  0  0  0  0  0
  183.9990  176.2830  135.6340 C   0  0  0  0  0  2  0  0  0  0  0  0
  183.6580  175.3700  136.7290 C   0  0  0  0  0  0  0  0  0  0  0  0
  183.3780  174.6200  137.6300 C   0  0  0  0  0  3  0  0  0  0  0  0
  186.8090  178.2760  142.2520 C   0  0  0  0  0  1  0  0  0  0  0  0
  187.6830  177.5220  141.2630 C   0  0  2  0  0  3  0  0  0  0  0  0
  189.0610  178.1660  141.2080 C   0  0  0  0  0  2  0  0  0  0  0  0
  190.1290  177.1920  141.6760 C   0  0  0  0  0  2  0  0  0  0  0  0
  191.9100  176.9390  143.2170 F   0  0  0  0  0  0  0  0  0  0  0  0
  191.0830  177.8820  142.6300 C   0  0  2  0  0  3  0  0  0  0  0  0
  190.2790  178.6020  143.7000 C   0  0  0  0  0  2  0  0  0  0  0  0
  190.2910  177.8290  145.0110 C   0  0  0  0  0  2  0  0  0  0  0  0
  187.9740  178.0350  145.5580 O   0  0  0  0  0  1  0  0  0  0  0  0
  188.9710  177.1110  145.2420 C   0  0  0  0  0  2  0  0  0  0  0  0
  187.0750  174.3700  137.5000 C   0  0  0  0  0  2  0  0  0  0  0  0
  186.7110  173.2120  136.5800 C   0  0  0  0  0  0  0  0  0  0  0  0
  186.4740  173.6700  135.2980 F   0  0  0  0  0  0  0  0  0  0  0  0
  185.5860  172.5620  137.0540 F   0  0  0  0  0  0  0  0  0  0  0  0
  187.8670  172.2340  136.5460 C   0  0  0  0  0  1  0  0  0  0  0  0
  183.8050  178.3520  138.4250 C   0  0  0  0  0  2  0  0  0  0  0  0
  183.4830  177.5230  139.6210 C   0  0  0  0  0  3  0  0  0  0  0  0
  182.6090  177.9660  140.5190 C   0  0  0  0  0  2  0  0  0  0  0  0
  1  3  1  0  0  0  0
  1  9  2  0  0  0  0
  3 21  1  1  0  0  0
  4 35  1  1  0  0  0
  4  1  1  0  0  0  0
  5  2  1  6  0  0  0
  5  3  1  0  0  0  0
  6 15  1  6  0  0  0
  6  4  1  0  0  0  0
  7 12  1  0  0  0  0
  8  2  1  0  0  0  0
 10  6  1  0  0  0  0
 10  5  1  0  0  0  0
 11  7  1  0  0  0  0
 11  8  1  0  0  0  0
 12 10  1  0  0  0  0
 12 30  1  0  0  0  0
 13 11  1  0  0  0  0
 14 13  1  0  0  0  0
 16 15  2  0  0  0  0
 17 15  1  0  0  0  0
 17 18  1  0  0  0  0
 18 19  3  0  0  0  0
 21 20  1  0  0  0  0
 22 21  1  0  0  0  0
 22 23  1  0  0  0  0
 23 25  1  0  0  0  0
 25 24  1  0  0  0  0
 25 26  1  0  0  0  0
 26 27  1  0  0  0  0
 27 29  1  0  0  0  0
 29 28  1  0  0  0  0
 31 33  1  0  0  0  0
 31 30  1  0  0  0  0
 32 31  1  0  0  0  0
 34 31  1  0  0  0  0
 35 36  1  0  0  0  0
 36 37  2  0  0  0  0
M  END
>  <MODEL>
9

>  <REMARK>
 VINA RESULT:      -3.3      2.101      3.035
  Name = 
  15 active torsions:
  status: ('A' for Active; 'I' for Inactive)
    1  A    between atoms: C_1  and  C_5
    2  A    between atoms: C_1  and  C_36
    3  A    between atoms: C_2  and  C_18
    4  A    between atoms: C_2  and  C_35
    5  A    between atoms: C_3  and  C_32
    6  A    between atoms: C_6  and  C_31
    7  A    between atoms: C_6  and  C_35
    8  A    between atoms: C_9  and  C_13
    9  A    between atoms: C_9  and  C_16
   10  A    between atoms: C_10  and  C_37
   11  A    between atoms: O_11  and  C_33
   12  A    between atoms: C_18  and  C_19
   13  A    between atoms: C_20  and  C_21
   14  A    between atoms: C_21  and  C_32
   15  A    between atoms: C_31  and  C_37
                            x       y       z     vdW  Elec       q    Type
                         _______ _______ _______ _____ _____    ______ ____

>  <TORSDO>
F 15

$$$$
