=
 OpenBabel10272414113D

 43 47  0  0  1  0  0  0  0  0999 V2000
  194.1820  175.5790  136.5210 C   0  0  0  0  0  0  0  0  0  0  0  0
  190.5360  177.3040  139.4400 C   0  0  0  0  0  0  0  0  0  0  0  0
  188.5740  177.4050  138.6160 C   0  0  0  0  0  0  0  0  0  0  0  0
  192.9330  176.4520  138.3430 C   0  0  0  0  0  0  0  0  0  0  0  0
  193.0350  175.5360  135.7200 C   0  0  0  0  0  3  0  0  0  0  0  0
  195.4310  175.1520  135.9920 N   0  0  0  0  0  1  0  0  0  0  0  0
  191.7510  176.4230  137.5590 C   0  0  0  0  0  0  0  0  0  0  0  0
  194.1090  176.0320  137.8020 N   0  0  0  0  0  0  0  0  0  0  0  0
  191.8110  175.9610  136.2430 C   0  0  0  0  0  3  0  0  0  0  0  0
  189.3360  176.9140  137.6020 N   0  0  0  0  0  0  0  0  0  0  0  0
  190.5670  176.8620  138.1480 C   0  0  0  0  0  0  0  0  0  0  0  0
  191.6760  177.3440  140.2450 C   0  0  0  0  0  3  0  0  0  0  0  0
  189.2770  177.6420  139.7500 N   0  0  0  0  0  0  0  0  0  0  0  0
  192.8890  176.9110  139.6770 C   0  0  0  0  0  3  0  0  0  0  0  0
  187.1040  177.6470  138.4860 C   0  0  1  0  0  3  0  0  0  0  0  0
  186.8740  178.9980  138.2200 O   0  0  0  0  0  1  0  0  0  0  0  0
  186.5240  176.7840  137.3740 C   0  0  0  0  0  2  0  0  0  0  0  0
  185.1170  177.0990  137.1820 N   0  0  0  0  0  2  0  0  0  0  0  0
  184.3380  176.1620  137.9830 C   0  0  0  0  0  2  0  0  0  0  0  0
  183.0740  176.8180  138.5510 C   0  0  0  0  0  0  0  0  0  0  0  0
  182.3100  175.8090  139.3980 C   0  0  0  0  0  1  0  0  0  0  0  0
  182.1790  177.2820  137.4100 C   0  0  0  0  0  1  0  0  0  0  0  0
  183.4730  178.0110  139.4350 C   0  0  1  0  0  3  0  0  0  0  0  0
  182.5990  179.0890  139.2530 O   0  0  0  0  0  0  0  0  0  0  0  0
  183.4120  180.1470  138.8450 C   0  0  0  0  0  1  0  0  0  0  0  0
  183.4910  177.6490  140.7890 O   0  0  0  0  0  0  0  0  0  0  0  0
  184.6560  178.2290  141.3010 C   0  0  0  0  0  2  0  0  0  0  0  0
  184.5210  178.4090  142.7710 C   0  0  0  0  0  0  0  0  0  0  0  0
  183.1700  178.9750  144.6990 C   0  0  0  0  0  3  0  0  0  0  0  0
  185.5100  178.4170  144.9820 C   0  0  0  0  0  3  0  0  0  0  0  0
  184.2780  178.7890  145.5310 C   0  0  0  0  0  3  0  0  0  0  0  0
  185.6320  178.2290  143.6010 C   0  0  0  0  0  3  0  0  0  0  0  0
  183.2910  178.7870  143.3180 C   0  0  0  0  0  3  0  0  0  0  0  0
  188.7600  178.1120  141.0330 C   0  0  0  0  0  2  0  0  0  0  0  0
  188.4540  176.9420  141.9630 C   0  0  0  0  0  2  0  0  0  0  0  0
  190.0270  177.8580  145.2860 C   0  0  0  0  0  3  0  0  0  0  0  0
  191.0960  176.9480  145.3530 C   0  0  0  0  0  0  0  0  0  0  0  0
  190.4230  176.0250  143.2120 C   0  0  0  0  0  3  0  0  0  0  0  0
  189.1630  177.8480  144.1880 C   0  0  0  0  0  3  0  0  0  0  0  0
  189.3600  176.9310  143.1490 C   0  0  0  0  0  0  0  0  0  0  0  0
  191.2830  176.0320  144.3130 C   0  0  0  0  0  3  0  0  0  0  0  0
  192.2270  175.7740  147.2130 C   0  0  0  0  0  1  0  0  0  0  0  0
  191.9820  176.9370  146.4330 O   0  0  0  0  0  0  0  0  0  0  0  0
  1  8  1  0  0  0  0
  2 13  1  0  0  0  0
  2 12  1  0  0  0  0
  3 13  1  0  0  0  0
  4 14  1  0  0  0  0
  5  9  1  0  0  0  0
  5  1  2  0  0  0  0
  6  1  1  0  0  0  0
  7 11  1  0  0  0  0
  7  4  1  0  0  0  0
  8  4  2  0  0  0  0
  9  7  2  0  0  0  0
 10 11  1  0  0  0  0
 10  3  2  0  0  0  0
 11  2  2  0  0  0  0
 13 34  1  0  0  0  0
 14 12  2  0  0  0  0
 15 16  1  6  0  0  0
 15  3  1  0  0  0  0
 17 15  1  0  0  0  0
 18 17  1  0  0  0  0
 18 19  1  0  0  0  0
 19 20  1  0  0  0  0
 20 21  1  0  0  0  0
 20 23  1  0  0  0  0
 22 20  1  0  0  0  0
 23 24  1  1  0  0  0
 23 26  1  0  0  0  0
 25 24  1  0  0  0  0
 26 27  1  0  0  0  0
 27 28  1  0  0  0  0
 28 33  2  0  0  0  0
 28 32  1  0  0  0  0
 29 31  2  0  0  0  0
 30 31  1  0  0  0  0
 32 30  2  0  0  0  0
 33 29  1  0  0  0  0
 34 35  1  0  0  0  0
 35 40  1  0  0  0  0
 36 37  1  0  0  0  0
 37 43  1  0  0  0  0
 38 41  1  0  0  0  0
 39 36  2  0  0  0  0
 40 38  2  0  0  0  0
 40 39  1  0  0  0  0
 41 37  2  0  0  0  0
 43 42  1  0  0  0  0
M  END
>  <MODEL>
1

>  <REMARK>
 VINA RESULT:      -8.3      0.000      0.000
  Name = 
  14 active torsions:
  status: ('A' for Active; 'I' for Inactive)
    1  A    between atoms: C_1  and  C_35
    2  A    between atoms: C_1  and  C_38
    3  A    between atoms: C_2  and  C_6
    4  A    between atoms: C_2  and  C_13
    5  A    between atoms: C_3  and  C_4
    6  A    between atoms: C_3  and  N_17
    7  A    between atoms: C_4  and  C_22
    8  A    between atoms: C_6  and  N_17
    9  A    between atoms: O_10  and  C_22
   10  A    between atoms: C_11  and  C_41
   11  A    between atoms: O_14  and  C_22
   12  A    between atoms: O_14  and  C_41
   13  A    between atoms: C_19  and  O_37
   14  A    between atoms: N_34  and  C_38
                            x       y       z     vdW  Elec       q    Type
                         _______ _______ _______ _____ _____    ______ ____

>  <TORSDO>
F 14

$$$$
=
 OpenBabel10272414113D

 43 47  0  0  1  0  0  0  0  0999 V2000
  187.1750  177.7030  146.5870 C   0  0  0  0  0  0  0  0  0  0  0  0
  183.7700  178.7860  143.1190 C   0  0  0  0  0  0  0  0  0  0  0  0
  184.3810  178.7190  141.0790 C   0  0  0  0  0  0  0  0  0  0  0  0
  185.1700  178.2950  145.4590 C   0  0  0  0  0  0  0  0  0  0  0  0
  187.8560  177.5850  145.3710 C   0  0  0  0  0  3  0  0  0  0  0  0
  187.8610  177.4610  147.8090 N   0  0  0  0  0  1  0  0  0  0  0  0
  185.8310  178.1860  144.2090 C   0  0  0  0  0  0  0  0  0  0  0  0
  185.8590  178.0530  146.6070 N   0  0  0  0  0  0  0  0  0  0  0  0
  187.1800  177.8280  144.1730 C   0  0  0  0  0  3  0  0  0  0  0  0
  185.5040  178.3920  141.7740 N   0  0  0  0  0  0  0  0  0  0  0  0
  185.0910  178.4440  143.0550 C   0  0  0  0  0  0  0  0  0  0  0  0
  183.0840  178.9000  144.3300 C   0  0  0  0  0  3  0  0  0  0  0  0
  183.3070  178.9550  141.8730 N   0  0  0  0  0  0  0  0  0  0  0  0
  183.8040  178.6510  145.5120 C   0  0  0  0  0  3  0  0  0  0  0  0
  184.3410  178.7990  139.5860 C   0  0  1  0  0  3  0  0  0  0  0  0
  184.5830  180.1130  139.1810 O   0  0  0  0  0  1  0  0  0  0  0  0
  185.3760  177.8610  138.9810 C   0  0  0  0  0  2  0  0  0  0  0  0
  186.5380  178.6190  138.5420 N   0  0  0  0  0  2  0  0  0  0  0  0
  187.7100  178.0640  139.2090 C   0  0  0  0  0  2  0  0  0  0  0  0
  188.7310  177.5250  138.2010 C   0  0  0  0  0  0  0  0  0  0  0  0
  189.2100  178.6560  137.3010 C   0  0  0  0  0  1  0  0  0  0  0  0
  188.0840  176.4490  137.3400 C   0  0  0  0  0  1  0  0  0  0  0  0
  189.9380  176.9460  138.9600 C   0  0  1  0  0  3  0  0  0  0  0  0
  191.1200  177.1100  138.2290 O   0  0  0  0  0  0  0  0  0  0  0  0
  191.5910  175.8150  138.0100 C   0  0  0  0  0  1  0  0  0  0  0  0
  190.0780  177.5510  140.2160 O   0  0  0  0  0  0  0  0  0  0  0  0
  190.1100  176.4900  141.1250 C   0  0  0  0  0  2  0  0  0  0  0  0
  190.5700  176.9810  142.4520 C   0  0  0  0  0  0  0  0  0  0  0  0
  191.1000  178.8170  143.9400 C   0  0  0  0  0  3  0  0  0  0  0  0
  191.4040  176.5310  144.6810 C   0  0  0  0  0  3  0  0  0  0  0  0
  191.4760  177.9050  144.9310 C   0  0  0  0  0  3  0  0  0  0  0  0
  190.9530  176.0680  143.4400 C   0  0  0  0  0  3  0  0  0  0  0  0
  190.6490  178.3560  142.6990 C   0  0  0  0  0  3  0  0  0  0  0  0
  181.9440  179.2700  141.4520 C   0  0  0  0  0  2  0  0  0  0  0  0
  181.1080  178.0020  141.3040 C   0  0  0  0  0  2  0  0  0  0  0  0
  181.6900  175.7300  138.3290 C   0  0  0  0  0  3  0  0  0  0  0  0
  181.2420  176.5340  137.2680 C   0  0  0  0  0  0  0  0  0  0  0  0
  180.6890  178.2890  138.8510 C   0  0  0  0  0  3  0  0  0  0  0  0
  181.6370  176.2050  139.6420 C   0  0  0  0  0  3  0  0  0  0  0  0
  181.1360  177.4860  139.9040 C   0  0  0  0  0  0  0  0  0  0  0  0
  180.7380  177.8100  137.5390 C   0  0  0  0  0  3  0  0  0  0  0  0
  182.5050  175.7750  135.2800 C   0  0  0  0  0  1  0  0  0  0  0  0
  181.2880  176.0910  135.9430 O   0  0  0  0  0  0  0  0  0  0  0  0
  1  8  1  0  0  0  0
  1  6  1  0  0  0  0
  2 12  1  0  0  0  0
  3 10  2  0  0  0  0
  3 13  1  0  0  0  0
  4 14  1  0  0  0  0
  4  8  2  0  0  0  0
  5  1  2  0  0  0  0
  7  4  1  0  0  0  0
  9  7  2  0  0  0  0
  9  5  1  0  0  0  0
 10 11  1  0  0  0  0
 11  2  2  0  0  0  0
 11  7  1  0  0  0  0
 12 14  2  0  0  0  0
 13  2  1  0  0  0  0
 15 16  1  1  0  0  0
 15  3  1  0  0  0  0
 17 15  1  0  0  0  0
 18 17  1  0  0  0  0
 18 19  1  0  0  0  0
 20 23  1  0  0  0  0
 20 19  1  0  0  0  0
 21 20  1  0  0  0  0
 22 20  1  0  0  0  0
 23 24  1  6  0  0  0
 23 26  1  0  0  0  0
 25 24  1  0  0  0  0
 26 27  1  0  0  0  0
 27 28  1  0  0  0  0
 28 33  2  0  0  0  0
 28 32  1  0  0  0  0
 29 31  2  0  0  0  0
 30 31  1  0  0  0  0
 32 30  2  0  0  0  0
 33 29  1  0  0  0  0
 34 13  1  0  0  0  0
 35 34  1  0  0  0  0
 36 39  1  0  0  0  0
 37 41  1  0  0  0  0
 37 36  2  0  0  0  0
 38 40  1  0  0  0  0
 39 40  2  0  0  0  0
 40 35  1  0  0  0  0
 41 38  2  0  0  0  0
 42 43  1  0  0  0  0
 43 37  1  0  0  0  0
M  END
>  <MODEL>
2

>  <REMARK>
 VINA RESULT:      -8.1      2.788      8.859
  Name = 
  14 active torsions:
  status: ('A' for Active; 'I' for Inactive)
    1  A    between atoms: C_1  and  C_35
    2  A    between atoms: C_1  and  C_38
    3  A    between atoms: C_2  and  C_6
    4  A    between atoms: C_2  and  C_13
    5  A    between atoms: C_3  and  C_4
    6  A    between atoms: C_3  and  N_17
    7  A    between atoms: C_4  and  C_22
    8  A    between atoms: C_6  and  N_17
    9  A    between atoms: O_10  and  C_22
   10  A    between atoms: C_11  and  C_41
   11  A    between atoms: O_14  and  C_22
   12  A    between atoms: O_14  and  C_41
   13  A    between atoms: C_19  and  O_37
   14  A    between atoms: N_34  and  C_38
                            x       y       z     vdW  Elec       q    Type
                         _______ _______ _______ _____ _____    ______ ____

>  <TORSDO>
F 14

$$$$
=
 OpenBabel10272414113D

 43 47  0  0  1  0  0  0  0  0999 V2000
  191.2080  176.5470  138.0040 C   0  0  0  0  0  0  0  0  0  0  0  0
  187.4570  178.4440  140.6720 C   0  0  0  0  0  0  0  0  0  0  0  0
  185.6040  178.7780  139.6740 C   0  0  0  0  0  0  0  0  0  0  0  0
  189.8660  177.4300  139.7530 C   0  0  0  0  0  0  0  0  0  0  0  0
  190.1490  176.6590  137.0970 C   0  0  0  0  0  3  0  0  0  0  0  0
  192.4610  176.0330  137.5690 N   0  0  0  0  0  1  0  0  0  0  0  0
  188.7710  177.5590  138.8610 C   0  0  0  0  0  0  0  0  0  0  0  0
  191.0470  176.9310  139.3000 N   0  0  0  0  0  0  0  0  0  0  0  0
  188.9210  177.1690  137.5290 C   0  0  0  0  0  3  0  0  0  0  0  0
  186.4170  178.2750  138.7070 N   0  0  0  0  0  0  0  0  0  0  0  0
  187.5770  178.0760  139.3630 C   0  0  0  0  0  0  0  0  0  0  0  0
  188.5090  178.3290  141.5820 C   0  0  0  0  0  3  0  0  0  0  0  0
  186.2080  178.8830  140.8840 N   0  0  0  0  0  0  0  0  0  0  0  0
  189.7290  177.8150  141.1050 C   0  0  0  0  0  3  0  0  0  0  0  0
  184.1820  179.1670  139.4220 C   0  0  1  0  0  3  0  0  0  0  0  0
  184.1260  180.5020  139.0190 O   0  0  0  0  0  1  0  0  0  0  0  0
  183.5710  178.2680  138.3550 C   0  0  0  0  0  2  0  0  0  0  0  0
  182.2310  177.8650  138.7520 N   0  0  0  0  0  2  0  0  0  0  0  0
  182.2940  176.4740  139.1840 C   0  0  0  0  0  2  0  0  0  0  0  0
  181.1490  175.6450  138.5920 C   0  0  0  0  0  0  0  0  0  0  0  0
  180.1890  176.5600  137.8430 C   0  0  0  0  0  1  0  0  0  0  0  0
  180.3910  174.9440  139.7110 C   0  0  0  0  0  1  0  0  0  0  0  0
  181.7240  174.6110  137.6080 C   0  0  1  0  0  3  0  0  0  0  0  0
  180.9580  174.5470  136.4390 O   0  0  0  0  0  0  0  0  0  0  0  0
  180.5230  173.2230  136.3650 C   0  0  0  0  0  1  0  0  0  0  0  0
  183.0510  174.9160  137.2800 O   0  0  0  0  0  0  0  0  0  0  0  0
  183.7750  173.7640  137.6010 C   0  0  0  0  0  2  0  0  0  0  0  0
  185.1440  173.8570  137.0290 C   0  0  0  0  0  0  0  0  0  0  0  0
  186.7040  174.8630  135.4730 C   0  0  0  0  0  3  0  0  0  0  0  0
  187.4320  173.0650  136.9240 C   0  0  0  0  0  3  0  0  0  0  0  0
  187.7100  174.0030  135.9240 C   0  0  0  0  0  3  0  0  0  0  0  0
  186.1480  172.9910  137.4760 C   0  0  0  0  0  3  0  0  0  0  0  0
  185.4200  174.7890  136.0240 C   0  0  0  0  0  3  0  0  0  0  0  0
  185.6090  179.3260  142.1400 C   0  0  0  0  0  2  0  0  0  0  0  0
  185.1070  178.1400  142.9570 C   0  0  0  0  0  2  0  0  0  0  0  0
  187.4690  177.2290  145.7760 C   0  0  0  0  0  3  0  0  0  0  0  0
  186.9200  177.9510  146.8490 C   0  0  0  0  0  0  0  0  0  0  0  0
  185.1980  178.8090  145.3700 C   0  0  0  0  0  3  0  0  0  0  0  0
  186.8830  177.2990  144.5090 C   0  0  0  0  0  3  0  0  0  0  0  0
  185.7470  178.0900  144.3050 C   0  0  0  0  0  0  0  0  0  0  0  0
  185.7870  178.7430  146.6350 C   0  0  0  0  0  3  0  0  0  0  0  0
  188.7890  178.3600  148.4170 C   0  0  0  0  0  1  0  0  0  0  0  0
  187.4760  177.8970  148.1290 O   0  0  0  0  0  0  0  0  0  0  0  0
  1  8  1  0  0  0  0
  2 13  1  0  0  0  0
  2 12  1  0  0  0  0
  3 13  1  0  0  0  0
  4 14  1  0  0  0  0
  5  9  1  0  0  0  0
  5  1  2  0  0  0  0
  6  1  1  0  0  0  0
  7 11  1  0  0  0  0
  7  4  1  0  0  0  0
  8  4  2  0  0  0  0
  9  7  2  0  0  0  0
 10 11  1  0  0  0  0
 10  3  2  0  0  0  0
 11  2  2  0  0  0  0
 13 34  1  0  0  0  0
 14 12  2  0  0  0  0
 15 16  1  6  0  0  0
 15  3  1  0  0  0  0
 17 18  1  0  0  0  0
 17 15  1  0  0  0  0
 18 19  1  0  0  0  0
 20 19  1  0  0  0  0
 20 22  1  0  0  0  0
 21 20  1  0  0  0  0
 23 24  1  6  0  0  0
 23 20  1  0  0  0  0
 25 24  1  0  0  0  0
 26 27  1  0  0  0  0
 26 23  1  0  0  0  0
 28 32  1  0  0  0  0
 28 27  1  0  0  0  0
 29 31  2  0  0  0  0
 29 33  1  0  0  0  0
 30 32  2  0  0  0  0
 31 30  1  0  0  0  0
 33 28  2  0  0  0  0
 34 35  1  0  0  0  0
 35 40  1  0  0  0  0
 36 37  1  0  0  0  0
 37 43  1  0  0  0  0
 38 41  1  0  0  0  0
 39 36  2  0  0  0  0
 40 39  1  0  0  0  0
 40 38  2  0  0  0  0
 41 37  2  0  0  0  0
 43 42  1  0  0  0  0
M  END
>  <MODEL>
3

>  <REMARK>
 VINA RESULT:      -7.7      2.489      5.164
  Name = 
  14 active torsions:
  status: ('A' for Active; 'I' for Inactive)
    1  A    between atoms: C_1  and  C_35
    2  A    between atoms: C_1  and  C_38
    3  A    between atoms: C_2  and  C_6
    4  A    between atoms: C_2  and  C_13
    5  A    between atoms: C_3  and  C_4
    6  A    between atoms: C_3  and  N_17
    7  A    between atoms: C_4  and  C_22
    8  A    between atoms: C_6  and  N_17
    9  A    between atoms: O_10  and  C_22
   10  A    between atoms: C_11  and  C_41
   11  A    between atoms: O_14  and  C_22
   12  A    between atoms: O_14  and  C_41
   13  A    between atoms: C_19  and  O_37
   14  A    between atoms: N_34  and  C_38
                            x       y       z     vdW  Elec       q    Type
                         _______ _______ _______ _____ _____    ______ ____

>  <TORSDO>
F 14

$$$$
=
 OpenBabel10272414113D

 43 47  0  0  1  0  0  0  0  0999 V2000
  191.6130  176.5030  147.0630 C   0  0  0  0  0  0  0  0  0  0  0  0
  188.9580  177.0860  142.8920 C   0  0  0  0  0  0  0  0  0  0  0  0
  186.9340  177.7240  143.0890 C   0  0  0  0  0  0  0  0  0  0  0  0
  190.9090  176.5940  144.7960 C   0  0  0  0  0  0  0  0  0  0  0  0
  190.3490  176.9120  147.5010 C   0  0  0  0  0  3  0  0  0  0  0  0
  192.6400  176.2390  148.0110 N   0  0  0  0  0  1  0  0  0  0  0  0
  189.6150  177.0080  145.2060 C   0  0  0  0  0  0  0  0  0  0  0  0
  191.8650  176.3530  145.7330 N   0  0  0  0  0  0  0  0  0  0  0  0
  189.3430  177.1660  146.5660 C   0  0  0  0  0  3  0  0  0  0  0  0
  187.3860  177.6490  144.3700 N   0  0  0  0  0  0  0  0  0  0  0  0
  188.6620  177.2430  144.2160 C   0  0  0  0  0  0  0  0  0  0  0  0
  190.2190  176.6840  142.4490 C   0  0  0  0  0  3  0  0  0  0  0  0
  187.8730  177.3960  142.1680 N   0  0  0  0  0  0  0  0  0  0  0  0
  191.2020  176.4340  143.4240 C   0  0  0  0  0  3  0  0  0  0  0  0
  185.5400  178.1380  142.7410 C   0  0  1  0  0  3  0  0  0  0  0  0
  184.7660  178.2000  143.9020 O   0  0  0  0  0  1  0  0  0  0  0  0
  185.5500  179.4890  142.0400 C   0  0  0  0  0  2  0  0  0  0  0  0
  184.8360  179.4000  140.7760 N   0  0  0  0  0  2  0  0  0  0  0  0
  183.6220  178.6260  141.0050 C   0  0  0  0  0  2  0  0  0  0  0  0
  182.8420  178.4010  139.7040 C   0  0  0  0  0  0  0  0  0  0  0  0
  182.7520  179.7080  138.9280 C   0  0  0  0  0  1  0  0  0  0  0  0
  181.4340  177.9200  140.0270 C   0  0  0  0  0  1  0  0  0  0  0  0
  183.5770  177.3590  138.8440 C   0  0  1  0  0  3  0  0  0  0  0  0
  182.7420  176.2790  138.5350 O   0  0  0  0  0  0  0  0  0  0  0  0
  182.4330  176.4380  137.1830 C   0  0  0  0  0  1  0  0  0  0  0  0
  184.0530  177.9330  137.6580 O   0  0  0  0  0  0  0  0  0  0  0  0
  185.4450  177.8550  137.7530 C   0  0  0  0  0  2  0  0  0  0  0  0
  185.9690  176.9490  136.6960 C   0  0  0  0  0  0  0  0  0  0  0  0
  186.8620  174.7980  136.0310 C   0  0  0  0  0  3  0  0  0  0  0  0
  186.6180  176.5660  134.3940 C   0  0  0  0  0  3  0  0  0  0  0  0
  186.9940  175.2580  134.7170 C   0  0  0  0  0  3  0  0  0  0  0  0
  186.1070  177.4130  135.3830 C   0  0  0  0  0  3  0  0  0  0  0  0
  186.3520  175.6430  137.0220 C   0  0  0  0  0  3  0  0  0  0  0  0
  187.7390  177.4280  140.7130 C   0  0  0  0  0  2  0  0  0  0  0  0
  188.7660  178.3660  140.0870 C   0  0  0  0  0  2  0  0  0  0  0  0
  189.4130  178.2780  136.3550 C   0  0  0  0  0  3  0  0  0  0  0  0
  189.9410  176.9870  136.1910 C   0  0  0  0  0  0  0  0  0  0  0  0
  189.7170  176.6080  138.5780 C   0  0  0  0  0  3  0  0  0  0  0  0
  189.0400  178.7280  137.6240 C   0  0  0  0  0  3  0  0  0  0  0  0
  189.1920  177.8930  138.7370 C   0  0  0  0  0  0  0  0  0  0  0  0
  190.0940  176.1600  137.3090 C   0  0  0  0  0  3  0  0  0  0  0  0
  191.6460  176.1030  134.6310 C   0  0  0  0  0  1  0  0  0  0  0  0
  190.3160  176.5030  134.9350 O   0  0  0  0  0  0  0  0  0  0  0  0
  1  5  1  0  0  0  0
  1  6  1  0  0  0  0
  2 11  1  0  0  0  0
  3 10  2  0  0  0  0
  4  7  1  0  0  0  0
  4  8  1  0  0  0  0
  7  9  1  0  0  0  0
  8  1  2  0  0  0  0
  9  5  2  0  0  0  0
 11 10  1  0  0  0  0
 11  7  2  0  0  0  0
 12  2  2  0  0  0  0
 12 14  1  0  0  0  0
 13  2  1  0  0  0  0
 13  3  1  0  0  0  0
 14  4  2  0  0  0  0
 15  3  1  0  0  0  0
 15 16  1  1  0  0  0
 17 15  1  0  0  0  0
 18 19  1  0  0  0  0
 18 17  1  0  0  0  0
 20 22  1  0  0  0  0
 20 19  1  0  0  0  0
 21 20  1  0  0  0  0
 23 26  1  6  0  0  0
 23 20  1  0  0  0  0
 24 23  1  0  0  0  0
 25 24  1  0  0  0  0
 26 27  1  0  0  0  0
 28 33  1  0  0  0  0
 28 27  1  0  0  0  0
 29 33  2  0  0  0  0
 30 31  2  0  0  0  0
 30 32  1  0  0  0  0
 31 29  1  0  0  0  0
 32 28  2  0  0  0  0
 34 13  1  0  0  0  0
 35 34  1  0  0  0  0
 36 39  1  0  0  0  0
 37 36  2  0  0  0  0
 37 41  1  0  0  0  0
 38 40  1  0  0  0  0
 39 40  2  0  0  0  0
 40 35  1  0  0  0  0
 41 38  2  0  0  0  0
 42 43  1  0  0  0  0
 43 37  1  0  0  0  0
M  END
>  <MODEL>
4

>  <REMARK>
 VINA RESULT:      -7.5      3.040      7.159
  Name = 
  14 active torsions:
  status: ('A' for Active; 'I' for Inactive)
    1  A    between atoms: C_1  and  C_35
    2  A    between atoms: C_1  and  C_38
    3  A    between atoms: C_2  and  C_6
    4  A    between atoms: C_2  and  C_13
    5  A    between atoms: C_3  and  C_4
    6  A    between atoms: C_3  and  N_17
    7  A    between atoms: C_4  and  C_22
    8  A    between atoms: C_6  and  N_17
    9  A    between atoms: O_10  and  C_22
   10  A    between atoms: C_11  and  C_41
   11  A    between atoms: O_14  and  C_22
   12  A    between atoms: O_14  and  C_41
   13  A    between atoms: C_19  and  O_37
   14  A    between atoms: N_34  and  C_38
                            x       y       z     vdW  Elec       q    Type
                         _______ _______ _______ _____ _____    ______ ____

>  <TORSDO>
F 14

$$$$
=
 OpenBabel10272414113D

 43 47  0  0  1  0  0  0  0  0999 V2000
  181.5850  178.8050  143.4530 C   0  0  0  0  0  0  0  0  0  0  0  0
  186.3760  178.3730  142.1670 C   0  0  0  0  0  0  0  0  0  0  0  0
  186.8470  178.3960  140.0900 C   0  0  0  0  0  0  0  0  0  0  0  0
  183.9480  178.5710  143.4880 C   0  0  0  0  0  0  0  0  0  0  0  0
  181.5830  178.8450  142.0550 C   0  0  0  0  0  3  0  0  0  0  0  0
  180.3580  178.9010  144.1670 N   0  0  0  0  0  1  0  0  0  0  0  0
  183.9820  178.6070  142.0710 C   0  0  0  0  0  0  0  0  0  0  0  0
  182.7560  178.6690  144.1350 N   0  0  0  0  0  0  0  0  0  0  0  0
  182.7900  178.7450  141.3580 C   0  0  0  0  0  3  0  0  0  0  0  0
  185.4930  178.5210  140.1250 N   0  0  0  0  0  0  0  0  0  0  0  0
  185.2240  178.5010  141.4450 C   0  0  0  0  0  0  0  0  0  0  0  0
  186.3840  178.3380  143.5630 C   0  0  0  0  0  3  0  0  0  0  0  0
  187.4120  178.3130  141.3200 N   0  0  0  0  0  0  0  0  0  0  0  0
  185.1460  178.4370  144.2240 C   0  0  0  0  0  3  0  0  0  0  0  0
  187.6290  178.3630  138.8150 C   0  0  1  0  0  3  0  0  0  0  0  0
  188.7840  179.1360  138.9540 O   0  0  0  0  0  1  0  0  0  0  0  0
  187.9930  176.9300  138.4570 C   0  0  0  0  0  2  0  0  0  0  0  0
  187.7970  176.7080  137.0320 N   0  0  0  0  0  2  0  0  0  0  0  0
  186.4220  177.0720  136.7110 C   0  0  0  0  0  2  0  0  0  0  0  0
  185.6890  175.9340  135.9910 C   0  0  0  0  0  0  0  0  0  0  0  0
  186.7020  175.0210  135.3120 C   0  0  0  0  0  1  0  0  0  0  0  0
  184.7570  176.5100  134.9340 C   0  0  0  0  0  1  0  0  0  0  0  0
  184.8880  175.1150  137.0180 C   0  0  1  0  0  3  0  0  0  0  0  0
  185.6810  174.1160  137.5960 O   0  0  0  0  0  0  0  0  0  0  0  0
  184.9200  172.9500  137.4970 C   0  0  0  0  0  1  0  0  0  0  0  0
  184.3710  175.9400  138.0250 O   0  0  0  0  0  0  0  0  0  0  0  0
  183.0330  175.5580  138.1520 C   0  0  0  0  0  2  0  0  0  0  0  0
  182.1670  176.7670  138.1860 C   0  0  0  0  0  0  0  0  0  0  0  0
  181.8520  179.1320  137.7730 C   0  0  0  0  0  3  0  0  0  0  0  0
  180.0650  177.8260  138.7580 C   0  0  0  0  0  3  0  0  0  0  0  0
  180.5550  179.0500  138.2890 C   0  0  0  0  0  3  0  0  0  0  0  0
  180.8720  176.6840  138.7080 C   0  0  0  0  0  3  0  0  0  0  0  0
  182.6600  177.9910  137.7240 C   0  0  0  0  0  3  0  0  0  0  0  0
  188.8350  178.2310  141.6400 C   0  0  0  0  0  2  0  0  0  0  0  0
  189.2140  176.8260  142.0980 C   0  0  0  0  0  2  0  0  0  0  0  0
  191.7340  176.0610  144.8220 C   0  0  0  0  0  3  0  0  0  0  0  0
  191.2540  176.8500  145.8810 C   0  0  0  0  0  0  0  0  0  0  0  0
  189.4520  177.6360  144.4570 C   0  0  0  0  0  3  0  0  0  0  0  0
  191.0750  176.0610  143.5900 C   0  0  0  0  0  3  0  0  0  0  0  0
  189.9330  176.8500  143.4060 C   0  0  0  0  0  0  0  0  0  0  0  0
  190.1150  177.6380  145.6870 C   0  0  0  0  0  3  0  0  0  0  0  0
  192.4050  175.6940  147.7410 C   0  0  0  0  0  1  0  0  0  0  0  0
  191.8840  176.8660  147.1270 O   0  0  0  0  0  0  0  0  0  0  0  0
  1  8  1  0  0  0  0
  1  6  1  0  0  0  0
  2 12  1  0  0  0  0
  3 10  2  0  0  0  0
  3 13  1  0  0  0  0
  4  8  2  0  0  0  0
  4 14  1  0  0  0  0
  5  1  2  0  0  0  0
  7  4  1  0  0  0  0
  9  5  1  0  0  0  0
  9  7  2  0  0  0  0
 10 11  1  0  0  0  0
 11  7  1  0  0  0  0
 11  2  2  0  0  0  0
 12 14  2  0  0  0  0
 13 34  1  0  0  0  0
 13  2  1  0  0  0  0
 15 16  1  1  0  0  0
 15  3  1  0  0  0  0
 17 15  1  0  0  0  0
 18 17  1  0  0  0  0
 19 18  1  0  0  0  0
 20 19  1  0  0  0  0
 20 23  1  0  0  0  0
 21 20  1  0  0  0  0
 22 20  1  0  0  0  0
 23 24  1  1  0  0  0
 23 26  1  0  0  0  0
 25 24  1  0  0  0  0
 26 27  1  0  0  0  0
 27 28  1  0  0  0  0
 28 32  1  0  0  0  0
 29 31  2  0  0  0  0
 31 30  1  0  0  0  0
 32 30  2  0  0  0  0
 33 29  1  0  0  0  0
 33 28  2  0  0  0  0
 34 35  1  0  0  0  0
 35 40  1  0  0  0  0
 36 37  1  0  0  0  0
 37 43  1  0  0  0  0
 38 41  1  0  0  0  0
 39 36  2  0  0  0  0
 40 39  1  0  0  0  0
 40 38  2  0  0  0  0
 41 37  2  0  0  0  0
 43 42  1  0  0  0  0
M  END
>  <MODEL>
5

>  <REMARK>
 VINA RESULT:      -7.4      2.892      6.773
  Name = 
  14 active torsions:
  status: ('A' for Active; 'I' for Inactive)
    1  A    between atoms: C_1  and  C_35
    2  A    between atoms: C_1  and  C_38
    3  A    between atoms: C_2  and  C_6
    4  A    between atoms: C_2  and  C_13
    5  A    between atoms: C_3  and  C_4
    6  A    between atoms: C_3  and  N_17
    7  A    between atoms: C_4  and  C_22
    8  A    between atoms: C_6  and  N_17
    9  A    between atoms: O_10  and  C_22
   10  A    between atoms: C_11  and  C_41
   11  A    between atoms: O_14  and  C_22
   12  A    between atoms: O_14  and  C_41
   13  A    between atoms: C_19  and  O_37
   14  A    between atoms: N_34  and  C_38
                            x       y       z     vdW  Elec       q    Type
                         _______ _______ _______ _____ _____    ______ ____

>  <TORSDO>
F 14

$$$$
=
 OpenBabel10272414113D

 43 47  0  0  1  0  0  0  0  0999 V2000
  191.5540  176.6260  147.2000 C   0  0  0  0  0  0  0  0  0  0  0  0
  189.3350  177.7960  142.8990 C   0  0  0  0  0  0  0  0  0  0  0  0
  187.2080  177.9240  142.8870 C   0  0  0  0  0  0  0  0  0  0  0  0
  191.1140  177.2010  144.9380 C   0  0  0  0  0  0  0  0  0  0  0  0
  190.1870  176.6270  147.4950 C   0  0  0  0  0  3  0  0  0  0  0  0
  192.4980  176.3230  148.2200 N   0  0  0  0  0  1  0  0  0  0  0  0
  189.7200  177.2100  145.2010 C   0  0  0  0  0  0  0  0  0  0  0  0
  191.9860  176.9090  145.9400 N   0  0  0  0  0  0  0  0  0  0  0  0
  189.2630  176.9210  146.4880 C   0  0  0  0  0  3  0  0  0  0  0  0
  187.5140  177.5870  144.1690 N   0  0  0  0  0  0  0  0  0  0  0  0
  188.8590  177.5120  144.1470 C   0  0  0  0  0  0  0  0  0  0  0  0
  190.6990  177.8020  142.6010 C   0  0  0  0  0  3  0  0  0  0  0  0
  188.2990  178.0670  142.0940 N   0  0  0  0  0  0  0  0  0  0  0  0
  191.5940  177.4960  143.6430 C   0  0  0  0  0  3  0  0  0  0  0  0
  185.8050  178.1240  142.4110 C   0  0  1  0  0  3  0  0  0  0  0  0
  184.9150  177.8680  143.4550 O   0  0  0  0  0  1  0  0  0  0  0  0
  185.6200  179.5440  141.8960 C   0  0  0  0  0  2  0  0  0  0  0  0
  185.1890  179.5180  140.5060 N   0  0  0  0  0  2  0  0  0  0  0  0
  184.4260  178.2930  140.3000 C   0  0  0  0  0  2  0  0  0  0  0  0
  183.9970  178.1330  138.8370 C   0  0  0  0  0  0  0  0  0  0  0  0
  185.2130  178.2720  137.9290 C   0  0  0  0  0  1  0  0  0  0  0  0
  182.9870  179.2130  138.4770 C   0  0  0  0  0  1  0  0  0  0  0  0
  183.3810  176.7380  138.6360 C   0  0  1  0  0  3  0  0  0  0  0  0
  181.9910  176.8150  138.4980 O   0  0  0  0  0  0  0  0  0  0  0  0
  181.4800  176.2050  139.6450 C   0  0  0  0  0  1  0  0  0  0  0  0
  183.9270  176.1050  137.5120 O   0  0  0  0  0  0  0  0  0  0  0  0
  183.7990  174.7370  137.7700 C   0  0  0  0  0  2  0  0  0  0  0  0
  184.9810  174.0130  137.2310 C   0  0  0  0  0  0  0  0  0  0  0  0
  185.9440  172.0420  136.2050 C   0  0  0  0  0  3  0  0  0  0  0  0
  187.3630  173.9140  136.8010 C   0  0  0  0  0  3  0  0  0  0  0  0
  187.2100  172.6340  136.2570 C   0  0  0  0  0  3  0  0  0  0  0  0
  186.2480  174.6030  137.2900 C   0  0  0  0  0  3  0  0  0  0  0  0
  184.8290  172.7300  136.6950 C   0  0  0  0  0  3  0  0  0  0  0  0
  188.3290  178.4760  140.6920 C   0  0  0  0  0  2  0  0  0  0  0  0
  188.0570  177.2920  139.7690 C   0  0  0  0  0  2  0  0  0  0  0  0
  191.5500  176.2730  138.7130 C   0  0  0  0  0  3  0  0  0  0  0  0
  191.4830  176.4380  137.3190 C   0  0  0  0  0  0  0  0  0  0  0  0
  189.1700  177.1420  137.5290 C   0  0  0  0  0  3  0  0  0  0  0  0
  190.4320  176.5430  139.5070 C   0  0  0  0  0  3  0  0  0  0  0  0
  189.2400  176.9770  138.9150 C   0  0  0  0  0  0  0  0  0  0  0  0
  190.2870  176.8680  136.7360 C   0  0  0  0  0  3  0  0  0  0  0  0
  192.5440  175.2540  135.4240 C   0  0  0  0  0  1  0  0  0  0  0  0
  192.5840  176.1840  136.4980 O   0  0  0  0  0  0  0  0  0  0  0  0
  1  5  1  0  0  0  0
  1  6  1  0  0  0  0
  2 11  1  0  0  0  0
  3 10  2  0  0  0  0
  4  7  1  0  0  0  0
  4  8  1  0  0  0  0
  7  9  1  0  0  0  0
  8  1  2  0  0  0  0
  9  5  2  0  0  0  0
 11 10  1  0  0  0  0
 11  7  2  0  0  0  0
 12  2  2  0  0  0  0
 12 14  1  0  0  0  0
 13  3  1  0  0  0  0
 13  2  1  0  0  0  0
 14  4  2  0  0  0  0
 15  3  1  0  0  0  0
 15 16  1  1  0  0  0
 17 15  1  0  0  0  0
 18 17  1  0  0  0  0
 19 18  1  0  0  0  0
 20 19  1  0  0  0  0
 21 20  1  0  0  0  0
 22 20  1  0  0  0  0
 23 26  1  6  0  0  0
 23 20  1  0  0  0  0
 24 23  1  0  0  0  0
 24 25  1  0  0  0  0
 26 27  1  0  0  0  0
 28 32  1  0  0  0  0
 28 27  1  0  0  0  0
 29 31  2  0  0  0  0
 29 33  1  0  0  0  0
 30 32  2  0  0  0  0
 31 30  1  0  0  0  0
 33 28  2  0  0  0  0
 34 13  1  0  0  0  0
 35 34  1  0  0  0  0
 36 39  1  0  0  0  0
 37 36  2  0  0  0  0
 38 40  1  0  0  0  0
 40 39  2  0  0  0  0
 40 35  1  0  0  0  0
 41 37  1  0  0  0  0
 41 38  2  0  0  0  0
 42 43  1  0  0  0  0
 43 37  1  0  0  0  0
M  END
>  <MODEL>
6

>  <REMARK>
 VINA RESULT:      -7.2      2.963      6.997
  Name = 
  14 active torsions:
  status: ('A' for Active; 'I' for Inactive)
    1  A    between atoms: C_1  and  C_35
    2  A    between atoms: C_1  and  C_38
    3  A    between atoms: C_2  and  C_6
    4  A    between atoms: C_2  and  C_13
    5  A    between atoms: C_3  and  C_4
    6  A    between atoms: C_3  and  N_17
    7  A    between atoms: C_4  and  C_22
    8  A    between atoms: C_6  and  N_17
    9  A    between atoms: O_10  and  C_22
   10  A    between atoms: C_11  and  C_41
   11  A    between atoms: O_14  and  C_22
   12  A    between atoms: O_14  and  C_41
   13  A    between atoms: C_19  and  O_37
   14  A    between atoms: N_34  and  C_38
                            x       y       z     vdW  Elec       q    Type
                         _______ _______ _______ _____ _____    ______ ____

>  <TORSDO>
F 14

$$$$
=
 OpenBabel10272414113D

 43 47  0  0  1  0  0  0  0  0999 V2000
  190.0490  177.2380  145.3200 C   0  0  0  0  0  0  0  0  0  0  0  0
  190.0010  177.5680  140.3520 C   0  0  0  0  0  0  0  0  0  0  0  0
  188.1490  178.0370  139.4100 C   0  0  0  0  0  0  0  0  0  0  0  0
  190.6600  177.2530  143.0250 C   0  0  0  0  0  0  0  0  0  0  0  0
  188.7220  177.5440  144.9970 C   0  0  0  0  0  3  0  0  0  0  0  0
  190.4240  177.0660  146.6810 N   0  0  0  0  0  1  0  0  0  0  0  0
  189.3240  177.5620  142.6620 C   0  0  0  0  0  0  0  0  0  0  0  0
  190.9810  177.0990  144.3380 N   0  0  0  0  0  0  0  0  0  0  0  0
  188.3570  177.7070  143.6580 C   0  0  0  0  0  3  0  0  0  0  0  0
  187.8500  178.0090  140.7370 N   0  0  0  0  0  0  0  0  0  0  0  0
  189.0340  177.7090  141.3060 C   0  0  0  0  0  0  0  0  0  0  0  0
  191.3280  177.2680  140.6700 C   0  0  0  0  0  3  0  0  0  0  0  0
  189.4540  177.7810  139.1480 N   0  0  0  0  0  0  0  0  0  0  0  0
  191.6510  177.1080  142.0300 C   0  0  0  0  0  3  0  0  0  0  0  0
  187.1330  178.3310  138.3530 C   0  0  1  0  0  3  0  0  0  0  0  0
  187.6960  179.1590  137.3800 O   0  0  0  0  0  1  0  0  0  0  0  0
  186.6370  177.0370  137.7230 C   0  0  0  0  0  2  0  0  0  0  0  0
  185.3060  177.2310  137.1700 N   0  0  0  0  0  2  0  0  0  0  0  0
  184.4260  176.2330  137.7670 C   0  0  0  0  0  2  0  0  0  0  0  0
  183.0850  176.8430  138.1910 C   0  0  0  0  0  0  0  0  0  0  0  0
  182.3980  175.9240  139.1920 C   0  0  0  0  0  1  0  0  0  0  0  0
  182.1870  177.0040  136.9720 C   0  0  0  0  0  1  0  0  0  0  0  0
  183.3340  178.2080  138.8540 C   0  0  1  0  0  3  0  0  0  0  0  0
  182.5350  179.2030  138.2780 O   0  0  0  0  0  0  0  0  0  0  0  0
  181.5910  179.5180  139.2570 C   0  0  0  0  0  1  0  0  0  0  0  0
  183.0830  178.1500  140.2320 O   0  0  0  0  0  0  0  0  0  0  0  0
  184.2650  178.5920  140.8320 C   0  0  0  0  0  2  0  0  0  0  0  0
  184.0780  178.6750  142.3050 C   0  0  0  0  0  0  0  0  0  0  0  0
  185.0080  178.6640  144.5410 C   0  0  0  0  0  3  0  0  0  0  0  0
  182.6130  178.8500  144.2260 C   0  0  0  0  0  3  0  0  0  0  0  0
  183.7220  178.7880  145.0770 C   0  0  0  0  0  3  0  0  0  0  0  0
  182.7910  178.7920  142.8400 C   0  0  0  0  0  3  0  0  0  0  0  0
  185.1870  178.6050  143.1550 C   0  0  0  0  0  3  0  0  0  0  0  0
  190.1160  177.7900  137.8450 C   0  0  0  0  0  2  0  0  0  0  0  0
  190.0990  176.4020  137.2110 C   0  0  0  0  0  2  0  0  0  0  0  0
  192.8410  173.7930  137.0590 C   0  0  0  0  0  3  0  0  0  0  0  0
  193.9800  174.5640  137.3460 C   0  0  0  0  0  0  0  0  0  0  0  0
  192.5810  176.5380  137.5250 C   0  0  0  0  0  3  0  0  0  0  0  0
  191.5810  174.3940  137.0070 C   0  0  0  0  0  3  0  0  0  0  0  0
  191.4500  175.7680  137.2390 C   0  0  0  0  0  0  0  0  0  0  0  0
  193.8410  175.9370  137.5730 C   0  0  0  0  0  3  0  0  0  0  0  0
  195.8330  173.5480  138.6330 C   0  0  0  0  0  1  0  0  0  0  0  0
  195.2540  173.9920  137.4140 O   0  0  0  0  0  0  0  0  0  0  0  0
  1  6  1  0  0  0  0
  2 12  2  0  0  0  0
  2 11  1  0  0  0  0
  3 10  2  0  0  0  0
  4  8  1  0  0  0  0
  5  1  1  0  0  0  0
  7  4  1  0  0  0  0
  7  9  1  0  0  0  0
  8  1  2  0  0  0  0
  9  5  2  0  0  0  0
 10 11  1  0  0  0  0
 11  7  2  0  0  0  0
 12 14  1  0  0  0  0
 13  3  1  0  0  0  0
 13  2  1  0  0  0  0
 14  4  2  0  0  0  0
 15 16  1  6  0  0  0
 15  3  1  0  0  0  0
 17 15  1  0  0  0  0
 18 17  1  0  0  0  0
 18 19  1  0  0  0  0
 19 20  1  0  0  0  0
 20 23  1  0  0  0  0
 20 21  1  0  0  0  0
 22 20  1  0  0  0  0
 23 24  1  6  0  0  0
 23 26  1  0  0  0  0
 24 25  1  0  0  0  0
 26 27  1  0  0  0  0
 27 28  1  0  0  0  0
 28 32  2  0  0  0  0
 28 33  1  0  0  0  0
 29 31  1  0  0  0  0
 30 31  2  0  0  0  0
 32 30  1  0  0  0  0
 33 29  2  0  0  0  0
 34 13  1  0  0  0  0
 35 40  1  0  0  0  0
 35 34  1  0  0  0  0
 36 37  1  0  0  0  0
 37 43  1  0  0  0  0
 37 41  2  0  0  0  0
 38 41  1  0  0  0  0
 39 36  2  0  0  0  0
 39 40  1  0  0  0  0
 40 38  2  0  0  0  0
 43 42  1  0  0  0  0
M  END
>  <MODEL>
7

>  <REMARK>
 VINA RESULT:      -7.2      2.320      5.294
  Name = 
  14 active torsions:
  status: ('A' for Active; 'I' for Inactive)
    1  A    between atoms: C_1  and  C_35
    2  A    between atoms: C_1  and  C_38
    3  A    between atoms: C_2  and  C_6
    4  A    between atoms: C_2  and  C_13
    5  A    between atoms: C_3  and  C_4
    6  A    between atoms: C_3  and  N_17
    7  A    between atoms: C_4  and  C_22
    8  A    between atoms: C_6  and  N_17
    9  A    between atoms: O_10  and  C_22
   10  A    between atoms: C_11  and  C_41
   11  A    between atoms: O_14  and  C_22
   12  A    between atoms: O_14  and  C_41
   13  A    between atoms: C_19  and  O_37
   14  A    between atoms: N_34  and  C_38
                            x       y       z     vdW  Elec       q    Type
                         _______ _______ _______ _____ _____    ______ ____

>  <TORSDO>
F 14

$$$$
=
 OpenBabel10272414113D

 43 47  0  0  1  0  0  0  0  0999 V2000
  194.4430  174.2060  135.4300 C   0  0  0  0  0  0  0  0  0  0  0  0
  190.3810  176.7950  136.6900 C   0  0  0  0  0  0  0  0  0  0  0  0
  190.0830  177.2220  138.7560 C   0  0  0  0  0  0  0  0  0  0  0  0
  192.4060  175.4260  135.3850 C   0  0  0  0  0  0  0  0  0  0  0  0
  194.5140  174.3220  136.8220 C   0  0  0  0  0  3  0  0  0  0  0  0
  195.4630  173.5090  134.7250 N   0  0  0  0  0  1  0  0  0  0  0  0
  192.4450  175.5610  136.7970 C   0  0  0  0  0  0  0  0  0  0  0  0
  193.4010  174.7540  134.7460 N   0  0  0  0  0  0  0  0  0  0  0  0
  193.5080  175.0050  137.5110 C   0  0  0  0  0  3  0  0  0  0  0  0
  191.2430  176.5120  138.7270 N   0  0  0  0  0  0  0  0  0  0  0  0
  191.4060  176.2550  137.4150 C   0  0  0  0  0  0  0  0  0  0  0  0
  190.3090  176.6870  135.3000 C   0  0  0  0  0  3  0  0  0  0  0  0
  189.5410  177.4170  137.5290 N   0  0  0  0  0  0  0  0  0  0  0  0
  191.3410  175.9880  134.6470 C   0  0  0  0  0  3  0  0  0  0  0  0
  189.4770  177.7400  140.0220 C   0  0  1  0  0  3  0  0  0  0  0  0
  188.1610  177.2860  140.1300 O   0  0  0  0  0  1  0  0  0  0  0  0
  190.2930  177.2840  141.2230 C   0  0  0  0  0  2  0  0  0  0  0  0
  189.7120  177.8090  142.4480 N   0  0  0  0  0  2  0  0  0  0  0  0
  189.7800  176.7600  143.4590 C   0  0  0  0  0  2  0  0  0  0  0  0
  190.2900  177.3000  144.8000 C   0  0  0  0  0  0  0  0  0  0  0  0
  190.5720  178.7920  144.6790 C   0  0  0  0  0  1  0  0  0  0  0  0
  191.5770  176.5840  145.1860 C   0  0  0  0  0  1  0  0  0  0  0  0
  189.2140  177.0820  145.8780 C   0  0  1  0  0  3  0  0  0  0  0  0
  189.1800  178.1500  146.7810 O   0  0  0  0  0  0  0  0  0  0  0  0
  189.5870  177.6060  148.0000 C   0  0  0  0  0  1  0  0  0  0  0  0
  187.9490  176.9200  145.2990 O   0  0  0  0  0  0  0  0  0  0  0  0
  187.1260  177.8270  145.9730 C   0  0  0  0  0  2  0  0  0  0  0  0
  185.9840  178.2110  145.1010 C   0  0  0  0  0  0  0  0  0  0  0  0
  185.0020  178.4060  142.8960 C   0  0  0  0  0  3  0  0  0  0  0  0
  183.7720  179.1640  144.8410 C   0  0  0  0  0  3  0  0  0  0  0  0
  183.8530  178.9730  143.4570 C   0  0  0  0  0  3  0  0  0  0  0  0
  184.8380  178.7850  145.6630 C   0  0  0  0  0  3  0  0  0  0  0  0
  186.0690  178.0270  143.7170 C   0  0  0  0  0  3  0  0  0  0  0  0
  188.3400  178.1800  137.2000 C   0  0  0  0  0  2  0  0  0  0  0  0
  187.3000  177.2990  136.5140 C   0  0  0  0  0  2  0  0  0  0  0  0
  183.7390  176.5060  137.5360 C   0  0  0  0  0  3  0  0  0  0  0  0
  183.4700  177.5410  138.4470 C   0  0  0  0  0  0  0  0  0  0  0  0
  185.7130  178.4040  138.1060 C   0  0  0  0  0  3  0  0  0  0  0  0
  184.9880  176.4230  136.9160 C   0  0  0  0  0  3  0  0  0  0  0  0
  185.9770  177.3730  137.2000 C   0  0  0  0  0  0  0  0  0  0  0  0
  184.4650  178.4830  138.7290 C   0  0  0  0  0  3  0  0  0  0  0  0
  182.0920  178.0620  140.4340 C   0  0  0  0  0  1  0  0  0  0  0  0
  182.2290  177.6570  139.0790 O   0  0  0  0  0  0  0  0  0  0  0  0
  1  5  1  0  0  0  0
  2 11  1  0  0  0  0
  2 13  1  0  0  0  0
  3 15  1  0  0  0  0
  4  7  1  0  0  0  0
  5  9  2  0  0  0  0
  6  1  1  0  0  0  0
  7 11  2  0  0  0  0
  7  9  1  0  0  0  0
  8  4  1  0  0  0  0
  8  1  2  0  0  0  0
 10  3  2  0  0  0  0
 11 10  1  0  0  0  0
 12  2  2  0  0  0  0
 13  3  1  0  0  0  0
 14 12  1  0  0  0  0
 14  4  2  0  0  0  0
 15 16  1  1  0  0  0
 15 17  1  0  0  0  0
 17 18  1  0  0  0  0
 18 19  1  0  0  0  0
 19 20  1  0  0  0  0
 20 22  1  0  0  0  0
 20 23  1  0  0  0  0
 21 20  1  0  0  0  0
 23 26  1  6  0  0  0
 23 24  1  0  0  0  0
 24 25  1  0  0  0  0
 26 27  1  0  0  0  0
 28 32  1  0  0  0  0
 28 27  1  0  0  0  0
 29 31  2  0  0  0  0
 29 33  1  0  0  0  0
 30 32  2  0  0  0  0
 31 30  1  0  0  0  0
 33 28  2  0  0  0  0
 34 13  1  0  0  0  0
 35 40  1  0  0  0  0
 35 34  1  0  0  0  0
 36 37  1  0  0  0  0
 37 41  2  0  0  0  0
 37 43  1  0  0  0  0
 38 41  1  0  0  0  0
 39 40  1  0  0  0  0
 39 36  2  0  0  0  0
 40 38  2  0  0  0  0
 43 42  1  0  0  0  0
M  END
>  <MODEL>
8

>  <REMARK>
 VINA RESULT:      -7.1      1.689      6.546
  Name = 
  14 active torsions:
  status: ('A' for Active; 'I' for Inactive)
    1  A    between atoms: C_1  and  C_35
    2  A    between atoms: C_1  and  C_38
    3  A    between atoms: C_2  and  C_6
    4  A    between atoms: C_2  and  C_13
    5  A    between atoms: C_3  and  C_4
    6  A    between atoms: C_3  and  N_17
    7  A    between atoms: C_4  and  C_22
    8  A    between atoms: C_6  and  N_17
    9  A    between atoms: O_10  and  C_22
   10  A    between atoms: C_11  and  C_41
   11  A    between atoms: O_14  and  C_22
   12  A    between atoms: O_14  and  C_41
   13  A    between atoms: C_19  and  O_37
   14  A    between atoms: N_34  and  C_38
                            x       y       z     vdW  Elec       q    Type
                         _______ _______ _______ _____ _____    ______ ____

>  <TORSDO>
F 14

$$$$
=
 OpenBabel10272414113D

 43 47  0  0  1  0  0  0  0  0999 V2000
  182.9300  178.9770  143.2830 C   0  0  0  0  0  0  0  0  0  0  0  0
  184.9430  178.1760  138.8000 C   0  0  0  0  0  0  0  0  0  0  0  0
  187.0650  178.2710  138.6380 C   0  0  0  0  0  0  0  0  0  0  0  0
  183.2630  178.5200  140.9760 C   0  0  0  0  0  0  0  0  0  0  0  0
  184.3090  179.1090  143.4830 C   0  0  0  0  0  3  0  0  0  0  0  0
  182.0360  179.1490  144.3750 N   0  0  0  0  0  1  0  0  0  0  0  0
  184.6660  178.6490  141.1430 C   0  0  0  0  0  0  0  0  0  0  0  0
  182.4400  178.6890  142.0460 N   0  0  0  0  0  0  0  0  0  0  0  0
  185.1830  178.9440  142.4060 C   0  0  0  0  0  3  0  0  0  0  0  0
  186.8190  178.5350  139.9490 N   0  0  0  0  0  0  0  0  0  0  0  0
  185.4760  178.4700  140.0220 C   0  0  0  0  0  0  0  0  0  0  0  0
  183.5690  178.0380  138.5950 C   0  0  0  0  0  3  0  0  0  0  0  0
  185.9410  178.0390  137.9160 N   0  0  0  0  0  0  0  0  0  0  0  0
  182.7250  178.2160  139.7060 C   0  0  0  0  0  3  0  0  0  0  0  0
  188.4440  178.2340  138.0590 C   0  0  1  0  0  3  0  0  0  0  0  0
  189.0520  179.4810  138.2170 O   0  0  0  0  0  1  0  0  0  0  0  0
  189.2720  177.1530  138.7400 C   0  0  0  0  0  2  0  0  0  0  0  0
  190.0870  177.7400  139.7930 N   0  0  0  0  0  2  0  0  0  0  0  0
  189.4130  177.4980  141.0640 C   0  0  0  0  0  2  0  0  0  0  0  0
  190.4080  177.1310  142.1710 C   0  0  0  0  0  0  0  0  0  0  0  0
  191.8240  177.4590  141.7150 C   0  0  0  0  0  1  0  0  0  0  0  0
  190.3180  175.6410  142.4690 C   0  0  0  0  0  1  0  0  0  0  0  0
  190.0890  177.9490  143.4340 C   0  0  1  0  0  3  0  0  0  0  0  0
  190.6360  179.2340  143.3550 O   0  0  0  0  0  0  0  0  0  0  0  0
  191.5410  179.3060  144.4160 C   0  0  0  0  0  1  0  0  0  0  0  0
  188.7050  178.0430  143.6340 O   0  0  0  0  0  0  0  0  0  0  0  0
  188.3910  176.9790  144.4840 C   0  0  0  0  0  2  0  0  0  0  0  0
  188.2030  177.4840  145.8700 C   0  0  0  0  0  0  0  0  0  0  0  0
  189.0730  177.8740  148.0960 C   0  0  0  0  0  3  0  0  0  0  0  0
  186.7800  178.4550  147.5730 C   0  0  0  0  0  3  0  0  0  0  0  0
  187.8360  178.3940  148.4890 C   0  0  0  0  0  3  0  0  0  0  0  0
  186.9620  177.9980  146.2640 C   0  0  0  0  0  3  0  0  0  0  0  0
  189.2560  177.4160  146.7870 C   0  0  0  0  0  3  0  0  0  0  0  0
  185.8520  177.6720  136.5050 C   0  0  0  0  0  2  0  0  0  0  0  0
  186.0660  176.1740  136.3130 C   0  0  0  0  0  2  0  0  0  0  0  0
  182.4630  175.2180  135.6350 C   0  0  0  0  0  3  0  0  0  0  0  0
  182.3280  174.0570  136.4140 C   0  0  0  0  0  0  0  0  0  0  0  0
  184.6430  174.2720  137.1110 C   0  0  0  0  0  3  0  0  0  0  0  0
  183.6820  175.8990  135.5960 C   0  0  0  0  0  3  0  0  0  0  0  0
  184.7740  175.4270  136.3340 C   0  0  0  0  0  0  0  0  0  0  0  0
  183.4250  173.5890  137.1450 C   0  0  0  0  0  3  0  0  0  0  0  0
  180.8360  172.4130  137.5060 C   0  0  0  0  0  1  0  0  0  0  0  0
  181.1210  173.3560  136.4810 O   0  0  0  0  0  0  0  0  0  0  0  0
  1  5  1  0  0  0  0
  1  6  1  0  0  0  0
  2 11  1  0  0  0  0
  3 10  2  0  0  0  0
  4  7  1  0  0  0  0
  4  8  1  0  0  0  0
  7  9  1  0  0  0  0
  8  1  2  0  0  0  0
  9  5  2  0  0  0  0
 10 11  1  0  0  0  0
 11  7  2  0  0  0  0
 12  2  2  0  0  0  0
 12 14  1  0  0  0  0
 13  3  1  0  0  0  0
 13  2  1  0  0  0  0
 14  4  2  0  0  0  0
 15 16  1  1  0  0  0
 15  3  1  0  0  0  0
 15 17  1  0  0  0  0
 17 18  1  0  0  0  0
 18 19  1  0  0  0  0
 19 20  1  0  0  0  0
 20 22  1  0  0  0  0
 20 23  1  0  0  0  0
 21 20  1  0  0  0  0
 23 24  1  6  0  0  0
 23 26  1  0  0  0  0
 24 25  1  0  0  0  0
 26 27  1  0  0  0  0
 27 28  1  0  0  0  0
 28 32  2  0  0  0  0
 28 33  1  0  0  0  0
 29 31  1  0  0  0  0
 30 31  2  0  0  0  0
 32 30  1  0  0  0  0
 33 29  2  0  0  0  0
 34 13  1  0  0  0  0
 35 40  1  0  0  0  0
 35 34  1  0  0  0  0
 36 37  1  0  0  0  0
 37 43  1  0  0  0  0
 37 41  2  0  0  0  0
 38 41  1  0  0  0  0
 39 36  2  0  0  0  0
 39 40  1  0  0  0  0
 40 38  2  0  0  0  0
 43 42  1  0  0  0  0
M  END
>  <MODEL>
9

>  <REMARK>
 VINA RESULT:      -7.1      2.872      8.794
  Name = 
  14 active torsions:
  status: ('A' for Active; 'I' for Inactive)
    1  A    between atoms: C_1  and  C_35
    2  A    between atoms: C_1  and  C_38
    3  A    between atoms: C_2  and  C_6
    4  A    between atoms: C_2  and  C_13
    5  A    between atoms: C_3  and  C_4
    6  A    between atoms: C_3  and  N_17
    7  A    between atoms: C_4  and  C_22
    8  A    between atoms: C_6  and  N_17
    9  A    between atoms: O_10  and  C_22
   10  A    between atoms: C_11  and  C_41
   11  A    between atoms: O_14  and  C_22
   12  A    between atoms: O_14  and  C_41
   13  A    between atoms: C_19  and  O_37
   14  A    between atoms: N_34  and  C_38
                            x       y       z     vdW  Elec       q    Type
                         _______ _______ _______ _____ _____    ______ ____

>  <TORSDO>
F 14

$$$$
