=
 OpenBabel10272401453D

 28 31  0  0  1  0  0  0  0  0999 V2000
  190.1190  177.1360  141.5380 N   0  0  0  0  0  0  0  0  0  0  0  0
  190.8630  177.5000  143.7070 C   0  0  2  0  0  3  0  0  0  0  0  0
  191.5880  176.3840  142.9860 C   0  0  1  0  0  3  0  0  0  0  0  0
  191.7230  175.2880  143.8370 O   0  0  0  0  0  1  0  0  0  0  0  0
  190.8200  176.0160  141.8660 O   0  0  0  0  0  0  0  0  0  0  0  0
  189.7020  177.7560  142.7980 C   0  0  2  0  0  3  0  0  0  0  0  0
  190.9650  179.8600  144.0460 O   0  0  0  0  0  1  0  0  0  0  0  0
  191.7430  178.7360  143.7680 C   0  0  0  0  0  2  0  0  0  0  0  0
  188.9920  176.7540  140.6940 C   0  0  0  0  0  2  0  0  0  0  0  0
  189.2340  177.1810  139.3240 N   0  0  0  0  0  0  0  0  0  0  0  0
  190.1560  177.2430  137.1040 C   0  0  1  0  0  3  0  0  0  0  0  0
  188.7390  178.4200  138.7680 C   0  0  0  0  0  3  0  0  0  0  0  0
  190.6390  175.4290  138.6260 O   0  0  0  0  0  0  0  0  0  0  0  0
  190.0540  176.5180  138.3850 C   0  0  0  0  0  0  0  0  0  0  0  0
  189.5300  176.4230  135.9910 C   0  0  0  0  0  1  0  0  0  0  0  0
  189.3100  178.5000  137.3440 C   0  0  0  0  0  3  0  0  0  0  0  0
  188.4610  177.0960  143.4260 C   0  0  0  0  0  2  0  0  0  0  0  0
  188.9080  177.9440  146.2190 C   0  0  0  0  0  3  0  0  0  0  0  0
  186.5100  178.1950  146.4820 C   0  0  0  0  0  0  0  0  0  0  0  0
  187.5460  178.1140  144.1180 C   0  0  2  0  0  3  0  0  0  0  0  0
  187.9460  178.0220  148.4310 C   0  0  0  0  0  0  0  0  0  0  0  0
  187.6350  178.0400  145.6330 C   0  0  0  0  0  0  0  0  0  0  0  0
  185.1150  179.1150  144.6510 C   0  0  0  0  0  2  0  0  0  0  0  0
  186.6760  178.1620  147.8710 C   0  0  0  0  0  3  0  0  0  0  0  0
  185.1180  178.3620  145.9620 C   0  0  0  0  0  2  0  0  0  0  0  0
  188.0940  177.9960  149.7780 F   0  0  0  0  0  0  0  0  0  0  0  0
  189.0640  177.9270  147.6050 C   0  0  0  0  0  3  0  0  0  0  0  0
  185.8600  178.0480  143.3960 S   0  0  0  0  0  0  0  0  0  0  0  0
  1  5  1  0  0  0  0
  1  6  1  0  0  0  0
  2  8  1  6  0  0  0
  3  2  1  0  0  0  0
  3  4  1  1  0  0  0
  5  3  1  0  0  0  0
  6 17  1  1  0  0  0
  6  2  1  0  0  0  0
  8  7  1  0  0  0  0
  9  1  1  0  0  0  0
 10  9  1  0  0  0  0
 11 15  1  6  0  0  0
 11 16  1  0  0  0  0
 11 14  1  0  0  0  0
 12 10  1  0  0  0  0
 14 13  2  0  0  0  0
 14 10  1  0  0  0  0
 16 12  2  0  0  0  0
 18 27  1  0  0  0  0
 19 24  2  0  0  0  0
 20 17  1  6  0  0  0
 20 22  1  0  0  0  0
 21 26  1  0  0  0  0
 22 18  2  0  0  0  0
 22 19  1  0  0  0  0
 23 25  1  0  0  0  0
 24 21  1  0  0  0  0
 25 19  1  0  0  0  0
 27 21  2  0  0  0  0
 28 20  1  0  0  0  0
 28 23  1  0  0  0  0
M  END
>  <MODEL>
1

>  <REMARK>
 VINA RESULT:      -8.6      0.000      0.000
  Name = 
  5 active torsions:
  status: ('A' for Active; 'I' for Inactive)
    1  A    between atoms: N_1  and  C_2
    2  A    between atoms: C_2  and  N_3
    3  A    between atoms: C_10  and  C_17
    4  A    between atoms: C_16  and  C_20
    5  A    between atoms: C_17  and  C_27
                            x       y       z     vdW  Elec       q    Type
                         _______ _______ _______ _____ _____    ______ ____

>  <TORSDO>
F 5

$$$$
=
 OpenBabel10272401453D

 28 31  0  0  1  0  0  0  0  0999 V2000
  189.6500  176.7720  138.5500 N   0  0  0  0  0  0  0  0  0  0  0  0
  187.9440  178.3090  138.8910 C   0  0  2  0  0  3  0  0  0  0  0  0
  188.7440  178.5460  137.6270 C   0  0  1  0  0  3  0  0  0  0  0  0
  189.0360  179.9040  137.5060 O   0  0  0  0  0  1  0  0  0  0  0  0
  189.9420  177.8150  137.7250 O   0  0  0  0  0  0  0  0  0  0  0  0
  188.7860  177.3010  139.6080 C   0  0  2  0  0  3  0  0  0  0  0  0
  185.6750  178.7040  138.2680 O   0  0  0  0  0  1  0  0  0  0  0  0
  186.5990  177.6970  138.5460 C   0  0  0  0  0  2  0  0  0  0  0  0
  190.8990  176.2160  139.0630 C   0  0  0  0  0  2  0  0  0  0  0  0
  191.6060  175.5260  137.9960 N   0  0  0  0  0  0  0  0  0  0  0  0
  193.2970  175.0180  136.3620 C   0  0  1  0  0  3  0  0  0  0  0  0
  191.0390  174.4450  137.2210 C   0  0  0  0  0  3  0  0  0  0  0  0
  193.5860  176.7950  137.9740 O   0  0  0  0  0  0  0  0  0  0  0  0
  192.8840  175.8630  137.4990 C   0  0  0  0  0  0  0  0  0  0  0  0
  194.5070  174.1870  136.7460 C   0  0  0  0  0  1  0  0  0  0  0  0
  192.0910  174.0920  136.1590 C   0  0  0  0  0  3  0  0  0  0  0  0
  189.5550  178.0370  140.7200 C   0  0  0  0  0  2  0  0  0  0  0  0
  187.3490  177.5950  142.6320 C   0  0  0  0  0  3  0  0  0  0  0  0
  188.9800  177.4910  144.4250 C   0  0  0  0  0  0  0  0  0  0  0  0
  189.7340  177.1750  141.9750 C   0  0  2  0  0  3  0  0  0  0  0  0
  186.6380  177.8890  144.9200 C   0  0  0  0  0  0  0  0  0  0  0  0
  188.6880  177.4700  143.0380 C   0  0  0  0  0  0  0  0  0  0  0  0
  191.1670  176.3710  144.0950 C   0  0  0  0  0  2  0  0  0  0  0  0
  187.9550  177.7230  145.3480 C   0  0  0  0  0  3  0  0  0  0  0  0
  190.3620  177.3100  144.9650 C   0  0  0  0  0  2  0  0  0  0  0  0
  185.6530  178.1090  145.8250 F   0  0  0  0  0  0  0  0  0  0  0  0
  186.3320  177.8120  143.5630 C   0  0  0  0  0  3  0  0  0  0  0  0
  191.4850  177.2060  142.5230 S   0  0  0  0  0  0  0  0  0  0  0  0
  1  9  1  0  0  0  0
  1  6  1  0  0  0  0
  2  8  1  6  0  0  0
  2  6  1  0  0  0  0
  3  4  1  1  0  0  0
  3  5  1  0  0  0  0
  3  2  1  0  0  0  0
  5  1  1  0  0  0  0
  6 17  1  1  0  0  0
  7  8  1  0  0  0  0
 10  9  1  0  0  0  0
 11 15  1  1  0  0  0
 11 14  1  0  0  0  0
 12 10  1  0  0  0  0
 14 13  2  0  0  0  0
 14 10  1  0  0  0  0
 16 11  1  0  0  0  0
 16 12  2  0  0  0  0
 18 22  2  0  0  0  0
 18 27  1  0  0  0  0
 19 25  1  0  0  0  0
 19 24  2  0  0  0  0
 20 17  1  6  0  0  0
 20 28  1  0  0  0  0
 20 22  1  0  0  0  0
 21 24  1  0  0  0  0
 21 26  1  0  0  0  0
 22 19  1  0  0  0  0
 23 25  1  0  0  0  0
 27 21  2  0  0  0  0
 28 23  1  0  0  0  0
M  END
>  <MODEL>
2

>  <REMARK>
 VINA RESULT:      -7.8      2.935      4.874
  Name = 
  5 active torsions:
  status: ('A' for Active; 'I' for Inactive)
    1  A    between atoms: N_1  and  C_2
    2  A    between atoms: C_2  and  N_3
    3  A    between atoms: C_10  and  C_17
    4  A    between atoms: C_16  and  C_20
    5  A    between atoms: C_17  and  C_27
                            x       y       z     vdW  Elec       q    Type
                         _______ _______ _______ _____ _____    ______ ____

>  <TORSDO>
F 5

$$$$
=
 OpenBabel10272401453D

 28 31  0  0  1  0  0  0  0  0999 V2000
  189.6120  176.8730  138.4960 N   0  0  0  0  0  0  0  0  0  0  0  0
  187.7460  178.2510  138.5870 C   0  0  2  0  0  3  0  0  0  0  0  0
  188.7110  178.5930  137.4720 C   0  0  1  0  0  3  0  0  0  0  0  0
  188.8990  179.9730  137.4230 O   0  0  0  0  0  1  0  0  0  0  0  0
  189.9380  177.9620  137.7470 O   0  0  0  0  0  0  0  0  0  0  0  0
  188.5480  177.2940  139.4110 C   0  0  2  0  0  3  0  0  0  0  0  0
  186.5580  177.5870  136.6280 O   0  0  0  0  0  1  0  0  0  0  0  0
  186.5300  177.5400  138.0220 C   0  0  0  0  0  2  0  0  0  0  0  0
  190.8070  176.4070  139.1910 C   0  0  0  0  0  2  0  0  0  0  0  0
  191.7580  175.8670  138.2320 N   0  0  0  0  0  0  0  0  0  0  0  0
  192.7840  174.3480  136.6740 C   0  0  1  0  0  3  0  0  0  0  0  0
  193.0480  176.4580  137.9570 C   0  0  0  0  0  3  0  0  0  0  0  0
  190.5920  173.9250  137.5990 O   0  0  0  0  0  0  0  0  0  0  0  0
  191.6130  174.6590  137.5160 C   0  0  0  0  0  0  0  0  0  0  0  0
  192.3930  174.3740  135.2090 C   0  0  0  0  0  1  0  0  0  0  0  0
  193.7410  175.5120  136.9640 C   0  0  0  0  0  3  0  0  0  0  0  0
  189.0660  178.0560  140.6450 C   0  0  0  0  0  2  0  0  0  0  0  0
  186.5960  177.8610  142.2500 C   0  0  0  0  0  3  0  0  0  0  0  0
  187.9590  177.6560  144.2460 C   0  0  0  0  0  0  0  0  0  0  0  0
  188.9970  177.2130  141.9240 C   0  0  2  0  0  3  0  0  0  0  0  0
  185.6180  178.2740  144.4180 C   0  0  0  0  0  0  0  0  0  0  0  0
  187.8520  177.6260  142.8330 C   0  0  0  0  0  0  0  0  0  0  0  0
  190.0580  176.3370  144.2270 C   0  0  0  0  0  2  0  0  0  0  0  0
  186.8460  178.0020  145.0210 C   0  0  0  0  0  3  0  0  0  0  0  0
  189.2340  177.3660  144.9690 C   0  0  0  0  0  2  0  0  0  0  0  0
  184.5470  178.6040  145.1800 F   0  0  0  0  0  0  0  0  0  0  0  0
  185.4890  178.1910  143.0330 C   0  0  0  0  0  3  0  0  0  0  0  0
  190.6560  177.1010  142.7010 S   0  0  0  0  0  0  0  0  0  0  0  0
  1  9  1  0  0  0  0
  1  6  1  0  0  0  0
  2  8  1  6  0  0  0
  2  6  1  0  0  0  0
  3  4  1  1  0  0  0
  3  5  1  0  0  0  0
  3  2  1  0  0  0  0
  5  1  1  0  0  0  0
  6 17  1  1  0  0  0
  7  8  1  0  0  0  0
 10  9  1  0  0  0  0
 11 15  1  6  0  0  0
 11 16  1  0  0  0  0
 11 14  1  0  0  0  0
 12 10  1  0  0  0  0
 14 13  2  0  0  0  0
 14 10  1  0  0  0  0
 16 12  2  0  0  0  0
 18 22  2  0  0  0  0
 18 27  1  0  0  0  0
 19 25  1  0  0  0  0
 19 24  2  0  0  0  0
 20 17  1  6  0  0  0
 20 28  1  0  0  0  0
 20 22  1  0  0  0  0
 21 24  1  0  0  0  0
 21 26  1  0  0  0  0
 22 19  1  0  0  0  0
 23 25  1  0  0  0  0
 27 21  2  0  0  0  0
 28 23  1  0  0  0  0
M  END
>  <MODEL>
3

>  <REMARK>
 VINA RESULT:      -7.7      2.996      4.885
  Name = 
  5 active torsions:
  status: ('A' for Active; 'I' for Inactive)
    1  A    between atoms: N_1  and  C_2
    2  A    between atoms: C_2  and  N_3
    3  A    between atoms: C_10  and  C_17
    4  A    between atoms: C_16  and  C_20
    5  A    between atoms: C_17  and  C_27
                            x       y       z     vdW  Elec       q    Type
                         _______ _______ _______ _____ _____    ______ ____

>  <TORSDO>
F 5

$$$$
=
 OpenBabel10272401453D

 28 31  0  0  1  0  0  0  0  0999 V2000
  189.5760  177.9220  141.4600 N   0  0  0  0  0  0  0  0  0  0  0  0
  190.4900  177.9880  143.5930 C   0  0  2  0  0  3  0  0  0  0  0  0
  191.4740  177.5930  142.5120 C   0  0  1  0  0  3  0  0  0  0  0  0
  192.2330  176.5070  142.9460 O   0  0  0  0  0  1  0  0  0  0  0  0
  190.7430  177.2260  141.3680 O   0  0  0  0  0  0  0  0  0  0  0  0
  189.1830  177.9000  142.8700 C   0  0  2  0  0  3  0  0  0  0  0  0
  192.0800  179.5900  144.3680 O   0  0  0  0  0  1  0  0  0  0  0  0
  190.7390  179.4230  144.0210 C   0  0  0  0  0  2  0  0  0  0  0  0
  188.5880  177.2980  140.5850 C   0  0  0  0  0  2  0  0  0  0  0  0
  188.9130  177.5770  139.1950 N   0  0  0  0  0  0  0  0  0  0  0  0
  189.8730  177.3320  137.0030 C   0  0  1  0  0  3  0  0  0  0  0  0
  188.6100  178.8260  138.5330 C   0  0  0  0  0  3  0  0  0  0  0  0
  190.0640  175.5940  138.6720 O   0  0  0  0  0  0  0  0  0  0  0  0
  189.6450  176.7330  138.3320 C   0  0  0  0  0  0  0  0  0  0  0  0
  189.1550  176.5240  135.9390 C   0  0  0  0  0  1  0  0  0  0  0  0
  189.2120  178.7110  137.1240 C   0  0  0  0  0  3  0  0  0  0  0  0
  188.4980  176.5890  143.2970 C   0  0  0  0  0  2  0  0  0  0  0  0
  185.7020  177.5350  143.2540 C   0  0  0  0  0  3  0  0  0  0  0  0
  186.0720  178.5960  145.4040 C   0  0  0  0  0  0  0  0  0  0  0  0
  187.6790  176.7490  144.5830 C   0  0  2  0  0  3  0  0  0  0  0  0
  184.1930  179.2590  144.0160 C   0  0  0  0  0  0  0  0  0  0  0  0
  186.4920  177.6820  144.4060 C   0  0  0  0  0  0  0  0  0  0  0  0
  187.4460  177.4960  147.1490 C   0  0  0  0  0  2  0  0  0  0  0  0
  184.9400  179.3900  145.1880 C   0  0  0  0  0  3  0  0  0  0  0  0
  186.8080  178.7880  146.6900 C   0  0  0  0  0  2  0  0  0  0  0  0
  183.0970  180.0310  143.8210 F   0  0  0  0  0  0  0  0  0  0  0  0
  184.5660  178.3220  143.0550 C   0  0  0  0  0  3  0  0  0  0  0  0
  188.7870  177.1010  146.0030 S   0  0  0  0  0  0  0  0  0  0  0  0
  1  6  1  0  0  0  0
  2  8  1  6  0  0  0
  3  4  1  1  0  0  0
  3  2  1  0  0  0  0
  5  1  1  0  0  0  0
  5  3  1  0  0  0  0
  6 17  1  1  0  0  0
  6  2  1  0  0  0  0
  8  7  1  0  0  0  0
  9  1  1  0  0  0  0
 10  9  1  0  0  0  0
 11 15  1  6  0  0  0
 11 16  1  0  0  0  0
 11 14  1  0  0  0  0
 12 10  1  0  0  0  0
 14 13  2  0  0  0  0
 14 10  1  0  0  0  0
 16 12  2  0  0  0  0
 18 22  1  0  0  0  0
 19 25  1  0  0  0  0
 20 17  1  6  0  0  0
 20 28  1  0  0  0  0
 21 24  2  0  0  0  0
 22 20  1  0  0  0  0
 22 19  2  0  0  0  0
 24 19  1  0  0  0  0
 25 23  1  0  0  0  0
 26 21  1  0  0  0  0
 27 18  2  0  0  0  0
 27 21  1  0  0  0  0
 28 23  1  0  0  0  0
M  END
>  <MODEL>
4

>  <REMARK>
 VINA RESULT:      -7.5      1.982      2.836
  Name = 
  5 active torsions:
  status: ('A' for Active; 'I' for Inactive)
    1  A    between atoms: N_1  and  C_2
    2  A    between atoms: C_2  and  N_3
    3  A    between atoms: C_10  and  C_17
    4  A    between atoms: C_16  and  C_20
    5  A    between atoms: C_17  and  C_27
                            x       y       z     vdW  Elec       q    Type
                         _______ _______ _______ _____ _____    ______ ____

>  <TORSDO>
F 5

$$$$
=
 OpenBabel10272401453D

 28 31  0  0  1  0  0  0  0  0999 V2000
  189.5270  178.0440  139.4160 N   0  0  0  0  0  0  0  0  0  0  0  0
  191.2950  176.8780  140.3670 C   0  0  2  0  0  3  0  0  0  0  0  0
  190.9710  176.4580  138.9490 C   0  0  1  0  0  3  0  0  0  0  0  0
  190.9770  175.0670  138.8600 O   0  0  0  0  0  1  0  0  0  0  0  0
  189.6900  176.9430  138.6310 O   0  0  0  0  0  0  0  0  0  0  0  0
  190.1100  177.7210  140.7200 C   0  0  2  0  0  3  0  0  0  0  0  0
  193.5190  177.1670  139.5530 O   0  0  0  0  0  1  0  0  0  0  0  0
  192.5490  177.7320  140.3820 C   0  0  0  0  0  2  0  0  0  0  0  0
  188.1040  178.3590  139.4930 C   0  0  0  0  0  2  0  0  0  0  0  0
  187.4790  178.1410  138.1970 N   0  0  0  0  0  0  0  0  0  0  0  0
  186.9550  178.4090  135.8650 C   0  0  1  0  0  3  0  0  0  0  0  0
  186.3320  177.2870  137.9900 C   0  0  0  0  0  3  0  0  0  0  0  0
  188.7720  179.6190  136.9030 O   0  0  0  0  0  0  0  0  0  0  0  0
  187.8250  178.7920  136.9930 C   0  0  0  0  0  0  0  0  0  0  0  0
  187.7650  177.6790  134.8090 C   0  0  0  0  0  1  0  0  0  0  0  0
  185.9610  177.4330  136.5060 C   0  0  0  0  0  3  0  0  0  0  0  0
  189.1830  176.8780  141.6150 C   0  0  0  0  0  2  0  0  0  0  0  0
  190.7990  177.2570  144.0570 C   0  0  0  0  0  3  0  0  0  0  0  0
  188.7540  177.2350  145.3630 C   0  0  0  0  0  0  0  0  0  0  0  0
  188.6560  177.6680  142.8190 C   0  0  2  0  0  3  0  0  0  0  0  0
  190.8980  176.8550  146.4360 C   0  0  0  0  0  0  0  0  0  0  0  0
  189.3970  177.3360  144.1030 C   0  0  0  0  0  0  0  0  0  0  0  0
  186.6940  178.3300  144.5240 C   0  0  0  0  0  2  0  0  0  0  0  0
  189.5100  176.9730  146.5110 C   0  0  0  0  0  3  0  0  0  0  0  0
  187.2740  177.3610  145.5300 C   0  0  0  0  0  2  0  0  0  0  0  0
  191.6190  176.6060  147.5550 F   0  0  0  0  0  0  0  0  0  0  0  0
  191.5450  177.0110  145.2110 C   0  0  0  0  0  3  0  0  0  0  0  0
  186.8240  177.5750  142.8870 S   0  0  0  0  0  0  0  0  0  0  0  0
  1  9  1  0  0  0  0
  1  6  1  0  0  0  0
  2  8  1  6  0  0  0
  2  6  1  0  0  0  0
  3  4  1  1  0  0  0
  3  2  1  0  0  0  0
  5  3  1  0  0  0  0
  5  1  1  0  0  0  0
  6 17  1  1  0  0  0
  7  8  1  0  0  0  0
 10  9  1  0  0  0  0
 11 15  1  6  0  0  0
 11 16  1  0  0  0  0
 11 14  1  0  0  0  0
 12 10  1  0  0  0  0
 13 14  2  0  0  0  0
 14 10  1  0  0  0  0
 16 12  2  0  0  0  0
 18 22  2  0  0  0  0
 18 27  1  0  0  0  0
 19 25  1  0  0  0  0
 19 24  2  0  0  0  0
 20 17  1  6  0  0  0
 20 28  1  0  0  0  0
 20 22  1  0  0  0  0
 21 24  1  0  0  0  0
 21 26  1  0  0  0  0
 22 19  1  0  0  0  0
 23 25  1  0  0  0  0
 27 21  2  0  0  0  0
 28 23  1  0  0  0  0
M  END
>  <MODEL>
5

>  <REMARK>
 VINA RESULT:      -7.4      2.308      3.308
  Name = 
  5 active torsions:
  status: ('A' for Active; 'I' for Inactive)
    1  A    between atoms: N_1  and  C_2
    2  A    between atoms: C_2  and  N_3
    3  A    between atoms: C_10  and  C_17
    4  A    between atoms: C_16  and  C_20
    5  A    between atoms: C_17  and  C_27
                            x       y       z     vdW  Elec       q    Type
                         _______ _______ _______ _____ _____    ______ ____

>  <TORSDO>
F 5

$$$$
=
 OpenBabel10272401453D

 28 31  0  0  1  0  0  0  0  0999 V2000
  189.8480  177.5220  141.6600 N   0  0  0  0  0  0  0  0  0  0  0  0
  190.2050  176.4980  143.7130 C   0  0  2  0  0  3  0  0  0  0  0  0
  189.4620  175.6360  142.7150 C   0  0  1  0  0  3  0  0  0  0  0  0
  188.3860  175.0130  143.3460 O   0  0  0  0  0  1  0  0  0  0  0  0
  188.9850  176.4690  141.6870 O   0  0  0  0  0  0  0  0  0  0  0  0
  190.1670  177.8410  143.0530 C   0  0  2  0  0  3  0  0  0  0  0  0
  191.9680  175.8250  145.1730 O   0  0  0  0  0  1  0  0  0  0  0  0
  191.6450  176.0310  143.8320 C   0  0  0  0  0  2  0  0  0  0  0  0
  189.2130  178.6300  140.9550 C   0  0  0  0  0  2  0  0  0  0  0  0
  189.0000  178.2720  139.5610 N   0  0  0  0  0  0  0  0  0  0  0  0
  187.8620  177.7050  137.5190 C   0  0  1  0  0  3  0  0  0  0  0  0
  190.0600  177.8760  138.6610 C   0  0  0  0  0  3  0  0  0  0  0  0
  186.6540  178.4140  139.4890 O   0  0  0  0  0  0  0  0  0  0  0  0
  187.7480  178.1600  138.9180 C   0  0  0  0  0  0  0  0  0  0  0  0
  187.3890  178.7970  136.5780 C   0  0  0  0  0  1  0  0  0  0  0  0
  189.3720  177.5010  137.3400 C   0  0  0  0  0  3  0  0  0  0  0  0
  189.0820  178.6780  143.7550 C   0  0  0  0  0  2  0  0  0  0  0  0
  186.1670  178.2080  143.6970 C   0  0  0  0  0  3  0  0  0  0  0  0
  186.1470  178.2950  146.1210 C   0  0  0  0  0  0  0  0  0  0  0  0
  188.3660  177.8950  144.8630 C   0  0  2  0  0  3  0  0  0  0  0  0
  184.0880  178.5800  144.8670 C   0  0  0  0  0  0  0  0  0  0  0  0
  186.8750  178.1830  144.9100 C   0  0  0  0  0  0  0  0  0  0  0  0
  187.9840  177.2890  147.4480 C   0  0  0  0  0  2  0  0  0  0  0  0
  184.7650  178.5150  146.0850 C   0  0  0  0  0  3  0  0  0  0  0  0
  186.7950  178.2240  147.4660 C   0  0  0  0  0  2  0  0  0  0  0  0
  182.7500  178.7880  144.8450 F   0  0  0  0  0  0  0  0  0  0  0  0
  184.7870  178.4140  143.6730 C   0  0  0  0  0  3  0  0  0  0  0  0
  189.2790  178.0580  146.4470 S   0  0  0  0  0  0  0  0  0  0  0  0
  1  5  1  0  0  0  0
  1  6  1  0  0  0  0
  2  8  1  6  0  0  0
  3  4  1  1  0  0  0
  3  2  1  0  0  0  0
  5  3  1  0  0  0  0
  6  2  1  0  0  0  0
  6 17  1  1  0  0  0
  8  7  1  0  0  0  0
  9  1  1  0  0  0  0
 10  9  1  0  0  0  0
 11 15  1  6  0  0  0
 11 14  1  0  0  0  0
 12 10  1  0  0  0  0
 14 13  2  0  0  0  0
 14 10  1  0  0  0  0
 16 11  1  0  0  0  0
 16 12  2  0  0  0  0
 18 22  1  0  0  0  0
 19 25  1  0  0  0  0
 20 17  1  6  0  0  0
 20 22  1  0  0  0  0
 20 28  1  0  0  0  0
 21 24  2  0  0  0  0
 22 19  2  0  0  0  0
 23 25  1  0  0  0  0
 24 19  1  0  0  0  0
 26 21  1  0  0  0  0
 27 18  2  0  0  0  0
 27 21  1  0  0  0  0
 28 23  1  0  0  0  0
M  END
>  <MODEL>
6

>  <REMARK>
 VINA RESULT:      -7.2      2.304      3.238
  Name = 
  5 active torsions:
  status: ('A' for Active; 'I' for Inactive)
    1  A    between atoms: N_1  and  C_2
    2  A    between atoms: C_2  and  N_3
    3  A    between atoms: C_10  and  C_17
    4  A    between atoms: C_16  and  C_20
    5  A    between atoms: C_17  and  C_27
                            x       y       z     vdW  Elec       q    Type
                         _______ _______ _______ _____ _____    ______ ____

>  <TORSDO>
F 5

$$$$
=
 OpenBabel10272401453D

 28 31  0  0  1  0  0  0  0  0999 V2000
  190.1060  177.4120  141.2530 N   0  0  0  0  0  0  0  0  0  0  0  0
  190.1710  177.1590  143.5600 C   0  0  2  0  0  3  0  0  0  0  0  0
  190.9830  176.1300  142.8040 C   0  0  1  0  0  3  0  0  0  0  0  0
  190.7530  174.8650  143.3420 O   0  0  0  0  0  1  0  0  0  0  0  0
  190.5710  176.1490  141.4580 O   0  0  0  0  0  0  0  0  0  0  0  0
  189.3750  177.7950  142.4630 C   0  0  2  0  0  3  0  0  0  0  0  0
  190.5570  179.4690  144.0160 O   0  0  0  0  0  1  0  0  0  0  0  0
  191.0930  178.1920  144.1830 C   0  0  0  0  0  2  0  0  0  0  0  0
  189.2670  177.4140  140.0590 C   0  0  0  0  0  2  0  0  0  0  0  0
  190.0140  176.8810  138.9300 N   0  0  0  0  0  0  0  0  0  0  0  0
  190.4950  175.6950  136.8930 C   0  0  1  0  0  3  0  0  0  0  0  0
  191.4550  176.9220  138.8260 C   0  0  0  0  0  3  0  0  0  0  0  0
  188.2320  175.9580  137.7030 O   0  0  0  0  0  0  0  0  0  0  0  0
  189.4670  176.1690  137.8400 C   0  0  0  0  0  0  0  0  0  0  0  0
  190.3180  176.3770  135.5500 C   0  0  0  0  0  1  0  0  0  0  0  0
  191.8050  176.1680  137.5340 C   0  0  0  0  0  3  0  0  0  0  0  0
  187.9480  177.2210  142.5260 C   0  0  0  0  0  2  0  0  0  0  0  0
  186.9750  178.0400  145.1900 C   0  0  0  0  0  3  0  0  0  0  0  0
  184.8020  178.4910  144.2120 C   0  0  0  0  0  0  0  0  0  0  0  0
  186.8860  178.3130  142.6980 C   0  0  2  0  0  3  0  0  0  0  0  0
  185.0310  178.2080  146.6120 C   0  0  0  0  0  0  0  0  0  0  0  0
  186.1870  178.2390  144.0450 C   0  0  0  0  0  0  0  0  0  0  0  0
  184.6040  179.5160  141.9630 C   0  0  0  0  0  2  0  0  0  0  0  0
  184.2360  178.4500  145.4910 C   0  0  0  0  0  3  0  0  0  0  0  0
  183.8850  178.7700  143.0650 C   0  0  0  0  0  2  0  0  0  0  0  0
  184.4720  178.1750  147.8450 F   0  0  0  0  0  0  0  0  0  0  0  0
  186.4030  178.0160  146.4630 C   0  0  0  0  0  3  0  0  0  0  0  0
  185.8020  178.3850  141.2190 S   0  0  0  0  0  0  0  0  0  0  0  0
  1  5  1  0  0  0  0
  1  6  1  0  0  0  0
  2  8  1  6  0  0  0
  3  4  1  1  0  0  0
  3  2  1  0  0  0  0
  5  3  1  0  0  0  0
  6 17  1  6  0  0  0
  6  2  1  0  0  0  0
  7  8  1  0  0  0  0
  9  1  1  0  0  0  0
 10  9  1  0  0  0  0
 11 15  1  6  0  0  0
 11 16  1  0  0  0  0
 11 14  1  0  0  0  0
 12 10  1  0  0  0  0
 13 14  2  0  0  0  0
 14 10  1  0  0  0  0
 16 12  2  0  0  0  0
 18 27  1  0  0  0  0
 19 24  2  0  0  0  0
 20 17  1  6  0  0  0
 20 22  1  0  0  0  0
 21 26  1  0  0  0  0
 22 19  1  0  0  0  0
 22 18  2  0  0  0  0
 23 25  1  0  0  0  0
 24 21  1  0  0  0  0
 25 19  1  0  0  0  0
 27 21  2  0  0  0  0
 28 23  1  0  0  0  0
 28 20  1  0  0  0  0
M  END
>  <MODEL>
7

>  <REMARK>
 VINA RESULT:      -7.2      1.615      2.163
  Name = 
  5 active torsions:
  status: ('A' for Active; 'I' for Inactive)
    1  A    between atoms: N_1  and  C_2
    2  A    between atoms: C_2  and  N_3
    3  A    between atoms: C_10  and  C_17
    4  A    between atoms: C_16  and  C_20
    5  A    between atoms: C_17  and  C_27
                            x       y       z     vdW  Elec       q    Type
                         _______ _______ _______ _____ _____    ______ ____

>  <TORSDO>
F 5

$$$$
=
 OpenBabel10272401453D

 28 31  0  0  1  0  0  0  0  0999 V2000
  188.6420  177.3660  143.1770 N   0  0  0  0  0  0  0  0  0  0  0  0
  190.9290  177.4450  142.7840 C   0  0  2  0  0  3  0  0  0  0  0  0
  190.4760  178.2870  143.9570 C   0  0  1  0  0  3  0  0  0  0  0  0
  191.1020  179.5320  143.9080 O   0  0  0  0  0  1  0  0  0  0  0  0
  189.0830  178.4580  143.8610 O   0  0  0  0  0  0  0  0  0  0  0  0
  189.6290  177.1000  142.1280 C   0  0  2  0  0  3  0  0  0  0  0  0
  191.6130  176.1650  144.6780 O   0  0  0  0  0  1  0  0  0  0  0  0
  191.5990  176.1770  143.2830 C   0  0  0  0  0  2  0  0  0  0  0  0
  187.3130  177.6510  142.6470 C   0  0  0  0  0  2  0  0  0  0  0  0
  186.4220  178.0370  143.7300 N   0  0  0  0  0  0  0  0  0  0  0  0
  184.7170  179.2250  144.9430 C   0  0  1  0  0  3  0  0  0  0  0  0
  186.5390  177.5440  145.0840 C   0  0  0  0  0  3  0  0  0  0  0  0
  185.1060  179.6180  142.5900 O   0  0  0  0  0  0  0  0  0  0  0  0
  185.3970  179.0050  143.6510 C   0  0  0  0  0  0  0  0  0  0  0  0
  183.2660  178.7910  144.8470 C   0  0  0  0  0  1  0  0  0  0  0  0
  185.4650  178.2840  145.8960 C   0  0  0  0  0  3  0  0  0  0  0  0
  189.4710  178.0050  140.8930 C   0  0  0  0  0  2  0  0  0  0  0  0
  191.3350  176.4410  139.2200 C   0  0  0  0  0  3  0  0  0  0  0  0
  189.9730  176.9700  137.2830 C   0  0  0  0  0  0  0  0  0  0  0  0
  188.9940  177.2310  139.6580 C   0  0  2  0  0  3  0  0  0  0  0  0
  192.2550  176.1920  137.0020 C   0  0  0  0  0  0  0  0  0  0  0  0
  190.1250  176.9220  138.6920 C   0  0  0  0  0  0  0  0  0  0  0  0
  187.4990  177.0250  137.4400 C   0  0  0  0  0  2  0  0  0  0  0  0
  191.0470  176.6260  136.4550 C   0  0  0  0  0  3  0  0  0  0  0  0
  188.7090  177.4110  136.6190 C   0  0  0  0  0  2  0  0  0  0  0  0
  193.2860  175.8570  136.1890 F   0  0  0  0  0  0  0  0  0  0  0  0
  192.3950  176.0870  138.3840 C   0  0  0  0  0  3  0  0  0  0  0  0
  187.5060  178.0310  138.9430 S   0  0  0  0  0  0  0  0  0  0  0  0
  1  5  1  0  0  0  0
  2  8  1  1  0  0  0
  2  3  1  0  0  0  0
  3  4  1  6  0  0  0
  5  3  1  0  0  0  0
  6 17  1  6  0  0  0
  6  2  1  0  0  0  0
  6  1  1  0  0  0  0
  8  7  1  0  0  0  0
  9  1  1  0  0  0  0
  9 10  1  0  0  0  0
 10 12  1  0  0  0  0
 11 15  1  6  0  0  0
 11 16  1  0  0  0  0
 12 16  2  0  0  0  0
 13 14  2  0  0  0  0
 14 10  1  0  0  0  0
 14 11  1  0  0  0  0
 19 22  2  0  0  0  0
 20 17  1  1  0  0  0
 21 27  1  0  0  0  0
 22 18  1  0  0  0  0
 22 20  1  0  0  0  0
 23 28  1  0  0  0  0
 24 21  2  0  0  0  0
 24 19  1  0  0  0  0
 25 19  1  0  0  0  0
 25 23  1  0  0  0  0
 26 21  1  0  0  0  0
 27 18  2  0  0  0  0
 28 20  1  0  0  0  0
M  END
>  <MODEL>
8

>  <REMARK>
 VINA RESULT:      -7.2      3.611      7.605
  Name = 
  5 active torsions:
  status: ('A' for Active; 'I' for Inactive)
    1  A    between atoms: N_1  and  C_2
    2  A    between atoms: C_2  and  N_3
    3  A    between atoms: C_10  and  C_17
    4  A    between atoms: C_16  and  C_20
    5  A    between atoms: C_17  and  C_27
                            x       y       z     vdW  Elec       q    Type
                         _______ _______ _______ _____ _____    ______ ____

>  <TORSDO>
F 5

$$$$
=
 OpenBabel10272401453D

 28 31  0  0  1  0  0  0  0  0999 V2000
  189.4290  176.9430  138.8500 N   0  0  0  0  0  0  0  0  0  0  0  0
  187.7700  178.5640  138.7410 C   0  0  2  0  0  3  0  0  0  0  0  0
  188.6710  178.5220  137.5260 C   0  0  1  0  0  3  0  0  0  0  0  0
  189.0300  179.8200  137.1650 O   0  0  0  0  0  1  0  0  0  0  0  0
  189.8260  177.7930  137.8630 O   0  0  0  0  0  0  0  0  0  0  0  0
  188.5110  177.6950  139.7090 C   0  0  2  0  0  3  0  0  0  0  0  0
  185.4100  178.8720  138.5720 O   0  0  0  0  0  1  0  0  0  0  0  0
  186.4290  177.9320  138.4150 C   0  0  0  0  0  2  0  0  0  0  0  0
  190.6100  176.4670  139.5620 C   0  0  0  0  0  2  0  0  0  0  0  0
  191.5370  175.8510  138.6240 N   0  0  0  0  0  0  0  0  0  0  0  0
  193.5460  175.4470  137.3660 C   0  0  1  0  0  3  0  0  0  0  0  0
  191.1560  174.8450  137.6590 C   0  0  0  0  0  3  0  0  0  0  0  0
  193.4700  177.0880  139.1400 O   0  0  0  0  0  0  0  0  0  0  0  0
  192.8910  176.2070  138.4480 C   0  0  0  0  0  0  0  0  0  0  0  0
  194.6440  174.5700  137.9380 C   0  0  0  0  0  1  0  0  0  0  0  0
  192.4160  174.5600  136.8290 C   0  0  0  0  0  3  0  0  0  0  0  0
  189.2260  178.6170  140.7130 C   0  0  0  0  0  2  0  0  0  0  0  0
  190.7560  178.5500  143.2380 C   0  0  0  0  0  3  0  0  0  0  0  0
  188.9360  177.3150  144.2600 C   0  0  0  0  0  0  0  0  0  0  0  0
  188.5320  178.6400  142.0810 C   0  0  2  0  0  3  0  0  0  0  0  0
  191.1400  177.3150  145.2770 C   0  0  0  0  0  0  0  0  0  0  0  0
  189.4220  178.1140  143.1950 C   0  0  0  0  0  0  0  0  0  0  0  0
  186.5740  177.8630  143.7410 C   0  0  0  0  0  2  0  0  0  0  0  0
  189.8060  176.9060  145.2770 C   0  0  0  0  0  3  0  0  0  0  0  0
  187.5190  176.8450  144.3400 C   0  0  0  0  0  2  0  0  0  0  0  0
  191.9710  176.9170  146.2690 F   0  0  0  0  0  0  0  0  0  0  0  0
  191.6120  178.1480  144.2640 C   0  0  0  0  0  3  0  0  0  0  0  0
  186.8570  177.9000  141.9560 S   0  0  0  0  0  0  0  0  0  0  0  0
  1  9  1  0  0  0  0
  1  6  1  0  0  0  0
  2  8  1  6  0  0  0
  2  6  1  0  0  0  0
  3  4  1  1  0  0  0
  3  5  1  0  0  0  0
  3  2  1  0  0  0  0
  5  1  1  0  0  0  0
  6 17  1  1  0  0  0
  8  7  1  0  0  0  0
 10  9  1  0  0  0  0
 11 15  1  1  0  0  0
 11 14  1  0  0  0  0
 12 10  1  0  0  0  0
 14 10  1  0  0  0  0
 14 13  2  0  0  0  0
 16 11  1  0  0  0  0
 16 12  2  0  0  0  0
 18 27  1  0  0  0  0
 19 25  1  0  0  0  0
 19 24  2  0  0  0  0
 20 17  1  6  0  0  0
 20 22  1  0  0  0  0
 21 24  1  0  0  0  0
 21 26  1  0  0  0  0
 22 18  2  0  0  0  0
 22 19  1  0  0  0  0
 23 25  1  0  0  0  0
 27 21  2  0  0  0  0
 28 20  1  0  0  0  0
 28 23  1  0  0  0  0
M  END
>  <MODEL>
9

>  <REMARK>
 VINA RESULT:      -7.2      2.778      4.572
  Name = 
  5 active torsions:
  status: ('A' for Active; 'I' for Inactive)
    1  A    between atoms: N_1  and  C_2
    2  A    between atoms: C_2  and  N_3
    3  A    between atoms: C_10  and  C_17
    4  A    between atoms: C_16  and  C_20
    5  A    between atoms: C_17  and  C_27
                            x       y       z     vdW  Elec       q    Type
                         _______ _______ _______ _____ _____    ______ ____

>  <TORSDO>
F 5

$$$$
