=
 OpenBabel10272400493D

 25 27  0  0  1  0  0  0  0  0999 V2000
  188.5080  177.4030  145.9580 C   0  0  0  0  0  0  0  0  0  0  0  0
  188.8470  176.0900  147.9700 O   0  0  0  0  0  1  0  0  0  0  0  0
  190.7540  176.7910  146.6620 C   0  0  0  0  0  0  0  0  0  0  0  0
  191.6080  176.1530  147.5530 O   0  0  0  0  0  1  0  0  0  0  0  0
  189.0550  178.0810  144.8570 C   0  0  0  0  0  3  0  0  0  0  0  0
  191.2860  177.4610  145.5570 C   0  0  0  0  0  3  0  0  0  0  0  0
  190.4370  178.1110  144.6570 C   0  0  0  0  0  0  0  0  0  0  0  0
  189.3670  176.7600  146.8670 C   0  0  0  0  0  0  0  0  0  0  0  0
  187.0120  177.3690  146.1780 C   0  0  2  0  0  3  0  0  0  0  0  0
  187.5530  178.9350  148.2030 C   0  0  0  0  0  1  0  0  0  0  0  0
  186.2740  177.8670  144.9830 C   0  0  0  0  0  0  0  0  0  0  0  0
  184.8000  179.1800  143.0320 C   0  0  0  0  0  3  0  0  0  0  0  0
  185.5610  178.9910  145.3000 C   0  0  0  0  0  0  0  0  0  0  0  0
  184.8140  179.6770  144.3450 C   0  0  0  0  0  3  0  0  0  0  0  0
  185.5280  178.0200  142.7030 C   0  0  0  0  0  3  0  0  0  0  0  0
  186.4900  178.3090  147.3100 C   0  0  1  0  0  3  0  0  0  0  0  0
  185.6860  179.3440  146.6620 N   0  0  0  0  0  2  0  0  0  0  0  0
  186.2780  177.3510  143.6850 C   0  0  0  0  0  3  0  0  0  0  0  0
  190.9940  178.7990  143.4610 C   0  0  0  0  0  2  0  0  0  0  0  0
  191.6360  177.7800  142.5360 C   0  0  0  0  0  2  0  0  0  0  0  0
  190.5800  177.1010  141.6790 C   0  0  0  0  0  2  0  0  0  0  0  0
  190.8990  177.2440  140.2640 N   0  0  0  0  0  2  0  0  0  0  0  0
  189.7090  177.7370  139.5860 C   0  0  1  0  0  3  0  0  0  0  0  0
  189.2670  176.7630  138.6030 N   0  0  0  0  0  1  0  0  0  0  0  0
  188.6070  177.9570  140.6020 C   0  0  0  0  0  1  0  0  0  0  0  0
  1  8  1  0  0  0  0
  3  8  2  0  0  0  0
  3  4  1  0  0  0  0
  5  1  2  0  0  0  0
  6  3  1  0  0  0  0
  7  5  1  0  0  0  0
  7  6  2  0  0  0  0
  8  2  1  0  0  0  0
  9  1  1  6  0  0  0
  9 16  1  0  0  0  0
 11 13  1  0  0  0  0
 11  9  1  0  0  0  0
 12 14  1  0  0  0  0
 13 17  1  0  0  0  0
 14 13  2  0  0  0  0
 15 12  2  0  0  0  0
 15 18  1  0  0  0  0
 16 10  1  6  0  0  0
 17 16  1  0  0  0  0
 18 11  2  0  0  0  0
 19  7  1  0  0  0  0
 20 19  1  0  0  0  0
 21 20  1  0  0  0  0
 22 21  1  0  0  0  0
 23 22  1  0  0  0  0
 23 25  1  1  0  0  0
 24 23  1  0  0  0  0
M  END
>  <MODEL>
1

>  <REMARK>
 VINA RESULT:      -8.4      0.000      0.000
  Name = 
  6 active torsions:
  status: ('A' for Active; 'I' for Inactive)
    1  A    between atoms: C_1  and  C_3
    2  A    between atoms: C_2  and  N_25
    3  A    between atoms: C_6  and  C_15
    4  A    between atoms: C_6  and  C_23
    5  A    between atoms: C_15  and  C_21
    6  A    between atoms: C_21  and  N_25
                            x       y       z     vdW  Elec       q    Type
                         _______ _______ _______ _____ _____    ______ ____

>  <TORSDO>
F 6

$$$$
=
 OpenBabel10272400493D

 25 27  0  0  1  0  0  0  0  0999 V2000
  186.5160  177.8040  144.1760 C   0  0  0  0  0  0  0  0  0  0  0  0
  184.2370  178.1820  143.4370 O   0  0  0  0  0  1  0  0  0  0  0  0
  184.8330  178.5970  145.7410 C   0  0  0  0  0  0  0  0  0  0  0  0
  183.5260  178.9790  146.0180 O   0  0  0  0  0  1  0  0  0  0  0  0
  187.4670  177.8330  145.2080 C   0  0  0  0  0  3  0  0  0  0  0  0
  185.7860  178.6120  146.7630 C   0  0  0  0  0  3  0  0  0  0  0  0
  187.1050  178.2360  146.4960 C   0  0  0  0  0  0  0  0  0  0  0  0
  185.1930  178.1940  144.4480 C   0  0  0  0  0  0  0  0  0  0  0  0
  186.9050  177.3690  142.7810 C   0  0  2  0  0  3  0  0  0  0  0  0
  186.1100  179.7690  142.1090 C   0  0  0  0  0  1  0  0  0  0  0  0
  188.3410  176.9760  142.7120 C   0  0  0  0  0  0  0  0  0  0  0  0
  191.0720  176.6530  142.3320 C   0  0  0  0  0  3  0  0  0  0  0  0
  189.0190  177.8010  141.8570 C   0  0  0  0  0  0  0  0  0  0  0  0
  190.3890  177.6700  141.6460 C   0  0  0  0  0  3  0  0  0  0  0  0
  190.3770  175.7980  143.2100 C   0  0  0  0  0  3  0  0  0  0  0  0
  186.8100  178.4830  141.6910 C   0  0  1  0  0  3  0  0  0  0  0  0
  188.1770  178.7610  141.2510 N   0  0  0  0  0  2  0  0  0  0  0  0
  188.9950  175.9570  143.4080 C   0  0  0  0  0  3  0  0  0  0  0  0
  188.1180  178.2180  147.5860 C   0  0  0  0  0  2  0  0  0  0  0  0
  188.9970  176.9870  147.4510 C   0  0  0  0  0  2  0  0  0  0  0  0
  190.4610  177.3580  147.6200 C   0  0  0  0  0  2  0  0  0  0  0  0
  191.2690  176.7490  146.5710 N   0  0  0  0  0  2  0  0  0  0  0  0
  191.8400  175.5210  147.1040 C   0  0  1  0  0  3  0  0  0  0  0  0
  192.6130  174.8520  146.0710 N   0  0  0  0  0  1  0  0  0  0  0  0
  192.7500  175.8550  148.2690 C   0  0  0  0  0  1  0  0  0  0  0  0
  1  8  2  0  0  0  0
  1  5  1  0  0  0  0
  2  8  1  0  0  0  0
  3  4  1  0  0  0  0
  3  6  2  0  0  0  0
  5  7  2  0  0  0  0
  7  6  1  0  0  0  0
  7 19  1  0  0  0  0
  8  3  1  0  0  0  0
  9  1  1  1  0  0  0
 11  9  1  0  0  0  0
 11 18  1  0  0  0  0
 12 15  1  0  0  0  0
 13 11  2  0  0  0  0
 14 13  1  0  0  0  0
 14 12  2  0  0  0  0
 15 18  2  0  0  0  0
 16 10  1  1  0  0  0
 16  9  1  0  0  0  0
 17 16  1  0  0  0  0
 17 13  1  0  0  0  0
 20 19  1  0  0  0  0
 20 21  1  0  0  0  0
 22 23  1  0  0  0  0
 22 21  1  0  0  0  0
 23 25  1  1  0  0  0
 24 23  1  0  0  0  0
M  END
>  <MODEL>
2

>  <REMARK>
 VINA RESULT:      -7.3      2.988      5.916
  Name = 
  6 active torsions:
  status: ('A' for Active; 'I' for Inactive)
    1  A    between atoms: C_1  and  C_3
    2  A    between atoms: C_2  and  N_25
    3  A    between atoms: C_6  and  C_15
    4  A    between atoms: C_6  and  C_23
    5  A    between atoms: C_15  and  C_21
    6  A    between atoms: C_21  and  N_25
                            x       y       z     vdW  Elec       q    Type
                         _______ _______ _______ _____ _____    ______ ____

>  <TORSDO>
F 6

$$$$
=
 OpenBabel10272400493D

 25 27  0  0  1  0  0  0  0  0999 V2000
  189.6100  177.6940  146.5420 C   0  0  0  0  0  0  0  0  0  0  0  0
  190.4090  178.1920  148.7780 O   0  0  0  0  0  1  0  0  0  0  0  0
  188.0340  178.0340  148.3630 C   0  0  0  0  0  0  0  0  0  0  0  0
  187.7750  178.3140  149.6990 O   0  0  0  0  0  1  0  0  0  0  0  0
  188.5310  177.4690  145.6720 C   0  0  0  0  0  3  0  0  0  0  0  0
  186.9690  177.8170  147.4850 C   0  0  0  0  0  3  0  0  0  0  0  0
  187.2170  177.5280  146.1400 C   0  0  0  0  0  0  0  0  0  0  0  0
  189.3550  177.9740  147.8960 C   0  0  0  0  0  0  0  0  0  0  0  0
  191.0340  177.6310  146.0380 C   0  0  2  0  0  3  0  0  0  0  0  0
  191.0860  175.3420  147.3030 C   0  0  0  0  0  1  0  0  0  0  0  0
  191.0900  177.7000  144.5500 C   0  0  0  0  0  0  0  0  0  0  0  0
  191.3190  177.3630  141.8040 C   0  0  0  0  0  3  0  0  0  0  0  0
  191.6280  176.5500  144.0410 C   0  0  0  0  0  0  0  0  0  0  0  0
  191.7550  176.3460  142.6690 C   0  0  0  0  0  3  0  0  0  0  0  0
  190.7690  178.5510  142.3250 C   0  0  0  0  0  3  0  0  0  0  0  0
  191.7810  176.2930  146.3390 C   0  0  1  0  0  3  0  0  0  0  0  0
  192.0150  175.6410  145.0510 N   0  0  0  0  0  2  0  0  0  0  0  0
  190.6480  178.7270  143.7130 C   0  0  0  0  0  3  0  0  0  0  0  0
  186.0870  177.3270  145.1930 C   0  0  0  0  0  2  0  0  0  0  0  0
  185.3410  178.6370  145.0000 C   0  0  0  0  0  2  0  0  0  0  0  0
  184.5370  178.6040  143.7100 C   0  0  0  0  0  2  0  0  0  0  0  0
  185.0960  179.5320  142.7340 N   0  0  0  0  0  2  0  0  0  0  0  0
  185.5200  178.7600  141.5760 C   0  0  1  0  0  3  0  0  0  0  0  0
  185.1200  179.4450  140.3590 N   0  0  0  0  0  1  0  0  0  0  0  0
  187.0280  178.6140  141.5940 C   0  0  0  0  0  1  0  0  0  0  0  0
  1  8  1  0  0  0  0
  3  4  1  0  0  0  0
  5  7  1  0  0  0  0
  5  1  2  0  0  0  0
  6  3  1  0  0  0  0
  7  6  2  0  0  0  0
  8  3  2  0  0  0  0
  8  2  1  0  0  0  0
  9 16  1  0  0  0  0
  9  1  1  6  0  0  0
 11  9  1  0  0  0  0
 12 15  2  0  0  0  0
 12 14  1  0  0  0  0
 13 11  1  0  0  0  0
 13 17  1  0  0  0  0
 14 13  2  0  0  0  0
 15 18  1  0  0  0  0
 16 10  1  1  0  0  0
 17 16  1  0  0  0  0
 18 11  2  0  0  0  0
 19  7  1  0  0  0  0
 20 19  1  0  0  0  0
 21 20  1  0  0  0  0
 22 21  1  0  0  0  0
 23 25  1  6  0  0  0
 23 22  1  0  0  0  0
 24 23  1  0  0  0  0
M  END
>  <MODEL>
3

>  <REMARK>
 VINA RESULT:      -7.1      2.110      5.137
  Name = 
  6 active torsions:
  status: ('A' for Active; 'I' for Inactive)
    1  A    between atoms: C_1  and  C_3
    2  A    between atoms: C_2  and  N_25
    3  A    between atoms: C_6  and  C_15
    4  A    between atoms: C_6  and  C_23
    5  A    between atoms: C_15  and  C_21
    6  A    between atoms: C_21  and  N_25
                            x       y       z     vdW  Elec       q    Type
                         _______ _______ _______ _____ _____    ______ ____

>  <TORSDO>
F 6

$$$$
=
 OpenBabel10272400493D

 25 27  0  0  1  0  0  0  0  0999 V2000
  189.6650  177.6920  144.4410 C   0  0  0  0  0  0  0  0  0  0  0  0
  191.6820  177.8640  145.7770 O   0  0  0  0  0  1  0  0  0  0  0  0
  189.5480  177.5420  146.8660 C   0  0  0  0  0  0  0  0  0  0  0  0
  190.1720  177.5540  148.1070 O   0  0  0  0  0  1  0  0  0  0  0  0
  188.2730  177.5150  144.3800 C   0  0  0  0  0  3  0  0  0  0  0  0
  188.1630  177.3770  146.7920 C   0  0  0  0  0  3  0  0  0  0  0  0
  187.5250  177.3570  145.5480 C   0  0  0  0  0  0  0  0  0  0  0  0
  190.3030  177.7000  145.6940 C   0  0  0  0  0  0  0  0  0  0  0  0
  190.4780  177.8630  143.1780 C   0  0  2  0  0  3  0  0  0  0  0  0
  191.5360  175.5750  143.8790 C   0  0  0  0  0  1  0  0  0  0  0  0
  189.6020  177.9800  141.9770 C   0  0  0  0  0  0  0  0  0  0  0  0
  188.1330  177.7580  139.6320 C   0  0  0  0  0  3  0  0  0  0  0  0
  189.8330  176.9420  141.1170 C   0  0  0  0  0  0  0  0  0  0  0  0
  189.1120  176.7970  139.9340 C   0  0  0  0  0  3  0  0  0  0  0  0
  187.8960  178.8310  140.5130 C   0  0  0  0  0  3  0  0  0  0  0  0
  191.3880  176.6490  142.8090 C   0  0  1  0  0  3  0  0  0  0  0  0
  190.8510  176.0760  141.5760 N   0  0  0  0  0  2  0  0  0  0  0  0
  188.6340  178.9490  141.7020 C   0  0  0  0  0  3  0  0  0  0  0  0
  186.0470  177.2140  145.4640 C   0  0  0  0  0  2  0  0  0  0  0  0
  185.3770  178.3630  146.1970 C   0  0  0  0  0  2  0  0  0  0  0  0
  184.3300  179.0190  145.3120 C   0  0  0  0  0  2  0  0  0  0  0  0
  184.9300  179.4860  144.0690 N   0  0  0  0  0  2  0  0  0  0  0  0
  184.0010  179.1940  142.9870 C   0  0  1  0  0  3  0  0  0  0  0  0
  184.4870  178.0610  142.2190 N   0  0  0  0  0  1  0  0  0  0  0  0
  182.6430  178.8570  143.5690 C   0  0  0  0  0  1  0  0  0  0  0  0
  1  8  1  0  0  0  0
  3  4  1  0  0  0  0
  5  1  2  0  0  0  0
  5  7  1  0  0  0  0
  6  3  1  0  0  0  0
  7  6  2  0  0  0  0
  8  2  1  0  0  0  0
  8  3  2  0  0  0  0
  9  1  1  1  0  0  0
 11  9  1  0  0  0  0
 12 14  2  0  0  0  0
 12 15  1  0  0  0  0
 13 17  1  0  0  0  0
 13 11  2  0  0  0  0
 14 13  1  0  0  0  0
 15 18  2  0  0  0  0
 16  9  1  0  0  0  0
 16 10  1  1  0  0  0
 17 16  1  0  0  0  0
 18 11  1  0  0  0  0
 19  7  1  0  0  0  0
 19 20  1  0  0  0  0
 21 20  1  0  0  0  0
 22 21  1  0  0  0  0
 23 25  1  1  0  0  0
 23 22  1  0  0  0  0
 24 23  1  0  0  0  0
M  END
>  <MODEL>
4

>  <REMARK>
 VINA RESULT:      -6.8      1.735      5.318
  Name = 
  6 active torsions:
  status: ('A' for Active; 'I' for Inactive)
    1  A    between atoms: C_1  and  C_3
    2  A    between atoms: C_2  and  N_25
    3  A    between atoms: C_6  and  C_15
    4  A    between atoms: C_6  and  C_23
    5  A    between atoms: C_15  and  C_21
    6  A    between atoms: C_21  and  N_25
                            x       y       z     vdW  Elec       q    Type
                         _______ _______ _______ _____ _____    ______ ____

>  <TORSDO>
F 6

$$$$
=
 OpenBabel10272400493D

 25 27  0  0  1  0  0  0  0  0999 V2000
  188.8220  177.2590  142.4790 C   0  0  0  0  0  0  0  0  0  0  0  0
  190.5310  176.1670  141.1480 O   0  0  0  0  0  1  0  0  0  0  0  0
  188.8870  177.5720  140.0690 C   0  0  0  0  0  0  0  0  0  0  0  0
  189.4670  177.3140  138.8330 O   0  0  0  0  0  1  0  0  0  0  0  0
  187.7040  178.1060  142.5430 C   0  0  0  0  0  3  0  0  0  0  0  0
  187.7680  178.4060  140.1440 C   0  0  0  0  0  3  0  0  0  0  0  0
  187.1800  178.6780  141.3820 C   0  0  0  0  0  0  0  0  0  0  0  0
  189.4170  176.9970  141.2320 C   0  0  0  0  0  0  0  0  0  0  0  0
  189.3930  176.6380  143.7350 C   0  0  2  0  0  3  0  0  0  0  0  0
  191.5650  177.9250  143.0510 C   0  0  0  0  0  1  0  0  0  0  0  0
  188.6060  177.0240  144.9400 C   0  0  0  0  0  0  0  0  0  0  0  0
  187.5250  178.0110  147.2990 C   0  0  0  0  0  3  0  0  0  0  0  0
  189.3870  177.7340  145.8100 C   0  0  0  0  0  0  0  0  0  0  0  0
  188.8770  178.2470  147.0010 C   0  0  0  0  0  3  0  0  0  0  0  0
  186.7190  177.2760  146.4080 C   0  0  0  0  0  3  0  0  0  0  0  0
  190.8330  177.1120  144.1100 C   0  0  1  0  0  3  0  0  0  0  0  0
  190.7170  177.8720  145.3540 N   0  0  0  0  0  2  0  0  0  0  0  0
  187.2580  176.7750  145.2120 C   0  0  0  0  0  3  0  0  0  0  0  0
  185.9690  179.5390  141.4660 C   0  0  0  0  0  2  0  0  0  0  0  0
  184.8170  178.8770  140.7310 C   0  0  0  0  0  2  0  0  0  0  0  0
  183.6090  178.7460  141.6450 C   0  0  0  0  0  2  0  0  0  0  0  0
  184.0240  178.3650  142.9900 N   0  0  0  0  0  2  0  0  0  0  0  0
  183.2440  179.1490  143.9360 C   0  0  1  0  0  3  0  0  0  0  0  0
  181.8410  178.7860  143.8330 N   0  0  0  0  0  1  0  0  0  0  0  0
  183.7290  178.8670  145.3430 C   0  0  0  0  0  1  0  0  0  0  0  0
  1  5  1  0  0  0  0
  2  8  1  0  0  0  0
  3  6  2  0  0  0  0
  3  8  1  0  0  0  0
  4  3  1  0  0  0  0
  6  7  1  0  0  0  0
  7 19  1  0  0  0  0
  7  5  2  0  0  0  0
  8  1  2  0  0  0  0
  9  1  1  6  0  0  0
  9 16  1  0  0  0  0
  9 11  1  0  0  0  0
 11 18  2  0  0  0  0
 11 13  1  0  0  0  0
 13 14  2  0  0  0  0
 14 12  1  0  0  0  0
 15 12  2  0  0  0  0
 16 10  1  6  0  0  0
 16 17  1  0  0  0  0
 17 13  1  0  0  0  0
 18 15  1  0  0  0  0
 20 19  1  0  0  0  0
 20 21  1  0  0  0  0
 21 22  1  0  0  0  0
 22 23  1  0  0  0  0
 23 25  1  1  0  0  0
 24 23  1  0  0  0  0
M  END
>  <MODEL>
5

>  <REMARK>
 VINA RESULT:      -6.8      3.066      5.963
  Name = 
  6 active torsions:
  status: ('A' for Active; 'I' for Inactive)
    1  A    between atoms: C_1  and  C_3
    2  A    between atoms: C_2  and  N_25
    3  A    between atoms: C_6  and  C_15
    4  A    between atoms: C_6  and  C_23
    5  A    between atoms: C_15  and  C_21
    6  A    between atoms: C_21  and  N_25
                            x       y       z     vdW  Elec       q    Type
                         _______ _______ _______ _____ _____    ______ ____

>  <TORSDO>
F 6

$$$$
=
 OpenBabel10272400493D

 25 27  0  0  1  0  0  0  0  0999 V2000
  188.9610  176.9750  143.3830 C   0  0  0  0  0  0  0  0  0  0  0  0
  190.7980  175.4430  142.9810 O   0  0  0  0  0  1  0  0  0  0  0  0
  189.8920  176.7330  141.1500 C   0  0  0  0  0  0  0  0  0  0  0  0
  190.8010  176.1470  140.2770 O   0  0  0  0  0  1  0  0  0  0  0  0
  188.0560  177.9260  142.8850 C   0  0  0  0  0  3  0  0  0  0  0  0
  188.9810  177.6740  140.6640 C   0  0  0  0  0  3  0  0  0  0  0  0
  188.0660  178.2750  141.5330 C   0  0  0  0  0  0  0  0  0  0  0  0
  189.8860  176.3810  142.5070 C   0  0  0  0  0  0  0  0  0  0  0  0
  188.9530  176.5950  144.8460 C   0  0  2  0  0  3  0  0  0  0  0  0
  191.2870  177.7750  144.8800 C   0  0  0  0  0  1  0  0  0  0  0  0
  187.7760  177.1740  145.5540 C   0  0  0  0  0  0  0  0  0  0  0  0
  185.9090  178.5450  147.0840 C   0  0  0  0  0  3  0  0  0  0  0  0
  188.1890  178.0390  146.5310 C   0  0  0  0  0  0  0  0  0  0  0  0
  187.2790  178.7460  147.3140 C   0  0  0  0  0  3  0  0  0  0  0  0
  185.4800  177.6510  146.0820 C   0  0  0  0  0  3  0  0  0  0  0  0
  190.1510  177.1500  145.6790 C   0  0  1  0  0  3  0  0  0  0  0  0
  189.5970  178.1150  146.6260 N   0  0  0  0  0  2  0  0  0  0  0  0
  186.4200  176.9560  145.3040 C   0  0  0  0  0  3  0  0  0  0  0  0
  187.0710  179.2540  141.0170 C   0  0  0  0  0  2  0  0  0  0  0  0
  185.7920  179.1650  141.8320 C   0  0  0  0  0  2  0  0  0  0  0  0
  184.6110  178.8340  140.9350 C   0  0  0  0  0  2  0  0  0  0  0  0
  184.7180  179.5420  139.6650 N   0  0  0  0  0  2  0  0  0  0  0  0
  184.3640  178.6120  138.6040 C   0  0  1  0  0  3  0  0  0  0  0  0
  185.5700  178.0390  138.0320 N   0  0  0  0  0  1  0  0  0  0  0  0
  183.5060  177.5010  139.1750 C   0  0  0  0  0  1  0  0  0  0  0  0
  3  8  1  0  0  0  0
  4  3  1  0  0  0  0
  5  1  1  0  0  0  0
  6  3  2  0  0  0  0
  6  7  1  0  0  0  0
  7  5  2  0  0  0  0
  8  2  1  0  0  0  0
  8  1  2  0  0  0  0
  9  1  1  6  0  0  0
  9 11  1  0  0  0  0
  9 16  1  0  0  0  0
 11 13  1  0  0  0  0
 12 14  1  0  0  0  0
 13 17  1  0  0  0  0
 13 14  2  0  0  0  0
 15 12  2  0  0  0  0
 16 10  1  6  0  0  0
 16 17  1  0  0  0  0
 18 11  2  0  0  0  0
 18 15  1  0  0  0  0
 19  7  1  0  0  0  0
 19 20  1  0  0  0  0
 21 20  1  0  0  0  0
 22 21  1  0  0  0  0
 23 25  1  1  0  0  0
 23 22  1  0  0  0  0
 24 23  1  0  0  0  0
M  END
>  <MODEL>
6

>  <REMARK>
 VINA RESULT:      -6.6      2.865      4.615
  Name = 
  6 active torsions:
  status: ('A' for Active; 'I' for Inactive)
    1  A    between atoms: C_1  and  C_3
    2  A    between atoms: C_2  and  N_25
    3  A    between atoms: C_6  and  C_15
    4  A    between atoms: C_6  and  C_23
    5  A    between atoms: C_15  and  C_21
    6  A    between atoms: C_21  and  N_25
                            x       y       z     vdW  Elec       q    Type
                         _______ _______ _______ _____ _____    ______ ____

>  <TORSDO>
F 6

$$$$
=
 OpenBabel10272400493D

 25 27  0  0  1  0  0  0  0  0999 V2000
  189.9460  177.2520  139.7950 C   0  0  0  0  0  0  0  0  0  0  0  0
  188.3450  178.7880  138.8150 O   0  0  0  0  0  1  0  0  0  0  0  0
  188.1410  178.1700  141.1420 C   0  0  0  0  0  0  0  0  0  0  0  0
  187.0150  178.9750  141.2650 O   0  0  0  0  0  1  0  0  0  0  0  0
  190.4030  176.5450  140.9180 C   0  0  0  0  0  3  0  0  0  0  0  0
  188.6010  177.4540  142.2500 C   0  0  0  0  0  3  0  0  0  0  0  0
  189.7360  176.6460  142.1410 C   0  0  0  0  0  0  0  0  0  0  0  0
  188.8100  178.0720  139.9130 C   0  0  0  0  0  0  0  0  0  0  0  0
  190.6670  177.1450  138.4700 C   0  0  2  0  0  3  0  0  0  0  0  0
  192.8220  177.2900  139.9460 C   0  0  0  0  0  1  0  0  0  0  0  0
  190.2990  175.8940  137.7480 C   0  0  0  0  0  0  0  0  0  0  0  0
  190.0630  173.4200  136.5120 C   0  0  0  0  0  3  0  0  0  0  0  0
  191.4010  175.1000  137.5840 C   0  0  0  0  0  0  0  0  0  0  0  0
  191.3180  173.8510  136.9710 C   0  0  0  0  0  3  0  0  0  0  0  0
  188.9270  174.2370  136.6750 C   0  0  0  0  0  3  0  0  0  0  0  0
  192.2210  177.0290  138.5710 C   0  0  1  0  0  3  0  0  0  0  0  0
  192.5760  175.6910  138.1000 N   0  0  0  0  0  2  0  0  0  0  0  0
  189.0390  175.4890  137.3010 C   0  0  0  0  0  3  0  0  0  0  0  0
  190.2110  175.8560  143.3080 C   0  0  0  0  0  2  0  0  0  0  0  0
  191.4960  176.4600  143.8480 C   0  0  0  0  0  2  0  0  0  0  0  0
  191.2090  177.3030  145.0800 C   0  0  0  0  0  2  0  0  0  0  0  0
  190.1580  176.6930  145.8850 N   0  0  0  0  0  2  0  0  0  0  0  0
  189.2720  177.7540  146.3400 C   0  0  1  0  0  3  0  0  0  0  0  0
  187.9680  177.6030  145.7160 N   0  0  0  0  0  1  0  0  0  0  0  0
  189.1170  177.6690  147.8450 C   0  0  0  0  0  1  0  0  0  0  0  0
  1  8  2  0  0  0  0
  1  5  1  0  0  0  0
  2  8  1  0  0  0  0
  3  4  1  0  0  0  0
  3  6  2  0  0  0  0
  5  7  2  0  0  0  0
  7  6  1  0  0  0  0
  7 19  1  0  0  0  0
  8  3  1  0  0  0  0
  9 16  1  0  0  0  0
  9  1  1  1  0  0  0
 11  9  1  0  0  0  0
 12 15  2  0  0  0  0
 12 14  1  0  0  0  0
 13 11  1  0  0  0  0
 13 17  1  0  0  0  0
 14 13  2  0  0  0  0
 15 18  1  0  0  0  0
 16 10  1  1  0  0  0
 17 16  1  0  0  0  0
 18 11  2  0  0  0  0
 19 20  1  0  0  0  0
 20 21  1  0  0  0  0
 21 22  1  0  0  0  0
 22 23  1  0  0  0  0
 23 25  1  1  0  0  0
 24 23  1  0  0  0  0
M  END
>  <MODEL>
7

>  <REMARK>
 VINA RESULT:      -6.5      3.666      7.722
  Name = 
  6 active torsions:
  status: ('A' for Active; 'I' for Inactive)
    1  A    between atoms: C_1  and  C_3
    2  A    between atoms: C_2  and  N_25
    3  A    between atoms: C_6  and  C_15
    4  A    between atoms: C_6  and  C_23
    5  A    between atoms: C_15  and  C_21
    6  A    between atoms: C_21  and  N_25
                            x       y       z     vdW  Elec       q    Type
                         _______ _______ _______ _____ _____    ______ ____

>  <TORSDO>
F 6

$$$$
=
 OpenBabel10272400493D

 25 27  0  0  1  0  0  0  0  0999 V2000
  191.1250  176.8200  138.2700 C   0  0  0  0  0  0  0  0  0  0  0  0
  193.4350  176.8010  137.5290 O   0  0  0  0  0  1  0  0  0  0  0  0
  192.9320  177.0760  139.8770 C   0  0  0  0  0  0  0  0  0  0  0  0
  194.2890  177.1590  140.1650 O   0  0  0  0  0  1  0  0  0  0  0  0
  190.1990  176.9120  139.3210 C   0  0  0  0  0  3  0  0  0  0  0  0
  192.0010  177.1750  140.9130 C   0  0  0  0  0  3  0  0  0  0  0  0
  190.6340  177.0870  140.6370 C   0  0  0  0  0  0  0  0  0  0  0  0
  192.5000  176.8980  138.5550 C   0  0  0  0  0  0  0  0  0  0  0  0
  190.6580  176.6300  136.8440 C   0  0  2  0  0  3  0  0  0  0  0  0
  191.0320  174.0920  137.3530 C   0  0  0  0  0  1  0  0  0  0  0  0
  189.2920  177.1910  136.6390 C   0  0  0  0  0  0  0  0  0  0  0  0
  186.6090  177.7730  136.2260 C   0  0  0  0  0  3  0  0  0  0  0  0
  188.4190  176.1980  136.2880 C   0  0  0  0  0  0  0  0  0  0  0  0
  187.0660  176.4530  136.0770 C   0  0  0  0  0  3  0  0  0  0  0  0
  187.5060  178.7990  136.5820 C   0  0  0  0  0  3  0  0  0  0  0  0
  190.4800  175.1440  136.4010 C   0  0  1  0  0  3  0  0  0  0  0  0
  189.0490  174.9370  136.1790 N   0  0  0  0  0  2  0  0  0  0  0  0
  188.8650  178.5120  136.7940 C   0  0  0  0  0  3  0  0  0  0  0  0
  189.6350  177.2240  141.7310 C   0  0  0  0  0  2  0  0  0  0  0  0
  190.0510  176.3690  142.9160 C   0  0  0  0  0  2  0  0  0  0  0  0
  189.3820  176.8620  144.1880 C   0  0  0  0  0  2  0  0  0  0  0  0
  190.3490  177.5340  145.0480 N   0  0  0  0  0  2  0  0  0  0  0  0
  190.4180  176.7990  146.3020 C   0  0  1  0  0  3  0  0  0  0  0  0
  191.7770  176.8290  146.8120 N   0  0  0  0  0  1  0  0  0  0  0  0
  189.4910  177.4420  147.3130 C   0  0  0  0  0  1  0  0  0  0  0  0
  1  8  2  0  0  0  0
  1  5  1  0  0  0  0
  2  8  1  0  0  0  0
  3  4  1  0  0  0  0
  3  6  2  0  0  0  0
  5  7  2  0  0  0  0
  7  6  1  0  0  0  0
  7 19  1  0  0  0  0
  8  3  1  0  0  0  0
  9  1  1  1  0  0  0
 11 18  1  0  0  0  0
 11  9  1  0  0  0  0
 12 15  1  0  0  0  0
 13 11  2  0  0  0  0
 14 12  2  0  0  0  0
 14 13  1  0  0  0  0
 15 18  2  0  0  0  0
 16  9  1  0  0  0  0
 16 10  1  1  0  0  0
 17 13  1  0  0  0  0
 17 16  1  0  0  0  0
 19 20  1  0  0  0  0
 20 21  1  0  0  0  0
 21 22  1  0  0  0  0
 22 23  1  0  0  0  0
 23 24  1  0  0  0  0
 23 25  1  1  0  0  0
M  END
>  <MODEL>
8

>  <REMARK>
 VINA RESULT:      -6.4      4.069      8.051
  Name = 
  6 active torsions:
  status: ('A' for Active; 'I' for Inactive)
    1  A    between atoms: C_1  and  C_3
    2  A    between atoms: C_2  and  N_25
    3  A    between atoms: C_6  and  C_15
    4  A    between atoms: C_6  and  C_23
    5  A    between atoms: C_15  and  C_21
    6  A    between atoms: C_21  and  N_25
                            x       y       z     vdW  Elec       q    Type
                         _______ _______ _______ _____ _____    ______ ____

>  <TORSDO>
F 6

$$$$
=
 OpenBabel10272400493D

 25 27  0  0  1  0  0  0  0  0999 V2000
  187.2400  178.3920  140.9770 C   0  0  0  0  0  0  0  0  0  0  0  0
  188.2360  179.1290  138.8910 O   0  0  0  0  0  1  0  0  0  0  0  0
  189.4800  177.6710  140.3630 C   0  0  0  0  0  0  0  0  0  0  0  0
  190.5500  177.6770  139.4770 O   0  0  0  0  0  1  0  0  0  0  0  0
  187.3400  177.6420  142.1590 C   0  0  0  0  0  3  0  0  0  0  0  0
  189.5710  176.9360  141.5480 C   0  0  0  0  0  3  0  0  0  0  0  0
  188.4980  176.9160  142.4440 C   0  0  0  0  0  0  0  0  0  0  0  0
  188.3180  178.3990  140.0730 C   0  0  0  0  0  0  0  0  0  0  0  0
  185.9870  179.1790  140.6650 C   0  0  2  0  0  3  0  0  0  0  0  0
  185.7560  177.4940  138.6780 C   0  0  0  0  0  1  0  0  0  0  0  0
  185.0350  179.1650  141.8120 C   0  0  0  0  0  0  0  0  0  0  0  0
  182.9950  178.8520  143.6690 C   0  0  0  0  0  3  0  0  0  0  0  0
  183.8660  178.5540  141.4520 C   0  0  0  0  0  0  0  0  0  0  0  0
  182.8230  178.3760  142.3590 C   0  0  0  0  0  3  0  0  0  0  0  0
  184.1960  179.4860  144.0420 C   0  0  0  0  0  3  0  0  0  0  0  0
  185.1170  178.6030  139.5030 C   0  0  1  0  0  3  0  0  0  0  0  0
  183.8640  178.1440  140.1000 N   0  0  0  0  0  2  0  0  0  0  0  0
  185.2330  179.6470  143.1090 C   0  0  0  0  0  3  0  0  0  0  0  0
  188.6000  176.1620  143.7220 C   0  0  0  0  0  2  0  0  0  0  0  0
  187.9690  176.9670  144.8450 C   0  0  0  0  0  2  0  0  0  0  0  0
  188.9890  177.9120  145.4600 C   0  0  0  0  0  2  0  0  0  0  0  0
  190.2510  177.2210  145.6950 N   0  0  0  0  0  2  0  0  0  0  0  0
  190.2770  176.8020  147.0880 C   0  0  1  0  0  3  0  0  0  0  0  0
  191.6300  176.9130  147.6070 N   0  0  0  0  0  1  0  0  0  0  0  0
  189.3580  177.6930  147.8980 C   0  0  0  0  0  1  0  0  0  0  0  0
  1  5  1  0  0  0  0
  2  8  1  0  0  0  0
  3  6  2  0  0  0  0
  4  3  1  0  0  0  0
  5  7  2  0  0  0  0
  6  7  1  0  0  0  0
  7 19  1  0  0  0  0
  8  3  1  0  0  0  0
  8  1  2  0  0  0  0
  9  1  1  1  0  0  0
  9 11  1  0  0  0  0
 11 18  1  0  0  0  0
 12 15  1  0  0  0  0
 13 11  2  0  0  0  0
 13 14  1  0  0  0  0
 14 12  2  0  0  0  0
 16 10  1  1  0  0  0
 16 17  1  0  0  0  0
 16  9  1  0  0  0  0
 17 13  1  0  0  0  0
 18 15  2  0  0  0  0
 19 20  1  0  0  0  0
 20 21  1  0  0  0  0
 21 22  1  0  0  0  0
 22 23  1  0  0  0  0
 23 24  1  0  0  0  0
 23 25  1  1  0  0  0
M  END
>  <MODEL>
9

>  <REMARK>
 VINA RESULT:      -6.3      3.623      5.986
  Name = 
  6 active torsions:
  status: ('A' for Active; 'I' for Inactive)
    1  A    between atoms: C_1  and  C_3
    2  A    between atoms: C_2  and  N_25
    3  A    between atoms: C_6  and  C_15
    4  A    between atoms: C_6  and  C_23
    5  A    between atoms: C_15  and  C_21
    6  A    between atoms: C_21  and  N_25
                            x       y       z     vdW  Elec       q    Type
                         _______ _______ _______ _____ _____    ______ ____

>  <TORSDO>
F 6

$$$$
