=
 OpenBabel10272400043D

 34 39  0  0  1  0  0  0  0  0999 V2000
  191.2830  177.5040  146.7890 C   0  0  2  0  0  3  0  0  0  0  0  0
  191.5990  175.4090  145.3870 C   0  0  0  0  0  0  0  0  0  0  0  0
  190.3180  177.3580  144.5000 N   0  0  0  0  0  0  0  0  0  0  0  0
  189.3240  177.4560  142.2150 C   0  0  0  0  0  0  0  0  0  0  0  0
  192.1980  175.3840  147.7460 C   0  0  0  0  0  2  0  0  0  0  0  0
  192.0350  174.7850  146.4340 N   0  0  0  0  0  0  0  0  0  0  0  0
  191.7310  177.4530  142.5280 C   0  0  0  0  0  3  0  0  0  0  0  0
  191.4200  176.9230  145.3790 C   0  0  1  0  0  3  0  0  0  0  0  0
  191.9080  177.5090  141.0680 C   0  0  0  0  0  3  0  0  0  0  0  0
  189.4490  177.3290  140.7220 C   0  0  0  0  0  2  0  0  0  0  0  0
  192.3610  176.9020  147.6800 C   0  0  0  0  0  2  0  0  0  0  0  0
  188.9910  177.6100  145.0270 C   0  0  0  0  0  0  0  0  0  0  0  0
  189.8930  177.2110  147.3450 C   0  0  0  0  0  2  0  0  0  0  0  0
  191.4980  174.6370  144.1140 C   0  0  0  0  0  1  0  0  0  0  0  0
  188.1490  177.5640  142.7540 N   0  0  0  0  0  0  0  0  0  0  0  0
  187.9360  177.7070  144.1730 C   0  0  0  0  0  0  0  0  0  0  0  0
  190.8660  177.4690  140.2220 C   0  0  0  0  0  0  0  0  0  0  0  0
  190.5130  177.4220  143.0760 C   0  0  0  0  0  0  0  0  0  0  0  0
  188.8310  177.8920  146.4990 C   0  0  0  0  0  2  0  0  0  0  0  0
  184.2480  178.5280  144.0270 C   0  0  0  0  0  0  0  0  0  0  0  0
  183.9000  178.5550  145.3800 C   0  0  0  0  0  3  0  0  0  0  0  0
  186.5410  177.9620  144.6140 C   0  0  0  0  0  0  0  0  0  0  0  0
  184.8690  178.2980  146.3520 C   0  0  0  0  0  3  0  0  0  0  0  0
  185.5620  178.2400  143.6480 C   0  0  0  0  0  3  0  0  0  0  0  0
  186.1820  178.0090  145.9720 C   0  0  0  0  0  3  0  0  0  0  0  0
  183.2210  178.8110  142.9900 C   0  0  0  0  0  1  0  0  0  0  0  0
  191.0620  177.5340  138.8380 O   0  0  0  0  0  0  0  0  0  0  0  0
  190.3020  176.7700  137.9090 C   0  0  0  0  0  2  0  0  0  0  0  0
  188.9350  179.7490  137.7010 O   0  0  0  0  0  1  0  0  0  0  0  0
  188.5450  178.4460  137.3880 C   0  0  2  0  0  3  0  0  0  0  0  0
  187.9690  177.6810  135.2450 C   0  0  0  0  0  2  0  0  0  0  0  0
  189.1540  176.8690  135.7100 C   0  0  0  0  0  2  0  0  0  0  0  0
  189.7260  177.6790  136.8390 C   0  0  2  0  0  3  0  0  0  0  0  0
  187.4980  178.4770  136.3730 N   0  0  0  0  0  2  0  0  0  0  0  0
  1 13  1  1  0  0  0
  1 11  1  0  0  0  0
  2  6  2  0  0  0  0
  3 12  1  0  0  0  0
  3  8  1  0  0  0  0
  4 15  2  0  0  0  0
  4 18  1  0  0  0  0
  6  5  1  0  0  0  0
  7 18  2  0  0  0  0
  8  2  1  1  0  0  0
  8  1  1  0  0  0  0
  9  7  1  0  0  0  0
 10  4  1  0  0  0  0
 11  5  1  0  0  0  0
 12 19  1  0  0  0  0
 14  2  1  0  0  0  0
 15 16  1  0  0  0  0
 16 22  1  0  0  0  0
 16 12  2  0  0  0  0
 17 10  1  0  0  0  0
 17  9  2  0  0  0  0
 18  3  1  0  0  0  0
 19 13  1  0  0  0  0
 20 21  1  0  0  0  0
 21 23  2  0  0  0  0
 22 25  2  0  0  0  0
 24 20  2  0  0  0  0
 24 22  1  0  0  0  0
 25 23  1  0  0  0  0
 26 20  1  0  0  0  0
 27 17  1  0  0  0  0
 28 27  1  0  0  0  0
 30 29  1  6  0  0  0
 31 32  1  0  0  0  0
 31 34  1  0  0  0  0
 32 33  1  0  0  0  0
 33 30  1  0  0  0  0
 33 28  1  1  0  0  0
 34 30  1  0  0  0  0
M  END
>  <MODEL>
1

>  <REMARK>
 VINA RESULT:      -9.2      0.000      0.000
  Name = 
  4 active torsions:
  status: ('A' for Active; 'I' for Inactive)
    1  A    between atoms: O_3  and  C_13
    2  A    between atoms: O_3  and  C_29
    3  A    between atoms: C_12  and  C_28
    4  A    between atoms: C_13  and  C_33
                            x       y       z     vdW  Elec       q    Type
                         _______ _______ _______ _____ _____    ______ ____

>  <TORSDO>
F 4

$$$$
=
 OpenBabel10272400043D

 34 39  0  0  1  0  0  0  0  0999 V2000
  191.2810  177.4520  146.7990 C   0  0  2  0  0  3  0  0  0  0  0  0
  191.5970  175.3790  145.3670 C   0  0  0  0  0  0  0  0  0  0  0  0
  190.3170  177.3400  144.5080 N   0  0  0  0  0  0  0  0  0  0  0  0
  189.3240  177.4720  142.2230 C   0  0  0  0  0  0  0  0  0  0  0  0
  192.1950  175.3190  147.7250 C   0  0  0  0  0  2  0  0  0  0  0  0
  192.0320  174.7400  146.4040 N   0  0  0  0  0  0  0  0  0  0  0  0
  191.7310  177.4640  142.5380 C   0  0  0  0  0  3  0  0  0  0  0  0
  191.4180  176.8930  145.3800 C   0  0  1  0  0  3  0  0  0  0  0  0
  191.9090  177.5410  141.0790 C   0  0  0  0  0  3  0  0  0  0  0  0
  189.4500  177.3670  140.7290 C   0  0  0  0  0  2  0  0  0  0  0  0
  192.3580  176.8370  147.6820 C   0  0  0  0  0  2  0  0  0  0  0  0
  188.9900  177.5860  145.0370 C   0  0  0  0  0  0  0  0  0  0  0  0
  189.8900  177.1520  147.3490 C   0  0  0  0  0  2  0  0  0  0  0  0
  191.4960  174.6250  144.0820 C   0  0  0  0  0  1  0  0  0  0  0  0
  188.1490  177.5720  142.7640 N   0  0  0  0  0  0  0  0  0  0  0  0
  187.9360  177.6950  144.1840 C   0  0  0  0  0  0  0  0  0  0  0  0
  190.8680  177.5140  140.2310 C   0  0  0  0  0  0  0  0  0  0  0  0
  190.5130  177.4250  143.0850 C   0  0  0  0  0  0  0  0  0  0  0  0
  188.8300  177.8450  146.5130 C   0  0  0  0  0  2  0  0  0  0  0  0
  184.2560  178.5590  144.0540 C   0  0  0  0  0  0  0  0  0  0  0  0
  183.9010  178.5280  145.4050 C   0  0  0  0  0  3  0  0  0  0  0  0
  186.5400  177.9440  144.6290 C   0  0  0  0  0  0  0  0  0  0  0  0
  184.8610  178.2180  146.3700 C   0  0  0  0  0  3  0  0  0  0  0  0
  185.5700  178.2750  143.6700 C   0  0  0  0  0  3  0  0  0  0  0  0
  186.1730  177.9340  145.9850 C   0  0  0  0  0  3  0  0  0  0  0  0
  183.2390  178.8980  143.0250 C   0  0  0  0  0  1  0  0  0  0  0  0
  191.0640  177.5990  138.8490 O   0  0  0  0  0  0  0  0  0  0  0  0
  190.7400  176.5430  137.9520 C   0  0  0  0  0  2  0  0  0  0  0  0
  193.9780  176.3040  138.4480 O   0  0  0  0  0  1  0  0  0  0  0  0
  193.0940  175.9480  137.4290 C   0  0  2  0  0  3  0  0  0  0  0  0
  192.7280  173.7630  136.6540 C   0  0  0  0  0  2  0  0  0  0  0  0
  191.4090  174.2830  137.1740 C   0  0  0  0  0  2  0  0  0  0  0  0
  191.7960  175.4560  138.0290 C   0  0  2  0  0  3  0  0  0  0  0  0
  193.6730  174.8740  136.6290 N   0  0  0  0  0  2  0  0  0  0  0  0
  1 13  1  1  0  0  0
  1 11  1  0  0  0  0
  2  6  2  0  0  0  0
  3 12  1  0  0  0  0
  3  8  1  0  0  0  0
  4 15  2  0  0  0  0
  4 18  1  0  0  0  0
  6  5  1  0  0  0  0
  7 18  2  0  0  0  0
  8  2  1  1  0  0  0
  8  1  1  0  0  0  0
  9  7  1  0  0  0  0
 10  4  1  0  0  0  0
 11  5  1  0  0  0  0
 12 19  1  0  0  0  0
 14  2  1  0  0  0  0
 15 16  1  0  0  0  0
 16 22  1  0  0  0  0
 16 12  2  0  0  0  0
 17 10  1  0  0  0  0
 17  9  2  0  0  0  0
 18  3  1  0  0  0  0
 19 13  1  0  0  0  0
 20 21  1  0  0  0  0
 21 23  2  0  0  0  0
 22 25  2  0  0  0  0
 24 20  2  0  0  0  0
 24 22  1  0  0  0  0
 25 23  1  0  0  0  0
 26 20  1  0  0  0  0
 27 17  1  0  0  0  0
 28 27  1  0  0  0  0
 30 33  1  0  0  0  0
 30 29  1  1  0  0  0
 31 32  1  0  0  0  0
 32 33  1  0  0  0  0
 33 28  1  6  0  0  0
 34 31  1  0  0  0  0
 34 30  1  0  0  0  0
M  END
>  <MODEL>
2

>  <REMARK>
 VINA RESULT:      -9.0      1.704      2.306
  Name = 
  4 active torsions:
  status: ('A' for Active; 'I' for Inactive)
    1  A    between atoms: O_3  and  C_13
    2  A    between atoms: O_3  and  C_29
    3  A    between atoms: C_12  and  C_28
    4  A    between atoms: C_13  and  C_33
                            x       y       z     vdW  Elec       q    Type
                         _______ _______ _______ _____ _____    ______ ____

>  <TORSDO>
F 4

$$$$
=
 OpenBabel10272400043D

 34 39  0  0  1  0  0  0  0  0999 V2000
  186.8160  176.2290  136.3060 C   0  0  2  0  0  3  0  0  0  0  0  0
  188.5690  178.0500  136.5550 C   0  0  0  0  0  0  0  0  0  0  0  0
  187.0920  177.4310  138.4670 N   0  0  0  0  0  0  0  0  0  0  0  0
  187.2380  178.4540  140.7380 C   0  0  0  0  0  0  0  0  0  0  0  0
  188.0470  177.1720  134.3460 C   0  0  0  0  0  2  0  0  0  0  0  0
  188.7370  178.0520  135.2720 N   0  0  0  0  0  0  0  0  0  0  0  0
  189.0180  177.0360  139.8920 C   0  0  0  0  0  3  0  0  0  0  0  0
  187.7790  176.9500  137.2540 C   0  0  1  0  0  3  0  0  0  0  0  0
  189.7590  177.2410  141.1460 C   0  0  0  0  0  3  0  0  0  0  0  0
  188.0310  178.8410  141.9540 C   0  0  0  0  0  3  0  0  0  0  0  0
  187.5500  175.8920  135.0150 C   0  0  0  0  0  2  0  0  0  0  0  0
  185.7030  177.8460  138.4310 C   0  0  0  0  0  0  0  0  0  0  0  0
  185.6000  177.1060  136.0260 C   0  0  0  0  0  2  0  0  0  0  0  0
  189.3670  179.0240  137.3580 C   0  0  0  0  0  1  0  0  0  0  0  0
  186.0270  178.8960  140.5920 N   0  0  0  0  0  0  0  0  0  0  0  0
  185.1890  178.5630  139.4670 C   0  0  0  0  0  0  0  0  0  0  0  0
  189.3110  178.0570  142.1150 C   0  0  0  0  0  0  0  0  0  0  0  0
  187.8290  177.6110  139.6900 C   0  0  1  0  0  3  0  0  0  0  0  0
  184.8250  177.3610  137.3060 C   0  0  0  0  0  2  0  0  0  0  0  0
  181.5020  178.6830  140.2990 C   0  0  0  0  0  0  0  0  0  0  0  0
  181.0790  179.8100  139.5910 C   0  0  0  0  0  3  0  0  0  0  0  0
  183.7820  179.0350  139.5220 C   0  0  0  0  0  0  0  0  0  0  0  0
  181.9990  180.5460  138.8390 C   0  0  0  0  0  3  0  0  0  0  0  0
  182.8450  178.2950  140.2590 C   0  0  0  0  0  3  0  0  0  0  0  0
  183.3400  180.1570  138.8010 C   0  0  0  0  0  3  0  0  0  0  0  0
  180.5250  177.8930  141.0920 C   0  0  0  0  0  1  0  0  0  0  0  0
  190.0300  178.2260  143.3020 O   0  0  0  0  0  0  0  0  0  0  0  0
  189.4220  178.2170  144.5880 C   0  0  0  0  0  2  0  0  0  0  0  0
  188.8010  176.7710  147.4710 O   0  0  0  0  0  1  0  0  0  0  0  0
  189.9160  177.3490  146.8620 C   0  0  2  0  0  3  0  0  0  0  0  0
  191.9230  176.2340  146.3720 C   0  0  0  0  0  2  0  0  0  0  0  0
  191.3540  176.7340  145.0650 C   0  0  0  0  0  2  0  0  0  0  0  0
  189.9150  177.0240  145.3860 C   0  0  2  0  0  3  0  0  0  0  0  0
  191.1350  176.8100  147.4560 N   0  0  0  0  0  2  0  0  0  0  0  0
  1 11  1  6  0  0  0
  1  8  1  0  0  0  0
  2 14  1  0  0  0  0
  3 18  1  0  0  0  0
  4 10  1  0  0  0  0
  5 11  1  0  0  0  0
  5  6  1  0  0  0  0
  6  2  2  0  0  0  0
  7  9  2  0  0  0  0
  8  2  1  6  0  0  0
  8  3  1  0  0  0  0
  9 17  1  0  0  0  0
 10 17  2  0  0  0  0
 12  3  1  0  0  0  0
 12 16  2  0  0  0  0
 13  1  1  0  0  0  0
 13 19  1  0  0  0  0
 15  4  2  0  0  0  0
 16 22  1  0  0  0  0
 16 15  1  0  0  0  0
 17 27  1  0  0  0  0
 18  7  1  1  0  0  0
 18  4  1  0  0  0  0
 19 12  1  0  0  0  0
 20 26  1  0  0  0  0
 21 20  2  0  0  0  0
 22 24  2  0  0  0  0
 23 21  1  0  0  0  0
 24 20  1  0  0  0  0
 25 23  2  0  0  0  0
 25 22  1  0  0  0  0
 27 28  1  0  0  0  0
 30 34  1  0  0  0  0
 30 29  1  1  0  0  0
 31 34  1  0  0  0  0
 32 33  1  0  0  0  0
 32 31  1  0  0  0  0
 33 28  1  6  0  0  0
 33 30  1  0  0  0  0
M  END
>  <MODEL>
3

>  <REMARK>
 VINA RESULT:      -8.7      3.003      8.276
  Name = 
  4 active torsions:
  status: ('A' for Active; 'I' for Inactive)
    1  A    between atoms: O_3  and  C_13
    2  A    between atoms: O_3  and  C_29
    3  A    between atoms: C_12  and  C_28
    4  A    between atoms: C_13  and  C_33
                            x       y       z     vdW  Elec       q    Type
                         _______ _______ _______ _____ _____    ______ ____

>  <TORSDO>
F 4

$$$$
=
 OpenBabel10272400043D

 34 39  0  0  1  0  0  0  0  0999 V2000
  188.4920  177.8570  135.2940 C   0  0  2  0  0  3  0  0  0  0  0  0
  186.8450  176.5550  136.7220 C   0  0  0  0  0  0  0  0  0  0  0  0
  189.0860  177.1860  137.6150 N   0  0  0  0  0  0  0  0  0  0  0  0
  189.8650  176.6780  139.9300 C   0  0  0  0  0  0  0  0  0  0  0  0
  186.4100  176.8520  134.3460 C   0  0  0  0  0  2  0  0  0  0  0  0
  186.1170  176.3430  135.6730 N   0  0  0  0  0  0  0  0  0  0  0  0
  188.0710  178.2660  139.5380 C   0  0  0  0  0  3  0  0  0  0  0  0
  187.9860  177.5640  136.7090 C   0  0  1  0  0  3  0  0  0  0  0  0
  187.9590  178.4770  140.9900 C   0  0  0  0  0  3  0  0  0  0  0  0
  189.6680  176.7190  141.4200 C   0  0  0  0  0  3  0  0  0  0  0  0
  187.2990  178.0940  134.3790 C   0  0  0  0  0  2  0  0  0  0  0  0
  190.2510  176.4730  137.1280 C   0  0  0  0  0  0  0  0  0  0  0  0
  189.3410  176.6940  134.7890 C   0  0  0  0  0  2  0  0  0  0  0  0
  186.3900  175.9560  138.0120 C   0  0  0  0  0  1  0  0  0  0  0  0
  190.8190  175.9580  139.4270 N   0  0  0  0  0  0  0  0  0  0  0  0
  191.0910  175.8740  138.0140 C   0  0  0  0  0  0  0  0  0  0  0  0
  188.6990  177.7840  141.8710 C   0  0  0  0  0  0  0  0  0  0  0  0
  188.9660  177.4130  139.0310 C   0  0  1  0  0  3  0  0  0  0  0  0
  190.5760  176.5250  135.6570 C   0  0  0  0  0  2  0  0  0  0  0  0
  193.2780  173.1330  136.5970 C   0  0  0  0  0  0  0  0  0  0  0  0
  194.5600  173.5870  136.9160 C   0  0  0  0  0  3  0  0  0  0  0  0
  192.3080  175.1200  137.6140 C   0  0  0  0  0  0  0  0  0  0  0  0
  194.7210  174.7990  137.5920 C   0  0  0  0  0  3  0  0  0  0  0  0
  192.1590  173.8920  136.9510 C   0  0  0  0  0  3  0  0  0  0  0  0
  193.6010  175.5570  137.9430 C   0  0  0  0  0  3  0  0  0  0  0  0
  193.1040  171.8390  135.8870 C   0  0  0  0  0  1  0  0  0  0  0  0
  188.5790  178.0100  143.2470 O   0  0  0  0  0  0  0  0  0  0  0  0
  188.8750  177.0220  144.2260 C   0  0  0  0  0  2  0  0  0  0  0  0
  191.9560  178.1540  144.3220 O   0  0  0  0  0  1  0  0  0  0  0  0
  191.2500  177.1230  144.9430 C   0  0  2  0  0  3  0  0  0  0  0  0
  190.9160  176.9110  147.2570 C   0  0  0  0  0  2  0  0  0  0  0  0
  189.5550  177.0190  146.6130 C   0  0  0  0  0  2  0  0  0  0  0  0
  189.8430  177.5820  145.2510 C   0  0  2  0  0  3  0  0  0  0  0  0
  191.9060  176.7630  146.1960 N   0  0  0  0  0  2  0  0  0  0  0  0
  1 11  1  6  0  0  0
  1  8  1  0  0  0  0
  2 14  1  0  0  0  0
  3 18  1  0  0  0  0
  4 10  1  0  0  0  0
  5 11  1  0  0  0  0
  5  6  1  0  0  0  0
  6  2  2  0  0  0  0
  7  9  2  0  0  0  0
  8  2  1  6  0  0  0
  8  3  1  0  0  0  0
  9 17  1  0  0  0  0
 10 17  2  0  0  0  0
 12  3  1  0  0  0  0
 12 16  2  0  0  0  0
 13  1  1  0  0  0  0
 13 19  1  0  0  0  0
 15  4  2  0  0  0  0
 16 15  1  0  0  0  0
 17 27  1  0  0  0  0
 18  7  1  6  0  0  0
 18  4  1  0  0  0  0
 19 12  1  0  0  0  0
 20 21  2  0  0  0  0
 20 24  1  0  0  0  0
 21 23  1  0  0  0  0
 22 25  1  0  0  0  0
 22 16  1  0  0  0  0
 23 25  2  0  0  0  0
 24 22  2  0  0  0  0
 26 20  1  0  0  0  0
 27 28  1  0  0  0  0
 30 29  1  1  0  0  0
 30 33  1  0  0  0  0
 30 34  1  0  0  0  0
 32 31  1  0  0  0  0
 33 28  1  6  0  0  0
 33 32  1  0  0  0  0
 34 31  1  0  0  0  0
M  END
>  <MODEL>
4

>  <REMARK>
 VINA RESULT:      -8.3      2.893      9.757
  Name = 
  4 active torsions:
  status: ('A' for Active; 'I' for Inactive)
    1  A    between atoms: O_3  and  C_13
    2  A    between atoms: O_3  and  C_29
    3  A    between atoms: C_12  and  C_28
    4  A    between atoms: C_13  and  C_33
                            x       y       z     vdW  Elec       q    Type
                         _______ _______ _______ _____ _____    ______ ____

>  <TORSDO>
F 4

$$$$
=
 OpenBabel10272400043D

 34 39  0  0  1  0  0  0  0  0999 V2000
  191.7040  174.4100  137.3490 C   0  0  2  0  0  3  0  0  0  0  0  0
  192.8200  176.4930  138.2790 C   0  0  0  0  0  0  0  0  0  0  0  0
  190.3960  176.0600  138.6750 N   0  0  0  0  0  0  0  0  0  0  0  0
  188.9110  177.5390  140.0280 C   0  0  0  0  0  0  0  0  0  0  0  0
  194.0040  175.1090  136.6660 C   0  0  0  0  0  2  0  0  0  0  0  0
  193.8570  176.2570  137.5420 N   0  0  0  0  0  0  0  0  0  0  0  0
  190.6990  176.2720  141.0750 C   0  0  0  0  0  3  0  0  0  0  0  0
  191.7240  175.4520  138.4710 C   0  0  1  0  0  3  0  0  0  0  0  0
  190.3230  176.8440  142.3770 C   0  0  0  0  0  3  0  0  0  0  0  0
  188.6070  178.2880  141.2960 C   0  0  0  0  0  3  0  0  0  0  0  0
  193.1270  173.9320  137.0900 C   0  0  0  0  0  2  0  0  0  0  0  0
  189.4720  176.2380  137.5720 C   0  0  0  0  0  0  0  0  0  0  0  0
  191.0940  175.0100  136.0860 C   0  0  0  0  0  2  0  0  0  0  0  0
  192.8390  177.7240  139.1250 C   0  0  0  0  0  1  0  0  0  0  0  0
  188.1920  177.7480  138.9700 N   0  0  0  0  0  0  0  0  0  0  0  0
  188.4010  177.0630  137.7180 C   0  0  0  0  0  0  0  0  0  0  0  0
  189.3510  177.7620  142.5000 C   0  0  0  0  0  0  0  0  0  0  0  0
  190.0400  176.6010  139.9600 C   0  0  1  0  0  3  0  0  0  0  0  0
  189.6480  175.4000  136.3310 C   0  0  0  0  0  2  0  0  0  0  0  0
  185.1530  176.9610  135.7840 C   0  0  0  0  0  0  0  0  0  0  0  0
  185.4850  177.6550  134.6180 C   0  0  0  0  0  3  0  0  0  0  0  0
  187.4010  177.3120  136.6480 C   0  0  0  0  0  0  0  0  0  0  0  0
  186.7740  178.1690  134.4570 C   0  0  0  0  0  3  0  0  0  0  0  0
  186.1090  176.7850  136.7900 C   0  0  0  0  0  3  0  0  0  0  0  0
  187.7270  177.9930  135.4630 C   0  0  0  0  0  3  0  0  0  0  0  0
  183.7860  176.4050  135.9540 C   0  0  0  0  0  1  0  0  0  0  0  0
  189.0070  178.2830  143.7520 O   0  0  0  0  0  0  0  0  0  0  0  0
  189.7410  178.0040  144.9380 C   0  0  0  0  0  2  0  0  0  0  0  0
  186.5580  177.2890  145.3190 O   0  0  0  0  0  1  0  0  0  0  0  0
  187.5190  177.9900  146.0480 C   0  0  2  0  0  3  0  0  0  0  0  0
  188.2270  177.4580  148.2210 C   0  0  0  0  0  2  0  0  0  0  0  0
  189.4370  177.3790  147.3210 C   0  0  0  0  0  2  0  0  0  0  0  0
  188.8530  177.2880  145.9400 C   0  0  2  0  0  3  0  0  0  0  0  0
  187.1310  178.0380  147.4530 N   0  0  0  0  0  2  0  0  0  0  0  0
  1 13  1  6  0  0  0
  1  8  1  0  0  0  0
  2 14  1  0  0  0  0
  3 18  1  0  0  0  0
  4 10  1  0  0  0  0
  5 11  1  0  0  0  0
  5  6  1  0  0  0  0
  6  2  2  0  0  0  0
  7  9  2  0  0  0  0
  8  2  1  6  0  0  0
  8  3  1  0  0  0  0
  9 17  1  0  0  0  0
 10 17  2  0  0  0  0
 11  1  1  0  0  0  0
 12 16  2  0  0  0  0
 12  3  1  0  0  0  0
 13 19  1  0  0  0  0
 15  4  2  0  0  0  0
 16 15  1  0  0  0  0
 17 27  1  0  0  0  0
 18  4  1  0  0  0  0
 18  7  1  1  0  0  0
 19 12  1  0  0  0  0
 20 26  1  0  0  0  0
 20 24  1  0  0  0  0
 21 20  2  0  0  0  0
 22 24  2  0  0  0  0
 22 16  1  0  0  0  0
 23 21  1  0  0  0  0
 23 25  2  0  0  0  0
 25 22  1  0  0  0  0
 27 28  1  0  0  0  0
 30 29  1  6  0  0  0
 30 34  1  0  0  0  0
 32 31  1  0  0  0  0
 33 28  1  6  0  0  0
 33 30  1  0  0  0  0
 33 32  1  0  0  0  0
 34 31  1  0  0  0  0
M  END
>  <MODEL>
5

>  <REMARK>
 VINA RESULT:      -8.2      3.051      8.318
  Name = 
  4 active torsions:
  status: ('A' for Active; 'I' for Inactive)
    1  A    between atoms: O_3  and  C_13
    2  A    between atoms: O_3  and  C_29
    3  A    between atoms: C_12  and  C_28
    4  A    between atoms: C_13  and  C_33
                            x       y       z     vdW  Elec       q    Type
                         _______ _______ _______ _____ _____    ______ ____

>  <TORSDO>
F 4

$$$$
=
 OpenBabel10272400043D

 34 39  0  0  1  0  0  0  0  0999 V2000
  186.2220  177.1490  145.4100 C   0  0  2  0  0  3  0  0  0  0  0  0
  185.3410  179.5100  145.0960 C   0  0  0  0  0  0  0  0  0  0  0  0
  185.7800  178.0400  143.1290 N   0  0  0  0  0  0  0  0  0  0  0  0
  185.3470  178.7000  140.7630 C   0  0  0  0  0  0  0  0  0  0  0  0
  186.1380  178.8010  147.2830 C   0  0  0  0  0  2  0  0  0  0  0  0
  185.5970  179.7610  146.3390 N   0  0  0  0  0  0  0  0  0  0  0  0
  183.5150  178.3620  142.3190 C   0  0  0  0  0  3  0  0  0  0  0  0
  185.3760  178.0890  144.5460 C   0  0  1  0  0  3  0  0  0  0  0  0
  182.5620  178.7050  141.2510 C   0  0  0  0  0  3  0  0  0  0  0  0
  184.4330  179.2330  139.6950 C   0  0  0  0  0  2  0  0  0  0  0  0
  185.8570  177.3560  146.8740 C   0  0  0  0  0  2  0  0  0  0  0  0
  187.1560  177.7880  142.7480 C   0  0  0  0  0  0  0  0  0  0  0  0
  187.7060  177.4150  145.1770 C   0  0  0  0  0  2  0  0  0  0  0  0
  184.7820  180.6190  144.2670 C   0  0  0  0  0  1  0  0  0  0  0  0
  186.6140  178.5670  140.5170 N   0  0  0  0  0  0  0  0  0  0  0  0
  187.5590  178.0490  141.4750 C   0  0  0  0  0  0  0  0  0  0  0  0
  182.9680  179.0930  140.0300 C   0  0  0  0  0  0  0  0  0  0  0  0
  184.8320  178.3630  142.0970 C   0  0  0  0  0  0  0  0  0  0  0  0
  188.0770  177.1180  143.7360 C   0  0  0  0  0  2  0  0  0  0  0  0
  190.4330  177.2350  139.1550 C   0  0  0  0  0  0  0  0  0  0  0  0
  191.5300  177.2920  140.0180 C   0  0  0  0  0  3  0  0  0  0  0  0
  188.9450  177.8270  140.9880 C   0  0  0  0  0  0  0  0  0  0  0  0
  191.3400  177.6050  141.3660 C   0  0  0  0  0  3  0  0  0  0  0  0
  189.1470  177.4940  139.6400 C   0  0  0  0  0  3  0  0  0  0  0  0
  190.0550  177.8640  141.8490 C   0  0  0  0  0  3  0  0  0  0  0  0
  190.6310  176.8930  137.7230 C   0  0  0  0  0  1  0  0  0  0  0  0
  182.0410  179.4040  139.0290 O   0  0  0  0  0  0  0  0  0  0  0  0
  181.3130  180.6250  138.9980 C   0  0  0  0  0  2  0  0  0  0  0  0
  181.6890  183.6150  137.6920 O   0  0  0  0  0  1  0  0  0  0  0  0
  180.7330  182.6030  137.6110 C   0  0  2  0  0  3  0  0  0  0  0  0
  180.1180  181.4730  135.6480 C   0  0  0  0  0  2  0  0  0  0  0  0
  180.6570  180.4420  136.6110 C   0  0  0  0  0  2  0  0  0  0  0  0
  181.4170  181.2540  137.6210 C   0  0  2  0  0  3  0  0  0  0  0  0
  179.9820  182.7340  136.3670 N   0  0  0  0  0  2  0  0  0  0  0  0
  1 13  1  1  0  0  0
  1 11  1  0  0  0  0
  2  6  2  0  0  0  0
  3  8  1  0  0  0  0
  4 18  1  0  0  0  0
  6  5  1  0  0  0  0
  8  2  1  1  0  0  0
  8  1  1  0  0  0  0
  9  7  1  0  0  0  0
 10 17  1  0  0  0  0
 10  4  1  0  0  0  0
 11  5  1  0  0  0  0
 12  3  1  0  0  0  0
 12 19  1  0  0  0  0
 14  2  1  0  0  0  0
 15  4  2  0  0  0  0
 15 16  1  0  0  0  0
 16 12  2  0  0  0  0
 17  9  2  0  0  0  0
 18  7  2  0  0  0  0
 18  3  1  0  0  0  0
 19 13  1  0  0  0  0
 20 24  2  0  0  0  0
 20 21  1  0  0  0  0
 21 23  2  0  0  0  0
 22 16  1  0  0  0  0
 22 25  2  0  0  0  0
 23 25  1  0  0  0  0
 24 22  1  0  0  0  0
 26 20  1  0  0  0  0
 27 17  1  0  0  0  0
 28 27  1  0  0  0  0
 30 33  1  0  0  0  0
 30 29  1  6  0  0  0
 31 34  1  0  0  0  0
 31 32  1  0  0  0  0
 32 33  1  0  0  0  0
 33 28  1  1  0  0  0
 34 30  1  0  0  0  0
M  END
>  <MODEL>
6

>  <REMARK>
 VINA RESULT:      -8.0      3.930      7.206
  Name = 
  4 active torsions:
  status: ('A' for Active; 'I' for Inactive)
    1  A    between atoms: O_3  and  C_13
    2  A    between atoms: O_3  and  C_29
    3  A    between atoms: C_12  and  C_28
    4  A    between atoms: C_13  and  C_33
                            x       y       z     vdW  Elec       q    Type
                         _______ _______ _______ _____ _____    ______ ____

>  <TORSDO>
F 4

$$$$
=
 OpenBabel10272400043D

 34 39  0  0  1  0  0  0  0  0999 V2000
  193.0210  176.8960  138.0020 C   0  0  2  0  0  3  0  0  0  0  0  0
  191.3910  175.0410  137.4080 C   0  0  0  0  0  0  0  0  0  0  0  0
  190.6110  177.0970  138.5860 N   0  0  0  0  0  0  0  0  0  0  0  0
  188.2360  177.5400  139.2060 C   0  0  0  0  0  0  0  0  0  0  0  0
  193.7840  174.6590  137.1910 C   0  0  0  0  0  2  0  0  0  0  0  0
  192.3880  174.2660  137.1270 N   0  0  0  0  0  0  0  0  0  0  0  0
  188.9300  177.4970  136.8800 C   0  0  0  0  0  3  0  0  0  0  0  0
  191.5810  176.5380  137.6260 C   0  0  1  0  0  3  0  0  0  0  0  0
  187.5430  177.7750  136.4750 C   0  0  0  0  0  3  0  0  0  0  0  0
  186.7810  177.6420  138.8410 C   0  0  0  0  0  3  0  0  0  0  0  0
  193.9750  176.1690  137.0630 C   0  0  0  0  0  2  0  0  0  0  0  0
  190.9480  177.2620  139.9860 C   0  0  0  0  0  0  0  0  0  0  0  0
  193.2950  176.5170  139.4540 C   0  0  0  0  0  2  0  0  0  0  0  0
  190.0160  174.4720  137.2840 C   0  0  0  0  0  1  0  0  0  0  0  0
  188.5890  177.5590  140.4540 N   0  0  0  0  0  0  0  0  0  0  0  0
  189.9600  177.4840  140.8940 C   0  0  0  0  0  0  0  0  0  0  0  0
  186.5430  177.8620  137.3670 C   0  0  0  0  0  0  0  0  0  0  0  0
  189.2630  177.3780  138.1680 C   0  0  1  0  0  3  0  0  0  0  0  0
  192.4010  177.3150  140.3860 C   0  0  0  0  0  2  0  0  0  0  0  0
  189.3300  177.6240  144.6200 C   0  0  0  0  0  0  0  0  0  0  0  0
  190.5580  178.0800  145.1070 C   0  0  0  0  0  3  0  0  0  0  0  0
  190.2030  177.6640  142.3490 C   0  0  0  0  0  0  0  0  0  0  0  0
  191.6050  178.3400  144.2200 C   0  0  0  0  0  3  0  0  0  0  0  0
  189.1530  177.4240  143.2480 C   0  0  0  0  0  3  0  0  0  0  0  0
  191.4260  178.1390  142.8490 C   0  0  0  0  0  3  0  0  0  0  0  0
  188.2110  177.3560  145.5600 C   0  0  0  0  0  1  0  0  0  0  0  0
  185.2340  178.1370  136.9560 O   0  0  0  0  0  0  0  0  0  0  0  0
  184.0940  177.4880  137.5060 C   0  0  0  0  0  2  0  0  0  0  0  0
  184.1550  180.2880  139.2210 O   0  0  0  0  0  1  0  0  0  0  0  0
  183.5560  179.0370  139.3710 C   0  0  2  0  0  3  0  0  0  0  0  0
  181.2450  178.6450  139.4830 C   0  0  0  0  0  2  0  0  0  0  0  0
  181.7730  177.8890  138.2870 C   0  0  0  0  0  2  0  0  0  0  0  0
  183.1090  178.5210  138.0220 C   0  0  2  0  0  3  0  0  0  0  0  0
  182.3870  179.1520  140.2360 N   0  0  0  0  0  2  0  0  0  0  0  0
  1 11  1  6  0  0  0
  1 13  1  0  0  0  0
  3 12  1  0  0  0  0
  4 15  2  0  0  0  0
  6  5  1  0  0  0  0
  6  2  2  0  0  0  0
  8  2  1  1  0  0  0
  8  1  1  0  0  0  0
  8  3  1  0  0  0  0
  9  7  2  0  0  0  0
  9 17  1  0  0  0  0
 10  4  1  0  0  0  0
 11  5  1  0  0  0  0
 12 19  1  0  0  0  0
 12 16  2  0  0  0  0
 13 19  1  0  0  0  0
 14  2  1  0  0  0  0
 15 16  1  0  0  0  0
 16 22  1  0  0  0  0
 17 10  2  0  0  0  0
 18  7  1  1  0  0  0
 18  3  1  0  0  0  0
 18  4  1  0  0  0  0
 20 21  1  0  0  0  0
 20 26  1  0  0  0  0
 22 25  2  0  0  0  0
 22 24  1  0  0  0  0
 23 21  2  0  0  0  0
 24 20  2  0  0  0  0
 25 23  1  0  0  0  0
 27 17  1  0  0  0  0
 27 28  1  0  0  0  0
 30 29  1  6  0  0  0
 30 34  1  0  0  0  0
 31 34  1  0  0  0  0
 32 31  1  0  0  0  0
 33 28  1  1  0  0  0
 33 32  1  0  0  0  0
 33 30  1  0  0  0  0
M  END
>  <MODEL>
7

>  <REMARK>
 VINA RESULT:      -7.9      3.126      6.652
  Name = 
  4 active torsions:
  status: ('A' for Active; 'I' for Inactive)
    1  A    between atoms: O_3  and  C_13
    2  A    between atoms: O_3  and  C_29
    3  A    between atoms: C_12  and  C_28
    4  A    between atoms: C_13  and  C_33
                            x       y       z     vdW  Elec       q    Type
                         _______ _______ _______ _____ _____    ______ ____

>  <TORSDO>
F 4

$$$$
=
 OpenBabel10272400043D

 34 39  0  0  1  0  0  0  0  0999 V2000
  188.0050  178.1130  135.3170 C   0  0  2  0  0  3  0  0  0  0  0  0
  186.4040  176.7580  136.7480 C   0  0  0  0  0  0  0  0  0  0  0  0
  188.6520  177.4060  137.6130 N   0  0  0  0  0  0  0  0  0  0  0  0
  189.4800  176.8640  139.9030 C   0  0  0  0  0  0  0  0  0  0  0  0
  185.9210  177.0950  134.3870 C   0  0  0  0  0  2  0  0  0  0  0  0
  185.6600  176.5550  135.7080 N   0  0  0  0  0  0  0  0  0  0  0  0
  187.6560  178.4320  139.5750 C   0  0  0  0  0  3  0  0  0  0  0  0
  187.5300  177.7850  136.7350 C   0  0  1  0  0  3  0  0  0  0  0  0
  187.5670  178.6120  141.0330 C   0  0  0  0  0  3  0  0  0  0  0  0
  189.3100  176.8720  141.3970 C   0  0  0  0  0  3  0  0  0  0  0  0
  186.7920  178.3500  134.4280 C   0  0  0  0  0  2  0  0  0  0  0  0
  189.8180  176.7200  137.0910 C   0  0  0  0  0  0  0  0  0  0  0  0
  188.8620  176.9740  134.7740 C   0  0  0  0  0  2  0  0  0  0  0  0
  185.9820  176.1270  138.0330 C   0  0  0  0  0  1  0  0  0  0  0  0
  190.4360  176.1680  139.3690 N   0  0  0  0  0  0  0  0  0  0  0  0
  190.6830  176.1160  137.9490 C   0  0  0  0  0  0  0  0  0  0  0  0
  188.3330  177.9130  141.8860 C   0  0  0  0  0  0  0  0  0  0  0  0
  188.5530  177.6030  139.0350 C   0  0  1  0  0  3  0  0  0  0  0  0
  190.1150  176.8060  135.6150 C   0  0  0  0  0  2  0  0  0  0  0  0
  192.8880  173.4110  136.4930 C   0  0  0  0  0  0  0  0  0  0  0  0
  194.1680  173.9070  136.7490 C   0  0  0  0  0  3  0  0  0  0  0  0
  191.9030  175.3890  137.5120 C   0  0  0  0  0  0  0  0  0  0  0  0
  194.3210  175.1360  137.3950 C   0  0  0  0  0  3  0  0  0  0  0  0
  191.7620  174.1450  136.8790 C   0  0  0  0  0  3  0  0  0  0  0  0
  193.1960  175.8690  137.7790 C   0  0  0  0  0  3  0  0  0  0  0  0
  192.7210  172.0990  135.8140 C   0  0  0  0  0  1  0  0  0  0  0  0
  188.2350  178.1110  143.2680 O   0  0  0  0  0  0  0  0  0  0  0  0
  188.0350  177.0490  144.1930 C   0  0  0  0  0  2  0  0  0  0  0  0
  184.9540  178.0400  143.6350 O   0  0  0  0  0  1  0  0  0  0  0  0
  186.0160  178.4750  144.4280 C   0  0  2  0  0  3  0  0  0  0  0  0
  185.9830  178.6330  146.7700 C   0  0  0  0  0  2  0  0  0  0  0  0
  187.0810  177.6660  146.3990 C   0  0  0  0  0  2  0  0  0  0  0  0
  186.7610  177.2820  144.9830 C   0  0  2  0  0  3  0  0  0  0  0  0
  185.5050  179.2640  145.5440 N   0  0  0  0  0  2  0  0  0  0  0  0
  1 11  1  6  0  0  0
  1  8  1  0  0  0  0
  2 14  1  0  0  0  0
  3 18  1  0  0  0  0
  4 10  1  0  0  0  0
  5 11  1  0  0  0  0
  5  6  1  0  0  0  0
  6  2  2  0  0  0  0
  7  9  2  0  0  0  0
  8  2  1  6  0  0  0
  8  3  1  0  0  0  0
  9 17  1  0  0  0  0
 10 17  2  0  0  0  0
 12  3  1  0  0  0  0
 12 16  2  0  0  0  0
 13  1  1  0  0  0  0
 13 19  1  0  0  0  0
 15  4  2  0  0  0  0
 16 15  1  0  0  0  0
 17 27  1  0  0  0  0
 18  7  1  6  0  0  0
 18  4  1  0  0  0  0
 19 12  1  0  0  0  0
 20 21  2  0  0  0  0
 20 24  1  0  0  0  0
 21 23  1  0  0  0  0
 22 25  1  0  0  0  0
 22 16  1  0  0  0  0
 23 25  2  0  0  0  0
 24 22  2  0  0  0  0
 26 20  1  0  0  0  0
 27 28  1  0  0  0  0
 30 29  1  6  0  0  0
 30 33  1  0  0  0  0
 30 34  1  0  0  0  0
 32 31  1  0  0  0  0
 33 28  1  6  0  0  0
 33 32  1  0  0  0  0
 34 31  1  0  0  0  0
M  END
>  <MODEL>
8

>  <REMARK>
 VINA RESULT:      -7.8      3.246      9.665
  Name = 
  4 active torsions:
  status: ('A' for Active; 'I' for Inactive)
    1  A    between atoms: O_3  and  C_13
    2  A    between atoms: O_3  and  C_29
    3  A    between atoms: C_12  and  C_28
    4  A    between atoms: C_13  and  C_33
                            x       y       z     vdW  Elec       q    Type
                         _______ _______ _______ _____ _____    ______ ____

>  <TORSDO>
F 4

$$$$
=
 OpenBabel10272400043D

 34 39  0  0  1  0  0  0  0  0999 V2000
  186.3150  177.1230  145.6070 C   0  0  2  0  0  3  0  0  0  0  0  0
  185.4150  179.4670  145.2240 C   0  0  0  0  0  0  0  0  0  0  0  0
  185.9720  177.9830  143.2980 N   0  0  0  0  0  0  0  0  0  0  0  0
  185.6450  178.6110  140.9060 C   0  0  0  0  0  0  0  0  0  0  0  0
  186.1150  178.7930  147.4550 C   0  0  0  0  0  2  0  0  0  0  0  0
  185.6070  179.7350  146.4750 N   0  0  0  0  0  0  0  0  0  0  0  0
  183.7440  178.2610  142.3750 C   0  0  0  0  0  3  0  0  0  0  0  0
  185.4980  178.0400  144.6930 C   0  0  1  0  0  3  0  0  0  0  0  0
  182.8390  178.5790  141.2580 C   0  0  0  0  0  3  0  0  0  0  0  0
  184.7750  179.1180  139.7890 C   0  0  0  0  0  2  0  0  0  0  0  0
  185.8760  177.3400  147.0490 C   0  0  0  0  0  2  0  0  0  0  0  0
  187.3690  177.7480  142.9860 C   0  0  0  0  0  0  0  0  0  0  0  0
  187.8050  177.4100  145.4440 C   0  0  0  0  0  2  0  0  0  0  0  0
  184.8810  180.5580  144.3570 C   0  0  0  0  0  1  0  0  0  0  0  0
  186.9240  178.4950  140.7240 N   0  0  0  0  0  0  0  0  0  0  0  0
  187.8290  178.0020  141.7320 C   0  0  0  0  0  0  0  0  0  0  0  0
  183.2980  178.9590  140.0550 C   0  0  0  0  0  0  0  0  0  0  0  0
  185.0700  178.2810  142.2170 C   0  0  0  0  0  0  0  0  0  0  0  0
  188.2500  177.1030  144.0250 C   0  0  0  0  0  2  0  0  0  0  0  0
  190.8210  177.1560  139.5790 C   0  0  0  0  0  0  0  0  0  0  0  0
  191.8780  177.2890  140.4820 C   0  0  0  0  0  3  0  0  0  0  0  0
  189.2400  177.7960  141.3150 C   0  0  0  0  0  0  0  0  0  0  0  0
  191.6220  177.6630  141.8030 C   0  0  0  0  0  3  0  0  0  0  0  0
  189.5090  177.4020  139.9960 C   0  0  0  0  0  3  0  0  0  0  0  0
  190.3110  177.9100  142.2180 C   0  0  0  0  0  3  0  0  0  0  0  0
  191.0890  176.7480  138.1760 C   0  0  0  0  0  1  0  0  0  0  0  0
  182.4170  179.2460  139.0070 O   0  0  0  0  0  0  0  0  0  0  0  0
  181.2540  178.4720  138.7350 C   0  0  0  0  0  2  0  0  0  0  0  0
  181.0410  175.1950  138.7360 O   0  0  0  0  0  1  0  0  0  0  0  0
  182.0720  176.1290  138.6330 C   0  0  2  0  0  3  0  0  0  0  0  0
  183.5180  176.3540  136.7980 C   0  0  0  0  0  2  0  0  0  0  0  0
  182.7840  177.6640  136.9550 C   0  0  0  0  0  2  0  0  0  0  0  0
  181.6050  177.3150  137.8190 C   0  0  2  0  0  3  0  0  0  0  0  0
  183.2170  175.5250  137.9600 N   0  0  0  0  0  2  0  0  0  0  0  0
  1 13  1  1  0  0  0
  1 11  1  0  0  0  0
  2  6  2  0  0  0  0
  3  8  1  0  0  0  0
  4 18  1  0  0  0  0
  6  5  1  0  0  0  0
  8  2  1  1  0  0  0
  8  1  1  0  0  0  0
  9  7  1  0  0  0  0
 10 17  1  0  0  0  0
 10  4  1  0  0  0  0
 11  5  1  0  0  0  0
 12  3  1  0  0  0  0
 12 19  1  0  0  0  0
 14  2  1  0  0  0  0
 15  4  2  0  0  0  0
 15 16  1  0  0  0  0
 16 12  2  0  0  0  0
 17  9  2  0  0  0  0
 18  7  2  0  0  0  0
 18  3  1  0  0  0  0
 19 13  1  0  0  0  0
 20 24  2  0  0  0  0
 20 21  1  0  0  0  0
 21 23  2  0  0  0  0
 22 16  1  0  0  0  0
 22 25  2  0  0  0  0
 23 25  1  0  0  0  0
 24 22  1  0  0  0  0
 26 20  1  0  0  0  0
 27 17  1  0  0  0  0
 28 27  1  0  0  0  0
 30 29  1  6  0  0  0
 31 32  1  0  0  0  0
 31 34  1  0  0  0  0
 32 33  1  0  0  0  0
 33 30  1  0  0  0  0
 33 28  1  1  0  0  0
 34 30  1  0  0  0  0
M  END
>  <MODEL>
9

>  <REMARK>
 VINA RESULT:      -7.8      3.458      6.727
  Name = 
  4 active torsions:
  status: ('A' for Active; 'I' for Inactive)
    1  A    between atoms: O_3  and  C_13
    2  A    between atoms: O_3  and  C_29
    3  A    between atoms: C_12  and  C_28
    4  A    between atoms: C_13  and  C_33
                            x       y       z     vdW  Elec       q    Type
                         _______ _______ _______ _____ _____    ______ ____

>  <TORSDO>
F 4

$$$$
