=
 OpenBabel10272400263D

 31 35  0  0  0  0  0  0  0  0999 V2000
  184.8930  178.6810  144.1990 C   0  0  0  0  0  0  0  0  0  0  0  0
  188.4640  177.7710  143.5260 C   0  0  0  0  0  0  0  0  0  0  0  0
  189.0750  177.5650  144.8780 C   0  0  0  0  0  0  0  0  0  0  0  0
  188.9270  176.7360  147.1640 C   0  0  0  0  0  0  0  0  0  0  0  0
  187.1010  178.1130  143.3390 C   0  0  0  0  0  0  0  0  0  0  0  0
  184.4090  178.8140  142.8970 C   0  0  0  0  0  3  0  0  0  0  0  0
  188.3240  177.0390  145.9420 C   0  0  0  0  0  3  0  0  0  0  0  0
  188.7330  177.7820  141.0980 C   0  0  0  0  0  0  0  0  0  0  0  0
  183.8260  178.9470  145.5610 Cl  0  0  0  0  0  0  0  0  0  0  0  0
  191.4800  178.4200  143.7420 S   0  0  0  0  0  0  0  0  0  0  0  0
  188.1830  176.2390  148.1810 F   0  0  0  0  0  0  0  0  0  0  0  0
  187.4210  178.0960  140.9570 N   0  0  0  0  0  0  0  0  0  0  0  0
  189.2850  177.6230  142.3800 C   0  0  0  0  0  0  0  0  0  0  0  0
  186.2280  178.3380  144.4180 C   0  0  0  0  0  3  0  0  0  0  0  0
  190.2990  176.9240  147.3310 C   0  0  0  0  0  3  0  0  0  0  0  0
  186.6010  178.2650  142.0240 C   0  0  0  0  0  0  0  0  0  0  0  0
  185.2620  178.6080  141.8120 C   0  0  0  0  0  3  0  0  0  0  0  0
  190.7400  177.2800  142.5400 C   0  0  0  0  0  2  0  0  0  0  0  0
  190.4620  177.7640  145.0640 C   0  0  0  0  0  0  0  0  0  0  0  0
  191.0660  177.4320  146.2810 C   0  0  0  0  0  3  0  0  0  0  0  0
  189.5750  177.6610  139.8640 C   0  0  0  0  0  2  0  0  0  0  0  0
  188.9180  179.3340  138.3130 O   0  0  0  0  0  0  0  0  0  0  0  0
  188.8130  178.1280  138.6630 C   0  0  0  0  0  0  0  0  0  0  0  0
  186.3940  175.3790  136.4180 C   0  0  0  0  0  0  0  0  0  0  0  0
  188.5040  175.9800  137.4330 C   0  0  0  0  0  3  0  0  0  0  0  0
  186.0350  178.6410  138.0130 F   0  0  0  0  0  0  0  0  0  0  0  0
  185.6220  174.4840  135.6900 O   0  0  0  0  0  1  0  0  0  0  0  0
  187.7270  175.0790  136.7010 C   0  0  0  0  0  3  0  0  0  0  0  0
  186.6100  177.4830  137.6030 C   0  0  0  0  0  0  0  0  0  0  0  0
  187.9610  177.1920  137.8910 C   0  0  0  0  0  0  0  0  0  0  0  0
  185.8380  176.5770  136.8680 C   0  0  0  0  0  3  0  0  0  0  0  0
  1 14  1  0  0  0  0
  1  9  1  0  0  0  0
  2  3  1  0  0  0  0
  3 19  2  0  0  0  0
  3  7  1  0  0  0  0
  4 15  1  0  0  0  0
  4 11  1  0  0  0  0
  5  2  1  0  0  0  0
  5 14  2  0  0  0  0
  6  1  2  0  0  0  0
  7  4  2  0  0  0  0
  8 13  1  0  0  0  0
 10 19  1  0  0  0  0
 12  8  2  0  0  0  0
 12 16  1  0  0  0  0
 13 18  1  0  0  0  0
 13  2  2  0  0  0  0
 16  5  1  0  0  0  0
 17 16  2  0  0  0  0
 17  6  1  0  0  0  0
 18 10  1  0  0  0  0
 19 20  1  0  0  0  0
 20 15  2  0  0  0  0
 21  8  1  0  0  0  0
 22 23  2  0  0  0  0
 23 21  1  0  0  0  0
 24 28  2  0  0  0  0
 24 31  1  0  0  0  0
 25 30  2  0  0  0  0
 27 24  1  0  0  0  0
 28 25  1  0  0  0  0
 29 30  1  0  0  0  0
 29 26  1  0  0  0  0
 30 23  1  0  0  0  0
 31 29  2  0  0  0  0
M  END
>  <MODEL>
1

>  <REMARK>
 VINA RESULT:     -10.3      0.000      0.000
  Name = 
  3 active torsions:
  status: ('A' for Active; 'I' for Inactive)
    1  A    between atoms: C_9  and  C_22
    2  A    between atoms: C_9  and  C_23
    3  A    between atoms: C_15  and  C_23
                            x       y       z     vdW  Elec       q    Type
                         _______ _______ _______ _____ _____    ______ ____

>  <TORSDO>
F 3

$$$$
=
 OpenBabel10272400263D

 31 35  0  0  0  0  0  0  0  0999 V2000
  183.9580  178.7030  139.3910 C   0  0  0  0  0  0  0  0  0  0  0  0
  187.6460  178.0720  139.1980 C   0  0  0  0  0  0  0  0  0  0  0  0
  187.9170  177.7870  137.7530 C   0  0  0  0  0  0  0  0  0  0  0  0
  187.5150  178.2430  135.3930 C   0  0  0  0  0  0  0  0  0  0  0  0
  186.3550  178.3840  139.6940 C   0  0  0  0  0  0  0  0  0  0  0  0
  183.8150  178.9900  140.7500 C   0  0  0  0  0  3  0  0  0  0  0  0
  187.1800  178.4180  136.7370 C   0  0  0  0  0  3  0  0  0  0  0  0
  188.5070  178.3100  141.4710 C   0  0  0  0  0  0  0  0  0  0  0  0
  182.5590  178.7220  138.3400 Cl  0  0  0  0  0  0  0  0  0  0  0  0
  190.0090  176.1590  138.6340 S   0  0  0  0  0  0  0  0  0  0  0  0
  186.7860  178.8540  134.4290 F   0  0  0  0  0  0  0  0  0  0  0  0
  187.2610  178.6200  141.9070 N   0  0  0  0  0  0  0  0  0  0  0  0
  188.7260  178.0210  140.1140 C   0  0  0  0  0  0  0  0  0  0  0  0
  185.2170  178.3990  138.8690 C   0  0  0  0  0  3  0  0  0  0  0  0
  188.6140  177.4590  135.0440 C   0  0  0  0  0  3  0  0  0  0  0  0
  186.1940  178.6620  141.0720 C   0  0  0  0  0  0  0  0  0  0  0  0
  184.9300  178.9680  141.5880 C   0  0  0  0  0  3  0  0  0  0  0  0
  190.1050  177.6740  139.6270 C   0  0  0  0  0  2  0  0  0  0  0  0
  189.0200  176.9830  137.3850 C   0  0  0  0  0  0  0  0  0  0  0  0
  189.3680  176.8340  136.0400 C   0  0  0  0  0  3  0  0  0  0  0  0
  189.6180  178.2410  142.4740 C   0  0  0  0  0  2  0  0  0  0  0  0
  189.5990  175.9040  142.8950 O   0  0  0  0  0  0  0  0  0  0  0  0
  189.4370  177.0580  143.3750 C   0  0  0  0  0  0  0  0  0  0  0  0
  188.3610  177.5880  147.4990 C   0  0  0  0  0  0  0  0  0  0  0  0
  187.7540  177.5060  145.1600 C   0  0  0  0  0  3  0  0  0  0  0  0
  191.3580  176.8890  145.5390 F   0  0  0  0  0  0  0  0  0  0  0  0
  188.0030  177.7630  148.8290 O   0  0  0  0  0  1  0  0  0  0  0  0
  187.3930  177.6820  146.4980 C   0  0  0  0  0  3  0  0  0  0  0  0
  190.0560  177.1390  145.8250 C   0  0  0  0  0  0  0  0  0  0  0  0
  189.0860  177.2360  144.8040 C   0  0  0  0  0  0  0  0  0  0  0  0
  189.6880  177.3180  147.1620 C   0  0  0  0  0  3  0  0  0  0  0  0
  1  6  1  0  0  0  0
  2  5  2  0  0  0  0
  2 13  1  0  0  0  0
  3  2  1  0  0  0  0
  4  7  1  0  0  0  0
  5 16  1  0  0  0  0
  6 17  2  0  0  0  0
  7  3  2  0  0  0  0
  8 12  1  0  0  0  0
  8 21  1  0  0  0  0
  9  1  1  0  0  0  0
 10 18  1  0  0  0  0
 11  4  1  0  0  0  0
 13  8  2  0  0  0  0
 14  1  2  0  0  0  0
 14  5  1  0  0  0  0
 15  4  2  0  0  0  0
 15 20  1  0  0  0  0
 16 17  1  0  0  0  0
 16 12  2  0  0  0  0
 18 13  1  0  0  0  0
 19  3  1  0  0  0  0
 19 10  1  0  0  0  0
 20 19  2  0  0  0  0
 21 23  1  0  0  0  0
 22 23  2  0  0  0  0
 23 30  1  0  0  0  0
 24 27  1  0  0  0  0
 25 28  1  0  0  0  0
 26 29  1  0  0  0  0
 28 24  2  0  0  0  0
 29 31  2  0  0  0  0
 30 25  2  0  0  0  0
 30 29  1  0  0  0  0
 31 24  1  0  0  0  0
M  END
>  <MODEL>
2

>  <REMARK>
 VINA RESULT:      -9.7      3.216      7.813
  Name = 
  3 active torsions:
  status: ('A' for Active; 'I' for Inactive)
    1  A    between atoms: C_9  and  C_22
    2  A    between atoms: C_9  and  C_23
    3  A    between atoms: C_15  and  C_23
                            x       y       z     vdW  Elec       q    Type
                         _______ _______ _______ _____ _____    ______ ____

>  <TORSDO>
F 3

$$$$
=
 OpenBabel10272400263D

 31 35  0  0  0  0  0  0  0  0999 V2000
  184.7740  178.7440  143.8800 C   0  0  0  0  0  0  0  0  0  0  0  0
  188.3690  177.9610  143.1740 C   0  0  0  0  0  0  0  0  0  0  0  0
  188.9820  177.6990  144.5160 C   0  0  0  0  0  0  0  0  0  0  0  0
  188.8480  176.7460  146.7550 C   0  0  0  0  0  0  0  0  0  0  0  0
  186.9980  178.2790  143.0000 C   0  0  0  0  0  0  0  0  0  0  0  0
  184.2910  178.9330  142.5840 C   0  0  0  0  0  3  0  0  0  0  0  0
  188.2410  177.0990  145.5480 C   0  0  0  0  0  3  0  0  0  0  0  0
  188.6460  178.1100  140.7520 C   0  0  0  0  0  0  0  0  0  0  0  0
  183.6970  178.9090  145.2500 Cl  0  0  0  0  0  0  0  0  0  0  0  0
  191.3670  178.6750  143.4380 S   0  0  0  0  0  0  0  0  0  0  0  0
  188.1140  176.1760  147.7400 F   0  0  0  0  0  0  0  0  0  0  0  0
  187.3260  178.3970  140.6230 N   0  0  0  0  0  0  0  0  0  0  0  0
  189.1980  177.8960  142.0270 C   0  0  0  0  0  0  0  0  0  0  0  0
  186.1170  178.4230  144.0860 C   0  0  0  0  0  3  0  0  0  0  0  0
  190.2140  176.9590  146.9380 C   0  0  0  0  0  3  0  0  0  0  0  0
  186.4990  178.4880  141.6930 C   0  0  0  0  0  0  0  0  0  0  0  0
  185.1520  178.8080  141.4940 C   0  0  0  0  0  3  0  0  0  0  0  0
  190.6600  177.5820  142.1740 C   0  0  0  0  0  2  0  0  0  0  0  0
  190.3630  177.9230  144.7190 C   0  0  0  0  0  0  0  0  0  0  0  0
  190.9710  177.5420  145.9190 C   0  0  0  0  0  3  0  0  0  0  0  0
  189.4940  178.0760  139.5170 C   0  0  0  0  0  2  0  0  0  0  0  0
  187.9440  176.6620  138.4050 O   0  0  0  0  0  0  0  0  0  0  0  0
  189.1540  176.8800  138.6820 C   0  0  0  0  0  0  0  0  0  0  0  0
  192.2750  174.3010  137.2480 C   0  0  0  0  0  0  0  0  0  0  0  0
  191.5630  176.2810  138.4370 C   0  0  0  0  0  3  0  0  0  0  0  0
  188.6310  174.4680  137.1620 F   0  0  0  0  0  0  0  0  0  0  0  0
  193.2910  173.4750  136.7870 O   0  0  0  0  0  1  0  0  0  0  0  0
  192.5860  175.4510  137.9740 C   0  0  0  0  0  3  0  0  0  0  0  0
  189.9120  174.8080  137.4470 C   0  0  0  0  0  0  0  0  0  0  0  0
  190.2160  175.9760  138.1800 C   0  0  0  0  0  0  0  0  0  0  0  0
  190.9410  173.9810  136.9860 C   0  0  0  0  0  3  0  0  0  0  0  0
  1 14  1  0  0  0  0
  1  9  1  0  0  0  0
  2  3  1  0  0  0  0
  3 19  2  0  0  0  0
  3  7  1  0  0  0  0
  4 15  1  0  0  0  0
  4 11  1  0  0  0  0
  5  2  1  0  0  0  0
  5 14  2  0  0  0  0
  6  1  2  0  0  0  0
  7  4  2  0  0  0  0
  8 13  1  0  0  0  0
 10 19  1  0  0  0  0
 12  8  2  0  0  0  0
 12 16  1  0  0  0  0
 13 18  1  0  0  0  0
 13  2  2  0  0  0  0
 16  5  1  0  0  0  0
 17 16  2  0  0  0  0
 17  6  1  0  0  0  0
 18 10  1  0  0  0  0
 19 20  1  0  0  0  0
 20 15  2  0  0  0  0
 21  8  1  0  0  0  0
 22 23  2  0  0  0  0
 23 21  1  0  0  0  0
 24 28  1  0  0  0  0
 26 29  1  0  0  0  0
 27 24  1  0  0  0  0
 28 25  2  0  0  0  0
 29 30  2  0  0  0  0
 30 25  1  0  0  0  0
 30 23  1  0  0  0  0
 31 24  2  0  0  0  0
 31 29  1  0  0  0  0
M  END
>  <MODEL>
3

>  <REMARK>
 VINA RESULT:      -9.2      2.223      2.719
  Name = 
  3 active torsions:
  status: ('A' for Active; 'I' for Inactive)
    1  A    between atoms: C_9  and  C_22
    2  A    between atoms: C_9  and  C_23
    3  A    between atoms: C_15  and  C_23
                            x       y       z     vdW  Elec       q    Type
                         _______ _______ _______ _____ _____    ______ ____

>  <TORSDO>
F 3

$$$$
=
 OpenBabel10272400263D

 31 35  0  0  0  0  0  0  0  0999 V2000
  190.6980  177.3030  139.4240 C   0  0  0  0  0  0  0  0  0  0  0  0
  188.2270  178.0210  142.1460 C   0  0  0  0  0  0  0  0  0  0  0  0
  188.9630  177.7490  143.4230 C   0  0  0  0  0  0  0  0  0  0  0  0
  190.9980  177.8610  144.7570 C   0  0  0  0  0  0  0  0  0  0  0  0
  188.8230  177.8850  140.8670 C   0  0  0  0  0  0  0  0  0  0  0  0
  189.9390  177.6170  138.2950 C   0  0  0  0  0  3  0  0  0  0  0  0
  190.3400  178.0010  143.5340 C   0  0  0  0  0  3  0  0  0  0  0  0
  186.1620  178.7140  141.0400 C   0  0  0  0  0  0  0  0  0  0  0  0
  192.3470  176.7450  139.2430 Cl  0  0  0  0  0  0  0  0  0  0  0  0
  186.4880  177.0450  144.5110 S   0  0  0  0  0  0  0  0  0  0  0  0
  192.3290  178.1000  144.8410 F   0  0  0  0  0  0  0  0  0  0  0  0
  186.7700  178.5870  139.8340 N   0  0  0  0  0  0  0  0  0  0  0  0
  186.8710  178.4250  142.2190 C   0  0  0  0  0  0  0  0  0  0  0  0
  190.1430  177.4330  140.6980 C   0  0  0  0  0  3  0  0  0  0  0  0
  190.2820  177.4990  145.8980 C   0  0  0  0  0  3  0  0  0  0  0  0
  188.0600  178.1860  139.7150 C   0  0  0  0  0  0  0  0  0  0  0  0
  188.6220  178.0550  138.4410 C   0  0  0  0  0  3  0  0  0  0  0  0
  186.1990  178.5600  143.5570 C   0  0  0  0  0  2  0  0  0  0  0  0
  188.2510  177.3690  144.5830 C   0  0  0  0  0  0  0  0  0  0  0  0
  188.9090  177.2580  145.8110 C   0  0  0  0  0  3  0  0  0  0  0  0
  184.7200  179.1180  141.0740 C   0  0  0  0  0  2  0  0  0  0  0  0
  184.0850  180.1440  139.0290 O   0  0  0  0  0  0  0  0  0  0  0  0
  184.1320  179.0760  139.6970 C   0  0  0  0  0  0  0  0  0  0  0  0
  182.6330  175.3880  138.0870 C   0  0  0  0  0  0  0  0  0  0  0  0
  182.6580  177.0690  139.8230 C   0  0  0  0  0  3  0  0  0  0  0  0
  185.0330  177.9790  137.1700 F   0  0  0  0  0  0  0  0  0  0  0  0
  182.1440  174.1930  137.5760 O   0  0  0  0  0  1  0  0  0  0  0  0
  182.1640  175.8680  139.3100 C   0  0  0  0  0  3  0  0  0  0  0  0
  184.0920  177.3140  137.8850 C   0  0  0  0  0  0  0  0  0  0  0  0
  183.6270  177.8070  139.1240 C   0  0  0  0  0  0  0  0  0  0  0  0
  183.5950  176.1100  137.3770 C   0  0  0  0  0  3  0  0  0  0  0  0
  1 14  1  0  0  0  0
  2 13  2  0  0  0  0
  2  3  1  0  0  0  0
  3  7  2  0  0  0  0
  3 19  1  0  0  0  0
  4 11  1  0  0  0  0
  4 15  2  0  0  0  0
  5  2  1  0  0  0  0
  6 17  1  0  0  0  0
  6  1  2  0  0  0  0
  7  4  1  0  0  0  0
  8 21  1  0  0  0  0
  8 13  1  0  0  0  0
  9  1  1  0  0  0  0
 10 19  1  0  0  0  0
 12  8  2  0  0  0  0
 13 18  1  0  0  0  0
 14  5  2  0  0  0  0
 16 12  1  0  0  0  0
 16  5  1  0  0  0  0
 17 16  2  0  0  0  0
 18 10  1  0  0  0  0
 19 20  2  0  0  0  0
 20 15  1  0  0  0  0
 22 23  2  0  0  0  0
 23 21  1  0  0  0  0
 24 28  1  0  0  0  0
 26 29  1  0  0  0  0
 27 24  1  0  0  0  0
 28 25  2  0  0  0  0
 29 30  2  0  0  0  0
 30 23  1  0  0  0  0
 30 25  1  0  0  0  0
 31 29  1  0  0  0  0
 31 24  2  0  0  0  0
M  END
>  <MODEL>
4

>  <REMARK>
 VINA RESULT:      -9.1      3.157      4.608
  Name = 
  3 active torsions:
  status: ('A' for Active; 'I' for Inactive)
    1  A    between atoms: C_9  and  C_22
    2  A    between atoms: C_9  and  C_23
    3  A    between atoms: C_15  and  C_23
                            x       y       z     vdW  Elec       q    Type
                         _______ _______ _______ _____ _____    ______ ____

>  <TORSDO>
F 3

$$$$
=
 OpenBabel10272400263D

 31 35  0  0  0  0  0  0  0  0999 V2000
  189.9590  176.8720  144.6630 C   0  0  0  0  0  0  0  0  0  0  0  0
  187.0150  178.1450  142.7290 C   0  0  0  0  0  0  0  0  0  0  0  0
  185.9510  178.3900  143.7550 C   0  0  0  0  0  0  0  0  0  0  0  0
  185.2800  179.1650  145.9650 C   0  0  0  0  0  0  0  0  0  0  0  0
  188.3100  177.6710  143.0580 C   0  0  0  0  0  0  0  0  0  0  0  0
  190.8930  176.7120  143.6380 C   0  0  0  0  0  3  0  0  0  0  0  0
  186.2780  178.8220  145.0510 C   0  0  0  0  0  3  0  0  0  0  0  0
  187.6990  178.1970  140.3840 C   0  0  0  0  0  0  0  0  0  0  0  0
  190.3940  176.4800  146.3130 Cl  0  0  0  0  0  0  0  0  0  0  0  0
  184.1040  177.7970  141.7450 S   0  0  0  0  0  0  0  0  0  0  0  0
  185.6170  179.5700  147.2130 F   0  0  0  0  0  0  0  0  0  0  0  0
  188.9320  177.7570  140.7380 N   0  0  0  0  0  0  0  0  0  0  0  0
  186.7130  178.3920  141.3660 C   0  0  0  0  0  0  0  0  0  0  0  0
  188.6780  177.3440  144.3740 C   0  0  0  0  0  3  0  0  0  0  0  0
  183.9390  179.1130  145.5870 C   0  0  0  0  0  3  0  0  0  0  0  0
  189.2610  177.4900  142.0260 C   0  0  0  0  0  0  0  0  0  0  0  0
  190.5440  177.0190  142.3230 C   0  0  0  0  0  3  0  0  0  0  0  0
  185.3440  178.8760  140.9780 C   0  0  0  0  0  2  0  0  0  0  0  0
  184.5870  178.3280  143.3880 C   0  0  0  0  0  0  0  0  0  0  0  0
  183.5940  178.7000  144.2980 C   0  0  0  0  0  3  0  0  0  0  0  0
  187.4100  178.4210  138.9310 C   0  0  0  0  0  2  0  0  0  0  0  0
  189.1470  179.5080  137.7320 O   0  0  0  0  0  0  0  0  0  0  0  0
  188.6800  178.4100  138.1370 C   0  0  0  0  0  0  0  0  0  0  0  0
  190.7680  174.7510  137.3050 C   0  0  0  0  0  0  0  0  0  0  0  0
  190.7410  177.0060  138.1740 C   0  0  0  0  0  3  0  0  0  0  0  0
  187.4120  176.1210  136.8890 F   0  0  0  0  0  0  0  0  0  0  0  0
  191.4530  173.5730  137.0380 O   0  0  0  0  0  1  0  0  0  0  0  0
  191.4300  175.8210  137.9070 C   0  0  0  0  0  3  0  0  0  0  0  0
  188.7210  176.0480  137.2380 C   0  0  0  0  0  0  0  0  0  0  0  0
  189.3820  177.1380  137.8430 C   0  0  0  0  0  0  0  0  0  0  0  0
  189.4180  174.8650  136.9720 C   0  0  0  0  0  3  0  0  0  0  0  0
  1  9  1  0  0  0  0
  2  5  1  0  0  0  0
  2  3  1  0  0  0  0
  3  7  1  0  0  0  0
  4 11  1  0  0  0  0
  5 14  2  0  0  0  0
  6  1  2  0  0  0  0
  7  4  2  0  0  0  0
  8 12  2  0  0  0  0
  8 13  1  0  0  0  0
 10 19  1  0  0  0  0
 12 16  1  0  0  0  0
 13  2  2  0  0  0  0
 14  1  1  0  0  0  0
 15  4  1  0  0  0  0
 16 17  2  0  0  0  0
 16  5  1  0  0  0  0
 17  6  1  0  0  0  0
 18 13  1  0  0  0  0
 18 10  1  0  0  0  0
 19  3  2  0  0  0  0
 19 20  1  0  0  0  0
 20 15  2  0  0  0  0
 21  8  1  0  0  0  0
 22 23  2  0  0  0  0
 23 21  1  0  0  0  0
 24 28  1  0  0  0  0
 26 29  1  0  0  0  0
 27 24  1  0  0  0  0
 28 25  2  0  0  0  0
 29 30  2  0  0  0  0
 30 23  1  0  0  0  0
 30 25  1  0  0  0  0
 31 29  1  0  0  0  0
 31 24  2  0  0  0  0
M  END
>  <MODEL>
5

>  <REMARK>
 VINA RESULT:      -9.0      2.735      4.428
  Name = 
  3 active torsions:
  status: ('A' for Active; 'I' for Inactive)
    1  A    between atoms: C_9  and  C_22
    2  A    between atoms: C_9  and  C_23
    3  A    between atoms: C_15  and  C_23
                            x       y       z     vdW  Elec       q    Type
                         _______ _______ _______ _____ _____    ______ ____

>  <TORSDO>
F 3

$$$$
=
 OpenBabel10272400263D

 31 35  0  0  0  0  0  0  0  0999 V2000
  188.3010  177.2790  145.4740 C   0  0  0  0  0  0  0  0  0  0  0  0
  186.5070  178.2800  142.3410 C   0  0  0  0  0  0  0  0  0  0  0  0
  185.0700  178.4170  142.7410 C   0  0  0  0  0  0  0  0  0  0  0  0
  183.3780  179.1110  144.3510 C   0  0  0  0  0  0  0  0  0  0  0  0
  187.5330  177.9280  143.2550 C   0  0  0  0  0  0  0  0  0  0  0  0
  189.6160  177.2150  145.0110 C   0  0  0  0  0  3  0  0  0  0  0  0
  184.7130  178.8690  144.0220 C   0  0  0  0  0  3  0  0  0  0  0  0
  188.2020  178.4110  140.5870 C   0  0  0  0  0  0  0  0  0  0  0  0
  187.9440  176.9210  147.1500 Cl  0  0  0  0  0  0  0  0  0  0  0  0
  184.4380  177.6630  140.1270 S   0  0  0  0  0  0  0  0  0  0  0  0
  183.0540  179.5380  145.5950 F   0  0  0  0  0  0  0  0  0  0  0  0
  189.1590  178.0870  141.4920 N   0  0  0  0  0  0  0  0  0  0  0  0
  186.8580  178.5050  140.9870 C   0  0  0  0  0  0  0  0  0  0  0  0
  187.2680  177.6300  144.6030 C   0  0  0  0  0  3  0  0  0  0  0  0
  182.3800  178.9340  143.3930 C   0  0  0  0  0  3  0  0  0  0  0  0
  188.8680  177.8450  142.7940 C   0  0  0  0  0  0  0  0  0  0  0  0
  189.8980  177.4950  143.6730 C   0  0  0  0  0  3  0  0  0  0  0  0
  185.7940  178.8600  139.9860 C   0  0  0  0  0  2  0  0  0  0  0  0
  184.0480  178.2280  141.7840 C   0  0  0  0  0  0  0  0  0  0  0  0
  182.7160  178.4980  142.1100 C   0  0  0  0  0  3  0  0  0  0  0  0
  188.6090  178.6150  139.1590 C   0  0  0  0  0  2  0  0  0  0  0  0
  187.9370  176.5350  138.2330 O   0  0  0  0  0  0  0  0  0  0  0  0
  188.9010  177.3000  138.5050 C   0  0  0  0  0  0  0  0  0  0  0  0
  192.9450  176.1770  137.5980 C   0  0  0  0  0  0  0  0  0  0  0  0
  191.2710  176.9120  139.1780 C   0  0  0  0  0  3  0  0  0  0  0  0
  189.7580  176.5090  135.8520 F   0  0  0  0  0  0  0  0  0  0  0  0
  194.2560  175.8180  137.3140 O   0  0  0  0  0  1  0  0  0  0  0  0
  192.5900  176.5500  138.8940 C   0  0  0  0  0  3  0  0  0  0  0  0
  190.6610  176.5240  136.8640 C   0  0  0  0  0  0  0  0  0  0  0  0
  190.2910  176.9080  138.1720 C   0  0  0  0  0  0  0  0  0  0  0  0
  191.9830  176.1640  136.5860 C   0  0  0  0  0  3  0  0  0  0  0  0
  1  9  1  0  0  0  0
  2  3  1  0  0  0  0
  2  5  1  0  0  0  0
  3  7  1  0  0  0  0
  4 11  1  0  0  0  0
  5 14  1  0  0  0  0
  6  1  1  0  0  0  0
  7  4  2  0  0  0  0
  8 13  1  0  0  0  0
  8 12  2  0  0  0  0
 10 19  1  0  0  0  0
 12 16  1  0  0  0  0
 13  2  2  0  0  0  0
 14  1  2  0  0  0  0
 15  4  1  0  0  0  0
 16  5  2  0  0  0  0
 16 17  1  0  0  0  0
 17  6  2  0  0  0  0
 18 10  1  0  0  0  0
 18 13  1  0  0  0  0
 19 20  1  0  0  0  0
 19  3  2  0  0  0  0
 20 15  2  0  0  0  0
 21  8  1  0  0  0  0
 22 23  2  0  0  0  0
 23 21  1  0  0  0  0
 24 28  1  0  0  0  0
 26 29  1  0  0  0  0
 27 24  1  0  0  0  0
 28 25  2  0  0  0  0
 29 30  2  0  0  0  0
 30 23  1  0  0  0  0
 30 25  1  0  0  0  0
 31 29  1  0  0  0  0
 31 24  2  0  0  0  0
M  END
>  <MODEL>
6

>  <REMARK>
 VINA RESULT:      -9.0      3.051      5.195
  Name = 
  3 active torsions:
  status: ('A' for Active; 'I' for Inactive)
    1  A    between atoms: C_9  and  C_22
    2  A    between atoms: C_9  and  C_23
    3  A    between atoms: C_15  and  C_23
                            x       y       z     vdW  Elec       q    Type
                         _______ _______ _______ _____ _____    ______ ____

>  <TORSDO>
F 3

$$$$
=
 OpenBabel10272400263D

 31 35  0  0  0  0  0  0  0  0999 V2000
  190.0520  176.7060  145.3670 C   0  0  0  0  0  0  0  0  0  0  0  0
  187.4660  178.1110  143.0490 C   0  0  0  0  0  0  0  0  0  0  0  0
  186.2390  178.2840  143.8920 C   0  0  0  0  0  0  0  0  0  0  0  0
  185.1920  178.9010  146.0030 C   0  0  0  0  0  0  0  0  0  0  0  0
  188.6910  177.6150  143.5620 C   0  0  0  0  0  0  0  0  0  0  0  0
  191.1490  176.6180  144.5080 C   0  0  0  0  0  3  0  0  0  0  0  0
  186.3350  178.6230  145.2520 C   0  0  0  0  0  3  0  0  0  0  0  0
  188.5400  178.3280  140.8650 C   0  0  0  0  0  0  0  0  0  0  0  0
  190.2030  176.1990  147.0350 Cl  0  0  0  0  0  0  0  0  0  0  0  0
  184.7700  177.8330  141.5600 S   0  0  0  0  0  0  0  0  0  0  0  0
  185.3050  179.2180  147.3150 F   0  0  0  0  0  0  0  0  0  0  0  0
  189.7000  177.8630  141.3940 N   0  0  0  0  0  0  0  0  0  0  0  0
  187.3980  178.4530  141.6750 C   0  0  0  0  0  0  0  0  0  0  0  0
  188.8330  177.1970  144.8960 C   0  0  0  0  0  3  0  0  0  0  0  0
  183.9350  178.8760  145.3980 C   0  0  0  0  0  3  0  0  0  0  0  0
  189.8070  177.5070  142.6980 C   0  0  0  0  0  0  0  0  0  0  0  0
  191.0260  177.0160  143.1770 C   0  0  0  0  0  3  0  0  0  0  0  0
  186.1100  178.9630  141.0930 C   0  0  0  0  0  2  0  0  0  0  0  0
  184.9590  178.2480  143.2940 C   0  0  0  0  0  0  0  0  0  0  0  0
  183.8210  178.5540  144.0440 C   0  0  0  0  0  3  0  0  0  0  0  0
  188.5000  178.6530  139.4040 C   0  0  0  0  0  2  0  0  0  0  0  0
  189.0500  176.4010  138.8890 O   0  0  0  0  0  0  0  0  0  0  0  0
  188.3450  177.4030  138.5940 C   0  0  0  0  0  0  0  0  0  0  0  0
  185.4850  177.2110  135.3960 C   0  0  0  0  0  0  0  0  0  0  0  0
  185.9990  177.4150  137.7490 C   0  0  0  0  0  3  0  0  0  0  0  0
  189.1080  177.1070  135.8130 F   0  0  0  0  0  0  0  0  0  0  0  0
  184.5520  177.1480  134.3690 O   0  0  0  0  0  1  0  0  0  0  0  0
  185.0600  177.3530  136.7170 C   0  0  0  0  0  3  0  0  0  0  0  0
  187.7940  177.1970  136.1350 C   0  0  0  0  0  0  0  0  0  0  0  0
  187.3740  177.3360  137.4760 C   0  0  0  0  0  0  0  0  0  0  0  0
  186.8490  177.1330  135.1070 C   0  0  0  0  0  3  0  0  0  0  0  0
  1  9  1  0  0  0  0
  2  5  1  0  0  0  0
  2  3  1  0  0  0  0
  3  7  1  0  0  0  0
  4 11  1  0  0  0  0
  5 14  2  0  0  0  0
  6  1  2  0  0  0  0
  7  4  2  0  0  0  0
  8 12  2  0  0  0  0
  8 13  1  0  0  0  0
 10 19  1  0  0  0  0
 12 16  1  0  0  0  0
 13  2  2  0  0  0  0
 14  1  1  0  0  0  0
 15  4  1  0  0  0  0
 16 17  2  0  0  0  0
 16  5  1  0  0  0  0
 17  6  1  0  0  0  0
 18 10  1  0  0  0  0
 18 13  1  0  0  0  0
 19  3  2  0  0  0  0
 19 20  1  0  0  0  0
 20 15  2  0  0  0  0
 21  8  1  0  0  0  0
 23 22  2  0  0  0  0
 23 21  1  0  0  0  0
 24 28  1  0  0  0  0
 26 29  1  0  0  0  0
 27 24  1  0  0  0  0
 28 25  2  0  0  0  0
 29 30  2  0  0  0  0
 30 25  1  0  0  0  0
 30 23  1  0  0  0  0
 31 24  2  0  0  0  0
 31 29  1  0  0  0  0
M  END
>  <MODEL>
7

>  <REMARK>
 VINA RESULT:      -8.8      2.523      4.218
  Name = 
  3 active torsions:
  status: ('A' for Active; 'I' for Inactive)
    1  A    between atoms: C_9  and  C_22
    2  A    between atoms: C_9  and  C_23
    3  A    between atoms: C_15  and  C_23
                            x       y       z     vdW  Elec       q    Type
                         _______ _______ _______ _____ _____    ______ ____

>  <TORSDO>
F 3

$$$$
=
 OpenBabel10272400263D

 31 35  0  0  0  0  0  0  0  0999 V2000
  185.1730  176.8150  136.2540 C   0  0  0  0  0  0  0  0  0  0  0  0
  187.3490  177.7860  139.1450 C   0  0  0  0  0  0  0  0  0  0  0  0
  188.7200  177.3010  138.7820 C   0  0  0  0  0  0  0  0  0  0  0  0
  190.4720  176.9530  137.1250 C   0  0  0  0  0  0  0  0  0  0  0  0
  186.2250  177.6300  138.2950 C   0  0  0  0  0  0  0  0  0  0  0  0
  183.9460  177.3360  136.6670 C   0  0  0  0  0  3  0  0  0  0  0  0
  189.1560  177.2910  137.4460 C   0  0  0  0  0  3  0  0  0  0  0  0
  185.8980  178.9150  140.7540 C   0  0  0  0  0  0  0  0  0  0  0  0
  185.2990  175.9810  134.7210 Cl  0  0  0  0  0  0  0  0  0  0  0  0
  189.1580  176.9860  141.5220 S   0  0  0  0  0  0  0  0  0  0  0  0
  190.8690  176.9400  135.8300 F   0  0  0  0  0  0  0  0  0  0  0  0
  184.8480  178.7610  139.9090 N   0  0  0  0  0  0  0  0  0  0  0  0
  187.1660  178.4250  140.3970 C   0  0  0  0  0  0  0  0  0  0  0  0
  186.3020  176.9580  137.0630 C   0  0  0  0  0  3  0  0  0  0  0  0
  191.3820  176.6510  138.1370 C   0  0  0  0  0  3  0  0  0  0  0  0
  184.9720  178.1410  138.7090 C   0  0  0  0  0  0  0  0  0  0  0  0
  183.8460  177.9960  137.8930 C   0  0  0  0  0  3  0  0  0  0  0  0
  188.3310  178.5900  141.3320 C   0  0  0  0  0  2  0  0  0  0  0  0
  189.6480  176.9800  139.7970 C   0  0  0  0  0  0  0  0  0  0  0  0
  190.9720  176.6700  139.4720 C   0  0  0  0  0  3  0  0  0  0  0  0
  185.6590  179.5710  142.0790 C   0  0  0  0  0  2  0  0  0  0  0  0
  184.0510  177.9350  142.6930 O   0  0  0  0  0  0  0  0  0  0  0  0
  185.0660  178.5940  143.0470 C   0  0  0  0  0  0  0  0  0  0  0  0
  186.8470  177.9860  146.9070 C   0  0  0  0  0  0  0  0  0  0  0  0
  186.9520  177.8470  144.4960 C   0  0  0  0  0  3  0  0  0  0  0  0
  183.7210  179.2640  145.5260 F   0  0  0  0  0  0  0  0  0  0  0  0
  187.4310  177.7830  148.1500 O   0  0  0  0  0  1  0  0  0  0  0  0
  187.5410  177.6430  145.7460 C   0  0  0  0  0  3  0  0  0  0  0  0
  184.9710  178.7400  145.5690 C   0  0  0  0  0  0  0  0  0  0  0  0
  185.6630  178.3930  144.3880 C   0  0  0  0  0  0  0  0  0  0  0  0
  185.5660  178.5330  146.8170 C   0  0  0  0  0  3  0  0  0  0  0  0
  1  6  2  0  0  0  0
  1 14  1  0  0  0  0
  2 13  2  0  0  0  0
  3  2  1  0  0  0  0
  3 19  1  0  0  0  0
  4  7  1  0  0  0  0
  4 15  2  0  0  0  0
  5 16  1  0  0  0  0
  5  2  1  0  0  0  0
  6 17  1  0  0  0  0
  7  3  2  0  0  0  0
  8 21  1  0  0  0  0
  9  1  1  0  0  0  0
 11  4  1  0  0  0  0
 12  8  2  0  0  0  0
 13  8  1  0  0  0  0
 13 18  1  0  0  0  0
 14  5  2  0  0  0  0
 15 20  1  0  0  0  0
 16 12  1  0  0  0  0
 17 16  2  0  0  0  0
 18 10  1  0  0  0  0
 19 10  1  0  0  0  0
 20 19  2  0  0  0  0
 21 23  1  0  0  0  0
 22 23  2  0  0  0  0
 23 30  1  0  0  0  0
 24 27  1  0  0  0  0
 25 28  1  0  0  0  0
 26 29  1  0  0  0  0
 28 24  2  0  0  0  0
 29 31  2  0  0  0  0
 30 25  2  0  0  0  0
 30 29  1  0  0  0  0
 31 24  1  0  0  0  0
M  END
>  <MODEL>
8

>  <REMARK>
 VINA RESULT:      -8.8      3.688      7.553
  Name = 
  3 active torsions:
  status: ('A' for Active; 'I' for Inactive)
    1  A    between atoms: C_9  and  C_22
    2  A    between atoms: C_9  and  C_23
    3  A    between atoms: C_15  and  C_23
                            x       y       z     vdW  Elec       q    Type
                         _______ _______ _______ _____ _____    ______ ____

>  <TORSDO>
F 3

$$$$
=
 OpenBabel10272400263D

 31 35  0  0  0  0  0  0  0  0999 V2000
  189.6490  176.9910  143.2670 C   0  0  0  0  0  0  0  0  0  0  0  0
  186.4960  178.2580  141.6910 C   0  0  0  0  0  0  0  0  0  0  0  0
  185.5430  178.4560  142.8300 C   0  0  0  0  0  0  0  0  0  0  0  0
  185.0980  179.1590  145.1210 C   0  0  0  0  0  0  0  0  0  0  0  0
  187.8260  177.8000  141.8680 C   0  0  0  0  0  0  0  0  0  0  0  0
  190.4720  176.8760  142.1450 C   0  0  0  0  0  3  0  0  0  0  0  0
  185.9980  178.8590  144.0970 C   0  0  0  0  0  3  0  0  0  0  0  0
  186.9260  178.3860  139.2900 C   0  0  0  0  0  0  0  0  0  0  0  0
  190.2620  176.5640  144.8500 Cl  0  0  0  0  0  0  0  0  0  0  0  0
  183.5030  177.8810  141.0110 S   0  0  0  0  0  0  0  0  0  0  0  0
  185.5580  179.5370  146.3370 F   0  0  0  0  0  0  0  0  0  0  0  0
  188.1970  177.9600  139.4990 N   0  0  0  0  0  0  0  0  0  0  0  0
  186.0470  178.5350  140.3760 C   0  0  0  0  0  0  0  0  0  0  0  0
  188.3370  177.4460  143.1290 C   0  0  0  0  0  3  0  0  0  0  0  0
  183.7250  179.0910  144.8850 C   0  0  0  0  0  3  0  0  0  0  0  0
  188.6650  177.6650  140.7370 C   0  0  0  0  0  0  0  0  0  0  0  0
  189.9800  177.2100  140.8830 C   0  0  0  0  0  3  0  0  0  0  0  0
  184.6370  179.0040  140.1480 C   0  0  0  0  0  2  0  0  0  0  0  0
  184.1490  178.3780  142.6090 C   0  0  0  0  0  0  0  0  0  0  0  0
  183.2520  178.7060  143.6290 C   0  0  0  0  0  3  0  0  0  0  0  0
  186.4810  178.6430  137.8830 C   0  0  0  0  0  2  0  0  0  0  0  0
  187.7750  177.6970  136.1310 O   0  0  0  0  0  0  0  0  0  0  0  0
  186.8770  177.5050  136.9930 C   0  0  0  0  0  0  0  0  0  0  0  0
  184.9660  173.6790  137.3920 C   0  0  0  0  0  0  0  0  0  0  0  0
  184.8380  176.0870  137.2280 C   0  0  0  0  0  3  0  0  0  0  0  0
  188.3490  175.0090  137.0760 F   0  0  0  0  0  0  0  0  0  0  0  0
  184.3390  172.4470  137.5230 O   0  0  0  0  0  1  0  0  0  0  0  0
  184.2060  174.8480  137.3590 C   0  0  0  0  0  3  0  0  0  0  0  0
  186.9960  174.9850  137.1590 C   0  0  0  0  0  0  0  0  0  0  0  0
  186.2370  176.1750  137.1290 C   0  0  0  0  0  0  0  0  0  0  0  0
  186.3570  173.7480  137.2920 C   0  0  0  0  0  3  0  0  0  0  0  0
  1  9  1  0  0  0  0
  2  5  1  0  0  0  0
  2  3  1  0  0  0  0
  3  7  1  0  0  0  0
  4 11  1  0  0  0  0
  5 14  2  0  0  0  0
  6  1  2  0  0  0  0
  7  4  2  0  0  0  0
  8 12  2  0  0  0  0
  8 13  1  0  0  0  0
 10 19  1  0  0  0  0
 12 16  1  0  0  0  0
 13  2  2  0  0  0  0
 14  1  1  0  0  0  0
 15  4  1  0  0  0  0
 16 17  2  0  0  0  0
 16  5  1  0  0  0  0
 17  6  1  0  0  0  0
 18 13  1  0  0  0  0
 18 10  1  0  0  0  0
 19  3  2  0  0  0  0
 19 20  1  0  0  0  0
 20 15  2  0  0  0  0
 21  8  1  0  0  0  0
 22 23  2  0  0  0  0
 23 30  1  0  0  0  0
 23 21  1  0  0  0  0
 24 27  1  0  0  0  0
 25 28  2  0  0  0  0
 26 29  1  0  0  0  0
 28 24  1  0  0  0  0
 29 31  1  0  0  0  0
 30 29  2  0  0  0  0
 30 25  1  0  0  0  0
 31 24  2  0  0  0  0
M  END
>  <MODEL>
9

>  <REMARK>
 VINA RESULT:      -8.7      2.901      4.620
  Name = 
  3 active torsions:
  status: ('A' for Active; 'I' for Inactive)
    1  A    between atoms: C_9  and  C_22
    2  A    between atoms: C_9  and  C_23
    3  A    between atoms: C_15  and  C_23
                            x       y       z     vdW  Elec       q    Type
                         _______ _______ _______ _____ _____    ______ ____

>  <TORSDO>
F 3

$$$$
