=
 OpenBabel10272413173D

 32 34  0  0  1  0  0  0  0  0999 V2000
  190.0680  177.6490  142.1930 N   0  0  0  0  0  0  0  0  0  0  0  0
  189.4920  177.7200  143.3620 C   0  0  0  0  0  0  0  0  0  0  0  0
  190.2490  177.6600  144.5820 N   0  0  0  0  0  2  0  0  0  0  0  0
  191.3520  175.6390  144.1760 O   0  0  0  0  0  0  0  0  0  0  0  0
  191.2260  176.6610  144.9020 C   0  0  0  0  0  0  0  0  0  0  0  0
  188.0400  177.9740  143.4360 C   0  0  0  0  0  0  0  0  0  0  0  0
  187.2830  178.0820  142.2590 C   0  0  0  0  0  3  0  0  0  0  0  0
  184.0080  178.6750  146.0410 C   0  0  0  0  0  3  0  0  0  0  0  0
  187.3990  178.1010  144.6790 C   0  0  0  0  0  3  0  0  0  0  0  0
  183.8910  178.6580  143.6190 C   0  0  0  0  0  3  0  0  0  0  0  0
  185.2690  178.4330  143.5530 C   0  0  0  0  0  0  0  0  0  0  0  0
  185.9050  178.3100  142.3170 C   0  0  0  0  0  3  0  0  0  0  0  0
  186.0230  178.3280  144.7440 C   0  0  0  0  0  0  0  0  0  0  0  0
  183.2620  178.7800  144.8630 C   0  0  0  0  0  3  0  0  0  0  0  0
  185.3880  178.4500  145.9830 C   0  0  0  0  0  3  0  0  0  0  0  0
  191.5040  177.5340  141.9560 C   0  0  0  0  0  2  0  0  0  0  0  0
  191.7840  177.2330  140.5180 C   0  0  0  0  0  0  0  0  0  0  0  0
  192.8850  177.4810  140.0540 O   0  0  0  0  0  0  0  0  0  0  0  0
  190.7380  176.5940  139.6590 C   0  0  0  0  0  2  0  0  0  0  0  0
  190.6950  177.2430  138.3550 N   0  0  0  0  0  0  0  0  0  0  0  0
  189.3000  177.5610  138.0790 C   0  0  1  0  0  3  0  0  0  0  0  0
  188.7900  178.5810  139.0800 C   0  0  0  0  0  2  0  0  0  0  0  0
  189.1830  179.0240  137.6880 C   0  0  2  0  0  3  0  0  0  0  0  0
  188.0330  179.1980  136.9200 O   0  0  0  0  0  1  0  0  0  0  0  0
  191.1040  176.2430  137.3780 C   0  0  0  0  0  2  0  0  0  0  0  0
  190.0930  175.1120  137.3510 C   0  0  0  0  0  2  0  0  0  0  0  0
  192.2010  174.1260  137.1730 C   0  0  0  0  0  1  0  0  0  0  0  0
  190.7860  173.8360  137.3270 N   0  0  0  0  0  2  0  0  0  0  0  0
  192.0170  176.7850  146.0440 O   0  0  0  0  0  0  0  0  0  0  0  0
  191.4660  176.8190  147.3560 C   0  0  0  0  0  2  0  0  0  0  0  0
  189.2800  177.8000  148.0350 C   0  0  0  0  0  1  0  0  0  0  0  0
  189.9560  176.6520  147.3110 C   0  0  0  0  0  2  0  0  0  0  0  0
  1  2  2  0  0  0  0
  2  6  1  0  0  0  0
  2  3  1  0  0  0  0
  3  5  1  0  0  0  0
  4  5  2  0  0  0  0
  5 29  1  0  0  0  0
  6  9  1  0  0  0  0
  7 12  1  0  0  0  0
  7  6  2  0  0  0  0
  9 13  2  0  0  0  0
 10 14  2  0  0  0  0
 11 10  1  0  0  0  0
 11 13  1  0  0  0  0
 12 11  2  0  0  0  0
 13 15  1  0  0  0  0
 14  8  1  0  0  0  0
 15  8  2  0  0  0  0
 16  1  1  0  0  0  0
 17 16  1  0  0  0  0
 18 17  2  0  0  0  0
 19 17  1  0  0  0  0
 20 19  1  0  0  0  0
 21 20  1  1  0  0  0
 21 22  1  0  0  0  0
 23 24  1  6  0  0  0
 23 21  1  0  0  0  0
 23 22  1  0  0  0  0
 25 20  1  0  0  0  0
 26 25  1  0  0  0  0
 27 28  1  0  0  0  0
 28 26  1  0  0  0  0
 29 30  1  0  0  0  0
 32 30  1  0  0  0  0
 32 31  1  0  0  0  0
M  END
>  <MODEL>
1

>  <REMARK>
 VINA RESULT:      -8.1      0.000      0.000
  Name = 
  12 active torsions:
  status: ('A' for Active; 'I' for Inactive)
    1  A    between atoms: N_1  and  C_4
    2  A    between atoms: C_2  and  C_5
    3  A    between atoms: C_3  and  N_20
    4  A    between atoms: C_4  and  C_24
    5  A    between atoms: C_13  and  O_18
    6  A    between atoms: C_13  and  C_29
    7  A    between atoms: C_15  and  N_20
    8  A    between atoms: C_15  and  C_26
    9  A    between atoms: C_16  and  N_20
   10  A    between atoms: C_16  and  C_24
   11  A    between atoms: O_18  and  C_30
   12  A    between atoms: N_19  and  C_26
                            x       y       z     vdW  Elec       q    Type
                         _______ _______ _______ _____ _____    ______ ____

>  <TORSDO>
F 12

$$$$
=
 OpenBabel10272413173D

 32 34  0  0  1  0  0  0  0  0999 V2000
  187.1810  178.3880  141.3180 N   0  0  0  0  0  0  0  0  0  0  0  0
  186.1560  178.2540  142.1140 C   0  0  0  0  0  0  0  0  0  0  0  0
  184.8300  178.0280  141.6080 N   0  0  0  0  0  2  0  0  0  0  0  0
  184.7090  179.8820  140.1890 O   0  0  0  0  0  0  0  0  0  0  0  0
  184.1900  178.8060  140.5880 C   0  0  0  0  0  0  0  0  0  0  0  0
  186.3740  178.2270  143.5730 C   0  0  0  0  0  0  0  0  0  0  0  0
  185.3850  178.7110  144.4430 C   0  0  0  0  0  3  0  0  0  0  0  0
  189.1390  177.1230  147.4040 C   0  0  0  0  0  3  0  0  0  0  0  0
  187.5660  177.7110  144.1080 C   0  0  0  0  0  3  0  0  0  0  0  0
  186.9570  178.1270  147.7410 C   0  0  0  0  0  3  0  0  0  0  0  0
  186.7600  178.1640  146.3580 C   0  0  0  0  0  0  0  0  0  0  0  0
  185.5760  178.6800  145.8280 C   0  0  0  0  0  3  0  0  0  0  0  0
  187.7630  177.6760  145.4900 C   0  0  0  0  0  0  0  0  0  0  0  0
  188.1460  177.6070  148.2630 C   0  0  0  0  0  3  0  0  0  0  0  0
  188.9490  177.1570  146.0190 C   0  0  0  0  0  3  0  0  0  0  0  0
  187.1460  178.3030  139.8620 C   0  0  0  0  0  2  0  0  0  0  0  0
  188.5270  178.1830  139.3020 C   0  0  0  0  0  0  0  0  0  0  0  0
  188.9910  179.0990  138.6420 O   0  0  0  0  0  0  0  0  0  0  0  0
  189.3550  176.9670  139.5770 C   0  0  0  0  0  2  0  0  0  0  0  0
  190.7710  177.2850  139.4510 N   0  0  0  0  0  0  0  0  0  0  0  0
  191.4180  176.1270  138.8480 C   0  0  1  0  0  3  0  0  0  0  0  0
  190.6670  175.7000  137.6010 C   0  0  0  0  0  2  0  0  0  0  0  0
  191.9420  176.5010  137.4720 C   0  0  2  0  0  3  0  0  0  0  0  0
  192.9900  175.6450  137.1370 O   0  0  0  0  0  1  0  0  0  0  0  0
  191.2940  177.4060  140.8050 C   0  0  0  0  0  2  0  0  0  0  0  0
  190.4350  176.5970  141.7590 C   0  0  0  0  0  2  0  0  0  0  0  0
  191.5300  177.8010  143.4320 C   0  0  0  0  0  1  0  0  0  0  0  0
  191.1110  176.4680  143.0380 N   0  0  0  0  0  2  0  0  0  0  0  0
  182.9640  178.4040  140.0560 O   0  0  0  0  0  0  0  0  0  0  0  0
  181.8970  177.9290  140.8700 C   0  0  0  0  0  2  0  0  0  0  0  0
  181.5340  178.9810  143.0980 C   0  0  0  0  0  1  0  0  0  0  0  0
  181.2330  179.0760  141.6150 C   0  0  0  0  0  2  0  0  0  0  0  0
  1  2  2  0  0  0  0
  2  6  1  0  0  0  0
  3  2  1  0  0  0  0
  4  5  2  0  0  0  0
  5  3  1  0  0  0  0
  6  9  2  0  0  0  0
  6  7  1  0  0  0  0
  7 12  2  0  0  0  0
  8 14  1  0  0  0  0
  9 13  1  0  0  0  0
 10 14  2  0  0  0  0
 11 10  1  0  0  0  0
 12 11  1  0  0  0  0
 13 15  1  0  0  0  0
 13 11  2  0  0  0  0
 15  8  2  0  0  0  0
 16  1  1  0  0  0  0
 17 19  1  0  0  0  0
 17 16  1  0  0  0  0
 18 17  2  0  0  0  0
 20 19  1  0  0  0  0
 20 25  1  0  0  0  0
 21 20  1  1  0  0  0
 22 21  1  0  0  0  0
 23 24  1  6  0  0  0
 23 22  1  0  0  0  0
 23 21  1  0  0  0  0
 25 26  1  0  0  0  0
 26 28  1  0  0  0  0
 28 27  1  0  0  0  0
 29  5  1  0  0  0  0
 29 30  1  0  0  0  0
 30 32  1  0  0  0  0
 32 31  1  0  0  0  0
M  END
>  <MODEL>
2

>  <REMARK>
 VINA RESULT:      -8.0      2.524      5.795
  Name = 
  12 active torsions:
  status: ('A' for Active; 'I' for Inactive)
    1  A    between atoms: N_1  and  C_4
    2  A    between atoms: C_2  and  C_5
    3  A    between atoms: C_3  and  N_20
    4  A    between atoms: C_4  and  C_24
    5  A    between atoms: C_13  and  O_18
    6  A    between atoms: C_13  and  C_29
    7  A    between atoms: C_15  and  N_20
    8  A    between atoms: C_15  and  C_26
    9  A    between atoms: C_16  and  N_20
   10  A    between atoms: C_16  and  C_24
   11  A    between atoms: O_18  and  C_30
   12  A    between atoms: N_19  and  C_26
                            x       y       z     vdW  Elec       q    Type
                         _______ _______ _______ _____ _____    ______ ____

>  <TORSDO>
F 12

$$$$
=
 OpenBabel10272413173D

 32 34  0  0  1  0  0  0  0  0999 V2000
  187.2340  178.4300  141.1810 N   0  0  0  0  0  0  0  0  0  0  0  0
  186.1870  178.2920  141.9460 C   0  0  0  0  0  0  0  0  0  0  0  0
  184.8780  178.0550  141.4020 N   0  0  0  0  0  2  0  0  0  0  0  0
  184.7860  179.9030  139.9730 O   0  0  0  0  0  0  0  0  0  0  0  0
  184.2630  178.8240  140.3600 C   0  0  0  0  0  0  0  0  0  0  0  0
  186.3630  178.2730  143.4120 C   0  0  0  0  0  0  0  0  0  0  0  0
  185.3540  178.7720  144.2490 C   0  0  0  0  0  3  0  0  0  0  0  0
  189.0030  177.1680  147.3290 C   0  0  0  0  0  3  0  0  0  0  0  0
  187.5330  177.7490  143.9850 C   0  0  0  0  0  3  0  0  0  0  0  0
  186.8220  178.1940  147.5950 C   0  0  0  0  0  3  0  0  0  0  0  0
  186.6660  178.2250  146.2060 C   0  0  0  0  0  0  0  0  0  0  0  0
  185.5040  178.7490  145.6390 C   0  0  0  0  0  3  0  0  0  0  0  0
  187.6900  177.7210  145.3720 C   0  0  0  0  0  0  0  0  0  0  0  0
  187.9910  177.6670  148.1550 C   0  0  0  0  0  3  0  0  0  0  0  0
  188.8540  177.1940  145.9380 C   0  0  0  0  0  3  0  0  0  0  0  0
  187.2420  178.3390  139.7240 C   0  0  0  0  0  2  0  0  0  0  0  0
  188.6400  178.2180  139.2060 C   0  0  0  0  0  0  0  0  0  0  0  0
  189.1210  179.1290  138.5520 O   0  0  0  0  0  0  0  0  0  0  0  0
  189.4630  177.0070  139.5170 C   0  0  0  0  0  2  0  0  0  0  0  0
  190.8730  177.3630  139.5870 N   0  0  0  0  0  0  0  0  0  0  0  0
  191.6210  176.2810  138.9610 C   0  0  1  0  0  3  0  0  0  0  0  0
  191.5780  176.4220  137.4510 C   0  0  0  0  0  2  0  0  0  0  0  0
  192.8110  176.8550  138.2110 C   0  0  2  0  0  3  0  0  0  0  0  0
  193.7920  175.8730  138.0940 O   0  0  0  0  0  1  0  0  0  0  0  0
  191.2340  177.3670  140.9980 C   0  0  0  0  0  2  0  0  0  0  0  0
  190.3050  176.4450  141.7650 C   0  0  0  0  0  2  0  0  0  0  0  0
  191.6360  177.3720  143.4430 C   0  0  0  0  0  1  0  0  0  0  0  0
  190.8360  176.2110  143.0960 N   0  0  0  0  0  2  0  0  0  0  0  0
  183.0560  178.4120  139.7950 O   0  0  0  0  0  0  0  0  0  0  0  0
  182.2620  177.3750  140.3610 C   0  0  0  0  0  2  0  0  0  0  0  0
  181.0460  175.4260  139.3990 C   0  0  0  0  0  1  0  0  0  0  0  0
  182.3990  176.0910  139.5590 C   0  0  0  0  0  2  0  0  0  0  0  0
  1  2  2  0  0  0  0
  2  6  1  0  0  0  0
  3  2  1  0  0  0  0
  4  5  2  0  0  0  0
  5  3  1  0  0  0  0
  6  9  2  0  0  0  0
  6  7  1  0  0  0  0
  7 12  2  0  0  0  0
  8 14  1  0  0  0  0
  9 13  1  0  0  0  0
 10 14  2  0  0  0  0
 11 10  1  0  0  0  0
 12 11  1  0  0  0  0
 13 15  1  0  0  0  0
 13 11  2  0  0  0  0
 15  8  2  0  0  0  0
 16  1  1  0  0  0  0
 17 19  1  0  0  0  0
 17 16  1  0  0  0  0
 18 17  2  0  0  0  0
 19 20  1  0  0  0  0
 20 25  1  0  0  0  0
 21 20  1  1  0  0  0
 22 23  1  0  0  0  0
 22 21  1  0  0  0  0
 23 24  1  6  0  0  0
 23 21  1  0  0  0  0
 25 26  1  0  0  0  0
 26 28  1  0  0  0  0
 28 27  1  0  0  0  0
 29  5  1  0  0  0  0
 29 30  1  0  0  0  0
 31 32  1  0  0  0  0
 32 30  1  0  0  0  0
M  END
>  <MODEL>
3

>  <REMARK>
 VINA RESULT:      -7.9      2.637      5.978
  Name = 
  12 active torsions:
  status: ('A' for Active; 'I' for Inactive)
    1  A    between atoms: N_1  and  C_4
    2  A    between atoms: C_2  and  C_5
    3  A    between atoms: C_3  and  N_20
    4  A    between atoms: C_4  and  C_24
    5  A    between atoms: C_13  and  O_18
    6  A    between atoms: C_13  and  C_29
    7  A    between atoms: C_15  and  N_20
    8  A    between atoms: C_15  and  C_26
    9  A    between atoms: C_16  and  N_20
   10  A    between atoms: C_16  and  C_24
   11  A    between atoms: O_18  and  C_30
   12  A    between atoms: N_19  and  C_26
                            x       y       z     vdW  Elec       q    Type
                         _______ _______ _______ _____ _____    ______ ____

>  <TORSDO>
F 12

$$$$
=
 OpenBabel10272413173D

 32 34  0  0  1  0  0  0  0  0999 V2000
  187.0600  178.2590  141.6900 N   0  0  0  0  0  0  0  0  0  0  0  0
  186.0960  178.1330  142.5600 C   0  0  0  0  0  0  0  0  0  0  0  0
  184.7460  177.8520  142.1570 N   0  0  0  0  0  2  0  0  0  0  0  0
  184.4750  179.6420  140.6770 O   0  0  0  0  0  0  0  0  0  0  0  0
  184.0150  178.5700  141.1540 C   0  0  0  0  0  0  0  0  0  0  0  0
  186.4160  178.1750  144.0000 C   0  0  0  0  0  0  0  0  0  0  0  0
  185.4810  178.6810  144.9150 C   0  0  0  0  0  3  0  0  0  0  0  0
  189.4590  177.2820  147.6720 C   0  0  0  0  0  3  0  0  0  0  0  0
  187.6510  177.7000  144.4720 C   0  0  0  0  0  3  0  0  0  0  0  0
  187.2870  178.2660  148.1170 C   0  0  0  0  0  3  0  0  0  0  0  0
  186.9950  178.2400  146.7510 C   0  0  0  0  0  0  0  0  0  0  0  0
  185.7680  178.7140  146.2840 C   0  0  0  0  0  3  0  0  0  0  0  0
  187.9440  177.7290  145.8370 C   0  0  0  0  0  0  0  0  0  0  0  0
  188.5190  177.7880  148.5770 C   0  0  0  0  0  3  0  0  0  0  0  0
  189.1720  177.2520  146.3030 C   0  0  0  0  0  3  0  0  0  0  0  0
  186.9270  178.1120  140.2440 C   0  0  0  0  0  2  0  0  0  0  0  0
  188.2240  178.4010  139.5570 C   0  0  0  0  0  0  0  0  0  0  0  0
  188.2190  178.7860  138.3990 O   0  0  0  0  0  0  0  0  0  0  0  0
  189.5190  178.2580  140.2910 C   0  0  0  0  0  2  0  0  0  0  0  0
  189.8540  176.8500  140.4500 N   0  0  0  0  0  0  0  0  0  0  0  0
  190.9130  176.7700  141.4480 C   0  0  1  0  0  3  0  0  0  0  0  0
  190.5850  177.6640  142.6290 C   0  0  0  0  0  2  0  0  0  0  0  0
  190.3570  176.1730  142.7290 C   0  0  2  0  0  3  0  0  0  0  0  0
  191.3990  175.5960  143.4520 O   0  0  0  0  0  1  0  0  0  0  0  0
  190.4290  176.4110  139.1850 C   0  0  0  0  0  2  0  0  0  0  0  0
  191.8690  176.8790  139.0890 C   0  0  0  0  0  2  0  0  0  0  0  0
  191.9560  174.9680  137.7530 C   0  0  0  0  0  1  0  0  0  0  0  0
  192.4910  176.3080  137.9080 N   0  0  0  0  0  2  0  0  0  0  0  0
  182.7670  178.1150  140.7270 O   0  0  0  0  0  0  0  0  0  0  0  0
  181.5470  178.6700  141.2060 C   0  0  0  0  0  2  0  0  0  0  0  0
  180.3400  178.6020  143.3830 C   0  0  0  0  0  1  0  0  0  0  0  0
  181.6380  178.9720  142.6930 C   0  0  0  0  0  2  0  0  0  0  0  0
  1  2  2  0  0  0  0
  2  6  1  0  0  0  0
  3  2  1  0  0  0  0
  4  5  2  0  0  0  0
  5  3  1  0  0  0  0
  6  9  2  0  0  0  0
  6  7  1  0  0  0  0
  7 12  2  0  0  0  0
  8 14  1  0  0  0  0
  9 13  1  0  0  0  0
 10 14  2  0  0  0  0
 11 10  1  0  0  0  0
 12 11  1  0  0  0  0
 13 15  1  0  0  0  0
 13 11  2  0  0  0  0
 15  8  2  0  0  0  0
 16  1  1  0  0  0  0
 17 16  1  0  0  0  0
 17 19  1  0  0  0  0
 18 17  2  0  0  0  0
 19 20  1  0  0  0  0
 21 20  1  6  0  0  0
 21 22  1  0  0  0  0
 21 23  1  0  0  0  0
 22 23  1  0  0  0  0
 23 24  1  1  0  0  0
 25 20  1  0  0  0  0
 26 25  1  0  0  0  0
 27 28  1  0  0  0  0
 28 26  1  0  0  0  0
 29  5  1  0  0  0  0
 29 30  1  0  0  0  0
 30 32  1  0  0  0  0
 32 31  1  0  0  0  0
M  END
>  <MODEL>
4

>  <REMARK>
 VINA RESULT:      -7.8      2.391      5.760
  Name = 
  12 active torsions:
  status: ('A' for Active; 'I' for Inactive)
    1  A    between atoms: N_1  and  C_4
    2  A    between atoms: C_2  and  C_5
    3  A    between atoms: C_3  and  N_20
    4  A    between atoms: C_4  and  C_24
    5  A    between atoms: C_13  and  O_18
    6  A    between atoms: C_13  and  C_29
    7  A    between atoms: C_15  and  N_20
    8  A    between atoms: C_15  and  C_26
    9  A    between atoms: C_16  and  N_20
   10  A    between atoms: C_16  and  C_24
   11  A    between atoms: O_18  and  C_30
   12  A    between atoms: N_19  and  C_26
                            x       y       z     vdW  Elec       q    Type
                         _______ _______ _______ _____ _____    ______ ____

>  <TORSDO>
F 12

$$$$
=
 OpenBabel10272413173D

 32 34  0  0  1  0  0  0  0  0999 V2000
  186.6730  178.5490  140.5600 N   0  0  0  0  0  0  0  0  0  0  0  0
  185.5830  178.5600  141.2760 C   0  0  0  0  0  0  0  0  0  0  0  0
  184.2820  178.4580  140.6740 N   0  0  0  0  0  2  0  0  0  0  0  0
  184.4750  180.2540  139.1890 O   0  0  0  0  0  0  0  0  0  0  0  0
  183.8110  179.2570  139.5800 C   0  0  0  0  0  0  0  0  0  0  0  0
  185.6870  178.5720  142.7480 C   0  0  0  0  0  0  0  0  0  0  0  0
  184.6630  179.1400  143.5220 C   0  0  0  0  0  3  0  0  0  0  0  0
  188.0790  177.4460  146.8160 C   0  0  0  0  0  3  0  0  0  0  0  0
  186.8010  178.0080  143.3910 C   0  0  0  0  0  3  0  0  0  0  0  0
  185.9400  178.5810  146.9490 C   0  0  0  0  0  3  0  0  0  0  0  0
  185.8520  178.5820  145.5550 C   0  0  0  0  0  0  0  0  0  0  0  0
  184.7450  179.1460  144.9190 C   0  0  0  0  0  3  0  0  0  0  0  0
  186.8890  178.0090  144.7840 C   0  0  0  0  0  0  0  0  0  0  0  0
  187.0530  178.0140  147.5790 C   0  0  0  0  0  3  0  0  0  0  0  0
  187.9980  177.4430  145.4200 C   0  0  0  0  0  3  0  0  0  0  0  0
  186.7390  178.4070  139.1090 C   0  0  0  0  0  2  0  0  0  0  0  0
  188.1550  178.2650  138.6510 C   0  0  0  0  0  0  0  0  0  0  0  0
  188.6710  179.1600  138.0010 O   0  0  0  0  0  0  0  0  0  0  0  0
  188.9530  177.0530  139.0180 C   0  0  0  0  0  2  0  0  0  0  0  0
  190.3330  177.4270  139.2970 N   0  0  0  0  0  0  0  0  0  0  0  0
  191.1570  176.2540  139.0320 C   0  0  1  0  0  3  0  0  0  0  0  0
  190.8900  175.7350  137.6320 C   0  0  0  0  0  2  0  0  0  0  0  0
  192.1260  176.5620  137.9030 C   0  0  2  0  0  3  0  0  0  0  0  0
  193.2300  175.7180  138.0090 O   0  0  0  0  0  1  0  0  0  0  0  0
  190.4140  177.6870  140.7280 C   0  0  0  0  0  2  0  0  0  0  0  0
  189.7970  176.5310  141.4940 C   0  0  0  0  0  2  0  0  0  0  0  0
  191.6880  177.0580  142.7550 C   0  0  0  0  0  1  0  0  0  0  0  0
  190.3620  176.4710  142.8300 N   0  0  0  0  0  2  0  0  0  0  0  0
  182.5910  178.9690  138.9670 O   0  0  0  0  0  0  0  0  0  0  0  0
  181.4710  179.8430  139.0470 C   0  0  0  0  0  2  0  0  0  0  0  0
  181.2600  182.1160  138.0510 C   0  0  0  0  0  1  0  0  0  0  0  0
  181.3060  180.6290  137.7560 C   0  0  0  0  0  2  0  0  0  0  0  0
  1  2  2  0  0  0  0
  2  6  1  0  0  0  0
  3  2  1  0  0  0  0
  4  5  2  0  0  0  0
  5  3  1  0  0  0  0
  6  9  2  0  0  0  0
  6  7  1  0  0  0  0
  7 12  2  0  0  0  0
  8 14  1  0  0  0  0
  9 13  1  0  0  0  0
 10 14  2  0  0  0  0
 11 10  1  0  0  0  0
 12 11  1  0  0  0  0
 13 15  1  0  0  0  0
 13 11  2  0  0  0  0
 15  8  2  0  0  0  0
 16  1  1  0  0  0  0
 17 19  1  0  0  0  0
 17 16  1  0  0  0  0
 18 17  2  0  0  0  0
 19 20  1  0  0  0  0
 20 25  1  0  0  0  0
 21 20  1  6  0  0  0
 22 23  1  0  0  0  0
 22 21  1  0  0  0  0
 23 24  1  1  0  0  0
 23 21  1  0  0  0  0
 25 26  1  0  0  0  0
 26 28  1  0  0  0  0
 27 28  1  0  0  0  0
 29 30  1  0  0  0  0
 29  5  1  0  0  0  0
 32 31  1  0  0  0  0
 32 30  1  0  0  0  0
M  END
>  <MODEL>
5

>  <REMARK>
 VINA RESULT:      -7.8      2.985      6.419
  Name = 
  12 active torsions:
  status: ('A' for Active; 'I' for Inactive)
    1  A    between atoms: N_1  and  C_4
    2  A    between atoms: C_2  and  C_5
    3  A    between atoms: C_3  and  N_20
    4  A    between atoms: C_4  and  C_24
    5  A    between atoms: C_13  and  O_18
    6  A    between atoms: C_13  and  C_29
    7  A    between atoms: C_15  and  N_20
    8  A    between atoms: C_15  and  C_26
    9  A    between atoms: C_16  and  N_20
   10  A    between atoms: C_16  and  C_24
   11  A    between atoms: O_18  and  C_30
   12  A    between atoms: N_19  and  C_26
                            x       y       z     vdW  Elec       q    Type
                         _______ _______ _______ _____ _____    ______ ____

>  <TORSDO>
F 12

$$$$
=
 OpenBabel10272413173D

 32 34  0  0  1  0  0  0  0  0999 V2000
  188.3230  177.3340  141.3150 N   0  0  0  0  0  0  0  0  0  0  0  0
  188.2260  177.4630  142.6100 C   0  0  0  0  0  0  0  0  0  0  0  0
  189.3780  177.3880  143.4660 N   0  0  0  0  0  2  0  0  0  0  0  0
  190.1600  175.2990  142.7670 O   0  0  0  0  0  0  0  0  0  0  0  0
  190.3580  176.3420  143.4440 C   0  0  0  0  0  0  0  0  0  0  0  0
  186.9180  177.8010  143.2040 C   0  0  0  0  0  0  0  0  0  0  0  0
  186.7800  177.8970  144.5970 C   0  0  0  0  0  3  0  0  0  0  0  0
  182.2300  178.9470  142.7080 C   0  0  0  0  0  3  0  0  0  0  0  0
  185.8010  178.0400  142.3860 C   0  0  0  0  0  3  0  0  0  0  0  0
  183.2080  178.8030  144.9220 C   0  0  0  0  0  3  0  0  0  0  0  0
  184.4410  178.4670  144.3560 C   0  0  0  0  0  0  0  0  0  0  0  0
  185.5480  178.2280  145.1710 C   0  0  0  0  0  3  0  0  0  0  0  0
  184.5690  178.3720  142.9520 C   0  0  0  0  0  0  0  0  0  0  0  0
  182.1030  179.0420  144.0980 C   0  0  0  0  0  3  0  0  0  0  0  0
  183.4610  178.6130  142.1340 C   0  0  0  0  0  3  0  0  0  0  0  0
  189.5620  177.1320  140.5700 C   0  0  0  0  0  2  0  0  0  0  0  0
  189.5660  177.9440  139.3140 C   0  0  0  0  0  0  0  0  0  0  0  0
  188.7910  178.8790  139.1990 O   0  0  0  0  0  0  0  0  0  0  0  0
  190.5390  177.6410  138.2190 C   0  0  0  0  0  2  0  0  0  0  0  0
  190.3360  176.2850  137.7260 N   0  0  0  0  0  0  0  0  0  0  0  0
  191.5510  175.8970  137.0220 C   0  0  1  0  0  3  0  0  0  0  0  0
  192.7580  176.0900  137.9210 C   0  0  0  0  0  2  0  0  0  0  0  0
  192.1820  174.7060  137.7230 C   0  0  2  0  0  3  0  0  0  0  0  0
  192.9700  174.0070  136.8110 O   0  0  0  0  0  1  0  0  0  0  0  0
  189.2740  176.3570  136.7310 C   0  0  0  0  0  2  0  0  0  0  0  0
  188.2940  175.2190  136.9460 C   0  0  0  0  0  2  0  0  0  0  0  0
  186.3010  176.1210  136.1340 C   0  0  0  0  0  1  0  0  0  0  0  0
  187.0050  175.7510  137.3490 N   0  0  0  0  0  2  0  0  0  0  0  0
  191.5220  176.4470  144.2070 O   0  0  0  0  0  0  0  0  0  0  0  0
  191.6110  177.2870  145.3520 C   0  0  0  0  0  2  0  0  0  0  0  0
  189.8350  176.8960  147.0540 C   0  0  0  0  0  1  0  0  0  0  0  0
  191.2370  176.5230  146.6130 C   0  0  0  0  0  2  0  0  0  0  0  0
  1  2  2  0  0  0  0
  2  6  1  0  0  0  0
  2  3  1  0  0  0  0
  4  5  2  0  0  0  0
  5  3  1  0  0  0  0
  5 29  1  0  0  0  0
  6  7  1  0  0  0  0
  7 12  2  0  0  0  0
  8 14  1  0  0  0  0
  9 13  1  0  0  0  0
  9  6  2  0  0  0  0
 11 10  1  0  0  0  0
 11 12  1  0  0  0  0
 13 11  2  0  0  0  0
 14 10  2  0  0  0  0
 15  8  2  0  0  0  0
 15 13  1  0  0  0  0
 16  1  1  0  0  0  0
 17 16  1  0  0  0  0
 18 17  2  0  0  0  0
 19 17  1  0  0  0  0
 20 19  1  0  0  0  0
 21 23  1  0  0  0  0
 21 20  1  1  0  0  0
 21 22  1  0  0  0  0
 23 24  1  6  0  0  0
 23 22  1  0  0  0  0
 25 26  1  0  0  0  0
 25 20  1  0  0  0  0
 26 28  1  0  0  0  0
 27 28  1  0  0  0  0
 29 30  1  0  0  0  0
 30 32  1  0  0  0  0
 32 31  1  0  0  0  0
M  END
>  <MODEL>
6

>  <REMARK>
 VINA RESULT:      -7.6      1.804      3.097
  Name = 
  12 active torsions:
  status: ('A' for Active; 'I' for Inactive)
    1  A    between atoms: N_1  and  C_4
    2  A    between atoms: C_2  and  C_5
    3  A    between atoms: C_3  and  N_20
    4  A    between atoms: C_4  and  C_24
    5  A    between atoms: C_13  and  O_18
    6  A    between atoms: C_13  and  C_29
    7  A    between atoms: C_15  and  N_20
    8  A    between atoms: C_15  and  C_26
    9  A    between atoms: C_16  and  N_20
   10  A    between atoms: C_16  and  C_24
   11  A    between atoms: O_18  and  C_30
   12  A    between atoms: N_19  and  C_26
                            x       y       z     vdW  Elec       q    Type
                         _______ _______ _______ _____ _____    ______ ____

>  <TORSDO>
F 12

$$$$
=
 OpenBabel10272413173D

 32 34  0  0  1  0  0  0  0  0999 V2000
  185.8960  178.5520  140.1100 N   0  0  0  0  0  0  0  0  0  0  0  0
  184.8470  178.7400  140.8610 C   0  0  0  0  0  0  0  0  0  0  0  0
  183.5320  178.8860  140.3010 N   0  0  0  0  0  2  0  0  0  0  0  0
  184.0000  180.6560  138.8460 O   0  0  0  0  0  0  0  0  0  0  0  0
  183.1800  179.7840  139.2400 C   0  0  0  0  0  0  0  0  0  0  0  0
  184.9940  178.6950  142.3290 C   0  0  0  0  0  0  0  0  0  0  0  0
  183.9490  179.1340  143.1560 C   0  0  0  0  0  3  0  0  0  0  0  0
  187.6010  177.6110  146.2750 C   0  0  0  0  0  3  0  0  0  0  0  0
  186.1740  178.2060  142.9150 C   0  0  0  0  0  3  0  0  0  0  0  0
  185.3740  178.5410  146.5180 C   0  0  0  0  0  3  0  0  0  0  0  0
  185.2440  178.5970  145.1280 C   0  0  0  0  0  0  0  0  0  0  0  0
  184.0730  179.0850  144.5480 C   0  0  0  0  0  3  0  0  0  0  0  0
  186.3040  178.1540  144.3040 C   0  0  0  0  0  0  0  0  0  0  0  0
  186.5520  178.0490  147.0910 C   0  0  0  0  0  3  0  0  0  0  0  0
  187.4770  177.6630  144.8830 C   0  0  0  0  0  3  0  0  0  0  0  0
  185.8930  178.4370  138.6550 C   0  0  0  0  0  2  0  0  0  0  0  0
  187.0840  177.6700  138.1770 C   0  0  0  0  0  0  0  0  0  0  0  0
  186.9230  176.6280  137.5620 O   0  0  0  0  0  0  0  0  0  0  0  0
  188.4670  178.1900  138.4150 C   0  0  0  0  0  2  0  0  0  0  0  0
  189.3500  177.1040  138.8160 N   0  0  0  0  0  0  0  0  0  0  0  0
  190.1370  177.5840  139.9440 C   0  0  1  0  0  3  0  0  0  0  0  0
  189.2360  177.8420  141.1370 C   0  0  0  0  0  2  0  0  0  0  0  0
  190.0620  176.5770  141.0790 C   0  0  2  0  0  3  0  0  0  0  0  0
  191.1840  176.7240  141.8920 O   0  0  0  0  0  1  0  0  0  0  0  0
  190.2770  176.8890  137.7130 C   0  0  0  0  0  2  0  0  0  0  0  0
  190.4420  175.4010  137.4650 C   0  0  0  0  0  2  0  0  0  0  0  0
  192.7070  175.8750  137.7700 C   0  0  0  0  0  1  0  0  0  0  0  0
  191.6570  174.9300  138.1060 N   0  0  0  0  0  2  0  0  0  0  0  0
  181.9110  179.7340  138.6620 O   0  0  0  0  0  0  0  0  0  0  0  0
  180.8540  180.5990  139.0620 C   0  0  0  0  0  2  0  0  0  0  0  0
  180.5680  181.3710  136.7120 C   0  0  0  0  0  1  0  0  0  0  0  0
  180.7730  181.8110  138.1480 C   0  0  0  0  0  2  0  0  0  0  0  0
  1  2  2  0  0  0  0
  2  6  1  0  0  0  0
  3  2  1  0  0  0  0
  4  5  2  0  0  0  0
  5  3  1  0  0  0  0
  6  9  2  0  0  0  0
  6  7  1  0  0  0  0
  7 12  2  0  0  0  0
  8 14  1  0  0  0  0
  9 13  1  0  0  0  0
 10 14  2  0  0  0  0
 11 10  1  0  0  0  0
 12 11  1  0  0  0  0
 13 15  1  0  0  0  0
 13 11  2  0  0  0  0
 15  8  2  0  0  0  0
 16  1  1  0  0  0  0
 17 19  1  0  0  0  0
 17 16  1  0  0  0  0
 18 17  2  0  0  0  0
 19 20  1  0  0  0  0
 21 20  1  6  0  0  0
 21 23  1  0  0  0  0
 21 22  1  0  0  0  0
 23 22  1  0  0  0  0
 23 24  1  1  0  0  0
 25 20  1  0  0  0  0
 26 25  1  0  0  0  0
 26 28  1  0  0  0  0
 27 28  1  0  0  0  0
 29 30  1  0  0  0  0
 29  5  1  0  0  0  0
 31 32  1  0  0  0  0
 32 30  1  0  0  0  0
M  END
>  <MODEL>
7

>  <REMARK>
 VINA RESULT:      -7.5      3.361      6.594
  Name = 
  12 active torsions:
  status: ('A' for Active; 'I' for Inactive)
    1  A    between atoms: N_1  and  C_4
    2  A    between atoms: C_2  and  C_5
    3  A    between atoms: C_3  and  N_20
    4  A    between atoms: C_4  and  C_24
    5  A    between atoms: C_13  and  O_18
    6  A    between atoms: C_13  and  C_29
    7  A    between atoms: C_15  and  N_20
    8  A    between atoms: C_15  and  C_26
    9  A    between atoms: C_16  and  N_20
   10  A    between atoms: C_16  and  C_24
   11  A    between atoms: O_18  and  C_30
   12  A    between atoms: N_19  and  C_26
                            x       y       z     vdW  Elec       q    Type
                         _______ _______ _______ _____ _____    ______ ____

>  <TORSDO>
F 12

$$$$
=
 OpenBabel10272413173D

 32 34  0  0  1  0  0  0  0  0999 V2000
  188.1690  178.4020  139.8070 N   0  0  0  0  0  0  0  0  0  0  0  0
  188.1420  178.2730  141.1050 C   0  0  0  0  0  0  0  0  0  0  0  0
  189.3400  178.0570  141.8690 N   0  0  0  0  0  2  0  0  0  0  0  0
  190.1070  176.1630  140.7310 O   0  0  0  0  0  0  0  0  0  0  0  0
  190.3300  177.0570  141.5900 C   0  0  0  0  0  0  0  0  0  0  0  0
  186.8650  178.4580  141.8210 C   0  0  0  0  0  0  0  0  0  0  0  0
  185.7000  178.7870  141.1100 C   0  0  0  0  0  3  0  0  0  0  0  0
  184.2990  178.4620  145.9380 C   0  0  0  0  0  3  0  0  0  0  0  0
  186.7960  178.2990  143.2140 C   0  0  0  0  0  3  0  0  0  0  0  0
  183.2010  178.9520  143.8330 C   0  0  0  0  0  3  0  0  0  0  0  0
  184.4150  178.7920  143.1600 C   0  0  0  0  0  0  0  0  0  0  0  0
  184.4810  178.9530  141.7760 C   0  0  0  0  0  3  0  0  0  0  0  0
  185.5830  178.4620  143.8860 C   0  0  0  0  0  0  0  0  0  0  0  0
  183.1430  178.7880  145.2210 C   0  0  0  0  0  3  0  0  0  0  0  0
  185.5180  178.2990  145.2720 C   0  0  0  0  0  3  0  0  0  0  0  0
  189.3670  178.3780  138.9730 C   0  0  0  0  0  2  0  0  0  0  0  0
  189.0480  178.7810  137.5690 C   0  0  0  0  0  0  0  0  0  0  0  0
  188.6260  179.9040  137.3460 O   0  0  0  0  0  0  0  0  0  0  0  0
  189.2780  177.8310  136.4360 C   0  0  0  0  0  2  0  0  0  0  0  0
  188.2350  176.8140  136.4130 N   0  0  0  0  0  0  0  0  0  0  0  0
  188.8720  175.5540  136.0560 C   0  0  1  0  0  3  0  0  0  0  0  0
  189.7290  175.0580  137.2050 C   0  0  0  0  0  2  0  0  0  0  0  0
  188.3630  174.4530  136.9710 C   0  0  2  0  0  3  0  0  0  0  0  0
  188.5090  173.2250  136.3290 O   0  0  0  0  0  1  0  0  0  0  0  0
  187.3370  177.1620  135.3200 C   0  0  0  0  0  2  0  0  0  0  0  0
  185.9210  177.3000  135.8450 C   0  0  0  0  0  2  0  0  0  0  0  0
  184.5370  177.1800  137.7210 C   0  0  0  0  0  1  0  0  0  0  0  0
  185.9250  177.2040  137.2940 N   0  0  0  0  0  2  0  0  0  0  0  0
  191.5320  177.0360  142.2980 O   0  0  0  0  0  0  0  0  0  0  0  0
  191.6460  176.4580  143.5930 C   0  0  0  0  0  2  0  0  0  0  0  0
  190.0740  177.2930  145.3350 C   0  0  0  0  0  1  0  0  0  0  0  0
  191.4220  177.5040  144.6730 C   0  0  0  0  0  2  0  0  0  0  0  0
  1  2  2  0  0  0  0
  2  6  1  0  0  0  0
  2  3  1  0  0  0  0
  4  5  2  0  0  0  0
  5  3  1  0  0  0  0
  5 29  1  0  0  0  0
  6  9  1  0  0  0  0
  7 12  1  0  0  0  0
  7  6  2  0  0  0  0
  9 13  2  0  0  0  0
 10 14  2  0  0  0  0
 11 10  1  0  0  0  0
 11 13  1  0  0  0  0
 12 11  2  0  0  0  0
 13 15  1  0  0  0  0
 14  8  1  0  0  0  0
 15  8  2  0  0  0  0
 16  1  1  0  0  0  0
 17 16  1  0  0  0  0
 18 17  2  0  0  0  0
 19 17  1  0  0  0  0
 20 19  1  0  0  0  0
 21 20  1  1  0  0  0
 21 23  1  0  0  0  0
 21 22  1  0  0  0  0
 23 24  1  6  0  0  0
 23 22  1  0  0  0  0
 25 26  1  0  0  0  0
 25 20  1  0  0  0  0
 26 28  1  0  0  0  0
 28 27  1  0  0  0  0
 29 30  1  0  0  0  0
 30 32  1  0  0  0  0
 32 31  1  0  0  0  0
M  END
>  <MODEL>
8

>  <REMARK>
 VINA RESULT:      -7.5      2.334      3.681
  Name = 
  12 active torsions:
  status: ('A' for Active; 'I' for Inactive)
    1  A    between atoms: N_1  and  C_4
    2  A    between atoms: C_2  and  C_5
    3  A    between atoms: C_3  and  N_20
    4  A    between atoms: C_4  and  C_24
    5  A    between atoms: C_13  and  O_18
    6  A    between atoms: C_13  and  C_29
    7  A    between atoms: C_15  and  N_20
    8  A    between atoms: C_15  and  C_26
    9  A    between atoms: C_16  and  N_20
   10  A    between atoms: C_16  and  C_24
   11  A    between atoms: O_18  and  C_30
   12  A    between atoms: N_19  and  C_26
                            x       y       z     vdW  Elec       q    Type
                         _______ _______ _______ _____ _____    ______ ____

>  <TORSDO>
F 12

$$$$
=
 OpenBabel10272413173D

 32 34  0  0  1  0  0  0  0  0999 V2000
  184.9860  179.1600  140.2390 N   0  0  0  0  0  0  0  0  0  0  0  0
  184.2040  178.5350  141.0760 C   0  0  0  0  0  0  0  0  0  0  0  0
  183.0920  177.7450  140.6250 N   0  0  0  0  0  2  0  0  0  0  0  0
  182.0210  179.3940  139.3600 O   0  0  0  0  0  0  0  0  0  0  0  0
  182.0850  178.1840  139.7030 C   0  0  0  0  0  0  0  0  0  0  0  0
  184.5300  178.5490  142.5150 C   0  0  0  0  0  0  0  0  0  0  0  0
  183.5890  179.0150  143.4460 C   0  0  0  0  0  3  0  0  0  0  0  0
  187.6090  177.6380  146.1530 C   0  0  0  0  0  3  0  0  0  0  0  0
  185.7770  178.0910  142.9710 C   0  0  0  0  0  3  0  0  0  0  0  0
  185.4190  178.5640  146.6290 C   0  0  0  0  0  3  0  0  0  0  0  0
  185.1210  178.5640  145.2640 C   0  0  0  0  0  0  0  0  0  0  0  0
  183.8820  179.0220  144.8140 C   0  0  0  0  0  3  0  0  0  0  0  0
  186.0760  178.0940  144.3350 C   0  0  0  0  0  0  0  0  0  0  0  0
  186.6630  178.1020  147.0730 C   0  0  0  0  0  3  0  0  0  0  0  0
  187.3170  177.6330  144.7850 C   0  0  0  0  0  3  0  0  0  0  0  0
  184.8740  179.1310  138.7840 C   0  0  0  0  0  2  0  0  0  0  0  0
  185.7770  178.0920  138.2010 C   0  0  0  0  0  0  0  0  0  0  0  0
  185.3050  177.0410  137.7990 O   0  0  0  0  0  0  0  0  0  0  0  0
  187.2450  178.3490  138.0710 C   0  0  0  0  0  2  0  0  0  0  0  0
  188.0010  177.2510  138.6600 N   0  0  0  0  0  0  0  0  0  0  0  0
  189.0480  177.8430  139.4830 C   0  0  1  0  0  3  0  0  0  0  0  0
  188.4330  178.5730  140.6630 C   0  0  0  0  0  2  0  0  0  0  0  0
  189.0340  177.1990  140.8580 C   0  0  2  0  0  3  0  0  0  0  0  0
  190.2980  177.3280  141.4330 O   0  0  0  0  0  1  0  0  0  0  0  0
  188.6640  176.5630  137.5600 C   0  0  0  0  0  2  0  0  0  0  0  0
  190.0950  177.0520  137.4400 C   0  0  0  0  0  2  0  0  0  0  0  0
  192.3130  176.4410  137.8310 C   0  0  0  0  0  1  0  0  0  0  0  0
  191.0040  175.9210  137.4800 N   0  0  0  0  0  2  0  0  0  0  0  0
  181.1390  177.2860  139.2080 O   0  0  0  0  0  0  0  0  0  0  0  0
  181.0070  175.9610  139.7110 C   0  0  0  0  0  2  0  0  0  0  0  0
  182.2720  175.0290  137.7780 C   0  0  0  0  0  1  0  0  0  0  0  0
  180.9840  174.9520  138.5740 C   0  0  0  0  0  2  0  0  0  0  0  0
  1  2  2  0  0  0  0
  2  6  1  0  0  0  0
  3  2  1  0  0  0  0
  4  5  2  0  0  0  0
  5  3  1  0  0  0  0
  6  9  2  0  0  0  0
  6  7  1  0  0  0  0
  7 12  2  0  0  0  0
  8 14  1  0  0  0  0
  9 13  1  0  0  0  0
 10 14  2  0  0  0  0
 11 10  1  0  0  0  0
 12 11  1  0  0  0  0
 13 15  1  0  0  0  0
 13 11  2  0  0  0  0
 15  8  2  0  0  0  0
 16  1  1  0  0  0  0
 17 16  1  0  0  0  0
 18 17  2  0  0  0  0
 19 17  1  0  0  0  0
 19 20  1  0  0  0  0
 21 20  1  6  0  0  0
 21 22  1  0  0  0  0
 21 23  1  0  0  0  0
 22 23  1  0  0  0  0
 23 24  1  1  0  0  0
 25 20  1  0  0  0  0
 26 28  1  0  0  0  0
 26 25  1  0  0  0  0
 28 27  1  0  0  0  0
 29  5  1  0  0  0  0
 29 30  1  0  0  0  0
 31 32  1  0  0  0  0
 32 30  1  0  0  0  0
M  END
>  <MODEL>
9

>  <REMARK>
 VINA RESULT:      -7.3      3.578      6.559
  Name = 
  12 active torsions:
  status: ('A' for Active; 'I' for Inactive)
    1  A    between atoms: N_1  and  C_4
    2  A    between atoms: C_2  and  C_5
    3  A    between atoms: C_3  and  N_20
    4  A    between atoms: C_4  and  C_24
    5  A    between atoms: C_13  and  O_18
    6  A    between atoms: C_13  and  C_29
    7  A    between atoms: C_15  and  N_20
    8  A    between atoms: C_15  and  C_26
    9  A    between atoms: C_16  and  N_20
   10  A    between atoms: C_16  and  C_24
   11  A    between atoms: O_18  and  C_30
   12  A    between atoms: N_19  and  C_26
                            x       y       z     vdW  Elec       q    Type
                         _______ _______ _______ _____ _____    ______ ____

>  <TORSDO>
F 12

$$$$
