=
 OpenBabel10272415103D

 34 38  0  0  1  0  0  0  0  0999 V2000
  188.7760  176.8310  144.4710 C   0  0  1  0  0  3  0  0  0  0  0  0
  188.4680  176.6910  147.5470 O   0  0  0  0  0  0  0  0  0  0  0  0
  191.6250  177.1980  144.2310 C   0  0  0  0  0  3  0  0  0  0  0  0
  189.4390  177.0840  143.1800 N   0  0  0  0  0  0  0  0  0  0  0  0
  191.0540  177.2260  145.4290 C   0  0  0  0  0  0  0  0  0  0  0  0
  191.7200  177.0150  146.6690 N   0  0  0  0  0  0  0  0  0  0  0  0
  190.7330  177.2230  143.0500 C   0  0  0  0  0  0  0  0  0  0  0  0
  189.5520  176.9130  146.9460 C   0  0  0  0  0  0  0  0  0  0  0  0
  189.6470  177.2410  145.5690 N   0  0  0  0  0  0  0  0  0  0  0  0
  190.8340  176.8310  147.5650 N   0  0  0  0  0  0  0  0  0  0  0  0
  186.0110  178.7600  146.1660 C   0  0  0  0  0  3  0  0  0  0  0  0
  184.7490  178.1520  145.6560 C   0  0  0  0  0  2  0  0  0  0  0  0
  184.5190  178.4900  144.2210 C   0  0  0  0  0  0  0  0  0  0  0  0
  185.3590  178.1030  143.2590 C   0  0  0  0  0  3  0  0  0  0  0  0
  187.2110  178.4520  145.6770 C   0  0  0  0  0  3  0  0  0  0  0  0
  186.6630  177.4420  143.4640 C   0  0  0  0  0  3  0  0  0  0  0  0
  187.4650  177.5470  144.5320 C   0  0  0  0  0  0  0  0  0  0  0  0
  181.9340  178.5380  144.5380 O   0  0  0  0  0  1  0  0  0  0  0  0
  182.7610  178.8670  142.1530 O   0  0  0  0  0  1  0  0  0  0  0  0
  183.0070  179.3070  143.7790 S   0  0  0  0  0  3  0  0  0  0  0  0
  191.3250  177.3900  141.6880 C   0  0  0  0  0  2  0  0  0  0  0  0
  190.3050  175.9910  138.2300 C   0  0  0  0  0  2  0  0  0  0  0  0
  189.2810  177.5840  140.3830 O   0  0  0  0  0  0  0  0  0  0  0  0
  187.0810  177.4120  136.7940 C   0  0  0  0  0  0  0  0  0  0  0  0
  188.2940  176.7150  136.9190 C   0  0  0  0  0  3  0  0  0  0  0  0
  189.0310  176.7730  138.1040 C   0  0  0  0  0  0  0  0  0  0  0  0
  187.3440  178.2160  139.0780 C   0  0  0  0  0  3  0  0  0  0  0  0
  188.5470  177.5170  139.1950 C   0  0  0  0  0  0  0  0  0  0  0  0
  186.6160  178.1640  137.8870 C   0  0  0  0  0  3  0  0  0  0  0  0
  190.4480  176.7870  140.5940 C   0  0  1  0  0  3  0  0  0  0  0  0
  191.2250  176.5960  139.2890 C   0  0  0  0  0  2  0  0  0  0  0  0
  186.3270  177.3560  135.5690 N   0  0  0  0  0  0  0  0  0  0  0  0
  185.0570  176.6480  135.4980 C   0  0  0  0  0  1  0  0  0  0  0  0
  186.8040  178.0050  134.3590 C   0  0  0  0  0  1  0  0  0  0  0  0
  1 17  1  6  0  0  0
  1  9  1  0  0  0  0
  3  5  2  0  0  0  0
  4  1  1  0  0  0  0
  5  9  1  0  0  0  0
  5  6  1  0  0  0  0
  6 10  2  0  0  0  0
  7  4  2  0  0  0  0
  7  3  1  0  0  0  0
  8  2  2  0  0  0  0
  8 10  1  0  0  0  0
  9  8  1  0  0  0  0
 12 11  1  0  0  0  0
 13 12  1  0  0  0  0
 14 16  1  0  0  0  0
 14 13  2  0  0  0  0
 15 11  2  0  0  0  0
 16 17  2  0  0  0  0
 17 15  1  0  0  0  0
 19 20  1  0  0  0  0
 20 13  1  0  0  0  0
 20 18  1  0  0  0  0
 21  7  1  0  0  0  0
 22 31  1  0  0  0  0
 23 30  1  0  0  0  0
 24 25  2  0  0  0  0
 24 29  1  0  0  0  0
 25 26  1  0  0  0  0
 26 22  1  0  0  0  0
 26 28  2  0  0  0  0
 27 28  1  0  0  0  0
 28 23  1  0  0  0  0
 29 27  2  0  0  0  0
 30 21  1  1  0  0  0
 31 30  1  0  0  0  0
 32 24  1  0  0  0  0
 33 32  1  0  0  0  0
 34 32  1  0  0  0  0
M  END
>  <MODEL>
1

>  <REMARK>
 VINA RESULT:      -9.9      0.000      0.000
  Name = 
  5 active torsions:
  status: ('A' for Active; 'I' for Inactive)
    1  A    between atoms: C_1  and  C_34
    2  A    between atoms: C_7  and  N_11
    3  A    between atoms: C_17  and  C_18
    4  A    between atoms: C_18  and  C_30
    5  A    between atoms: S_24  and  C_25
                            x       y       z     vdW  Elec       q    Type
                         _______ _______ _______ _____ _____    ______ ____

>  <TORSDO>
F 5

$$$$
=
 OpenBabel10272415103D

 34 38  0  0  1  0  0  0  0  0999 V2000
  189.1410  178.2670  144.1020 C   0  0  1  0  0  3  0  0  0  0  0  0
  192.1660  177.6250  143.9980 O   0  0  0  0  0  0  0  0  0  0  0  0
  188.4690  177.2690  146.7220 C   0  0  0  0  0  3  0  0  0  0  0  0
  187.7570  178.2210  144.6040 N   0  0  0  0  0  0  0  0  0  0  0  0
  189.6810  177.0570  146.2250 C   0  0  0  0  0  0  0  0  0  0  0  0
  190.8430  176.7410  146.9840 N   0  0  0  0  0  0  0  0  0  0  0  0
  187.4380  177.7990  145.8010 C   0  0  0  0  0  0  0  0  0  0  0  0
  191.4010  177.3090  144.9470 C   0  0  0  0  0  0  0  0  0  0  0  0
  189.9850  177.3630  144.8780 N   0  0  0  0  0  0  0  0  0  0  0  0
  191.8580  176.8890  146.2300 N   0  0  0  0  0  0  0  0  0  0  0  0
  190.4170  176.4390  141.0580 C   0  0  0  0  0  3  0  0  0  0  0  0
  190.5080  177.4800  139.9940 C   0  0  0  0  0  2  0  0  0  0  0  0
  189.1570  177.9200  139.5400 C   0  0  0  0  0  0  0  0  0  0  0  0
  188.2930  178.5160  140.3630 C   0  0  0  0  0  3  0  0  0  0  0  0
  189.8530  176.6650  142.2430 C   0  0  0  0  0  3  0  0  0  0  0  0
  188.4660  178.6930  141.8190 C   0  0  0  0  0  3  0  0  0  0  0  0
  189.1800  177.9200  142.6490 C   0  0  0  0  0  0  0  0  0  0  0  0
  190.0380  177.2490  137.1820 O   0  0  0  0  0  1  0  0  0  0  0  0
  188.6470  179.3790  137.2770 O   0  0  0  0  0  1  0  0  0  0  0  0
  188.7560  177.7690  137.8180 S   0  0  0  0  0  3  0  0  0  0  0  0
  186.0160  177.8700  146.2550 C   0  0  0  0  0  2  0  0  0  0  0  0
  182.8080  179.3240  144.6590 C   0  0  0  0  0  2  0  0  0  0  0  0
  185.3110  178.1250  143.9400 O   0  0  0  0  0  0  0  0  0  0  0  0
  182.4140  178.6730  140.9310 C   0  0  0  0  0  0  0  0  0  0  0  0
  182.1450  179.0570  142.2550 C   0  0  0  0  0  3  0  0  0  0  0  0
  183.0990  178.8720  143.2580 C   0  0  0  0  0  0  0  0  0  0  0  0
  184.6260  177.9300  141.6280 C   0  0  0  0  0  3  0  0  0  0  0  0
  184.3520  178.3180  142.9400 C   0  0  0  0  0  0  0  0  0  0  0  0
  183.6650  178.1060  140.6300 C   0  0  0  0  0  3  0  0  0  0  0  0
  185.1260  178.6210  145.2670 C   0  0  1  0  0  3  0  0  0  0  0  0
  183.6530  178.5600  145.6760 C   0  0  0  0  0  2  0  0  0  0  0  0
  181.4260  178.8590  139.9000 N   0  0  0  0  0  0  0  0  0  0  0  0
  180.2990  179.7600  140.0880 C   0  0  0  0  0  1  0  0  0  0  0  0
  181.5190  178.1540  138.6310 C   0  0  0  0  0  1  0  0  0  0  0  0
  1 17  1  6  0  0  0
  1  4  1  0  0  0  0
  1  9  1  0  0  0  0
  2  8  2  0  0  0  0
  4  7  2  0  0  0  0
  5  3  2  0  0  0  0
  5  6  1  0  0  0  0
  7 21  1  0  0  0  0
  7  3  1  0  0  0  0
  8 10  1  0  0  0  0
  9  8  1  0  0  0  0
  9  5  1  0  0  0  0
 10  6  2  0  0  0  0
 11 15  2  0  0  0  0
 12 11  1  0  0  0  0
 13 12  1  0  0  0  0
 13 14  2  0  0  0  0
 14 16  1  0  0  0  0
 15 17  1  0  0  0  0
 16 17  2  0  0  0  0
 18 20  1  0  0  0  0
 19 20  1  0  0  0  0
 20 13  1  0  0  0  0
 22 31  1  0  0  0  0
 23 30  1  0  0  0  0
 24 25  1  0  0  0  0
 25 26  2  0  0  0  0
 26 22  1  0  0  0  0
 27 28  2  0  0  0  0
 28 26  1  0  0  0  0
 28 23  1  0  0  0  0
 29 24  2  0  0  0  0
 29 27  1  0  0  0  0
 30 31  1  0  0  0  0
 30 21  1  1  0  0  0
 32 33  1  0  0  0  0
 32 24  1  0  0  0  0
 34 32  1  0  0  0  0
M  END
>  <MODEL>
2

>  <REMARK>
 VINA RESULT:      -9.9      3.016      6.129
  Name = 
  5 active torsions:
  status: ('A' for Active; 'I' for Inactive)
    1  A    between atoms: C_1  and  C_34
    2  A    between atoms: C_7  and  N_11
    3  A    between atoms: C_17  and  C_18
    4  A    between atoms: C_18  and  C_30
    5  A    between atoms: S_24  and  C_25
                            x       y       z     vdW  Elec       q    Type
                         _______ _______ _______ _____ _____    ______ ____

>  <TORSDO>
F 5

$$$$
=
 OpenBabel10272415103D

 34 38  0  0  1  0  0  0  0  0999 V2000
  191.5550  175.0440  137.6090 C   0  0  1  0  0  3  0  0  0  0  0  0
  191.5930  173.0290  135.2600 O   0  0  0  0  0  0  0  0  0  0  0  0
  188.9870  176.2910  137.2060 C   0  0  0  0  0  3  0  0  0  0  0  0
  191.0940  176.1900  138.4100 N   0  0  0  0  0  0  0  0  0  0  0  0
  189.4560  175.4370  136.3040 C   0  0  0  0  0  0  0  0  0  0  0  0
  188.6740  174.7390  135.3410 N   0  0  0  0  0  0  0  0  0  0  0  0
  189.9210  176.7480  138.2600 C   0  0  0  0  0  0  0  0  0  0  0  0
  190.6770  173.8670  135.4680 C   0  0  0  0  0  0  0  0  0  0  0  0
  190.7840  174.9550  136.3720 N   0  0  0  0  0  0  0  0  0  0  0  0
  189.3950  173.8120  134.8470 N   0  0  0  0  0  0  0  0  0  0  0  0
  194.5820  176.3750  135.7910 C   0  0  0  0  0  3  0  0  0  0  0  0
  195.4480  175.1830  135.5600 C   0  0  0  0  0  2  0  0  0  0  0  0
  196.0500  174.6880  136.8310 C   0  0  0  0  0  0  0  0  0  0  0  0
  195.3030  174.2300  137.8380 C   0  0  0  0  0  3  0  0  0  0  0  0
  193.4870  176.3370  136.5490 C   0  0  0  0  0  3  0  0  0  0  0  0
  193.8290  174.2780  137.9130 C   0  0  0  0  0  3  0  0  0  0  0  0
  193.0170  175.1640  137.3200 C   0  0  0  0  0  0  0  0  0  0  0  0
  198.1670  175.4020  138.1690 O   0  0  0  0  0  1  0  0  0  0  0  0
  198.3710  175.5190  135.6340 O   0  0  0  0  0  1  0  0  0  0  0  0
  197.8180  174.5760  136.9390 S   0  0  0  0  0  3  0  0  0  0  0  0
  189.5050  177.8520  139.1780 C   0  0  0  0  0  2  0  0  0  0  0  0
  187.9110  177.7370  142.7000 C   0  0  0  0  0  2  0  0  0  0  0  0
  190.3750  177.1710  141.3470 O   0  0  0  0  0  0  0  0  0  0  0  0
  190.3420  177.1060  145.5590 C   0  0  0  0  0  0  0  0  0  0  0  0
  189.1730  177.4140  144.8430 C   0  0  0  0  0  3  0  0  0  0  0  0
  189.1790  177.4430  143.4460 C   0  0  0  0  0  0  0  0  0  0  0  0
  191.5270  176.8360  143.4480 C   0  0  0  0  0  3  0  0  0  0  0  0
  190.3590  177.1400  142.7450 C   0  0  0  0  0  0  0  0  0  0  0  0
  191.5180  176.8190  144.8450 C   0  0  0  0  0  3  0  0  0  0  0  0
  189.1800  177.3500  140.5830 C   0  0  1  0  0  3  0  0  0  0  0  0
  188.2030  178.2820  141.3030 C   0  0  0  0  0  2  0  0  0  0  0  0
  190.3340  177.0830  146.9980 N   0  0  0  0  0  0  0  0  0  0  0  0
  189.1580  177.4880  147.7530 C   0  0  0  0  0  1  0  0  0  0  0  0
  191.5010  176.6500  147.7510 C   0  0  0  0  0  1  0  0  0  0  0  0
  1 17  1  6  0  0  0
  1  4  1  0  0  0  0
  2  8  2  0  0  0  0
  3  7  1  0  0  0  0
  5  9  1  0  0  0  0
  5  3  2  0  0  0  0
  6  5  1  0  0  0  0
  7  4  2  0  0  0  0
  7 21  1  0  0  0  0
  8  9  1  0  0  0  0
  9  1  1  0  0  0  0
 10  6  2  0  0  0  0
 10  8  1  0  0  0  0
 11 15  2  0  0  0  0
 12 11  1  0  0  0  0
 12 13  1  0  0  0  0
 13 20  1  0  0  0  0
 13 14  2  0  0  0  0
 14 16  1  0  0  0  0
 15 17  1  0  0  0  0
 17 16  2  0  0  0  0
 19 20  1  0  0  0  0
 20 18  1  0  0  0  0
 22 26  1  0  0  0  0
 23 28  1  0  0  0  0
 24 32  1  0  0  0  0
 25 24  2  0  0  0  0
 26 25  1  0  0  0  0
 27 29  2  0  0  0  0
 28 26  2  0  0  0  0
 28 27  1  0  0  0  0
 29 24  1  0  0  0  0
 30 21  1  6  0  0  0
 30 31  1  0  0  0  0
 30 23  1  0  0  0  0
 31 22  1  0  0  0  0
 32 34  1  0  0  0  0
 32 33  1  0  0  0  0
M  END
>  <MODEL>
3

>  <REMARK>
 VINA RESULT:      -9.3      4.910     10.611
  Name = 
  5 active torsions:
  status: ('A' for Active; 'I' for Inactive)
    1  A    between atoms: C_1  and  C_34
    2  A    between atoms: C_7  and  N_11
    3  A    between atoms: C_17  and  C_18
    4  A    between atoms: C_18  and  C_30
    5  A    between atoms: S_24  and  C_25
                            x       y       z     vdW  Elec       q    Type
                         _______ _______ _______ _____ _____    ______ ____

>  <TORSDO>
F 5

$$$$
=
 OpenBabel10272415103D

 34 38  0  0  1  0  0  0  0  0999 V2000
  190.1970  177.2750  140.1730 C   0  0  1  0  0  3  0  0  0  0  0  0
  187.7990  179.0950  140.8900 O   0  0  0  0  0  0  0  0  0  0  0  0
  189.3010  176.1660  137.6680 C   0  0  0  0  0  3  0  0  0  0  0  0
  190.9420  176.2260  139.4570 N   0  0  0  0  0  0  0  0  0  0  0  0
  188.4770  176.9160  138.3900 C   0  0  0  0  0  0  0  0  0  0  0  0
  187.3210  177.5860  137.8990 N   0  0  0  0  0  0  0  0  0  0  0  0
  190.5640  175.7330  138.3050 C   0  0  0  0  0  0  0  0  0  0  0  0
  187.8450  178.3350  139.8870 C   0  0  0  0  0  0  0  0  0  0  0  0
  188.8140  177.3160  139.7040 N   0  0  0  0  0  0  0  0  0  0  0  0
  186.9470  178.4230  138.7820 N   0  0  0  0  0  0  0  0  0  0  0  0
  188.7870  176.3140  143.5390 C   0  0  0  0  0  3  0  0  0  0  0  0
  189.3220  177.3340  144.4860 C   0  0  0  0  0  2  0  0  0  0  0  0
  190.7860  177.1600  144.7090 C   0  0  0  0  0  0  0  0  0  0  0  0
  191.6740  177.2860  143.7200 C   0  0  0  0  0  3  0  0  0  0  0  0
  189.1890  176.2220  142.2720 C   0  0  0  0  0  3  0  0  0  0  0  0
  191.3540  177.4590  142.2890 C   0  0  0  0  0  3  0  0  0  0  0  0
  190.2540  177.0410  141.6480 C   0  0  0  0  0  0  0  0  0  0  0  0
  192.1440  175.6150  146.3070 O   0  0  0  0  0  1  0  0  0  0  0  0
  189.9570  176.5220  147.2420 O   0  0  0  0  0  1  0  0  0  0  0  0
  191.3630  176.9210  146.3700 S   0  0  0  0  0  3  0  0  0  0  0  0
  191.4310  174.7330  137.6110 C   0  0  0  0  0  2  0  0  0  0  0  0
  194.5730  176.0610  135.7890 C   0  0  0  0  0  2  0  0  0  0  0  0
  193.8050  174.2980  137.9170 O   0  0  0  0  0  0  0  0  0  0  0  0
  197.8160  174.2560  136.6270 C   0  0  0  0  0  0  0  0  0  0  0  0
  196.8800  175.1050  136.0130 C   0  0  0  0  0  3  0  0  0  0  0  0
  195.5480  175.1190  136.4320 C   0  0  0  0  0  0  0  0  0  0  0  0
  196.0610  173.4440  138.1080 C   0  0  0  0  0  3  0  0  0  0  0  0
  195.1390  174.2930  137.4950 C   0  0  0  0  0  0  0  0  0  0  0  0
  197.3900  173.4250  137.6790 C   0  0  0  0  0  3  0  0  0  0  0  0
  192.8570  175.2380  137.4070 C   0  0  1  0  0  3  0  0  0  0  0  0
  193.1370  175.5600  135.9380 C   0  0  0  0  0  2  0  0  0  0  0  0
  199.1880  174.2390  136.1900 N   0  0  0  0  0  0  0  0  0  0  0  0
  199.6160  174.9940  135.0220 C   0  0  0  0  0  1  0  0  0  0  0  0
  200.1960  173.4680  136.9000 C   0  0  0  0  0  1  0  0  0  0  0  0
  1 17  1  1  0  0  0
  3  7  1  0  0  0  0
  3  5  2  0  0  0  0
  4  1  1  0  0  0  0
  5  9  1  0  0  0  0
  6  5  1  0  0  0  0
  6 10  2  0  0  0  0
  7  4  2  0  0  0  0
  8  2  2  0  0  0  0
  9  8  1  0  0  0  0
  9  1  1  0  0  0  0
 10  8  1  0  0  0  0
 11 12  1  0  0  0  0
 12 13  1  0  0  0  0
 13 20  1  0  0  0  0
 14 13  2  0  0  0  0
 15 11  2  0  0  0  0
 16 14  1  0  0  0  0
 17 15  1  0  0  0  0
 17 16  2  0  0  0  0
 18 20  1  0  0  0  0
 20 19  1  0  0  0  0
 21  7  1  0  0  0  0
 22 31  1  0  0  0  0
 22 26  1  0  0  0  0
 24 29  1  0  0  0  0
 25 26  1  0  0  0  0
 25 24  2  0  0  0  0
 26 28  2  0  0  0  0
 28 23  1  0  0  0  0
 28 27  1  0  0  0  0
 29 27  2  0  0  0  0
 30 21  1  6  0  0  0
 30 23  1  0  0  0  0
 31 30  1  0  0  0  0
 32 24  1  0  0  0  0
 32 34  1  0  0  0  0
 33 32  1  0  0  0  0
M  END
>  <MODEL>
4

>  <REMARK>
 VINA RESULT:      -9.3      4.934      8.096
  Name = 
  5 active torsions:
  status: ('A' for Active; 'I' for Inactive)
    1  A    between atoms: C_1  and  C_34
    2  A    between atoms: C_7  and  N_11
    3  A    between atoms: C_17  and  C_18
    4  A    between atoms: C_18  and  C_30
    5  A    between atoms: S_24  and  C_25
                            x       y       z     vdW  Elec       q    Type
                         _______ _______ _______ _____ _____    ______ ____

>  <TORSDO>
F 5

$$$$
=
 OpenBabel10272415103D

 34 38  0  0  1  0  0  0  0  0999 V2000
  190.5420  175.0930  137.3270 C   0  0  1  0  0  3  0  0  0  0  0  0
  190.1280  173.3270  134.8200 O   0  0  0  0  0  0  0  0  0  0  0  0
  188.2030  176.7730  137.1940 C   0  0  0  0  0  3  0  0  0  0  0  0
  190.3190  176.2190  138.2500 N   0  0  0  0  0  0  0  0  0  0  0  0
  188.4770  175.9430  136.1950 C   0  0  0  0  0  0  0  0  0  0  0  0
  187.5440  175.4730  135.2280 N   0  0  0  0  0  0  0  0  0  0  0  0
  189.2500  176.9720  138.2210 C   0  0  0  0  0  0  0  0  0  0  0  0
  189.3760  174.2800  135.1550 C   0  0  0  0  0  0  0  0  0  0  0  0
  189.7080  175.2470  136.1390 N   0  0  0  0  0  0  0  0  0  0  0  0
  188.0740  174.4920  134.6130 N   0  0  0  0  0  0  0  0  0  0  0  0
  193.9570  173.4900  137.2660 C   0  0  0  0  0  3  0  0  0  0  0  0
  194.9130  174.6100  137.5030 C   0  0  0  0  0  2  0  0  0  0  0  0
  194.9860  175.5260  136.3280 C   0  0  0  0  0  0  0  0  0  0  0  0
  193.9270  176.2200  135.9040 C   0  0  0  0  0  3  0  0  0  0  0  0
  192.6550  173.6810  137.0600 C   0  0  0  0  0  3  0  0  0  0  0  0
  192.5470  176.0860  136.4090 C   0  0  0  0  0  3  0  0  0  0  0  0
  191.9870  174.9990  136.9580 C   0  0  0  0  0  0  0  0  0  0  0  0
  197.5590  175.6380  136.7140 O   0  0  0  0  0  1  0  0  0  0  0  0
  196.5810  177.4700  135.2410 O   0  0  0  0  0  1  0  0  0  0  0  0
  196.5660  175.8000  135.5700 S   0  0  0  0  0  3  0  0  0  0  0  0
  189.0700  178.0380  139.2540 C   0  0  0  0  0  2  0  0  0  0  0  0
  187.6940  177.6840  142.8500 C   0  0  0  0  0  2  0  0  0  0  0  0
  190.1090  177.3470  141.3420 O   0  0  0  0  0  0  0  0  0  0  0  0
  190.3230  177.1320  145.5440 C   0  0  0  0  0  0  0  0  0  0  0  0
  189.0960  177.3790  144.9060 C   0  0  0  0  0  3  0  0  0  0  0  0
  189.0200  177.4570  143.5140 C   0  0  0  0  0  0  0  0  0  0  0  0
  191.4010  177.0230  143.3620 C   0  0  0  0  0  3  0  0  0  0  0  0
  190.1760  177.2650  142.7370 C   0  0  0  0  0  0  0  0  0  0  0  0
  191.4740  176.9560  144.7560 C   0  0  0  0  0  3  0  0  0  0  0  0
  188.8630  177.4650  140.6540 C   0  0  1  0  0  3  0  0  0  0  0  0
  187.8650  178.2980  141.4620 C   0  0  0  0  0  2  0  0  0  0  0  0
  190.4000  177.0570  146.9800 N   0  0  0  0  0  0  0  0  0  0  0  0
  189.2940  177.4930  147.8180 C   0  0  0  0  0  1  0  0  0  0  0  0
  191.5860  176.5410  147.6450 C   0  0  0  0  0  1  0  0  0  0  0  0
  1 17  1  6  0  0  0
  1  4  1  0  0  0  0
  2  8  2  0  0  0  0
  3  7  1  0  0  0  0
  5  3  2  0  0  0  0
  6  5  1  0  0  0  0
  7  4  2  0  0  0  0
  7 21  1  0  0  0  0
  8  9  1  0  0  0  0
  9  5  1  0  0  0  0
  9  1  1  0  0  0  0
 10  8  1  0  0  0  0
 10  6  2  0  0  0  0
 11 12  1  0  0  0  0
 13 12  1  0  0  0  0
 14 13  2  0  0  0  0
 14 16  1  0  0  0  0
 15 11  2  0  0  0  0
 16 17  2  0  0  0  0
 17 15  1  0  0  0  0
 19 20  1  0  0  0  0
 20 13  1  0  0  0  0
 20 18  1  0  0  0  0
 22 26  1  0  0  0  0
 23 28  1  0  0  0  0
 24 32  1  0  0  0  0
 25 24  1  0  0  0  0
 26 25  2  0  0  0  0
 27 29  1  0  0  0  0
 28 27  2  0  0  0  0
 28 26  1  0  0  0  0
 29 24  2  0  0  0  0
 30 21  1  6  0  0  0
 30 23  1  0  0  0  0
 30 31  1  0  0  0  0
 31 22  1  0  0  0  0
 32 34  1  0  0  0  0
 32 33  1  0  0  0  0
M  END
>  <MODEL>
5

>  <REMARK>
 VINA RESULT:      -9.2      4.479     10.403
  Name = 
  5 active torsions:
  status: ('A' for Active; 'I' for Inactive)
    1  A    between atoms: C_1  and  C_34
    2  A    between atoms: C_7  and  N_11
    3  A    between atoms: C_17  and  C_18
    4  A    between atoms: C_18  and  C_30
    5  A    between atoms: S_24  and  C_25
                            x       y       z     vdW  Elec       q    Type
                         _______ _______ _______ _____ _____    ______ ____

>  <TORSDO>
F 5

$$$$
=
 OpenBabel10272415103D

 34 38  0  0  1  0  0  0  0  0999 V2000
  184.1670  178.4300  139.8650 C   0  0  1  0  0  3  0  0  0  0  0  0
  181.5740  176.8360  140.4250 O   0  0  0  0  0  0  0  0  0  0  0  0
  185.0600  177.1690  137.4320 C   0  0  0  0  0  3  0  0  0  0  0  0
  185.4580  178.7480  139.2330 N   0  0  0  0  0  0  0  0  0  0  0  0
  184.0200  176.6710  138.0900 C   0  0  0  0  0  0  0  0  0  0  0  0
  183.0220  175.8190  137.5400 N   0  0  0  0  0  0  0  0  0  0  0  0
  185.8650  178.2070  138.1130 C   0  0  0  0  0  0  0  0  0  0  0  0
  182.3690  176.5980  139.4770 C   0  0  0  0  0  0  0  0  0  0  0  0
  183.6740  177.1450  139.3780 N   0  0  0  0  0  0  0  0  0  0  0  0
  182.0470  175.7750  138.3580 N   0  0  0  0  0  0  0  0  0  0  0  0
  183.0970  179.1980  143.4010 C   0  0  0  0  0  3  0  0  0  0  0  0
  184.3390  179.6550  144.0890 C   0  0  0  0  0  2  0  0  0  0  0  0
  185.2950  178.5300  144.2990 C   0  0  0  0  0  0  0  0  0  0  0  0
  185.8370  177.8610  143.2780 C   0  0  0  0  0  3  0  0  0  0  0  0
  183.0980  178.6840  142.1730 C   0  0  0  0  0  3  0  0  0  0  0  0
  185.4810  178.0190  141.8540 C   0  0  0  0  0  3  0  0  0  0  0  0
  184.3040  178.4200  141.3540 C   0  0  0  0  0  0  0  0  0  0  0  0
  185.6190  179.4850  146.7000 O   0  0  0  0  0  1  0  0  0  0  0  0
  187.5210  178.0390  145.8200 O   0  0  0  0  0  1  0  0  0  0  0  0
  185.8290  178.1740  145.9530 S   0  0  0  0  0  3  0  0  0  0  0  0
  187.1520  178.6570  137.5000 C   0  0  0  0  0  2  0  0  0  0  0  0
  189.8050  176.4240  139.2120 C   0  0  0  0  0  2  0  0  0  0  0  0
  188.2430  178.7850  139.6710 O   0  0  0  0  0  0  0  0  0  0  0  0
  190.3890  177.1410  142.9030 C   0  0  0  0  0  0  0  0  0  0  0  0
  190.4310  176.5320  141.6380 C   0  0  0  0  0  3  0  0  0  0  0  0
  189.7170  177.0680  140.5640 C   0  0  0  0  0  0  0  0  0  0  0  0
  188.9150  178.8540  141.9950 C   0  0  0  0  0  3  0  0  0  0  0  0
  188.9650  178.2440  140.7400 C   0  0  0  0  0  0  0  0  0  0  0  0
  189.6220  178.3080  143.0680 C   0  0  0  0  0  3  0  0  0  0  0  0
  188.3650  178.2710  138.3430 C   0  0  1  0  0  3  0  0  0  0  0  0
  188.5830  176.7560  138.3580 C   0  0  0  0  0  2  0  0  0  0  0  0
  191.1210  176.5830  144.0090 N   0  0  0  0  0  0  0  0  0  0  0  0
  191.2560  177.3050  145.2650 C   0  0  0  0  0  1  0  0  0  0  0  0
  191.7510  175.2750  143.9140 C   0  0  0  0  0  1  0  0  0  0  0  0
  1 17  1  1  0  0  0
  3  5  2  0  0  0  0
  3  7  1  0  0  0  0
  4  1  1  0  0  0  0
  5  9  1  0  0  0  0
  6  5  1  0  0  0  0
  6 10  2  0  0  0  0
  7  4  2  0  0  0  0
  8  2  2  0  0  0  0
  9  8  1  0  0  0  0
  9  1  1  0  0  0  0
 10  8  1  0  0  0  0
 11 12  1  0  0  0  0
 12 13  1  0  0  0  0
 13 20  1  0  0  0  0
 14 13  2  0  0  0  0
 15 11  2  0  0  0  0
 16 14  1  0  0  0  0
 17 16  2  0  0  0  0
 17 15  1  0  0  0  0
 19 20  1  0  0  0  0
 20 18  1  0  0  0  0
 21  7  1  0  0  0  0
 22 26  1  0  0  0  0
 23 28  1  0  0  0  0
 24 29  1  0  0  0  0
 24 32  1  0  0  0  0
 25 24  2  0  0  0  0
 26 28  2  0  0  0  0
 26 25  1  0  0  0  0
 27 29  2  0  0  0  0
 28 27  1  0  0  0  0
 30 21  1  6  0  0  0
 30 31  1  0  0  0  0
 30 23  1  0  0  0  0
 31 22  1  0  0  0  0
 32 33  1  0  0  0  0
 34 32  1  0  0  0  0
M  END
>  <MODEL>
6

>  <REMARK>
 VINA RESULT:      -9.2      2.548      6.894
  Name = 
  5 active torsions:
  status: ('A' for Active; 'I' for Inactive)
    1  A    between atoms: C_1  and  C_34
    2  A    between atoms: C_7  and  N_11
    3  A    between atoms: C_17  and  C_18
    4  A    between atoms: C_18  and  C_30
    5  A    between atoms: S_24  and  C_25
                            x       y       z     vdW  Elec       q    Type
                         _______ _______ _______ _____ _____    ______ ____

>  <TORSDO>
F 5

$$$$
=
 OpenBabel10272415103D

 34 38  0  0  1  0  0  0  0  0999 V2000
  187.1670  177.4620  144.4110 C   0  0  1  0  0  3  0  0  0  0  0  0
  185.6960  177.5300  147.1330 O   0  0  0  0  0  0  0  0  0  0  0  0
  189.8680  178.0290  145.2440 C   0  0  0  0  0  3  0  0  0  0  0  0
  188.2670  177.6680  143.4540 N   0  0  0  0  0  0  0  0  0  0  0  0
  188.8760  178.1030  146.1230 C   0  0  0  0  0  0  0  0  0  0  0  0
  189.0170  178.0370  147.5380 N   0  0  0  0  0  0  0  0  0  0  0  0
  189.5030  177.8960  143.8160 C   0  0  0  0  0  0  0  0  0  0  0  0
  186.9180  177.7900  146.9740 C   0  0  0  0  0  0  0  0  0  0  0  0
  187.5250  178.0190  145.7120 N   0  0  0  0  0  0  0  0  0  0  0  0
  187.8620  177.8530  148.0410 N   0  0  0  0  0  0  0  0  0  0  0  0
  184.0260  179.5380  144.6610 C   0  0  0  0  0  3  0  0  0  0  0  0
  182.9790  178.7380  143.9610 C   0  0  0  0  0  2  0  0  0  0  0  0
  183.2070  178.7080  142.4870 C   0  0  0  0  0  0  0  0  0  0  0  0
  184.3010  178.1640  141.9500 C   0  0  0  0  0  3  0  0  0  0  0  0
  185.3160  179.2080  144.6480 C   0  0  0  0  0  3  0  0  0  0  0  0
  185.4730  177.6640  142.6960 C   0  0  0  0  0  3  0  0  0  0  0  0
  185.9060  178.0770  143.8950 C   0  0  0  0  0  0  0  0  0  0  0  0
  180.7220  179.4780  142.3540 O   0  0  0  0  0  1  0  0  0  0  0  0
  181.4970  177.9200  140.4950 O   0  0  0  0  0  1  0  0  0  0  0  0
  181.9110  179.2870  141.4220 S   0  0  0  0  0  3  0  0  0  0  0  0
  190.5700  178.0060  142.7740 C   0  0  0  0  0  2  0  0  0  0  0  0
  190.9330  176.5540  139.2080 C   0  0  0  0  0  2  0  0  0  0  0  0
  189.0170  177.8430  140.9070 O   0  0  0  0  0  0  0  0  0  0  0  0
  188.0790  177.3690  136.8280 C   0  0  0  0  0  0  0  0  0  0  0  0
  189.3100  176.9180  137.3320 C   0  0  0  0  0  3  0  0  0  0  0  0
  189.6300  177.0770  138.6820 C   0  0  0  0  0  0  0  0  0  0  0  0
  187.4780  178.1300  139.0620 C   0  0  0  0  0  3  0  0  0  0  0  0
  188.7030  177.6750  139.5550 C   0  0  0  0  0  0  0  0  0  0  0  0
  187.1680  177.9780  137.7090 C   0  0  0  0  0  3  0  0  0  0  0  0
  190.1990  177.2810  141.4820 C   0  0  1  0  0  3  0  0  0  0  0  0
  191.3540  177.2900  140.4790 C   0  0  0  0  0  2  0  0  0  0  0  0
  187.7550  177.2090  135.4340 N   0  0  0  0  0  0  0  0  0  0  0  0
  188.6760  176.5560  134.5160 C   0  0  0  0  0  1  0  0  0  0  0  0
  186.4940  177.6920  134.8930 C   0  0  0  0  0  1  0  0  0  0  0  0
  1 17  1  6  0  0  0
  1  9  1  0  0  0  0
  3  5  2  0  0  0  0
  4  7  2  0  0  0  0
  4  1  1  0  0  0  0
  5  6  1  0  0  0  0
  6 10  2  0  0  0  0
  7  3  1  0  0  0  0
  8  2  2  0  0  0  0
  8 10  1  0  0  0  0
  9  5  1  0  0  0  0
  9  8  1  0  0  0  0
 12 11  1  0  0  0  0
 13 12  1  0  0  0  0
 14 13  2  0  0  0  0
 14 16  1  0  0  0  0
 15 11  2  0  0  0  0
 16 17  2  0  0  0  0
 17 15  1  0  0  0  0
 19 20  1  0  0  0  0
 20 18  1  0  0  0  0
 20 13  1  0  0  0  0
 21  7  1  0  0  0  0
 22 31  1  0  0  0  0
 23 30  1  0  0  0  0
 24 25  2  0  0  0  0
 24 29  1  0  0  0  0
 25 26  1  0  0  0  0
 26 22  1  0  0  0  0
 26 28  2  0  0  0  0
 27 28  1  0  0  0  0
 28 23  1  0  0  0  0
 29 27  2  0  0  0  0
 30 21  1  1  0  0  0
 31 30  1  0  0  0  0
 32 24  1  0  0  0  0
 33 32  1  0  0  0  0
 34 32  1  0  0  0  0
M  END
>  <MODEL>
7

>  <REMARK>
 VINA RESULT:      -9.0      1.570      2.003
  Name = 
  5 active torsions:
  status: ('A' for Active; 'I' for Inactive)
    1  A    between atoms: C_1  and  C_34
    2  A    between atoms: C_7  and  N_11
    3  A    between atoms: C_17  and  C_18
    4  A    between atoms: C_18  and  C_30
    5  A    between atoms: S_24  and  C_25
                            x       y       z     vdW  Elec       q    Type
                         _______ _______ _______ _____ _____    ______ ____

>  <TORSDO>
F 5

$$$$
=
 OpenBabel10272415103D

 34 38  0  0  1  0  0  0  0  0999 V2000
  185.5060  178.2150  137.7100 C   0  0  1  0  0  3  0  0  0  0  0  0
  183.7640  176.8230  135.5650 O   0  0  0  0  0  0  0  0  0  0  0  0
  187.9960  176.7990  137.3830 C   0  0  0  0  0  3  0  0  0  0  0  0
  186.6600  178.4200  138.6020 N   0  0  0  0  0  0  0  0  0  0  0  0
  186.9170  176.4000  136.7210 C   0  0  0  0  0  0  0  0  0  0  0  0
  186.9170  175.5950  135.5460 N   0  0  0  0  0  0  0  0  0  0  0  0
  187.8060  177.8080  138.4500 C   0  0  0  0  0  0  0  0  0  0  0  0
  184.9460  176.4940  135.8490 C   0  0  0  0  0  0  0  0  0  0  0  0
  185.6430  176.9470  136.9990 N   0  0  0  0  0  0  0  0  0  0  0  0
  185.7540  175.6500  135.0320 N   0  0  0  0  0  0  0  0  0  0  0  0
  182.4130  176.7340  139.2840 C   0  0  0  0  0  3  0  0  0  0  0  0
  181.3210  177.7010  138.9730 C   0  0  0  0  0  2  0  0  0  0  0  0
  181.4770  178.9690  139.7430 C   0  0  0  0  0  0  0  0  0  0  0  0
  182.5350  179.7670  139.5880 C   0  0  0  0  0  3  0  0  0  0  0  0
  183.6960  176.9850  139.0300 C   0  0  0  0  0  3  0  0  0  0  0  0
  183.7350  179.4660  138.7820 C   0  0  0  0  0  3  0  0  0  0  0  0
  184.2310  178.2560  138.4890 C   0  0  0  0  0  0  0  0  0  0  0  0
  179.9820  180.9720  140.4750 O   0  0  0  0  0  1  0  0  0  0  0  0
  180.8070  179.4650  142.3540 O   0  0  0  0  0  1  0  0  0  0  0  0
  180.1400  179.4900  140.7880 S   0  0  0  0  0  3  0  0  0  0  0  0
  188.9490  178.1440  139.3520 C   0  0  0  0  0  2  0  0  0  0  0  0
  187.6990  177.7110  142.9870 C   0  0  0  0  0  2  0  0  0  0  0  0
  190.0590  177.4030  141.3870 O   0  0  0  0  0  0  0  0  0  0  0  0
  190.4200  177.0920  145.5730 C   0  0  0  0  0  0  0  0  0  0  0  0
  189.1720  177.3560  144.9840 C   0  0  0  0  0  3  0  0  0  0  0  0
  189.0470  177.4670  143.5970 C   0  0  0  0  0  0  0  0  0  0  0  0
  191.4200  177.0300  143.3520 C   0  0  0  0  0  3  0  0  0  0  0  0
  190.1750  177.2890  142.7760 C   0  0  0  0  0  0  0  0  0  0  0  0
  191.5420  176.9310  144.7410 C   0  0  0  0  0  3  0  0  0  0  0  0
  188.7890  177.5400  140.7450 C   0  0  1  0  0  3  0  0  0  0  0  0
  187.8240  178.3570  141.6070 C   0  0  0  0  0  2  0  0  0  0  0  0
  190.5470  176.9840  147.0030 N   0  0  0  0  0  0  0  0  0  0  0  0
  189.5560  177.5670  147.8940 C   0  0  0  0  0  1  0  0  0  0  0  0
  191.6710  176.2880  147.6090 C   0  0  0  0  0  1  0  0  0  0  0  0
  1 17  1  1  0  0  0
  1  4  1  0  0  0  0
  2  8  2  0  0  0  0
  3  7  1  0  0  0  0
  5  9  1  0  0  0  0
  5  3  2  0  0  0  0
  6  5  1  0  0  0  0
  7  4  2  0  0  0  0
  7 21  1  0  0  0  0
  8  9  1  0  0  0  0
  9  1  1  0  0  0  0
 10  6  2  0  0  0  0
 10  8  1  0  0  0  0
 12 11  1  0  0  0  0
 12 13  1  0  0  0  0
 13 20  1  0  0  0  0
 14 13  2  0  0  0  0
 15 11  2  0  0  0  0
 16 14  1  0  0  0  0
 17 16  2  0  0  0  0
 17 15  1  0  0  0  0
 18 20  1  0  0  0  0
 20 19  1  0  0  0  0
 22 26  1  0  0  0  0
 23 28  1  0  0  0  0
 24 32  1  0  0  0  0
 25 24  1  0  0  0  0
 26 25  2  0  0  0  0
 27 29  1  0  0  0  0
 28 27  2  0  0  0  0
 28 26  1  0  0  0  0
 29 24  2  0  0  0  0
 30 21  1  6  0  0  0
 30 23  1  0  0  0  0
 30 31  1  0  0  0  0
 31 22  1  0  0  0  0
 32 34  1  0  0  0  0
 32 33  1  0  0  0  0
M  END
>  <MODEL>
8

>  <REMARK>
 VINA RESULT:      -9.0      2.754      8.177
  Name = 
  5 active torsions:
  status: ('A' for Active; 'I' for Inactive)
    1  A    between atoms: C_1  and  C_34
    2  A    between atoms: C_7  and  N_11
    3  A    between atoms: C_17  and  C_18
    4  A    between atoms: C_18  and  C_30
    5  A    between atoms: S_24  and  C_25
                            x       y       z     vdW  Elec       q    Type
                         _______ _______ _______ _____ _____    ______ ____

>  <TORSDO>
F 5

$$$$
=
 OpenBabel10272415103D

 34 38  0  0  1  0  0  0  0  0999 V2000
  185.9890  179.0580  141.8510 C   0  0  1  0  0  3  0  0  0  0  0  0
  184.9180  179.2820  144.7450 O   0  0  0  0  0  0  0  0  0  0  0  0
  183.5430  178.5550  140.4100 C   0  0  0  0  0  3  0  0  0  0  0  0
  185.9640  178.7460  140.4120 N   0  0  0  0  0  0  0  0  0  0  0  0
  183.5340  178.5800  141.7370 C   0  0  0  0  0  0  0  0  0  0  0  0
  182.3880  178.7880  142.5540 N   0  0  0  0  0  0  0  0  0  0  0  0
  184.8610  178.5440  139.7370 C   0  0  0  0  0  0  0  0  0  0  0  0
  184.2130  178.9960  143.7430 C   0  0  0  0  0  0  0  0  0  0  0  0
  184.7390  178.6340  142.4760 N   0  0  0  0  0  0  0  0  0  0  0  0
  182.7870  179.0330  143.7380 N   0  0  0  0  0  0  0  0  0  0  0  0
  187.7040  176.9130  144.4390 C   0  0  0  0  0  3  0  0  0  0  0  0
  188.9260  177.6770  144.8230 C   0  0  0  0  0  2  0  0  0  0  0  0
  189.9330  177.6880  143.7220 C   0  0  0  0  0  0  0  0  0  0  0  0
  189.6810  178.2490  142.5370 C   0  0  0  0  0  3  0  0  0  0  0  0
  186.9150  177.2730  143.4280 C   0  0  0  0  0  3  0  0  0  0  0  0
  188.3800  178.7880  142.0950 C   0  0  0  0  0  3  0  0  0  0  0  0
  187.1630  178.4050  142.5050 C   0  0  0  0  0  0  0  0  0  0  0  0
  191.4620  175.5800  143.7220 O   0  0  0  0  0  1  0  0  0  0  0  0
  191.6680  177.0930  145.7590 O   0  0  0  0  0  1  0  0  0  0  0  0
  191.5580  177.0610  144.0600 S   0  0  0  0  0  3  0  0  0  0  0  0
  184.9290  178.3190  138.2610 C   0  0  0  0  0  2  0  0  0  0  0  0
  187.9140  177.9140  135.8350 C   0  0  0  0  0  2  0  0  0  0  0  0
  187.2800  177.8110  138.6300 O   0  0  0  0  0  0  0  0  0  0  0  0
  191.0790  176.4810  137.3850 C   0  0  0  0  0  0  0  0  0  0  0  0
  190.1460  176.9480  136.4450 C   0  0  0  0  0  3  0  0  0  0  0  0
  188.8820  177.3840  136.8500 C   0  0  0  0  0  0  0  0  0  0  0  0
  189.4650  176.9150  139.1570 C   0  0  0  0  0  3  0  0  0  0  0  0
  188.5450  177.3800  138.2160 C   0  0  0  0  0  0  0  0  0  0  0  0
  190.7230  176.4690  138.7450 C   0  0  0  0  0  3  0  0  0  0  0  0
  186.3550  178.4130  137.7220 C   0  0  1  0  0  3  0  0  0  0  0  0
  186.4730  177.7950  136.3270 C   0  0  0  0  0  2  0  0  0  0  0  0
  192.3780  176.0260  136.9640 N   0  0  0  0  0  0  0  0  0  0  0  0
  193.4420  175.7870  137.9270 C   0  0  0  0  0  1  0  0  0  0  0  0
  192.6750  175.7870  135.5600 C   0  0  0  0  0  1  0  0  0  0  0  0
  1  9  1  0  0  0  0
  1 17  1  1  0  0  0
  3  5  2  0  0  0  0
  4  1  1  0  0  0  0
  5  9  1  0  0  0  0
  5  6  1  0  0  0  0
  6 10  2  0  0  0  0
  7  3  1  0  0  0  0
  7  4  2  0  0  0  0
  8  2  2  0  0  0  0
  9  8  1  0  0  0  0
 10  8  1  0  0  0  0
 11 12  1  0  0  0  0
 13 20  1  0  0  0  0
 13 12  1  0  0  0  0
 14 13  2  0  0  0  0
 15 11  2  0  0  0  0
 16 17  2  0  0  0  0
 16 14  1  0  0  0  0
 17 15  1  0  0  0  0
 18 20  1  0  0  0  0
 20 19  1  0  0  0  0
 21  7  1  0  0  0  0
 22 31  1  0  0  0  0
 22 26  1  0  0  0  0
 24 29  1  0  0  0  0
 25 26  1  0  0  0  0
 25 24  2  0  0  0  0
 26 28  2  0  0  0  0
 28 23  1  0  0  0  0
 28 27  1  0  0  0  0
 29 27  2  0  0  0  0
 30 21  1  1  0  0  0
 30 23  1  0  0  0  0
 31 30  1  0  0  0  0
 32 24  1  0  0  0  0
 32 33  1  0  0  0  0
 34 32  1  0  0  0  0
M  END
>  <MODEL>
9

>  <REMARK>
 VINA RESULT:      -9.0      3.420      6.074
  Name = 
  5 active torsions:
  status: ('A' for Active; 'I' for Inactive)
    1  A    between atoms: C_1  and  C_34
    2  A    between atoms: C_7  and  N_11
    3  A    between atoms: C_17  and  C_18
    4  A    between atoms: C_18  and  C_30
    5  A    between atoms: S_24  and  C_25
                            x       y       z     vdW  Elec       q    Type
                         _______ _______ _______ _____ _____    ______ ____

>  <TORSDO>
F 5

$$$$
