=
 OpenBabel10262423453D

 34 38  0  0  1  0  0  0  0  0999 V2000
  183.8730  179.0780  144.0010 C   0  0  0  0  0  0  0  0  0  0  0  0
  184.1140  178.4970  141.5990 C   0  0  0  0  0  0  0  0  0  0  0  0
  186.1710  178.7160  143.0000 C   0  0  1  0  0  3  0  0  0  0  0  0
  188.9920  177.0620  142.0900 C   0  0  0  0  0  2  0  0  0  0  0  0
  183.6070  178.7880  146.3460 O   0  0  0  0  0  1  0  0  0  0  0  0
  182.7360  178.5330  141.4250 O   0  0  0  0  0  1  0  0  0  0  0  0
  186.2610  177.9650  140.5780 C   0  0  0  0  0  3  0  0  0  0  0  0
  184.6740  178.8210  142.7800 C   0  0  0  0  0  0  0  0  0  0  0  0
  188.3730  178.4330  141.8630 C   0  0  2  0  0  3  0  0  0  0  0  0
  182.5840  179.8360  143.9420 C   0  0  0  0  0  1  0  0  0  0  0  0
  186.4590  177.8170  144.1970 C   0  0  0  0  0  0  0  0  0  0  0  0
  184.3320  178.6040  145.1740 C   0  0  0  0  0  0  0  0  0  0  0  0
  184.9390  178.0380  140.4730 C   0  0  0  0  0  3  0  0  0  0  0  0
  188.2200  176.2400  143.1290 C   0  0  0  0  0  2  0  0  0  0  0  0
  187.7320  177.0200  144.3650 C   0  0  1  0  0  3  0  0  0  0  0  0
  186.9190  178.3520  141.7930 N   0  0  0  0  0  0  0  0  0  0  0  0
  185.6080  177.8500  145.2330 C   0  0  0  0  0  3  0  0  0  0  0  0
  190.6560  176.2520  146.0850 N   0  0  0  0  0  0  0  0  0  0  0  0
  190.8030  177.0100  147.3330 C   0  0  0  0  0  2  0  0  0  0  0  0
  188.7860  177.6520  145.2860 C   0  0  2  0  0  3  0  0  0  0  0  0
  189.5720  177.8690  147.6640 C   0  0  0  0  0  2  0  0  0  0  0  0
  190.2150  177.1520  145.0210 C   0  0  0  0  0  2  0  0  0  0  0  0
  188.3860  177.5420  146.7610 C   0  0  0  0  0  2  0  0  0  0  0  0
  191.9820  175.7870  145.7190 C   0  0  0  0  0  1  0  0  0  0  0  0
  188.9820  179.1630  140.6760 C   0  0  0  0  0  2  0  0  0  0  0  0
  189.7420  178.2620  139.9230 O   0  0  0  0  0  0  0  0  0  0  0  0
  189.3240  178.4330  138.6010 C   0  0  0  0  0  2  0  0  0  0  0  0
  187.4790  178.4120  136.3720 C   0  0  0  0  0  1  0  0  0  0  0  0
  188.8610  177.1610  138.0520 N   0  0  0  0  0  0  0  0  0  0  0  0
  187.5390  177.2870  137.4060 C   0  0  2  0  0  3  0  0  0  0  0  0
  188.1480  175.6000  135.7890 O   0  0  0  0  0  0  0  0  0  0  0  0
  189.3540  175.3710  136.4770 C   0  0  0  0  0  2  0  0  0  0  0  0
  189.8560  176.6760  137.0970 C   0  0  0  0  0  2  0  0  0  0  0  0
  187.1770  175.9490  136.7490 C   0  0  0  0  0  2  0  0  0  0  0  0
  1 12  2  0  0  0  0
  2  8  2  0  0  0  0
  3  8  1  6  0  0  0
  3 11  1  0  0  0  0
  4 14  1  0  0  0  0
  6  2  1  0  0  0  0
  7 16  1  0  0  0  0
  8  1  1  0  0  0  0
  9 25  1  6  0  0  0
  9  4  1  0  0  0  0
 10  1  1  0  0  0  0
 11 15  1  0  0  0  0
 11 17  2  0  0  0  0
 12 17  1  0  0  0  0
 12  5  1  0  0  0  0
 13  7  2  0  0  0  0
 13  2  1  0  0  0  0
 15 14  1  6  0  0  0
 15 20  1  0  0  0  0
 16  9  1  0  0  0  0
 16  3  1  0  0  0  0
 18 19  1  0  0  0  0
 19 21  1  0  0  0  0
 20 22  1  1  0  0  0
 20 23  1  0  0  0  0
 22 18  1  0  0  0  0
 23 21  1  0  0  0  0
 24 18  1  0  0  0  0
 26 25  1  0  0  0  0
 27 26  1  0  0  0  0
 29 27  1  0  0  0  0
 30 28  1  6  0  0  0
 30 29  1  0  0  0  0
 31 32  1  0  0  0  0
 31 34  1  0  0  0  0
 32 33  1  0  0  0  0
 33 29  1  0  0  0  0
 34 30  1  0  0  0  0
M  END
>  <MODEL>
1

>  <REMARK>
 VINA RESULT:      -7.6      0.000      0.000
  Name = 
  5 active torsions:
  status: ('A' for Active; 'I' for Inactive)
    1  A    between atoms: C_3  and  N_13
    2  A    between atoms: C_3  and  O_17
    3  A    between atoms: C_12  and  C_28
    4  A    between atoms: O_17  and  C_29
    5  A    between atoms: C_18  and  C_29
                            x       y       z     vdW  Elec       q    Type
                         _______ _______ _______ _____ _____    ______ ____

>  <TORSDO>
F 5

$$$$
=
 OpenBabel10262423453D

 34 38  0  0  1  0  0  0  0  0999 V2000
  188.9720  177.0430  146.0950 C   0  0  0  0  0  0  0  0  0  0  0  0
  191.0420  177.4320  144.7820 C   0  0  0  0  0  0  0  0  0  0  0  0
  188.8770  177.1500  143.5670 C   0  0  1  0  0  3  0  0  0  0  0  0
  188.5100  178.5060  140.4770 C   0  0  0  0  0  2  0  0  0  0  0  0
  186.9890  177.5170  147.3180 O   0  0  0  0  0  1  0  0  0  0  0  0
  191.8010  177.4930  145.9450 O   0  0  0  0  0  1  0  0  0  0  0  0
  191.0370  177.7190  142.3620 C   0  0  0  0  0  3  0  0  0  0  0  0
  189.7270  177.1490  144.8230 C   0  0  0  0  0  0  0  0  0  0  0  0
  188.9450  177.1770  141.0740 C   0  0  2  0  0  3  0  0  0  0  0  0
  189.5670  176.3870  147.3010 C   0  0  0  0  0  1  0  0  0  0  0  0
  187.7020  178.1060  143.7340 C   0  0  0  0  0  0  0  0  0  0  0  0
  187.7300  177.5610  146.1430 C   0  0  0  0  0  0  0  0  0  0  0  0
  191.7080  177.7430  143.5090 C   0  0  0  0  0  3  0  0  0  0  0  0
  187.9380  179.4590  141.5330 C   0  0  0  0  0  2  0  0  0  0  0  0
  187.0170  178.8090  142.5860 C   0  0  1  0  0  3  0  0  0  0  0  0
  189.6460  177.3670  142.3380 N   0  0  0  0  0  0  0  0  0  0  0  0
  187.1410  178.2130  144.9480 C   0  0  0  0  0  3  0  0  0  0  0  0
  184.3180  179.3760  140.4650 N   0  0  0  0  0  0  0  0  0  0  0  0
  183.0710  178.7770  140.9520 C   0  0  0  0  0  2  0  0  0  0  0  0
  185.7100  178.1610  142.1030 C   0  0  2  0  0  3  0  0  0  0  0  0
  183.2090  178.1540  142.3510 C   0  0  0  0  0  2  0  0  0  0  0  0
  185.4090  178.4140  140.6170 C   0  0  0  0  0  2  0  0  0  0  0  0
  184.5320  178.5230  143.0140 C   0  0  0  0  0  2  0  0  0  0  0  0
  184.1490  179.5950  139.0400 C   0  0  0  0  0  1  0  0  0  0  0  0
  189.7250  176.3180  140.0890 C   0  0  0  0  0  2  0  0  0  0  0  0
  189.9910  177.0660  138.9380 O   0  0  0  0  0  0  0  0  0  0  0  0
  189.6800  176.2270  137.8650 C   0  0  0  0  0  2  0  0  0  0  0  0
  188.4040  177.7470  135.7600 C   0  0  0  0  0  1  0  0  0  0  0  0
  188.2310  176.1530  137.6900 N   0  0  0  0  0  0  0  0  0  0  0  0
  187.6880  177.3720  137.0600 C   0  0  2  0  0  3  0  0  0  0  0  0
  185.9900  176.0630  135.9480 O   0  0  0  0  0  0  0  0  0  0  0  0
  186.4090  174.9170  136.6500 C   0  0  0  0  0  2  0  0  0  0  0  0
  187.9200  174.9730  136.8840 C   0  0  0  0  0  2  0  0  0  0  0  0
  186.1910  177.1720  136.7950 C   0  0  0  0  0  2  0  0  0  0  0  0
  1 12  2  0  0  0  0
  1 10  1  0  0  0  0
  2  8  2  0  0  0  0
  2  6  1  0  0  0  0
  3 11  1  1  0  0  0
  3  8  1  0  0  0  0
  4  9  1  0  0  0  0
  4 14  1  0  0  0  0
  7 13  2  0  0  0  0
  8  1  1  0  0  0  0
  9 25  1  6  0  0  0
  9 16  1  0  0  0  0
 11 17  2  0  0  0  0
 12  5  1  0  0  0  0
 13  2  1  0  0  0  0
 15 14  1  6  0  0  0
 15 11  1  0  0  0  0
 16  7  1  0  0  0  0
 16  3  1  0  0  0  0
 17 12  1  0  0  0  0
 18 22  1  0  0  0  0
 18 19  1  0  0  0  0
 19 21  1  0  0  0  0
 20 22  1  6  0  0  0
 20 15  1  0  0  0  0
 20 23  1  0  0  0  0
 21 23  1  0  0  0  0
 24 18  1  0  0  0  0
 26 25  1  0  0  0  0
 27 26  1  0  0  0  0
 29 27  1  0  0  0  0
 30 28  1  6  0  0  0
 30 29  1  0  0  0  0
 31 32  1  0  0  0  0
 31 34  1  0  0  0  0
 32 33  1  0  0  0  0
 33 29  1  0  0  0  0
 34 30  1  0  0  0  0
M  END
>  <MODEL>
2

>  <REMARK>
 VINA RESULT:      -7.4      2.044      5.349
  Name = 
  5 active torsions:
  status: ('A' for Active; 'I' for Inactive)
    1  A    between atoms: C_3  and  N_13
    2  A    between atoms: C_3  and  O_17
    3  A    between atoms: C_12  and  C_28
    4  A    between atoms: O_17  and  C_29
    5  A    between atoms: C_18  and  C_29
                            x       y       z     vdW  Elec       q    Type
                         _______ _______ _______ _____ _____    ______ ____

>  <TORSDO>
F 5

$$$$
=
 OpenBabel10262423453D

 34 38  0  0  1  0  0  0  0  0999 V2000
  185.4770  178.9130  140.7900 C   0  0  1  0  0  3  0  0  0  0  0  0
  186.8160  177.7890  139.0270 C   0  0  0  0  0  0  0  0  0  0  0  0
  187.8760  178.2420  141.2440 C   0  0  0  0  0  0  0  0  0  0  0  0
  190.4740  176.3160  142.2750 C   0  0  0  0  0  2  0  0  0  0  0  0
  184.0110  179.1780  142.6440 O   0  0  0  0  0  1  0  0  0  0  0  0
  185.7440  177.8380  138.1440 O   0  0  0  0  0  1  0  0  0  0  0  0
  189.0720  176.9540  139.4130 C   0  0  0  0  0  3  0  0  0  0  0  0
  186.7380  178.3520  140.2480 C   0  0  0  0  0  0  0  0  0  0  0  0
  190.2760  177.6210  141.5200 C   0  0  2  0  0  3  0  0  0  0  0  0
  184.5330  179.6860  139.9250 C   0  0  0  0  0  1  0  0  0  0  0  0
  187.3720  177.6300  142.5450 C   0  0  0  0  0  0  0  0  0  0  0  0
  185.1940  178.7020  142.0890 C   0  0  0  0  0  0  0  0  0  0  0  0
  188.0180  177.0530  138.6110 C   0  0  0  0  0  3  0  0  0  0  0  0
  189.1650  175.7830  142.8690 C   0  0  0  0  0  2  0  0  0  0  0  0
  188.2400  176.8440  143.5000 C   0  0  1  0  0  3  0  0  0  0  0  0
  189.0690  177.5830  140.7030 N   0  0  0  0  0  0  0  0  0  0  0  0
  186.1280  177.9330  142.9470 C   0  0  0  0  0  3  0  0  0  0  0  0
  190.4050  176.5500  146.2070 N   0  0  0  0  0  0  0  0  0  0  0  0
  189.9530  177.3000  147.3850 C   0  0  0  0  0  2  0  0  0  0  0  0
  188.7610  177.6290  144.7130 C   0  0  2  0  0  3  0  0  0  0  0  0
  188.5640  177.9320  147.2010 C   0  0  0  0  0  2  0  0  0  0  0  0
  190.2480  177.3820  145.0150 C   0  0  0  0  0  2  0  0  0  0  0  0
  187.8680  177.4260  145.9410 C   0  0  0  0  0  2  0  0  0  0  0  0
  191.8280  176.3230  146.3760 C   0  0  0  0  0  1  0  0  0  0  0  0
  191.5090  178.0370  140.7310 C   0  0  0  0  0  2  0  0  0  0  0  0
  192.3040  176.9100  140.4950 O   0  0  0  0  0  0  0  0  0  0  0  0
  192.6180  176.9520  139.1340 C   0  0  0  0  0  2  0  0  0  0  0  0
  191.3850  176.3730  136.5820 C   0  0  0  0  0  1  0  0  0  0  0  0
  192.6750  175.5970  138.5900 N   0  0  0  0  0  0  0  0  0  0  0  0
  191.5450  175.3200  137.6810 C   0  0  2  0  0  3  0  0  0  0  0  0
  192.9520  173.8860  136.3400 O   0  0  0  0  0  0  0  0  0  0  0  0
  193.9950  174.0310  137.2740 C   0  0  0  0  0  2  0  0  0  0  0  0
  193.9500  175.4290  137.8930 C   0  0  0  0  0  2  0  0  0  0  0  0
  191.7390  173.9330  137.0560 C   0  0  0  0  0  2  0  0  0  0  0  0
  1 10  1  6  0  0  0
  1 12  1  0  0  0  0
  2  8  2  0  0  0  0
  3 11  2  0  0  0  0
  4 14  1  0  0  0  0
  6  2  1  0  0  0  0
  7 16  1  0  0  0  0
  8  1  1  0  0  0  0
  8  3  1  0  0  0  0
  9 25  1  6  0  0  0
  9  4  1  0  0  0  0
 11 17  1  0  0  0  0
 11 15  1  0  0  0  0
 12  5  1  0  0  0  0
 12 17  2  0  0  0  0
 13  2  1  0  0  0  0
 13  7  2  0  0  0  0
 15 14  1  6  0  0  0
 15 20  1  0  0  0  0
 16  3  1  0  0  0  0
 16  9  1  0  0  0  0
 18 24  1  0  0  0  0
 18 19  1  0  0  0  0
 20 22  1  1  0  0  0
 20 23  1  0  0  0  0
 21 19  1  0  0  0  0
 22 18  1  0  0  0  0
 23 21  1  0  0  0  0
 26 25  1  0  0  0  0
 27 26  1  0  0  0  0
 29 27  1  0  0  0  0
 30 28  1  6  0  0  0
 30 29  1  0  0  0  0
 31 34  1  0  0  0  0
 31 32  1  0  0  0  0
 32 33  1  0  0  0  0
 33 29  1  0  0  0  0
 34 30  1  0  0  0  0
M  END
>  <MODEL>
3

>  <REMARK>
 VINA RESULT:      -7.4      2.321      3.176
  Name = 
  5 active torsions:
  status: ('A' for Active; 'I' for Inactive)
    1  A    between atoms: C_3  and  N_13
    2  A    between atoms: C_3  and  O_17
    3  A    between atoms: C_12  and  C_28
    4  A    between atoms: O_17  and  C_29
    5  A    between atoms: C_18  and  C_29
                            x       y       z     vdW  Elec       q    Type
                         _______ _______ _______ _____ _____    ______ ____

>  <TORSDO>
F 5

$$$$
=
 OpenBabel10262423453D

 34 38  0  0  1  0  0  0  0  0999 V2000
  188.1790  177.5860  142.8330 C   0  0  0  0  0  0  0  0  0  0  0  0
  190.6370  177.6330  142.4800 C   0  0  0  0  0  0  0  0  0  0  0  0
  189.1520  177.0410  140.5590 C   0  0  1  0  0  3  0  0  0  0  0  0
  190.2440  177.5580  137.3870 C   0  0  0  0  0  2  0  0  0  0  0  0
  185.9310  178.3500  142.9420 O   0  0  0  0  0  1  0  0  0  0  0  0
  190.8470  177.9930  143.8060 O   0  0  0  0  0  1  0  0  0  0  0  0
  191.6640  177.2900  140.2980 C   0  0  0  0  0  3  0  0  0  0  0  0
  189.4000  177.3650  142.0200 C   0  0  0  0  0  0  0  0  0  0  0  0
  190.2490  176.4280  138.4050 C   0  0  2  0  0  3  0  0  0  0  0  0
  188.1480  177.2640  144.2940 C   0  0  0  0  0  1  0  0  0  0  0  0
  188.1220  178.0030  139.9800 C   0  0  0  0  0  0  0  0  0  0  0  0
  187.0920  178.0940  142.2230 C   0  0  0  0  0  0  0  0  0  0  0  0
  191.7980  177.6100  141.5800 C   0  0  0  0  0  3  0  0  0  0  0  0
  189.3900  178.7470  137.8430 C   0  0  0  0  0  2  0  0  0  0  0  0
  188.0530  178.3860  138.5200 C   0  0  1  0  0  3  0  0  0  0  0  0
  190.3790  176.9390  139.7640 N   0  0  0  0  0  0  0  0  0  0  0  0
  187.1240  178.4160  140.7760 C   0  0  0  0  0  3  0  0  0  0  0  0
  187.7050  175.6300  136.4260 N   0  0  0  0  0  0  0  0  0  0  0  0
  186.6870  175.8250  135.3870 C   0  0  0  0  0  2  0  0  0  0  0  0
  187.0030  177.6310  137.6910 C   0  0  2  0  0  3  0  0  0  0  0  0
  186.1030  177.2470  135.3750 C   0  0  0  0  0  2  0  0  0  0  0  0
  187.1860  176.1050  137.7080 C   0  0  0  0  0  2  0  0  0  0  0  0
  186.8930  178.1970  136.2710 C   0  0  0  0  0  2  0  0  0  0  0  0
  187.9000  174.1980  136.5580 C   0  0  0  0  0  1  0  0  0  0  0  0
  191.2710  175.3480  138.0790 C   0  0  0  0  0  2  0  0  0  0  0  0
  192.2870  175.9010  137.2940 O   0  0  0  0  0  0  0  0  0  0  0  0
  193.4470  175.2000  137.6350 C   0  0  0  0  0  2  0  0  0  0  0  0
  195.0580  173.4790  135.9570 C   0  0  0  0  0  1  0  0  0  0  0  0
  194.5950  175.7500  136.9190 N   0  0  0  0  0  0  0  0  0  0  0  0
  195.6200  174.7230  136.6480 C   0  0  2  0  0  3  0  0  0  0  0  0
  196.1990  175.8200  134.5760 O   0  0  0  0  0  0  0  0  0  0  0  0
  195.3250  176.8790  134.8880 C   0  0  0  0  0  2  0  0  0  0  0  0
  194.1230  176.3470  135.6700 C   0  0  0  0  0  2  0  0  0  0  0  0
  196.7310  175.3420  135.7900 C   0  0  0  0  0  2  0  0  0  0  0  0
  1 10  1  0  0  0  0
  2  6  1  0  0  0  0
  3 11  1  6  0  0  0
  3  8  1  0  0  0  0
  4 14  1  0  0  0  0
  4  9  1  0  0  0  0
  7 13  2  0  0  0  0
  8  2  2  0  0  0  0
  8  1  1  0  0  0  0
  9 25  1  6  0  0  0
  9 16  1  0  0  0  0
 11 17  2  0  0  0  0
 12  1  2  0  0  0  0
 12  5  1  0  0  0  0
 13  2  1  0  0  0  0
 15 14  1  6  0  0  0
 15 11  1  0  0  0  0
 16  7  1  0  0  0  0
 16  3  1  0  0  0  0
 17 12  1  0  0  0  0
 18 24  1  0  0  0  0
 18 22  1  0  0  0  0
 19 18  1  0  0  0  0
 20 23  1  6  0  0  0
 20 22  1  0  0  0  0
 20 15  1  0  0  0  0
 21 19  1  0  0  0  0
 21 23  1  0  0  0  0
 26 27  1  0  0  0  0
 26 25  1  0  0  0  0
 29 27  1  0  0  0  0
 30 28  1  6  0  0  0
 30 29  1  0  0  0  0
 31 32  1  0  0  0  0
 31 34  1  0  0  0  0
 32 33  1  0  0  0  0
 33 29  1  0  0  0  0
 34 30  1  0  0  0  0
M  END
>  <MODEL>
4

>  <REMARK>
 VINA RESULT:      -7.3      3.471      7.191
  Name = 
  5 active torsions:
  status: ('A' for Active; 'I' for Inactive)
    1  A    between atoms: C_3  and  N_13
    2  A    between atoms: C_3  and  O_17
    3  A    between atoms: C_12  and  C_28
    4  A    between atoms: O_17  and  C_29
    5  A    between atoms: C_18  and  C_29
                            x       y       z     vdW  Elec       q    Type
                         _______ _______ _______ _____ _____    ______ ____

>  <TORSDO>
F 5

$$$$
=
 OpenBabel10262423453D

 34 38  0  0  1  0  0  0  0  0999 V2000
  185.8480  173.5830  136.8130 C   0  0  1  0  0  3  0  0  0  0  0  0
  184.9200  175.8210  137.3580 C   0  0  0  0  0  0  0  0  0  0  0  0
  187.3990  175.5360  137.2500 C   0  0  0  0  0  0  0  0  0  0  0  0
  189.3580  178.2240  136.5720 C   0  0  0  0  0  2  0  0  0  0  0  0
  186.6610  171.7670  135.5120 O   0  0  0  0  0  1  0  0  0  0  0  0
  183.6210  175.3340  137.2660 O   0  0  0  0  0  1  0  0  0  0  0  0
  186.3160  177.7990  137.6310 C   0  0  0  0  0  3  0  0  0  0  0  0
  185.9800  175.0030  137.2220 C   0  0  0  0  0  0  0  0  0  0  0  0
  188.8100  177.5170  137.8020 C   0  0  2  0  0  3  0  0  0  0  0  0
  184.7360  172.7250  137.3280 C   0  0  0  0  0  1  0  0  0  0  0  0
  188.1330  175.1310  135.9770 C   0  0  0  0  0  0  0  0  0  0  0  0
  186.7540  173.0820  135.9540 C   0  0  0  0  0  0  0  0  0  0  0  0
  185.1010  177.2660  137.5500 C   0  0  0  0  0  3  0  0  0  0  0  0
  189.0870  177.4410  135.2820 C   0  0  0  0  0  2  0  0  0  0  0  0
  189.2780  175.9140  135.3780 C   0  0  1  0  0  3  0  0  0  0  0  0
  187.4830  176.9690  137.5500 N   0  0  0  0  0  0  0  0  0  0  0  0
  187.8550  173.9330  135.4400 C   0  0  0  0  0  3  0  0  0  0  0  0
  192.0100  176.5120  137.4460 N   0  0  0  0  0  0  0  0  0  0  0  0
  193.2900  176.1590  136.8210 C   0  0  0  0  0  2  0  0  0  0  0  0
  190.6810  175.3790  135.7000 C   0  0  2  0  0  3  0  0  0  0  0  0
  193.1450  175.7350  135.3500 C   0  0  0  0  0  2  0  0  0  0  0  0
  191.0390  175.4490  137.1940 C   0  0  0  0  0  2  0  0  0  0  0  0
  191.7480  176.0210  134.8070 C   0  0  0  0  0  2  0  0  0  0  0  0
  192.2380  176.5400  138.8790 C   0  0  0  0  0  1  0  0  0  0  0  0
  188.8630  178.3860  139.0510 C   0  0  0  0  0  2  0  0  0  0  0  0
  189.0990  177.5740  140.1650 O   0  0  0  0  0  0  0  0  0  0  0  0
  188.5510  178.2600  141.2520 C   0  0  0  0  0  2  0  0  0  0  0  0
  187.8440  176.5300  143.4600 C   0  0  0  0  0  1  0  0  0  0  0  0
  189.4370  178.1590  142.4080 N   0  0  0  0  0  0  0  0  0  0  0  0
  188.7050  177.7830  143.6340 C   0  0  2  0  0  3  0  0  0  0  0  0
  190.6290  176.5590  144.4310 O   0  0  0  0  0  0  0  0  0  0  0  0
  191.3820  177.0250  143.3370 C   0  0  0  0  0  2  0  0  0  0  0  0
  190.4800  177.1780  142.1110 C   0  0  0  0  0  2  0  0  0  0  0  0
  189.7120  177.5740  144.7710 C   0  0  0  0  0  2  0  0  0  0  0  0
  1  8  1  0  0  0  0
  1 10  1  6  0  0  0
  2 13  1  0  0  0  0
  3 16  1  0  0  0  0
  4  9  1  0  0  0  0
  5 12  1  0  0  0  0
  6  2  1  0  0  0  0
  8  3  1  0  0  0  0
  8  2  2  0  0  0  0
  9 25  1  1  0  0  0
 11  3  2  0  0  0  0
 12  1  1  0  0  0  0
 13  7  2  0  0  0  0
 14  4  1  0  0  0  0
 15 14  1  1  0  0  0
 15 20  1  0  0  0  0
 15 11  1  0  0  0  0
 16  7  1  0  0  0  0
 16  9  1  0  0  0  0
 17 12  2  0  0  0  0
 17 11  1  0  0  0  0
 18 24  1  0  0  0  0
 19 18  1  0  0  0  0
 20 23  1  6  0  0  0
 20 22  1  0  0  0  0
 21 19  1  0  0  0  0
 22 18  1  0  0  0  0
 23 21  1  0  0  0  0
 25 26  1  0  0  0  0
 26 27  1  0  0  0  0
 27 29  1  0  0  0  0
 29 30  1  0  0  0  0
 30 28  1  6  0  0  0
 30 34  1  0  0  0  0
 31 34  1  0  0  0  0
 32 31  1  0  0  0  0
 33 29  1  0  0  0  0
 33 32  1  0  0  0  0
M  END
>  <MODEL>
5

>  <REMARK>
 VINA RESULT:      -7.0      3.119      7.954
  Name = 
  5 active torsions:
  status: ('A' for Active; 'I' for Inactive)
    1  A    between atoms: C_3  and  N_13
    2  A    between atoms: C_3  and  O_17
    3  A    between atoms: C_12  and  C_28
    4  A    between atoms: O_17  and  C_29
    5  A    between atoms: C_18  and  C_29
                            x       y       z     vdW  Elec       q    Type
                         _______ _______ _______ _____ _____    ______ ____

>  <TORSDO>
F 5

$$$$
=
 OpenBabel10262423453D

 34 38  0  0  1  0  0  0  0  0999 V2000
  188.7460  177.1520  146.1500 C   0  0  0  0  0  0  0  0  0  0  0  0
  190.8790  177.5240  144.9340 C   0  0  0  0  0  0  0  0  0  0  0  0
  188.7810  177.1870  143.6180 C   0  0  1  0  0  3  0  0  0  0  0  0
  188.5630  178.4520  140.4760 C   0  0  0  0  0  2  0  0  0  0  0  0
  186.6990  177.6420  147.2560 O   0  0  0  0  0  1  0  0  0  0  0  0
  191.5750  177.6250  146.1320 O   0  0  0  0  0  1  0  0  0  0  0  0
  190.9960  177.7430  142.5100 C   0  0  0  0  0  3  0  0  0  0  0  0
  189.5650  177.2290  144.9160 C   0  0  0  0  0  0  0  0  0  0  0  0
  188.9770  177.1450  141.1320 C   0  0  2  0  0  3  0  0  0  0  0  0
  189.2840  176.5360  147.4030 C   0  0  0  0  0  1  0  0  0  0  0  0
  187.5910  178.1360  143.6980 C   0  0  0  0  0  0  0  0  0  0  0  0
  187.5000  177.6590  146.1190 C   0  0  0  0  0  0  0  0  0  0  0  0
  191.6060  177.8060  143.6880 C   0  0  0  0  0  3  0  0  0  0  0  0
  187.9290  179.4290  141.4740 C   0  0  0  0  0  2  0  0  0  0  0  0
  186.9600  178.8000  142.4960 C   0  0  1  0  0  3  0  0  0  0  0  0
  189.6110  177.3770  142.4240 N   0  0  0  0  0  0  0  0  0  0  0  0
  186.9680  178.2720  144.8780 C   0  0  0  0  0  3  0  0  0  0  0  0
  184.2950  179.3420  140.3260 N   0  0  0  0  0  0  0  0  0  0  0  0
  183.0560  178.6930  140.7690 C   0  0  0  0  0  2  0  0  0  0  0  0
  185.6860  178.1260  141.9660 C   0  0  2  0  0  3  0  0  0  0  0  0
  183.1800  178.0370  142.1540 C   0  0  0  0  0  2  0  0  0  0  0  0
  185.4110  178.4090  140.4800 C   0  0  0  0  0  2  0  0  0  0  0  0
  184.4760  178.4280  142.8570 C   0  0  0  0  0  2  0  0  0  0  0  0
  184.1520  179.5930  138.9040 C   0  0  0  0  0  1  0  0  0  0  0  0
  189.8140  176.2660  140.2140 C   0  0  0  0  0  2  0  0  0  0  0  0
  190.0110  176.9300  138.9990 O   0  0  0  0  0  0  0  0  0  0  0  0
  190.9730  176.1810  138.3150 C   0  0  0  0  0  2  0  0  0  0  0  0
  189.3870  174.1750  136.9600 C   0  0  0  0  0  1  0  0  0  0  0  0
  190.7530  176.2780  136.8730 N   0  0  0  0  0  0  0  0  0  0  0  0
  190.5020  174.9570  136.2630 C   0  0  2  0  0  3  0  0  0  0  0  0
  189.0170  175.9670  134.6480 O   0  0  0  0  0  0  0  0  0  0  0  0
  189.3550  177.2450  135.1300 C   0  0  0  0  0  2  0  0  0  0  0  0
  189.6270  177.1790  136.6340 C   0  0  0  0  0  2  0  0  0  0  0  0
  190.1590  175.1520  134.7810 C   0  0  0  0  0  2  0  0  0  0  0  0
  1 10  1  0  0  0  0
  2  6  1  0  0  0  0
  3 11  1  1  0  0  0
  3  8  1  0  0  0  0
  4  9  1  0  0  0  0
  4 14  1  0  0  0  0
  7 13  2  0  0  0  0
  8  2  2  0  0  0  0
  8  1  1  0  0  0  0
  9 25  1  6  0  0  0
  9 16  1  0  0  0  0
 11 17  2  0  0  0  0
 12  1  2  0  0  0  0
 12  5  1  0  0  0  0
 13  2  1  0  0  0  0
 15 14  1  6  0  0  0
 15 11  1  0  0  0  0
 16  7  1  0  0  0  0
 16  3  1  0  0  0  0
 17 12  1  0  0  0  0
 18 22  1  0  0  0  0
 18 19  1  0  0  0  0
 19 21  1  0  0  0  0
 20 22  1  6  0  0  0
 20 15  1  0  0  0  0
 20 23  1  0  0  0  0
 21 23  1  0  0  0  0
 24 18  1  0  0  0  0
 26 25  1  0  0  0  0
 27 26  1  0  0  0  0
 29 27  1  0  0  0  0
 30 29  1  0  0  0  0
 30 28  1  1  0  0  0
 31 34  1  0  0  0  0
 31 32  1  0  0  0  0
 32 33  1  0  0  0  0
 33 29  1  0  0  0  0
 34 30  1  0  0  0  0
M  END
>  <MODEL>
6

>  <REMARK>
 VINA RESULT:      -7.0      2.173      5.446
  Name = 
  5 active torsions:
  status: ('A' for Active; 'I' for Inactive)
    1  A    between atoms: C_3  and  N_13
    2  A    between atoms: C_3  and  O_17
    3  A    between atoms: C_12  and  C_28
    4  A    between atoms: O_17  and  C_29
    5  A    between atoms: C_18  and  C_29
                            x       y       z     vdW  Elec       q    Type
                         _______ _______ _______ _____ _____    ______ ____

>  <TORSDO>
F 5

$$$$
=
 OpenBabel10262423453D

 34 38  0  0  1  0  0  0  0  0999 V2000
  186.6220  174.0580  136.7980 C   0  0  1  0  0  3  0  0  0  0  0  0
  186.7140  176.4950  137.2640 C   0  0  0  0  0  0  0  0  0  0  0  0
  188.7820  175.1280  137.5730 C   0  0  0  0  0  0  0  0  0  0  0  0
  191.8190  176.6270  137.3520 C   0  0  0  0  0  2  0  0  0  0  0  0
  186.7480  172.0170  135.5850 O   0  0  0  0  0  1  0  0  0  0  0  0
  185.3720  176.6360  136.9300 O   0  0  0  0  0  1  0  0  0  0  0  0
  188.7760  177.6510  137.8520 C   0  0  0  0  0  3  0  0  0  0  0  0
  187.3030  175.2840  137.2800 C   0  0  0  0  0  0  0  0  0  0  0  0
  190.8110  176.2920  138.4390 C   0  0  2  0  0  3  0  0  0  0  0  0
  185.1740  173.8090  137.0800 C   0  0  0  0  0  1  0  0  0  0  0  0
  189.4640  174.3850  136.4310 C   0  0  0  0  0  0  0  0  0  0  0  0
  187.3420  173.1690  136.0890 C   0  0  0  0  0  0  0  0  0  0  0  0
  187.4860  177.7140  137.5420 C   0  0  0  0  0  3  0  0  0  0  0  0
  191.4530  175.9940  136.0040 C   0  0  0  0  0  2  0  0  0  0  0  0
  190.9220  174.5490  136.0700 C   0  0  1  0  0  3  0  0  0  0  0  0
  189.4440  176.3840  137.9410 N   0  0  0  0  0  0  0  0  0  0  0  0
  188.7770  173.4170  135.8070 C   0  0  0  0  0  3  0  0  0  0  0  0
  194.2980  173.7750  136.3900 N   0  0  0  0  0  0  0  0  0  0  0  0
  194.5650  172.3340  136.3150 C   0  0  0  0  0  2  0  0  0  0  0  0
  191.8590  173.4570  136.6080 C   0  0  2  0  0  3  0  0  0  0  0  0
  193.3140  171.5060  135.9770 C   0  0  0  0  0  2  0  0  0  0  0  0
  193.1410  174.0080  137.2520 C   0  0  0  0  0  2  0  0  0  0  0  0
  192.1440  172.3870  135.5490 C   0  0  0  0  0  2  0  0  0  0  0  0
  195.4410  174.3790  137.0490 C   0  0  0  0  0  1  0  0  0  0  0  0
  191.0310  177.0970  139.7120 C   0  0  0  0  0  2  0  0  0  0  0  0
  190.5280  176.3790  140.8010 O   0  0  0  0  0  0  0  0  0  0  0  0
  189.6220  177.2380  141.4300 C   0  0  0  0  0  2  0  0  0  0  0  0
  187.9530  176.5740  143.6980 C   0  0  0  0  0  1  0  0  0  0  0  0
  190.0780  177.5460  142.7840 N   0  0  0  0  0  0  0  0  0  0  0  0
  188.9500  177.7350  143.7160 C   0  0  2  0  0  3  0  0  0  0  0  0
  190.2610  176.8040  145.5190 O   0  0  0  0  0  0  0  0  0  0  0  0
  191.3860  176.7470  144.6760 C   0  0  0  0  0  2  0  0  0  0  0  0
  190.9470  176.4610  143.2390 C   0  0  0  0  0  2  0  0  0  0  0  0
  189.5030  177.9280  145.1340 C   0  0  0  0  0  2  0  0  0  0  0  0
  1 10  1  6  0  0  0
  1  8  1  0  0  0  0
  2  8  2  0  0  0  0
  2 13  1  0  0  0  0
  3 16  1  0  0  0  0
  4  9  1  0  0  0  0
  5 12  1  0  0  0  0
  6  2  1  0  0  0  0
  7 16  1  0  0  0  0
  8  3  1  0  0  0  0
  9 25  1  1  0  0  0
 11  3  2  0  0  0  0
 12  1  1  0  0  0  0
 13  7  2  0  0  0  0
 14  4  1  0  0  0  0
 15 14  1  1  0  0  0
 15 11  1  0  0  0  0
 15 20  1  0  0  0  0
 16  9  1  0  0  0  0
 17 12  2  0  0  0  0
 17 11  1  0  0  0  0
 18 24  1  0  0  0  0
 18 22  1  0  0  0  0
 19 18  1  0  0  0  0
 20 23  1  6  0  0  0
 20 22  1  0  0  0  0
 21 19  1  0  0  0  0
 23 21  1  0  0  0  0
 25 26  1  0  0  0  0
 26 27  1  0  0  0  0
 27 29  1  0  0  0  0
 29 33  1  0  0  0  0
 29 30  1  0  0  0  0
 30 28  1  1  0  0  0
 30 34  1  0  0  0  0
 32 31  1  0  0  0  0
 33 32  1  0  0  0  0
 34 31  1  0  0  0  0
M  END
>  <MODEL>
7

>  <REMARK>
 VINA RESULT:      -6.5      3.113      8.433
  Name = 
  5 active torsions:
  status: ('A' for Active; 'I' for Inactive)
    1  A    between atoms: C_3  and  N_13
    2  A    between atoms: C_3  and  O_17
    3  A    between atoms: C_12  and  C_28
    4  A    between atoms: O_17  and  C_29
    5  A    between atoms: C_18  and  C_29
                            x       y       z     vdW  Elec       q    Type
                         _______ _______ _______ _____ _____    ______ ____

>  <TORSDO>
F 5

$$$$
=
 OpenBabel10262423453D

 34 38  0  0  1  0  0  0  0  0999 V2000
  189.6860  177.8380  147.6530 C   0  0  0  0  0  0  0  0  0  0  0  0
  187.2140  177.5970  147.6440 C   0  0  0  0  0  0  0  0  0  0  0  0
  188.3830  178.1310  145.5010 C   0  0  1  0  0  3  0  0  0  0  0  0
  186.9270  177.2880  142.5540 C   0  0  0  0  0  2  0  0  0  0  0  0
  191.9820  177.2380  147.5070 O   0  0  0  0  0  1  0  0  0  0  0  0
  187.2090  177.3320  149.0080 O   0  0  0  0  0  1  0  0  0  0  0  0
  185.8850  177.6940  145.6050 C   0  0  0  0  0  3  0  0  0  0  0  0
  188.3550  177.9100  147.0010 C   0  0  0  0  0  0  0  0  0  0  0  0
  186.9680  178.4940  143.4790 C   0  0  2  0  0  3  0  0  0  0  0  0
  189.8840  178.2780  149.0690 C   0  0  0  0  0  1  0  0  0  0  0  0
  189.3990  177.1970  144.8560 C   0  0  0  0  0  0  0  0  0  0  0  0
  190.7190  177.3570  146.9370 C   0  0  0  0  0  0  0  0  0  0  0  0
  185.9460  177.4700  146.9130 C   0  0  0  0  0  3  0  0  0  0  0  0
  187.9230  176.1990  142.9710 C   0  0  0  0  0  2  0  0  0  0  0  0
  189.3050  176.7030  143.4310 C   0  0  1  0  0  3  0  0  0  0  0  0
  187.0570  178.0860  144.8760 N   0  0  0  0  0  0  0  0  0  0  0  0
  190.5220  176.9170  145.5340 C   0  0  0  0  0  3  0  0  0  0  0  0
  190.2340  176.6590  140.0790 N   0  0  0  0  0  0  0  0  0  0  0  0
  191.6000  177.1460  139.8570 C   0  0  0  0  0  2  0  0  0  0  0  0
  190.1750  177.4580  142.4150 C   0  0  2  0  0  3  0  0  0  0  0  0
  192.3560  177.4370  141.1640 C   0  0  0  0  0  2  0  0  0  0  0  0
  189.5490  177.5490  141.0140 C   0  0  0  0  0  2  0  0  0  0  0  0
  191.6080  176.9130  142.3860 C   0  0  0  0  0  2  0  0  0  0  0  0
  189.5390  176.7690  138.8100 C   0  0  0  0  0  1  0  0  0  0  0  0
  185.8320  179.4720  143.2210 C   0  0  0  0  0  2  0  0  0  0  0  0
  185.5880  179.5390  141.8450 O   0  0  0  0  0  0  0  0  0  0  0  0
  184.2510  179.1640  141.6840 C   0  0  0  0  0  2  0  0  0  0  0  0
  181.6680  178.7780  140.4400 C   0  0  0  0  0  1  0  0  0  0  0  0
  184.1190  178.2510  140.5510 N   0  0  0  0  0  0  0  0  0  0  0  0
  182.7530  177.7000  140.4430 C   0  0  2  0  0  3  0  0  0  0  0  0
  182.9450  177.6460  138.0360 O   0  0  0  0  0  0  0  0  0  0  0  0
  184.2940  178.0390  138.1320 C   0  0  0  0  0  2  0  0  0  0  0  0
  184.4820  178.9700  139.3300 C   0  0  0  0  0  2  0  0  0  0  0  0
  182.6570  176.8550  139.1670 C   0  0  0  0  0  2  0  0  0  0  0  0
  1 10  1  0  0  0  0
  2  6  1  0  0  0  0
  3 11  1  6  0  0  0
  3  8  1  0  0  0  0
  4 14  1  0  0  0  0
  4  9  1  0  0  0  0
  7 13  2  0  0  0  0
  8  2  2  0  0  0  0
  8  1  1  0  0  0  0
  9 25  1  1  0  0  0
  9 16  1  0  0  0  0
 11 17  2  0  0  0  0
 12  5  1  0  0  0  0
 12  1  2  0  0  0  0
 13  2  1  0  0  0  0
 15 14  1  6  0  0  0
 15 11  1  0  0  0  0
 16  3  1  0  0  0  0
 16  7  1  0  0  0  0
 17 12  1  0  0  0  0
 18 22  1  0  0  0  0
 19 18  1  0  0  0  0
 19 21  1  0  0  0  0
 20 22  1  6  0  0  0
 20 15  1  0  0  0  0
 21 23  1  0  0  0  0
 23 20  1  0  0  0  0
 24 18  1  0  0  0  0
 26 25  1  0  0  0  0
 27 26  1  0  0  0  0
 29 27  1  0  0  0  0
 30 28  1  6  0  0  0
 30 29  1  0  0  0  0
 31 32  1  0  0  0  0
 31 34  1  0  0  0  0
 32 33  1  0  0  0  0
 33 29  1  0  0  0  0
 34 30  1  0  0  0  0
M  END
>  <MODEL>
8

>  <REMARK>
 VINA RESULT:      -6.4      2.489      5.752
  Name = 
  5 active torsions:
  status: ('A' for Active; 'I' for Inactive)
    1  A    between atoms: C_3  and  N_13
    2  A    between atoms: C_3  and  O_17
    3  A    between atoms: C_12  and  C_28
    4  A    between atoms: O_17  and  C_29
    5  A    between atoms: C_18  and  C_29
                            x       y       z     vdW  Elec       q    Type
                         _______ _______ _______ _____ _____    ______ ____

>  <TORSDO>
F 5

$$$$
=
 OpenBabel10262423453D

 34 38  0  0  1  0  0  0  0  0999 V2000
  188.5880  177.1890  146.4020 C   0  0  0  0  0  0  0  0  0  0  0  0
  190.1490  177.9970  144.6480 C   0  0  0  0  0  0  0  0  0  0  0  0
  187.7590  177.5910  144.0440 C   0  0  1  0  0  3  0  0  0  0  0  0
  186.3980  179.2550  141.4170 C   0  0  0  0  0  2  0  0  0  0  0  0
  187.0090  177.2550  148.1780 O   0  0  0  0  0  1  0  0  0  0  0  0
  191.2020  178.0120  145.5550 O   0  0  0  0  0  1  0  0  0  0  0  0
  189.4200  178.5730  142.3960 C   0  0  0  0  0  3  0  0  0  0  0  0
  188.9310  177.5450  145.0040 C   0  0  0  0  0  0  0  0  0  0  0  0
  187.1010  177.9300  141.6620 C   0  0  2  0  0  3  0  0  0  0  0  0
  189.5610  176.4730  147.2850 C   0  0  0  0  0  1  0  0  0  0  0  0
  186.6030  178.3610  144.6700 C   0  0  0  0  0  0  0  0  0  0  0  0
  187.3730  177.5350  146.8660 C   0  0  0  0  0  0  0  0  0  0  0  0
  190.3890  178.5430  143.3050 C   0  0  0  0  0  3  0  0  0  0  0  0
  186.0730  179.9910  142.7220 C   0  0  0  0  0  2  0  0  0  0  0  0
  185.5560  179.1060  143.8740 C   0  0  1  0  0  3  0  0  0  0  0  0
  188.1180  178.0530  142.6990 N   0  0  0  0  0  0  0  0  0  0  0  0
  186.4090  178.2480  145.9930 C   0  0  0  0  0  3  0  0  0  0  0  0
  182.7110  179.1020  141.8720 N   0  0  0  0  0  0  0  0  0  0  0  0
  181.5080  178.6620  142.5880 C   0  0  0  0  0  2  0  0  0  0  0  0
  184.2280  178.3600  143.6740 C   0  0  2  0  0  3  0  0  0  0  0  0
  181.7500  178.4330  144.0890 C   0  0  0  0  0  2  0  0  0  0  0  0
  183.8220  178.2090  142.1990 C   0  0  0  0  0  2  0  0  0  0  0  0
  183.1110  178.9590  144.5350 C   0  0  0  0  0  2  0  0  0  0  0  0
  182.4410  178.9330  140.4560 C   0  0  0  0  0  1  0  0  0  0  0  0
  187.6370  177.3040  140.3820 C   0  0  0  0  0  2  0  0  0  0  0  0
  187.8210  178.3060  139.4240 O   0  0  0  0  0  0  0  0  0  0  0  0
  187.4350  177.7360  138.2070 C   0  0  0  0  0  2  0  0  0  0  0  0
  187.5680  177.1220  135.3840 C   0  0  0  0  0  1  0  0  0  0  0  0
  188.4920  176.8640  137.7020 N   0  0  0  0  0  0  0  0  0  0  0  0
  188.0900  176.1710  136.4620 C   0  0  2  0  0  3  0  0  0  0  0  0
  190.3680  176.2410  135.6630 O   0  0  0  0  0  0  0  0  0  0  0  0
  190.7880  176.7750  136.8960 C   0  0  0  0  0  2  0  0  0  0  0  0
  189.6910  177.6700  137.4760 C   0  0  0  0  0  2  0  0  0  0  0  0
  189.2870  175.3760  135.9270 C   0  0  0  0  0  2  0  0  0  0  0  0
  1 12  2  0  0  0  0
  1 10  1  0  0  0  0
  2  8  2  0  0  0  0
  2  6  1  0  0  0  0
  3 11  1  1  0  0  0
  3  8  1  0  0  0  0
  4  9  1  0  0  0  0
  4 14  1  0  0  0  0
  7 16  1  0  0  0  0
  7 13  2  0  0  0  0
  8  1  1  0  0  0  0
  9 25  1  6  0  0  0
  9 16  1  0  0  0  0
 11 17  2  0  0  0  0
 12  5  1  0  0  0  0
 13  2  1  0  0  0  0
 15 14  1  6  0  0  0
 15 11  1  0  0  0  0
 16  3  1  0  0  0  0
 17 12  1  0  0  0  0
 18 22  1  0  0  0  0
 18 19  1  0  0  0  0
 19 21  1  0  0  0  0
 20 22  1  6  0  0  0
 20 15  1  0  0  0  0
 20 23  1  0  0  0  0
 21 23  1  0  0  0  0
 24 18  1  0  0  0  0
 26 25  1  0  0  0  0
 27 26  1  0  0  0  0
 29 27  1  0  0  0  0
 30 28  1  6  0  0  0
 30 29  1  0  0  0  0
 31 34  1  0  0  0  0
 31 32  1  0  0  0  0
 32 33  1  0  0  0  0
 33 29  1  0  0  0  0
 34 30  1  0  0  0  0
M  END
>  <MODEL>
9

>  <REMARK>
 VINA RESULT:      -6.3      1.940      5.267
  Name = 
  5 active torsions:
  status: ('A' for Active; 'I' for Inactive)
    1  A    between atoms: C_3  and  N_13
    2  A    between atoms: C_3  and  O_17
    3  A    between atoms: C_12  and  C_28
    4  A    between atoms: O_17  and  C_29
    5  A    between atoms: C_18  and  C_29
                            x       y       z     vdW  Elec       q    Type
                         _______ _______ _______ _____ _____    ______ ____

>  <TORSDO>
F 5

$$$$
