=
 OpenBabel10272400503D

 25 29  0  0  1  0  0  0  0  0999 V2000
  189.7430  177.4690  143.3630 C   0  0  0  0  0  0  0  0  0  0  0  0
  190.5940  178.2740  143.9860 C   0  0  0  0  0  0  0  0  0  0  0  0
  191.4150  179.3490  143.3630 C   0  0  0  0  0  1  0  0  0  0  0  0
  189.1290  176.5310  144.3490 C   0  0  0  0  0  2  0  0  0  0  0  0
  189.7830  176.9290  145.6750 C   0  0  1  0  0  3  0  0  0  0  0  0
  190.6510  178.0010  145.3380 O   0  0  0  0  0  0  0  0  0  0  0  0
  188.2600  177.9780  141.3300 C   0  0  0  0  0  0  0  0  0  0  0  0
  189.3320  177.3670  139.3230 C   0  0  0  0  0  3  0  0  0  0  0  0
  187.0460  178.6920  141.7890 C   0  0  1  0  0  3  0  0  0  0  0  0
  184.1890  178.7030  141.4180 C   0  0  0  0  0  3  0  0  0  0  0  0
  190.3490  176.9450  140.6160 S   0  0  0  0  0  0  0  0  0  0  0  0
  186.3740  178.8920  140.4460 C   0  0  0  0  0  0  0  0  0  0  0  0
  184.9300  179.1390  140.3910 C   0  0  0  0  0  3  0  0  0  0  0  0
  184.8080  177.9530  142.5430 C   0  0  0  0  0  3  0  0  0  0  0  0
  188.2450  177.9410  139.9640 C   0  0  0  0  0  0  0  0  0  0  0  0
  187.0520  178.4740  139.4170 N   0  0  0  0  0  0  0  0  0  0  0  0
  186.1420  177.8870  142.6870 C   0  0  0  0  0  3  0  0  0  0  0  0
  189.4050  177.4740  141.9230 C   0  0  0  0  0  0  0  0  0  0  0  0
  186.4840  178.2100  147.0510 C   0  0  0  0  0  0  0  0  0  0  0  0
  188.7520  177.3810  146.6590 C   0  0  0  0  0  0  0  0  0  0  0  0
  187.3430  177.5760  146.2480 C   0  0  0  0  0  3  0  0  0  0  0  0
  184.8200  178.4160  146.5550 Cl  0  0  0  0  0  0  0  0  0  0  0  0
  189.1170  177.6240  147.9220 C   0  0  0  0  0  3  0  0  0  0  0  0
  186.9670  178.8350  148.3340 C   0  0  0  0  0  2  0  0  0  0  0  0
  188.0900  178.0010  148.9560 C   0  0  0  0  0  2  0  0  0  0  0  0
  1  2  2  0  0  0  0
  1  4  1  0  0  0  0
  2  6  1  0  0  0  0
  3  2  1  0  0  0  0
  4  5  1  0  0  0  0
  5 20  1  1  0  0  0
  6  5  1  0  0  0  0
  7  9  1  0  0  0  0
  7 18  2  0  0  0  0
  8 15  2  0  0  0  0
  8 11  1  0  0  0  0
  9 17  1  1  0  0  0
 10 14  1  0  0  0  0
 11 18  1  0  0  0  0
 12  9  1  0  0  0  0
 13 12  1  0  0  0  0
 13 10  2  0  0  0  0
 14 17  2  0  0  0  0
 15  7  1  0  0  0  0
 16 15  1  0  0  0  0
 16 12  2  0  0  0  0
 18  1  1  0  0  0  0
 19 24  1  0  0  0  0
 20 23  2  0  0  0  0
 21 20  1  0  0  0  0
 21 19  2  0  0  0  0
 22 19  1  0  0  0  0
 23 25  1  0  0  0  0
 24 25  1  0  0  0  0
M  END
>  <MODEL>
1

>  <REMARK>
 VINA RESULT:      -9.3      0.000      0.000
  Name = 
  2 active torsions:
  status: ('A' for Active; 'I' for Inactive)
    1  A    between atoms: C_3  and  C_24
    2  A    between atoms: C_6  and  C_20
                            x       y       z     vdW  Elec       q    Type
                         _______ _______ _______ _____ _____    ______ ____

>  <TORSDO>
F 2

$$$$
=
 OpenBabel10272400503D

 25 29  0  0  1  0  0  0  0  0999 V2000
  189.3620  177.6770  143.1290 C   0  0  0  0  0  0  0  0  0  0  0  0
  190.3160  178.3400  143.7710 C   0  0  0  0  0  0  0  0  0  0  0  0
  191.1880  179.4060  143.2050 C   0  0  0  0  0  1  0  0  0  0  0  0
  188.7300  176.6900  144.0540 C   0  0  0  0  0  2  0  0  0  0  0  0
  189.4950  176.8910  145.3660 C   0  0  1  0  0  3  0  0  0  0  0  0
  190.4300  177.9210  145.0810 O   0  0  0  0  0  0  0  0  0  0  0  0
  189.5980  177.4310  140.5840 C   0  0  0  0  0  0  0  0  0  0  0  0
  187.7230  178.3160  139.4680 C   0  0  0  0  0  3  0  0  0  0  0  0
  190.8230  176.6500  140.2900 C   0  0  1  0  0  3  0  0  0  0  0  0
  193.1110  176.6600  138.5390 C   0  0  0  0  0  3  0  0  0  0  0  0
  187.5160  178.5710  141.1340 S   0  0  0  0  0  0  0  0  0  0  0  0
  190.7240  176.6250  138.7790 C   0  0  0  0  0  0  0  0  0  0  0  0
  191.9260  176.3740  137.9800 C   0  0  0  0  0  3  0  0  0  0  0  0
  193.1890  177.2590  139.8990 C   0  0  0  0  0  3  0  0  0  0  0  0
  188.9380  177.6510  139.4090 C   0  0  0  0  0  0  0  0  0  0  0  0
  189.6580  177.1840  138.2830 N   0  0  0  0  0  0  0  0  0  0  0  0
  192.1110  177.3180  140.6980 C   0  0  0  0  0  3  0  0  0  0  0  0
  188.9410  177.8620  141.7230 C   0  0  0  0  0  0  0  0  0  0  0  0
  186.3590  178.1550  147.0950 C   0  0  0  0  0  0  0  0  0  0  0  0
  188.5680  177.3160  146.4590 C   0  0  0  0  0  0  0  0  0  0  0  0
  187.1290  177.5430  146.1910 C   0  0  0  0  0  3  0  0  0  0  0  0
  184.6580  178.3980  146.7660 Cl  0  0  0  0  0  0  0  0  0  0  0  0
  189.0530  177.5050  147.6910 C   0  0  0  0  0  3  0  0  0  0  0  0
  186.9690  178.7240  148.3480 C   0  0  0  0  0  2  0  0  0  0  0  0
  188.1330  177.8530  148.8300 C   0  0  0  0  0  2  0  0  0  0  0  0
  1  2  2  0  0  0  0
  1  4  1  0  0  0  0
  2  6  1  0  0  0  0
  3  2  1  0  0  0  0
  4  5  1  0  0  0  0
  5 20  1  1  0  0  0
  6  5  1  0  0  0  0
  7 18  2  0  0  0  0
  8 11  1  0  0  0  0
  9  7  1  0  0  0  0
  9 17  1  6  0  0  0
 10 14  1  0  0  0  0
 11 18  1  0  0  0  0
 12  9  1  0  0  0  0
 13 10  2  0  0  0  0
 13 12  1  0  0  0  0
 14 17  2  0  0  0  0
 15  8  2  0  0  0  0
 15  7  1  0  0  0  0
 16 12  2  0  0  0  0
 16 15  1  0  0  0  0
 18  1  1  0  0  0  0
 19 24  1  0  0  0  0
 20 23  2  0  0  0  0
 21 20  1  0  0  0  0
 21 19  2  0  0  0  0
 22 19  1  0  0  0  0
 23 25  1  0  0  0  0
 24 25  1  0  0  0  0
M  END
>  <MODEL>
2

>  <REMARK>
 VINA RESULT:      -8.5      1.829      3.737
  Name = 
  2 active torsions:
  status: ('A' for Active; 'I' for Inactive)
    1  A    between atoms: C_3  and  C_24
    2  A    between atoms: C_6  and  C_20
                            x       y       z     vdW  Elec       q    Type
                         _______ _______ _______ _____ _____    ______ ____

>  <TORSDO>
F 2

$$$$
=
 OpenBabel10272400503D

 25 29  0  0  1  0  0  0  0  0999 V2000
  186.6130  178.0380  146.2290 C   0  0  0  0  0  0  0  0  0  0  0  0
  185.9360  179.0950  146.6590 C   0  0  0  0  0  0  0  0  0  0  0  0
  186.4300  180.1450  147.5930 C   0  0  0  0  0  1  0  0  0  0  0  0
  185.7540  177.2330  145.3110 C   0  0  0  0  0  2  0  0  0  0  0  0
  184.4350  178.0120  145.2830 C   0  0  1  0  0  3  0  0  0  0  0  0
  184.6600  179.1270  146.1330 O   0  0  0  0  0  0  0  0  0  0  0  0
  189.0920  177.6300  145.7010 C   0  0  0  0  0  0  0  0  0  0  0  0
  190.3050  177.1220  147.6560 C   0  0  0  0  0  3  0  0  0  0  0  0
  189.3310  177.9230  144.2680 C   0  0  1  0  0  3  0  0  0  0  0  0
  190.6770  176.8390  141.9620 C   0  0  0  0  0  3  0  0  0  0  0  0
  188.6720  177.3180  148.0810 S   0  0  0  0  0  0  0  0  0  0  0  0
  190.8190  177.6400  144.2200 C   0  0  0  0  0  0  0  0  0  0  0  0
  191.4540  177.3350  142.9350 C   0  0  0  0  0  3  0  0  0  0  0  0
  189.2350  176.5630  142.2040 C   0  0  0  0  0  3  0  0  0  0  0  0
  190.2950  177.3620  146.2910 C   0  0  0  0  0  0  0  0  0  0  0  0
  191.3630  177.3290  145.3610 N   0  0  0  0  0  0  0  0  0  0  0  0
  188.6150  177.0080  143.3090 C   0  0  0  0  0  3  0  0  0  0  0  0
  188.0090  177.6800  146.5620 C   0  0  0  0  0  0  0  0  0  0  0  0
  182.4130  178.9970  142.2240 C   0  0  0  0  0  0  0  0  0  0  0  0
  184.1200  178.4680  143.8950 C   0  0  0  0  0  0  0  0  0  0  0  0
  182.7370  178.8310  143.5090 C   0  0  0  0  0  3  0  0  0  0  0  0
  180.7780  179.4410  141.7900 Cl  0  0  0  0  0  0  0  0  0  0  0  0
  185.1030  178.5360  142.9900 C   0  0  0  0  0  3  0  0  0  0  0  0
  183.4220  178.7040  141.1450 C   0  0  0  0  0  2  0  0  0  0  0  0
  184.8350  179.0690  141.6080 C   0  0  0  0  0  2  0  0  0  0  0  0
  1 18  1  0  0  0  0
  1  2  2  0  0  0  0
  2  3  1  0  0  0  0
  4  1  1  0  0  0  0
  5 20  1  6  0  0  0
  5  4  1  0  0  0  0
  5  6  1  0  0  0  0
  6  2  1  0  0  0  0
  7 15  1  0  0  0  0
  7 18  2  0  0  0  0
  8 11  1  0  0  0  0
  9 17  1  6  0  0  0
  9  7  1  0  0  0  0
 10 14  1  0  0  0  0
 10 13  2  0  0  0  0
 12  9  1  0  0  0  0
 12 16  2  0  0  0  0
 13 12  1  0  0  0  0
 14 17  2  0  0  0  0
 15  8  2  0  0  0  0
 16 15  1  0  0  0  0
 18 11  1  0  0  0  0
 19 21  2  0  0  0  0
 21 20  1  0  0  0  0
 22 19  1  0  0  0  0
 23 20  2  0  0  0  0
 24 25  1  0  0  0  0
 24 19  1  0  0  0  0
 25 23  1  0  0  0  0
M  END
>  <MODEL>
3

>  <REMARK>
 VINA RESULT:      -8.4      3.140      6.103
  Name = 
  2 active torsions:
  status: ('A' for Active; 'I' for Inactive)
    1  A    between atoms: C_3  and  C_24
    2  A    between atoms: C_6  and  C_20
                            x       y       z     vdW  Elec       q    Type
                         _______ _______ _______ _____ _____    ______ ____

>  <TORSDO>
F 2

$$$$
=
 OpenBabel10272400503D

 25 29  0  0  1  0  0  0  0  0999 V2000
  189.6330  177.2840  143.2000 C   0  0  0  0  0  0  0  0  0  0  0  0
  190.0800  176.1790  142.6190 C   0  0  0  0  0  0  0  0  0  0  0  0
  190.4120  174.8940  143.2950 C   0  0  0  0  0  1  0  0  0  0  0  0
  189.4310  178.3450  142.1690 C   0  0  0  0  0  2  0  0  0  0  0  0
  189.8500  177.6580  140.8650 C   0  0  1  0  0  3  0  0  0  0  0  0
  190.2200  176.3440  141.2550 O   0  0  0  0  0  0  0  0  0  0  0  0
  188.1020  177.6030  145.2360 C   0  0  0  0  0  0  0  0  0  0  0  0
  189.3490  177.6770  147.2330 C   0  0  0  0  0  3  0  0  0  0  0  0
  186.6910  177.5480  144.7880 C   0  0  1  0  0  3  0  0  0  0  0  0
  184.1810  178.9200  145.1400 C   0  0  0  0  0  3  0  0  0  0  0  0
  190.4350  177.5250  145.9360 S   0  0  0  0  0  0  0  0  0  0  0  0
  186.0140  177.7310  146.1310 C   0  0  0  0  0  0  0  0  0  0  0  0
  184.6300  178.2090  146.1840 C   0  0  0  0  0  3  0  0  0  0  0  0
  185.0780  179.2510  143.9990 C   0  0  0  0  0  3  0  0  0  0  0  0
  188.1160  177.6790  146.6000 C   0  0  0  0  0  0  0  0  0  0  0  0
  186.8170  177.7980  147.1530 N   0  0  0  0  0  0  0  0  0  0  0  0
  186.2780  178.6640  143.8630 C   0  0  0  0  0  3  0  0  0  0  0  0
  189.3440  177.4800  144.6370 C   0  0  0  0  0  0  0  0  0  0  0  0
  187.8830  176.9520  137.6950 C   0  0  0  0  0  0  0  0  0  0  0  0
  188.7090  177.6130  139.9000 C   0  0  0  0  0  0  0  0  0  0  0  0
  188.7870  176.7990  138.6660 C   0  0  0  0  0  3  0  0  0  0  0  0
  187.9830  175.9680  136.2520 Cl  0  0  0  0  0  0  0  0  0  0  0  0
  187.6090  178.3310  140.1550 C   0  0  0  0  0  3  0  0  0  0  0  0
  186.8400  178.0340  137.7930 C   0  0  0  0  0  2  0  0  0  0  0  0
  186.4110  178.2450  139.2480 C   0  0  0  0  0  2  0  0  0  0  0  0
  1 18  1  0  0  0  0
  2  1  2  0  0  0  0
  2  3  1  0  0  0  0
  4  1  1  0  0  0  0
  5 20  1  6  0  0  0
  5  6  1  0  0  0  0
  5  4  1  0  0  0  0
  6  2  1  0  0  0  0
  7 15  1  0  0  0  0
  9 17  1  6  0  0  0
  9  7  1  0  0  0  0
  9 12  1  0  0  0  0
 10 13  2  0  0  0  0
 11  8  1  0  0  0  0
 12 13  1  0  0  0  0
 12 16  2  0  0  0  0
 14 10  1  0  0  0  0
 15 16  1  0  0  0  0
 15  8  2  0  0  0  0
 17 14  2  0  0  0  0
 18  7  2  0  0  0  0
 18 11  1  0  0  0  0
 19 24  1  0  0  0  0
 19 21  2  0  0  0  0
 20 23  2  0  0  0  0
 21 20  1  0  0  0  0
 22 19  1  0  0  0  0
 24 25  1  0  0  0  0
 25 23  1  0  0  0  0
M  END
>  <MODEL>
4

>  <REMARK>
 VINA RESULT:      -8.0      3.361      6.284
  Name = 
  2 active torsions:
  status: ('A' for Active; 'I' for Inactive)
    1  A    between atoms: C_3  and  C_24
    2  A    between atoms: C_6  and  C_20
                            x       y       z     vdW  Elec       q    Type
                         _______ _______ _______ _____ _____    ______ ____

>  <TORSDO>
F 2

$$$$
=
 OpenBabel10272400503D

 25 29  0  0  1  0  0  0  0  0999 V2000
  190.3450  176.6780  141.8940 C   0  0  0  0  0  0  0  0  0  0  0  0
  191.5780  177.1280  142.0840 C   0  0  0  0  0  0  0  0  0  0  0  0
  192.3210  178.0760  141.2070 C   0  0  0  0  0  1  0  0  0  0  0  0
  189.9780  175.7430  142.9990 C   0  0  0  0  0  2  0  0  0  0  0  0
  191.2320  175.7210  143.8780 C   0  0  1  0  0  3  0  0  0  0  0  0
  192.1380  176.6020  143.2310 O   0  0  0  0  0  0  0  0  0  0  0  0
  188.2410  177.7370  140.8730 C   0  0  0  0  0  0  0  0  0  0  0  0
  188.2330  177.5180  138.5270 C   0  0  0  0  0  3  0  0  0  0  0  0
  187.4760  178.4150  141.9460 C   0  0  1  0  0  3  0  0  0  0  0  0
  184.7810  178.7150  142.9190 C   0  0  0  0  0  3  0  0  0  0  0  0
  189.6200  176.7430  139.1270 S   0  0  0  0  0  0  0  0  0  0  0  0
  186.3370  178.9600  141.1100 C   0  0  0  0  0  0  0  0  0  0  0  0
  185.0720  179.3160  141.7570 C   0  0  0  0  0  3  0  0  0  0  0  0
  185.6900  177.6880  143.4960 C   0  0  0  0  0  3  0  0  0  0  0  0
  187.6360  178.0090  139.6790 C   0  0  0  0  0  0  0  0  0  0  0  0
  186.4310  178.7370  139.8310 N   0  0  0  0  0  0  0  0  0  0  0  0
  186.9250  177.4950  143.0060 C   0  0  0  0  0  3  0  0  0  0  0  0
  189.4280  177.0310  140.7880 C   0  0  0  0  0  0  0  0  0  0  0  0
  189.3670  177.3840  146.7380 C   0  0  0  0  0  0  0  0  0  0  0  0
  190.9210  176.2120  145.2560 C   0  0  0  0  0  0  0  0  0  0  0  0
  189.5740  176.7230  145.5950 C   0  0  0  0  0  3  0  0  0  0  0  0
  187.7640  177.9650  147.1280 Cl  0  0  0  0  0  0  0  0  0  0  0  0
  191.8820  176.1990  146.1860 C   0  0  0  0  0  3  0  0  0  0  0  0
  190.5260  177.7180  147.6400 C   0  0  0  0  0  2  0  0  0  0  0  0
  191.5810  176.6080  147.6030 C   0  0  0  0  0  2  0  0  0  0  0  0
  1  2  2  0  0  0  0
  1  4  1  0  0  0  0
  2  6  1  0  0  0  0
  3  2  1  0  0  0  0
  4  5  1  0  0  0  0
  5 20  1  1  0  0  0
  6  5  1  0  0  0  0
  7  9  1  0  0  0  0
  8 11  1  0  0  0  0
  8 15  2  0  0  0  0
  9 17  1  1  0  0  0
 10 14  1  0  0  0  0
 11 18  1  0  0  0  0
 12 13  1  0  0  0  0
 12  9  1  0  0  0  0
 13 10  2  0  0  0  0
 15 16  1  0  0  0  0
 15  7  1  0  0  0  0
 16 12  2  0  0  0  0
 17 14  2  0  0  0  0
 18  7  2  0  0  0  0
 18  1  1  0  0  0  0
 19 22  1  0  0  0  0
 19 24  1  0  0  0  0
 20 21  1  0  0  0  0
 20 23  2  0  0  0  0
 21 19  2  0  0  0  0
 23 25  1  0  0  0  0
 25 24  1  0  0  0  0
M  END
>  <MODEL>
5

>  <REMARK>
 VINA RESULT:      -7.8      1.801      2.241
  Name = 
  2 active torsions:
  status: ('A' for Active; 'I' for Inactive)
    1  A    between atoms: C_3  and  C_24
    2  A    between atoms: C_6  and  C_20
                            x       y       z     vdW  Elec       q    Type
                         _______ _______ _______ _____ _____    ______ ____

>  <TORSDO>
F 2

$$$$
=
 OpenBabel10272400503D

 25 29  0  0  1  0  0  0  0  0999 V2000
  189.4000  177.4010  142.6770 C   0  0  0  0  0  0  0  0  0  0  0  0
  189.6980  178.2220  143.6750 C   0  0  0  0  0  0  0  0  0  0  0  0
  190.8440  179.1720  143.7300 C   0  0  0  0  0  1  0  0  0  0  0  0
  188.1780  176.6170  143.0220 C   0  0  0  0  0  2  0  0  0  0  0  0
  187.8110  177.1260  144.4200 C   0  0  1  0  0  3  0  0  0  0  0  0
  188.7980  178.1020  144.7150 O   0  0  0  0  0  0  0  0  0  0  0  0
  189.7200  177.7150  140.1490 C   0  0  0  0  0  0  0  0  0  0  0  0
  191.8120  176.8880  139.4480 C   0  0  0  0  0  3  0  0  0  0  0  0
  188.5730  178.4860  139.6130 C   0  0  1  0  0  3  0  0  0  0  0  0
  186.7240  178.4920  137.4040 C   0  0  0  0  0  3  0  0  0  0  0  0
  191.6550  176.5900  141.1130 S   0  0  0  0  0  0  0  0  0  0  0  0
  189.0000  178.5550  138.1610 C   0  0  0  0  0  0  0  0  0  0  0  0
  187.9950  178.8110  137.1250 C   0  0  0  0  0  3  0  0  0  0  0  0
  186.3630  177.8540  138.6990 C   0  0  0  0  0  3  0  0  0  0  0  0
  190.6250  177.5370  139.1420 C   0  0  0  0  0  0  0  0  0  0  0  0
  190.1590  178.0250  137.8960 N   0  0  0  0  0  0  0  0  0  0  0  0
  187.2410  177.7880  139.7120 C   0  0  0  0  0  3  0  0  0  0  0  0
  190.1220  177.2610  141.3930 C   0  0  0  0  0  0  0  0  0  0  0  0
  184.5760  178.6260  143.1150 C   0  0  0  0  0  0  0  0  0  0  0  0
  186.4500  177.7440  144.4170 C   0  0  0  0  0  0  0  0  0  0  0  0
  185.6700  177.8610  143.1640 C   0  0  0  0  0  3  0  0  0  0  0  0
  183.6590  178.7370  141.6300 Cl  0  0  0  0  0  0  0  0  0  0  0  0
  185.9410  178.2080  145.5640 C   0  0  0  0  0  3  0  0  0  0  0  0
  184.1880  179.4700  144.3010 C   0  0  0  0  0  2  0  0  0  0  0  0
  184.5410  178.7610  145.6110 C   0  0  0  0  0  2  0  0  0  0  0  0
  1  4  1  0  0  0  0
  1  2  2  0  0  0  0
  2  3  1  0  0  0  0
  2  6  1  0  0  0  0
  4  5  1  0  0  0  0
  5 20  1  6  0  0  0
  5  6  1  0  0  0  0
  7 18  2  0  0  0  0
  8 11  1  0  0  0  0
  9 17  1  6  0  0  0
  9  7  1  0  0  0  0
 10 14  1  0  0  0  0
 11 18  1  0  0  0  0
 12  9  1  0  0  0  0
 13 10  2  0  0  0  0
 13 12  1  0  0  0  0
 14 17  2  0  0  0  0
 15  8  2  0  0  0  0
 15  7  1  0  0  0  0
 16 12  2  0  0  0  0
 16 15  1  0  0  0  0
 18  1  1  0  0  0  0
 19 21  2  0  0  0  0
 19 24  1  0  0  0  0
 20 23  2  0  0  0  0
 21 20  1  0  0  0  0
 22 19  1  0  0  0  0
 23 25  1  0  0  0  0
 24 25  1  0  0  0  0
M  END
>  <MODEL>
6

>  <REMARK>
 VINA RESULT:      -7.7      2.258      3.271
  Name = 
  2 active torsions:
  status: ('A' for Active; 'I' for Inactive)
    1  A    between atoms: C_3  and  C_24
    2  A    between atoms: C_6  and  C_20
                            x       y       z     vdW  Elec       q    Type
                         _______ _______ _______ _____ _____    ______ ____

>  <TORSDO>
F 2

$$$$
=
 OpenBabel10272400503D

 25 29  0  0  1  0  0  0  0  0999 V2000
  187.5740  177.9110  142.4010 C   0  0  0  0  0  0  0  0  0  0  0  0
  188.4690  176.9330  142.4010 C   0  0  0  0  0  0  0  0  0  0  0  0
  188.5270  175.7820  143.3450 C   0  0  0  0  0  1  0  0  0  0  0  0
  187.8750  178.8660  141.2940 C   0  0  0  0  0  2  0  0  0  0  0  0
  189.1260  178.2700  140.6410 C   0  0  1  0  0  3  0  0  0  0  0  0
  189.3960  177.0940  141.3900 O   0  0  0  0  0  0  0  0  0  0  0  0
  186.4650  178.2720  144.6880 C   0  0  0  0  0  0  0  0  0  0  0  0
  184.1220  178.4130  144.4850 C   0  0  0  0  0  3  0  0  0  0  0  0
  187.5230  178.4590  145.7090 C   0  0  1  0  0  3  0  0  0  0  0  0
  188.2330  177.6140  148.3700 C   0  0  0  0  0  3  0  0  0  0  0  0
  184.7710  178.1160  142.9430 S   0  0  0  0  0  0  0  0  0  0  0  0
  186.6390  178.6710  146.9210 C   0  0  0  0  0  0  0  0  0  0  0  0
  187.1860  178.4440  148.2620 C   0  0  0  0  0  3  0  0  0  0  0  0
  188.7790  176.9130  147.1760 C   0  0  0  0  0  3  0  0  0  0  0  0
  185.2530  178.4790  145.2840 C   0  0  0  0  0  0  0  0  0  0  0  0
  185.3610  178.6880  146.6810 N   0  0  0  0  0  0  0  0  0  0  0  0
  188.4040  177.2570  145.9340 C   0  0  0  0  0  3  0  0  0  0  0  0
  186.4250  178.0660  143.3200 C   0  0  0  0  0  0  0  0  0  0  0  0
  187.2190  177.5030  137.4480 C   0  0  0  0  0  0  0  0  0  0  0  0
  188.8630  177.9280  139.2100 C   0  0  0  0  0  0  0  0  0  0  0  0
  187.5010  178.0380  138.6390 C   0  0  0  0  0  3  0  0  0  0  0  0
  185.6090  177.6600  136.7840 Cl  0  0  0  0  0  0  0  0  0  0  0  0
  189.8730  177.5040  138.4430 C   0  0  0  0  0  3  0  0  0  0  0  0
  188.2530  176.6820  136.7230 C   0  0  0  0  0  2  0  0  0  0  0  0
  189.6600  177.2300  136.9780 C   0  0  0  0  0  2  0  0  0  0  0  0
  1 18  1  0  0  0  0
  2  1  2  0  0  0  0
  2  3  1  0  0  0  0
  4  1  1  0  0  0  0
  5 20  1  6  0  0  0
  5  4  1  0  0  0  0
  5  6  1  0  0  0  0
  6  2  1  0  0  0  0
  7 15  1  0  0  0  0
  7  9  1  0  0  0  0
  8 15  2  0  0  0  0
  9 17  1  1  0  0  0
  9 12  1  0  0  0  0
 11 18  1  0  0  0  0
 11  8  1  0  0  0  0
 12 13  1  0  0  0  0
 13 10  2  0  0  0  0
 14 10  1  0  0  0  0
 15 16  1  0  0  0  0
 16 12  2  0  0  0  0
 17 14  2  0  0  0  0
 18  7  2  0  0  0  0
 19 21  2  0  0  0  0
 21 20  1  0  0  0  0
 22 19  1  0  0  0  0
 23 20  2  0  0  0  0
 24 25  1  0  0  0  0
 24 19  1  0  0  0  0
 25 23  1  0  0  0  0
M  END
>  <MODEL>
7

>  <REMARK>
 VINA RESULT:      -7.5      3.295      7.034
  Name = 
  2 active torsions:
  status: ('A' for Active; 'I' for Inactive)
    1  A    between atoms: C_3  and  C_24
    2  A    between atoms: C_6  and  C_20
                            x       y       z     vdW  Elec       q    Type
                         _______ _______ _______ _____ _____    ______ ____

>  <TORSDO>
F 2

$$$$
=
 OpenBabel10272400503D

 25 29  0  0  1  0  0  0  0  0999 V2000
  188.5440  177.7090  142.3100 C   0  0  0  0  0  0  0  0  0  0  0  0
  189.4550  176.8450  141.8820 C   0  0  0  0  0  0  0  0  0  0  0  0
  189.9480  175.6420  142.6090 C   0  0  0  0  0  1  0  0  0  0  0  0
  188.3410  178.7730  141.2830 C   0  0  0  0  0  2  0  0  0  0  0  0
  189.3110  178.3780  140.1650 C   0  0  1  0  0  3  0  0  0  0  0  0
  189.9310  177.1890  140.6320 O   0  0  0  0  0  0  0  0  0  0  0  0
  188.3270  177.7280  144.8680 C   0  0  0  0  0  0  0  0  0  0  0  0
  186.0670  177.6650  145.5300 C   0  0  0  0  0  3  0  0  0  0  0  0
  189.6720  177.9120  145.4620 C   0  0  1  0  0  3  0  0  0  0  0  0
  191.3460  176.8730  147.5640 C   0  0  0  0  0  3  0  0  0  0  0  0
  186.1250  177.5890  143.8340 S   0  0  0  0  0  0  0  0  0  0  0  0
  189.2810  177.9140  146.9250 C   0  0  0  0  0  0  0  0  0  0  0  0
  190.2890  177.6050  147.9430 C   0  0  0  0  0  3  0  0  0  0  0  0
  191.4560  176.3530  146.1740 C   0  0  0  0  0  3  0  0  0  0  0  0
  187.4060  177.7570  145.8770 C   0  0  0  0  0  0  0  0  0  0  0  0
  188.0030  177.8320  147.1590 N   0  0  0  0  0  0  0  0  0  0  0  0
  190.6370  176.7830  145.2020 C   0  0  0  0  0  3  0  0  0  0  0  0
  187.8020  177.6590  143.5890 C   0  0  0  0  0  0  0  0  0  0  0  0
  188.6580  177.8410  136.4630 C   0  0  0  0  0  0  0  0  0  0  0  0
  188.5710  178.1150  138.8920 C   0  0  0  0  0  0  0  0  0  0  0  0
  189.2990  177.8290  137.6350 C   0  0  0  0  0  3  0  0  0  0  0  0
  189.5320  177.4830  134.9900 Cl  0  0  0  0  0  0  0  0  0  0  0  0
  187.2340  178.1530  138.8940 C   0  0  0  0  0  3  0  0  0  0  0  0
  187.2130  178.2580  136.3940 C   0  0  0  0  0  2  0  0  0  0  0  0
  186.4580  177.8130  137.6500 C   0  0  0  0  0  2  0  0  0  0  0  0
  1 18  1  0  0  0  0
  2  1  2  0  0  0  0
  2  3  1  0  0  0  0
  4  1  1  0  0  0  0
  5 20  1  6  0  0  0
  5  6  1  0  0  0  0
  5  4  1  0  0  0  0
  6  2  1  0  0  0  0
  7  9  1  0  0  0  0
  7 15  1  0  0  0  0
  8 15  2  0  0  0  0
  9 17  1  1  0  0  0
  9 12  1  0  0  0  0
 10 13  2  0  0  0  0
 11  8  1  0  0  0  0
 12 16  2  0  0  0  0
 12 13  1  0  0  0  0
 14 10  1  0  0  0  0
 15 16  1  0  0  0  0
 17 14  2  0  0  0  0
 18 11  1  0  0  0  0
 18  7  2  0  0  0  0
 19 21  2  0  0  0  0
 20 23  2  0  0  0  0
 21 20  1  0  0  0  0
 22 19  1  0  0  0  0
 24 19  1  0  0  0  0
 24 25  1  0  0  0  0
 25 23  1  0  0  0  0
M  END
>  <MODEL>
8

>  <REMARK>
 VINA RESULT:      -7.4      3.760      7.491
  Name = 
  2 active torsions:
  status: ('A' for Active; 'I' for Inactive)
    1  A    between atoms: C_3  and  C_24
    2  A    between atoms: C_6  and  C_20
                            x       y       z     vdW  Elec       q    Type
                         _______ _______ _______ _____ _____    ______ ____

>  <TORSDO>
F 2

$$$$
=
 OpenBabel10272400503D

 25 29  0  0  1  0  0  0  0  0999 V2000
  189.9310  177.6990  139.3800 C   0  0  0  0  0  0  0  0  0  0  0  0
  190.2950  176.8980  138.3870 C   0  0  0  0  0  0  0  0  0  0  0  0
  191.2340  175.7450  138.4760 C   0  0  0  0  0  1  0  0  0  0  0  0
  188.9800  178.7300  138.8680 C   0  0  0  0  0  2  0  0  0  0  0  0
  188.8530  178.3890  137.3800 C   0  0  1  0  0  3  0  0  0  0  0  0
  189.6890  177.2560  137.1990 O   0  0  0  0  0  0  0  0  0  0  0  0
  189.5550  177.4250  141.9040 C   0  0  0  0  0  0  0  0  0  0  0  0
  191.6020  177.4010  143.0710 C   0  0  0  0  0  3  0  0  0  0  0  0
  188.1120  177.1960  142.1510 C   0  0  1  0  0  3  0  0  0  0  0  0
  185.9860  178.0390  143.9040 C   0  0  0  0  0  3  0  0  0  0  0  0
  191.9340  177.6450  141.4230 S   0  0  0  0  0  0  0  0  0  0  0  0
  188.1570  177.0460  143.6580 C   0  0  0  0  0  0  0  0  0  0  0  0
  186.9370  177.2620  144.4420 C   0  0  0  0  0  3  0  0  0  0  0  0
  186.1920  178.6950  142.5850 C   0  0  0  0  0  3  0  0  0  0  0  0
  190.2200  177.2880  143.0900 C   0  0  0  0  0  0  0  0  0  0  0  0
  189.3450  177.0920  144.1860 N   0  0  0  0  0  0  0  0  0  0  0  0
  187.2180  178.3540  141.7890 C   0  0  0  0  0  3  0  0  0  0  0  0
  190.3590  177.6150  140.7930 C   0  0  0  0  0  0  0  0  0  0  0  0
  185.1380  177.7210  137.8000 C   0  0  0  0  0  0  0  0  0  0  0  0
  187.4380  178.0540  137.0340 C   0  0  0  0  0  0  0  0  0  0  0  0
  186.3480  178.2460  138.0170 C   0  0  0  0  0  3  0  0  0  0  0  0
  183.8590  177.9750  138.9660 Cl  0  0  0  0  0  0  0  0  0  0  0  0
  187.1610  177.5610  135.8210 C   0  0  0  0  0  3  0  0  0  0  0  0
  184.9020  176.8300  136.6090 C   0  0  0  0  0  2  0  0  0  0  0  0
  185.7380  177.2900  135.4120 C   0  0  0  0  0  2  0  0  0  0  0  0
  1 18  1  0  0  0  0
  2  3  1  0  0  0  0
  2  1  2  0  0  0  0
  4  1  1  0  0  0  0
  5 20  1  1  0  0  0
  5  4  1  0  0  0  0
  6  5  1  0  0  0  0
  6  2  1  0  0  0  0
  7  9  1  0  0  0  0
  7 15  1  0  0  0  0
  8 15  2  0  0  0  0
  9 17  1  1  0  0  0
  9 12  1  0  0  0  0
 10 13  2  0  0  0  0
 11  8  1  0  0  0  0
 12 16  2  0  0  0  0
 12 13  1  0  0  0  0
 14 10  1  0  0  0  0
 15 16  1  0  0  0  0
 17 14  2  0  0  0  0
 18 11  1  0  0  0  0
 18  7  2  0  0  0  0
 19 21  2  0  0  0  0
 19 22  1  0  0  0  0
 20 21  1  0  0  0  0
 23 20  2  0  0  0  0
 24 19  1  0  0  0  0
 25 23  1  0  0  0  0
 25 24  1  0  0  0  0
M  END
>  <MODEL>
9

>  <REMARK>
 VINA RESULT:      -7.3      3.342      6.890
  Name = 
  2 active torsions:
  status: ('A' for Active; 'I' for Inactive)
    1  A    between atoms: C_3  and  C_24
    2  A    between atoms: C_6  and  C_20
                            x       y       z     vdW  Elec       q    Type
                         _______ _______ _______ _____ _____    ______ ____

>  <TORSDO>
F 2

$$$$
