=
 OpenBabel10272414463D

 37 43  0  0  1  0  0  0  0  0999 V2000
  186.4150  177.0380  136.4010 O   0  0  0  0  0  0  0  0  0  0  0  0
  181.7920  178.8050  137.1920 C   0  0  0  0  0  2  0  0  0  0  0  0
  189.6640  176.3140  142.2260 O   0  0  0  0  0  0  0  0  0  0  0  0
  186.3130  178.9700  141.4750 C   0  0  1  0  0  3  0  0  0  0  0  0
  185.2910  177.6440  134.3460 C   0  0  0  0  0  1  0  0  0  0  0  0
  181.9790  177.8780  138.4030 C   0  0  2  0  0  0  0  0  0  0  0  0
  182.1580  176.4490  137.8720 C   0  0  0  0  0  2  0  0  0  0  0  0
  180.7310  177.9280  139.3040 C   0  0  0  0  0  2  0  0  0  0  0  0
  187.2940  177.7960  141.6420 C   0  0  1  0  0  3  0  0  0  0  0  0
  184.2900  177.2990  138.5200 C   0  0  1  0  0  3  0  0  0  0  0  0
  189.2170  178.4190  136.6250 S   0  0  0  0  0  0  0  0  0  0  0  0
  188.4320  177.8190  140.5930 C   0  0  2  0  0  3  0  0  0  0  0  0
  185.6560  177.1190  139.1730 C   0  0  0  0  0  2  0  0  0  0  0  0
  179.9820  179.6710  140.7140 O   0  0  0  0  0  0  0  0  0  0  0  0
  187.8930  177.7320  143.0490 C   0  0  0  0  0  2  0  0  0  0  0  0
  185.1630  177.0870  135.7580 C   0  0  1  0  0  3  0  0  0  0  0  0
  180.2530  180.3290  138.4630 C   0  0  0  0  0  2  0  0  0  0  0  0
  180.3220  179.3440  139.5890 C   0  0  0  0  0  0  0  0  0  0  0  0
  188.1110  177.7760  139.0710 C   0  0  2  0  0  3  0  0  0  0  0  0
  189.1380  178.6940  138.4110 C   0  0  0  0  0  2  0  0  0  0  0  0
  183.8700  179.0580  141.1370 C   0  0  0  0  0  2  0  0  0  0  0  0
  187.5770  179.1590  136.4250 C   0  0  0  0  0  2  0  0  0  0  0  0
  184.9720  178.4730  141.9930 C   0  0  2  0  0  3  0  0  0  0  0  0
  189.5290  176.8230  140.9310 C   0  0  0  0  0  0  0  0  0  0  0  0
  184.4220  175.7350  135.7940 C   0  0  2  0  0  3  0  0  0  0  0  0
  183.5640  176.0180  138.2520 C   0  0  2  0  0  3  0  0  0  0  0  0
  185.7120  179.5460  142.7500 C   0  0  0  0  0  2  0  0  0  0  0  0
  186.6720  178.1260  138.6140 C   0  0  1  0  0  3  0  0  0  0  0  0
  188.6300  176.4170  143.1990 C   0  0  0  0  0  2  0  0  0  0  0  0
  183.2860  178.2470  139.1430 C   0  0  2  0  0  3  0  0  0  0  0  0
  190.3850  176.5010  140.0640 O   0  0  0  0  0  0  0  0  0  0  0  0
  184.2710  175.1470  137.2050 C   0  0  0  0  0  2  0  0  0  0  0  0
  181.5250  180.2470  137.6250 C   0  0  0  0  0  2  0  0  0  0  0  0
  186.5220  178.2710  137.0710 C   0  0  2  0  0  3  0  0  0  0  0  0
  183.1770  178.0120  140.5220 O   0  0  0  0  0  0  0  0  0  0  0  0
  185.1190  174.6890  134.9310 C   0  0  0  0  0  2  0  0  0  0  0  0
  185.7250  173.6060  135.8020 C   0  0  0  0  0  1  0  0  0  0  0  0
  1 34  1  0  0  0  0
  2 33  1  0  0  0  0
  3 29  1  0  0  0  0
  4  9  1  0  0  0  0
  4 23  1  0  0  0  0
  4 27  1  1  0  0  0
  6  2  1  6  0  0  0
  6 30  1  0  0  0  0
  6  8  1  0  0  0  0
  7 26  1  0  0  0  0
  7  6  1  0  0  0  0
  8 18  1  0  0  0  0
  9 15  1  1  0  0  0
 10 30  1  0  0  0  0
 10 13  1  1  0  0  0
 11 20  1  0  0  0  0
 12 24  1  1  0  0  0
 12  9  1  0  0  0  0
 15 29  1  0  0  0  0
 16  5  1  6  0  0  0
 16 25  1  0  0  0  0
 16  1  1  0  0  0  0
 17 18  1  0  0  0  0
 18 14  2  0  0  0  0
 19 20  1  6  0  0  0
 19 12  1  0  0  0  0
 22 11  1  0  0  0  0
 23 21  1  6  0  0  0
 23 27  1  0  0  0  0
 24  3  1  0  0  0  0
 25 36  1  6  0  0  0
 25 32  1  0  0  0  0
 26 32  1  6  0  0  0
 26 10  1  0  0  0  0
 28 19  1  0  0  0  0
 28 13  1  6  0  0  0
 30 35  1  1  0  0  0
 31 24  2  0  0  0  0
 33 17  1  0  0  0  0
 34 22  1  6  0  0  0
 34 28  1  0  0  0  0
 35 21  1  0  0  0  0
 36 37  1  0  0  0  0
M  END
>  <MODEL>
1

>  <REMARK>
 VINA RESULT:      -5.9      0.000      0.000
  Name = 
  1 active torsions:
  status: ('A' for Active; 'I' for Inactive)
    1  A    between atoms: C_11  and  C_26
                            x       y       z     vdW  Elec       q    Type
                         _______ _______ _______ _____ _____    ______ ____

>  <TORSDO>
F 1

$$$$
=
 OpenBabel10272414463D

 37 43  0  0  1  0  0  0  0  0999 V2000
  187.2400  176.1460  136.5110 O   0  0  0  0  0  0  0  0  0  0  0  0
  189.7810  176.5450  140.8130 C   0  0  0  0  0  2  0  0  0  0  0  0
  181.4870  179.5800  136.8740 O   0  0  0  0  0  0  0  0  0  0  0  0
  183.7580  178.0240  140.2310 C   0  0  1  0  0  3  0  0  0  0  0  0
  189.1580  174.6750  136.5930 C   0  0  0  0  0  1  0  0  0  0  0  0
  189.1610  177.9460  140.6910 C   0  0  2  0  0  0  0  0  0  0  0  0
  189.7260  178.5950  139.4190 C   0  0  0  0  0  2  0  0  0  0  0  0
  189.5490  178.8020  141.9100 C   0  0  0  0  0  2  0  0  0  0  0  0
  183.2300  178.7330  138.9710 C   0  0  1  0  0  3  0  0  0  0  0  0
  187.5020  177.8530  138.9790 C   0  0  1  0  0  3  0  0  0  0  0  0
  184.6230  174.5780  135.7990 S   0  0  0  0  0  0  0  0  0  0  0  0
  182.9950  177.7550  137.7940 C   0  0  2  0  0  3  0  0  0  0  0  0
  186.1280  178.0560  138.3500 C   0  0  0  0  0  2  0  0  0  0  0  0
  188.8030  178.6340  144.1460 O   0  0  0  0  0  0  0  0  0  0  0  0
  181.9510  179.5290  139.2410 C   0  0  0  0  0  2  0  0  0  0  0  0
  188.5560  176.0160  136.9930 C   0  0  1  0  0  3  0  0  0  0  0  0
  189.7730  176.6460  143.3220 C   0  0  0  0  0  2  0  0  0  0  0  0
  189.3080  178.0630  143.1930 C   0  0  0  0  0  0  0  0  0  0  0  0
  184.1610  176.8920  137.2320 C   0  0  2  0  0  3  0  0  0  0  0  0
  183.5380  175.5440  136.8780 C   0  0  0  0  0  2  0  0  0  0  0  0
  185.7800  178.3630  141.6040 C   0  0  0  0  0  2  0  0  0  0  0  0
  185.7840  174.3300  137.1670 C   0  0  0  0  0  2  0  0  0  0  0  0
  184.5910  179.0560  140.9760 C   0  0  2  0  0  3  0  0  0  0  0  0
  182.2300  178.4150  136.6580 C   0  0  0  0  0  0  0  0  0  0  0  0
  189.4540  177.2070  136.5990 C   0  0  2  0  0  3  0  0  0  0  0  0
  188.5520  178.7950  138.4760 C   0  0  2  0  0  3  0  0  0  0  0  0
  183.2920  178.5760  141.5720 C   0  0  0  0  0  2  0  0  0  0  0  0
  185.4290  176.7110  138.1070 C   0  0  1  0  0  3  0  0  0  0  0  0
  181.6560  180.3910  138.0310 C   0  0  0  0  0  2  0  0  0  0  0  0
  187.6320  177.8200  140.4880 C   0  0  2  0  0  3  0  0  0  0  0  0
  182.1910  177.8760  135.5210 O   0  0  0  0  0  0  0  0  0  0  0  0
  188.8790  178.5750  136.9930 C   0  0  0  0  0  2  0  0  0  0  0  0
  189.3380  175.8460  142.0980 C   0  0  0  0  0  2  0  0  0  0  0  0
  186.4280  175.6550  137.5510 C   0  0  2  0  0  3  0  0  0  0  0  0
  186.9500  178.9020  141.0640 O   0  0  0  0  0  0  0  0  0  0  0  0
  189.7250  177.2340  135.1000 C   0  0  0  0  0  2  0  0  0  0  0  0
  188.4780  177.6560  134.3460 C   0  0  0  0  0  1  0  0  0  0  0  0
  1 16  1  0  0  0  0
  1 34  1  0  0  0  0
  2 33  1  0  0  0  0
  3 29  1  0  0  0  0
  4 23  1  0  0  0  0
  4 27  1  1  0  0  0
  6  7  1  6  0  0  0
  6  2  1  0  0  0  0
  6  8  1  0  0  0  0
  8 18  1  0  0  0  0
  9 15  1  1  0  0  0
  9  4  1  0  0  0  0
 10 13  1  1  0  0  0
 10 30  1  0  0  0  0
 11 20  1  0  0  0  0
 11 22  1  0  0  0  0
 12 24  1  6  0  0  0
 12  9  1  0  0  0  0
 16  5  1  6  0  0  0
 18 17  1  0  0  0  0
 18 14  2  0  0  0  0
 19 20  1  1  0  0  0
 19 12  1  0  0  0  0
 19 28  1  0  0  0  0
 23 27  1  1  0  0  0
 23 21  1  0  0  0  0
 24  3  1  0  0  0  0
 25 36  1  6  0  0  0
 25 32  1  0  0  0  0
 25 16  1  0  0  0  0
 26 32  1  6  0  0  0
 26 10  1  0  0  0  0
 26  7  1  0  0  0  0
 28 13  1  6  0  0  0
 29 15  1  0  0  0  0
 30  6  1  0  0  0  0
 30 35  1  1  0  0  0
 31 24  2  0  0  0  0
 33 17  1  0  0  0  0
 34 22  1  6  0  0  0
 34 28  1  0  0  0  0
 35 21  1  0  0  0  0
 37 36  1  0  0  0  0
M  END
>  <MODEL>
2

>  <REMARK>
 VINA RESULT:      -4.8      2.202      6.536
  Name = 
  1 active torsions:
  status: ('A' for Active; 'I' for Inactive)
    1  A    between atoms: C_11  and  C_26
                            x       y       z     vdW  Elec       q    Type
                         _______ _______ _______ _____ _____    ______ ____

>  <TORSDO>
F 1

$$$$
=
 OpenBabel10272414463D

 37 43  0  0  1  0  0  0  0  0999 V2000
  187.5370  175.2970  135.9320 O   0  0  0  0  0  0  0  0  0  0  0  0
  189.6900  176.6790  140.2430 C   0  0  0  0  0  2  0  0  0  0  0  0
  181.4760  178.1140  135.3440 O   0  0  0  0  0  0  0  0  0  0  0  0
  183.6170  177.3920  139.0520 C   0  0  1  0  0  3  0  0  0  0  0  0
  189.5740  174.0720  136.3840 C   0  0  0  0  0  1  0  0  0  0  0  0
  188.9520  177.9660  139.8400 C   0  0  2  0  0  0  0  0  0  0  0  0
  189.5500  178.4490  138.5120 C   0  0  0  0  0  2  0  0  0  0  0  0
  189.1620  179.0510  140.9120 C   0  0  0  0  0  2  0  0  0  0  0  0
  183.1240  177.8210  137.6580 C   0  0  1  0  0  3  0  0  0  0  0  0
  187.4460  177.4120  138.0750 C   0  0  1  0  0  3  0  0  0  0  0  0
  185.1430  173.3640  135.3500 S   0  0  0  0  0  0  0  0  0  0  0  0
  183.0740  176.6390  136.6580 C   0  0  2  0  0  3  0  0  0  0  0  0
  186.1120  177.3600  137.3390 C   0  0  0  0  0  2  0  0  0  0  0  0
  188.2650  179.1810  143.0950 O   0  0  0  0  0  0  0  0  0  0  0  0
  181.7590  178.5100  137.7080 C   0  0  0  0  0  2  0  0  0  0  0  0
  188.8190  175.3900  136.5070 C   0  0  1  0  0  3  0  0  0  0  0  0
  189.4790  177.1980  142.6910 C   0  0  0  0  0  2  0  0  0  0  0  0
  188.8940  178.5160  142.2890 C   0  0  0  0  0  0  0  0  0  0  0  0
  184.3560  175.8230  136.3260 C   0  0  2  0  0  3  0  0  0  0  0  0
  183.8910  174.3760  136.1760 C   0  0  0  0  0  2  0  0  0  0  0  0
  185.4860  178.1690  140.4630 C   0  0  0  0  0  2  0  0  0  0  0  0
  186.2120  173.4730  136.8070 C   0  0  0  0  0  2  0  0  0  0  0  0
  184.2890  178.6170  139.6530 C   0  0  2  0  0  3  0  0  0  0  0  0
  182.3400  177.0150  135.3800 C   0  0  0  0  0  0  0  0  0  0  0  0
  189.6280  176.5860  135.9660 C   0  0  2  0  0  3  0  0  0  0  0  0
  188.4380  178.3620  137.4800 C   0  0  2  0  0  3  0  0  0  0  0  0
  182.9990  178.1090  140.2450 C   0  0  0  0  0  2  0  0  0  0  0  0
  185.5630  175.9260  137.2940 C   0  0  1  0  0  3  0  0  0  0  0  0
  181.4780  179.1210  136.3500 C   0  0  0  0  0  2  0  0  0  0  0  0
  187.4620  177.6470  139.5720 C   0  0  2  0  0  3  0  0  0  0  0  0
  182.4390  176.2920  134.3540 O   0  0  0  0  0  0  0  0  0  0  0  0
  188.8980  177.9330  136.0800 C   0  0  0  0  0  2  0  0  0  0  0  0
  189.2160  176.1620  141.6010 C   0  0  0  0  0  2  0  0  0  0  0  0
  186.6970  174.9040  136.9910 C   0  0  2  0  0  3  0  0  0  0  0  0
  186.6390  178.7320  139.9080 O   0  0  0  0  0  0  0  0  0  0  0  0
  190.0110  176.3900  134.5040 C   0  0  0  0  0  2  0  0  0  0  0  0
  191.5130  176.2250  134.3700 C   0  0  0  0  0  1  0  0  0  0  0  0
  1 16  1  0  0  0  0
  1 34  1  0  0  0  0
  2 33  1  0  0  0  0
  3 24  1  0  0  0  0
  3 29  1  0  0  0  0
  4 23  1  0  0  0  0
  4 27  1  1  0  0  0
  6  7  1  6  0  0  0
  6  2  1  0  0  0  0
  6  8  1  0  0  0  0
  8 18  1  0  0  0  0
  9 15  1  1  0  0  0
  9  4  1  0  0  0  0
 10 13  1  6  0  0  0
 10 30  1  0  0  0  0
 11 20  1  0  0  0  0
 11 22  1  0  0  0  0
 12 24  1  6  0  0  0
 12  9  1  0  0  0  0
 16  5  1  6  0  0  0
 18 17  1  0  0  0  0
 18 14  2  0  0  0  0
 19 20  1  1  0  0  0
 19 12  1  0  0  0  0
 19 28  1  0  0  0  0
 23 27  1  1  0  0  0
 23 21  1  0  0  0  0
 25 36  1  6  0  0  0
 25 32  1  0  0  0  0
 25 16  1  0  0  0  0
 26 32  1  6  0  0  0
 26 10  1  0  0  0  0
 26  7  1  0  0  0  0
 28 13  1  6  0  0  0
 29 15  1  0  0  0  0
 30  6  1  0  0  0  0
 30 35  1  6  0  0  0
 31 24  2  0  0  0  0
 33 17  1  0  0  0  0
 34 22  1  6  0  0  0
 34 28  1  0  0  0  0
 35 21  1  0  0  0  0
 37 36  1  0  0  0  0
M  END
>  <MODEL>
3

>  <REMARK>
 VINA RESULT:      -3.8      2.584      6.662
  Name = 
  1 active torsions:
  status: ('A' for Active; 'I' for Inactive)
    1  A    between atoms: C_11  and  C_26
                            x       y       z     vdW  Elec       q    Type
                         _______ _______ _______ _____ _____    ______ ____

>  <TORSDO>
F 1

$$$$
=
 OpenBabel10272414463D

 37 43  0  0  1  0  0  0  0  0999 V2000
  187.4680  177.6400  137.1010 O   0  0  0  0  0  0  0  0  0  0  0  0
  192.1330  176.1640  136.0130 C   0  0  0  0  0  2  0  0  0  0  0  0
  183.2760  172.4020  136.9770 O   0  0  0  0  0  0  0  0  0  0  0  0
  187.0830  172.6860  134.9100 C   0  0  1  0  0  3  0  0  0  0  0  0
  188.9810  179.5020  136.7960 C   0  0  0  0  0  1  0  0  0  0  0  0
  191.6130  174.9680  136.8280 C   0  0  2  0  0  0  0  0  0  0  0  0
  191.2940  175.4730  138.2420 C   0  0  0  0  0  2  0  0  0  0  0  0
  192.6980  173.8790  136.9140 C   0  0  0  0  0  2  0  0  0  0  0  0
  185.9140  172.6410  135.9100 C   0  0  1  0  0  3  0  0  0  0  0  0
  189.2500  175.2120  137.0400 C   0  0  1  0  0  3  0  0  0  0  0  0
  184.9210  177.9240  135.3000 S   0  0  0  0  0  0  0  0  0  0  0  0
  184.9720  173.8630  135.7760 C   0  0  2  0  0  3  0  0  0  0  0  0
  187.7880  174.7850  136.9730 C   0  0  0  0  0  2  0  0  0  0  0  0
  193.4850  172.4250  135.2250 O   0  0  0  0  0  0  0  0  0  0  0  0
  185.1000  171.3500  135.7990 C   0  0  0  0  0  2  0  0  0  0  0  0
  188.7960  178.0700  137.2810 C   0  0  1  0  0  3  0  0  0  0  0  0
  193.6770  174.7100  134.6680 C   0  0  0  0  0  2  0  0  0  0  0  0
  193.2770  173.5790  135.5620 C   0  0  0  0  0  0  0  0  0  0  0  0
  185.5150  175.3090  135.9570 C   0  0  2  0  0  3  0  0  0  0  0  0
  184.7640  176.1590  134.9340 C   0  0  0  0  0  2  0  0  0  0  0  0
  189.5310  172.6230  135.2140 C   0  0  0  0  0  2  0  0  0  0  0  0
  186.6700  177.8780  134.8310 C   0  0  0  0  0  2  0  0  0  0  0  0
  188.2300  171.9390  135.5730 C   0  0  2  0  0  3  0  0  0  0  0  0
  183.6910  173.6750  136.5730 C   0  0  0  0  0  0  0  0  0  0  0  0
  189.2970  177.8670  138.7250 C   0  0  2  0  0  3  0  0  0  0  0  0
  189.7950  175.3130  138.4310 C   0  0  2  0  0  3  0  0  0  0  0  0
  187.5620  171.3500  134.3570 C   0  0  0  0  0  2  0  0  0  0  0  0
  187.0460  175.5370  135.8580 C   0  0  1  0  0  3  0  0  0  0  0  0
  184.1480  171.2780  136.9750 C   0  0  0  0  0  2  0  0  0  0  0  0
  190.2820  174.4660  136.2210 C   0  0  2  0  0  3  0  0  0  0  0  0
  182.9410  174.6580  136.8110 O   0  0  0  0  0  0  0  0  0  0  0  0
  189.1310  176.4320  139.2450 C   0  0  0  0  0  2  0  0  0  0  0  0
  192.5540  175.7420  134.6050 C   0  0  0  0  0  2  0  0  0  0  0  0
  187.4550  177.0380  135.8290 C   0  0  2  0  0  3  0  0  0  0  0  0
  190.1360  173.0800  136.3880 O   0  0  0  0  0  0  0  0  0  0  0  0
  188.5870  178.7970  139.7020 C   0  0  0  0  0  2  0  0  0  0  0  0
  188.5190  178.1620  141.0790 C   0  0  0  0  0  1  0  0  0  0  0  0
  1 16  1  0  0  0  0
  4 27  1  6  0  0  0
  4 23  1  0  0  0  0
  4  9  1  0  0  0  0
  6  2  1  6  0  0  0
  6  8  1  0  0  0  0
  6  7  1  0  0  0  0
  9 15  1  6  0  0  0
 10 13  1  1  0  0  0
 10 26  1  0  0  0  0
 12  9  1  0  0  0  0
 12 19  1  0  0  0  0
 12 24  1  1  0  0  0
 14 18  2  0  0  0  0
 15 29  1  0  0  0  0
 16  5  1  1  0  0  0
 16 25  1  0  0  0  0
 17 18  1  0  0  0  0
 18  8  1  0  0  0  0
 19 20  1  6  0  0  0
 20 11  1  0  0  0  0
 21 23  1  0  0  0  0
 21 35  1  0  0  0  0
 22 11  1  0  0  0  0
 23 27  1  6  0  0  0
 24 31  2  0  0  0  0
 24  3  1  0  0  0  0
 25 32  1  0  0  0  0
 25 36  1  1  0  0  0
 26  7  1  6  0  0  0
 26 32  1  0  0  0  0
 28 19  1  0  0  0  0
 28 13  1  1  0  0  0
 29  3  1  0  0  0  0
 30 35  1  1  0  0  0
 30  6  1  0  0  0  0
 30 10  1  0  0  0  0
 33 17  1  0  0  0  0
 33  2  1  0  0  0  0
 34 22  1  6  0  0  0
 34 28  1  0  0  0  0
 34  1  1  0  0  0  0
 36 37  1  0  0  0  0
M  END
>  <MODEL>
4

>  <REMARK>
 VINA RESULT:      -3.7      3.766      8.757
  Name = 
  1 active torsions:
  status: ('A' for Active; 'I' for Inactive)
    1  A    between atoms: C_11  and  C_26
                            x       y       z     vdW  Elec       q    Type
                         _______ _______ _______ _____ _____    ______ ____

>  <TORSDO>
F 1

$$$$
=
 OpenBabel10272414463D

 37 43  0  0  1  0  0  0  0  0999 V2000
  187.9190  175.9930  136.7500 O   0  0  0  0  0  0  0  0  0  0  0  0
  183.4280  176.6700  134.6290 C   0  0  0  0  0  2  0  0  0  0  0  0
  187.7080  177.6730  143.2420 O   0  0  0  0  0  0  0  0  0  0  0  0
  185.0250  179.0970  140.1400 C   0  0  1  0  0  3  0  0  0  0  0  0
  187.9820  175.7320  134.3460 C   0  0  0  0  0  1  0  0  0  0  0  0
  183.0360  176.1720  136.0290 C   0  0  2  0  0  0  0  0  0  0  0  0
  183.5860  174.7470  136.1870 C   0  0  0  0  0  2  0  0  0  0  0  0
  181.5020  176.1370  136.1660 C   0  0  0  0  0  2  0  0  0  0  0  0
  185.8720  178.2960  141.1460 C   0  0  1  0  0  3  0  0  0  0  0  0
  184.9880  176.2520  137.3970 C   0  0  1  0  0  3  0  0  0  0  0  0
  190.0650  178.0500  137.7370 S   0  0  0  0  0  0  0  0  0  0  0  0
  187.3830  178.3330  140.8110 C   0  0  2  0  0  3  0  0  0  0  0  0
  185.8240  176.6020  138.6230 C   0  0  0  0  0  2  0  0  0  0  0  0
  179.9830  177.9390  136.3470 O   0  0  0  0  0  0  0  0  0  0  0  0
  185.6550  178.7580  142.5890 C   0  0  0  0  0  2  0  0  0  0  0  0
  187.1860  175.5520  135.6320 C   0  0  1  0  0  3  0  0  0  0  0  0
  181.3280  178.0300  134.4100 C   0  0  0  0  0  2  0  0  0  0  0  0
  180.8860  177.4260  135.7060 C   0  0  0  0  0  0  0  0  0  0  0  0
  187.9060  177.8120  139.4420 C   0  0  2  0  0  3  0  0  0  0  0  0
  189.0440  178.7550  139.0540 C   0  0  0  0  0  2  0  0  0  0  0  0
  183.1190  178.4680  138.7050 C   0  0  0  0  0  2  0  0  0  0  0  0
  188.7120  178.2690  136.5530 C   0  0  0  0  0  2  0  0  0  0  0  0
  183.6590  178.4290  140.1180 C   0  0  2  0  0  3  0  0  0  0  0  0
  188.2250  177.7730  141.9470 C   0  0  0  0  0  0  0  0  0  0  0  0
  186.6530  174.1140  135.8000 C   0  0  2  0  0  3  0  0  0  0  0  0
  184.6200  174.8040  137.3000 C   0  0  2  0  0  3  0  0  0  0  0  0
  183.8020  179.8140  140.6940 C   0  0  0  0  0  2  0  0  0  0  0  0
  186.8920  177.6510  138.2800 C   0  0  1  0  0  3  0  0  0  0  0  0
  186.3150  177.7610  143.5180 C   0  0  0  0  0  2  0  0  0  0  0  0
  183.7300  177.0420  137.1030 C   0  0  2  0  0  3  0  0  0  0  0  0
  189.4300  177.4630  141.7520 O   0  0  0  0  0  0  0  0  0  0  0  0
  185.8400  173.8980  137.0850 C   0  0  0  0  0  2  0  0  0  0  0  0
  182.8530  178.0570  134.3460 C   0  0  0  0  0  2  0  0  0  0  0  0
  187.5550  177.3430  136.9070 C   0  0  2  0  0  3  0  0  0  0  0  0
  182.9400  177.1570  138.2570 O   0  0  0  0  0  0  0  0  0  0  0  0
  187.7830  173.0910  135.7910 C   0  0  0  0  0  2  0  0  0  0  0  0
  187.8670  172.3890  137.1330 C   0  0  0  0  0  1  0  0  0  0  0  0
  1 34  1  0  0  0  0
  3 29  1  0  0  0  0
  4 27  1  1  0  0  0
  4  9  1  0  0  0  0
  6  2  1  6  0  0  0
  6  8  1  0  0  0  0
  6  7  1  0  0  0  0
  6 30  1  0  0  0  0
  9 15  1  1  0  0  0
 10 13  1  1  0  0  0
 11 20  1  0  0  0  0
 12  9  1  0  0  0  0
 12 24  1  1  0  0  0
 15 29  1  0  0  0  0
 16  5  1  6  0  0  0
 16 25  1  0  0  0  0
 16  1  1  0  0  0  0
 17 18  1  0  0  0  0
 18  8  1  0  0  0  0
 18 14  2  0  0  0  0
 19 20  1  6  0  0  0
 19 12  1  0  0  0  0
 22 11  1  0  0  0  0
 23 21  1  6  0  0  0
 23  4  1  0  0  0  0
 23 27  1  0  0  0  0
 24  3  1  0  0  0  0
 25 36  1  1  0  0  0
 25 32  1  0  0  0  0
 26  7  1  6  0  0  0
 26 10  1  0  0  0  0
 28 13  1  1  0  0  0
 28 19  1  0  0  0  0
 30 10  1  0  0  0  0
 30 35  1  1  0  0  0
 31 24  2  0  0  0  0
 32 26  1  0  0  0  0
 33 17  1  0  0  0  0
 33  2  1  0  0  0  0
 34 22  1  1  0  0  0
 34 28  1  0  0  0  0
 35 21  1  0  0  0  0
 36 37  1  0  0  0  0
M  END
>  <MODEL>
5

>  <REMARK>
 VINA RESULT:      -3.6      1.823      2.644
  Name = 
  1 active torsions:
  status: ('A' for Active; 'I' for Inactive)
    1  A    between atoms: C_11  and  C_26
                            x       y       z     vdW  Elec       q    Type
                         _______ _______ _______ _____ _____    ______ ____

>  <TORSDO>
F 1

$$$$
=
 OpenBabel10272414463D

 37 43  0  0  1  0  0  0  0  0999 V2000
  184.6260  176.1740  135.8350 O   0  0  0  0  0  0  0  0  0  0  0  0
  180.8170  178.2310  138.3620 C   0  0  0  0  0  2  0  0  0  0  0  0
  190.1650  176.0980  139.6190 O   0  0  0  0  0  0  0  0  0  0  0  0
  186.7780  178.7730  140.0890 C   0  0  1  0  0  3  0  0  0  0  0  0
  182.6840  176.5460  134.4410 C   0  0  0  0  0  1  0  0  0  0  0  0
  181.5500  177.4680  139.4770 C   0  0  2  0  0  0  0  0  0  0  0  0
  181.5010  175.9740  139.1270 C   0  0  0  0  0  2  0  0  0  0  0  0
  180.8410  177.6940  140.8240 C   0  0  0  0  0  2  0  0  0  0  0  0
  187.7550  177.5900  139.9610 C   0  0  1  0  0  3  0  0  0  0  0  0
  183.6780  176.8100  138.6220 C   0  0  1  0  0  3  0  0  0  0  0  0
  187.1980  177.4480  134.5810 S   0  0  0  0  0  0  0  0  0  0  0  0
  188.2970  177.4220  138.5200 C   0  0  2  0  0  3  0  0  0  0  0  0
  185.1950  176.6590  138.6110 C   0  0  0  0  0  2  0  0  0  0  0  0
  180.7700  179.6410  142.1620 O   0  0  0  0  0  0  0  0  0  0  0  0
  188.9250  177.6900  140.9420 C   0  0  0  0  0  2  0  0  0  0  0  0
  183.2180  176.1900  135.8230 C   0  0  1  0  0  3  0  0  0  0  0  0
  179.9830  179.9780  139.9620 C   0  0  0  0  0  2  0  0  0  0  0  0
  180.5740  179.1510  141.0620 C   0  0  0  0  0  0  0  0  0  0  0  0
  187.3260  177.1890  137.3270 C   0  0  2  0  0  3  0  0  0  0  0  0
  187.9250  177.9650  136.1560 C   0  0  0  0  0  2  0  0  0  0  0  0
  184.4440  178.9210  140.8750 C   0  0  0  0  0  2  0  0  0  0  0  0
  185.6270  178.2260  135.0380 C   0  0  0  0  0  2  0  0  0  0  0  0
  185.8260  178.4090  141.2180 C   0  0  2  0  0  3  0  0  0  0  0  0
  189.4500  176.4330  138.4650 C   0  0  0  0  0  0  0  0  0  0  0  0
  182.6020  174.8890  136.3760 C   0  0  2  0  0  3  0  0  0  0  0  0
  182.9370  175.5370  138.8920 C   0  0  2  0  0  3  0  0  0  0  0  0
  186.8040  179.5410  141.4040 C   0  0  0  0  0  2  0  0  0  0  0  0
  185.8280  177.5370  137.5210 C   0  0  1  0  0  3  0  0  0  0  0  0
  189.6790  176.3760  140.9270 C   0  0  0  0  0  2  0  0  0  0  0  0
  183.0420  177.8760  139.4910 C   0  0  2  0  0  3  0  0  0  0  0  0
  189.8310  175.9610  137.3610 O   0  0  0  0  0  0  0  0  0  0  0  0
  183.1150  174.5030  137.7720 C   0  0  0  0  0  2  0  0  0  0  0  0
  180.7430  179.7280  138.6630 C   0  0  0  0  0  2  0  0  0  0  0  0
  184.9960  177.4790  136.2060 C   0  0  2  0  0  3  0  0  0  0  0  0
  183.5710  177.8330  140.7900 O   0  0  0  0  0  0  0  0  0  0  0  0
  182.8580  173.7080  135.4480 C   0  0  0  0  0  2  0  0  0  0  0  0
  181.7690  172.6640  135.6120 C   0  0  0  0  0  1  0  0  0  0  0  0
  1 34  1  0  0  0  0
  2 33  1  0  0  0  0
  3 29  1  0  0  0  0
  4 23  1  0  0  0  0
  4 27  1  1  0  0  0
  6  2  1  6  0  0  0
  6 30  1  0  0  0  0
  6  8  1  0  0  0  0
  7  6  1  0  0  0  0
  8 18  1  0  0  0  0
  9  4  1  0  0  0  0
  9 15  1  1  0  0  0
 10 13  1  1  0  0  0
 10 26  1  0  0  0  0
 10 30  1  0  0  0  0
 11 22  1  0  0  0  0
 11 20  1  0  0  0  0
 12 24  1  1  0  0  0
 12  9  1  0  0  0  0
 16  5  1  6  0  0  0
 16  1  1  0  0  0  0
 16 25  1  0  0  0  0
 17 18  1  0  0  0  0
 18 14  2  0  0  0  0
 19 20  1  6  0  0  0
 19 28  1  0  0  0  0
 19 12  1  0  0  0  0
 23 21  1  6  0  0  0
 23 27  1  0  0  0  0
 24  3  1  0  0  0  0
 25 36  1  6  0  0  0
 25 32  1  0  0  0  0
 26 32  1  6  0  0  0
 26  7  1  0  0  0  0
 28 13  1  1  0  0  0
 29 15  1  0  0  0  0
 30 35  1  1  0  0  0
 31 24  2  0  0  0  0
 33 17  1  0  0  0  0
 34 22  1  6  0  0  0
 34 28  1  0  0  0  0
 35 21  1  0  0  0  0
 36 37  1  0  0  0  0
M  END
>  <MODEL>
6

>  <REMARK>
 VINA RESULT:      -3.2      1.537      1.998
  Name = 
  1 active torsions:
  status: ('A' for Active; 'I' for Inactive)
    1  A    between atoms: C_11  and  C_26
                            x       y       z     vdW  Elec       q    Type
                         _______ _______ _______ _____ _____    ______ ____

>  <TORSDO>
F 1

$$$$
=
 OpenBabel10272414463D

 37 43  0  0  1  0  0  0  0  0999 V2000
  189.1710  177.5800  137.9010 O   0  0  0  0  0  0  0  0  0  0  0  0
  185.6400  174.2160  136.7460 C   0  0  0  0  0  2  0  0  0  0  0  0
  195.0740  175.7590  135.2820 O   0  0  0  0  0  0  0  0  0  0  0  0
  191.7460  173.1190  136.1810 C   0  0  1  0  0  3  0  0  0  0  0  0
  187.0940  177.9770  139.0760 C   0  0  0  0  0  1  0  0  0  0  0  0
  186.4860  174.2270  135.4630 C   0  0  2  0  0  0  0  0  0  0  0  0
  186.4060  175.6390  134.8650 C   0  0  0  0  0  2  0  0  0  0  0  0
  185.9200  173.2170  134.4480 C   0  0  0  0  0  2  0  0  0  0  0  0
  192.7070  174.2100  135.6750 C   0  0  1  0  0  3  0  0  0  0  0  0
  188.5160  175.3830  135.9470 C   0  0  1  0  0  3  0  0  0  0  0  0
  191.5960  177.4290  139.8780 S   0  0  0  0  0  0  0  0  0  0  0  0
  193.0980  175.2180  136.7840 C   0  0  2  0  0  3  0  0  0  0  0  0
  190.0240  175.6010  135.9980 C   0  0  0  0  0  2  0  0  0  0  0  0
  185.9830  170.8550  134.5060 O   0  0  0  0  0  0  0  0  0  0  0  0
  193.9730  173.6260  135.0430 C   0  0  0  0  0  2  0  0  0  0  0  0
  187.7700  177.4910  137.8000 C   0  0  1  0  0  3  0  0  0  0  0  0
  184.9720  171.8190  136.4090 C   0  0  0  0  0  2  0  0  0  0  0  0
  185.6750  171.8820  135.0890 C   0  0  0  0  0  0  0  0  0  0  0  0
  192.0090  176.0450  137.5250 C   0  0  2  0  0  3  0  0  0  0  0  0
  192.4810  176.1350  138.9750 C   0  0  0  0  0  2  0  0  0  0  0  0
  189.5050  172.4040  135.4350 C   0  0  0  0  0  2  0  0  0  0  0  0
  190.0790  176.4410  139.8310 C   0  0  0  0  0  2  0  0  0  0  0  0
  190.9170  172.7000  134.9770 C   0  0  2  0  0  3  0  0  0  0  0  0
  194.2420  176.1190  136.3470 C   0  0  0  0  0  0  0  0  0  0  0  0
  187.2180  178.1870  136.5390 C   0  0  2  0  0  3  0  0  0  0  0  0
  187.8100  176.2140  134.9210 C   0  0  2  0  0  3  0  0  0  0  0  0
  191.9060  171.7320  135.5740 C   0  0  0  0  0  2  0  0  0  0  0  0
  190.5380  175.5630  137.4450 C   0  0  1  0  0  3  0  0  0  0  0  0
  194.7250  174.7430  134.3500 C   0  0  0  0  0  2  0  0  0  0  0  0
  187.9710  173.9760  135.8180 C   0  0  2  0  0  3  0  0  0  0  0  0
  194.5070  177.1680  136.9920 O   0  0  0  0  0  0  0  0  0  0  0  0
  187.8740  177.7160  135.2320 C   0  0  0  0  0  2  0  0  0  0  0  0
  185.5940  172.8230  137.3740 C   0  0  0  0  0  2  0  0  0  0  0  0
  189.5750  176.3280  138.3990 C   0  0  2  0  0  3  0  0  0  0  0  0
  188.6310  173.2850  134.7920 O   0  0  0  0  0  0  0  0  0  0  0  0
  187.3790  179.7000  136.6160 C   0  0  0  0  0  2  0  0  0  0  0  0
  188.8030  180.0600  136.9960 C   0  0  0  0  0  1  0  0  0  0  0  0
  1 34  1  0  0  0  0
  2 33  1  0  0  0  0
  3 24  1  0  0  0  0
  4 27  1  6  0  0  0
  6  8  1  6  0  0  0
  6 30  1  0  0  0  0
  6  2  1  0  0  0  0
  7  6  1  0  0  0  0
  8 18  1  0  0  0  0
  9 15  1  1  0  0  0
  9  4  1  0  0  0  0
  9 12  1  0  0  0  0
 10 13  1  6  0  0  0
 12 24  1  6  0  0  0
 12 19  1  0  0  0  0
 14 18  2  0  0  0  0
 16  1  1  0  0  0  0
 16  5  1  1  0  0  0
 17 33  1  0  0  0  0
 18 17  1  0  0  0  0
 19 20  1  1  0  0  0
 20 11  1  0  0  0  0
 22 11  1  0  0  0  0
 23 21  1  1  0  0  0
 23 27  1  0  0  0  0
 23  4  1  0  0  0  0
 24 31  2  0  0  0  0
 25 36  1  1  0  0  0
 25 16  1  0  0  0  0
 26  7  1  1  0  0  0
 26 32  1  0  0  0  0
 26 10  1  0  0  0  0
 28 13  1  6  0  0  0
 28 19  1  0  0  0  0
 28 34  1  0  0  0  0
 29 15  1  0  0  0  0
 29  3  1  0  0  0  0
 30 35  1  6  0  0  0
 30 10  1  0  0  0  0
 32 25  1  0  0  0  0
 34 22  1  1  0  0  0
 35 21  1  0  0  0  0
 36 37  1  0  0  0  0
M  END
>  <MODEL>
7

>  <REMARK>
 VINA RESULT:      -2.9      4.129      7.525
  Name = 
  1 active torsions:
  status: ('A' for Active; 'I' for Inactive)
    1  A    between atoms: C_11  and  C_26
                            x       y       z     vdW  Elec       q    Type
                         _______ _______ _______ _____ _____    ______ ____

>  <TORSDO>
F 1

$$$$
