=
 OpenBabel10272401113D

 27 31  0  0  0  0  0  0  0  0999 V2000
  184.9460  178.5490  144.8440 N   0  0  0  0  0  0  0  0  0  0  0  0
  186.1690  178.3130  142.7310 C   0  0  0  0  0  0  0  0  0  0  0  0
  187.3320  176.8990  144.3710 O   0  0  0  0  0  0  0  0  0  0  0  0
  189.3740  177.8200  140.0780 C   0  0  0  0  0  3  0  0  0  0  0  0
  191.5370  176.8390  139.5110 N   0  0  0  0  0  1  0  0  0  0  0  0
  186.2020  178.9300  141.5150 N   0  0  0  0  0  0  0  0  0  0  0  0
  190.4790  176.3530  141.6580 C   0  0  0  0  0  3  0  0  0  0  0  0
  188.8570  177.8710  148.8180 O   0  0  0  0  0  1  0  0  0  0  0  0
  189.4200  176.5140  142.5550 C   0  0  0  0  0  3  0  0  0  0  0  0
  187.9210  178.0610  147.8100 C   0  0  0  0  0  0  0  0  0  0  0  0
  188.3250  177.3260  142.2210 C   0  0  0  0  0  0  0  0  0  0  0  0
  184.9320  178.4400  143.5470 C   0  0  0  0  0  0  0  0  0  0  0  0
  190.4560  177.0040  140.4210 C   0  0  0  0  0  0  0  0  0  0  0  0
  188.3120  177.9810  140.9730 C   0  0  0  0  0  0  0  0  0  0  0  0
  186.0360  178.4510  145.7660 C   0  0  0  0  0  0  0  0  0  0  0  0
  187.2620  177.5110  143.1210 C   0  0  0  0  0  0  0  0  0  0  0  0
  188.0590  177.3920  146.5930 C   0  0  0  0  0  3  0  0  0  0  0  0
  187.2340  178.7940  140.6450 C   0  0  0  0  0  3  0  0  0  0  0  0
  186.8400  178.9180  148.0140 C   0  0  0  0  0  3  0  0  0  0  0  0
  185.8960  179.0980  147.0000 C   0  0  0  0  0  3  0  0  0  0  0  0
  187.1310  177.5870  145.5630 C   0  0  0  0  0  0  0  0  0  0  0  0
  181.0960  178.6990  141.6230 C   0  0  0  0  0  3  0  0  0  0  0  0
  183.6120  178.5460  142.8700 C   0  0  0  0  0  0  0  0  0  0  0  0
  183.4580  178.1790  141.5220 C   0  0  0  0  0  3  0  0  0  0  0  0
  182.2080  178.2590  140.9010 C   0  0  0  0  0  3  0  0  0  0  0  0
  181.2330  179.0580  142.9650 C   0  0  0  0  0  3  0  0  0  0  0  0
  182.4830  178.9780  143.5860 C   0  0  0  0  0  3  0  0  0  0  0  0
  1 15  1  0  0  0  0
  2 16  1  0  0  0  0
  2 12  1  0  0  0  0
  3 21  1  0  0  0  0
  4 13  2  0  0  0  0
  4 14  1  0  0  0  0
  5 13  1  0  0  0  0
  6  2  2  0  0  0  0
  7  9  2  0  0  0  0
 10 19  1  0  0  0  0
 10  8  1  0  0  0  0
 11  9  1  0  0  0  0
 11 16  2  0  0  0  0
 12  1  2  0  0  0  0
 13  7  1  0  0  0  0
 14 11  1  0  0  0  0
 15 20  1  0  0  0  0
 16  3  1  0  0  0  0
 17 10  2  0  0  0  0
 18 14  2  0  0  0  0
 18  6  1  0  0  0  0
 20 19  2  0  0  0  0
 21 15  2  0  0  0  0
 21 17  1  0  0  0  0
 22 26  1  0  0  0  0
 23 12  1  0  0  0  0
 23 27  1  0  0  0  0
 24 23  2  0  0  0  0
 25 24  1  0  0  0  0
 25 22  2  0  0  0  0
 26 27  2  0  0  0  0
M  END
>  <MODEL>
1

>  <REMARK>
 VINA RESULT:     -10.3      0.000      0.000
  Name = 
  1 active torsions:
  status: ('A' for Active; 'I' for Inactive)
    1  A    between atoms: C_9  and  C_15
                            x       y       z     vdW  Elec       q    Type
                         _______ _______ _______ _____ _____    ______ ____

>  <TORSDO>
F 1

$$$$
=
 OpenBabel10272401113D

 27 31  0  0  0  0  0  0  0  0999 V2000
  185.8370  178.1940  143.8700 N   0  0  0  0  0  0  0  0  0  0  0  0
  187.9790  177.4870  142.9060 C   0  0  0  0  0  0  0  0  0  0  0  0
  186.9850  179.0700  141.3100 O   0  0  0  0  0  0  0  0  0  0  0  0
  190.8400  176.4310  140.0330 C   0  0  0  0  0  3  0  0  0  0  0  0
  191.8380  176.7060  137.8220 N   0  0  0  0  0  1  0  0  0  0  0  0
  188.9170  176.5250  143.1410 N   0  0  0  0  0  0  0  0  0  0  0  0
  189.9170  178.0560  138.4910 C   0  0  0  0  0  3  0  0  0  0  0  0
  182.5750  179.2570  139.4230 O   0  0  0  0  0  1  0  0  0  0  0  0
  188.9530  178.4130  139.4380 C   0  0  0  0  0  3  0  0  0  0  0  0
  183.4000  178.9580  140.4990 C   0  0  0  0  0  0  0  0  0  0  0  0
  188.9250  177.7860  140.6930 C   0  0  0  0  0  0  0  0  0  0  0  0
  187.0920  177.8870  144.0310 C   0  0  0  0  0  0  0  0  0  0  0  0
  190.8590  177.0670  138.7880 C   0  0  0  0  0  0  0  0  0  0  0  0
  189.8780  176.7880  140.9820 C   0  0  0  0  0  0  0  0  0  0  0  0
  185.0720  178.3470  142.6700 C   0  0  0  0  0  0  0  0  0  0  0  0
  187.9500  178.1230  141.6470 C   0  0  0  0  0  0  0  0  0  0  0  0
  184.7770  179.1630  140.4030 C   0  0  0  0  0  3  0  0  0  0  0  0
  189.8460  176.1590  142.2210 C   0  0  0  0  0  3  0  0  0  0  0  0
  182.8530  178.4570  141.6800 C   0  0  0  0  0  3  0  0  0  0  0  0
  183.6860  178.1680  142.7630 C   0  0  0  0  0  3  0  0  0  0  0  0
  185.6220  178.8530  141.4750 C   0  0  0  0  0  0  0  0  0  0  0  0
  188.5790  177.8460  148.0650 C   0  0  0  0  0  3  0  0  0  0  0  0
  187.6100  177.8520  145.4250 C   0  0  0  0  0  0  0  0  0  0  0  0
  188.9790  177.6690  145.6850 C   0  0  0  0  0  3  0  0  0  0  0  0
  189.4600  177.6630  146.9970 C   0  0  0  0  0  3  0  0  0  0  0  0
  187.2170  178.0380  147.8210 C   0  0  0  0  0  3  0  0  0  0  0  0
  186.7370  178.0450  146.5080 C   0  0  0  0  0  3  0  0  0  0  0  0
  1 12  2  0  0  0  0
  2  6  1  0  0  0  0
  2 12  1  0  0  0  0
  3 21  1  0  0  0  0
  3 16  1  0  0  0  0
  4 14  1  0  0  0  0
  5 13  1  0  0  0  0
  7 13  1  0  0  0  0
  7  9  2  0  0  0  0
  8 10  1  0  0  0  0
  9 11  1  0  0  0  0
 10 19  1  0  0  0  0
 11 14  2  0  0  0  0
 11 16  1  0  0  0  0
 12 23  1  0  0  0  0
 13  4  2  0  0  0  0
 14 18  1  0  0  0  0
 15 20  1  0  0  0  0
 15  1  1  0  0  0  0
 16  2  2  0  0  0  0
 17 10  2  0  0  0  0
 17 21  1  0  0  0  0
 18  6  2  0  0  0  0
 19 20  2  0  0  0  0
 21 15  2  0  0  0  0
 23 24  2  0  0  0  0
 23 27  1  0  0  0  0
 24 25  1  0  0  0  0
 25 22  2  0  0  0  0
 26 22  1  0  0  0  0
 27 26  2  0  0  0  0
M  END
>  <MODEL>
2

>  <REMARK>
 VINA RESULT:     -10.2      2.057      5.506
  Name = 
  1 active torsions:
  status: ('A' for Active; 'I' for Inactive)
    1  A    between atoms: C_9  and  C_15
                            x       y       z     vdW  Elec       q    Type
                         _______ _______ _______ _____ _____    ______ ____

>  <TORSDO>
F 1

$$$$
=
 OpenBabel10272401113D

 27 31  0  0  0  0  0  0  0  0999 V2000
  187.2080  178.2800  141.4760 N   0  0  0  0  0  0  0  0  0  0  0  0
  189.2710  177.8160  142.7190 C   0  0  0  0  0  0  0  0  0  0  0  0
  187.4190  176.9910  144.1090 O   0  0  0  0  0  0  0  0  0  0  0  0
  191.8820  177.3220  145.9580 C   0  0  0  0  0  3  0  0  0  0  0  0
  192.3150  176.6200  148.2560 N   0  0  0  0  0  1  0  0  0  0  0  0
  190.5890  178.1610  142.6430 N   0  0  0  0  0  0  0  0  0  0  0  0
  190.0770  176.4250  147.3000 C   0  0  0  0  0  3  0  0  0  0  0  0
  183.3270  179.1130  145.4500 O   0  0  0  0  0  1  0  0  0  0  0  0
  189.1930  176.5900  146.2300 C   0  0  0  0  0  3  0  0  0  0  0  0
  184.3170  178.9290  144.4940 C   0  0  0  0  0  0  0  0  0  0  0  0
  189.6460  177.1190  145.0120 C   0  0  0  0  0  0  0  0  0  0  0  0
  188.4540  177.9010  141.4790 C   0  0  0  0  0  0  0  0  0  0  0  0
  191.4190  176.7890  147.1640 C   0  0  0  0  0  0  0  0  0  0  0  0
  191.0010  177.4870  144.8850 C   0  0  0  0  0  0  0  0  0  0  0  0
  186.3270  178.5610  142.5680 C   0  0  0  0  0  0  0  0  0  0  0  0
  188.7650  177.3080  143.9340 C   0  0  0  0  0  0  0  0  0  0  0  0
  185.3750  178.0530  144.7430 C   0  0  0  0  0  3  0  0  0  0  0  0
  191.4490  178.0200  143.6830 C   0  0  0  0  0  3  0  0  0  0  0  0
  184.2550  179.6160  143.2820 C   0  0  0  0  0  3  0  0  0  0  0  0
  185.2480  179.4190  142.3210 C   0  0  0  0  0  3  0  0  0  0  0  0
  186.3880  177.8690  143.7940 C   0  0  0  0  0  0  0  0  0  0  0  0
  190.2350  177.1260  137.6440 C   0  0  0  0  0  3  0  0  0  0  0  0
  189.0880  177.6400  140.1600 C   0  0  0  0  0  0  0  0  0  0  0  0
  190.0030  176.5870  139.9920 C   0  0  0  0  0  3  0  0  0  0  0  0
  190.5760  176.3340  138.7420 C   0  0  0  0  0  3  0  0  0  0  0  0
  189.3200  178.1700  137.7950 C   0  0  0  0  0  3  0  0  0  0  0  0
  188.7470  178.4230  139.0450 C   0  0  0  0  0  3  0  0  0  0  0  0
  1 12  2  0  0  0  0
  1 15  1  0  0  0  0
  2 16  1  0  0  0  0
  4 13  2  0  0  0  0
  6  2  2  0  0  0  0
  6 18  1  0  0  0  0
  9  7  2  0  0  0  0
 10 17  1  0  0  0  0
 10  8  1  0  0  0  0
 11  9  1  0  0  0  0
 12  2  1  0  0  0  0
 13  7  1  0  0  0  0
 13  5  1  0  0  0  0
 14 11  1  0  0  0  0
 14  4  1  0  0  0  0
 15 21  1  0  0  0  0
 16  3  1  0  0  0  0
 16 11  2  0  0  0  0
 18 14  2  0  0  0  0
 19 10  2  0  0  0  0
 20 15  2  0  0  0  0
 20 19  1  0  0  0  0
 21  3  1  0  0  0  0
 21 17  2  0  0  0  0
 22 26  2  0  0  0  0
 22 25  1  0  0  0  0
 23 12  1  0  0  0  0
 24 23  1  0  0  0  0
 25 24  2  0  0  0  0
 26 27  1  0  0  0  0
 27 23  2  0  0  0  0
M  END
>  <MODEL>
3

>  <REMARK>
 VINA RESULT:     -10.1      2.677      5.781
  Name = 
  1 active torsions:
  status: ('A' for Active; 'I' for Inactive)
    1  A    between atoms: C_9  and  C_15
                            x       y       z     vdW  Elec       q    Type
                         _______ _______ _______ _____ _____    ______ ____

>  <TORSDO>
F 1

$$$$
=
 OpenBabel10272401113D

 27 31  0  0  0  0  0  0  0  0999 V2000
  184.6180  178.4350  144.1140 N   0  0  0  0  0  0  0  0  0  0  0  0
  186.1010  178.2270  142.1710 C   0  0  0  0  0  0  0  0  0  0  0  0
  187.1480  176.9460  143.9890 O   0  0  0  0  0  0  0  0  0  0  0  0
  189.6300  177.8880  139.9380 C   0  0  0  0  0  3  0  0  0  0  0  0
  191.9060  177.0470  139.6680 N   0  0  0  0  0  1  0  0  0  0  0  0
  186.2390  178.8100  140.9450 N   0  0  0  0  0  0  0  0  0  0  0  0
  190.6310  176.5490  141.6910 C   0  0  0  0  0  3  0  0  0  0  0  0
  188.0550  178.1490  148.5470 O   0  0  0  0  0  1  0  0  0  0  0  0
  189.4620  176.6590  142.4490 C   0  0  0  0  0  3  0  0  0  0  0  0
  187.2370  178.2440  147.4290 C   0  0  0  0  0  0  0  0  0  0  0  0
  188.3640  177.3810  141.9580 C   0  0  0  0  0  0  0  0  0  0  0  0
  184.7680  178.2890  142.8290 C   0  0  0  0  0  0  0  0  0  0  0  0
  190.7140  177.1610  140.4370 C   0  0  0  0  0  0  0  0  0  0  0  0
  188.4590  177.9990  140.6930 C   0  0  0  0  0  0  0  0  0  0  0  0
  185.5920  178.4410  145.1610 C   0  0  0  0  0  0  0  0  0  0  0  0
  187.1900  177.5160  142.7180 C   0  0  0  0  0  0  0  0  0  0  0  0
  187.5660  177.5530  146.2610 C   0  0  0  0  0  3  0  0  0  0  0  0
  187.3760  178.7230  140.2100 C   0  0  0  0  0  3  0  0  0  0  0  0
  186.0840  179.0280  147.4700 C   0  0  0  0  0  3  0  0  0  0  0  0
  185.2610  179.1110  146.3460 C   0  0  0  0  0  3  0  0  0  0  0  0
  186.7590  177.6510  145.1220 C   0  0  0  0  0  0  0  0  0  0  0  0
  181.2310  178.3080  140.3860 C   0  0  0  0  0  3  0  0  0  0  0  0
  183.5360  178.2810  141.9960 C   0  0  0  0  0  0  0  0  0  0  0  0
  182.3460  178.8700  142.4580 C   0  0  0  0  0  3  0  0  0  0  0  0
  181.2000  178.8800  141.6590 C   0  0  0  0  0  3  0  0  0  0  0  0
  182.4090  177.7270  139.9100 C   0  0  0  0  0  3  0  0  0  0  0  0
  183.5550  177.7180  140.7100 C   0  0  0  0  0  3  0  0  0  0  0  0
  1 15  1  0  0  0  0
  2 16  1  0  0  0  0
  2 12  1  0  0  0  0
  3 21  1  0  0  0  0
  4 13  2  0  0  0  0
  4 14  1  0  0  0  0
  5 13  1  0  0  0  0
  6  2  2  0  0  0  0
  7  9  2  0  0  0  0
 10 19  1  0  0  0  0
 10  8  1  0  0  0  0
 11  9  1  0  0  0  0
 11 16  2  0  0  0  0
 12  1  2  0  0  0  0
 13  7  1  0  0  0  0
 14 11  1  0  0  0  0
 15 20  1  0  0  0  0
 16  3  1  0  0  0  0
 17 10  2  0  0  0  0
 18 14  2  0  0  0  0
 18  6  1  0  0  0  0
 20 19  2  0  0  0  0
 21 15  2  0  0  0  0
 21 17  1  0  0  0  0
 22 25  1  0  0  0  0
 23 24  1  0  0  0  0
 23 12  1  0  0  0  0
 25 24  2  0  0  0  0
 26 22  2  0  0  0  0
 26 27  1  0  0  0  0
 27 23  2  0  0  0  0
M  END
>  <MODEL>
4

>  <REMARK>
 VINA RESULT:      -9.6      0.671      1.188
  Name = 
  1 active torsions:
  status: ('A' for Active; 'I' for Inactive)
    1  A    between atoms: C_9  and  C_15
                            x       y       z     vdW  Elec       q    Type
                         _______ _______ _______ _____ _____    ______ ____

>  <TORSDO>
F 1

$$$$
=
 OpenBabel10272401113D

 27 31  0  0  0  0  0  0  0  0999 V2000
  186.5990  178.0930  145.2020 N   0  0  0  0  0  0  0  0  0  0  0  0
  187.1450  178.1190  142.8110 C   0  0  0  0  0  0  0  0  0  0  0  0
  188.6600  176.4880  143.8540 O   0  0  0  0  0  0  0  0  0  0  0  0
  189.4160  177.9350  139.2950 C   0  0  0  0  0  3  0  0  0  0  0  0
  191.2700  177.0090  138.0040 N   0  0  0  0  0  1  0  0  0  0  0  0
  186.8550  178.8880  141.7220 N   0  0  0  0  0  0  0  0  0  0  0  0
  190.8560  176.2610  140.2920 C   0  0  0  0  0  3  0  0  0  0  0  0
  191.4530  176.8530  147.7410 O   0  0  0  0  0  1  0  0  0  0  0  0
  190.1110  176.3170  141.4730 C   0  0  0  0  0  3  0  0  0  0  0  0
  190.2770  177.1850  147.0830 C   0  0  0  0  0  0  0  0  0  0  0  0
  189.0090  177.1790  141.5750 C   0  0  0  0  0  0  0  0  0  0  0  0
  186.2040  178.1540  143.9620 C   0  0  0  0  0  0  0  0  0  0  0  0
  190.5090  177.0680  139.2040 C   0  0  0  0  0  0  0  0  0  0  0  0
  188.6680  177.9910  140.4740 C   0  0  0  0  0  0  0  0  0  0  0  0
  187.9030  177.8620  145.7440 C   0  0  0  0  0  0  0  0  0  0  0  0
  188.2630  177.2590  142.7630 C   0  0  0  0  0  0  0  0  0  0  0  0
  190.0220  176.6790  145.8070 C   0  0  0  0  0  3  0  0  0  0  0  0
  187.5840  178.8530  140.5780 C   0  0  0  0  0  3  0  0  0  0  0  0
  189.3450  178.0220  147.6970 C   0  0  0  0  0  3  0  0  0  0  0  0
  188.1590  178.3440  147.0340 C   0  0  0  0  0  3  0  0  0  0  0  0
  188.8470  177.0180  145.1260 C   0  0  0  0  0  0  0  0  0  0  0  0
  181.9950  178.7070  143.2910 C   0  0  0  0  0  3  0  0  0  0  0  0
  184.7530  178.3630  143.7210 C   0  0  0  0  0  0  0  0  0  0  0  0
  184.2110  178.2580  142.4280 C   0  0  0  0  0  3  0  0  0  0  0  0
  182.8410  178.4330  142.2140 C   0  0  0  0  0  3  0  0  0  0  0  0
  182.5180  178.8050  144.5820 C   0  0  0  0  0  3  0  0  0  0  0  0
  183.8880  178.6300  144.7950 C   0  0  0  0  0  3  0  0  0  0  0  0
  1 15  1  0  0  0  0
  2 12  1  0  0  0  0
  3 21  1  0  0  0  0
  4 14  1  0  0  0  0
  5 13  1  0  0  0  0
  6  2  2  0  0  0  0
  7  9  2  0  0  0  0
  9 11  1  0  0  0  0
 10 19  1  0  0  0  0
 10  8  1  0  0  0  0
 11 16  2  0  0  0  0
 12  1  2  0  0  0  0
 13  4  2  0  0  0  0
 13  7  1  0  0  0  0
 14 18  2  0  0  0  0
 14 11  1  0  0  0  0
 15 20  1  0  0  0  0
 16  2  1  0  0  0  0
 16  3  1  0  0  0  0
 17 10  2  0  0  0  0
 18  6  1  0  0  0  0
 20 19  2  0  0  0  0
 21 15  2  0  0  0  0
 21 17  1  0  0  0  0
 22 26  1  0  0  0  0
 23 12  1  0  0  0  0
 23 27  1  0  0  0  0
 24 23  2  0  0  0  0
 25 24  1  0  0  0  0
 25 22  2  0  0  0  0
 26 27  2  0  0  0  0
M  END
>  <MODEL>
5

>  <REMARK>
 VINA RESULT:      -9.4      1.307      1.693
  Name = 
  1 active torsions:
  status: ('A' for Active; 'I' for Inactive)
    1  A    between atoms: C_9  and  C_15
                            x       y       z     vdW  Elec       q    Type
                         _______ _______ _______ _____ _____    ______ ____

>  <TORSDO>
F 1

$$$$
=
 OpenBabel10272401113D

 27 31  0  0  0  0  0  0  0  0999 V2000
  185.7860  178.4070  140.4790 N   0  0  0  0  0  0  0  0  0  0  0  0
  186.7860  177.9340  142.6680 C   0  0  0  0  0  0  0  0  0  0  0  0
  188.5560  178.9510  141.2970 O   0  0  0  0  0  0  0  0  0  0  0  0
  189.6540  176.8780  145.5340 C   0  0  0  0  0  3  0  0  0  0  0  0
  191.9570  176.8850  146.3440 N   0  0  0  0  0  1  0  0  0  0  0  0
  186.4610  177.2320  143.7910 N   0  0  0  0  0  0  0  0  0  0  0  0
  191.3840  177.9590  144.2270 C   0  0  0  0  0  3  0  0  0  0  0  0
  190.0460  177.9270  136.8500 O   0  0  0  0  0  1  0  0  0  0  0  0
  190.4390  178.3120  143.2600 C   0  0  0  0  0  3  0  0  0  0  0  0
  189.0100  178.0100  137.7710 C   0  0  0  0  0  0  0  0  0  0  0  0
  189.0920  177.9560  143.4220 C   0  0  0  0  0  0  0  0  0  0  0  0
  185.6820  178.3790  141.7770 C   0  0  0  0  0  0  0  0  0  0  0  0
  190.9920  177.2440  145.3620 C   0  0  0  0  0  0  0  0  0  0  0  0
  188.7070  177.2320  144.5690 C   0  0  0  0  0  0  0  0  0  0  0  0
  186.9200  178.1700  139.6390 C   0  0  0  0  0  0  0  0  0  0  0  0
  188.1340  178.2880  142.4490 C   0  0  0  0  0  0  0  0  0  0  0  0
  189.2650  178.4450  139.0730 C   0  0  0  0  0  3  0  0  0  0  0  0
  187.3750  176.8690  144.7260 C   0  0  0  0  0  3  0  0  0  0  0  0
  187.7120  177.6620  137.3970 C   0  0  0  0  0  3  0  0  0  0  0  0
  186.6730  177.7580  138.3240 C   0  0  0  0  0  3  0  0  0  0  0  0
  188.2320  178.5200  140.0150 C   0  0  0  0  0  0  0  0  0  0  0  0
  181.8580  179.3230  143.5000 C   0  0  0  0  0  3  0  0  0  0  0  0
  184.3580  178.7220  142.3600 C   0  0  0  0  0  0  0  0  0  0  0  0
  183.1740  178.5470  141.6230 C   0  0  0  0  0  3  0  0  0  0  0  0
  181.9320  178.8490  142.1880 C   0  0  0  0  0  3  0  0  0  0  0  0
  183.0250  179.4930  144.2470 C   0  0  0  0  0  3  0  0  0  0  0  0
  184.2680  179.1910  143.6810 C   0  0  0  0  0  3  0  0  0  0  0  0
  1 12  2  0  0  0  0
  2  6  1  0  0  0  0
  3 16  1  0  0  0  0
  6 18  2  0  0  0  0
  7 13  2  0  0  0  0
  8 10  1  0  0  0  0
  9 11  2  0  0  0  0
  9  7  1  0  0  0  0
 10 17  1  0  0  0  0
 11 14  1  0  0  0  0
 12 23  1  0  0  0  0
 12  2  1  0  0  0  0
 13  4  1  0  0  0  0
 13  5  1  0  0  0  0
 14 18  1  0  0  0  0
 14  4  2  0  0  0  0
 15 21  1  0  0  0  0
 15  1  1  0  0  0  0
 16  2  2  0  0  0  0
 16 11  1  0  0  0  0
 17 21  2  0  0  0  0
 19 10  2  0  0  0  0
 19 20  1  0  0  0  0
 20 15  2  0  0  0  0
 21  3  1  0  0  0  0
 22 26  1  0  0  0  0
 23 27  1  0  0  0  0
 24 25  1  0  0  0  0
 24 23  2  0  0  0  0
 25 22  2  0  0  0  0
 27 26  2  0  0  0  0
M  END
>  <MODEL>
6

>  <REMARK>
 VINA RESULT:      -9.2      2.737      5.404
  Name = 
  1 active torsions:
  status: ('A' for Active; 'I' for Inactive)
    1  A    between atoms: C_9  and  C_15
                            x       y       z     vdW  Elec       q    Type
                         _______ _______ _______ _____ _____    ______ ____

>  <TORSDO>
F 1

$$$$
=
 OpenBabel10272401113D

 27 31  0  0  0  0  0  0  0  0999 V2000
  187.2990  178.0990  142.8790 N   0  0  0  0  0  0  0  0  0  0  0  0
  188.8430  177.4590  141.0840 C   0  0  0  0  0  0  0  0  0  0  0  0
  187.2430  179.0410  140.0960 O   0  0  0  0  0  0  0  0  0  0  0  0
  190.2350  176.5160  137.2470 C   0  0  0  0  0  3  0  0  0  0  0  0
  190.2000  176.8470  134.8280 N   0  0  0  0  0  1  0  0  0  0  0  0
  189.8070  176.5160  140.8770 N   0  0  0  0  0  0  0  0  0  0  0  0
  188.7210  178.1400  136.2790 C   0  0  0  0  0  3  0  0  0  0  0  0
  182.4460  179.1490  140.2550 O   0  0  0  0  0  1  0  0  0  0  0  0
  188.2430  178.4600  137.5520 C   0  0  0  0  0  3  0  0  0  0  0  0
  183.6530  178.8550  140.8740 C   0  0  0  0  0  0  0  0  0  0  0  0
  188.7590  177.8140  138.6860 C   0  0  0  0  0  0  0  0  0  0  0  0
  188.5100  177.8210  142.4880 C   0  0  0  0  0  0  0  0  0  0  0  0
  189.7160  177.1700  136.1260 C   0  0  0  0  0  0  0  0  0  0  0  0
  189.7600  176.8350  138.5220 C   0  0  0  0  0  0  0  0  0  0  0  0
  186.0960  178.2520  142.1200 C   0  0  0  0  0  0  0  0  0  0  0  0
  188.2740  178.1120  139.9710 C   0  0  0  0  0  0  0  0  0  0  0  0
  184.8570  179.0950  140.2090 C   0  0  0  0  0  3  0  0  0  0  0  0
  190.2650  176.1870  139.6430 C   0  0  0  0  0  3  0  0  0  0  0  0
  183.6650  178.3230  142.1630 C   0  0  0  0  0  3  0  0  0  0  0  0
  184.8830  178.0380  142.7850 C   0  0  0  0  0  3  0  0  0  0  0  0
  186.0810  178.7880  140.8170 C   0  0  0  0  0  0  0  0  0  0  0  0
  191.6070  177.6660  145.4650 C   0  0  0  0  0  3  0  0  0  0  0  0
  189.5680  177.7780  143.5300 C   0  0  0  0  0  0  0  0  0  0  0  0
  189.4310  176.9660  144.6700 C   0  0  0  0  0  3  0  0  0  0  0  0
  190.4420  176.9130  145.6330 C   0  0  0  0  0  3  0  0  0  0  0  0
  191.7610  178.4700  144.3330 C   0  0  0  0  0  3  0  0  0  0  0  0
  190.7490  178.5220  143.3700 C   0  0  0  0  0  3  0  0  0  0  0  0
  2 12  1  0  0  0  0
  3 21  1  0  0  0  0
  4 14  1  0  0  0  0
  5 13  1  0  0  0  0
  6  2  1  0  0  0  0
  7  9  2  0  0  0  0
  8 10  1  0  0  0  0
  9 11  1  0  0  0  0
 10 19  1  0  0  0  0
 11 16  1  0  0  0  0
 12  1  2  0  0  0  0
 12 23  1  0  0  0  0
 13  7  1  0  0  0  0
 13  4  2  0  0  0  0
 14 11  2  0  0  0  0
 14 18  1  0  0  0  0
 15 20  1  0  0  0  0
 15  1  1  0  0  0  0
 16  3  1  0  0  0  0
 16  2  2  0  0  0  0
 17 21  1  0  0  0  0
 17 10  2  0  0  0  0
 18  6  2  0  0  0  0
 19 20  2  0  0  0  0
 21 15  2  0  0  0  0
 22 25  1  0  0  0  0
 23 24  1  0  0  0  0
 24 25  2  0  0  0  0
 26 22  2  0  0  0  0
 27 23  2  0  0  0  0
 27 26  1  0  0  0  0
M  END
>  <MODEL>
7

>  <REMARK>
 VINA RESULT:      -9.0      2.945      6.293
  Name = 
  1 active torsions:
  status: ('A' for Active; 'I' for Inactive)
    1  A    between atoms: C_9  and  C_15
                            x       y       z     vdW  Elec       q    Type
                         _______ _______ _______ _____ _____    ______ ____

>  <TORSDO>
F 1

$$$$
=
 OpenBabel10272401113D

 27 31  0  0  0  0  0  0  0  0999 V2000
  188.8360  177.5690  139.3240 N   0  0  0  0  0  0  0  0  0  0  0  0
  188.5000  177.5020  141.7530 C   0  0  0  0  0  0  0  0  0  0  0  0
  190.8470  178.1360  141.3910 O   0  0  0  0  0  0  0  0  0  0  0  0
  189.3160  176.9130  145.8200 C   0  0  0  0  0  3  0  0  0  0  0  0
  190.8560  176.9750  147.7130 N   0  0  0  0  0  1  0  0  0  0  0  0
  187.5480  177.0580  142.6240 N   0  0  0  0  0  0  0  0  0  0  0  0
  191.6070  177.6230  145.4810 C   0  0  0  0  0  3  0  0  0  0  0  0
  194.2270  176.1630  138.6100 O   0  0  0  0  0  1  0  0  0  0  0  0
  191.3510  177.8180  144.1210 C   0  0  0  0  0  3  0  0  0  0  0  0
  192.8920  176.4800  138.8210 C   0  0  0  0  0  0  0  0  0  0  0  0
  190.0730  177.5670  143.5980 C   0  0  0  0  0  0  0  0  0  0  0  0
  188.0830  177.8100  140.3590 C   0  0  0  0  0  0  0  0  0  0  0  0
  190.5910  177.1720  146.3290 C   0  0  0  0  0  0  0  0  0  0  0  0
  189.0560  177.1090  144.4610 C   0  0  0  0  0  0  0  0  0  0  0  0
  190.1910  177.1140  139.2560 C   0  0  0  0  0  0  0  0  0  0  0  0
  189.8060  177.7400  142.2290 C   0  0  0  0  0  0  0  0  0  0  0  0
  192.5080  177.1570  139.9800 C   0  0  0  0  0  3  0  0  0  0  0  0
  187.7930  176.8490  143.9420 C   0  0  0  0  0  3  0  0  0  0  0  0
  191.9310  176.1260  137.8740 C   0  0  0  0  0  3  0  0  0  0  0  0
  190.5910  176.4560  138.0870 C   0  0  0  0  0  3  0  0  0  0  0  0
  191.1630  177.4700  140.2120 C   0  0  0  0  0  0  0  0  0  0  0  0
  184.1000  179.2540  139.6290 C   0  0  0  0  0  3  0  0  0  0  0  0
  186.7130  178.3260  140.0970 C   0  0  0  0  0  0  0  0  0  0  0  0
  186.1740  178.3240  138.7990 C   0  0  0  0  0  3  0  0  0  0  0  0
  184.8770  178.7880  138.5660 C   0  0  0  0  0  3  0  0  0  0  0  0
  184.6190  179.2530  140.9250 C   0  0  0  0  0  3  0  0  0  0  0  0
  185.9170  178.7880  141.1580 C   0  0  0  0  0  3  0  0  0  0  0  0
  1 12  2  0  0  0  0
  2 16  2  0  0  0  0
  2  6  1  0  0  0  0
  3 16  1  0  0  0  0
  4 13  1  0  0  0  0
  6 18  2  0  0  0  0
  7 13  2  0  0  0  0
  8 10  1  0  0  0  0
  9  7  1  0  0  0  0
 10 17  1  0  0  0  0
 11  9  2  0  0  0  0
 11 14  1  0  0  0  0
 12  2  1  0  0  0  0
 13  5  1  0  0  0  0
 14  4  2  0  0  0  0
 15  1  1  0  0  0  0
 15 21  1  0  0  0  0
 16 11  1  0  0  0  0
 17 21  2  0  0  0  0
 18 14  1  0  0  0  0
 19 20  1  0  0  0  0
 19 10  2  0  0  0  0
 20 15  2  0  0  0  0
 21  3  1  0  0  0  0
 22 26  1  0  0  0  0
 23 12  1  0  0  0  0
 23 27  1  0  0  0  0
 24 23  2  0  0  0  0
 25 24  1  0  0  0  0
 25 22  2  0  0  0  0
 26 27  2  0  0  0  0
M  END
>  <MODEL>
8

>  <REMARK>
 VINA RESULT:      -8.3      3.112      6.256
  Name = 
  1 active torsions:
  status: ('A' for Active; 'I' for Inactive)
    1  A    between atoms: C_9  and  C_15
                            x       y       z     vdW  Elec       q    Type
                         _______ _______ _______ _____ _____    ______ ____

>  <TORSDO>
F 1

$$$$
=
 OpenBabel10272401113D

 27 31  0  0  0  0  0  0  0  0999 V2000
  184.4530  178.8460  138.1260 N   0  0  0  0  0  0  0  0  0  0  0  0
  183.5940  179.0120  140.4170 C   0  0  0  0  0  0  0  0  0  0  0  0
  186.0370  179.2340  140.5710 O   0  0  0  0  0  0  0  0  0  0  0  0
  183.4000  178.6000  144.5820 C   0  0  0  0  0  3  0  0  0  0  0  0
  184.4830  178.5540  146.7700 N   0  0  0  0  0  1  0  0  0  0  0  0
  182.4150  178.7910  141.0670 N   0  0  0  0  0  0  0  0  0  0  0  0
  185.7970  178.9080  144.7420 C   0  0  0  0  0  3  0  0  0  0  0  0
  189.5460  176.5480  138.6940 O   0  0  0  0  0  1  0  0  0  0  0  0
  185.8780  179.0410  143.3530 C   0  0  0  0  0  3  0  0  0  0  0  0
  188.2720  177.0880  138.5870 C   0  0  0  0  0  0  0  0  0  0  0  0
  184.7200  178.9590  142.5660 C   0  0  0  0  0  0  0  0  0  0  0  0
  183.5470  179.2790  138.9550 C   0  0  0  0  0  0  0  0  0  0  0  0
  184.5610  178.6890  145.3560 C   0  0  0  0  0  0  0  0  0  0  0  0
  183.4770  178.7350  143.1930 C   0  0  0  0  0  0  0  0  0  0  0  0
  185.6910  178.1760  138.3810 C   0  0  0  0  0  0  0  0  0  0  0  0
  184.7880  179.0720  141.1670 C   0  0  0  0  0  0  0  0  0  0  0  0
  187.7700  177.9020  139.6050 C   0  0  0  0  0  3  0  0  0  0  0  0
  182.3310  178.6430  142.4140 C   0  0  0  0  0  3  0  0  0  0  0  0
  187.4920  176.8240  137.4620 C   0  0  0  0  0  3  0  0  0  0  0  0
  186.2150  177.3790  137.3560 C   0  0  0  0  0  3  0  0  0  0  0  0
  186.4810  178.4410  139.5170 C   0  0  0  0  0  0  0  0  0  0  0  0
  180.1390  181.3350  137.3290 C   0  0  0  0  0  3  0  0  0  0  0  0
  182.3760  179.9870  138.3730 C   0  0  0  0  0  0  0  0  0  0  0  0
  181.3750  179.2840  137.6820 C   0  0  0  0  0  3  0  0  0  0  0  0
  180.2650  179.9550  137.1600 C   0  0  0  0  0  3  0  0  0  0  0  0
  181.1220  182.0450  138.0220 C   0  0  0  0  0  3  0  0  0  0  0  0
  182.2320  181.3740  138.5440 C   0  0  0  0  0  3  0  0  0  0  0  0
  1 15  1  0  0  0  0
  1 12  2  0  0  0  0
  2  6  2  0  0  0  0
  2 16  1  0  0  0  0
  3 16  1  0  0  0  0
  4 13  2  0  0  0  0
  6 18  1  0  0  0  0
  7 13  1  0  0  0  0
  9  7  2  0  0  0  0
 10  8  1  0  0  0  0
 10 17  1  0  0  0  0
 11 14  1  0  0  0  0
 11  9  1  0  0  0  0
 12  2  1  0  0  0  0
 13  5  1  0  0  0  0
 14  4  1  0  0  0  0
 15 21  1  0  0  0  0
 16 11  2  0  0  0  0
 18 14  2  0  0  0  0
 19 10  2  0  0  0  0
 20 19  1  0  0  0  0
 20 15  2  0  0  0  0
 21 17  2  0  0  0  0
 21  3  1  0  0  0  0
 22 26  1  0  0  0  0
 23 27  1  0  0  0  0
 23 12  1  0  0  0  0
 24 23  2  0  0  0  0
 25 22  2  0  0  0  0
 25 24  1  0  0  0  0
 26 27  2  0  0  0  0
M  END
>  <MODEL>
9

>  <REMARK>
 VINA RESULT:      -8.1      3.263      6.622
  Name = 
  1 active torsions:
  status: ('A' for Active; 'I' for Inactive)
    1  A    between atoms: C_9  and  C_15
                            x       y       z     vdW  Elec       q    Type
                         _______ _______ _______ _____ _____    ______ ____

>  <TORSDO>
F 1

$$$$
