=
 OpenBabel10272413113D

 32 36  0  0  1  0  0  0  0  0999 V2000
  188.1080  177.9870  142.7300 C   0  0  0  0  0  0  0  0  0  0  0  0
  185.3360  178.4600  142.8710 C   0  0  0  0  0  0  0  0  0  0  0  0
  189.6200  177.9990  142.6910 C   0  0  0  0  0  2  0  0  0  0  0  0
  187.3840  178.2450  141.5390 C   0  0  0  0  0  0  0  0  0  0  0  0
  185.2500  178.8830  140.4900 C   0  0  0  0  0  3  0  0  0  0  0  0
  181.6860  178.5210  144.0710 C   0  0  0  0  0  2  0  0  0  0  0  0
  185.9990  178.5300  141.6200 C   0  0  0  0  0  0  0  0  0  0  0  0
  181.6990  178.9550  141.8330 C   0  0  0  0  0  2  0  0  0  0  0  0
  183.2140  178.9720  141.7860 C   0  0  0  0  0  0  0  0  0  0  0  0
  188.1880  178.3950  140.2280 C   0  0  1  0  0  3  0  0  0  0  0  0
  183.8690  179.0690  140.5650 C   0  0  0  0  0  3  0  0  0  0  0  0
  189.5170  177.6760  140.2470 C   0  0  0  0  0  3  0  0  0  0  0  0
  186.0730  178.1570  144.0160 C   0  0  0  0  0  3  0  0  0  0  0  0
  187.4400  177.9000  143.9730 C   0  0  0  0  0  0  0  0  0  0  0  0
  183.9460  178.6880  142.9570 C   0  0  0  0  0  0  0  0  0  0  0  0
  190.1700  177.4780  141.3920 C   0  0  0  0  0  3  0  0  0  0  0  0
  181.2520  179.4370  143.0800 O   0  0  0  0  0  0  0  0  0  0  0  0
  183.2120  178.6600  144.2850 C   0  0  0  0  0  2  0  0  0  0  0  0
  188.3390  177.5720  147.6900 C   0  0  0  0  0  0  0  0  0  0  0  0
  187.8030  177.8210  148.9520 O   0  0  0  0  0  1  0  0  0  0  0  0
  188.1660  177.6110  145.2490 C   0  0  0  0  0  0  0  0  0  0  0  0
  189.6390  177.0780  147.6010 C   0  0  0  0  0  3  0  0  0  0  0  0
  189.4880  177.1490  145.1880 C   0  0  0  0  0  3  0  0  0  0  0  0
  187.6030  177.8570  146.5240 C   0  0  0  0  0  0  0  0  0  0  0  0
  186.2320  178.4430  146.6690 C   0  0  0  0  0  1  0  0  0  0  0  0
  190.2330  176.8840  146.3450 C   0  0  0  0  0  0  0  0  0  0  0  0
  192.2540  175.7180  147.2020 C   0  0  0  0  0  1  0  0  0  0  0  0
  191.5710  176.4830  146.2040 O   0  0  0  0  0  0  0  0  0  0  0  0
  187.9520  177.2920  138.1030 C   0  0  0  0  0  3  0  0  0  0  0  0
  187.4480  178.0400  139.0280 N   0  0  0  0  0  0  0  0  0  0  0  0
  187.1200  176.8950  136.9180 C   0  0  0  0  0  2  0  0  0  0  0  0
  185.7040  177.4270  137.0530 C   0  0  0  0  0  1  0  0  0  0  0  0
  1 14  1  0  0  0  0
  2 15  1  0  0  0  0
  2 13  1  0  0  0  0
  3  1  1  0  0  0  0
  4  7  1  0  0  0  0
  4  1  2  0  0  0  0
  5 11  2  0  0  0  0
  5  7  1  0  0  0  0
  6 18  1  0  0  0  0
  7  2  2  0  0  0  0
  8 17  1  0  0  0  0
  9  8  1  0  0  0  0
  9 15  2  0  0  0  0
 10 30  1  6  0  0  0
 10 12  1  0  0  0  0
 10  4  1  0  0  0  0
 11  9  1  0  0  0  0
 12 16  2  0  0  0  0
 14 13  2  0  0  0  0
 14 21  1  0  0  0  0
 15 18  1  0  0  0  0
 16  3  1  0  0  0  0
 17  6  1  0  0  0  0
 19 20  1  0  0  0  0
 21 24  1  0  0  0  0
 22 19  1  0  0  0  0
 23 21  2  0  0  0  0
 23 26  1  0  0  0  0
 24 25  1  0  0  0  0
 24 19  2  0  0  0  0
 26 22  2  0  0  0  0
 28 26  1  0  0  0  0
 28 27  1  0  0  0  0
 29 30  2  0  0  0  0
 31 32  1  0  0  0  0
 31 29  1  0  0  0  0
M  END
>  <MODEL>
1

>  <REMARK>
 VINA RESULT:     -11.3      0.000      0.000
  Name = 
  4 active torsions:
  status: ('A' for Active; 'I' for Inactive)
    1  A    between atoms: C_13  and  C_18
    2  A    between atoms: C_14  and  N_29
    3  A    between atoms: O_15  and  C_26
    4  A    between atoms: C_16  and  C_27
                            x       y       z     vdW  Elec       q    Type
                         _______ _______ _______ _____ _____    ______ ____

>  <TORSDO>
F 4

$$$$
=
 OpenBabel10272413113D

 32 36  0  0  1  0  0  0  0  0999 V2000
  186.8790  178.2390  141.7960 C   0  0  0  0  0  0  0  0  0  0  0  0
  187.7650  177.8590  144.4420 C   0  0  0  0  0  0  0  0  0  0  0  0
  186.4940  178.6950  140.4060 C   0  0  0  0  0  2  0  0  0  0  0  0
  185.9810  178.4630  142.8700 C   0  0  0  0  0  0  0  0  0  0  0  0
  185.6340  178.6140  145.3030 C   0  0  0  0  0  3  0  0  0  0  0  0
  189.7590  176.6680  147.5020 C   0  0  0  0  0  2  0  0  0  0  0  0
  186.4450  178.3180  144.2010 C   0  0  0  0  0  0  0  0  0  0  0  0
  187.7430  177.4390  148.2330 C   0  0  0  0  0  2  0  0  0  0  0  0
  187.3500  177.9010  146.8430 C   0  0  0  0  0  0  0  0  0  0  0  0
  184.5910  179.0480  142.5340 C   0  0  1  0  0  3  0  0  0  0  0  0
  186.0680  178.3780  146.6080 C   0  0  0  0  0  3  0  0  0  0  0  0
  184.1340  178.7510  141.1250 C   0  0  0  0  0  3  0  0  0  0  0  0
  188.6050  177.6050  143.3590 C   0  0  0  0  0  3  0  0  0  0  0  0
  188.1880  177.7650  142.0410 C   0  0  0  0  0  0  0  0  0  0  0  0
  188.2210  177.6580  145.7620 C   0  0  0  0  0  0  0  0  0  0  0  0
  185.0190  178.5710  140.1440 C   0  0  0  0  0  3  0  0  0  0  0  0
  189.1360  177.5650  148.4050 O   0  0  0  0  0  0  0  0  0  0  0  0
  189.6400  177.2060  146.0570 C   0  0  0  0  0  2  0  0  0  0  0  0
  191.4240  177.2680  140.0380 C   0  0  0  0  0  0  0  0  0  0  0  0
  192.8080  177.2980  140.2040 O   0  0  0  0  0  1  0  0  0  0  0  0
  189.1590  177.4980  140.9330 C   0  0  0  0  0  0  0  0  0  0  0  0
  190.9090  177.0310  138.7640 C   0  0  0  0  0  3  0  0  0  0  0  0
  188.6680  177.2940  139.6360 C   0  0  0  0  0  3  0  0  0  0  0  0
  190.5610  177.5190  141.1210 C   0  0  0  0  0  0  0  0  0  0  0  0
  191.1620  177.8270  142.4590 C   0  0  0  0  0  1  0  0  0  0  0  0
  189.5240  177.0660  138.5500 C   0  0  0  0  0  0  0  0  0  0  0  0
  187.5870  177.2260  136.9980 C   0  0  0  0  0  1  0  0  0  0  0  0
  188.9610  176.9320  137.2700 O   0  0  0  0  0  0  0  0  0  0  0  0
  182.3210  179.0720  143.3330 C   0  0  0  0  0  3  0  0  0  0  0  0
  183.5470  178.6900  143.4810 N   0  0  0  0  0  0  0  0  0  0  0  0
  181.2670  178.6150  144.2990 C   0  0  0  0  0  2  0  0  0  0  0  0
  179.9830  178.2670  143.5690 C   0  0  0  0  0  1  0  0  0  0  0  0
  1 14  2  0  0  0  0
  1  4  1  0  0  0  0
  2 15  1  0  0  0  0
  3  1  1  0  0  0  0
  4  7  2  0  0  0  0
  5 11  2  0  0  0  0
  6 17  1  0  0  0  0
  7  2  1  0  0  0  0
  7  5  1  0  0  0  0
  8 17  1  0  0  0  0
  9  8  1  0  0  0  0
 10  4  1  0  0  0  0
 10 30  1  1  0  0  0
 11  9  1  0  0  0  0
 12 10  1  0  0  0  0
 13  2  2  0  0  0  0
 14 13  1  0  0  0  0
 15 18  1  0  0  0  0
 15  9  2  0  0  0  0
 16  3  1  0  0  0  0
 16 12  2  0  0  0  0
 18  6  1  0  0  0  0
 19 20  1  0  0  0  0
 19 24  1  0  0  0  0
 21 24  2  0  0  0  0
 21 14  1  0  0  0  0
 22 19  2  0  0  0  0
 23 21  1  0  0  0  0
 24 25  1  0  0  0  0
 26 22  1  0  0  0  0
 26 23  2  0  0  0  0
 27 28  1  0  0  0  0
 28 26  1  0  0  0  0
 29 30  2  0  0  0  0
 29 31  1  0  0  0  0
 32 31  1  0  0  0  0
M  END
>  <MODEL>
2

>  <REMARK>
 VINA RESULT:     -10.4      2.452      6.818
  Name = 
  4 active torsions:
  status: ('A' for Active; 'I' for Inactive)
    1  A    between atoms: C_13  and  C_18
    2  A    between atoms: C_14  and  N_29
    3  A    between atoms: O_15  and  C_26
    4  A    between atoms: C_16  and  C_27
                            x       y       z     vdW  Elec       q    Type
                         _______ _______ _______ _____ _____    ______ ____

>  <TORSDO>
F 4

$$$$
=
 OpenBabel10272413113D

 32 36  0  0  1  0  0  0  0  0999 V2000
  188.3530  177.7480  140.9920 C   0  0  0  0  0  0  0  0  0  0  0  0
  189.6500  177.1300  143.4130 C   0  0  0  0  0  0  0  0  0  0  0  0
  187.7860  178.3160  139.7090 C   0  0  0  0  0  2  0  0  0  0  0  0
  187.7130  178.0500  142.2210 C   0  0  0  0  0  0  0  0  0  0  0  0
  187.8520  178.1410  144.6780 C   0  0  0  0  0  3  0  0  0  0  0  0
  191.9820  175.5330  146.0160 C   0  0  0  0  0  2  0  0  0  0  0  0
  188.3910  177.7820  143.4370 C   0  0  0  0  0  0  0  0  0  0  0  0
  190.2730  176.5490  147.1310 C   0  0  0  0  0  2  0  0  0  0  0  0
  189.7010  177.1230  145.8500 C   0  0  0  0  0  0  0  0  0  0  0  0
  186.3860  178.8400  142.1670 C   0  0  1  0  0  3  0  0  0  0  0  0
  188.4820  177.7880  145.8710 C   0  0  0  0  0  3  0  0  0  0  0  0
  185.6370  178.6740  140.8660 C   0  0  0  0  0  3  0  0  0  0  0  0
  190.2270  176.8070  142.1850 C   0  0  0  0  0  3  0  0  0  0  0  0
  189.5990  177.0830  140.9740 C   0  0  0  0  0  0  0  0  0  0  0  0
  190.3090  176.8080  144.6180 C   0  0  0  0  0  0  0  0  0  0  0  0
  186.2860  178.4130  139.7310 C   0  0  0  0  0  3  0  0  0  0  0  0
  191.6780  176.4690  147.0360 O   0  0  0  0  0  0  0  0  0  0  0  0
  191.6760  176.1470  144.6300 C   0  0  0  0  0  2  0  0  0  0  0  0
  192.2670  176.6470  138.2490 C   0  0  0  0  0  0  0  0  0  0  0  0
  193.6140  176.9110  138.0110 O   0  0  0  0  0  1  0  0  0  0  0  0
  190.2960  176.7310  139.6970 C   0  0  0  0  0  0  0  0  0  0  0  0
  191.5080  176.0740  137.2300 C   0  0  0  0  0  3  0  0  0  0  0  0
  189.5480  176.1880  138.6440 C   0  0  0  0  0  3  0  0  0  0  0  0
  191.6690  176.9940  139.4750 C   0  0  0  0  0  0  0  0  0  0  0  0
  192.5120  177.6630  140.5180 C   0  0  0  0  0  1  0  0  0  0  0  0
  190.1340  175.8610  137.4130 C   0  0  0  0  0  0  0  0  0  0  0  0
  187.9120  175.6870  136.3100 C   0  0  0  0  0  1  0  0  0  0  0  0
  189.3080  175.3780  136.3850 O   0  0  0  0  0  0  0  0  0  0  0  0
  184.6170  179.4560  143.6760 C   0  0  0  0  0  3  0  0  0  0  0  0
  185.4960  178.5920  143.2890 N   0  0  0  0  0  0  0  0  0  0  0  0
  183.6730  179.1230  144.7940 C   0  0  0  0  0  2  0  0  0  0  0  0
  184.4360  178.6570  146.0210 C   0  0  0  0  0  1  0  0  0  0  0  0
  1  4  1  0  0  0  0
  2  7  1  0  0  0  0
  2 15  1  0  0  0  0
  3 16  1  0  0  0  0
  3  1  1  0  0  0  0
  4  7  2  0  0  0  0
  5 11  2  0  0  0  0
  6 17  1  0  0  0  0
  7  5  1  0  0  0  0
  9 11  1  0  0  0  0
  9  8  1  0  0  0  0
 10  4  1  0  0  0  0
 10 30  1  1  0  0  0
 12 10  1  0  0  0  0
 13  2  2  0  0  0  0
 14  1  2  0  0  0  0
 14 13  1  0  0  0  0
 15 18  1  0  0  0  0
 15  9  2  0  0  0  0
 16 12  2  0  0  0  0
 17  8  1  0  0  0  0
 18  6  1  0  0  0  0
 19 24  1  0  0  0  0
 20 19  1  0  0  0  0
 21 14  1  0  0  0  0
 22 26  1  0  0  0  0
 22 19  2  0  0  0  0
 23 21  1  0  0  0  0
 24 21  2  0  0  0  0
 24 25  1  0  0  0  0
 26 23  2  0  0  0  0
 27 28  1  0  0  0  0
 28 26  1  0  0  0  0
 29 31  1  0  0  0  0
 30 29  2  0  0  0  0
 31 32  1  0  0  0  0
M  END
>  <MODEL>
3

>  <REMARK>
 VINA RESULT:     -10.3      2.943      7.699
  Name = 
  4 active torsions:
  status: ('A' for Active; 'I' for Inactive)
    1  A    between atoms: C_13  and  C_18
    2  A    between atoms: C_14  and  N_29
    3  A    between atoms: O_15  and  C_26
    4  A    between atoms: C_16  and  C_27
                            x       y       z     vdW  Elec       q    Type
                         _______ _______ _______ _____ _____    ______ ____

>  <TORSDO>
F 4

$$$$
=
 OpenBabel10272413113D

 32 36  0  0  1  0  0  0  0  0999 V2000
  186.4480  178.1360  144.0070 C   0  0  0  0  0  0  0  0  0  0  0  0
  188.2310  177.7570  141.8610 C   0  0  0  0  0  0  0  0  0  0  0  0
  185.5530  178.6010  145.1350 C   0  0  0  0  0  2  0  0  0  0  0  0
  187.8140  177.8670  144.2760 C   0  0  0  0  0  0  0  0  0  0  0  0
  190.0910  177.5510  143.3950 C   0  0  0  0  0  3  0  0  0  0  0  0
  189.6630  176.9840  138.3810 C   0  0  0  0  0  2  0  0  0  0  0  0
  188.7170  177.7260  143.1930 C   0  0  0  0  0  0  0  0  0  0  0  0
  191.3670  176.8530  139.8880 C   0  0  0  0  0  2  0  0  0  0  0  0
  190.4770  177.3200  141.0230 C   0  0  0  0  0  0  0  0  0  0  0  0
  188.2850  177.9380  145.7460 C   0  0  1  0  0  3  0  0  0  0  0  0
  190.9570  177.3180  142.3260 C   0  0  0  0  0  3  0  0  0  0  0  0
  187.1820  177.6870  146.7470 C   0  0  0  0  0  3  0  0  0  0  0  0
  186.8720  177.9780  141.6370 C   0  0  0  0  0  3  0  0  0  0  0  0
  185.9650  178.1500  142.6790 C   0  0  0  0  0  0  0  0  0  0  0  0
  189.1110  177.5620  140.7760 C   0  0  0  0  0  0  0  0  0  0  0  0
  185.9140  177.9780  146.4550 C   0  0  0  0  0  3  0  0  0  0  0  0
  190.9640  177.4580  138.6810 O   0  0  0  0  0  0  0  0  0  0  0  0
  188.6330  177.6300  139.3370 C   0  0  0  0  0  2  0  0  0  0  0  0
  182.7090  178.9280  140.8030 C   0  0  0  0  0  0  0  0  0  0  0  0
  182.2480  179.2080  139.5180 O   0  0  0  0  0  1  0  0  0  0  0  0
  184.5270  178.4110  142.3560 C   0  0  0  0  0  0  0  0  0  0  0  0
  181.7970  178.9420  141.8570 C   0  0  0  0  0  3  0  0  0  0  0  0
  183.5970  178.4670  143.4030 C   0  0  0  0  0  3  0  0  0  0  0  0
  184.0730  178.6810  141.0430 C   0  0  0  0  0  0  0  0  0  0  0  0
  185.0250  178.7360  139.8870 C   0  0  0  0  0  1  0  0  0  0  0  0
  182.2410  178.7340  143.1720 C   0  0  0  0  0  0  0  0  0  0  0  0
  179.9820  178.5390  144.1930 C   0  0  0  0  0  1  0  0  0  0  0  0
  181.3800  178.8360  144.2770 O   0  0  0  0  0  0  0  0  0  0  0  0
  190.0590  177.1650  147.1760 C   0  0  0  0  0  3  0  0  0  0  0  0
  189.4310  177.0970  146.0480 N   0  0  0  0  0  0  0  0  0  0  0  0
  191.1920  176.2250  147.4660 C   0  0  0  0  0  2  0  0  0  0  0  0
  192.0020  175.9550  146.2100 C   0  0  0  0  0  1  0  0  0  0  0  0
  1  4  1  0  0  0  0
  1  3  1  0  0  0  0
  2  7  1  0  0  0  0
  3 16  1  0  0  0  0
  4 10  1  0  0  0  0
  6 17  1  0  0  0  0
  6 18  1  0  0  0  0
  7  5  1  0  0  0  0
  7  4  2  0  0  0  0
  8  9  1  0  0  0  0
  9 11  1  0  0  0  0
 10 30  1  6  0  0  0
 10 12  1  0  0  0  0
 11  5  2  0  0  0  0
 13  2  2  0  0  0  0
 13 14  1  0  0  0  0
 14  1  2  0  0  0  0
 15  9  2  0  0  0  0
 15  2  1  0  0  0  0
 16 12  2  0  0  0  0
 17  8  1  0  0  0  0
 18 15  1  0  0  0  0
 19 24  2  0  0  0  0
 19 22  1  0  0  0  0
 20 19  1  0  0  0  0
 21 14  1  0  0  0  0
 21 23  2  0  0  0  0
 22 26  2  0  0  0  0
 24 21  1  0  0  0  0
 25 24  1  0  0  0  0
 26 23  1  0  0  0  0
 26 28  1  0  0  0  0
 27 28  1  0  0  0  0
 29 31  1  0  0  0  0
 30 29  2  0  0  0  0
 32 31  1  0  0  0  0
M  END
>  <MODEL>
4

>  <REMARK>
 VINA RESULT:     -10.3      2.607      7.798
  Name = 
  4 active torsions:
  status: ('A' for Active; 'I' for Inactive)
    1  A    between atoms: C_13  and  C_18
    2  A    between atoms: C_14  and  N_29
    3  A    between atoms: O_15  and  C_26
    4  A    between atoms: C_16  and  C_27
                            x       y       z     vdW  Elec       q    Type
                         _______ _______ _______ _____ _____    ______ ____

>  <TORSDO>
F 4

$$$$
=
 OpenBabel10272413113D

 32 36  0  0  1  0  0  0  0  0999 V2000
  189.2540  177.4740  142.3990 C   0  0  0  0  0  0  0  0  0  0  0  0
  186.5550  178.0300  142.9750 C   0  0  0  0  0  0  0  0  0  0  0  0
  190.6260  176.9170  142.0890 C   0  0  0  0  0  2  0  0  0  0  0  0
  188.8350  177.5620  143.7510 C   0  0  0  0  0  0  0  0  0  0  0  0
  186.9750  177.8000  145.3470 C   0  0  0  0  0  3  0  0  0  0  0  0
  182.9170  179.2270  142.6740 C   0  0  0  0  0  2  0  0  0  0  0  0
  187.4660  177.7940  144.0350 C   0  0  0  0  0  0  0  0  0  0  0  0
  183.3840  178.9430  144.8870 C   0  0  0  0  0  2  0  0  0  0  0  0
  184.7590  178.3820  144.5840 C   0  0  0  0  0  0  0  0  0  0  0  0
  189.8620  177.2040  144.8480 C   0  0  1  0  0  3  0  0  0  0  0  0
  185.6450  178.1220  145.6210 C   0  0  0  0  0  3  0  0  0  0  0  0
  191.2980  177.3910  144.4160 C   0  0  0  0  0  3  0  0  0  0  0  0
  187.0140  177.9800  141.6590 C   0  0  0  0  0  3  0  0  0  0  0  0
  188.3470  177.7270  141.3460 C   0  0  0  0  0  0  0  0  0  0  0  0
  185.2010  178.3160  143.2470 C   0  0  0  0  0  0  0  0  0  0  0  0
  191.6460  177.2750  143.1340 C   0  0  0  0  0  3  0  0  0  0  0  0
  182.4840  178.5870  143.8620 O   0  0  0  0  0  0  0  0  0  0  0  0
  184.1900  178.5340  142.1360 C   0  0  0  0  0  2  0  0  0  0  0  0
  188.3150  177.8790  137.5110 C   0  0  0  0  0  0  0  0  0  0  0  0
  187.4540  178.1640  136.4530 O   0  0  0  0  0  1  0  0  0  0  0  0
  188.7570  177.6610  139.9080 C   0  0  0  0  0  0  0  0  0  0  0  0
  189.6130  177.4590  137.2220 C   0  0  0  0  0  3  0  0  0  0  0  0
  190.0430  177.2060  139.5900 C   0  0  0  0  0  3  0  0  0  0  0  0
  187.8740  177.9670  138.8450 C   0  0  0  0  0  0  0  0  0  0  0  0
  186.4520  178.3650  139.1040 C   0  0  0  0  0  1  0  0  0  0  0  0
  190.4810  177.0960  138.2620 C   0  0  0  0  0  0  0  0  0  0  0  0
  191.9820  175.1990  137.6880 C   0  0  0  0  0  1  0  0  0  0  0  0
  191.7620  176.5740  138.0200 O   0  0  0  0  0  0  0  0  0  0  0  0
  189.7860  177.2640  147.2520 C   0  0  0  0  0  3  0  0  0  0  0  0
  189.6350  177.8700  146.1200 N   0  0  0  0  0  0  0  0  0  0  0  0
  189.6100  178.0160  148.5390 C   0  0  0  0  0  2  0  0  0  0  0  0
  188.1390  178.1300  148.8980 C   0  0  0  0  0  1  0  0  0  0  0  0
  1  4  1  0  0  0  0
  2 15  1  0  0  0  0
  2  7  1  0  0  0  0
  3  1  1  0  0  0  0
  3 16  1  0  0  0  0
  4  7  2  0  0  0  0
  4 10  1  0  0  0  0
  5 11  2  0  0  0  0
  6 17  1  0  0  0  0
  7  5  1  0  0  0  0
  9  8  1  0  0  0  0
  9 11  1  0  0  0  0
 10 30  1  1  0  0  0
 12 10  1  0  0  0  0
 13  2  2  0  0  0  0
 14 13  1  0  0  0  0
 14  1  2  0  0  0  0
 15  9  2  0  0  0  0
 16 12  2  0  0  0  0
 17  8  1  0  0  0  0
 18  6  1  0  0  0  0
 18 15  1  0  0  0  0
 19 24  1  0  0  0  0
 20 19  1  0  0  0  0
 21 14  1  0  0  0  0
 22 19  2  0  0  0  0
 22 26  1  0  0  0  0
 23 21  1  0  0  0  0
 24 25  1  0  0  0  0
 24 21  2  0  0  0  0
 26 23  2  0  0  0  0
 27 28  1  0  0  0  0
 28 26  1  0  0  0  0
 29 31  1  0  0  0  0
 30 29  2  0  0  0  0
 31 32  1  0  0  0  0
M  END
>  <MODEL>
5

>  <REMARK>
 VINA RESULT:     -10.3      2.904      6.570
  Name = 
  4 active torsions:
  status: ('A' for Active; 'I' for Inactive)
    1  A    between atoms: C_13  and  C_18
    2  A    between atoms: C_14  and  N_29
    3  A    between atoms: O_15  and  C_26
    4  A    between atoms: C_16  and  C_27
                            x       y       z     vdW  Elec       q    Type
                         _______ _______ _______ _____ _____    ______ ____

>  <TORSDO>
F 4

$$$$
=
 OpenBabel10272413113D

 32 36  0  0  1  0  0  0  0  0999 V2000
  186.2010  178.0000  144.3650 C   0  0  0  0  0  0  0  0  0  0  0  0
  186.6310  178.1070  141.5840 C   0  0  0  0  0  0  0  0  0  0  0  0
  185.9230  177.6810  145.8170 C   0  0  0  0  0  2  0  0  0  0  0  0
  185.1150  178.3000  143.5040 C   0  0  0  0  0  0  0  0  0  0  0  0
  184.2750  178.5020  141.1980 C   0  0  0  0  0  3  0  0  0  0  0  0
  188.3180  178.4380  138.1480 C   0  0  0  0  0  2  0  0  0  0  0  0
  185.3260  178.3040  142.1020 C   0  0  0  0  0  0  0  0  0  0  0  0
  186.0780  178.7550  137.8670 C   0  0  0  0  0  2  0  0  0  0  0  0
  185.7910  178.4340  139.3200 C   0  0  0  0  0  0  0  0  0  0  0  0
  183.7090  178.4130  144.1330 C   0  0  1  0  0  3  0  0  0  0  0  0
  184.5080  178.5990  139.8260 C   0  0  0  0  0  3  0  0  0  0  0  0
  183.7290  178.7880  145.5960 C   0  0  0  0  0  3  0  0  0  0  0  0
  187.6830  177.8600  142.4660 C   0  0  0  0  0  3  0  0  0  0  0  0
  187.5030  177.8210  143.8460 C   0  0  0  0  0  0  0  0  0  0  0  0
  186.8630  178.1630  140.1940 C   0  0  0  0  0  0  0  0  0  0  0  0
  184.7650  178.4630  146.3710 C   0  0  0  0  0  3  0  0  0  0  0  0
  187.1830  178.0030  137.4180 O   0  0  0  0  0  0  0  0  0  0  0  0
  188.2390  177.9170  139.6020 C   0  0  0  0  0  2  0  0  0  0  0  0
  190.8740  176.5330  145.1530 C   0  0  0  0  0  0  0  0  0  0  0  0
  191.9830  175.8030  144.7310 O   0  0  0  0  0  1  0  0  0  0  0  0
  188.6780  177.5230  144.7240 C   0  0  0  0  0  0  0  0  0  0  0  0
  190.8240  176.9680  146.4770 C   0  0  0  0  0  3  0  0  0  0  0  0
  188.6360  177.9160  146.0690 C   0  0  0  0  0  3  0  0  0  0  0  0
  189.8030  176.7900  144.2770 C   0  0  0  0  0  0  0  0  0  0  0  0
  189.8760  176.2520  142.8800 C   0  0  0  0  0  1  0  0  0  0  0  0
  189.6910  177.6430  146.9510 C   0  0  0  0  0  0  0  0  0  0  0  0
  188.2810  178.0380  148.9610 C   0  0  0  0  0  1  0  0  0  0  0  0
  189.5500  178.0130  148.2990 O   0  0  0  0  0  0  0  0  0  0  0  0
  181.5460  179.0010  143.2580 C   0  0  0  0  0  3  0  0  0  0  0  0
  182.7980  179.2840  143.4090 N   0  0  0  0  0  0  0  0  0  0  0  0
  180.6330  179.9690  142.5650 C   0  0  0  0  0  2  0  0  0  0  0  0
  180.4320  179.5730  141.1120 C   0  0  0  0  0  1  0  0  0  0  0  0
  1  3  1  0  0  0  0
  2  7  1  0  0  0  0
  2 13  1  0  0  0  0
  3 16  1  0  0  0  0
  4 10  1  0  0  0  0
  4  1  2  0  0  0  0
  5  7  2  0  0  0  0
  6 18  1  0  0  0  0
  7  4  1  0  0  0  0
  8  9  1  0  0  0  0
  9 11  2  0  0  0  0
  9 15  1  0  0  0  0
 10 30  1  6  0  0  0
 10 12  1  0  0  0  0
 11  5  1  0  0  0  0
 12 16  2  0  0  0  0
 13 14  2  0  0  0  0
 14  1  1  0  0  0  0
 14 21  1  0  0  0  0
 15  2  2  0  0  0  0
 17  8  1  0  0  0  0
 17  6  1  0  0  0  0
 18 15  1  0  0  0  0
 19 22  1  0  0  0  0
 20 19  1  0  0  0  0
 21 23  2  0  0  0  0
 22 26  2  0  0  0  0
 23 26  1  0  0  0  0
 24 21  1  0  0  0  0
 24 19  2  0  0  0  0
 25 24  1  0  0  0  0
 26 28  1  0  0  0  0
 28 27  1  0  0  0  0
 29 30  2  0  0  0  0
 31 29  1  0  0  0  0
 32 31  1  0  0  0  0
M  END
>  <MODEL>
6

>  <REMARK>
 VINA RESULT:     -10.0      2.228      5.150
  Name = 
  4 active torsions:
  status: ('A' for Active; 'I' for Inactive)
    1  A    between atoms: C_13  and  C_18
    2  A    between atoms: C_14  and  N_29
    3  A    between atoms: O_15  and  C_26
    4  A    between atoms: C_16  and  C_27
                            x       y       z     vdW  Elec       q    Type
                         _______ _______ _______ _____ _____    ______ ____

>  <TORSDO>
F 4

$$$$
=
 OpenBabel10272413113D

 32 36  0  0  1  0  0  0  0  0999 V2000
  185.0180  178.5380  143.6330 C   0  0  0  0  0  0  0  0  0  0  0  0
  187.2000  178.0880  141.9120 C   0  0  0  0  0  0  0  0  0  0  0  0
  183.9150  179.0390  144.5400 C   0  0  0  0  0  2  0  0  0  0  0  0
  186.2960  178.2670  144.1850 C   0  0  0  0  0  0  0  0  0  0  0  0
  188.7020  177.9120  143.8010 C   0  0  0  0  0  3  0  0  0  0  0  0
  189.3090  177.2100  138.8220 C   0  0  0  0  0  2  0  0  0  0  0  0
  187.4010  178.0900  143.3150 C   0  0  0  0  0  0  0  0  0  0  0  0
  190.6640  177.1100  140.6520 C   0  0  0  0  0  2  0  0  0  0  0  0
  189.5660  177.6140  141.5660 C   0  0  0  0  0  0  0  0  0  0  0  0
  186.4540  178.3760  145.7180 C   0  0  1  0  0  3  0  0  0  0  0  0
  189.7660  177.6450  142.9400 C   0  0  0  0  0  3  0  0  0  0  0  0
  185.1660  178.1590  146.4770 C   0  0  0  0  0  3  0  0  0  0  0  0
  185.9200  178.3110  141.4070 C   0  0  0  0  0  3  0  0  0  0  0  0
  184.8200  178.5170  142.2340 C   0  0  0  0  0  0  0  0  0  0  0  0
  188.2820  177.8580  141.0370 C   0  0  0  0  0  0  0  0  0  0  0  0
  183.9890  178.4510  145.9220 C   0  0  0  0  0  3  0  0  0  0  0  0
  190.5260  177.6840  139.3720 O   0  0  0  0  0  0  0  0  0  0  0  0
  188.1120  177.8880  139.5290 C   0  0  0  0  0  2  0  0  0  0  0  0
  182.0370  179.3390  139.7220 C   0  0  0  0  0  0  0  0  0  0  0  0
  181.8620  179.6640  138.3780 O   0  0  0  0  0  1  0  0  0  0  0  0
  183.4820  178.7790  141.6150 C   0  0  0  0  0  0  0  0  0  0  0  0
  180.9170  179.3050  140.5520 C   0  0  0  0  0  3  0  0  0  0  0  0
  182.3460  178.7870  142.4350 C   0  0  0  0  0  3  0  0  0  0  0  0
  183.3200  179.0950  140.2450 C   0  0  0  0  0  0  0  0  0  0  0  0
  184.5000  179.2010  139.3270 C   0  0  0  0  0  1  0  0  0  0  0  0
  181.0680  179.0520  141.9230 C   0  0  0  0  0  0  0  0  0  0  0  0
  180.0140  178.4680  144.0990 C   0  0  0  0  0  1  0  0  0  0  0  0
  179.9850  179.1050  142.8170 O   0  0  0  0  0  0  0  0  0  0  0  0
  188.2390  177.9150  147.2650 C   0  0  0  0  0  3  0  0  0  0  0  0
  187.5040  177.5370  146.2720 N   0  0  0  0  0  0  0  0  0  0  0  0
  189.2610  176.9820  147.8470 C   0  0  0  0  0  2  0  0  0  0  0  0
  190.4910  176.9130  146.9600 C   0  0  0  0  0  1  0  0  0  0  0  0
  1  4  1  0  0  0  0
  1  3  1  0  0  0  0
  2  7  1  0  0  0  0
  3 16  1  0  0  0  0
  4 10  1  0  0  0  0
  6 17  1  0  0  0  0
  6 18  1  0  0  0  0
  7  5  1  0  0  0  0
  7  4  2  0  0  0  0
  8  9  1  0  0  0  0
  9 11  1  0  0  0  0
 10 30  1  1  0  0  0
 10 12  1  0  0  0  0
 11  5  2  0  0  0  0
 13  2  2  0  0  0  0
 13 14  1  0  0  0  0
 14  1  2  0  0  0  0
 15  9  2  0  0  0  0
 15  2  1  0  0  0  0
 16 12  2  0  0  0  0
 17  8  1  0  0  0  0
 18 15  1  0  0  0  0
 19 24  2  0  0  0  0
 19 22  1  0  0  0  0
 20 19  1  0  0  0  0
 21 14  1  0  0  0  0
 21 23  2  0  0  0  0
 22 26  2  0  0  0  0
 24 21  1  0  0  0  0
 25 24  1  0  0  0  0
 26 23  1  0  0  0  0
 26 28  1  0  0  0  0
 28 27  1  0  0  0  0
 29 31  1  0  0  0  0
 30 29  2  0  0  0  0
 32 31  1  0  0  0  0
M  END
>  <MODEL>
7

>  <REMARK>
 VINA RESULT:      -9.8      2.793      8.101
  Name = 
  4 active torsions:
  status: ('A' for Active; 'I' for Inactive)
    1  A    between atoms: C_13  and  C_18
    2  A    between atoms: C_14  and  N_29
    3  A    between atoms: O_15  and  C_26
    4  A    between atoms: C_16  and  C_27
                            x       y       z     vdW  Elec       q    Type
                         _______ _______ _______ _____ _____    ______ ____

>  <TORSDO>
F 4

$$$$
=
 OpenBabel10272413113D

 32 36  0  0  1  0  0  0  0  0999 V2000
  187.4330  177.9290  143.4860 C   0  0  0  0  0  0  0  0  0  0  0  0
  188.9830  177.5450  141.1660 C   0  0  0  0  0  0  0  0  0  0  0  0
  186.5400  177.8740  144.7060 C   0  0  0  0  0  2  0  0  0  0  0  0
  186.8510  178.1600  142.2140 C   0  0  0  0  0  0  0  0  0  0  0  0
  187.0730  178.0390  139.7650 C   0  0  0  0  0  3  0  0  0  0  0  0
  191.9650  177.1840  138.7710 C   0  0  0  0  0  2  0  0  0  0  0  0
  187.6200  177.9180  141.0480 C   0  0  0  0  0  0  0  0  0  0  0  0
  190.1070  177.6110  137.5230 C   0  0  0  0  0  2  0  0  0  0  0  0
  189.2050  177.5550  138.7400 C   0  0  0  0  0  0  0  0  0  0  0  0
  185.3400  178.4760  142.1620 C   0  0  1  0  0  3  0  0  0  0  0  0
  187.8630  177.8920  138.6240 C   0  0  0  0  0  3  0  0  0  0  0  0
  184.8050  179.0850  143.4370 C   0  0  0  0  0  3  0  0  0  0  0  0
  189.5330  177.3720  142.4360 C   0  0  0  0  0  3  0  0  0  0  0  0
  188.7960  177.5740  143.6000 C   0  0  0  0  0  0  0  0  0  0  0  0
  189.7730  177.3550  140.0140 C   0  0  0  0  0  0  0  0  0  0  0  0
  185.3740  178.8180  144.6130 C   0  0  0  0  0  3  0  0  0  0  0  0
  191.1860  176.7180  137.6830 O   0  0  0  0  0  0  0  0  0  0  0  0
  191.2240  176.9170  140.1020 C   0  0  0  0  0  2  0  0  0  0  0  0
  191.2090  176.4000  146.3440 C   0  0  0  0  0  0  0  0  0  0  0  0
  192.3760  175.6550  146.5040 O   0  0  0  0  0  1  0  0  0  0  0  0
  189.4520  177.3400  144.9250 C   0  0  0  0  0  0  0  0  0  0  0  0
  190.5830  176.9130  147.4790 C   0  0  0  0  0  3  0  0  0  0  0  0
  188.8230  177.8140  146.0850 C   0  0  0  0  0  3  0  0  0  0  0  0
  190.6440  176.5930  145.0700 C   0  0  0  0  0  0  0  0  0  0  0  0
  191.3210  175.9710  143.8860 C   0  0  0  0  0  1  0  0  0  0  0  0
  189.3690  177.6050  147.3590 C   0  0  0  0  0  0  0  0  0  0  0  0
  187.2660  178.4140  148.4110 C   0  0  0  0  0  1  0  0  0  0  0  0
  188.6500  178.0550  148.4780 O   0  0  0  0  0  0  0  0  0  0  0  0
  183.8790  179.0100  140.3260 C   0  0  0  0  0  3  0  0  0  0  0  0
  184.9360  179.2790  141.0200 N   0  0  0  0  0  0  0  0  0  0  0  0
  183.4650  179.9130  139.2010 C   0  0  0  0  0  2  0  0  0  0  0  0
  182.0780  179.5500  138.7020 C   0  0  0  0  0  1  0  0  0  0  0  0
  1 14  1  0  0  0  0
  1  3  1  0  0  0  0
  2 13  1  0  0  0  0
  4  1  2  0  0  0  0
  5  7  2  0  0  0  0
  6 18  1  0  0  0  0
  7  2  1  0  0  0  0
  7  4  1  0  0  0  0
  8 17  1  0  0  0  0
  8  9  1  0  0  0  0
  9 15  1  0  0  0  0
 10 30  1  6  0  0  0
 10  4  1  0  0  0  0
 10 12  1  0  0  0  0
 11  9  2  0  0  0  0
 11  5  1  0  0  0  0
 12 16  2  0  0  0  0
 13 14  2  0  0  0  0
 14 21  1  0  0  0  0
 15 18  1  0  0  0  0
 15  2  2  0  0  0  0
 16  3  1  0  0  0  0
 17  6  1  0  0  0  0
 19 20  1  0  0  0  0
 19 22  1  0  0  0  0
 21 24  1  0  0  0  0
 21 23  2  0  0  0  0
 23 26  1  0  0  0  0
 24 19  2  0  0  0  0
 25 24  1  0  0  0  0
 26 22  2  0  0  0  0
 26 28  1  0  0  0  0
 27 28  1  0  0  0  0
 29 30  2  0  0  0  0
 31 29  1  0  0  0  0
 32 31  1  0  0  0  0
M  END
>  <MODEL>
8

>  <REMARK>
 VINA RESULT:      -9.8      2.224      5.404
  Name = 
  4 active torsions:
  status: ('A' for Active; 'I' for Inactive)
    1  A    between atoms: C_13  and  C_18
    2  A    between atoms: C_14  and  N_29
    3  A    between atoms: O_15  and  C_26
    4  A    between atoms: C_16  and  C_27
                            x       y       z     vdW  Elec       q    Type
                         _______ _______ _______ _____ _____    ______ ____

>  <TORSDO>
F 4

$$$$
=
 OpenBabel10272413113D

 32 36  0  0  1  0  0  0  0  0999 V2000
  184.1370  178.7920  142.0530 C   0  0  0  0  0  0  0  0  0  0  0  0
  186.5970  178.3310  140.7620 C   0  0  0  0  0  0  0  0  0  0  0  0
  182.8810  179.3010  142.7250 C   0  0  0  0  0  2  0  0  0  0  0  0
  185.3060  178.5960  142.8310 C   0  0  0  0  0  0  0  0  0  0  0  0
  187.7510  178.3070  142.8890 C   0  0  0  0  0  3  0  0  0  0  0  0
  189.2330  177.3670  138.1380 C   0  0  0  0  0  2  0  0  0  0  0  0
  186.5500  178.4130  142.1770 C   0  0  0  0  0  0  0  0  0  0  0  0
  190.2520  177.4110  140.1770 C   0  0  0  0  0  2  0  0  0  0  0  0
  188.9980  177.9230  140.8580 C   0  0  0  0  0  0  0  0  0  0  0  0
  185.1920  178.7900  144.3600 C   0  0  1  0  0  3  0  0  0  0  0  0
  188.9550  178.0320  142.2410 C   0  0  0  0  0  3  0  0  0  0  0  0
  183.7970  178.5680  144.8960 C   0  0  0  0  0  3  0  0  0  0  0  0
  185.4190  178.4820  140.0320 C   0  0  0  0  0  3  0  0  0  0  0  0
  184.1860  178.6920  140.6440 C   0  0  0  0  0  0  0  0  0  0  0  0
  187.8210  178.0940  140.1010 C   0  0  0  0  0  0  0  0  0  0  0  0
  182.7280  178.7880  144.1300 C   0  0  0  0  0  3  0  0  0  0  0  0
  190.3240  177.9130  138.8620 O   0  0  0  0  0  0  0  0  0  0  0  0
  187.9150  178.0390  138.5870 C   0  0  0  0  0  2  0  0  0  0  0  0
  180.9690  178.0410  138.6560 C   0  0  0  0  0  0  0  0  0  0  0  0
  180.1000  177.0030  138.3240 O   0  0  0  0  0  1  0  0  0  0  0  0
  182.9710  178.8730  139.7890 C   0  0  0  0  0  0  0  0  0  0  0  0
  180.7290  179.3080  138.1240 C   0  0  0  0  0  3  0  0  0  0  0  0
  182.7290  180.1270  139.2130 C   0  0  0  0  0  3  0  0  0  0  0  0
  182.0910  177.8110  139.4720 C   0  0  0  0  0  0  0  0  0  0  0  0
  182.3400  176.4190  139.9700 C   0  0  0  0  0  1  0  0  0  0  0  0
  181.6240  180.3570  138.3810 C   0  0  0  0  0  0  0  0  0  0  0  0
  180.3860  182.4940  138.0920 C   0  0  0  0  0  1  0  0  0  0  0  0
  181.4810  181.6230  137.7900 O   0  0  0  0  0  0  0  0  0  0  0  0
  186.5810  178.4100  146.2880 C   0  0  0  0  0  3  0  0  0  0  0  0
  186.1510  178.0180  145.1330 N   0  0  0  0  0  0  0  0  0  0  0  0
  187.5150  177.5410  147.0790 C   0  0  0  0  0  2  0  0  0  0  0  0
  188.8210  177.3370  146.3320 C   0  0  0  0  0  1  0  0  0  0  0  0
  1  3  1  0  0  0  0
  1  4  1  0  0  0  0
  2  7  1  0  0  0  0
  3 16  1  0  0  0  0
  4 10  1  0  0  0  0
  6 18  1  0  0  0  0
  6 17  1  0  0  0  0
  7  4  2  0  0  0  0
  7  5  1  0  0  0  0
  8  9  1  0  0  0  0
  9 11  1  0  0  0  0
 10 12  1  0  0  0  0
 10 30  1  1  0  0  0
 11  5  2  0  0  0  0
 13 14  1  0  0  0  0
 13  2  2  0  0  0  0
 14  1  2  0  0  0  0
 15  2  1  0  0  0  0
 15  9  2  0  0  0  0
 16 12  2  0  0  0  0
 17  8  1  0  0  0  0
 18 15  1  0  0  0  0
 19 24  1  0  0  0  0
 20 19  1  0  0  0  0
 21 14  1  0  0  0  0
 22 26  1  0  0  0  0
 22 19  2  0  0  0  0
 23 21  1  0  0  0  0
 24 21  2  0  0  0  0
 24 25  1  0  0  0  0
 26 23  2  0  0  0  0
 28 27  1  0  0  0  0
 28 26  1  0  0  0  0
 29 31  1  0  0  0  0
 30 29  2  0  0  0  0
 32 31  1  0  0  0  0
M  END
>  <MODEL>
9

>  <REMARK>
 VINA RESULT:      -9.8      2.992      8.651
  Name = 
  4 active torsions:
  status: ('A' for Active; 'I' for Inactive)
    1  A    between atoms: C_13  and  C_18
    2  A    between atoms: C_14  and  N_29
    3  A    between atoms: O_15  and  C_26
    4  A    between atoms: C_16  and  C_27
                            x       y       z     vdW  Elec       q    Type
                         _______ _______ _______ _____ _____    ______ ____

>  <TORSDO>
F 4

$$$$
