=
 OpenBabel10272415253D

 34 39  0  0  0  0  0  0  0  0999 V2000
  187.8000  177.8370  142.6140 C   0  0  0  0  0  3  0  0  0  0  0  0
  184.7850  178.4770  144.8130 C   0  0  0  0  0  0  0  0  0  0  0  0
  185.4200  178.3350  146.1370 C   0  0  0  0  0  0  0  0  0  0  0  0
  189.7190  177.4190  143.9700 N   0  0  0  0  0  0  0  0  0  0  0  0
  187.0110  178.0020  143.7600 C   0  0  0  0  0  0  0  0  0  0  0  0
  188.9890  177.5710  145.1060 C   0  0  0  0  0  0  0  0  0  0  0  0
  188.8600  177.5900  147.5240 C   0  0  0  0  0  3  0  0  0  0  0  0
  189.6050  177.4340  146.3530 C   0  0  0  0  0  3  0  0  0  0  0  0
  189.1670  177.5420  142.7310 C   0  0  0  0  0  0  0  0  0  0  0  0
  186.8610  178.0250  146.2130 C   0  0  0  0  0  0  0  0  0  0  0  0
  187.6110  177.8680  145.0280 C   0  0  0  0  0  0  0  0  0  0  0  0
  187.4970  177.8840  147.4550 C   0  0  0  0  0  3  0  0  0  0  0  0
  183.4190  178.7710  144.7050 C   0  0  0  0  0  3  0  0  0  0  0  0
  182.8210  178.9000  143.4490 C   0  0  0  0  0  0  0  0  0  0  0  0
  183.5900  178.7490  142.2920 C   0  0  0  0  0  3  0  0  0  0  0  0
  184.7400  178.4780  147.1910 O   0  0  0  0  0  0  0  0  0  0  0  0
  184.9520  178.4550  142.3900 C   0  0  0  0  0  3  0  0  0  0  0  0
  185.5610  178.3150  143.6460 C   0  0  0  0  0  0  0  0  0  0  0  0
  192.2700  177.3540  140.4130 C   0  0  0  0  0  2  0  0  0  0  0  0
  189.3700  177.0340  140.2340 C   0  0  0  0  0  3  0  0  0  0  0  0
  190.9710  176.3110  137.1680 C   0  0  0  0  0  0  0  0  0  0  0  0
  192.0220  176.5040  137.9760 C   0  0  0  0  0  3  0  0  0  0  0  0
  191.5540  176.7430  139.3000 N   0  0  0  0  0  0  0  0  0  0  0  0
  189.7310  176.4620  137.8730 N   0  0  0  0  0  0  0  0  0  0  0  0
  190.1480  176.7390  139.1970 C   0  0  0  0  0  0  0  0  0  0  0  0
  188.4040  176.0450  137.4480 C   0  0  0  0  0  1  0  0  0  0  0  0
  190.0130  177.3640  141.5310 C   0  0  0  0  0  0  0  0  0  0  0  0
  191.3580  177.4800  141.6140 C   0  0  0  0  0  3  0  0  0  0  0  0
  191.0830  176.0230  135.7280 C   0  0  0  0  0  0  0  0  0  0  0  0
  190.3460  176.7530  134.8050 O   0  0  0  0  0  0  0  0  0  0  0  0
  191.8520  175.1120  135.3210 O   0  0  0  0  0  1  0  0  0  0  0  0
  181.3750  179.2370  143.3440 C   0  0  0  0  0  2  0  0  0  0  0  0
  180.9080  178.9120  142.0710 O   0  0  0  0  0  0  0  0  0  0  0  0
  180.0630  179.9670  141.7290 C   0  0  0  0  0  1  0  0  0  0  0  0
  1  9  2  0  0  0  0
  1  5  1  0  0  0  0
  2  3  1  0  0  0  0
  3 10  1  0  0  0  0
  3 16  2  0  0  0  0
  4  6  2  0  0  0  0
  5 11  2  0  0  0  0
  6  8  1  0  0  0  0
  8  7  2  0  0  0  0
  9  4  1  0  0  0  0
 10 12  2  0  0  0  0
 11  6  1  0  0  0  0
 11 10  1  0  0  0  0
 12  7  1  0  0  0  0
 13  2  1  0  0  0  0
 14 13  2  0  0  0  0
 15 17  2  0  0  0  0
 15 14  1  0  0  0  0
 17 18  1  0  0  0  0
 18  5  1  0  0  0  0
 18  2  2  0  0  0  0
 19 28  1  0  0  0  0
 20 27  1  0  0  0  0
 21 24  1  0  0  0  0
 21 22  2  0  0  0  0
 22 23  1  0  0  0  0
 23 19  1  0  0  0  0
 24 25  1  0  0  0  0
 25 23  1  0  0  0  0
 25 20  2  0  0  0  0
 26 24  1  0  0  0  0
 27 28  2  0  0  0  0
 27  9  1  0  0  0  0
 29 21  1  0  0  0  0
 30 29  2  0  0  0  0
 31 29  1  0  0  0  0
 32 14  1  0  0  0  0
 33 32  1  0  0  0  0
 34 33  1  0  0  0  0
M  END
>  <MODEL>
1

>  <REMARK>
 VINA RESULT:     -11.5      0.000      0.000
  Name = 
  4 active torsions:
  status: ('A' for Active; 'I' for Inactive)
    1  A    between atoms: C_3  and  O_13
    2  A    between atoms: C_3  and  C_25
    3  A    between atoms: C_7  and  C_11
    4  A    between atoms: C_18  and  C_30
                            x       y       z     vdW  Elec       q    Type
                         _______ _______ _______ _____ _____    ______ ____

>  <TORSDO>
F 4

$$$$
=
 OpenBabel10272415253D

 34 39  0  0  0  0  0  0  0  0999 V2000
  186.8680  178.0130  143.4230 C   0  0  0  0  0  3  0  0  0  0  0  0
  190.5990  177.4220  143.6590 C   0  0  0  0  0  0  0  0  0  0  0  0
  190.7450  177.3890  145.1270 C   0  0  0  0  0  0  0  0  0  0  0  0
  185.9270  178.1480  145.6130 N   0  0  0  0  0  0  0  0  0  0  0  0
  188.1420  177.8090  143.9690 C   0  0  0  0  0  0  0  0  0  0  0  0
  187.1450  177.9520  146.1820 C   0  0  0  0  0  0  0  0  0  0  0  0
  188.5150  177.7220  148.1660 C   0  0  0  0  0  3  0  0  0  0  0  0
  187.2660  177.9230  147.5740 C   0  0  0  0  0  3  0  0  0  0  0  0
  185.7560  178.1840  144.2620 C   0  0  0  0  0  0  0  0  0  0  0  0
  189.5480  177.5730  145.9710 C   0  0  0  0  0  0  0  0  0  0  0  0
  188.2870  177.7760  145.3700 C   0  0  0  0  0  0  0  0  0  0  0  0
  189.6490  177.5480  147.3690 C   0  0  0  0  0  3  0  0  0  0  0  0
  191.7150  177.2510  142.8290 C   0  0  0  0  0  3  0  0  0  0  0  0
  191.5740  177.2870  141.4390 C   0  0  0  0  0  0  0  0  0  0  0  0
  190.3120  177.4810  140.8710 C   0  0  0  0  0  3  0  0  0  0  0  0
  191.8770  177.2060  145.6530 O   0  0  0  0  0  0  0  0  0  0  0  0
  189.1950  177.6520  141.6910 C   0  0  0  0  0  3  0  0  0  0  0  0
  189.3260  177.6270  143.0880 C   0  0  0  0  0  0  0  0  0  0  0  0
  181.9340  178.7880  144.0010 C   0  0  0  0  0  2  0  0  0  0  0  0
  184.2260  178.4170  142.2260 C   0  0  0  0  0  3  0  0  0  0  0  0
  181.2620  179.1060  140.4300 C   0  0  0  0  0  0  0  0  0  0  0  0
  180.8460  179.2560  141.6950 C   0  0  0  0  0  3  0  0  0  0  0  0
  181.9540  179.0800  142.5730 N   0  0  0  0  0  0  0  0  0  0  0  0
  182.6540  178.7640  140.3720 N   0  0  0  0  0  0  0  0  0  0  0  0
  183.0380  178.7530  141.7340 C   0  0  0  0  0  0  0  0  0  0  0  0
  183.5390  178.8140  139.2190 C   0  0  0  0  0  1  0  0  0  0  0  0
  184.4050  178.4020  143.7000 C   0  0  0  0  0  0  0  0  0  0  0  0
  183.3460  178.6050  144.5160 C   0  0  0  0  0  3  0  0  0  0  0  0
  180.3840  179.2340  139.2550 C   0  0  0  0  0  0  0  0  0  0  0  0
  179.9820  178.1080  138.5510 O   0  0  0  0  0  0  0  0  0  0  0  0
  179.9870  180.3700  138.8810 O   0  0  0  0  0  1  0  0  0  0  0  0
  192.7600  177.0800  140.5640 C   0  0  0  0  0  2  0  0  0  0  0  0
  192.3490  176.9370  139.2400 O   0  0  0  0  0  0  0  0  0  0  0  0
  193.4860  176.4920  138.5660 C   0  0  0  0  0  1  0  0  0  0  0  0
  1  5  2  0  0  0  0
  1  9  1  0  0  0  0
  2  3  1  0  0  0  0
  3 16  2  0  0  0  0
  3 10  1  0  0  0  0
  4  6  1  0  0  0  0
  5 11  1  0  0  0  0
  6  8  1  0  0  0  0
  8  7  2  0  0  0  0
  9  4  2  0  0  0  0
 10 12  2  0  0  0  0
 11 10  1  0  0  0  0
 11  6  2  0  0  0  0
 12  7  1  0  0  0  0
 13  2  2  0  0  0  0
 14 13  1  0  0  0  0
 15 14  2  0  0  0  0
 15 17  1  0  0  0  0
 17 18  2  0  0  0  0
 18  2  1  0  0  0  0
 18  5  1  0  0  0  0
 19 28  1  0  0  0  0
 20 27  1  0  0  0  0
 21 22  2  0  0  0  0
 22 23  1  0  0  0  0
 23 19  1  0  0  0  0
 24 21  1  0  0  0  0
 24 25  1  0  0  0  0
 25 20  2  0  0  0  0
 25 23  1  0  0  0  0
 26 24  1  0  0  0  0
 27  9  1  0  0  0  0
 27 28  2  0  0  0  0
 29 21  1  0  0  0  0
 30 29  2  0  0  0  0
 31 29  1  0  0  0  0
 32 14  1  0  0  0  0
 33 32  1  0  0  0  0
 34 33  1  0  0  0  0
M  END
>  <MODEL>
2

>  <REMARK>
 VINA RESULT:     -10.7      3.090      7.935
  Name = 
  4 active torsions:
  status: ('A' for Active; 'I' for Inactive)
    1  A    between atoms: C_3  and  O_13
    2  A    between atoms: C_3  and  C_25
    3  A    between atoms: C_7  and  C_11
    4  A    between atoms: C_18  and  C_30
                            x       y       z     vdW  Elec       q    Type
                         _______ _______ _______ _____ _____    ______ ____

>  <TORSDO>
F 4

$$$$
=
 OpenBabel10272415253D

 34 39  0  0  0  0  0  0  0  0999 V2000
  187.4150  177.7000  142.0620 C   0  0  0  0  0  3  0  0  0  0  0  0
  184.8560  178.4860  144.7380 C   0  0  0  0  0  0  0  0  0  0  0  0
  185.7190  178.3880  145.9320 C   0  0  0  0  0  0  0  0  0  0  0  0
  189.5440  177.3030  143.0660 N   0  0  0  0  0  0  0  0  0  0  0  0
  186.8480  177.9270  143.3230 C   0  0  0  0  0  0  0  0  0  0  0  0
  189.0340  177.5160  144.3070 C   0  0  0  0  0  0  0  0  0  0  0  0
  189.3450  177.6380  146.7060 C   0  0  0  0  0  3  0  0  0  0  0  0
  189.8630  177.4200  145.4270 C   0  0  0  0  0  3  0  0  0  0  0  0
  188.7780  177.3850  141.9430 C   0  0  0  0  0  0  0  0  0  0  0  0
  187.1460  178.0550  145.7590 C   0  0  0  0  0  0  0  0  0  0  0  0
  187.6670  177.8350  144.4660 C   0  0  0  0  0  0  0  0  0  0  0  0
  187.9950  177.9530  146.8710 C   0  0  0  0  0  3  0  0  0  0  0  0
  183.4960  178.8010  144.8670 C   0  0  0  0  0  3  0  0  0  0  0  0
  182.6820  178.8880  143.7350 C   0  0  0  0  0  0  0  0  0  0  0  0
  183.2260  178.6760  142.4650 C   0  0  0  0  0  3  0  0  0  0  0  0
  185.2420  178.5870  147.0830 O   0  0  0  0  0  0  0  0  0  0  0  0
  184.5800  178.3610  142.3280 C   0  0  0  0  0  3  0  0  0  0  0  0
  185.4060  178.2620  143.4590 C   0  0  0  0  0  0  0  0  0  0  0  0
  189.1930  176.8500  138.1250 C   0  0  0  0  0  2  0  0  0  0  0  0
  190.8560  176.9250  140.5270 C   0  0  0  0  0  3  0  0  0  0  0  0
  192.7870  176.5230  137.5950 C   0  0  0  0  0  0  0  0  0  0  0  0
  191.5630  176.7040  137.0820 C   0  0  0  0  0  3  0  0  0  0  0  0
  190.6460  176.9580  138.1440 N   0  0  0  0  0  0  0  0  0  0  0  0
  192.7710  176.5830  139.0290 N   0  0  0  0  0  0  0  0  0  0  0  0
  191.4120  176.8480  139.3220 C   0  0  0  0  0  0  0  0  0  0  0  0
  193.9030  176.7380  139.9290 C   0  0  0  0  0  1  0  0  0  0  0  0
  189.3900  177.1420  140.6190 C   0  0  0  0  0  0  0  0  0  0  0  0
  188.6300  177.1380  139.5000 C   0  0  0  0  0  3  0  0  0  0  0  0
  193.9860  176.2530  136.7850 C   0  0  0  0  0  0  0  0  0  0  0  0
  194.4700  174.9580  136.6530 O   0  0  0  0  0  1  0  0  0  0  0  0
  194.5810  177.1960  136.1990 O   0  0  0  0  0  0  0  0  0  0  0  0
  181.2440  179.2480  143.8770 C   0  0  0  0  0  2  0  0  0  0  0  0
  180.5930  179.0760  142.6560 O   0  0  0  0  0  0  0  0  0  0  0  0
  179.9820  180.3040  142.4100 C   0  0  0  0  0  1  0  0  0  0  0  0
  1  5  1  0  0  0  0
  2 13  1  0  0  0  0
  2  3  1  0  0  0  0
  3 16  2  0  0  0  0
  4  6  2  0  0  0  0
  5 18  1  0  0  0  0
  5 11  2  0  0  0  0
  6 11  1  0  0  0  0
  6  8  1  0  0  0  0
  7 12  1  0  0  0  0
  8  7  2  0  0  0  0
  9  1  2  0  0  0  0
  9  4  1  0  0  0  0
 10  3  1  0  0  0  0
 10 12  2  0  0  0  0
 11 10  1  0  0  0  0
 14 32  1  0  0  0  0
 14 13  2  0  0  0  0
 15 14  1  0  0  0  0
 17 15  2  0  0  0  0
 17 18  1  0  0  0  0
 18  2  2  0  0  0  0
 19 23  1  0  0  0  0
 19 28  1  0  0  0  0
 20 27  1  0  0  0  0
 21 24  1  0  0  0  0
 22 21  2  0  0  0  0
 22 23  1  0  0  0  0
 23 25  1  0  0  0  0
 24 25  1  0  0  0  0
 24 26  1  0  0  0  0
 25 20  2  0  0  0  0
 27  9  1  0  0  0  0
 28 27  2  0  0  0  0
 29 21  1  0  0  0  0
 30 29  1  0  0  0  0
 31 29  2  0  0  0  0
 33 32  1  0  0  0  0
 34 33  1  0  0  0  0
M  END
>  <MODEL>
3

>  <REMARK>
 VINA RESULT:     -10.6      1.232      2.033
  Name = 
  4 active torsions:
  status: ('A' for Active; 'I' for Inactive)
    1  A    between atoms: C_3  and  O_13
    2  A    between atoms: C_3  and  C_25
    3  A    between atoms: C_7  and  C_11
    4  A    between atoms: C_18  and  C_30
                            x       y       z     vdW  Elec       q    Type
                         _______ _______ _______ _____ _____    ______ ____

>  <TORSDO>
F 4

$$$$
=
 OpenBabel10272415253D

 34 39  0  0  0  0  0  0  0  0999 V2000
  188.3540  177.5640  142.9220 C   0  0  0  0  0  3  0  0  0  0  0  0
  189.1320  177.2670  146.6150 C   0  0  0  0  0  0  0  0  0  0  0  0
  187.8280  177.6810  147.1690 C   0  0  0  0  0  0  0  0  0  0  0  0
  186.1020  178.2970  142.6230 N   0  0  0  0  0  0  0  0  0  0  0  0
  188.1940  177.5990  144.3140 C   0  0  0  0  0  0  0  0  0  0  0  0
  185.9060  178.3440  143.9670 C   0  0  0  0  0  0  0  0  0  0  0  0
  184.4570  178.7880  145.8570 C   0  0  0  0  0  3  0  0  0  0  0  0
  184.6660  178.7390  144.4760 C   0  0  0  0  0  3  0  0  0  0  0  0
  187.2910  177.9190  142.0770 C   0  0  0  0  0  0  0  0  0  0  0  0
  186.7380  178.0450  146.2430 C   0  0  0  0  0  0  0  0  0  0  0  0
  186.9520  177.9940  144.8490 C   0  0  0  0  0  0  0  0  0  0  0  0
  185.4870  178.4440  146.7350 C   0  0  0  0  0  3  0  0  0  0  0  0
  190.1880  176.9140  147.4660 C   0  0  0  0  0  3  0  0  0  0  0  0
  191.4220  176.5260  146.9380 C   0  0  0  0  0  0  0  0  0  0  0  0
  191.6020  176.4750  145.5530 C   0  0  0  0  0  3  0  0  0  0  0  0
  187.6490  177.7230  148.4170 O   0  0  0  0  0  0  0  0  0  0  0  0
  190.5560  176.8250  144.6970 C   0  0  0  0  0  3  0  0  0  0  0  0
  189.3150  177.2240  145.2170 C   0  0  0  0  0  0  0  0  0  0  0  0
  186.5740  178.3750  138.2940 C   0  0  0  0  0  2  0  0  0  0  0  0
  188.6690  177.2890  140.0180 C   0  0  0  0  0  3  0  0  0  0  0  0
  189.5780  177.1780  136.6050 C   0  0  0  0  0  0  0  0  0  0  0  0
  188.4160  177.8430  136.5480 C   0  0  0  0  0  3  0  0  0  0  0  0
  187.9300  178.0460  137.8720 N   0  0  0  0  0  0  0  0  0  0  0  0
  189.9220  176.8370  137.9550 N   0  0  0  0  0  0  0  0  0  0  0  0
  188.8600  177.3930  138.7070 C   0  0  0  0  0  0  0  0  0  0  0  0
  191.2120  176.3980  138.4650 C   0  0  0  0  0  1  0  0  0  0  0  0
  187.4450  177.8890  140.6070 C   0  0  0  0  0  0  0  0  0  0  0  0
  186.4940  178.4180  139.8040 C   0  0  0  0  0  3  0  0  0  0  0  0
  190.3720  176.8080  135.4220 C   0  0  0  0  0  0  0  0  0  0  0  0
  191.2610  175.7430  135.4760 O   0  0  0  0  0  1  0  0  0  0  0  0
  190.2490  177.4540  134.3480 O   0  0  0  0  0  0  0  0  0  0  0  0
  192.5300  176.1290  147.8480 C   0  0  0  0  0  2  0  0  0  0  0  0
  192.7280  177.1200  148.8090 O   0  0  0  0  0  0  0  0  0  0  0  0
  193.5860  176.5370  149.7410 C   0  0  0  0  0  1  0  0  0  0  0  0
  1  5  1  0  0  0  0
  2  3  1  0  0  0  0
  2 13  1  0  0  0  0
  3 16  2  0  0  0  0
  4  6  2  0  0  0  0
  5 11  2  0  0  0  0
  5 18  1  0  0  0  0
  6  8  1  0  0  0  0
  6 11  1  0  0  0  0
  7 12  1  0  0  0  0
  8  7  2  0  0  0  0
  9  4  1  0  0  0  0
  9  1  2  0  0  0  0
 10 12  2  0  0  0  0
 10  3  1  0  0  0  0
 11 10  1  0  0  0  0
 14 13  2  0  0  0  0
 14 32  1  0  0  0  0
 15 14  1  0  0  0  0
 17 18  1  0  0  0  0
 17 15  2  0  0  0  0
 18  2  2  0  0  0  0
 19 28  1  0  0  0  0
 20 27  1  0  0  0  0
 21 24  1  0  0  0  0
 22 21  2  0  0  0  0
 22 23  1  0  0  0  0
 23 19  1  0  0  0  0
 23 25  1  0  0  0  0
 24 26  1  0  0  0  0
 24 25  1  0  0  0  0
 25 20  2  0  0  0  0
 27  9  1  0  0  0  0
 28 27  2  0  0  0  0
 29 30  1  0  0  0  0
 29 21  1  0  0  0  0
 31 29  2  0  0  0  0
 32 33  1  0  0  0  0
 33 34  1  0  0  0  0
M  END
>  <MODEL>
4

>  <REMARK>
 VINA RESULT:     -10.3      2.499      5.830
  Name = 
  4 active torsions:
  status: ('A' for Active; 'I' for Inactive)
    1  A    between atoms: C_3  and  O_13
    2  A    between atoms: C_3  and  C_25
    3  A    between atoms: C_7  and  C_11
    4  A    between atoms: C_18  and  C_30
                            x       y       z     vdW  Elec       q    Type
                         _______ _______ _______ _____ _____    ______ ____

>  <TORSDO>
F 4

$$$$
=
 OpenBabel10272415253D

 34 39  0  0  0  0  0  0  0  0999 V2000
  189.4310  177.0290  142.4410 C   0  0  0  0  0  3  0  0  0  0  0  0
  189.3920  177.1730  146.2240 C   0  0  0  0  0  0  0  0  0  0  0  0
  188.0260  177.6920  146.4300 C   0  0  0  0  0  0  0  0  0  0  0  0
  187.3370  177.7840  141.5790 N   0  0  0  0  0  0  0  0  0  0  0  0
  188.9820  177.2420  143.7520 C   0  0  0  0  0  0  0  0  0  0  0  0
  186.8640  178.0050  142.8330 C   0  0  0  0  0  0  0  0  0  0  0  0
  185.0760  178.7250  144.2990 C   0  0  0  0  0  3  0  0  0  0  0  0
  185.5690  178.4970  143.0120 C   0  0  0  0  0  3  0  0  0  0  0  0
  188.5920  177.3060  141.3510 C   0  0  0  0  0  0  0  0  0  0  0  0
  187.1790  177.9690  145.2540 C   0  0  0  0  0  0  0  0  0  0  0  0
  187.6790  177.7370  143.9550 C   0  0  0  0  0  0  0  0  0  0  0  0
  185.8760  178.4630  145.4130 C   0  0  0  0  0  3  0  0  0  0  0  0
  190.2230  176.8990  147.3190 C   0  0  0  0  0  3  0  0  0  0  0  0
  191.5170  176.4120  147.1190 C   0  0  0  0  0  0  0  0  0  0  0  0
  191.9830  176.1820  145.8220 C   0  0  0  0  0  3  0  0  0  0  0  0
  187.5890  177.8950  147.5970 O   0  0  0  0  0  0  0  0  0  0  0  0
  191.1620  176.4530  144.7250 C   0  0  0  0  0  3  0  0  0  0  0  0
  189.8640  176.9510  144.9130 C   0  0  0  0  0  0  0  0  0  0  0  0
  188.6200  177.0620  137.4810 C   0  0  0  0  0  2  0  0  0  0  0  0
  190.4460  176.6370  139.7220 C   0  0  0  0  0  3  0  0  0  0  0  0
  192.0520  176.1890  136.6070 C   0  0  0  0  0  0  0  0  0  0  0  0
  190.8420  176.6190  136.2210 C   0  0  0  0  0  3  0  0  0  0  0  0
  190.0670  176.9230  137.3780 N   0  0  0  0  0  0  0  0  0  0  0  0
  192.1540  176.1190  138.0360 N   0  0  0  0  0  0  0  0  0  0  0  0
  190.8880  176.5800  138.4700 C   0  0  0  0  0  0  0  0  0  0  0  0
  193.3600  176.0000  138.8400 C   0  0  0  0  0  1  0  0  0  0  0  0
  189.0510  177.0870  139.9620 C   0  0  0  0  0  0  0  0  0  0  0  0
  188.2210  177.3120  138.9190 C   0  0  0  0  0  3  0  0  0  0  0  0
  193.1210  175.7980  135.6730 C   0  0  0  0  0  0  0  0  0  0  0  0
  193.8960  176.7650  135.0460 O   0  0  0  0  0  0  0  0  0  0  0  0
  193.3440  174.5810  135.4380 O   0  0  0  0  0  1  0  0  0  0  0  0
  192.3840  176.0990  148.2880 C   0  0  0  0  0  2  0  0  0  0  0  0
  192.7280  177.2790  148.9470 O   0  0  0  0  0  0  0  0  0  0  0  0
  193.6350  176.8790  149.9280 C   0  0  0  0  0  1  0  0  0  0  0  0
  1  5  1  0  0  0  0
  2  3  1  0  0  0  0
  2 13  1  0  0  0  0
  3 16  2  0  0  0  0
  4  6  2  0  0  0  0
  5 11  2  0  0  0  0
  5 18  1  0  0  0  0
  6  8  1  0  0  0  0
  6 11  1  0  0  0  0
  7 12  1  0  0  0  0
  8  7  2  0  0  0  0
  9  4  1  0  0  0  0
  9  1  2  0  0  0  0
 10 12  2  0  0  0  0
 10  3  1  0  0  0  0
 11 10  1  0  0  0  0
 14 13  2  0  0  0  0
 14 32  1  0  0  0  0
 15 14  1  0  0  0  0
 17 18  1  0  0  0  0
 17 15  2  0  0  0  0
 18  2  2  0  0  0  0
 19 28  1  0  0  0  0
 20 27  1  0  0  0  0
 21 24  1  0  0  0  0
 22 21  2  0  0  0  0
 22 23  1  0  0  0  0
 23 19  1  0  0  0  0
 23 25  1  0  0  0  0
 24 25  1  0  0  0  0
 24 26  1  0  0  0  0
 25 20  2  0  0  0  0
 27  9  1  0  0  0  0
 28 27  2  0  0  0  0
 29 21  1  0  0  0  0
 30 29  2  0  0  0  0
 31 29  1  0  0  0  0
 32 33  1  0  0  0  0
 33 34  1  0  0  0  0
M  END
>  <MODEL>
5

>  <REMARK>
 VINA RESULT:     -10.0      2.432      5.848
  Name = 
  4 active torsions:
  status: ('A' for Active; 'I' for Inactive)
    1  A    between atoms: C_3  and  O_13
    2  A    between atoms: C_3  and  C_25
    3  A    between atoms: C_7  and  C_11
    4  A    between atoms: C_18  and  C_30
                            x       y       z     vdW  Elec       q    Type
                         _______ _______ _______ _____ _____    ______ ____

>  <TORSDO>
F 4

$$$$
=
 OpenBabel10272415253D

 34 39  0  0  0  0  0  0  0  0999 V2000
  186.0940  178.2030  142.5000 C   0  0  0  0  0  3  0  0  0  0  0  0
  184.8050  178.5390  138.9570 C   0  0  0  0  0  0  0  0  0  0  0  0
  183.3820  178.8050  139.2440 C   0  0  0  0  0  0  0  0  0  0  0  0
  184.3030  178.5080  144.0490 N   0  0  0  0  0  0  0  0  0  0  0  0
  185.2160  178.3980  141.4260 C   0  0  0  0  0  0  0  0  0  0  0  0
  183.4190  178.7030  143.0350 C   0  0  0  0  0  0  0  0  0  0  0  0
  181.1610  179.1550  142.2870 C   0  0  0  0  0  3  0  0  0  0  0  0
  182.0750  178.9530  143.3240 C   0  0  0  0  0  3  0  0  0  0  0  0
  185.6230  178.2600  143.8210 C   0  0  0  0  0  0  0  0  0  0  0  0
  182.9300  178.8570  140.6490 C   0  0  0  0  0  0  0  0  0  0  0  0
  183.8560  178.6530  141.6940 C   0  0  0  0  0  0  0  0  0  0  0  0
  181.5860  179.1070  140.9570 C   0  0  0  0  0  3  0  0  0  0  0  0
  185.2670  178.4840  137.6350 C   0  0  0  0  0  3  0  0  0  0  0  0
  186.6140  178.2270  137.3680 C   0  0  0  0  0  0  0  0  0  0  0  0
  187.5110  178.0380  138.4230 C   0  0  0  0  0  3  0  0  0  0  0  0
  182.5630  178.9870  138.3010 O   0  0  0  0  0  0  0  0  0  0  0  0
  187.0590  178.0920  139.7430 C   0  0  0  0  0  3  0  0  0  0  0  0
  185.7070  178.3400  140.0240 C   0  0  0  0  0  0  0  0  0  0  0  0
  186.9940  178.0490  147.4420 C   0  0  0  0  0  2  0  0  0  0  0  0
  187.9470  177.6650  144.7060 C   0  0  0  0  0  3  0  0  0  0  0  0
  190.4260  176.8620  147.0930 C   0  0  0  0  0  0  0  0  0  0  0  0
  189.3700  177.1060  147.8810 C   0  0  0  0  0  3  0  0  0  0  0  0
  188.2350  177.3830  147.0650 N   0  0  0  0  0  0  0  0  0  0  0  0
  190.0930  177.0150  145.7060 N   0  0  0  0  0  0  0  0  0  0  0  0
  188.7180  177.3480  145.7410 C   0  0  0  0  0  0  0  0  0  0  0  0
  190.8490  176.5560  144.5500 C   0  0  0  0  0  1  0  0  0  0  0  0
  186.5380  178.0550  144.9650 C   0  0  0  0  0  0  0  0  0  0  0  0
  186.0950  178.2000  146.2350 C   0  0  0  0  0  3  0  0  0  0  0  0
  191.7670  176.5240  147.5980 C   0  0  0  0  0  0  0  0  0  0  0  0
  192.3570  177.2880  148.5960 O   0  0  0  0  0  1  0  0  0  0  0  0
  192.3900  175.5340  147.1300 O   0  0  0  0  0  0  0  0  0  0  0  0
  187.1010  178.1950  135.9620 C   0  0  0  0  0  2  0  0  0  0  0  0
  188.4720  177.9420  135.9450 O   0  0  0  0  0  0  0  0  0  0  0  0
  188.6920  177.2870  134.7340 C   0  0  0  0  0  1  0  0  0  0  0  0
  1  9  1  0  0  0  0
  2  3  1  0  0  0  0
  2 18  1  0  0  0  0
  3 10  1  0  0  0  0
  5 11  1  0  0  0  0
  5  1  2  0  0  0  0
  6  8  1  0  0  0  0
  6  4  1  0  0  0  0
  7  8  2  0  0  0  0
  9  4  2  0  0  0  0
  9 27  1  0  0  0  0
 10 12  2  0  0  0  0
 10 11  1  0  0  0  0
 11  6  2  0  0  0  0
 12  7  1  0  0  0  0
 13  2  2  0  0  0  0
 14 13  1  0  0  0  0
 14 15  2  0  0  0  0
 15 17  1  0  0  0  0
 16  3  2  0  0  0  0
 17 18  2  0  0  0  0
 18  5  1  0  0  0  0
 20 27  1  0  0  0  0
 20 25  2  0  0  0  0
 21 29  1  0  0  0  0
 21 22  2  0  0  0  0
 23 19  1  0  0  0  0
 23 22  1  0  0  0  0
 24 25  1  0  0  0  0
 24 21  1  0  0  0  0
 25 23  1  0  0  0  0
 26 24  1  0  0  0  0
 27 28  2  0  0  0  0
 28 19  1  0  0  0  0
 29 30  1  0  0  0  0
 31 29  2  0  0  0  0
 32 14  1  0  0  0  0
 33 32  1  0  0  0  0
 34 33  1  0  0  0  0
M  END
>  <MODEL>
6

>  <REMARK>
 VINA RESULT:      -9.7      3.164      7.930
  Name = 
  4 active torsions:
  status: ('A' for Active; 'I' for Inactive)
    1  A    between atoms: C_3  and  O_13
    2  A    between atoms: C_3  and  C_25
    3  A    between atoms: C_7  and  C_11
    4  A    between atoms: C_18  and  C_30
                            x       y       z     vdW  Elec       q    Type
                         _______ _______ _______ _____ _____    ______ ____

>  <TORSDO>
F 4

$$$$
=
 OpenBabel10272415253D

 34 39  0  0  0  0  0  0  0  0999 V2000
  187.8560  177.7840  141.7630 C   0  0  0  0  0  3  0  0  0  0  0  0
  187.8710  177.7830  145.5490 C   0  0  0  0  0  0  0  0  0  0  0  0
  186.4770  178.2000  145.7940 C   0  0  0  0  0  0  0  0  0  0  0  0
  185.7030  178.4290  140.9600 N   0  0  0  0  0  0  0  0  0  0  0  0
  187.4170  177.9170  143.0870 C   0  0  0  0  0  0  0  0  0  0  0  0
  185.2370  178.5690  142.2290 C   0  0  0  0  0  0  0  0  0  0  0  0
  183.4290  179.1110  143.7470 C   0  0  0  0  0  3  0  0  0  0  0  0
  183.9150  178.9650  142.4450 C   0  0  0  0  0  3  0  0  0  0  0  0
  186.9830  178.0460  140.6970 C   0  0  0  0  0  0  0  0  0  0  0  0
  185.5930  178.4640  144.6420 C   0  0  0  0  0  0  0  0  0  0  0  0
  186.0870  178.3160  143.3280 C   0  0  0  0  0  0  0  0  0  0  0  0
  184.2630  178.8620  144.8390 C   0  0  0  0  0  3  0  0  0  0  0  0
  188.7360  177.5240  146.6200 C   0  0  0  0  0  3  0  0  0  0  0  0
  190.0570  177.1340  146.3840 C   0  0  0  0  0  0  0  0  0  0  0  0
  190.5160  176.9850  145.0720 C   0  0  0  0  0  3  0  0  0  0  0  0
  186.0470  178.3290  146.9740 O   0  0  0  0  0  0  0  0  0  0  0  0
  189.6610  177.2410  143.9980 C   0  0  0  0  0  3  0  0  0  0  0  0
  188.3350  177.6430  144.2240 C   0  0  0  0  0  0  0  0  0  0  0  0
  187.1560  178.4000  136.8390 C   0  0  0  0  0  2  0  0  0  0  0  0
  188.6370  177.0950  138.9940 C   0  0  0  0  0  3  0  0  0  0  0  0
  190.2070  176.6560  135.8590 C   0  0  0  0  0  0  0  0  0  0  0  0
  189.2080  177.4910  135.5400 C   0  0  0  0  0  3  0  0  0  0  0  0
  188.4970  177.8390  136.7250 N   0  0  0  0  0  0  0  0  0  0  0  0
  190.2010  176.3400  137.2580 N   0  0  0  0  0  0  0  0  0  0  0  0
  189.1120  177.0960  137.7530 C   0  0  0  0  0  0  0  0  0  0  0  0
  191.2660  175.7330  138.0410 C   0  0  0  0  0  1  0  0  0  0  0  0
  187.4330  177.9110  139.2940 C   0  0  0  0  0  0  0  0  0  0  0  0
  186.7700  178.5380  138.2960 C   0  0  0  0  0  3  0  0  0  0  0  0
  191.1590  176.1020  134.8820 C   0  0  0  0  0  0  0  0  0  0  0  0
  191.1120  174.7580  134.5370 O   0  0  0  0  0  1  0  0  0  0  0  0
  192.0230  176.8460  134.3460 O   0  0  0  0  0  0  0  0  0  0  0  0
  190.9620  176.8370  147.5270 C   0  0  0  0  0  2  0  0  0  0  0  0
  192.1770  176.3450  147.0500 O   0  0  0  0  0  0  0  0  0  0  0  0
  192.7630  175.7310  148.1570 C   0  0  0  0  0  1  0  0  0  0  0  0
  1  5  1  0  0  0  0
  2  3  1  0  0  0  0
  2 13  1  0  0  0  0
  3 16  2  0  0  0  0
  4  6  2  0  0  0  0
  5 11  2  0  0  0  0
  5 18  1  0  0  0  0
  6  8  1  0  0  0  0
  6 11  1  0  0  0  0
  7 12  1  0  0  0  0
  8  7  2  0  0  0  0
  9  4  1  0  0  0  0
  9  1  2  0  0  0  0
 10 12  2  0  0  0  0
 10  3  1  0  0  0  0
 11 10  1  0  0  0  0
 14 13  2  0  0  0  0
 14 32  1  0  0  0  0
 15 14  1  0  0  0  0
 17 18  1  0  0  0  0
 17 15  2  0  0  0  0
 18  2  2  0  0  0  0
 19 28  1  0  0  0  0
 20 27  1  0  0  0  0
 21 24  1  0  0  0  0
 22 21  2  0  0  0  0
 22 23  1  0  0  0  0
 23 19  1  0  0  0  0
 23 25  1  0  0  0  0
 24 25  1  0  0  0  0
 24 26  1  0  0  0  0
 25 20  2  0  0  0  0
 27  9  1  0  0  0  0
 28 27  2  0  0  0  0
 29 21  1  0  0  0  0
 30 29  1  0  0  0  0
 31 29  2  0  0  0  0
 33 32  1  0  0  0  0
 33 34  1  0  0  0  0
M  END
>  <MODEL>
7

>  <REMARK>
 VINA RESULT:      -9.5      2.220      5.494
  Name = 
  4 active torsions:
  status: ('A' for Active; 'I' for Inactive)
    1  A    between atoms: C_3  and  O_13
    2  A    between atoms: C_3  and  C_25
    3  A    between atoms: C_7  and  C_11
    4  A    between atoms: C_18  and  C_30
                            x       y       z     vdW  Elec       q    Type
                         _______ _______ _______ _____ _____    ______ ____

>  <TORSDO>
F 4

$$$$
=
 OpenBabel10272415253D

 34 39  0  0  0  0  0  0  0  0999 V2000
  185.2920  178.0130  141.4660 C   0  0  0  0  0  3  0  0  0  0  0  0
  182.1560  178.3960  139.3800 C   0  0  0  0  0  0  0  0  0  0  0  0
  181.1950  178.7240  140.4500 C   0  0  0  0  0  0  0  0  0  0  0  0
  184.7890  178.3990  143.7670 N   0  0  0  0  0  0  0  0  0  0  0  0
  183.9540  178.2430  141.1210 C   0  0  0  0  0  0  0  0  0  0  0  0
  183.4810  178.6290  143.4750 C   0  0  0  0  0  0  0  0  0  0  0  0
  181.2390  179.1770  144.2060 C   0  0  0  0  0  3  0  0  0  0  0  0
  182.5840  178.9380  144.5000 C   0  0  0  0  0  3  0  0  0  0  0  0
  185.7030  178.0940  142.8050 C   0  0  0  0  0  0  0  0  0  0  0  0
  181.6720  178.7990  141.8450 C   0  0  0  0  0  0  0  0  0  0  0  0
  183.0310  178.5570  142.1390 C   0  0  0  0  0  0  0  0  0  0  0  0
  180.7850  179.1070  142.8870 C   0  0  0  0  0  3  0  0  0  0  0  0
  181.7370  178.3180  138.0450 C   0  0  0  0  0  3  0  0  0  0  0  0
  182.6490  178.0020  137.0350 C   0  0  0  0  0  0  0  0  0  0  0  0
  183.9910  177.7780  137.3530 C   0  0  0  0  0  3  0  0  0  0  0  0
  179.9820  178.9390  140.1760 O   0  0  0  0  0  0  0  0  0  0  0  0
  184.4180  177.8540  138.6810 C   0  0  0  0  0  3  0  0  0  0  0  0
  183.5090  178.1610  139.7050 C   0  0  0  0  0  0  0  0  0  0  0  0
  189.5610  177.7550  142.6030 C   0  0  0  0  0  2  0  0  0  0  0  0
  187.4270  177.4320  144.5740 C   0  0  0  0  0  3  0  0  0  0  0  0
  190.6250  176.9490  145.9970 C   0  0  0  0  0  0  0  0  0  0  0  0
  190.9450  177.3380  144.7560 C   0  0  0  0  0  3  0  0  0  0  0  0
  189.7500  177.6510  144.0440 N   0  0  0  0  0  0  0  0  0  0  0  0
  189.2040  176.9170  146.1890 N   0  0  0  0  0  0  0  0  0  0  0  0
  188.7030  177.3560  144.9400 C   0  0  0  0  0  0  0  0  0  0  0  0
  188.4730  176.8480  147.4440 C   0  0  0  0  0  1  0  0  0  0  0  0
  187.1120  177.8520  143.1850 C   0  0  0  0  0  0  0  0  0  0  0  0
  188.1070  178.0310  142.2860 C   0  0  0  0  0  3  0  0  0  0  0  0
  191.6140  176.5630  147.0180 C   0  0  0  0  0  0  0  0  0  0  0  0
  192.3580  175.4000  146.8720 O   0  0  0  0  0  0  0  0  0  0  0  0
  191.7960  177.2890  148.0310 O   0  0  0  0  0  1  0  0  0  0  0  0
  182.2010  177.9460  135.6170 C   0  0  0  0  0  2  0  0  0  0  0  0
  180.9350  178.5190  135.5010 O   0  0  0  0  0  0  0  0  0  0  0  0
  181.1090  179.5680  134.5990 C   0  0  0  0  0  1  0  0  0  0  0  0
  1  9  1  0  0  0  0
  2 18  1  0  0  0  0
  2  3  1  0  0  0  0
  3 10  1  0  0  0  0
  5  1  2  0  0  0  0
  5 11  1  0  0  0  0
  6  4  1  0  0  0  0
  6  8  1  0  0  0  0
  7  8  2  0  0  0  0
  9 27  1  0  0  0  0
  9  4  2  0  0  0  0
 10 11  1  0  0  0  0
 10 12  2  0  0  0  0
 11  6  2  0  0  0  0
 12  7  1  0  0  0  0
 13  2  2  0  0  0  0
 14 15  2  0  0  0  0
 14 13  1  0  0  0  0
 15 17  1  0  0  0  0
 16  3  2  0  0  0  0
 17 18  2  0  0  0  0
 18  5  1  0  0  0  0
 19 23  1  0  0  0  0
 20 25  2  0  0  0  0
 21 24  1  0  0  0  0
 21 29  1  0  0  0  0
 22 21  2  0  0  0  0
 23 22  1  0  0  0  0
 23 25  1  0  0  0  0
 24 26  1  0  0  0  0
 25 24  1  0  0  0  0
 27 20  1  0  0  0  0
 28 19  1  0  0  0  0
 28 27  2  0  0  0  0
 29 31  1  0  0  0  0
 30 29  2  0  0  0  0
 32 14  1  0  0  0  0
 33 32  1  0  0  0  0
 34 33  1  0  0  0  0
M  END
>  <MODEL>
8

>  <REMARK>
 VINA RESULT:      -9.0      4.003      7.058
  Name = 
  4 active torsions:
  status: ('A' for Active; 'I' for Inactive)
    1  A    between atoms: C_3  and  O_13
    2  A    between atoms: C_3  and  C_25
    3  A    between atoms: C_7  and  C_11
    4  A    between atoms: C_18  and  C_30
                            x       y       z     vdW  Elec       q    Type
                         _______ _______ _______ _____ _____    ______ ____

>  <TORSDO>
F 4

$$$$
=
 OpenBabel10272415253D

 34 39  0  0  0  0  0  0  0  0999 V2000
  186.9490  178.1340  141.5240 C   0  0  0  0  0  3  0  0  0  0  0  0
  183.2760  178.7840  142.1700 C   0  0  0  0  0  0  0  0  0  0  0  0
  183.2820  178.7460  143.6450 C   0  0  0  0  0  0  0  0  0  0  0  0
  188.1040  177.8710  143.5960 N   0  0  0  0  0  0  0  0  0  0  0  0
  185.7420  178.3350  142.2070 C   0  0  0  0  0  0  0  0  0  0  0  0
  186.9550  178.0610  144.2970 C   0  0  0  0  0  0  0  0  0  0  0  0
  185.8000  178.2170  146.4190 C   0  0  0  0  0  3  0  0  0  0  0  0
  186.9770  178.0220  145.6930 C   0  0  0  0  0  3  0  0  0  0  0  0
  188.1360  177.9000  142.2350 C   0  0  0  0  0  0  0  0  0  0  0  0
  184.5540  178.4970  144.3520 C   0  0  0  0  0  0  0  0  0  0  0  0
  185.7410  178.3000  143.6160 C   0  0  0  0  0  0  0  0  0  0  0  0
  184.5950  178.4530  145.7530 C   0  0  0  0  0  3  0  0  0  0  0  0
  182.0860  179.0190  141.4690 C   0  0  0  0  0  3  0  0  0  0  0  0
  182.0840  179.0500  140.0720 C   0  0  0  0  0  0  0  0  0  0  0  0
  183.2770  178.8620  139.3680 C   0  0  0  0  0  3  0  0  0  0  0  0
  182.2140  178.9240  144.2940 O   0  0  0  0  0  0  0  0  0  0  0  0
  184.4670  178.6270  140.0590 C   0  0  0  0  0  3  0  0  0  0  0  0
  184.4800  178.5850  141.4620 C   0  0  0  0  0  0  0  0  0  0  0  0
  191.9350  177.6240  141.5070 C   0  0  0  0  0  2  0  0  0  0  0  0
  189.3980  177.3310  140.0850 C   0  0  0  0  0  3  0  0  0  0  0  0
  192.1620  176.5180  138.0380 C   0  0  0  0  0  0  0  0  0  0  0  0
  192.7590  176.7200  139.2210 C   0  0  0  0  0  3  0  0  0  0  0  0
  191.7640  176.9940  140.2040 N   0  0  0  0  0  0  0  0  0  0  0  0
  190.7420  176.7000  138.1290 N   0  0  0  0  0  0  0  0  0  0  0  0
  190.5440  177.0030  139.4970 C   0  0  0  0  0  0  0  0  0  0  0  0
  189.7260  176.2870  137.1740 C   0  0  0  0  0  1  0  0  0  0  0  0
  189.4170  177.6850  141.5270 C   0  0  0  0  0  0  0  0  0  0  0  0
  190.5930  177.7880  142.1870 C   0  0  0  0  0  3  0  0  0  0  0  0
  192.8850  176.1950  136.7970 C   0  0  0  0  0  0  0  0  0  0  0  0
  194.2730  176.2160  136.7650 O   0  0  0  0  0  1  0  0  0  0  0  0
  192.2480  175.8930  135.7530 O   0  0  0  0  0  0  0  0  0  0  0  0
  180.8210  179.3250  139.3340 C   0  0  0  0  0  2  0  0  0  0  0  0
  180.0380  180.2220  140.0600 O   0  0  0  0  0  0  0  0  0  0  0  0
  180.0140  181.3760  139.2790 C   0  0  0  0  0  1  0  0  0  0  0  0
  1  5  2  0  0  0  0
  1  9  1  0  0  0  0
  2  3  1  0  0  0  0
  3 16  2  0  0  0  0
  3 10  1  0  0  0  0
  4  6  1  0  0  0  0
  5 11  1  0  0  0  0
  6  8  1  0  0  0  0
  8  7  2  0  0  0  0
  9  4  2  0  0  0  0
 10 12  2  0  0  0  0
 11  6  2  0  0  0  0
 11 10  1  0  0  0  0
 12  7  1  0  0  0  0
 13  2  1  0  0  0  0
 14 13  2  0  0  0  0
 15 17  2  0  0  0  0
 15 14  1  0  0  0  0
 17 18  1  0  0  0  0
 18  2  2  0  0  0  0
 18  5  1  0  0  0  0
 19 28  1  0  0  0  0
 20 27  1  0  0  0  0
 21 24  1  0  0  0  0
 21 22  2  0  0  0  0
 22 23  1  0  0  0  0
 23 19  1  0  0  0  0
 24 25  1  0  0  0  0
 25 20  2  0  0  0  0
 25 23  1  0  0  0  0
 26 24  1  0  0  0  0
 27 28  2  0  0  0  0
 27  9  1  0  0  0  0
 29 21  1  0  0  0  0
 30 29  1  0  0  0  0
 31 29  2  0  0  0  0
 32 33  1  0  0  0  0
 32 14  1  0  0  0  0
 34 33  1  0  0  0  0
M  END
>  <MODEL>
9

>  <REMARK>
 VINA RESULT:      -8.9      1.554      2.473
  Name = 
  4 active torsions:
  status: ('A' for Active; 'I' for Inactive)
    1  A    between atoms: C_3  and  O_13
    2  A    between atoms: C_3  and  C_25
    3  A    between atoms: C_7  and  C_11
    4  A    between atoms: C_18  and  C_30
                            x       y       z     vdW  Elec       q    Type
                         _______ _______ _______ _____ _____    ______ ____

>  <TORSDO>
F 4

$$$$
