=
 OpenBabel10272413103D

 32 37  0  0  1  0  0  0  0  0999 V2000
  185.9620  178.1510  139.5510 C   0  0  1  0  0  3  0  0  0  0  0  0
  187.1980  178.4110  141.8070 C   0  0  2  0  0  3  0  0  0  0  0  0
  186.1250  178.2240  138.0340 C   0  0  0  0  0  2  0  0  0  0  0  0
  187.3040  178.4270  140.2550 C   0  0  1  0  0  3  0  0  0  0  0  0
  188.0040  177.3780  142.4890 N   0  0  2  0  0  0  0  0  0  0  0  0
  184.3180  178.4770  145.8030 C   0  0  0  0  0  3  0  0  0  0  0  0
  185.7400  178.2990  142.2750 C   0  0  2  0  0  3  0  0  0  0  0  0
  186.6760  177.9440  145.9410 C   0  0  0  0  0  3  0  0  0  0  0  0
  186.7750  177.9970  144.5480 C   0  0  0  0  0  0  0  0  0  0  0  0
  188.3990  177.5620  139.6840 C   0  0  0  0  0  0  0  0  0  0  0  0
  188.1170  177.7990  143.8960 C   0  0  0  0  0  2  0  0  0  0  0  0
  189.3630  177.0730  140.4620 C   0  0  0  0  0  3  0  0  0  0  0  0
  188.4960  177.3920  138.1960 C   0  0  0  0  0  2  0  0  0  0  0  0
  184.8930  179.3560  141.5680 C   0  0  0  0  0  2  0  0  0  0  0  0
  184.8570  179.1070  140.0480 C   0  0  2  0  0  3  0  0  0  0  0  0
  185.6460  178.3380  143.7750 C   0  0  0  0  0  0  0  0  0  0  0  0
  189.3710  177.3440  141.9380 C   0  0  2  0  0  3  0  0  0  0  0  0
  187.1160  177.1540  137.5830 C   0  0  0  0  0  2  0  0  0  0  0  0
  185.4490  178.1800  146.5680 C   0  0  0  0  0  3  0  0  0  0  0  0
  184.4130  178.5460  144.4100 C   0  0  0  0  0  3  0  0  0  0  0  0
  181.3160  179.0440  138.6250 C   0  0  0  0  0  0  0  0  0  0  0  0
  180.3220  179.9410  137.9700 C   0  0  0  0  0  1  0  0  0  0  0  0
  183.4940  178.6330  139.6280 C   0  0  0  0  0  0  0  0  0  0  0  0
  180.9650  177.7120  138.8520 C   0  0  0  0  0  3  0  0  0  0  0  0
  183.1250  177.2970  139.8470 C   0  0  0  0  0  3  0  0  0  0  0  0
  182.5850  179.5150  139.0120 C   0  0  0  0  0  0  0  0  0  0  0  0
  183.0350  181.1980  138.7250 Cl  0  0  0  0  0  0  0  0  0  0  0  0
  181.8660  176.8340  139.4620 C   0  0  0  0  0  0  0  0  0  0  0  0
  180.3390  175.1020  140.0240 O   0  0  0  0  0  0  0  0  0  0  0  0
  181.5130  175.4340  139.7060 C   0  0  0  0  0  3  0  0  0  0  0  0
  190.2520  176.3000  142.6390 C   0  0  0  0  0  2  0  0  0  0  0  0
  191.5900  176.8760  143.0770 C   0  0  0  0  0  1  0  0  0  0  0  0
  1  3  1  6  0  0  0
  1 15  1  0  0  0  0
  1  4  1  0  0  0  0
  2  7  1  0  0  0  0
  2  5  1  0  0  0  0
  4  2  1  0  0  0  0
  5 11  1  0  0  0  0
  6 19  1  0  0  0  0
  7 16  1  0  0  0  0
  8 19  2  0  0  0  0
  9  8  1  0  0  0  0
 10  4  1  0  0  0  0
 10 12  2  0  0  0  0
 11  9  1  0  0  0  0
 12 17  1  0  0  0  0
 13 10  1  0  0  0  0
 14  7  1  0  0  0  0
 15 14  1  0  0  0  0
 16 20  1  0  0  0  0
 16  9  2  0  0  0  0
 17  5  1  0  0  0  0
 17 31  1  0  0  0  0
 18  3  1  0  0  0  0
 18 13  1  0  0  0  0
 20  6  2  0  0  0  0
 21 24  2  0  0  0  0
 21 26  1  0  0  0  0
 22 21  1  0  0  0  0
 23 25  1  0  0  0  0
 23 15  1  0  0  0  0
 24 28  1  0  0  0  0
 26 23  2  0  0  0  0
 27 26  1  0  0  0  0
 28 30  1  0  0  0  0
 28 25  2  0  0  0  0
 30 29  2  0  0  0  0
 31 32  1  0  0  0  0
M  END
>  <MODEL>
1

>  <REMARK>
 VINA RESULT:      -8.9      0.000      0.000
  Name = 
  3 active torsions:
  status: ('A' for Active; 'I' for Inactive)
    1  A    between atoms: C_13  and  C_29
    2  A    between atoms: C_15  and  C_26
    3  A    between atoms: C_16  and  C_27
                            x       y       z     vdW  Elec       q    Type
                         _______ _______ _______ _____ _____    ______ ____

>  <TORSDO>
F 3

$$$$
=
 OpenBabel10272413103D

 32 37  0  0  1  0  0  0  0  0999 V2000
  190.0780  177.0960  141.6970 C   0  0  1  0  0  3  0  0  0  0  0  0
  187.8960  178.3900  142.2000 C   0  0  2  0  0  3  0  0  0  0  0  0
  191.4680  176.7580  142.2320 C   0  0  0  0  0  2  0  0  0  0  0  0
  189.3080  177.9710  142.7040 C   0  0  1  0  0  3  0  0  0  0  0  0
  186.7620  177.9100  143.0160 N   0  0  2  0  0  0  0  0  0  0  0  0
  184.7380  178.7560  138.4370 C   0  0  0  0  0  3  0  0  0  0  0  0
  187.6710  177.9780  140.7370 C   0  0  2  0  0  3  0  0  0  0  0  0
  184.0240  179.0450  140.7320 C   0  0  0  0  0  3  0  0  0  0  0  0
  185.3040  178.7070  141.1790 C   0  0  0  0  0  0  0  0  0  0  0  0
  189.3340  177.3570  144.0800 C   0  0  0  0  0  0  0  0  0  0  0  0
  185.6050  178.7470  142.6530 C   0  0  0  0  0  2  0  0  0  0  0  0
  188.2830  177.4480  144.8920 C   0  0  0  0  0  3  0  0  0  0  0  0
  190.6220  176.7880  144.6020 C   0  0  0  0  0  2  0  0  0  0  0  0
  188.8430  178.4580  139.8840 C   0  0  0  0  0  2  0  0  0  0  0  0
  190.1530  177.7660  140.3090 C   0  0  2  0  0  3  0  0  0  0  0  0
  186.3250  178.4330  140.2470 C   0  0  0  0  0  0  0  0  0  0  0  0
  187.0250  178.1370  144.4480 C   0  0  2  0  0  3  0  0  0  0  0  0
  191.3280  175.9620  143.5270 C   0  0  0  0  0  2  0  0  0  0  0  0
  183.7400  179.0670  139.3640 C   0  0  0  0  0  3  0  0  0  0  0  0
  186.0250  178.4300  138.8760 C   0  0  0  0  0  3  0  0  0  0  0  0
  192.3490  175.7050  137.9630 C   0  0  0  0  0  0  0  0  0  0  0  0
  193.7820  175.5000  137.6100 C   0  0  0  0  0  1  0  0  0  0  0  0
  190.5950  176.7910  139.2540 C   0  0  0  0  0  0  0  0  0  0  0  0
  191.3820  174.9580  137.2870 C   0  0  0  0  0  3  0  0  0  0  0  0
  189.6380  176.0300  138.5650 C   0  0  0  0  0  3  0  0  0  0  0  0
  191.9610  176.6280  138.9520 C   0  0  0  0  0  0  0  0  0  0  0  0
  193.1800  177.5740  139.8130 Cl  0  0  0  0  0  0  0  0  0  0  0  0
  190.0250  175.1170  137.5840 C   0  0  0  0  0  0  0  0  0  0  0  0
  188.9330  173.0880  137.0050 O   0  0  0  0  0  0  0  0  0  0  0  0
  188.9990  174.3410  136.8850 C   0  0  0  0  0  3  0  0  0  0  0  0
  185.8580  177.6780  145.3320 C   0  0  0  0  0  2  0  0  0  0  0  0
  185.5710  178.6550  146.4630 C   0  0  0  0  0  1  0  0  0  0  0  0
  1  3  1  1  0  0  0
  1  4  1  0  0  0  0
  2  4  1  0  0  0  0
  2  5  1  0  0  0  0
  3 18  1  0  0  0  0
  4 10  1  0  0  0  0
  5 17  1  0  0  0  0
  6 20  2  0  0  0  0
  6 19  1  0  0  0  0
  7  2  1  0  0  0  0
  8  9  1  0  0  0  0
  9 11  1  0  0  0  0
 10 13  1  0  0  0  0
 10 12  2  0  0  0  0
 11  5  1  0  0  0  0
 14 15  1  0  0  0  0
 14  7  1  0  0  0  0
 15  1  1  0  0  0  0
 16  7  1  0  0  0  0
 16  9  2  0  0  0  0
 17 12  1  0  0  0  0
 17 31  1  0  0  0  0
 18 13  1  0  0  0  0
 19  8  2  0  0  0  0
 20 16  1  0  0  0  0
 21 26  1  0  0  0  0
 22 21  1  0  0  0  0
 23 15  1  0  0  0  0
 24 28  1  0  0  0  0
 24 21  2  0  0  0  0
 25 23  1  0  0  0  0
 26 23  2  0  0  0  0
 26 27  1  0  0  0  0
 28 25  2  0  0  0  0
 30 29  2  0  0  0  0
 30 28  1  0  0  0  0
 31 32  1  0  0  0  0
M  END
>  <MODEL>
2

>  <REMARK>
 VINA RESULT:      -8.5      3.182      7.023
  Name = 
  3 active torsions:
  status: ('A' for Active; 'I' for Inactive)
    1  A    between atoms: C_13  and  C_29
    2  A    between atoms: C_15  and  C_26
    3  A    between atoms: C_16  and  C_27
                            x       y       z     vdW  Elec       q    Type
                         _______ _______ _______ _____ _____    ______ ____

>  <TORSDO>
F 3

$$$$
=
 OpenBabel10272413103D

 32 37  0  0  1  0  0  0  0  0999 V2000
  189.5010  177.5220  142.0150 C   0  0  1  0  0  3  0  0  0  0  0  0
  187.9160  178.4020  143.8590 C   0  0  2  0  0  3  0  0  0  0  0  0
  190.9670  177.3340  141.6280 C   0  0  0  0  0  2  0  0  0  0  0  0
  189.3870  178.1430  143.4200 C   0  0  1  0  0  3  0  0  0  0  0  0
  187.4700  177.6630  145.0570 N   0  0  2  0  0  0  0  0  0  0  0  0
  183.1700  178.7460  142.5830 C   0  0  0  0  0  3  0  0  0  0  0  0
  186.9280  178.1420  142.7120 C   0  0  2  0  0  3  0  0  0  0  0  0
  183.8620  178.6430  144.9020 C   0  0  0  0  0  3  0  0  0  0  0  0
  185.1880  178.4490  144.5030 C   0  0  0  0  0  0  0  0  0  0  0  0
  190.2200  177.3770  144.4150 C   0  0  0  0  0  0  0  0  0  0  0  0
  186.2660  178.3540  145.5490 C   0  0  0  0  0  2  0  0  0  0  0  0
  189.8080  177.2090  145.6700 C   0  0  0  0  0  3  0  0  0  0  0  0
  191.6070  176.9480  144.0320 C   0  0  0  0  0  2  0  0  0  0  0  0
  187.3850  178.8930  141.4630 C   0  0  0  0  0  2  0  0  0  0  0  0
  188.7420  178.3590  140.9650 C   0  0  2  0  0  3  0  0  0  0  0  0
  185.5170  178.4470  143.1320 C   0  0  0  0  0  0  0  0  0  0  0  0
  188.4840  177.7510  146.1240 C   0  0  2  0  0  3  0  0  0  0  0  0
  191.6280  176.3750  142.6150 C   0  0  0  0  0  2  0  0  0  0  0  0
  182.8550  178.7880  143.9440 C   0  0  0  0  0  3  0  0  0  0  0  0
  184.4960  178.5650  142.1780 C   0  0  0  0  0  3  0  0  0  0  0  0
  187.2420  177.0040  137.7260 C   0  0  0  0  0  0  0  0  0  0  0  0
  186.0100  177.1090  136.8960 C   0  0  0  0  0  1  0  0  0  0  0  0
  188.5640  177.5970  139.6810 C   0  0  0  0  0  0  0  0  0  0  0  0
  188.2720  176.1670  137.2910 C   0  0  0  0  0  3  0  0  0  0  0  0
  189.5890  176.7530  139.2270 C   0  0  0  0  0  3  0  0  0  0  0  0
  187.3820  177.7260  138.9270 C   0  0  0  0  0  0  0  0  0  0  0  0
  186.0840  178.7880  139.4820 Cl  0  0  0  0  0  0  0  0  0  0  0  0
  189.4470  176.0380  138.0370 C   0  0  0  0  0  0  0  0  0  0  0  0
  190.4620  173.9130  137.7210 O   0  0  0  0  0  0  0  0  0  0  0  0
  190.5350  175.1650  137.5930 C   0  0  0  0  0  3  0  0  0  0  0  0
  188.0470  177.0170  147.4000 C   0  0  0  0  0  2  0  0  0  0  0  0
  188.2280  177.8710  148.6460 C   0  0  0  0  0  1  0  0  0  0  0  0
  1  3  1  6  0  0  0
  1  4  1  0  0  0  0
  2  5  1  0  0  0  0
  3 18  1  0  0  0  0
  4  2  1  0  0  0  0
  4 10  1  0  0  0  0
  5 11  1  0  0  0  0
  5 17  1  0  0  0  0
  6 19  1  0  0  0  0
  7 16  1  0  0  0  0
  7  2  1  0  0  0  0
  9  8  1  0  0  0  0
  9 11  1  0  0  0  0
 10 12  2  0  0  0  0
 12 17  1  0  0  0  0
 13 10  1  0  0  0  0
 14  7  1  0  0  0  0
 15 14  1  0  0  0  0
 15  1  1  0  0  0  0
 16  9  2  0  0  0  0
 17 31  1  0  0  0  0
 18 13  1  0  0  0  0
 19  8  2  0  0  0  0
 20  6  2  0  0  0  0
 20 16  1  0  0  0  0
 21 26  1  0  0  0  0
 22 21  1  0  0  0  0
 23 15  1  0  0  0  0
 24 21  2  0  0  0  0
 24 28  1  0  0  0  0
 25 23  1  0  0  0  0
 26 27  1  0  0  0  0
 26 23  2  0  0  0  0
 28 25  2  0  0  0  0
 30 29  2  0  0  0  0
 30 28  1  0  0  0  0
 31 32  1  0  0  0  0
M  END
>  <MODEL>
3

>  <REMARK>
 VINA RESULT:      -8.4      3.036      5.292
  Name = 
  3 active torsions:
  status: ('A' for Active; 'I' for Inactive)
    1  A    between atoms: C_13  and  C_29
    2  A    between atoms: C_15  and  C_26
    3  A    between atoms: C_16  and  C_27
                            x       y       z     vdW  Elec       q    Type
                         _______ _______ _______ _____ _____    ______ ____

>  <TORSDO>
F 3

$$$$
=
 OpenBabel10272413103D

 32 37  0  0  1  0  0  0  0  0999 V2000
  185.1510  178.4160  140.2100 C   0  0  1  0  0  3  0  0  0  0  0  0
  187.2720  178.4890  141.6870 C   0  0  2  0  0  3  0  0  0  0  0  0
  184.6000  178.7230  138.8180 C   0  0  0  0  0  2  0  0  0  0  0  0
  186.6560  178.7380  140.2790 C   0  0  1  0  0  3  0  0  0  0  0  0
  188.3360  177.4650  141.7430 N   0  0  2  0  0  0  0  0  0  0  0  0
  186.5370  177.6630  146.4870 C   0  0  0  0  0  3  0  0  0  0  0  0
  186.1940  178.1490  142.7260 C   0  0  2  0  0  3  0  0  0  0  0  0
  188.7140  177.3820  145.4650 C   0  0  0  0  0  3  0  0  0  0  0  0
  188.1630  177.6440  144.2070 C   0  0  0  0  0  0  0  0  0  0  0  0
  187.3970  178.0890  139.1380 C   0  0  0  0  0  0  0  0  0  0  0  0
  189.0650  177.6910  143.0030 C   0  0  0  0  0  2  0  0  0  0  0  0
  188.6270  177.6060  139.3050 C   0  0  0  0  0  3  0  0  0  0  0  0
  186.8090  178.1460  137.7580 C   0  0  0  0  0  2  0  0  0  0  0  0
  185.0820  179.1950  142.6700 C   0  0  0  0  0  2  0  0  0  0  0  0
  184.3640  179.1630  141.3070 C   0  0  2  0  0  3  0  0  0  0  0  0
  186.7950  177.9630  144.0910 C   0  0  0  0  0  0  0  0  0  0  0  0
  189.3000  177.6620  140.6460 C   0  0  2  0  0  3  0  0  0  0  0  0
  185.3110  177.8440  137.7920 C   0  0  0  0  0  2  0  0  0  0  0  0
  187.9020  177.3880  146.6030 C   0  0  0  0  0  3  0  0  0  0  0  0
  185.9830  177.9400  145.2340 C   0  0  0  0  0  3  0  0  0  0  0  0
  180.9570  178.2590  142.7730 C   0  0  0  0  0  0  0  0  0  0  0  0
  180.1580  178.4290  144.0200 C   0  0  0  0  0  1  0  0  0  0  0  0
  182.9760  178.6050  141.4600 C   0  0  0  0  0  0  0  0  0  0  0  0
  180.3900  177.5560  141.7080 C   0  0  0  0  0  3  0  0  0  0  0  0
  182.3900  177.8970  140.4000 C   0  0  0  0  0  3  0  0  0  0  0  0
  182.2560  178.7880  142.6570 C   0  0  0  0  0  0  0  0  0  0  0  0
  182.9770  179.6800  144.0000 Cl  0  0  0  0  0  0  0  0  0  0  0  0
  181.1030  177.3730  140.5190 C   0  0  0  0  0  0  0  0  0  0  0  0
  180.4860  175.3800  139.3820 O   0  0  0  0  0  0  0  0  0  0  0  0
  180.5220  176.6390  139.3920 C   0  0  0  0  0  3  0  0  0  0  0  0
  190.4390  176.6340  140.6840 C   0  0  0  0  0  2  0  0  0  0  0  0
  191.8040  177.2780  140.4900 C   0  0  0  0  0  1  0  0  0  0  0  0
  1  3  1  6  0  0  0
  1  4  1  0  0  0  0
  1 15  1  0  0  0  0
  2  5  1  0  0  0  0
  2  7  1  0  0  0  0
  4  2  1  0  0  0  0
  5 11  1  0  0  0  0
  6 19  1  0  0  0  0
  7 16  1  0  0  0  0
  8 19  2  0  0  0  0
  9  8  1  0  0  0  0
 10 12  2  0  0  0  0
 10  4  1  0  0  0  0
 11  9  1  0  0  0  0
 12 17  1  0  0  0  0
 13 18  1  0  0  0  0
 13 10  1  0  0  0  0
 14  7  1  0  0  0  0
 15 23  1  0  0  0  0
 15 14  1  0  0  0  0
 16  9  2  0  0  0  0
 16 20  1  0  0  0  0
 17 31  1  0  0  0  0
 17  5  1  0  0  0  0
 18  3  1  0  0  0  0
 20  6  2  0  0  0  0
 21 22  1  0  0  0  0
 23 26  2  0  0  0  0
 24 21  2  0  0  0  0
 25 28  2  0  0  0  0
 25 23  1  0  0  0  0
 26 21  1  0  0  0  0
 26 27  1  0  0  0  0
 28 24  1  0  0  0  0
 29 30  2  0  0  0  0
 30 28  1  0  0  0  0
 32 31  1  0  0  0  0
M  END
>  <MODEL>
4

>  <REMARK>
 VINA RESULT:      -8.2      1.866      2.362
  Name = 
  3 active torsions:
  status: ('A' for Active; 'I' for Inactive)
    1  A    between atoms: C_13  and  C_29
    2  A    between atoms: C_15  and  C_26
    3  A    between atoms: C_16  and  C_27
                            x       y       z     vdW  Elec       q    Type
                         _______ _______ _______ _____ _____    ______ ____

>  <TORSDO>
F 3

$$$$
=
 OpenBabel10272413103D

 32 37  0  0  1  0  0  0  0  0999 V2000
  187.4620  177.8730  140.0410 C   0  0  1  0  0  3  0  0  0  0  0  0
  186.4100  178.6870  142.2590 C   0  0  2  0  0  3  0  0  0  0  0  0
  188.7730  177.7400  139.2680 C   0  0  0  0  0  2  0  0  0  0  0  0
  187.7140  178.4820  141.4340 C   0  0  1  0  0  3  0  0  0  0  0  0
  186.3320  177.9250  143.5220 N   0  0  2  0  0  0  0  0  0  0  0  0
  181.4880  178.8680  142.3260 C   0  0  0  0  0  3  0  0  0  0  0  0
  185.1560  178.3980  141.4210 C   0  0  2  0  0  3  0  0  0  0  0  0
  182.7870  178.7770  144.3670 C   0  0  0  0  0  3  0  0  0  0  0  0
  183.9600  178.6320  143.6210 C   0  0  0  0  0  0  0  0  0  0  0  0
  188.8110  177.7410  142.1540 C   0  0  0  0  0  0  0  0  0  0  0  0
  185.2850  178.5710  144.3330 C   0  0  0  0  0  2  0  0  0  0  0  0
  188.7620  177.5520  143.4710 C   0  0  0  0  0  3  0  0  0  0  0  0
  190.0550  177.3650  141.4020 C   0  0  0  0  0  2  0  0  0  0  0  0
  185.2320  179.1720  140.1060 C   0  0  0  0  0  2  0  0  0  0  0  0
  186.4190  178.6890  139.2490 C   0  0  2  0  0  3  0  0  0  0  0  0
  183.9040  178.6500  142.2130 C   0  0  0  0  0  0  0  0  0  0  0  0
  187.5930  178.0440  144.2750 C   0  0  2  0  0  3  0  0  0  0  0  0
  189.7080  176.8000  140.0240 C   0  0  0  0  0  2  0  0  0  0  0  0
  181.5530  178.8910  143.7220 C   0  0  0  0  0  3  0  0  0  0  0  0
  182.6590  178.7370  141.5730 C   0  0  0  0  0  3  0  0  0  0  0  0
  186.0690  177.3480  135.6930 C   0  0  0  0  0  0  0  0  0  0  0  0
  186.7000  177.4710  134.3480 C   0  0  0  0  0  1  0  0  0  0  0  0
  185.9240  177.9280  138.0510 C   0  0  0  0  0  0  0  0  0  0  0  0
  184.9790  176.4880  135.8420 C   0  0  0  0  0  3  0  0  0  0  0  0
  184.8310  177.0580  138.1830 C   0  0  0  0  0  3  0  0  0  0  0  0
  186.5500  178.0750  136.7980 C   0  0  0  0  0  0  0  0  0  0  0  0
  187.9300  179.1620  136.6150 Cl  0  0  0  0  0  0  0  0  0  0  0  0
  184.3560  176.3400  137.0850 C   0  0  0  0  0  0  0  0  0  0  0  0
  182.8870  175.0110  138.3970 O   0  0  0  0  0  0  0  0  0  0  0  0
  183.2130  175.4410  137.2580 C   0  0  0  0  0  3  0  0  0  0  0  0
  187.5440  177.2880  145.6110 C   0  0  0  0  0  2  0  0  0  0  0  0
  188.8880  177.2890  146.3230 C   0  0  0  0  0  1  0  0  0  0  0  0
  1  3  1  6  0  0  0
  1  4  1  0  0  0  0
  2  5  1  0  0  0  0
  3 18  1  0  0  0  0
  4 10  1  0  0  0  0
  4  2  1  0  0  0  0
  5 17  1  0  0  0  0
  5 11  1  0  0  0  0
  6 19  1  0  0  0  0
  7 16  1  0  0  0  0
  7  2  1  0  0  0  0
  9 11  1  0  0  0  0
  9  8  1  0  0  0  0
 10 12  2  0  0  0  0
 12 17  1  0  0  0  0
 13 10  1  0  0  0  0
 14  7  1  0  0  0  0
 15  1  1  0  0  0  0
 15 14  1  0  0  0  0
 16  9  2  0  0  0  0
 17 31  1  0  0  0  0
 18 13  1  0  0  0  0
 19  8  2  0  0  0  0
 20 16  1  0  0  0  0
 20  6  2  0  0  0  0
 21 24  2  0  0  0  0
 21 26  1  0  0  0  0
 22 21  1  0  0  0  0
 23 25  1  0  0  0  0
 23 15  1  0  0  0  0
 24 28  1  0  0  0  0
 26 23  2  0  0  0  0
 27 26  1  0  0  0  0
 28 30  1  0  0  0  0
 28 25  2  0  0  0  0
 30 29  2  0  0  0  0
 31 32  1  0  0  0  0
M  END
>  <MODEL>
5

>  <REMARK>
 VINA RESULT:      -8.2      2.158      3.657
  Name = 
  3 active torsions:
  status: ('A' for Active; 'I' for Inactive)
    1  A    between atoms: C_13  and  C_29
    2  A    between atoms: C_15  and  C_26
    3  A    between atoms: C_16  and  C_27
                            x       y       z     vdW  Elec       q    Type
                         _______ _______ _______ _____ _____    ______ ____

>  <TORSDO>
F 3

$$$$
=
 OpenBabel10272413103D

 32 37  0  0  1  0  0  0  0  0999 V2000
  190.0780  177.4110  142.3720 C   0  0  1  0  0  3  0  0  0  0  0  0
  188.0960  178.3790  143.7210 C   0  0  2  0  0  3  0  0  0  0  0  0
  191.5910  177.2000  142.3730 C   0  0  0  0  0  2  0  0  0  0  0  0
  189.6250  178.0940  143.6760 C   0  0  1  0  0  3  0  0  0  0  0  0
  187.3530  177.6950  144.7990 N   0  0  2  0  0  0  0  0  0  0  0  0
  183.8260  178.6850  141.2820 C   0  0  0  0  0  3  0  0  0  0  0  0
  187.4220  178.0720  142.3750 C   0  0  2  0  0  3  0  0  0  0  0  0
  183.9140  178.6830  143.7020 C   0  0  0  0  0  3  0  0  0  0  0  0
  185.2940  178.4650  143.6570 C   0  0  0  0  0  0  0  0  0  0  0  0
  190.1710  177.3700  144.8800 C   0  0  0  0  0  0  0  0  0  0  0  0
  186.0740  178.4130  144.9430 C   0  0  0  0  0  2  0  0  0  0  0  0
  189.4550  177.2600  145.9970 C   0  0  0  0  0  3  0  0  0  0  0  0
  191.6030  176.9190  144.8750 C   0  0  0  0  0  2  0  0  0  0  0  0
  188.1880  178.7650  141.2500 C   0  0  0  0  0  2  0  0  0  0  0  0
  189.6190  178.2040  141.1310 C   0  0  2  0  0  3  0  0  0  0  0  0
  185.9560  178.4010  142.4140 C   0  0  0  0  0  0  0  0  0  0  0  0
  188.0670  177.8260  146.0810 C   0  0  2  0  0  3  0  0  0  0  0  0
  191.9690  176.2830  143.5340 C   0  0  0  0  0  2  0  0  0  0  0  0
  183.1800  178.7890  142.5170 C   0  0  0  0  0  3  0  0  0  0  0  0
  185.2080  178.4810  141.2300 C   0  0  0  0  0  3  0  0  0  0  0  0
  191.1300  176.3110  138.1800 C   0  0  0  0  0  0  0  0  0  0  0  0
  192.4550  175.9660  137.5900 C   0  0  0  0  0  1  0  0  0  0  0  0
  189.7570  177.3860  139.8770 C   0  0  0  0  0  0  0  0  0  0  0  0
  189.9760  175.8530  137.5430 C   0  0  0  0  0  3  0  0  0  0  0  0
  188.6080  176.9160  139.2240 C   0  0  0  0  0  3  0  0  0  0  0  0
  191.0290  177.0830  139.3530 C   0  0  0  0  0  0  0  0  0  0  0  0
  192.4860  177.6630  140.1650 Cl  0  0  0  0  0  0  0  0  0  0  0  0
  188.7120  176.1530  138.0600 C   0  0  0  0  0  0  0  0  0  0  0  0
  186.4620  176.4020  137.3400 O   0  0  0  0  0  0  0  0  0  0  0  0
  187.4920  175.6790  137.4040 C   0  0  0  0  0  3  0  0  0  0  0  0
  187.3140  177.1520  147.2360 C   0  0  0  0  0  2  0  0  0  0  0  0
  187.8570  177.5630  148.5960 C   0  0  0  0  0  1  0  0  0  0  0  0
  1  3  1  1  0  0  0
  1  4  1  0  0  0  0
  2  5  1  0  0  0  0
  3 18  1  0  0  0  0
  4  2  1  0  0  0  0
  4 10  1  0  0  0  0
  5 11  1  0  0  0  0
  5 17  1  0  0  0  0
  6 19  1  0  0  0  0
  7 16  1  0  0  0  0
  7  2  1  0  0  0  0
  9  8  1  0  0  0  0
  9 11  1  0  0  0  0
 10 12  2  0  0  0  0
 12 17  1  0  0  0  0
 13 10  1  0  0  0  0
 14  7  1  0  0  0  0
 15 14  1  0  0  0  0
 15  1  1  0  0  0  0
 16  9  2  0  0  0  0
 17 31  1  0  0  0  0
 18 13  1  0  0  0  0
 19  8  2  0  0  0  0
 20  6  2  0  0  0  0
 20 16  1  0  0  0  0
 21 26  1  0  0  0  0
 22 21  1  0  0  0  0
 23 15  1  0  0  0  0
 24 28  1  0  0  0  0
 24 21  2  0  0  0  0
 25 23  1  0  0  0  0
 26 23  2  0  0  0  0
 26 27  1  0  0  0  0
 28 25  2  0  0  0  0
 29 30  2  0  0  0  0
 30 28  1  0  0  0  0
 31 32  1  0  0  0  0
M  END
>  <MODEL>
6

>  <REMARK>
 VINA RESULT:      -8.0      3.005      6.203
  Name = 
  3 active torsions:
  status: ('A' for Active; 'I' for Inactive)
    1  A    between atoms: C_13  and  C_29
    2  A    between atoms: C_15  and  C_26
    3  A    between atoms: C_16  and  C_27
                            x       y       z     vdW  Elec       q    Type
                         _______ _______ _______ _____ _____    ______ ____

>  <TORSDO>
F 3

$$$$
=
 OpenBabel10272413103D

 32 37  0  0  1  0  0  0  0  0999 V2000
  181.7090  178.9890  140.9370 C   0  0  1  0  0  3  0  0  0  0  0  0
  183.9850  178.1310  141.8180 C   0  0  2  0  0  3  0  0  0  0  0  0
  180.2110  179.0490  141.2300 C   0  0  0  0  0  2  0  0  0  0  0  0
  182.4560  178.2660  142.0750 C   0  0  1  0  0  3  0  0  0  0  0  0
  184.8570  178.8100  142.7980 N   0  0  2  0  0  0  0  0  0  0  0  0
  187.7310  178.4160  138.6310 C   0  0  0  0  0  3  0  0  0  0  0  0
  184.3650  178.5940  140.4040 C   0  0  2  0  0  3  0  0  0  0  0  0
  188.0990  178.2450  141.0180 C   0  0  0  0  0  3  0  0  0  0  0  0
  186.7220  178.3270  141.2420 C   0  0  0  0  0  0  0  0  0  0  0  0
  182.0870  178.8490  143.4150 C   0  0  0  0  0  0  0  0  0  0  0  0
  186.1950  178.2140  142.6480 C   0  0  0  0  0  2  0  0  0  0  0  0
  182.9870  178.9530  144.3900 C   0  0  0  0  0  3  0  0  0  0  0  0
  180.6460  179.1560  143.7070 C   0  0  0  0  0  2  0  0  0  0  0  0
  183.4620  177.9080  139.3810 C   0  0  0  0  0  2  0  0  0  0  0  0
  181.9930  178.3320  139.5710 C   0  0  2  0  0  3  0  0  0  0  0  0
  185.8350  178.4100  140.1500 C   0  0  0  0  0  0  0  0  0  0  0  0
  184.4090  178.5220  144.1730 C   0  0  2  0  0  3  0  0  0  0  0  0
  179.9820  179.8420  142.5140 C   0  0  0  0  0  2  0  0  0  0  0  0
  188.6030  178.2920  139.7150 C   0  0  0  0  0  3  0  0  0  0  0  0
  186.3510  178.4850  138.8470 C   0  0  0  0  0  3  0  0  0  0  0  0
  180.7160  179.5090  136.1710 C   0  0  0  0  0  0  0  0  0  0  0  0
  180.2570  178.9650  134.8620 C   0  0  0  0  0  1  0  0  0  0  0  0
  181.5530  179.2150  138.4370 C   0  0  0  0  0  0  0  0  0  0  0  0
  180.7340  180.8940  136.3490 C   0  0  0  0  0  3  0  0  0  0  0  0
  181.5620  180.6090  138.5980 C   0  0  0  0  0  3  0  0  0  0  0  0
  181.1270  178.6590  137.2150 C   0  0  0  0  0  0  0  0  0  0  0  0
  181.1040  176.9060  136.9970 Cl  0  0  0  0  0  0  0  0  0  0  0  0
  181.1560  181.4490  137.5610 C   0  0  0  0  0  0  0  0  0  0  0  0
  181.1000  183.6960  136.7900 O   0  0  0  0  0  0  0  0  0  0  0  0
  181.1790  182.8990  137.7630 C   0  0  0  0  0  3  0  0  0  0  0  0
  185.3060  179.1860  145.2260 C   0  0  0  0  0  2  0  0  0  0  0  0
  185.2330  178.4830  146.5730 C   0  0  0  0  0  1  0  0  0  0  0  0
  1  3  1  1  0  0  0
  1  4  1  0  0  0  0
  2  4  1  0  0  0  0
  2  5  1  0  0  0  0
  3 18  1  0  0  0  0
  4 10  1  0  0  0  0
  5 17  1  0  0  0  0
  6 20  2  0  0  0  0
  6 19  1  0  0  0  0
  7  2  1  0  0  0  0
  8  9  1  0  0  0  0
  9 11  1  0  0  0  0
 10 13  1  0  0  0  0
 10 12  2  0  0  0  0
 11  5  1  0  0  0  0
 14 15  1  0  0  0  0
 14  7  1  0  0  0  0
 15  1  1  0  0  0  0
 16  7  1  0  0  0  0
 16  9  2  0  0  0  0
 17 12  1  0  0  0  0
 17 31  1  0  0  0  0
 18 13  1  0  0  0  0
 19  8  2  0  0  0  0
 20 16  1  0  0  0  0
 21 24  2  0  0  0  0
 21 26  1  0  0  0  0
 22 21  1  0  0  0  0
 23 25  1  0  0  0  0
 23 15  1  0  0  0  0
 24 28  1  0  0  0  0
 26 23  2  0  0  0  0
 27 26  1  0  0  0  0
 28 30  1  0  0  0  0
 28 25  2  0  0  0  0
 29 30  2  0  0  0  0
 31 32  1  0  0  0  0
M  END
>  <MODEL>
7

>  <REMARK>
 VINA RESULT:      -7.8      2.687      5.656
  Name = 
  3 active torsions:
  status: ('A' for Active; 'I' for Inactive)
    1  A    between atoms: C_13  and  C_29
    2  A    between atoms: C_15  and  C_26
    3  A    between atoms: C_16  and  C_27
                            x       y       z     vdW  Elec       q    Type
                         _______ _______ _______ _____ _____    ______ ____

>  <TORSDO>
F 3

$$$$
=
 OpenBabel10272413103D

 32 37  0  0  1  0  0  0  0  0999 V2000
  188.8470  177.6180  139.8620 C   0  0  1  0  0  3  0  0  0  0  0  0
  188.8380  178.1900  142.3840 C   0  0  2  0  0  3  0  0  0  0  0  0
  189.7080  177.5940  138.6010 C   0  0  0  0  0  2  0  0  0  0  0  0
  189.6700  178.1000  141.0710 C   0  0  1  0  0  3  0  0  0  0  0  0
  189.2880  177.3110  143.4830 N   0  0  2  0  0  0  0  0  0  0  0  0
  184.4040  178.2240  144.5310 C   0  0  0  0  0  3  0  0  0  0  0  0
  187.3440  177.9450  142.1260 C   0  0  2  0  0  3  0  0  0  0  0  0
  186.4410  177.9790  145.8170 C   0  0  0  0  0  3  0  0  0  0  0  0
  187.1880  177.9380  144.6370 C   0  0  0  0  0  0  0  0  0  0  0  0
  190.9580  177.3260  141.1880 C   0  0  0  0  0  0  0  0  0  0  0  0
  188.6890  177.8480  144.7170 C   0  0  0  0  0  2  0  0  0  0  0  0
  191.4650  177.0130  142.3790 C   0  0  0  0  0  3  0  0  0  0  0  0
  191.7640  177.0570  139.9500 C   0  0  0  0  0  2  0  0  0  0  0  0
  186.8690  178.8400  140.9830 C   0  0  0  0  0  2  0  0  0  0  0  0
  187.5790  178.4740  139.6650 C   0  0  2  0  0  3  0  0  0  0  0  0
  186.5450  178.0860  143.3920 C   0  0  0  0  0  0  0  0  0  0  0  0
  190.7510  177.3940  143.6430 C   0  0  2  0  0  3  0  0  0  0  0  0
  190.8620  176.6140  138.7980 C   0  0  0  0  0  2  0  0  0  0  0  0
  185.0510  178.1180  145.7650 C   0  0  0  0  0  3  0  0  0  0  0  0
  185.1470  178.1970  143.3470 C   0  0  0  0  0  3  0  0  0  0  0  0
  184.3920  177.6060  137.7510 C   0  0  0  0  0  0  0  0  0  0  0  0
  182.9640  178.0190  137.6450 C   0  0  0  0  0  1  0  0  0  0  0  0
  186.6150  177.8150  138.7180 C   0  0  0  0  0  0  0  0  0  0  0  0
  184.8490  176.5680  136.9370 C   0  0  0  0  0  3  0  0  0  0  0  0
  187.0570  176.7720  137.8900 C   0  0  0  0  0  3  0  0  0  0  0  0
  185.2730  178.2370  138.6500 C   0  0  0  0  0  0  0  0  0  0  0  0
  184.7000  179.5520  139.6810 Cl  0  0  0  0  0  0  0  0  0  0  0  0
  186.1810  176.1470  137.0020 C   0  0  0  0  0  0  0  0  0  0  0  0
  187.2780  174.0700  136.6460 O   0  0  0  0  0  0  0  0  0  0  0  0
  186.6760  175.0610  136.1540 C   0  0  0  0  0  3  0  0  0  0  0  0
  191.2580  176.5160  144.7950 C   0  0  0  0  0  2  0  0  0  0  0  0
  191.9530  175.2570  144.2980 C   0  0  0  0  0  1  0  0  0  0  0  0
  1  3  1  6  0  0  0
  1  4  1  0  0  0  0
  2  5  1  0  0  0  0
  3 18  1  0  0  0  0
  4 10  1  0  0  0  0
  4  2  1  0  0  0  0
  5 17  1  0  0  0  0
  5 11  1  0  0  0  0
  6 19  1  0  0  0  0
  7  2  1  0  0  0  0
  7 16  1  0  0  0  0
  9 11  1  0  0  0  0
  9  8  1  0  0  0  0
 10 12  2  0  0  0  0
 12 17  1  0  0  0  0
 13 10  1  0  0  0  0
 14  7  1  0  0  0  0
 15  1  1  0  0  0  0
 15 14  1  0  0  0  0
 16  9  2  0  0  0  0
 17 31  1  0  0  0  0
 18 13  1  0  0  0  0
 19  8  2  0  0  0  0
 20 16  1  0  0  0  0
 20  6  2  0  0  0  0
 21 26  1  0  0  0  0
 22 21  1  0  0  0  0
 23 15  1  0  0  0  0
 24 28  1  0  0  0  0
 24 21  2  0  0  0  0
 25 23  1  0  0  0  0
 26 23  2  0  0  0  0
 26 27  1  0  0  0  0
 28 25  2  0  0  0  0
 30 29  2  0  0  0  0
 30 28  1  0  0  0  0
 32 31  1  0  0  0  0
M  END
>  <MODEL>
8

>  <REMARK>
 VINA RESULT:      -7.4      2.132      3.221
  Name = 
  3 active torsions:
  status: ('A' for Active; 'I' for Inactive)
    1  A    between atoms: C_13  and  C_29
    2  A    between atoms: C_15  and  C_26
    3  A    between atoms: C_16  and  C_27
                            x       y       z     vdW  Elec       q    Type
                         _______ _______ _______ _____ _____    ______ ____

>  <TORSDO>
F 3

$$$$
=
 OpenBabel10272413103D

 32 37  0  0  1  0  0  0  0  0999 V2000
  190.0070  177.0960  142.8110 C   0  0  1  0  0  3  0  0  0  0  0  0
  188.0510  177.3420  141.1370 C   0  0  2  0  0  3  0  0  0  0  0  0
  191.4490  176.6180  142.9680 C   0  0  0  0  0  2  0  0  0  0  0  0
  189.5320  176.9150  141.3570 C   0  0  1  0  0  3  0  0  0  0  0  0
  187.8450  178.4560  140.1880 N   0  0  2  0  0  0  0  0  0  0  0  0
  183.7020  178.5290  143.1230 C   0  0  0  0  0  3  0  0  0  0  0  0
  187.3550  177.6780  142.4640 C   0  0  2  0  0  3  0  0  0  0  0  0
  184.1780  178.9070  140.7790 C   0  0  0  0  0  3  0  0  0  0  0  0
  185.4960  178.4850  140.9730 C   0  0  0  0  0  0  0  0  0  0  0  0
  190.5170  177.5200  140.3900 C   0  0  0  0  0  0  0  0  0  0  0  0
  186.4270  178.4090  139.7920 C   0  0  0  0  0  2  0  0  0  0  0  0
  190.1050  178.1220  139.2760 C   0  0  0  0  0  3  0  0  0  0  0  0
  191.9850  177.2890  140.6020 C   0  0  0  0  0  2  0  0  0  0  0  0
  187.5700  176.5380  143.4570 C   0  0  0  0  0  2  0  0  0  0  0  0
  189.0640  176.3850  143.8040 C   0  0  2  0  0  3  0  0  0  0  0  0
  185.9120  178.0380  142.2430 C   0  0  0  0  0  0  0  0  0  0  0  0
  188.6410  178.2460  138.9660 C   0  0  2  0  0  3  0  0  0  0  0  0
  192.3570  177.4590  142.0750 C   0  0  0  0  0  2  0  0  0  0  0  0
  183.2830  178.9320  141.8520 C   0  0  0  0  0  3  0  0  0  0  0  0
  185.0160  178.0930  143.3210 C   0  0  0  0  0  3  0  0  0  0  0  0
  190.7330  176.9150  147.1970 C   0  0  0  0  0  0  0  0  0  0  0  0
  191.9810  176.5670  147.9330 C   0  0  0  0  0  1  0  0  0  0  0  0
  189.3210  176.8320  145.2170 C   0  0  0  0  0  0  0  0  0  0  0  0
  189.7690  177.6880  147.8460 C   0  0  0  0  0  3  0  0  0  0  0  0
  188.3640  177.6110  145.8850 C   0  0  0  0  0  3  0  0  0  0  0  0
  190.5150  176.4800  145.8750 C   0  0  0  0  0  0  0  0  0  0  0  0
  191.7330  175.5040  145.0480 Cl  0  0  0  0  0  0  0  0  0  0  0  0
  188.5820  178.0390  147.1950 C   0  0  0  0  0  0  0  0  0  0  0  0
  186.3730  178.8770  147.4440 O   0  0  0  0  0  0  0  0  0  0  0  0
  187.5620  178.8490  147.8620 C   0  0  0  0  0  3  0  0  0  0  0  0
  188.4340  179.3690  137.9400 C   0  0  0  0  0  2  0  0  0  0  0  0
  187.9990  178.8370  136.5830 C   0  0  0  0  0  1  0  0  0  0  0  0
  1  3  1  6  0  0  0
  1 15  1  0  0  0  0
  2  4  1  0  0  0  0
  2  7  1  0  0  0  0
  4  1  1  0  0  0  0
  5  2  1  0  0  0  0
  6 20  1  0  0  0  0
  7 14  1  0  0  0  0
  8  9  2  0  0  0  0
  8 19  1  0  0  0  0
  9 16  1  0  0  0  0
 10 13  1  0  0  0  0
 10  4  1  0  0  0  0
 11  5  1  0  0  0  0
 11  9  1  0  0  0  0
 12 10  2  0  0  0  0
 13 18  1  0  0  0  0
 14 15  1  0  0  0  0
 15 23  1  0  0  0  0
 16  7  1  0  0  0  0
 16 20  2  0  0  0  0
 17 12  1  0  0  0  0
 17  5  1  0  0  0  0
 18  3  1  0  0  0  0
 19  6  2  0  0  0  0
 21 24  1  0  0  0  0
 21 22  1  0  0  0  0
 23 26  1  0  0  0  0
 23 25  2  0  0  0  0
 25 28  1  0  0  0  0
 26 21  2  0  0  0  0
 27 26  1  0  0  0  0
 28 24  2  0  0  0  0
 28 30  1  0  0  0  0
 29 30  2  0  0  0  0
 31 17  1  0  0  0  0
 32 31  1  0  0  0  0
M  END
>  <MODEL>
9

>  <REMARK>
 VINA RESULT:      -7.0      3.528      7.385
  Name = 
  3 active torsions:
  status: ('A' for Active; 'I' for Inactive)
    1  A    between atoms: C_13  and  C_29
    2  A    between atoms: C_15  and  C_26
    3  A    between atoms: C_16  and  C_27
                            x       y       z     vdW  Elec       q    Type
                         _______ _______ _______ _____ _____    ______ ____

>  <TORSDO>
F 3

$$$$
