=
 OpenBabel10272415313D

 34 38  0  0  1  0  0  0  0  0999 V2000
  189.6730  177.0340  139.0460 C   0  0  1  0  0  0  0  0  0  0  0  0
  190.7040  173.3550  136.1970 O   0  0  0  0  0  0  0  0  0  0  0  0
  188.8710  175.7260  137.2460 C   0  0  1  0  0  3  0  0  0  0  0  0
  190.2920  178.2820  139.2530 O   0  0  0  0  0  1  0  0  0  0  0  0
  188.8020  177.0610  137.8490 N   0  0  2  0  0  0  0  0  0  0  0  0
  190.9300  174.4460  136.7870 C   0  0  0  0  0  0  0  0  0  0  0  0
  192.0740  175.2460  136.4630 N   0  0  0  0  0  0  0  0  0  0  0  0
  192.0920  176.5310  136.9080 O   0  0  0  0  0  0  0  0  0  0  0  0
  190.0140  174.9390  137.8650 C   0  0  1  0  0  3  0  0  0  0  0  0
  192.0820  176.4350  138.3100 C   0  0  0  0  0  2  0  0  0  0  0  0
  190.7090  175.9200  138.8160 C   0  0  1  0  0  3  0  0  0  0  0  0
  193.1570  174.7400  135.6240 C   0  0  0  0  0  3  0  0  0  0  0  0
  194.4010  175.5930  135.8050 C   0  0  0  0  0  2  0  0  0  0  0  0
  194.3030  174.2520  136.4940 C   0  0  0  0  0  2  0  0  0  0  0  0
  188.0930  178.6450  136.1280 C   0  0  0  0  0  2  0  0  0  0  0  0
  189.2770  178.0060  136.8350 C   0  0  0  0  0  3  0  0  0  0  0  0
  188.8300  179.4110  137.2010 C   0  0  0  0  0  2  0  0  0  0  0  0
  187.5420  174.9890  137.3840 C   0  0  0  0  0  2  0  0  0  0  0  0
  186.5940  175.4890  136.4880 O   0  0  0  0  0  1  0  0  0  0  0  0
  188.8510  176.7260  140.1600 O   0  0  0  0  0  0  0  0  0  0  0  0
  189.2880  177.4260  141.3020 C   0  0  2  0  0  3  0  0  0  0  0  0
  189.3930  176.2690  142.7050 S   0  0  0  0  0  0  0  0  0  0  0  0
  188.6140  177.4290  143.8790 C   0  0  1  0  0  3  0  0  0  0  0  0
  186.5170  177.6630  145.1980 C   0  0  0  0  0  2  0  0  0  0  0  0
  187.2670  176.9560  144.3530 C   0  0  0  0  0  3  0  0  0  0  0  0
  189.5530  177.8260  145.0190 C   0  0  0  0  0  2  0  0  0  0  0  0
  191.8900  177.6390  145.4640 O   0  0  0  0  0  0  0  0  0  0  0  0
  191.2760  176.9580  146.5300 C   0  0  1  0  0  3  0  0  0  0  0  0
  190.7420  176.8880  145.1540 C   0  0  1  0  0  3  0  0  0  0  0  0
  192.8560  175.9130  147.9630 O   0  0  0  0  0  1  0  0  0  0  0  0
  192.0630  175.7020  146.8360 C   0  0  0  0  0  2  0  0  0  0  0  0
  188.2940  178.5250  141.6360 C   0  0  0  0  0  2  0  0  0  0  0  0
  185.8760  179.0090  141.4580 C   0  0  0  0  0  1  0  0  0  0  0  0
  187.0710  178.4140  140.7470 C   0  0  0  0  0  2  0  0  0  0  0  0
  1  4  1  1  0  0  0
  1 20  1  0  0  0  0
  2  6  2  0  0  0  0
  3 18  1  1  0  0  0
  3  5  1  0  0  0  0
  3  9  1  0  0  0  0
  5 16  1  6  0  0  0
  5  1  1  0  0  0  0
  7  6  1  0  0  0  0
  7  8  1  0  0  0  0
  8 10  1  0  0  0  0
  9  6  1  6  0  0  0
  9 11  1  0  0  0  0
 11 10  1  6  0  0  0
 11  1  1  0  0  0  0
 12 13  1  0  0  0  0
 12  7  1  0  0  0  0
 12 14  1  0  0  0  0
 13 14  1  0  0  0  0
 15 16  1  0  0  0  0
 15 17  1  0  0  0  0
 16 17  1  0  0  0  0
 19 18  1  0  0  0  0
 20 21  1  0  0  0  0
 21 32  1  1  0  0  0
 21 22  1  0  0  0  0
 22 23  1  0  0  0  0
 23 25  1  1  0  0  0
 23 26  1  0  0  0  0
 25 24  2  0  0  0  0
 27 28  1  0  0  0  0
 28 31  1  6  0  0  0
 29 26  1  1  0  0  0
 29 27  1  0  0  0  0
 29 28  1  0  0  0  0
 31 30  1  0  0  0  0
 34 33  1  0  0  0  0
 34 32  1  0  0  0  0
M  END
>  <MODEL>
1

>  <REMARK>
 VINA RESULT:      -6.0      0.000      0.000
  Name = 
  13 active torsions:
  status: ('A' for Active; 'I' for Inactive)
    1  A    between atoms: C_1  and  O_8
    2  A    between atoms: C_3  and  N_25
    3  A    between atoms: C_5  and  C_19
    4  A    between atoms: S_6  and  C_18
    5  A    between atoms: S_6  and  C_28
    6  A    between atoms: O_8  and  C_18
    7  A    between atoms: C_11  and  C_21
    8  A    between atoms: C_12  and  N_20
    9  A    between atoms: C_16  and  C_28
   10  A    between atoms: C_18  and  C_30
   11  A    between atoms: C_26  and  C_28
   12  A    between atoms: C_26  and  C_29
   13  A    between atoms: C_30  and  C_31
                            x       y       z     vdW  Elec       q    Type
                         _______ _______ _______ _____ _____    ______ ____

>  <TORSDO>
F 13

$$$$
=
 OpenBabel10272415313D

 34 38  0  0  1  0  0  0  0  0999 V2000
  183.8800  179.2950  139.8390 C   0  0  1  0  0  0  0  0  0  0  0  0
  181.2290  175.3530  139.4520 O   0  0  0  0  0  0  0  0  0  0  0  0
  181.6920  178.4290  140.0880 C   0  0  1  0  0  3  0  0  0  0  0  0
  184.6220  180.0400  138.9020 O   0  0  0  0  0  1  0  0  0  0  0  0
  182.4440  179.6530  139.7910 N   0  0  2  0  0  0  0  0  0  0  0  0
  182.0650  176.2140  139.0670 C   0  0  0  0  0  0  0  0  0  0  0  0
  182.5290  176.2480  137.7110 N   0  0  0  0  0  0  0  0  0  0  0  0
  183.1800  177.3670  137.2960 O   0  0  0  0  0  0  0  0  0  0  0  0
  182.6190  177.2260  140.0220 C   0  0  1  0  0  3  0  0  0  0  0  0
  184.3350  177.4390  138.0920 C   0  0  0  0  0  2  0  0  0  0  0  0
  183.9700  177.7850  139.5600 C   0  0  1  0  0  3  0  0  0  0  0  0
  182.2560  175.1610  136.7750 C   0  0  0  0  0  3  0  0  0  0  0  0
  183.3250  175.1200  135.6960 C   0  0  0  0  0  2  0  0  0  0  0  0
  183.3710  174.1310  136.8370 C   0  0  0  0  0  2  0  0  0  0  0  0
  180.6280  180.6890  138.5250 C   0  0  0  0  0  2  0  0  0  0  0  0
  182.0240  180.0910  138.4570 C   0  0  0  0  0  3  0  0  0  0  0  0
  181.8320  181.5980  138.4550 C   0  0  0  0  0  2  0  0  0  0  0  0
  180.9930  178.5270  141.4410 C   0  0  0  0  0  2  0  0  0  0  0  0
  181.0610  179.8260  141.9490 O   0  0  0  0  0  1  0  0  0  0  0  0
  184.3440  179.5870  141.1470 O   0  0  0  0  0  0  0  0  0  0  0  0
  185.1330  178.5280  141.6370 C   0  0  2  0  0  3  0  0  0  0  0  0
  184.4700  177.9840  143.2440 S   0  0  0  0  0  0  0  0  0  0  0  0
  185.9560  178.4970  144.1700 C   0  0  1  0  0  3  0  0  0  0  0  0
  185.0840  178.5720  146.5000 C   0  0  0  0  0  2  0  0  0  0  0  0
  185.6220  179.2030  145.4560 C   0  0  0  0  0  3  0  0  0  0  0  0
  186.9580  177.3550  144.3470 C   0  0  0  0  0  2  0  0  0  0  0  0
  188.6940  176.9500  145.9330 O   0  0  0  0  0  0  0  0  0  0  0  0
  189.3170  176.7860  144.6830 C   0  0  1  0  0  3  0  0  0  0  0  0
  188.2900  177.8250  144.9080 C   0  0  1  0  0  3  0  0  0  0  0  0
  191.5760  176.5500  145.3800 O   0  0  0  0  0  1  0  0  0  0  0  0
  190.6950  177.4130  144.7290 C   0  0  0  0  0  2  0  0  0  0  0  0
  186.5640  179.0040  141.8240 C   0  0  0  0  0  2  0  0  0  0  0  0
  188.6550  177.8450  141.1940 C   0  0  0  0  0  1  0  0  0  0  0  0
  187.4240  178.5460  140.6630 C   0  0  0  0  0  2  0  0  0  0  0  0
  1  4  1  6  0  0  0
  1 20  1  0  0  0  0
  3 18  1  1  0  0  0
  5 16  1  6  0  0  0
  5  1  1  0  0  0  0
  5  3  1  0  0  0  0
  6  2  2  0  0  0  0
  7  6  1  0  0  0  0
  8  7  1  0  0  0  0
  8 10  1  0  0  0  0
  9  6  1  6  0  0  0
  9  3  1  0  0  0  0
 11 10  1  6  0  0  0
 11  1  1  0  0  0  0
 11  9  1  0  0  0  0
 12 14  1  0  0  0  0
 12  7  1  0  0  0  0
 13 12  1  0  0  0  0
 13 14  1  0  0  0  0
 16 15  1  0  0  0  0
 17 16  1  0  0  0  0
 17 15  1  0  0  0  0
 18 19  1  0  0  0  0
 20 21  1  0  0  0  0
 21 32  1  1  0  0  0
 21 22  1  0  0  0  0
 22 23  1  0  0  0  0
 23 26  1  1  0  0  0
 23 25  1  0  0  0  0
 25 24  2  0  0  0  0
 28 31  1  1  0  0  0
 28 29  1  0  0  0  0
 28 27  1  0  0  0  0
 29 26  1  6  0  0  0
 29 27  1  0  0  0  0
 31 30  1  0  0  0  0
 34 33  1  0  0  0  0
 34 32  1  0  0  0  0
M  END
>  <MODEL>
2

>  <REMARK>
 VINA RESULT:      -5.8      4.854      6.834
  Name = 
  13 active torsions:
  status: ('A' for Active; 'I' for Inactive)
    1  A    between atoms: C_1  and  O_8
    2  A    between atoms: C_3  and  N_25
    3  A    between atoms: C_5  and  C_19
    4  A    between atoms: S_6  and  C_18
    5  A    between atoms: S_6  and  C_28
    6  A    between atoms: O_8  and  C_18
    7  A    between atoms: C_11  and  C_21
    8  A    between atoms: C_12  and  N_20
    9  A    between atoms: C_16  and  C_28
   10  A    between atoms: C_18  and  C_30
   11  A    between atoms: C_26  and  C_28
   12  A    between atoms: C_26  and  C_29
   13  A    between atoms: C_30  and  C_31
                            x       y       z     vdW  Elec       q    Type
                         _______ _______ _______ _____ _____    ______ ____

>  <TORSDO>
F 13

$$$$
=
 OpenBabel10272415313D

 34 38  0  0  1  0  0  0  0  0999 V2000
  190.7780  176.5510  139.2420 C   0  0  1  0  0  0  0  0  0  0  0  0
  191.9630  173.7280  135.5890 O   0  0  0  0  0  0  0  0  0  0  0  0
  189.9570  175.5200  137.2770 C   0  0  1  0  0  3  0  0  0  0  0  0
  191.2410  177.8150  139.6590 O   0  0  0  0  0  1  0  0  0  0  0  0
  189.7770  176.6790  138.1580 N   0  0  2  0  0  0  0  0  0  0  0  0
  192.1050  174.7010  136.3790 C   0  0  0  0  0  0  0  0  0  0  0  0
  193.0820  175.7200  136.1380 N   0  0  0  0  0  0  0  0  0  0  0  0
  192.9760  176.8760  136.8470 O   0  0  0  0  0  0  0  0  0  0  0  0
  191.2620  174.8160  137.6110 C   0  0  1  0  0  3  0  0  0  0  0  0
  193.1430  176.5010  138.1900 C   0  0  0  0  0  2  0  0  0  0  0  0
  191.9220  175.6840  138.6890 C   0  0  1  0  0  3  0  0  0  0  0  0
  194.1190  175.5700  135.1200 C   0  0  0  0  0  3  0  0  0  0  0  0
  195.2000  176.6190  135.3160 C   0  0  0  0  0  2  0  0  0  0  0  0
  195.4390  175.2000  135.7730 C   0  0  0  0  0  2  0  0  0  0  0  0
  188.7410  178.1890  136.5390 C   0  0  0  0  0  2  0  0  0  0  0  0
  189.9970  177.8710  137.3350 C   0  0  0  0  0  3  0  0  0  0  0  0
  189.0610  178.9790  137.7860 C   0  0  0  0  0  2  0  0  0  0  0  0
  188.7670  174.5700  137.3670 C   0  0  0  0  0  2  0  0  0  0  0  0
  189.1860  173.2380  137.3590 O   0  0  0  0  0  1  0  0  0  0  0  0
  190.1420  175.9000  140.3290 O   0  0  0  0  0  0  0  0  0  0  0  0
  190.0140  176.7790  141.4220 C   0  0  2  0  0  3  0  0  0  0  0  0
  190.1560  175.8300  142.9710 S   0  0  0  0  0  0  0  0  0  0  0  0
  191.4590  176.9080  143.6570 C   0  0  1  0  0  3  0  0  0  0  0  0
  191.1640  179.3740  143.8050 C   0  0  0  0  0  2  0  0  0  0  0  0
  191.4320  178.2930  143.0720 C   0  0  0  0  0  3  0  0  0  0  0  0
  191.4840  176.8940  145.1860 C   0  0  0  0  0  2  0  0  0  0  0  0
  190.2580  176.4830  147.1920 O   0  0  0  0  0  0  0  0  0  0  0  0
  189.6740  177.6450  146.6570 C   0  0  1  0  0  3  0  0  0  0  0  0
  190.1350  176.5390  145.7920 C   0  0  1  0  0  3  0  0  0  0  0  0
  187.8390  177.8200  148.1560 O   0  0  0  0  0  1  0  0  0  0  0  0
  188.1710  177.5670  146.8250 C   0  0  0  0  0  2  0  0  0  0  0  0
  188.6540  177.4550  141.3750 C   0  0  0  0  0  2  0  0  0  0  0  0
  186.6070  178.0010  142.6490 C   0  0  0  0  0  1  0  0  0  0  0  0
  187.9380  177.2840  142.7000 C   0  0  0  0  0  2  0  0  0  0  0  0
  1  4  1  1  0  0  0
  1 20  1  0  0  0  0
  2  6  2  0  0  0  0
  3 18  1  1  0  0  0
  3  9  1  0  0  0  0
  3  5  1  0  0  0  0
  5 16  1  6  0  0  0
  5  1  1  0  0  0  0
  7  6  1  0  0  0  0
  7  8  1  0  0  0  0
  8 10  1  0  0  0  0
  9  6  1  6  0  0  0
  9 11  1  0  0  0  0
 11 10  1  6  0  0  0
 11  1  1  0  0  0  0
 12 13  1  0  0  0  0
 12 14  1  0  0  0  0
 12  7  1  0  0  0  0
 13 14  1  0  0  0  0
 15 16  1  0  0  0  0
 15 17  1  0  0  0  0
 16 17  1  0  0  0  0
 19 18  1  0  0  0  0
 20 21  1  0  0  0  0
 21 32  1  1  0  0  0
 21 22  1  0  0  0  0
 22 23  1  0  0  0  0
 23 25  1  1  0  0  0
 23 26  1  0  0  0  0
 25 24  2  0  0  0  0
 28 31  1  1  0  0  0
 28 27  1  0  0  0  0
 29 26  1  6  0  0  0
 29 28  1  0  0  0  0
 29 27  1  0  0  0  0
 31 30  1  0  0  0  0
 32 34  1  0  0  0  0
 33 34  1  0  0  0  0
M  END
>  <MODEL>
3

>  <REMARK>
 VINA RESULT:      -5.8      1.614      2.245
  Name = 
  13 active torsions:
  status: ('A' for Active; 'I' for Inactive)
    1  A    between atoms: C_1  and  O_8
    2  A    between atoms: C_3  and  N_25
    3  A    between atoms: C_5  and  C_19
    4  A    between atoms: S_6  and  C_18
    5  A    between atoms: S_6  and  C_28
    6  A    between atoms: O_8  and  C_18
    7  A    between atoms: C_11  and  C_21
    8  A    between atoms: C_12  and  N_20
    9  A    between atoms: C_16  and  C_28
   10  A    between atoms: C_18  and  C_30
   11  A    between atoms: C_26  and  C_28
   12  A    between atoms: C_26  and  C_29
   13  A    between atoms: C_30  and  C_31
                            x       y       z     vdW  Elec       q    Type
                         _______ _______ _______ _____ _____    ______ ____

>  <TORSDO>
F 13

$$$$
=
 OpenBabel10272415313D

 34 38  0  0  1  0  0  0  0  0999 V2000
  189.0740  177.2640  138.5290 C   0  0  1  0  0  0  0  0  0  0  0  0
  190.1220  173.2460  136.1900 O   0  0  0  0  0  0  0  0  0  0  0  0
  188.2220  175.6500  137.0240 C   0  0  1  0  0  3  0  0  0  0  0  0
  189.6230  178.5610  138.4900 O   0  0  0  0  0  1  0  0  0  0  0  0
  188.1120  177.0570  137.4220 N   0  0  2  0  0  0  0  0  0  0  0  0
  190.3200  174.4260  136.5860 C   0  0  0  0  0  0  0  0  0  0  0  0
  191.3800  175.2260  136.0470 N   0  0  0  0  0  0  0  0  0  0  0  0
  191.3470  176.5630  136.2900 O   0  0  0  0  0  0  0  0  0  0  0  0
  189.4600  175.0310  137.6520 C   0  0  1  0  0  3  0  0  0  0  0  0
  191.4520  176.6870  137.6850 C   0  0  0  0  0  2  0  0  0  0  0  0
  190.1600  176.1850  138.3810 C   0  0  1  0  0  3  0  0  0  0  0  0
  192.4250  174.6530  135.2030 C   0  0  0  0  0  3  0  0  0  0  0  0
  193.5990  175.6120  135.1020 C   0  0  0  0  0  2  0  0  0  0  0  0
  193.6820  174.4170  136.0220 C   0  0  0  0  0  2  0  0  0  0  0  0
  187.2730  177.8550  135.2700 C   0  0  0  0  0  2  0  0  0  0  0  0
  188.4440  177.8570  136.2400 C   0  0  0  0  0  3  0  0  0  0  0  0
  187.5120  179.0530  136.1580 C   0  0  0  0  0  2  0  0  0  0  0  0
  186.9600  174.8740  137.3870 C   0  0  0  0  0  2  0  0  0  0  0  0
  186.6430  173.9390  136.4000 O   0  0  0  0  0  1  0  0  0  0  0  0
  188.3630  177.0900  139.7440 O   0  0  0  0  0  0  0  0  0  0  0  0
  187.9680  178.3380  140.2650 C   0  0  2  0  0  3  0  0  0  0  0  0
  188.7820  178.5960  141.8750 S   0  0  0  0  0  0  0  0  0  0  0  0
  188.7910  176.8200  142.2940 C   0  0  1  0  0  3  0  0  0  0  0  0
  191.2670  176.9880  142.4710 C   0  0  0  0  0  2  0  0  0  0  0  0
  190.1780  176.2370  142.3150 C   0  0  0  0  0  3  0  0  0  0  0  0
  187.9840  176.5130  143.5560 C   0  0  0  0  0  2  0  0  0  0  0  0
  187.1120  177.4380  145.5750 O   0  0  0  0  0  0  0  0  0  0  0  0
  188.3750  176.9400  145.9370 C   0  0  1  0  0  3  0  0  0  0  0  0
  188.1400  177.5810  144.6270 C   0  0  1  0  0  3  0  0  0  0  0  0
  188.4490  177.8510  148.1300 O   0  0  0  0  0  1  0  0  0  0  0  0
  189.0470  177.9230  146.8720 C   0  0  0  0  0  2  0  0  0  0  0  0
  186.4610  178.3530  140.4610 C   0  0  0  0  0  2  0  0  0  0  0  0
  184.8080  178.6460  142.2760 C   0  0  0  0  0  1  0  0  0  0  0  0
  186.1010  179.1680  141.6880 C   0  0  0  0  0  2  0  0  0  0  0  0
  1  4  1  6  0  0  0
  1 20  1  0  0  0  0
  2  6  2  0  0  0  0
  3 18  1  1  0  0  0
  3  5  1  0  0  0  0
  3  9  1  0  0  0  0
  5 16  1  6  0  0  0
  5  1  1  0  0  0  0
  7  8  1  0  0  0  0
  7  6  1  0  0  0  0
  8 10  1  0  0  0  0
  9  6  1  6  0  0  0
  9 11  1  0  0  0  0
 11 10  1  6  0  0  0
 11  1  1  0  0  0  0
 12 14  1  0  0  0  0
 12  7  1  0  0  0  0
 13 12  1  0  0  0  0
 13 14  1  0  0  0  0
 15 17  1  0  0  0  0
 15 16  1  0  0  0  0
 17 16  1  0  0  0  0
 19 18  1  0  0  0  0
 20 21  1  0  0  0  0
 21 32  1  1  0  0  0
 21 22  1  0  0  0  0
 22 23  1  0  0  0  0
 23 25  1  1  0  0  0
 23 26  1  0  0  0  0
 25 24  2  0  0  0  0
 27 28  1  0  0  0  0
 28 31  1  1  0  0  0
 29 26  1  6  0  0  0
 29 27  1  0  0  0  0
 29 28  1  0  0  0  0
 31 30  1  0  0  0  0
 32 34  1  0  0  0  0
 34 33  1  0  0  0  0
M  END
>  <MODEL>
4

>  <REMARK>
 VINA RESULT:      -5.5      1.745      2.219
  Name = 
  13 active torsions:
  status: ('A' for Active; 'I' for Inactive)
    1  A    between atoms: C_1  and  O_8
    2  A    between atoms: C_3  and  N_25
    3  A    between atoms: C_5  and  C_19
    4  A    between atoms: S_6  and  C_18
    5  A    between atoms: S_6  and  C_28
    6  A    between atoms: O_8  and  C_18
    7  A    between atoms: C_11  and  C_21
    8  A    between atoms: C_12  and  N_20
    9  A    between atoms: C_16  and  C_28
   10  A    between atoms: C_18  and  C_30
   11  A    between atoms: C_26  and  C_28
   12  A    between atoms: C_26  and  C_29
   13  A    between atoms: C_30  and  C_31
                            x       y       z     vdW  Elec       q    Type
                         _______ _______ _______ _____ _____    ______ ____

>  <TORSDO>
F 13

$$$$
=
 OpenBabel10272415313D

 34 38  0  0  1  0  0  0  0  0999 V2000
  190.0720  177.2430  140.8870 C   0  0  1  0  0  0  0  0  0  0  0  0
  187.1340  176.0040  144.4290 O   0  0  0  0  0  0  0  0  0  0  0  0
  189.9870  176.5550  143.1490 C   0  0  1  0  0  3  0  0  0  0  0  0
  190.2260  178.4320  140.1480 O   0  0  0  0  0  1  0  0  0  0  0  0
  190.7810  177.3230  142.1840 N   0  0  2  0  0  0  0  0  0  0  0  0
  187.5480  176.7290  143.4840 C   0  0  0  0  0  0  0  0  0  0  0  0
  187.0010  178.0320  143.2490 N   0  0  0  0  0  0  0  0  0  0  0  0
  187.6900  178.8660  142.4250 O   0  0  0  0  0  0  0  0  0  0  0  0
  188.6210  176.2430  142.5590 C   0  0  1  0  0  3  0  0  0  0  0  0
  187.6950  178.2270  141.1740 C   0  0  0  0  0  2  0  0  0  0  0  0
  188.5940  176.9630  141.2060 C   0  0  1  0  0  3  0  0  0  0  0  0
  185.7880  178.4920  143.9200 C   0  0  0  0  0  3  0  0  0  0  0  0
  185.0960  179.5510  143.0790 C   0  0  0  0  0  2  0  0  0  0  0  0
  184.5680  178.1360  143.0880 C   0  0  0  0  0  2  0  0  0  0  0  0
  190.5480  178.7070  144.1850 C   0  0  0  0  0  2  0  0  0  0  0  0
  190.8530  178.6950  142.6960 C   0  0  0  0  0  3  0  0  0  0  0  0
  191.9790  178.8000  143.7090 C   0  0  0  0  0  2  0  0  0  0  0  0
  190.7170  175.2860  143.5780 C   0  0  0  0  0  2  0  0  0  0  0  0
  191.9780  175.5840  144.0990 O   0  0  0  0  0  1  0  0  0  0  0  0
  190.6380  176.1620  140.1630 O   0  0  0  0  0  0  0  0  0  0  0  0
  190.8710  176.5350  138.8250 C   0  0  2  0  0  3  0  0  0  0  0  0
  189.9080  175.4460  137.7260 S   0  0  0  0  0  0  0  0  0  0  0  0
  189.2930  176.8220  136.6970 C   0  0  1  0  0  3  0  0  0  0  0  0
  190.3770  175.8390  134.6840 C   0  0  0  0  0  2  0  0  0  0  0  0
  190.0020  176.9160  135.3730 C   0  0  0  0  0  3  0  0  0  0  0  0
  187.7690  176.8220  136.5710 C   0  0  0  0  0  2  0  0  0  0  0  0
  187.2350  178.7680  137.8440 O   0  0  0  0  0  0  0  0  0  0  0  0
  185.9900  178.2850  137.4060 C   0  0  1  0  0  3  0  0  0  0  0  0
  187.0790  177.3710  137.8100 C   0  0  1  0  0  3  0  0  0  0  0  0
  184.8570  179.7490  138.8960 O   0  0  0  0  0  1  0  0  0  0  0  0
  184.9850  178.4090  138.5320 C   0  0  0  0  0  2  0  0  0  0  0  0
  192.3490  176.3850  138.5040 C   0  0  0  0  0  2  0  0  0  0  0  0
  194.0050  174.7300  137.7130 C   0  0  0  0  0  1  0  0  0  0  0  0
  192.5690  175.1910  137.5970 C   0  0  0  0  0  2  0  0  0  0  0  0
  1  4  1  6  0  0  0
  1 11  1  0  0  0  0
  1  5  1  0  0  0  0
  3 18  1  6  0  0  0
  5 16  1  1  0  0  0
  5  3  1  0  0  0  0
  6  2  2  0  0  0  0
  7  6  1  0  0  0  0
  7 12  1  0  0  0  0
  8  7  1  0  0  0  0
  9  3  1  0  0  0  0
  9  6  1  1  0  0  0
 10  8  1  0  0  0  0
 11 10  1  1  0  0  0
 11  9  1  0  0  0  0
 13 14  1  0  0  0  0
 13 12  1  0  0  0  0
 14 12  1  0  0  0  0
 16 17  1  0  0  0  0
 16 15  1  0  0  0  0
 17 15  1  0  0  0  0
 18 19  1  0  0  0  0
 20  1  1  0  0  0  0
 21 32  1  6  0  0  0
 21 20  1  0  0  0  0
 22 21  1  0  0  0  0
 23 25  1  6  0  0  0
 23 22  1  0  0  0  0
 24 25  2  0  0  0  0
 26 23  1  0  0  0  0
 28 29  1  0  0  0  0
 28 27  1  0  0  0  0
 28 31  1  1  0  0  0
 29 26  1  6  0  0  0
 29 27  1  0  0  0  0
 31 30  1  0  0  0  0
 34 33  1  0  0  0  0
 34 32  1  0  0  0  0
M  END
>  <MODEL>
5

>  <REMARK>
 VINA RESULT:      -4.7      2.686      8.170
  Name = 
  13 active torsions:
  status: ('A' for Active; 'I' for Inactive)
    1  A    between atoms: C_1  and  O_8
    2  A    between atoms: C_3  and  N_25
    3  A    between atoms: C_5  and  C_19
    4  A    between atoms: S_6  and  C_18
    5  A    between atoms: S_6  and  C_28
    6  A    between atoms: O_8  and  C_18
    7  A    between atoms: C_11  and  C_21
    8  A    between atoms: C_12  and  N_20
    9  A    between atoms: C_16  and  C_28
   10  A    between atoms: C_18  and  C_30
   11  A    between atoms: C_26  and  C_28
   12  A    between atoms: C_26  and  C_29
   13  A    between atoms: C_30  and  C_31
                            x       y       z     vdW  Elec       q    Type
                         _______ _______ _______ _____ _____    ______ ____

>  <TORSDO>
F 13

$$$$
=
 OpenBabel10272415313D

 34 38  0  0  1  0  0  0  0  0999 V2000
  183.3810  177.0960  138.0140 C   0  0  1  0  0  0  0  0  0  0  0  0
  180.7860  180.8230  139.4620 O   0  0  0  0  0  0  0  0  0  0  0  0
  181.4470  178.3770  137.5480 C   0  0  1  0  0  3  0  0  0  0  0  0
  183.7170  175.8740  138.6270 O   0  0  0  0  0  1  0  0  0  0  0  0
  182.0310  177.0380  137.4100 N   0  0  2  0  0  0  0  0  0  0  0  0
  181.4150  179.7400  139.6050 C   0  0  0  0  0  0  0  0  0  0  0  0
  181.3380  178.9880  140.8220 N   0  0  0  0  0  0  0  0  0  0  0  0
  181.7840  177.7040  140.7990 O   0  0  0  0  0  0  0  0  0  0  0  0
  182.2840  179.2080  138.5070 C   0  0  1  0  0  3  0  0  0  0  0  0
  183.1530  177.7940  140.4970 C   0  0  0  0  0  2  0  0  0  0  0  0
  183.3630  178.2520  139.0290 C   0  0  1  0  0  3  0  0  0  0  0  0
  180.7380  179.5400  142.0340 C   0  0  0  0  0  3  0  0  0  0  0  0
  180.2910  178.4170  142.9540 C   0  0  0  0  0  2  0  0  0  0  0  0
  181.5720  179.1630  143.2450 C   0  0  0  0  0  2  0  0  0  0  0  0
  179.9840  175.7160  137.2210 C   0  0  0  0  0  2  0  0  0  0  0  0
  181.1410  176.1160  138.1210 C   0  0  0  0  0  3  0  0  0  0  0  0
  181.1430  174.7680  137.4220 C   0  0  0  0  0  2  0  0  0  0  0  0
  181.3050  179.0590  136.1910 C   0  0  0  0  0  2  0  0  0  0  0  0
  181.4700  178.1440  135.1490 O   0  0  0  0  0  1  0  0  0  0  0  0
  184.3000  177.3680  136.9680 O   0  0  0  0  0  0  0  0  0  0  0  0
  185.5930  176.9420  137.3280 C   0  0  2  0  0  3  0  0  0  0  0  0
  186.7070  178.3840  137.3640 S   0  0  0  0  0  0  0  0  0  0  0  0
  187.8620  177.6170  138.5520 C   0  0  1  0  0  3  0  0  0  0  0  0
  189.4480  177.3530  136.6520 C   0  0  0  0  0  2  0  0  0  0  0  0
  189.2290  177.3920  137.9670 C   0  0  0  0  0  3  0  0  0  0  0  0
  187.8880  178.3470  139.8950 C   0  0  0  0  0  2  0  0  0  0  0  0
  189.0640  178.4720  141.9680 O   0  0  0  0  0  0  0  0  0  0  0  0
  187.9320  177.6900  142.2550 C   0  0  1  0  0  3  0  0  0  0  0  0
  188.6460  177.5780  140.9660 C   0  0  1  0  0  3  0  0  0  0  0  0
  187.4220  176.4380  144.2090 O   0  0  0  0  0  1  0  0  0  0  0  0
  188.3360  176.5460  143.1620 C   0  0  0  0  0  2  0  0  0  0  0  0
  186.1040  175.9440  136.3020 C   0  0  0  0  0  2  0  0  0  0  0  0
  185.5400  173.7010  137.1750 C   0  0  0  0  0  1  0  0  0  0  0  0
  186.6510  174.7130  136.9970 C   0  0  0  0  0  2  0  0  0  0  0  0
  1  4  1  1  0  0  0
  1 11  1  0  0  0  0
  2  6  2  0  0  0  0
  3 18  1  6  0  0  0
  3  9  1  0  0  0  0
  5  3  1  0  0  0  0
  5  1  1  0  0  0  0
  5 16  1  1  0  0  0
  6  7  1  0  0  0  0
  7 12  1  0  0  0  0
  8  7  1  0  0  0  0
  9 11  1  0  0  0  0
  9  6  1  1  0  0  0
 10  8  1  0  0  0  0
 11 10  1  1  0  0  0
 12 13  1  0  0  0  0
 12 14  1  0  0  0  0
 13 14  1  0  0  0  0
 15 17  1  0  0  0  0
 15 16  1  0  0  0  0
 17 16  1  0  0  0  0
 19 18  1  0  0  0  0
 20 21  1  0  0  0  0
 20  1  1  0  0  0  0
 21 32  1  6  0  0  0
 21 22  1  0  0  0  0
 22 23  1  0  0  0  0
 23 25  1  6  0  0  0
 23 26  1  0  0  0  0
 24 25  2  0  0  0  0
 27 28  1  0  0  0  0
 28 31  1  1  0  0  0
 29 26  1  6  0  0  0
 29 27  1  0  0  0  0
 29 28  1  0  0  0  0
 31 30  1  0  0  0  0
 32 34  1  0  0  0  0
 34 33  1  0  0  0  0
M  END
>  <MODEL>
6

>  <REMARK>
 VINA RESULT:      -4.7      4.782      8.675
  Name = 
  13 active torsions:
  status: ('A' for Active; 'I' for Inactive)
    1  A    between atoms: C_1  and  O_8
    2  A    between atoms: C_3  and  N_25
    3  A    between atoms: C_5  and  C_19
    4  A    between atoms: S_6  and  C_18
    5  A    between atoms: S_6  and  C_28
    6  A    between atoms: O_8  and  C_18
    7  A    between atoms: C_11  and  C_21
    8  A    between atoms: C_12  and  N_20
    9  A    between atoms: C_16  and  C_28
   10  A    between atoms: C_18  and  C_30
   11  A    between atoms: C_26  and  C_28
   12  A    between atoms: C_26  and  C_29
   13  A    between atoms: C_30  and  C_31
                            x       y       z     vdW  Elec       q    Type
                         _______ _______ _______ _____ _____    ______ ____

>  <TORSDO>
F 13

$$$$
=
 OpenBabel10272415313D

 34 38  0  0  1  0  0  0  0  0999 V2000
  184.3460  179.1040  139.3190 C   0  0  1  0  0  0  0  0  0  0  0  0
  181.2280  175.5960  140.1480 O   0  0  0  0  0  0  0  0  0  0  0  0
  182.2530  178.5970  140.2990 C   0  0  1  0  0  3  0  0  0  0  0  0
  184.8480  179.6720  138.1320 O   0  0  0  0  0  1  0  0  0  0  0  0
  183.0240  179.6730  139.6670 N   0  0  2  0  0  0  0  0  0  0  0  0
  182.0050  176.2950  139.4440 C   0  0  0  0  0  0  0  0  0  0  0  0
  182.0240  176.1800  138.0160 N   0  0  0  0  0  0  0  0  0  0  0  0
  182.6500  177.1610  137.3130 O   0  0  0  0  0  0  0  0  0  0  0  0
  182.9520  177.2650  140.0810 C   0  0  1  0  0  3  0  0  0  0  0  0
  183.9950  177.1030  137.7150 C   0  0  0  0  0  2  0  0  0  0  0  0
  184.1520  177.5840  139.1810 C   0  0  1  0  0  3  0  0  0  0  0  0
  181.3380  175.0950  137.3200 C   0  0  0  0  0  3  0  0  0  0  0  0
  181.9070  174.9290  135.9210 C   0  0  0  0  0  2  0  0  0  0  0  0
  182.3160  173.9730  137.0160 C   0  0  0  0  0  2  0  0  0  0  0  0
  180.9680  180.7540  138.9070 C   0  0  0  0  0  2  0  0  0  0  0  0
  182.2690  180.0920  138.4830 C   0  0  0  0  0  3  0  0  0  0  0  0
  182.1380  181.6050  138.4740 C   0  0  0  0  0  2  0  0  0  0  0  0
  182.0280  178.8770  141.7820 C   0  0  0  0  0  2  0  0  0  0  0  0
  180.8780  178.2360  142.2460 O   0  0  0  0  0  1  0  0  0  0  0  0
  185.2270  179.3970  140.3910 O   0  0  0  0  0  0  0  0  0  0  0  0
  186.2290  178.4110  140.4880 C   0  0  2  0  0  3  0  0  0  0  0  0
  187.2930  178.7810  141.9190 S   0  0  0  0  0  0  0  0  0  0  0  0
  186.4950  177.5380  142.9910 C   0  0  1  0  0  3  0  0  0  0  0  0
  188.7890  177.0310  143.8120 C   0  0  0  0  0  2  0  0  0  0  0  0
  187.4880  176.7410  143.7920 C   0  0  0  0  0  3  0  0  0  0  0  0
  185.3690  178.1330  143.8370 C   0  0  0  0  0  2  0  0  0  0  0  0
  184.8050  179.5310  145.6860 O   0  0  0  0  0  0  0  0  0  0  0  0
  185.2690  178.3430  146.2760 C   0  0  1  0  0  3  0  0  0  0  0  0
  185.8840  178.8920  145.0500 C   0  0  1  0  0  3  0  0  0  0  0  0
  185.9800  180.0380  147.7810 O   0  0  0  0  0  1  0  0  0  0  0  0
  186.1290  178.6860  147.4740 C   0  0  0  0  0  2  0  0  0  0  0  0
  187.0730  178.4180  139.2240 C   0  0  0  0  0  2  0  0  0  0  0  0
  188.9680  176.9500  138.6190 C   0  0  0  0  0  1  0  0  0  0  0  0
  188.5060  178.0490  139.5510 C   0  0  0  0  0  2  0  0  0  0  0  0
  1  4  1  6  0  0  0
  1  5  1  0  0  0  0
  1 20  1  0  0  0  0
  3 18  1  1  0  0  0
  5 16  1  6  0  0  0
  5  3  1  0  0  0  0
  6  2  2  0  0  0  0
  7  6  1  0  0  0  0
  8 10  1  0  0  0  0
  8  7  1  0  0  0  0
  9  6  1  6  0  0  0
  9  3  1  0  0  0  0
 11 10  1  6  0  0  0
 11  1  1  0  0  0  0
 11  9  1  0  0  0  0
 12  7  1  0  0  0  0
 13 14  1  0  0  0  0
 13 12  1  0  0  0  0
 14 12  1  0  0  0  0
 16 15  1  0  0  0  0
 17 16  1  0  0  0  0
 17 15  1  0  0  0  0
 18 19  1  0  0  0  0
 20 21  1  0  0  0  0
 21 32  1  6  0  0  0
 21 22  1  0  0  0  0
 22 23  1  0  0  0  0
 23 25  1  1  0  0  0
 23 26  1  0  0  0  0
 25 24  2  0  0  0  0
 27 28  1  0  0  0  0
 28 31  1  1  0  0  0
 29 26  1  6  0  0  0
 29 27  1  0  0  0  0
 29 28  1  0  0  0  0
 31 30  1  0  0  0  0
 32 34  1  0  0  0  0
 33 34  1  0  0  0  0
M  END
>  <MODEL>
7

>  <REMARK>
 VINA RESULT:      -4.5      4.580      7.327
  Name = 
  13 active torsions:
  status: ('A' for Active; 'I' for Inactive)
    1  A    between atoms: C_1  and  O_8
    2  A    between atoms: C_3  and  N_25
    3  A    between atoms: C_5  and  C_19
    4  A    between atoms: S_6  and  C_18
    5  A    between atoms: S_6  and  C_28
    6  A    between atoms: O_8  and  C_18
    7  A    between atoms: C_11  and  C_21
    8  A    between atoms: C_12  and  N_20
    9  A    between atoms: C_16  and  C_28
   10  A    between atoms: C_18  and  C_30
   11  A    between atoms: C_26  and  C_28
   12  A    between atoms: C_26  and  C_29
   13  A    between atoms: C_30  and  C_31
                            x       y       z     vdW  Elec       q    Type
                         _______ _______ _______ _____ _____    ______ ____

>  <TORSDO>
F 13

$$$$
=
 OpenBabel10272415313D

 34 38  0  0  1  0  0  0  0  0999 V2000
  190.2660  177.2540  140.8680 C   0  0  1  0  0  0  0  0  0  0  0  0
  187.1510  176.0010  144.2500 O   0  0  0  0  0  0  0  0  0  0  0  0
  190.0610  176.6090  143.1350 C   0  0  1  0  0  3  0  0  0  0  0  0
  190.4330  178.4330  140.1150 O   0  0  0  0  0  1  0  0  0  0  0  0
  190.8920  177.3800  142.2040 N   0  0  2  0  0  0  0  0  0  0  0  0
  187.6020  176.7190  143.3170 C   0  0  0  0  0  0  0  0  0  0  0  0
  187.0350  178.0010  143.0210 N   0  0  0  0  0  0  0  0  0  0  0  0
  187.7500  178.8370  142.2230 O   0  0  0  0  0  0  0  0  0  0  0  0
  188.7430  176.2460  142.4700 C   0  0  1  0  0  3  0  0  0  0  0  0
  187.8500  178.1740  140.9880 C   0  0  0  0  0  2  0  0  0  0  0  0
  188.7790  176.9370  141.1020 C   0  0  1  0  0  3  0  0  0  0  0  0
  185.7710  178.4390  143.6060 C   0  0  0  0  0  3  0  0  0  0  0  0
  185.1510  179.5320  142.7530 C   0  0  0  0  0  2  0  0  0  0  0  0
  184.6240  178.1200  142.6630 C   0  0  0  0  0  2  0  0  0  0  0  0
  190.5410  178.7930  144.1680 C   0  0  0  0  0  2  0  0  0  0  0  0
  190.8940  178.7630  142.6900 C   0  0  0  0  0  3  0  0  0  0  0  0
  191.9820  178.9330  143.7360 C   0  0  0  0  0  2  0  0  0  0  0  0
  190.7980  175.3700  143.6350 C   0  0  0  0  0  2  0  0  0  0  0  0
  191.8630  175.7210  144.4670 O   0  0  0  0  0  1  0  0  0  0  0  0
  190.9050  176.1760  140.2040 O   0  0  0  0  0  0  0  0  0  0  0  0
  191.2190  176.5330  138.8770 C   0  0  2  0  0  3  0  0  0  0  0  0
  190.4590  175.3280  137.7410 S   0  0  0  0  0  0  0  0  0  0  0  0
  189.0380  176.4050  137.3520 C   0  0  1  0  0  3  0  0  0  0  0  0
  188.9830  178.8740  137.0480 C   0  0  0  0  0  2  0  0  0  0  0  0
  189.4480  177.6820  136.6730 C   0  0  0  0  0  3  0  0  0  0  0  0
  187.9220  175.6580  136.6190 C   0  0  0  0  0  2  0  0  0  0  0  0
  185.9940  177.0170  136.2580 O   0  0  0  0  0  0  0  0  0  0  0  0
  185.5320  175.7000  136.0850 C   0  0  1  0  0  3  0  0  0  0  0  0
  186.5360  176.0410  137.1140 C   0  0  1  0  0  3  0  0  0  0  0  0
  183.1800  175.8910  135.8010 O   0  0  0  0  0  1  0  0  0  0  0  0
  184.1680  175.5650  136.7300 C   0  0  0  0  0  2  0  0  0  0  0  0
  192.7260  176.5140  138.6880 C   0  0  0  0  0  2  0  0  0  0  0  0
  194.1030  175.0440  137.2550 C   0  0  0  0  0  1  0  0  0  0  0  0
  193.0690  176.1490  137.2570 C   0  0  0  0  0  2  0  0  0  0  0  0
  1  4  1  6  0  0  0
  1 11  1  0  0  0  0
  1  5  1  0  0  0  0
  3 18  1  6  0  0  0
  5 16  1  1  0  0  0
  5  3  1  0  0  0  0
  6  2  2  0  0  0  0
  7  6  1  0  0  0  0
  7 12  1  0  0  0  0
  8  7  1  0  0  0  0
  9  3  1  0  0  0  0
  9  6  1  1  0  0  0
 10  8  1  0  0  0  0
 11 10  1  1  0  0  0
 11  9  1  0  0  0  0
 13 12  1  0  0  0  0
 14 13  1  0  0  0  0
 14 12  1  0  0  0  0
 16 17  1  0  0  0  0
 16 15  1  0  0  0  0
 17 15  1  0  0  0  0
 18 19  1  0  0  0  0
 20  1  1  0  0  0  0
 21 32  1  1  0  0  0
 21 20  1  0  0  0  0
 22 21  1  0  0  0  0
 23 26  1  6  0  0  0
 23 22  1  0  0  0  0
 25 24  2  0  0  0  0
 25 23  1  0  0  0  0
 27 29  1  0  0  0  0
 28 27  1  0  0  0  0
 28 31  1  1  0  0  0
 28 29  1  0  0  0  0
 29 26  1  6  0  0  0
 30 31  1  0  0  0  0
 33 34  1  0  0  0  0
 34 32  1  0  0  0  0
M  END
>  <MODEL>
8

>  <REMARK>
 VINA RESULT:      -4.5      2.530      8.350
  Name = 
  13 active torsions:
  status: ('A' for Active; 'I' for Inactive)
    1  A    between atoms: C_1  and  O_8
    2  A    between atoms: C_3  and  N_25
    3  A    between atoms: C_5  and  C_19
    4  A    between atoms: S_6  and  C_18
    5  A    between atoms: S_6  and  C_28
    6  A    between atoms: O_8  and  C_18
    7  A    between atoms: C_11  and  C_21
    8  A    between atoms: C_12  and  N_20
    9  A    between atoms: C_16  and  C_28
   10  A    between atoms: C_18  and  C_30
   11  A    between atoms: C_26  and  C_28
   12  A    between atoms: C_26  and  C_29
   13  A    between atoms: C_30  and  C_31
                            x       y       z     vdW  Elec       q    Type
                         _______ _______ _______ _____ _____    ______ ____

>  <TORSDO>
F 13

$$$$
=
 OpenBabel10272415313D

 34 38  0  0  1  0  0  0  0  0999 V2000
  190.5720  176.3380  137.8920 C   0  0  1  0  0  0  0  0  0  0  0  0
  188.3900  179.5520  140.6530 O   0  0  0  0  0  0  0  0  0  0  0  0
  188.6610  177.7210  138.0730 C   0  0  1  0  0  3  0  0  0  0  0  0
  190.9250  174.9900  138.0960 O   0  0  0  0  0  1  0  0  0  0  0  0
  189.1520  176.4650  137.4950 N   0  0  2  0  0  0  0  0  0  0  0  0
  188.9770  178.4640  140.4050 C   0  0  0  0  0  0  0  0  0  0  0  0
  189.0260  177.4070  141.3710 N   0  0  0  0  0  0  0  0  0  0  0  0
  189.3990  176.1740  140.9370 O   0  0  0  0  0  0  0  0  0  0  0  0
  189.6610  178.2450  139.0910 C   0  0  1  0  0  3  0  0  0  0  0  0
  190.7180  176.3270  140.4770 C   0  0  0  0  0  2  0  0  0  0  0  0
  190.7510  177.1690  139.1740 C   0  0  1  0  0  3  0  0  0  0  0  0
  188.6230  177.6110  142.7600 C   0  0  0  0  0  3  0  0  0  0  0  0
  188.3950  176.2720  143.4400 C   0  0  0  0  0  2  0  0  0  0  0  0
  189.6730  177.0350  143.6950 C   0  0  0  0  0  2  0  0  0  0  0  0
  187.0210  175.2890  137.2680 C   0  0  0  0  0  2  0  0  0  0  0  0
  188.3200  175.3930  138.0500 C   0  0  0  0  0  3  0  0  0  0  0  0
  188.1360  174.3030  137.0090 C   0  0  0  0  0  2  0  0  0  0  0  0
  188.3720  178.7520  136.9870 C   0  0  0  0  0  2  0  0  0  0  0  0
  187.0110  179.0580  136.9340 O   0  0  0  0  0  1  0  0  0  0  0  0
  191.3550  176.8760  136.8380 O   0  0  0  0  0  0  0  0  0  0  0  0
  192.1930  175.8840  136.2930 C   0  0  2  0  0  3  0  0  0  0  0  0
  193.9210  176.2570  136.7320 S   0  0  0  0  0  0  0  0  0  0  0  0
  194.5810  174.7670  135.9110 C   0  0  1  0  0  3  0  0  0  0  0  0
  196.8560  175.2540  135.0270 C   0  0  0  0  0  2  0  0  0  0  0  0
  195.5510  175.0940  134.8090 C   0  0  0  0  0  3  0  0  0  0  0  0
  195.1200  173.7400  136.9090 C   0  0  0  0  0  2  0  0  0  0  0  0
  195.5250  173.2360  139.2050 O   0  0  0  0  0  0  0  0  0  0  0  0
  196.5640  174.1150  138.8520 C   0  0  1  0  0  3  0  0  0  0  0  0
  195.1930  174.2830  138.3270 C   0  0  1  0  0  3  0  0  0  0  0  0
  197.9000  174.6770  140.7350 O   0  0  0  0  0  1  0  0  0  0  0  0
  196.7970  175.0890  139.9880 C   0  0  0  0  0  2  0  0  0  0  0  0
  192.0540  175.8770  134.7800 C   0  0  0  0  0  2  0  0  0  0  0  0
  191.2720  173.5400  134.9790 C   0  0  0  0  0  1  0  0  0  0  0  0
  190.9850  174.8890  134.3570 C   0  0  0  0  0  2  0  0  0  0  0  0
  1  4  1  1  0  0  0
  1 11  1  0  0  0  0
  3 18  1  6  0  0  0
  3  9  1  0  0  0  0
  5  1  1  0  0  0  0
  5 16  1  1  0  0  0
  5  3  1  0  0  0  0
  6  2  2  0  0  0  0
  6  7  1  0  0  0  0
  7 12  1  0  0  0  0
  8  7  1  0  0  0  0
  9 11  1  0  0  0  0
  9  6  1  1  0  0  0
 10  8  1  0  0  0  0
 11 10  1  1  0  0  0
 12 13  1  0  0  0  0
 12 14  1  0  0  0  0
 13 14  1  0  0  0  0
 15 16  1  0  0  0  0
 17 15  1  0  0  0  0
 17 16  1  0  0  0  0
 19 18  1  0  0  0  0
 20  1  1  0  0  0  0
 21 32  1  6  0  0  0
 21 22  1  0  0  0  0
 21 20  1  0  0  0  0
 23 25  1  6  0  0  0
 23 22  1  0  0  0  0
 23 26  1  0  0  0  0
 25 24  2  0  0  0  0
 28 27  1  0  0  0  0
 28 31  1  1  0  0  0
 29 26  1  6  0  0  0
 29 28  1  0  0  0  0
 29 27  1  0  0  0  0
 31 30  1  0  0  0  0
 34 32  1  0  0  0  0
 34 33  1  0  0  0  0
M  END
>  <MODEL>
9

>  <REMARK>
 VINA RESULT:      -4.5      2.819      7.412
  Name = 
  13 active torsions:
  status: ('A' for Active; 'I' for Inactive)
    1  A    between atoms: C_1  and  O_8
    2  A    between atoms: C_3  and  N_25
    3  A    between atoms: C_5  and  C_19
    4  A    between atoms: S_6  and  C_18
    5  A    between atoms: S_6  and  C_28
    6  A    between atoms: O_8  and  C_18
    7  A    between atoms: C_11  and  C_21
    8  A    between atoms: C_12  and  N_20
    9  A    between atoms: C_16  and  C_28
   10  A    between atoms: C_18  and  C_30
   11  A    between atoms: C_26  and  C_28
   12  A    between atoms: C_26  and  C_29
   13  A    between atoms: C_30  and  C_31
                            x       y       z     vdW  Elec       q    Type
                         _______ _______ _______ _____ _____    ______ ____

>  <TORSDO>
F 13

$$$$
