=
 OpenBabel10272401313D

 55 59  0  0  1  0  0  0  0  0999 V2000
  190.4540  177.1250  145.9800 C   0  0  0  0  0  2  0  0  0  0  0  0
  187.8450  177.6930  145.1450 C   0  0  2  0  0  3  0  0  0  0  0  0
  188.8900  177.2040  144.1380 C   0  0  0  0  0  2  0  0  0  0  0  0
  189.3200  177.6520  146.8600 C   0  0  0  0  0  2  0  0  0  0  0  0
  190.2400  177.5560  144.5950 N   0  0  0  0  0  0  0  0  0  0  0  0
  188.0960  177.1290  146.4100 O   0  0  0  0  0  0  0  0  0  0  0  0
  186.4740  177.2580  144.6580 C   0  0  0  0  0  2  0  0  0  0  0  0
  185.6830  178.4280  144.1050 C   0  0  2  0  0  3  0  0  0  0  0  0
  185.4110  179.3920  145.2450 C   0  0  0  0  0  1  0  0  0  0  0  0
  184.3690  177.9170  143.5280 C   0  0  0  0  0  2  0  0  0  0  0  0
  184.1450  178.3900  142.0940 C   0  0  0  0  0  2  0  0  0  0  0  0
  182.7410  178.9530  141.8620 C   0  0  2  0  0  3  0  0  0  0  0  0
  181.9350  180.2630  143.7220 O   0  0  0  0  0  1  0  0  0  0  0  0
  181.9240  178.9860  143.1620 C   0  0  1  0  0  3  0  0  0  0  0  0
  180.4790  178.5890  142.9050 C   0  0  0  0  0  1  0  0  0  0  0  0
  182.0240  178.0870  140.8280 C   0  0  0  0  0  2  0  0  0  0  0  0
  182.6900  176.0850  139.5370 C   0  0  2  0  0  3  0  0  0  0  0  0
  184.1360  179.1300  138.6380 O   0  0  0  0  0  1  0  0  0  0  0  0
  182.9660  177.5010  139.8630 N   0  0  0  0  0  0  0  0  0  0  0  0
  184.7100  174.7620  136.8530 C   0  0  0  0  0  3  0  0  0  0  0  0
  181.8900  178.9340  138.2950 O   0  0  0  0  0  1  0  0  0  0  0  0
  183.0670  178.2310  138.5790 C   0  0  0  0  0  0  0  0  0  0  0  0
  185.2460  176.0770  136.4530 C   0  0  0  0  0  3  0  0  0  0  0  0
  184.6160  177.2090  136.7850 C   0  0  0  0  0  3  0  0  0  0  0  0
  183.0610  175.9010  138.1520 N   0  0  0  0  0  0  0  0  0  0  0  0
  183.2760  177.1750  137.4880 C   0  0  1  0  0  3  0  0  0  0  0  0
  183.6740  174.6910  137.6900 C   0  0  0  0  0  3  0  0  0  0  0  0
  181.2360  175.6300  139.7540 C   0  0  0  0  0  2  0  0  0  0  0  0
  180.4680  175.8510  138.6080 O   0  0  0  0  0  1  0  0  0  0  0  0
  191.2490  176.9370  143.7240 C   0  0  0  0  0  2  0  0  0  0  0  0
  190.6840  176.2860  142.4870 C   0  0  0  0  0  3  0  0  0  0  0  0
  190.9550  176.7560  141.3140 N   0  0  0  0  0  0  0  0  0  0  0  0
  190.4440  176.1380  140.1910 O   0  0  0  0  0  0  0  0  0  0  0  0
  189.2550  176.1990  138.1250 C   0  0  0  0  0  2  0  0  0  0  0  0
  188.4880  178.3250  139.0900 C   0  0  1  0  0  3  0  0  0  0  0  0
  190.3920  176.8060  138.9240 C   0  0  1  0  0  0  0  0  0  0  0  0
  190.0070  178.2780  139.0770 C   0  0  0  0  0  2  0  0  0  0  0  0
  188.0410  177.0920  138.3100 C   0  0  0  0  0  2  0  0  0  0  0  0
  187.9910  178.2590  140.4670 N   0  0  0  0  0  0  0  0  0  0  0  0
  186.7070  178.6960  140.4620 O   0  0  0  0  0  1  0  0  0  0  0  0
  188.6930  179.1610  141.1950 O   0  0  0  0  0  1  0  0  0  0  0  0
  191.5880  176.6370  138.1900 O   0  0  0  0  0  0  0  0  0  0  0  0
  191.2740  176.3480  136.8490 C   0  0  0  0  0  2  0  0  0  0  0  0
  192.2130  175.2790  136.2860 C   0  0  1  0  0  3  0  0  0  0  0  0
  194.0460  174.1450  137.5780 C   0  0  0  0  0  1  0  0  0  0  0  0
  193.6390  175.4100  136.8390 C   0  0  0  0  0  3  0  0  0  0  0  0
  194.6490  175.6610  135.7310 C   0  0  0  0  0  1  0  0  0  0  0  0
  191.6540  173.8870  136.5740 C   0  0  0  0  0  2  0  0  0  0  0  0
  191.3040  173.1680  135.2800 C   0  0  0  0  0  2  0  0  0  0  0  0
  189.8520  172.7190  135.2900 C   0  0  0  0  0  2  0  0  0  0  0  0
  189.1920  173.0510  136.6170 C   0  0  0  0  0  2  0  0  0  0  0  0
  187.8070  172.4350  136.6910 C   0  0  0  0  0  2  0  0  0  0  0  0
  187.0530  170.5000  135.3640 C   0  0  0  0  0  2  0  0  0  0  0  0
  187.3620  171.9820  135.3180 C   0  0  0  0  0  3  0  0  0  0  0  0
  185.9240  171.5050  135.3970 C   0  0  0  0  0  2  0  0  0  0  0  0
  1  4  1  0  0  0  0
  2  7  1  6  0  0  0
  2  6  1  0  0  0  0
  3  5  1  0  0  0  0
  3  2  1  0  0  0  0
  5  1  1  0  0  0  0
  6  4  1  0  0  0  0
  8  7  1  0  0  0  0
  8  9  1  1  0  0  0
 10  8  1  0  0  0  0
 11 10  1  0  0  0  0
 12 16  1  6  0  0  0
 12 11  1  0  0  0  0
 12 14  1  0  0  0  0
 14 15  1  6  0  0  0
 14 13  1  0  0  0  0
 17 28  1  6  0  0  0
 17 19  1  0  0  0  0
 19 16  1  0  0  0  0
 20 27  2  0  0  0  0
 21 22  1  0  0  0  0
 22 18  1  0  0  0  0
 22 19  1  0  0  0  0
 23 24  2  0  0  0  0
 23 20  1  0  0  0  0
 25 17  1  0  0  0  0
 26 24  1  1  0  0  0
 26 25  1  0  0  0  0
 26 22  1  0  0  0  0
 27 25  1  0  0  0  0
 29 28  1  0  0  0  0
 30  5  1  0  0  0  0
 31 30  1  0  0  0  0
 32 31  2  0  0  0  0
 33 32  1  0  0  0  0
 34 38  1  0  0  0  0
 34 36  1  0  0  0  0
 35 39  1  1  0  0  0
 36 42  1  6  0  0  0
 36 37  1  0  0  0  0
 36 33  1  0  0  0  0
 37 35  1  0  0  0  0
 38 35  1  0  0  0  0
 39 41  1  0  0  0  0
 40 39  1  0  0  0  0
 43 42  1  0  0  0  0
 44 48  1  1  0  0  0
 44 46  1  0  0  0  0
 44 43  1  0  0  0  0
 46 45  1  0  0  0  0
 47 46  1  0  0  0  0
 49 50  1  0  0  0  0
 49 48  1  0  0  0  0
 50 51  1  0  0  0  0
 51 52  1  0  0  0  0
 53 55  1  0  0  0  0
 54 53  1  0  0  0  0
 54 55  1  0  0  0  0
 54 52  1  0  0  0  0
M  END
>  <MODEL>
1

>  <REMARK>
 VINA RESULT:      -6.0      0.000      0.000
  Name = 
  24 active torsions:
  status: ('A' for Active; 'I' for Inactive)
    1  A    between atoms: C_1  and  C_21
    2  A    between atoms: C_2  and  C_28
    3  A    between atoms: C_2  and  N_44
    4  A    between atoms: C_4  and  C_19
    5  A    between atoms: C_4  and  C_37
    6  A    between atoms: N_6  and  C_46
    7  A    between atoms: C_8  and  C_22
    8  A    between atoms: C_8  and  C_35
    9  A    between atoms: N_10  and  C_32
   10  A    between atoms: C_15  and  C_17
   11  A    between atoms: C_16  and  C_17
   12  A    between atoms: C_16  and  C_26
   13  A    between atoms: C_17  and  C_36
   14  A    between atoms: C_20  and  C_22
   15  A    between atoms: C_22  and  C_46
   16  A    between atoms: C_26  and  C_45
   17  A    between atoms: C_27  and  C_54
   18  A    between atoms: N_33  and  O_49
   19  A    between atoms: C_34  and  O_49
   20  A    between atoms: C_34  and  O_52
   21  A    between atoms: C_35  and  C_43
   22  A    between atoms: C_36  and  O_52
   23  A    between atoms: C_37  and  C_45
   24  A    between atoms: C_43  and  C_54
                            x       y       z     vdW  Elec       q    Type
                         _______ _______ _______ _____ _____    ______ ____

>  <TORSDO>
F 24

$$$$
=
 OpenBabel10272401313D

 55 59  0  0  1  0  0  0  0  0999 V2000
  189.0620  177.1530  145.3270 C   0  0  0  0  0  2  0  0  0  0  0  0
  186.5700  178.1130  144.4940 C   0  0  2  0  0  3  0  0  0  0  0  0
  187.5940  177.6230  143.4660 C   0  0  0  0  0  2  0  0  0  0  0  0
  187.9610  177.7040  146.2320 C   0  0  0  0  0  2  0  0  0  0  0  0
  188.9550  177.7610  143.9970 N   0  0  0  0  0  0  0  0  0  0  0  0
  186.7050  177.3830  145.6900 O   0  0  0  0  0  0  0  0  0  0  0  0
  185.1810  177.8990  143.9220 C   0  0  0  0  0  2  0  0  0  0  0  0
  184.6680  179.1460  143.2260 C   0  0  2  0  0  3  0  0  0  0  0  0
  184.0450  180.0480  144.2760 C   0  0  0  0  0  1  0  0  0  0  0  0
  183.6220  178.7490  142.1920 C   0  0  0  0  0  2  0  0  0  0  0  0
  184.1720  177.7660  141.1610 C   0  0  0  0  0  2  0  0  0  0  0  0
  183.9430  178.2230  139.7180 C   0  0  2  0  0  3  0  0  0  0  0  0
  184.1830  180.4910  138.9300 O   0  0  0  0  0  1  0  0  0  0  0  0
  183.3550  179.6400  139.6610 C   0  0  1  0  0  3  0  0  0  0  0  0
  181.9820  179.6320  139.0080 C   0  0  0  0  0  1  0  0  0  0  0  0
  182.9900  177.2450  139.0350 C   0  0  0  0  0  2  0  0  0  0  0  0
  183.0460  174.9140  138.2090 C   0  0  2  0  0  3  0  0  0  0  0  0
  185.2940  177.1740  136.7920 O   0  0  0  0  0  1  0  0  0  0  0  0
  183.7170  176.2300  138.2570 N   0  0  0  0  0  0  0  0  0  0  0  0
  184.5810  172.5490  135.9540 C   0  0  0  0  0  3  0  0  0  0  0  0
  183.0830  177.5500  136.3790 O   0  0  0  0  0  1  0  0  0  0  0  0
  184.0120  176.6200  136.8590 C   0  0  0  0  0  0  0  0  0  0  0  0
  185.4670  173.5470  135.3260 C   0  0  0  0  0  3  0  0  0  0  0  0
  185.1890  174.8540  135.3910 C   0  0  0  0  0  3  0  0  0  0  0  0
  183.3370  174.3490  136.9110 N   0  0  0  0  0  0  0  0  0  0  0  0
  183.9020  175.3450  136.0150 C   0  0  1  0  0  3  0  0  0  0  0  0
  183.5740  172.9470  136.7340 C   0  0  0  0  0  3  0  0  0  0  0  0
  181.5230  174.9420  138.4370 C   0  0  0  0  0  2  0  0  0  0  0  0
  181.0750  176.2460  138.6570 O   0  0  0  0  0  1  0  0  0  0  0  0
  189.9230  177.1320  143.0870 C   0  0  0  0  0  2  0  0  0  0  0  0
  189.3280  176.6440  141.7920 C   0  0  0  0  0  3  0  0  0  0  0  0
  190.0520  176.5600  140.7240 N   0  0  0  0  0  0  0  0  0  0  0  0
  189.4970  176.0950  139.5500 O   0  0  0  0  0  0  0  0  0  0  0  0
  189.3910  175.3540  137.2860 C   0  0  0  0  0  2  0  0  0  0  0  0
  189.3330  177.7840  136.9140 C   0  0  1  0  0  3  0  0  0  0  0  0
  190.2550  176.0260  138.3360 C   0  0  1  0  0  0  0  0  0  0  0  0
  190.5370  177.4160  137.7660 C   0  0  0  0  0  2  0  0  0  0  0  0
  188.7390  176.4520  136.4640 C   0  0  0  0  0  2  0  0  0  0  0  0
  188.3560  178.5290  137.7120 N   0  0  0  0  0  0  0  0  0  0  0  0
  187.7360  179.4080  136.8880 O   0  0  0  0  0  1  0  0  0  0  0  0
  189.0490  179.2740  138.6080 O   0  0  0  0  0  1  0  0  0  0  0  0
  191.4330  175.2600  138.4950 O   0  0  0  0  0  0  0  0  0  0  0  0
  192.5340  175.9980  138.0240 C   0  0  0  0  0  2  0  0  0  0  0  0
  193.3930  175.1560  137.0790 C   0  0  1  0  0  3  0  0  0  0  0  0
  195.1110  176.0020  135.4500 C   0  0  0  0  0  1  0  0  0  0  0  0
  193.6230  175.8500  135.7300 C   0  0  0  0  0  3  0  0  0  0  0  0
  193.0000  175.0700  134.5840 C   0  0  0  0  0  1  0  0  0  0  0  0
  194.7280  174.8230  137.7430 C   0  0  0  0  0  2  0  0  0  0  0  0
  194.7970  173.3470  138.1060 C   0  0  0  0  0  2  0  0  0  0  0  0
  195.0900  172.5030  136.8770 C   0  0  0  0  0  2  0  0  0  0  0  0
  195.6100  171.1320  137.2740 C   0  0  0  0  0  2  0  0  0  0  0  0
  194.4990  170.1020  137.2080 C   0  0  0  0  0  2  0  0  0  0  0  0
  194.8290  168.7210  139.2230 C   0  0  0  0  0  2  0  0  0  0  0  0
  194.9920  168.7660  137.7180 C   0  0  0  0  0  3  0  0  0  0  0  0
  193.8310  168.0130  138.3360 C   0  0  0  0  0  2  0  0  0  0  0  0
  1  4  1  0  0  0  0
  2  7  1  6  0  0  0
  2  6  1  0  0  0  0
  3  5  1  0  0  0  0
  3  2  1  0  0  0  0
  5  1  1  0  0  0  0
  6  4  1  0  0  0  0
  8  7  1  0  0  0  0
  8  9  1  1  0  0  0
 10  8  1  0  0  0  0
 11 10  1  0  0  0  0
 12 16  1  1  0  0  0
 12 11  1  0  0  0  0
 13 14  1  0  0  0  0
 14 15  1  6  0  0  0
 14 12  1  0  0  0  0
 17 19  1  0  0  0  0
 17 28  1  6  0  0  0
 18 22  1  0  0  0  0
 19 16  1  0  0  0  0
 20 27  2  0  0  0  0
 21 22  1  0  0  0  0
 22 19  1  0  0  0  0
 23 24  2  0  0  0  0
 23 20  1  0  0  0  0
 25 17  1  0  0  0  0
 26 24  1  1  0  0  0
 26 22  1  0  0  0  0
 26 25  1  0  0  0  0
 27 25  1  0  0  0  0
 28 29  1  0  0  0  0
 30  5  1  0  0  0  0
 31 30  1  0  0  0  0
 32 31  2  0  0  0  0
 33 32  1  0  0  0  0
 34 36  1  0  0  0  0
 35 39  1  1  0  0  0
 35 37  1  0  0  0  0
 36 42  1  1  0  0  0
 36 33  1  0  0  0  0
 37 36  1  0  0  0  0
 38 35  1  0  0  0  0
 38 34  1  0  0  0  0
 39 41  1  0  0  0  0
 40 39  1  0  0  0  0
 43 42  1  0  0  0  0
 44 48  1  1  0  0  0
 44 43  1  0  0  0  0
 45 46  1  0  0  0  0
 46 44  1  0  0  0  0
 47 46  1  0  0  0  0
 48 49  1  0  0  0  0
 50 51  1  0  0  0  0
 50 49  1  0  0  0  0
 52 51  1  0  0  0  0
 52 54  1  0  0  0  0
 54 55  1  0  0  0  0
 54 53  1  0  0  0  0
 55 53  1  0  0  0  0
M  END
>  <MODEL>
2

>  <REMARK>
 VINA RESULT:      -5.2      2.183      3.396
  Name = 
  24 active torsions:
  status: ('A' for Active; 'I' for Inactive)
    1  A    between atoms: C_1  and  C_21
    2  A    between atoms: C_2  and  C_28
    3  A    between atoms: C_2  and  N_44
    4  A    between atoms: C_4  and  C_19
    5  A    between atoms: C_4  and  C_37
    6  A    between atoms: N_6  and  C_46
    7  A    between atoms: C_8  and  C_22
    8  A    between atoms: C_8  and  C_35
    9  A    between atoms: N_10  and  C_32
   10  A    between atoms: C_15  and  C_17
   11  A    between atoms: C_16  and  C_17
   12  A    between atoms: C_16  and  C_26
   13  A    between atoms: C_17  and  C_36
   14  A    between atoms: C_20  and  C_22
   15  A    between atoms: C_22  and  C_46
   16  A    between atoms: C_26  and  C_45
   17  A    between atoms: C_27  and  C_54
   18  A    between atoms: N_33  and  O_49
   19  A    between atoms: C_34  and  O_49
   20  A    between atoms: C_34  and  O_52
   21  A    between atoms: C_35  and  C_43
   22  A    between atoms: C_36  and  O_52
   23  A    between atoms: C_37  and  C_45
   24  A    between atoms: C_43  and  C_54
                            x       y       z     vdW  Elec       q    Type
                         _______ _______ _______ _____ _____    ______ ____

>  <TORSDO>
F 24

$$$$
=
 OpenBabel10272401313D

 55 59  0  0  1  0  0  0  0  0999 V2000
  181.3720  178.9160  138.9070 C   0  0  0  0  0  2  0  0  0  0  0  0
  182.3730  178.0870  141.3850 C   0  0  2  0  0  3  0  0  0  0  0  0
  182.9670  177.5340  140.0850 C   0  0  0  0  0  2  0  0  0  0  0  0
  180.8580  179.3530  140.2790 C   0  0  0  0  0  2  0  0  0  0  0  0
  181.9700  177.5800  139.0100 N   0  0  0  0  0  0  0  0  0  0  0  0
  181.9310  179.4090  141.1850 O   0  0  0  0  0  0  0  0  0  0  0  0
  183.4560  178.0700  142.4480 C   0  0  0  0  0  2  0  0  0  0  0  0
  184.2910  179.3350  142.4120 C   0  0  2  0  0  3  0  0  0  0  0  0
  185.4490  179.1080  141.4570 C   0  0  0  0  0  1  0  0  0  0  0  0
  184.8180  179.6300  143.8100 C   0  0  0  0  0  2  0  0  0  0  0  0
  186.1530  178.9400  144.0820 C   0  0  0  0  0  2  0  0  0  0  0  0
  186.1040  177.9990  145.2890 C   0  0  2  0  0  3  0  0  0  0  0  0
  184.5950  178.4120  147.1260 O   0  0  0  0  0  1  0  0  0  0  0  0
  185.8340  178.7650  146.5920 C   0  0  1  0  0  3  0  0  0  0  0  0
  186.9040  178.4660  147.6290 C   0  0  0  0  0  1  0  0  0  0  0  0
  187.4370  177.2610  145.3960 C   0  0  0  0  0  2  0  0  0  0  0  0
  189.7510  177.6020  144.5920 C   0  0  2  0  0  3  0  0  0  0  0  0
  187.2660  177.1550  142.1850 O   0  0  0  0  0  1  0  0  0  0  0  0
  188.3130  177.5530  144.2510 N   0  0  0  0  0  0  0  0  0  0  0  0
  191.9430  177.8790  141.7370 C   0  0  0  0  0  3  0  0  0  0  0  0
  187.7110  175.3650  143.5280 O   0  0  0  0  0  1  0  0  0  0  0  0
  188.1680  176.6210  143.1100 C   0  0  0  0  0  0  0  0  0  0  0  0
  190.8790  177.6140  140.7490 C   0  0  0  0  0  3  0  0  0  0  0  0
  189.7470  176.9950  141.1030 C   0  0  0  0  0  3  0  0  0  0  0  0
  190.4660  177.0960  143.4430 N   0  0  0  0  0  0  0  0  0  0  0  0
  189.5650  176.4490  142.5030 C   0  0  1  0  0  3  0  0  0  0  0  0
  191.7220  177.6480  143.0320 C   0  0  0  0  0  3  0  0  0  0  0  0
  190.1580  176.8120  145.8500 C   0  0  0  0  0  2  0  0  0  0  0  0
  190.2670  177.6570  146.9560 O   0  0  0  0  0  1  0  0  0  0  0  0
  182.5880  177.2170  137.7270 C   0  0  0  0  0  2  0  0  0  0  0  0
  183.8540  176.4100  137.8570 C   0  0  0  0  0  3  0  0  0  0  0  0
  183.9500  175.2420  137.3100 N   0  0  0  0  0  0  0  0  0  0  0  0
  185.1220  174.5230  137.4230 O   0  0  0  0  0  0  0  0  0  0  0  0
  186.9290  173.1720  136.6510 C   0  0  0  0  0  2  0  0  0  0  0  0
  185.1230  172.2620  135.2530 C   0  0  1  0  0  3  0  0  0  0  0  0
  185.9770  174.2980  136.2950 C   0  0  1  0  0  0  0  0  0  0  0  0
  185.1960  173.7720  135.0910 C   0  0  0  0  0  2  0  0  0  0  0  0
  186.3440  171.8880  136.0870 C   0  0  0  0  0  2  0  0  0  0  0  0
  183.8950  171.8870  135.9590 N   0  0  0  0  0  0  0  0  0  0  0  0
  183.8360  170.5330  135.9930 O   0  0  0  0  0  1  0  0  0  0  0  0
  182.8500  172.2920  135.1970 O   0  0  0  0  0  1  0  0  0  0  0  0
  186.7450  175.4430  135.9800 O   0  0  0  0  0  0  0  0  0  0  0  0
  187.6810  175.6710  137.0040 C   0  0  0  0  0  2  0  0  0  0  0  0
  188.5530  176.8870  136.6860 C   0  0  1  0  0  3  0  0  0  0  0  0
  187.2400  177.9640  138.5400 C   0  0  0  0  0  1  0  0  0  0  0  0
  187.9390  178.1930  137.2080 C   0  0  0  0  0  3  0  0  0  0  0  0
  188.9940  179.2700  137.4030 C   0  0  0  0  0  1  0  0  0  0  0  0
  189.9560  176.6900  137.2590 C   0  0  0  0  0  2  0  0  0  0  0  0
  190.2070  175.2250  137.5800 C   0  0  0  0  0  2  0  0  0  0  0  0
  191.6900  174.9660  137.7900 C   0  0  0  0  0  2  0  0  0  0  0  0
  192.4840  176.2560  137.6820 C   0  0  0  0  0  2  0  0  0  0  0  0
  193.7610  176.0300  136.8950 C   0  0  0  0  0  2  0  0  0  0  0  0
  194.0190  175.9210  134.4450 C   0  0  0  0  0  2  0  0  0  0  0  0
  193.4760  175.2000  135.6620 C   0  0  0  0  0  3  0  0  0  0  0  0
  194.7900  174.7660  135.0430 C   0  0  0  0  0  2  0  0  0  0  0  0
  1  5  1  0  0  0  0
  1  4  1  0  0  0  0
  2  7  1  1  0  0  0
  3  2  1  0  0  0  0
  4  6  1  0  0  0  0
  5  3  1  0  0  0  0
  6  2  1  0  0  0  0
  8  9  1  6  0  0  0
  8  7  1  0  0  0  0
  8 10  1  0  0  0  0
 10 11  1  0  0  0  0
 12 11  1  6  0  0  0
 12 16  1  0  0  0  0
 12 14  1  0  0  0  0
 14 13  1  0  0  0  0
 14 15  1  1  0  0  0
 17 28  1  1  0  0  0
 18 22  1  0  0  0  0
 19 17  1  0  0  0  0
 19 16  1  0  0  0  0
 20 27  2  0  0  0  0
 22 21  1  0  0  0  0
 22 19  1  0  0  0  0
 23 24  2  0  0  0  0
 23 20  1  0  0  0  0
 25 17  1  0  0  0  0
 26 24  1  6  0  0  0
 26 22  1  0  0  0  0
 26 25  1  0  0  0  0
 27 25  1  0  0  0  0
 28 29  1  0  0  0  0
 30 31  1  0  0  0  0
 30  5  1  0  0  0  0
 32 33  1  0  0  0  0
 32 31  2  0  0  0  0
 35 39  1  1  0  0  0
 35 38  1  0  0  0  0
 36 42  1  6  0  0  0
 36 34  1  0  0  0  0
 36 33  1  0  0  0  0
 37 35  1  0  0  0  0
 37 36  1  0  0  0  0
 38 34  1  0  0  0  0
 39 40  1  0  0  0  0
 41 39  1  0  0  0  0
 42 43  1  0  0  0  0
 44 43  1  1  0  0  0
 44 46  1  0  0  0  0
 44 48  1  0  0  0  0
 46 47  1  0  0  0  0
 46 45  1  0  0  0  0
 48 49  1  0  0  0  0
 49 50  1  0  0  0  0
 51 50  1  0  0  0  0
 52 51  1  0  0  0  0
 53 55  1  0  0  0  0
 53 54  1  0  0  0  0
 54 52  1  0  0  0  0
 55 54  1  0  0  0  0
M  END
>  <MODEL>
3

>  <REMARK>
 VINA RESULT:      -5.2      2.284      7.464
  Name = 
  24 active torsions:
  status: ('A' for Active; 'I' for Inactive)
    1  A    between atoms: C_1  and  C_21
    2  A    between atoms: C_2  and  C_28
    3  A    between atoms: C_2  and  N_44
    4  A    between atoms: C_4  and  C_19
    5  A    between atoms: C_4  and  C_37
    6  A    between atoms: N_6  and  C_46
    7  A    between atoms: C_8  and  C_22
    8  A    between atoms: C_8  and  C_35
    9  A    between atoms: N_10  and  C_32
   10  A    between atoms: C_15  and  C_17
   11  A    between atoms: C_16  and  C_17
   12  A    between atoms: C_16  and  C_26
   13  A    between atoms: C_17  and  C_36
   14  A    between atoms: C_20  and  C_22
   15  A    between atoms: C_22  and  C_46
   16  A    between atoms: C_26  and  C_45
   17  A    between atoms: C_27  and  C_54
   18  A    between atoms: N_33  and  O_49
   19  A    between atoms: C_34  and  O_49
   20  A    between atoms: C_34  and  O_52
   21  A    between atoms: C_35  and  C_43
   22  A    between atoms: C_36  and  O_52
   23  A    between atoms: C_37  and  C_45
   24  A    between atoms: C_43  and  C_54
                            x       y       z     vdW  Elec       q    Type
                         _______ _______ _______ _____ _____    ______ ____

>  <TORSDO>
F 24

$$$$
=
 OpenBabel10272401313D

 55 59  0  0  1  0  0  0  0  0999 V2000
  181.4630  179.3630  138.2800 C   0  0  0  0  0  2  0  0  0  0  0  0
  182.3370  176.9540  137.1580 C   0  0  2  0  0  3  0  0  0  0  0  0
  182.6630  177.2920  138.6160 C   0  0  0  0  0  2  0  0  0  0  0  0
  181.2440  178.9090  136.8370 C   0  0  0  0  0  2  0  0  0  0  0  0
  182.6850  178.7470  138.8080 N   0  0  0  0  0  0  0  0  0  0  0  0
  181.0940  177.5130  136.8020 O   0  0  0  0  0  0  0  0  0  0  0  0
  182.2720  175.4430  137.0220 C   0  0  0  0  0  2  0  0  0  0  0  0
  183.3900  174.9150  136.1440 C   0  0  2  0  0  3  0  0  0  0  0  0
  183.5070  173.4210  136.3790 C   0  0  0  0  0  1  0  0  0  0  0  0
  184.6940  175.6070  136.5210 C   0  0  0  0  0  2  0  0  0  0  0  0
  185.8740  175.1080  135.6900 C   0  0  0  0  0  2  0  0  0  0  0  0
  187.1390  175.9480  135.8850 C   0  0  2  0  0  3  0  0  0  0  0  0
  185.7710  177.4920  134.6320 O   0  0  0  0  0  1  0  0  0  0  0  0
  186.9510  177.3810  135.3660 C   0  0  1  0  0  3  0  0  0  0  0  0
  186.8940  178.3720  136.5170 C   0  0  0  0  0  1  0  0  0  0  0  0
  188.2950  175.2810  135.1410 C   0  0  0  0  0  2  0  0  0  0  0  0
  190.3100  173.9900  135.7670 C   0  0  2  0  0  3  0  0  0  0  0  0
  190.1520  177.3190  136.7990 O   0  0  0  0  0  1  0  0  0  0  0  0
  189.5080  175.2160  135.9700 N   0  0  0  0  0  0  0  0  0  0  0  0
  193.5010  174.0090  137.4540 C   0  0  0  0  0  3  0  0  0  0  0  0
  190.2920  176.9600  134.5510 O   0  0  0  0  0  1  0  0  0  0  0  0
  190.4260  176.3670  135.8120 C   0  0  0  0  0  0  0  0  0  0  0  0
  193.4340  175.4390  137.8120 C   0  0  0  0  0  3  0  0  0  0  0  0
  192.6320  176.2790  137.1470 C   0  0  0  0  0  3  0  0  0  0  0  0
  191.6940  174.3690  135.9350 N   0  0  0  0  0  0  0  0  0  0  0  0
  191.8500  175.8140  135.9390 C   0  0  1  0  0  3  0  0  0  0  0  0
  192.6420  173.5020  136.5680 C   0  0  0  0  0  3  0  0  0  0  0  0
  190.1190  173.2960  134.4050 C   0  0  0  0  0  2  0  0  0  0  0  0
  189.6890  171.9780  134.5730 O   0  0  0  0  0  1  0  0  0  0  0  0
  182.8230  179.0700  140.2350 C   0  0  0  0  0  2  0  0  0  0  0  0
  184.0210  178.4410  140.8990 C   0  0  0  0  0  3  0  0  0  0  0  0
  183.9480  178.0080  142.1140 N   0  0  0  0  0  0  0  0  0  0  0  0
  185.0490  177.4180  142.7020 O   0  0  0  0  0  0  0  0  0  0  0  0
  185.8310  179.6550  142.9720 C   0  0  0  0  0  2  0  0  0  0  0  0
  185.6570  179.0040  145.3360 C   0  0  1  0  0  3  0  0  0  0  0  0
  186.1920  178.1870  143.0980 C   0  0  1  0  0  0  0  0  0  0  0  0
  186.5130  178.0000  144.5810 C   0  0  0  0  0  2  0  0  0  0  0  0
  185.4030  180.1370  144.3460 C   0  0  0  0  0  2  0  0  0  0  0  0
  184.3900  178.3900  145.7380 N   0  0  0  0  0  0  0  0  0  0  0  0
  183.3950  179.2560  145.4260 O   0  0  0  0  0  1  0  0  0  0  0  0
  184.3970  178.2940  147.0900 O   0  0  0  0  0  1  0  0  0  0  0  0
  187.3100  177.9340  142.2700 O   0  0  0  0  0  0  0  0  0  0  0  0
  187.9990  176.8070  142.7520 C   0  0  0  0  0  2  0  0  0  0  0  0
  189.3360  176.6340  142.0300 C   0  0  1  0  0  3  0  0  0  0  0  0
  190.8680  177.4860  140.2270 C   0  0  0  0  0  1  0  0  0  0  0  0
  189.4750  177.5830  140.8310 C   0  0  0  0  0  3  0  0  0  0  0  0
  188.4610  177.2650  139.7440 C   0  0  0  0  0  1  0  0  0  0  0  0
  190.4910  176.8370  143.0080 C   0  0  0  0  0  2  0  0  0  0  0  0
  190.5130  178.2670  143.5270 C   0  0  0  0  0  2  0  0  0  0  0  0
  190.1250  178.3130  144.9960 C   0  0  0  0  0  2  0  0  0  0  0  0
  190.8840  177.2620  145.7880 C   0  0  0  0  0  2  0  0  0  0  0  0
  190.1410  176.9210  147.0670 C   0  0  0  0  0  2  0  0  0  0  0  0
  187.9690  177.2170  148.1940 C   0  0  0  0  0  2  0  0  0  0  0  0
  188.9720  177.8610  147.2590 C   0  0  0  0  0  3  0  0  0  0  0  0
  188.9090  178.2810  148.7150 C   0  0  0  0  0  2  0  0  0  0  0  0
  1  5  1  0  0  0  0
  2  7  1  1  0  0  0
  2  3  1  0  0  0  0
  3  5  1  0  0  0  0
  4  1  1  0  0  0  0
  5 30  1  0  0  0  0
  6  4  1  0  0  0  0
  6  2  1  0  0  0  0
  8  9  1  1  0  0  0
  8 10  1  0  0  0  0
  8  7  1  0  0  0  0
 11 12  1  0  0  0  0
 11 10  1  0  0  0  0
 12 16  1  6  0  0  0
 13 14  1  0  0  0  0
 14 12  1  0  0  0  0
 14 15  1  1  0  0  0
 16 19  1  0  0  0  0
 17 28  1  6  0  0  0
 17 25  1  0  0  0  0
 17 19  1  0  0  0  0
 20 23  1  0  0  0  0
 21 22  1  0  0  0  0
 22 26  1  0  0  0  0
 22 19  1  0  0  0  0
 22 18  1  0  0  0  0
 24 23  2  0  0  0  0
 25 26  1  0  0  0  0
 25 27  1  0  0  0  0
 26 24  1  1  0  0  0
 27 20  2  0  0  0  0
 28 29  1  0  0  0  0
 30 31  1  0  0  0  0
 31 32  2  0  0  0  0
 32 33  1  0  0  0  0
 33 36  1  0  0  0  0
 34 36  1  0  0  0  0
 34 38  1  0  0  0  0
 35 39  1  6  0  0  0
 36 42  1  6  0  0  0
 36 37  1  0  0  0  0
 37 35  1  0  0  0  0
 38 35  1  0  0  0  0
 39 41  1  0  0  0  0
 40 39  1  0  0  0  0
 42 43  1  0  0  0  0
 44 43  1  1  0  0  0
 44 48  1  0  0  0  0
 45 46  1  0  0  0  0
 46 44  1  0  0  0  0
 47 46  1  0  0  0  0
 48 49  1  0  0  0  0
 49 50  1  0  0  0  0
 50 51  1  0  0  0  0
 51 52  1  0  0  0  0
 52 54  1  0  0  0  0
 53 55  1  0  0  0  0
 54 53  1  0  0  0  0
 54 55  1  0  0  0  0
M  END
>  <MODEL>
4

>  <REMARK>
 VINA RESULT:      -5.2      2.437      9.049
  Name = 
  24 active torsions:
  status: ('A' for Active; 'I' for Inactive)
    1  A    between atoms: C_1  and  C_21
    2  A    between atoms: C_2  and  C_28
    3  A    between atoms: C_2  and  N_44
    4  A    between atoms: C_4  and  C_19
    5  A    between atoms: C_4  and  C_37
    6  A    between atoms: N_6  and  C_46
    7  A    between atoms: C_8  and  C_22
    8  A    between atoms: C_8  and  C_35
    9  A    between atoms: N_10  and  C_32
   10  A    between atoms: C_15  and  C_17
   11  A    between atoms: C_16  and  C_17
   12  A    between atoms: C_16  and  C_26
   13  A    between atoms: C_17  and  C_36
   14  A    between atoms: C_20  and  C_22
   15  A    between atoms: C_22  and  C_46
   16  A    between atoms: C_26  and  C_45
   17  A    between atoms: C_27  and  C_54
   18  A    between atoms: N_33  and  O_49
   19  A    between atoms: C_34  and  O_49
   20  A    between atoms: C_34  and  O_52
   21  A    between atoms: C_35  and  C_43
   22  A    between atoms: C_36  and  O_52
   23  A    between atoms: C_37  and  C_45
   24  A    between atoms: C_43  and  C_54
                            x       y       z     vdW  Elec       q    Type
                         _______ _______ _______ _____ _____    ______ ____

>  <TORSDO>
F 24

$$$$
=
 OpenBabel10272401313D

 55 59  0  0  1  0  0  0  0  0999 V2000
  191.9410  178.1930  143.0150 C   0  0  0  0  0  2  0  0  0  0  0  0
  189.1900  178.1260  143.5240 C   0  0  2  0  0  3  0  0  0  0  0  0
  189.8210  177.1300  142.5460 C   0  0  0  0  0  2  0  0  0  0  0  0
  191.1710  179.1410  143.9350 C   0  0  0  0  0  2  0  0  0  0  0  0
  191.0460  177.6940  141.9660 N   0  0  0  0  0  0  0  0  0  0  0  0
  190.1100  178.4460  144.5410 O   0  0  0  0  0  0  0  0  0  0  0  0
  187.9620  177.4780  144.1370 C   0  0  0  0  0  2  0  0  0  0  0  0
  186.7620  177.5780  143.2140 C   0  0  2  0  0  3  0  0  0  0  0  0
  187.1120  178.5350  142.0900 C   0  0  0  0  0  1  0  0  0  0  0  0
  185.5680  178.1070  143.9990 C   0  0  0  0  0  2  0  0  0  0  0  0
  184.9000  179.2920  143.3050 C   0  0  0  0  0  2  0  0  0  0  0  0
  183.4460  179.0150  142.9170 C   0  0  2  0  0  3  0  0  0  0  0  0
  182.9710  179.2400  145.2730 O   0  0  0  0  0  1  0  0  0  0  0  0
  182.6210  178.5360  144.1210 C   0  0  1  0  0  3  0  0  0  0  0  0
  181.1340  178.7330  143.8730 C   0  0  0  0  0  1  0  0  0  0  0  0
  183.4200  177.9490  141.8230 C   0  0  0  0  0  2  0  0  0  0  0  0
  183.0330  179.2320  139.7430 C   0  0  2  0  0  3  0  0  0  0  0  0
  180.7050  176.7670  140.5660 O   0  0  0  0  0  1  0  0  0  0  0  0
  182.4790  178.2980  140.7470 N   0  0  0  0  0  0  0  0  0  0  0  0
  180.9070  179.7540  136.8730 C   0  0  0  0  0  3  0  0  0  0  0  0
  182.8050  176.0450  140.0470 O   0  0  0  0  0  1  0  0  0  0  0  0
  181.9320  177.1380  140.0070 C   0  0  0  0  0  0  0  0  0  0  0  0
  179.9820  178.6550  137.2130 C   0  0  0  0  0  3  0  0  0  0  0  0
  180.3580  177.6660  138.0310 C   0  0  0  0  0  3  0  0  0  0  0  0
  182.4430  178.8710  138.4740 N   0  0  0  0  0  0  0  0  0  0  0  0
  181.7770  177.5810  138.5480 C   0  0  1  0  0  3  0  0  0  0  0  0
  182.0770  179.8600  137.5050 C   0  0  0  0  0  3  0  0  0  0  0  0
  184.5680  179.2370  139.6240 C   0  0  0  0  0  2  0  0  0  0  0  0
  184.9920  180.1740  138.6790 O   0  0  0  0  0  1  0  0  0  0  0  0
  191.7440  176.6780  141.1650 C   0  0  0  0  0  2  0  0  0  0  0  0
  191.1350  176.4340  139.8080 C   0  0  0  0  0  3  0  0  0  0  0  0
  191.7020  176.8910  138.7400 N   0  0  0  0  0  0  0  0  0  0  0  0
  191.1410  176.6440  137.5030 O   0  0  0  0  0  0  0  0  0  0  0  0
  191.3760  175.4890  135.4310 C   0  0  0  0  0  2  0  0  0  0  0  0
  193.5040  174.8540  136.4850 C   0  0  1  0  0  3  0  0  0  0  0  0
  191.1500  175.3340  136.9220 C   0  0  1  0  0  0  0  0  0  0  0  0
  192.3430  174.5100  137.4050 C   0  0  0  0  0  2  0  0  0  0  0  0
  192.8590  175.2880  135.1730 C   0  0  0  0  0  2  0  0  0  0  0  0
  194.2900  175.9530  137.0500 N   0  0  0  0  0  0  0  0  0  0  0  0
  194.5760  176.8150  136.0440 O   0  0  0  0  0  1  0  0  0  0  0  0
  195.4760  175.4370  137.4540 O   0  0  0  0  0  1  0  0  0  0  0  0
  189.9200  174.6640  137.1160 O   0  0  0  0  0  0  0  0  0  0  0  0
  189.1180  174.8250  135.9720 C   0  0  0  0  0  2  0  0  0  0  0  0
  187.7380  175.3710  136.3440 C   0  0  1  0  0  3  0  0  0  0  0  0
  188.5360  177.6850  135.7730 C   0  0  0  0  0  1  0  0  0  0  0  0
  187.7970  176.8370  136.7960 C   0  0  0  0  0  3  0  0  0  0  0  0
  186.4070  177.4220  136.9860 C   0  0  0  0  0  1  0  0  0  0  0  0
  186.7770  175.2140  135.1670 C   0  0  0  0  0  2  0  0  0  0  0  0
  185.9800  173.9240  135.2900 C   0  0  0  0  0  2  0  0  0  0  0  0
  184.9970  174.0060  136.4450 C   0  0  0  0  0  2  0  0  0  0  0  0
  184.9920  172.7150  137.2450 C   0  0  0  0  0  2  0  0  0  0  0  0
  183.6590  172.0050  137.1010 C   0  0  0  0  0  2  0  0  0  0  0  0
  181.6640  172.4500  135.7250 C   0  0  0  0  0  2  0  0  0  0  0  0
  182.5620  173.0050  136.8100 C   0  0  0  0  0  3  0  0  0  0  0  0
  181.2240  172.3910  137.1700 C   0  0  0  0  0  2  0  0  0  0  0  0
  1  4  1  0  0  0  0
  2  7  1  1  0  0  0
  2  6  1  0  0  0  0
  3  2  1  0  0  0  0
  4  6  1  0  0  0  0
  5  3  1  0  0  0  0
  5  1  1  0  0  0  0
  8  9  1  6  0  0  0
  8 10  1  0  0  0  0
  8  7  1  0  0  0  0
 11 10  1  0  0  0  0
 12 16  1  6  0  0  0
 12 11  1  0  0  0  0
 12 14  1  0  0  0  0
 14 15  1  6  0  0  0
 14 13  1  0  0  0  0
 17 28  1  6  0  0  0
 17 19  1  0  0  0  0
 19 16  1  0  0  0  0
 20 23  1  0  0  0  0
 20 27  2  0  0  0  0
 22 21  1  0  0  0  0
 22 18  1  0  0  0  0
 22 19  1  0  0  0  0
 23 24  2  0  0  0  0
 25 26  1  0  0  0  0
 25 17  1  0  0  0  0
 26 24  1  1  0  0  0
 26 22  1  0  0  0  0
 27 25  1  0  0  0  0
 29 28  1  0  0  0  0
 30  5  1  0  0  0  0
 31 30  1  0  0  0  0
 32 31  2  0  0  0  0
 33 32  1  0  0  0  0
 34 36  1  0  0  0  0
 35 39  1  1  0  0  0
 35 37  1  0  0  0  0
 36 42  1  1  0  0  0
 36 37  1  0  0  0  0
 36 33  1  0  0  0  0
 38 34  1  0  0  0  0
 38 35  1  0  0  0  0
 39 41  1  0  0  0  0
 40 39  1  0  0  0  0
 43 44  1  0  0  0  0
 43 42  1  0  0  0  0
 44 48  1  6  0  0  0
 44 46  1  0  0  0  0
 45 46  1  0  0  0  0
 46 47  1  0  0  0  0
 48 49  1  0  0  0  0
 49 50  1  0  0  0  0
 50 51  1  0  0  0  0
 52 51  1  0  0  0  0
 53 54  1  0  0  0  0
 53 55  1  0  0  0  0
 54 52  1  0  0  0  0
 54 55  1  0  0  0  0
M  END
>  <MODEL>
5

>  <REMARK>
 VINA RESULT:      -4.9      2.205      4.466
  Name = 
  24 active torsions:
  status: ('A' for Active; 'I' for Inactive)
    1  A    between atoms: C_1  and  C_21
    2  A    between atoms: C_2  and  C_28
    3  A    between atoms: C_2  and  N_44
    4  A    between atoms: C_4  and  C_19
    5  A    between atoms: C_4  and  C_37
    6  A    between atoms: N_6  and  C_46
    7  A    between atoms: C_8  and  C_22
    8  A    between atoms: C_8  and  C_35
    9  A    between atoms: N_10  and  C_32
   10  A    between atoms: C_15  and  C_17
   11  A    between atoms: C_16  and  C_17
   12  A    between atoms: C_16  and  C_26
   13  A    between atoms: C_17  and  C_36
   14  A    between atoms: C_20  and  C_22
   15  A    between atoms: C_22  and  C_46
   16  A    between atoms: C_26  and  C_45
   17  A    between atoms: C_27  and  C_54
   18  A    between atoms: N_33  and  O_49
   19  A    between atoms: C_34  and  O_49
   20  A    between atoms: C_34  and  O_52
   21  A    between atoms: C_35  and  C_43
   22  A    between atoms: C_36  and  O_52
   23  A    between atoms: C_37  and  C_45
   24  A    between atoms: C_43  and  C_54
                            x       y       z     vdW  Elec       q    Type
                         _______ _______ _______ _____ _____    ______ ____

>  <TORSDO>
F 24

$$$$
=
 OpenBabel10272401313D

 55 59  0  0  1  0  0  0  0  0999 V2000
  183.8010  177.5830  138.4190 C   0  0  0  0  0  2  0  0  0  0  0  0
  183.9430  178.1370  141.1580 C   0  0  2  0  0  3  0  0  0  0  0  0
  184.9630  178.7460  140.1900 C   0  0  0  0  0  2  0  0  0  0  0  0
  182.8790  177.0220  139.5010 C   0  0  0  0  0  2  0  0  0  0  0  0
  185.1090  177.8960  139.0040 N   0  0  0  0  0  0  0  0  0  0  0  0
  182.7020  177.9830  140.5100 O   0  0  0  0  0  0  0  0  0  0  0  0
  183.7860  179.0780  142.3390 C   0  0  0  0  0  2  0  0  0  0  0  0
  183.0540  178.4110  143.4870 C   0  0  2  0  0  3  0  0  0  0  0  0
  181.6760  179.0380  143.5950 C   0  0  0  0  0  1  0  0  0  0  0  0
  183.8320  178.6370  144.7770 C   0  0  0  0  0  2  0  0  0  0  0  0
  185.2760  179.0600  144.5150 C   0  0  0  0  0  2  0  0  0  0  0  0
  186.3000  178.0710  145.0780 C   0  0  2  0  0  3  0  0  0  0  0  0
  186.7200  179.3550  147.0770 O   0  0  0  0  0  1  0  0  0  0  0  0
  186.3280  178.1000  146.6130 C   0  0  1  0  0  3  0  0  0  0  0  0
  184.9570  177.7830  147.1870 C   0  0  0  0  0  1  0  0  0  0  0  0
  187.6820  178.4260  144.5330 C   0  0  0  0  0  2  0  0  0  0  0  0
  189.3580  176.8140  143.6900 C   0  0  2  0  0  3  0  0  0  0  0  0
  189.3720  177.5030  147.1100 O   0  0  0  0  0  1  0  0  0  0  0  0
  188.6790  177.3960  144.8670 N   0  0  0  0  0  0  0  0  0  0  0  0
  192.1040  174.6160  144.5020 C   0  0  0  0  0  3  0  0  0  0  0  0
  189.9390  179.2250  145.7260 O   0  0  0  0  0  1  0  0  0  0  0  0
  189.7350  177.8420  145.8030 C   0  0  0  0  0  0  0  0  0  0  0  0
  192.1290  174.9850  145.9300 C   0  0  0  0  0  3  0  0  0  0  0  0
  191.5870  176.1320  146.3560 C   0  0  0  0  0  3  0  0  0  0  0  0
  190.7100  176.5130  144.1010 N   0  0  0  0  0  0  0  0  0  0  0  0
  191.0280  177.1380  145.3740 C   0  0  1  0  0  3  0  0  0  0  0  0
  191.3980  175.3450  143.6370 C   0  0  0  0  0  3  0  0  0  0  0  0
  189.3790  177.7030  142.4340 C   0  0  0  0  0  2  0  0  0  0  0  0
  188.7240  177.0800  141.3700 O   0  0  0  0  0  1  0  0  0  0  0  0
  185.9510  178.5630  138.0000 C   0  0  0  0  0  2  0  0  0  0  0  0
  187.3350  177.9800  137.8680 C   0  0  0  0  0  3  0  0  0  0  0  0
  187.8550  177.7770  136.7020 N   0  0  0  0  0  0  0  0  0  0  0  0
  189.1300  177.2600  136.5970 O   0  0  0  0  0  0  0  0  0  0  0  0
  190.2630  175.7170  135.1750 C   0  0  0  0  0  2  0  0  0  0  0  0
  191.6190  175.4570  137.2090 C   0  0  1  0  0  3  0  0  0  0  0  0
  189.3580  175.8610  136.3830 C   0  0  1  0  0  0  0  0  0  0  0  0
  190.1500  175.2350  137.5310 C   0  0  0  0  0  2  0  0  0  0  0  0
  191.6840  175.5650  135.6880 C   0  0  0  0  0  2  0  0  0  0  0  0
  192.0920  176.6980  137.8250 N   0  0  0  0  0  0  0  0  0  0  0  0
  193.4260  176.5740  138.0300 O   0  0  0  0  0  1  0  0  0  0  0  0
  191.5270  176.7820  139.0540 O   0  0  0  0  0  1  0  0  0  0  0  0
  188.1550  175.1660  136.1190 O   0  0  0  0  0  0  0  0  0  0  0  0
  188.2980  174.4210  134.9350 C   0  0  0  0  0  2  0  0  0  0  0  0
  187.3160  173.2490  134.9050 C   0  0  1  0  0  3  0  0  0  0  0  0
  187.3010  170.7400  134.7350 C   0  0  0  0  0  1  0  0  0  0  0  0
  187.9560  171.9430  135.3970 C   0  0  0  0  0  3  0  0  0  0  0  0
  189.4460  171.9000  135.0960 C   0  0  0  0  0  1  0  0  0  0  0  0
  186.0770  173.5810  135.7340 C   0  0  0  0  0  2  0  0  0  0  0  0
  186.2910  173.2160  137.1950 C   0  0  0  0  0  2  0  0  0  0  0  0
  184.9640  172.9400  137.8810 C   0  0  0  0  0  2  0  0  0  0  0  0
  184.0970  172.0240  137.0340 C   0  0  0  0  0  2  0  0  0  0  0  0
  182.7530  172.6700  136.7560 C   0  0  0  0  0  2  0  0  0  0  0  0
  180.5540  172.0910  137.7070 C   0  0  0  0  0  2  0  0  0  0  0  0
  181.6570  171.6270  136.7790 C   0  0  0  0  0  3  0  0  0  0  0  0
  180.3870  172.2320  136.2120 C   0  0  0  0  0  2  0  0  0  0  0  0
  1  5  1  0  0  0  0
  1  4  1  0  0  0  0
  2  7  1  1  0  0  0
  3  2  1  0  0  0  0
  4  6  1  0  0  0  0
  5  3  1  0  0  0  0
  6  2  1  0  0  0  0
  7  8  1  0  0  0  0
  8  9  1  1  0  0  0
  8 10  1  0  0  0  0
 11 10  1  0  0  0  0
 12 11  1  6  0  0  0
 12 14  1  0  0  0  0
 14 13  1  0  0  0  0
 14 15  1  1  0  0  0
 16 19  1  0  0  0  0
 16 12  1  0  0  0  0
 17 28  1  6  0  0  0
 17 25  1  0  0  0  0
 17 19  1  0  0  0  0
 19 22  1  0  0  0  0
 20 23  1  0  0  0  0
 21 22  1  0  0  0  0
 22 18  1  0  0  0  0
 23 24  2  0  0  0  0
 25 26  1  0  0  0  0
 26 22  1  0  0  0  0
 26 24  1  1  0  0  0
 27 25  1  0  0  0  0
 27 20  2  0  0  0  0
 29 28  1  0  0  0  0
 30  5  1  0  0  0  0
 31 30  1  0  0  0  0
 32 31  2  0  0  0  0
 33 32  1  0  0  0  0
 34 38  1  0  0  0  0
 34 36  1  0  0  0  0
 35 37  1  0  0  0  0
 35 39  1  1  0  0  0
 36 42  1  6  0  0  0
 36 33  1  0  0  0  0
 36 37  1  0  0  0  0
 38 35  1  0  0  0  0
 39 40  1  0  0  0  0
 39 41  1  0  0  0  0
 43 42  1  0  0  0  0
 44 43  1  1  0  0  0
 44 46  1  0  0  0  0
 44 48  1  0  0  0  0
 45 46  1  0  0  0  0
 47 46  1  0  0  0  0
 48 49  1  0  0  0  0
 49 50  1  0  0  0  0
 51 50  1  0  0  0  0
 52 54  1  0  0  0  0
 52 51  1  0  0  0  0
 54 53  1  0  0  0  0
 55 54  1  0  0  0  0
 55 53  1  0  0  0  0
M  END
>  <MODEL>
6

>  <REMARK>
 VINA RESULT:      -4.7      2.126      7.018
  Name = 
  24 active torsions:
  status: ('A' for Active; 'I' for Inactive)
    1  A    between atoms: C_1  and  C_21
    2  A    between atoms: C_2  and  C_28
    3  A    between atoms: C_2  and  N_44
    4  A    between atoms: C_4  and  C_19
    5  A    between atoms: C_4  and  C_37
    6  A    between atoms: N_6  and  C_46
    7  A    between atoms: C_8  and  C_22
    8  A    between atoms: C_8  and  C_35
    9  A    between atoms: N_10  and  C_32
   10  A    between atoms: C_15  and  C_17
   11  A    between atoms: C_16  and  C_17
   12  A    between atoms: C_16  and  C_26
   13  A    between atoms: C_17  and  C_36
   14  A    between atoms: C_20  and  C_22
   15  A    between atoms: C_22  and  C_46
   16  A    between atoms: C_26  and  C_45
   17  A    between atoms: C_27  and  C_54
   18  A    between atoms: N_33  and  O_49
   19  A    between atoms: C_34  and  O_49
   20  A    between atoms: C_34  and  O_52
   21  A    between atoms: C_35  and  C_43
   22  A    between atoms: C_36  and  O_52
   23  A    between atoms: C_37  and  C_45
   24  A    between atoms: C_43  and  C_54
                            x       y       z     vdW  Elec       q    Type
                         _______ _______ _______ _____ _____    ______ ____

>  <TORSDO>
F 24

$$$$
=
 OpenBabel10272401313D

 55 59  0  0  1  0  0  0  0  0999 V2000
  184.7070  179.3850  144.7840 C   0  0  0  0  0  2  0  0  0  0  0  0
  183.4290  178.8280  142.3590 C   0  0  2  0  0  3  0  0  0  0  0  0
  184.4660  177.8550  142.9290 C   0  0  0  0  0  2  0  0  0  0  0  0
  183.6820  180.2740  144.0800 C   0  0  0  0  0  2  0  0  0  0  0  0
  185.4140  178.5710  143.7910 N   0  0  0  0  0  0  0  0  0  0  0  0
  182.7460  179.4700  143.4100 O   0  0  0  0  0  0  0  0  0  0  0  0
  182.4420  178.0340  141.5220 C   0  0  0  0  0  2  0  0  0  0  0  0
  182.6610  178.2620  140.0390 C   0  0  2  0  0  3  0  0  0  0  0  0
  183.6140  179.4320  139.8790 C   0  0  0  0  0  1  0  0  0  0  0  0
  181.3260  178.5830  139.3770 C   0  0  0  0  0  2  0  0  0  0  0  0
  181.0850  177.7420  138.1260 C   0  0  0  0  0  2  0  0  0  0  0  0
  181.7740  178.3100  136.8820 C   0  0  2  0  0  3  0  0  0  0  0  0
  180.9080  180.5580  136.7580 O   0  0  0  0  0  1  0  0  0  0  0  0
  180.8720  179.3080  136.1420 C   0  0  1  0  0  3  0  0  0  0  0  0
  181.3150  179.4720  134.6980 C   0  0  0  0  0  1  0  0  0  0  0  0
  182.1370  177.1570  135.9480 C   0  0  0  0  0  2  0  0  0  0  0  0
  182.7440  174.9220  136.8160 C   0  0  2  0  0  3  0  0  0  0  0  0
  185.3480  177.1430  136.1430 O   0  0  0  0  0  1  0  0  0  0  0  0
  183.1870  176.3020  136.5230 N   0  0  0  0  0  0  0  0  0  0  0  0
  185.4030  172.6910  137.8090 C   0  0  0  0  0  3  0  0  0  0  0  0
  184.1470  176.4150  134.3460 O   0  0  0  0  0  1  0  0  0  0  0  0
  184.4160  176.1990  135.7030 C   0  0  0  0  0  0  0  0  0  0  0  0
  186.4820  173.6290  137.4450 C   0  0  0  0  0  3  0  0  0  0  0  0
  186.2650  174.6300  136.5840 C   0  0  0  0  0  3  0  0  0  0  0  0
  183.8830  174.0640  136.5810 N   0  0  0  0  0  0  0  0  0  0  0  0
  184.9380  174.7680  135.8710 C   0  0  1  0  0  3  0  0  0  0  0  0
  184.1520  172.9250  137.4070 C   0  0  0  0  0  3  0  0  0  0  0  0
  181.5390  174.4280  135.9950 C   0  0  0  0  0  2  0  0  0  0  0  0
  180.4830  174.0590  136.8300 O   0  0  0  0  0  1  0  0  0  0  0  0
  186.2990  177.6170  144.4750 C   0  0  0  0  0  2  0  0  0  0  0  0
  187.7340  177.6660  144.0160 C   0  0  0  0  0  3  0  0  0  0  0  0
  188.0390  178.1570  142.8600 N   0  0  0  0  0  0  0  0  0  0  0  0
  189.3590  178.2110  142.4610 O   0  0  0  0  0  0  0  0  0  0  0  0
  191.4250  177.4960  141.5080 C   0  0  0  0  0  2  0  0  0  0  0  0
  191.4650  176.1770  143.5820 C   0  0  1  0  0  3  0  0  0  0  0  0
  190.0050  177.0870  141.8490 C   0  0  1  0  0  0  0  0  0  0  0  0
  190.1680  175.9260  142.8290 C   0  0  0  0  0  2  0  0  0  0  0  0
  192.3200  177.0160  142.6370 C   0  0  0  0  0  2  0  0  0  0  0  0
  191.1990  176.9190  144.8160 N   0  0  0  0  0  0  0  0  0  0  0  0
  191.7820  178.1370  144.6990 O   0  0  0  0  0  1  0  0  0  0  0  0
  191.8510  176.2830  145.8200 O   0  0  0  0  0  1  0  0  0  0  0  0
  189.3590  176.6960  140.6540 O   0  0  0  0  0  0  0  0  0  0  0  0
  190.1880  176.9930  139.5570 C   0  0  0  0  0  2  0  0  0  0  0  0
  189.6610  176.3370  138.2800 C   0  0  1  0  0  3  0  0  0  0  0  0
  187.6970  177.8940  138.4780 C   0  0  0  0  0  1  0  0  0  0  0  0
  188.6860  177.2470  137.5200 C   0  0  0  0  0  3  0  0  0  0  0  0
  189.4160  178.3500  136.7720 C   0  0  0  0  0  1  0  0  0  0  0  0
  190.8270  175.9340  137.3790 C   0  0  0  0  0  2  0  0  0  0  0  0
  190.4750  174.7030  136.5580 C   0  0  0  0  0  2  0  0  0  0  0  0
  191.5800  174.3830  135.5660 C   0  0  0  0  0  2  0  0  0  0  0  0
  192.8520  175.1380  135.9110 C   0  0  0  0  0  2  0  0  0  0  0  0
  193.9010  174.1900  136.4600 C   0  0  0  0  0  2  0  0  0  0  0  0
  195.6570  174.3010  138.1870 C   0  0  0  0  0  2  0  0  0  0  0  0
  195.1070  174.9660  136.9420 C   0  0  0  0  0  3  0  0  0  0  0  0
  196.3340  174.0790  136.8540 C   0  0  0  0  0  2  0  0  0  0  0  0
  2  7  1  1  0  0  0
  2  3  1  0  0  0  0
  2  6  1  0  0  0  0
  3  5  1  0  0  0  0
  4  1  1  0  0  0  0
  5 30  1  0  0  0  0
  5  1  1  0  0  0  0
  6  4  1  0  0  0  0
  8  9  1  1  0  0  0
  8  7  1  0  0  0  0
 10  8  1  0  0  0  0
 11 10  1  0  0  0  0
 12 16  1  6  0  0  0
 12 11  1  0  0  0  0
 14 15  1  6  0  0  0
 14 13  1  0  0  0  0
 14 12  1  0  0  0  0
 16 19  1  0  0  0  0
 17 28  1  6  0  0  0
 19 17  1  0  0  0  0
 21 22  1  0  0  0  0
 22 26  1  0  0  0  0
 22 18  1  0  0  0  0
 22 19  1  0  0  0  0
 23 20  1  0  0  0  0
 24 23  2  0  0  0  0
 25 17  1  0  0  0  0
 25 27  1  0  0  0  0
 26 25  1  0  0  0  0
 26 24  1  1  0  0  0
 27 20  2  0  0  0  0
 28 29  1  0  0  0  0
 31 30  1  0  0  0  0
 32 31  2  0  0  0  0
 33 32  1  0  0  0  0
 34 36  1  0  0  0  0
 34 38  1  0  0  0  0
 35 39  1  1  0  0  0
 36 42  1  6  0  0  0
 36 33  1  0  0  0  0
 36 37  1  0  0  0  0
 37 35  1  0  0  0  0
 38 35  1  0  0  0  0
 39 41  1  0  0  0  0
 40 39  1  0  0  0  0
 43 42  1  0  0  0  0
 44 48  1  6  0  0  0
 44 43  1  0  0  0  0
 46 44  1  0  0  0  0
 46 45  1  0  0  0  0
 47 46  1  0  0  0  0
 49 48  1  0  0  0  0
 50 51  1  0  0  0  0
 50 49  1  0  0  0  0
 51 52  1  0  0  0  0
 52 54  1  0  0  0  0
 54 53  1  0  0  0  0
 55 54  1  0  0  0  0
 55 53  1  0  0  0  0
M  END
>  <MODEL>
7

>  <REMARK>
 VINA RESULT:      -4.5      2.088      5.232
  Name = 
  24 active torsions:
  status: ('A' for Active; 'I' for Inactive)
    1  A    between atoms: C_1  and  C_21
    2  A    between atoms: C_2  and  C_28
    3  A    between atoms: C_2  and  N_44
    4  A    between atoms: C_4  and  C_19
    5  A    between atoms: C_4  and  C_37
    6  A    between atoms: N_6  and  C_46
    7  A    between atoms: C_8  and  C_22
    8  A    between atoms: C_8  and  C_35
    9  A    between atoms: N_10  and  C_32
   10  A    between atoms: C_15  and  C_17
   11  A    between atoms: C_16  and  C_17
   12  A    between atoms: C_16  and  C_26
   13  A    between atoms: C_17  and  C_36
   14  A    between atoms: C_20  and  C_22
   15  A    between atoms: C_22  and  C_46
   16  A    between atoms: C_26  and  C_45
   17  A    between atoms: C_27  and  C_54
   18  A    between atoms: N_33  and  O_49
   19  A    between atoms: C_34  and  O_49
   20  A    between atoms: C_34  and  O_52
   21  A    between atoms: C_35  and  C_43
   22  A    between atoms: C_36  and  O_52
   23  A    between atoms: C_37  and  C_45
   24  A    between atoms: C_43  and  C_54
                            x       y       z     vdW  Elec       q    Type
                         _______ _______ _______ _____ _____    ______ ____

>  <TORSDO>
F 24

$$$$
=
 OpenBabel10272401313D

 55 59  0  0  1  0  0  0  0  0999 V2000
  189.4580  178.2360  137.3780 C   0  0  0  0  0  2  0  0  0  0  0  0
  188.2170  175.9190  136.4190 C   0  0  2  0  0  3  0  0  0  0  0  0
  188.4280  176.1190  137.9230 C   0  0  0  0  0  2  0  0  0  0  0  0
  189.2140  177.8870  135.9110 C   0  0  0  0  0  2  0  0  0  0  0  0
  189.5750  177.0030  138.1630 N   0  0  0  0  0  0  0  0  0  0  0  0
  188.0130  177.1650  135.7950 O   0  0  0  0  0  0  0  0  0  0  0  0
  186.9920  175.0460  136.2220 C   0  0  0  0  0  2  0  0  0  0  0  0
  187.3540  173.7120  135.5980 C   0  0  2  0  0  3  0  0  0  0  0  0
  188.2180  173.9810  134.3800 C   0  0  0  0  0  1  0  0  0  0  0  0
  186.0800  172.9880  135.1840 C   0  0  0  0  0  2  0  0  0  0  0  0
  185.7600  171.8100  136.1010 C   0  0  0  0  0  2  0  0  0  0  0  0
  184.2830  171.4100  136.0680 C   0  0  2  0  0  3  0  0  0  0  0  0
  185.2130  169.8020  134.5280 O   0  0  0  0  0  1  0  0  0  0  0  0
  184.0150  170.3190  135.0220 C   0  0  1  0  0  3  0  0  0  0  0  0
  183.2130  169.1760  135.6220 C   0  0  0  0  0  1  0  0  0  0  0  0
  183.4430  172.6450  135.7450 C   0  0  0  0  0  2  0  0  0  0  0  0
  182.9560  174.6040  137.1750 C   0  0  2  0  0  3  0  0  0  0  0  0
  181.0220  171.7410  137.6590 O   0  0  0  0  0  1  0  0  0  0  0  0
  182.7510  173.1590  136.9370 N   0  0  0  0  0  0  0  0  0  0  0  0
  180.9240  175.9710  139.8260 C   0  0  0  0  0  3  0  0  0  0  0  0
  180.7750  172.8050  135.6570 O   0  0  0  0  0  1  0  0  0  0  0  0
  181.2910  172.9180  136.9530 C   0  0  0  0  0  0  0  0  0  0  0  0
  180.0770  174.7700  139.9550 C   0  0  0  0  0  3  0  0  0  0  0  0
  179.9820  173.8840  138.9570 C   0  0  0  0  0  3  0  0  0  0  0  0
  181.7300  175.1050  137.7520 N   0  0  0  0  0  0  0  0  0  0  0  0
  180.6510  174.1390  137.6240 C   0  0  1  0  0  3  0  0  0  0  0  0
  181.7320  176.1090  138.7740 C   0  0  0  0  0  3  0  0  0  0  0  0
  183.3240  175.4310  135.9290 C   0  0  0  0  0  2  0  0  0  0  0  0
  183.1330  176.7950  136.1620 O   0  0  0  0  0  1  0  0  0  0  0  0
  189.6700  177.3350  139.5920 C   0  0  0  0  0  2  0  0  0  0  0  0
  188.3520  177.6760  140.2380 C   0  0  0  0  0  3  0  0  0  0  0  0
  188.1680  178.8300  140.7890 N   0  0  0  0  0  0  0  0  0  0  0  0
  186.9490  179.1340  141.3610 O   0  0  0  0  0  0  0  0  0  0  0  0
  185.9670  179.9720  143.3650 C   0  0  0  0  0  2  0  0  0  0  0  0
  184.2480  178.3330  142.7330 C   0  0  1  0  0  3  0  0  0  0  0  0
  186.6470  178.7830  142.7170 C   0  0  1  0  0  0  0  0  0  0  0  0
  185.6100  177.6620  142.7930 C   0  0  0  0  0  2  0  0  0  0  0  0
  184.4680  179.7380  143.2850 C   0  0  0  0  0  2  0  0  0  0  0  0
  183.7770  178.4020  141.3480 N   0  0  0  0  0  0  0  0  0  0  0  0
  182.4340  178.5840  141.3780 O   0  0  0  0  0  1  0  0  0  0  0  0
  183.9820  177.1850  140.7880 O   0  0  0  0  0  1  0  0  0  0  0  0
  187.8150  178.4850  143.4560 O   0  0  0  0  0  0  0  0  0  0  0  0
  187.8440  177.1090  143.7460 C   0  0  0  0  0  2  0  0  0  0  0  0
  189.0760  176.7510  144.5790 C   0  0  1  0  0  3  0  0  0  0  0  0
  191.4360  175.8900  144.4890 C   0  0  0  0  0  1  0  0  0  0  0  0
  190.3360  176.6020  143.7160 C   0  0  0  0  0  3  0  0  0  0  0  0
  190.0570  175.8110  142.4480 C   0  0  0  0  0  1  0  0  0  0  0  0
  189.2960  177.8000  145.6670 C   0  0  0  0  0  2  0  0  0  0  0  0
  189.0370  177.2110  147.0450 C   0  0  0  0  0  2  0  0  0  0  0  0
  189.0960  178.2910  148.1130 C   0  0  0  0  0  2  0  0  0  0  0  0
  187.7690  178.4010  148.8440 C   0  0  0  0  0  2  0  0  0  0  0  0
  186.6990  177.5970  148.1280 C   0  0  0  0  0  2  0  0  0  0  0  0
  185.9410  179.4820  146.7310 C   0  0  0  0  0  2  0  0  0  0  0  0
  185.5200  178.4820  147.7880 C   0  0  0  0  0  3  0  0  0  0  0  0
  185.1390  178.2630  146.3370 C   0  0  0  0  0  2  0  0  0  0  0  0
  1  5  1  0  0  0  0
  2  7  1  1  0  0  0
  2  3  1  0  0  0  0
  3  5  1  0  0  0  0
  4  1  1  0  0  0  0
  5 30  1  0  0  0  0
  6  4  1  0  0  0  0
  6  2  1  0  0  0  0
  8  9  1  6  0  0  0
  8  7  1  0  0  0  0
 10  8  1  0  0  0  0
 10 11  1  0  0  0  0
 12 16  1  6  0  0  0
 12 11  1  0  0  0  0
 13 14  1  0  0  0  0
 14 15  1  1  0  0  0
 14 12  1  0  0  0  0
 16 19  1  0  0  0  0
 17 28  1  6  0  0  0
 17 25  1  0  0  0  0
 19 22  1  0  0  0  0
 19 17  1  0  0  0  0
 20 23  1  0  0  0  0
 21 22  1  0  0  0  0
 22 26  1  0  0  0  0
 22 18  1  0  0  0  0
 24 23  2  0  0  0  0
 25 27  1  0  0  0  0
 26 25  1  0  0  0  0
 26 24  1  1  0  0  0
 27 20  2  0  0  0  0
 28 29  1  0  0  0  0
 30 31  1  0  0  0  0
 31 32  2  0  0  0  0
 32 33  1  0  0  0  0
 35 39  1  6  0  0  0
 35 37  1  0  0  0  0
 35 38  1  0  0  0  0
 36 33  1  6  0  0  0
 36 37  1  0  0  0  0
 36 34  1  0  0  0  0
 36 42  1  0  0  0  0
 38 34  1  0  0  0  0
 39 40  1  0  0  0  0
 41 39  1  0  0  0  0
 42 43  1  0  0  0  0
 44 43  1  6  0  0  0
 44 48  1  0  0  0  0
 46 45  1  0  0  0  0
 46 44  1  0  0  0  0
 47 46  1  0  0  0  0
 48 49  1  0  0  0  0
 49 50  1  0  0  0  0
 50 51  1  0  0  0  0
 52 51  1  0  0  0  0
 53 54  1  0  0  0  0
 54 52  1  0  0  0  0
 55 53  1  0  0  0  0
 55 54  1  0  0  0  0
M  END
>  <MODEL>
8

>  <REMARK>
 VINA RESULT:      -4.4      2.624      8.571
  Name = 
  24 active torsions:
  status: ('A' for Active; 'I' for Inactive)
    1  A    between atoms: C_1  and  C_21
    2  A    between atoms: C_2  and  C_28
    3  A    between atoms: C_2  and  N_44
    4  A    between atoms: C_4  and  C_19
    5  A    between atoms: C_4  and  C_37
    6  A    between atoms: N_6  and  C_46
    7  A    between atoms: C_8  and  C_22
    8  A    between atoms: C_8  and  C_35
    9  A    between atoms: N_10  and  C_32
   10  A    between atoms: C_15  and  C_17
   11  A    between atoms: C_16  and  C_17
   12  A    between atoms: C_16  and  C_26
   13  A    between atoms: C_17  and  C_36
   14  A    between atoms: C_20  and  C_22
   15  A    between atoms: C_22  and  C_46
   16  A    between atoms: C_26  and  C_45
   17  A    between atoms: C_27  and  C_54
   18  A    between atoms: N_33  and  O_49
   19  A    between atoms: C_34  and  O_49
   20  A    between atoms: C_34  and  O_52
   21  A    between atoms: C_35  and  C_43
   22  A    between atoms: C_36  and  O_52
   23  A    between atoms: C_37  and  C_45
   24  A    between atoms: C_43  and  C_54
                            x       y       z     vdW  Elec       q    Type
                         _______ _______ _______ _____ _____    ______ ____

>  <TORSDO>
F 24

$$$$
=
 OpenBabel10272401313D

 55 59  0  0  1  0  0  0  0  0999 V2000
  185.2520  178.7600  140.2510 C   0  0  0  0  0  2  0  0  0  0  0  0
  184.2960  178.9470  142.8740 C   0  0  2  0  0  3  0  0  0  0  0  0
  183.3520  178.5570  141.7310 C   0  0  0  0  0  2  0  0  0  0  0  0
  186.0650  179.1690  141.4790 C   0  0  0  0  0  2  0  0  0  0  0  0
  183.8410  179.1020  140.4590 N   0  0  0  0  0  0  0  0  0  0  0  0
  185.5940  178.4720  142.6050 O   0  0  0  0  0  0  0  0  0  0  0  0
  183.7790  178.3160  144.1540 C   0  0  0  0  0  2  0  0  0  0  0  0
  184.4990  178.8630  145.3720 C   0  0  2  0  0  3  0  0  0  0  0  0
  185.0280  180.2420  145.0270 C   0  0  0  0  0  1  0  0  0  0  0  0
  185.6530  177.9360  145.7320 C   0  0  0  0  0  2  0  0  0  0  0  0
  186.9840  178.6780  145.8200 C   0  0  0  0  0  2  0  0  0  0  0  0
  188.1720  177.7450  146.0700 C   0  0  2  0  0  3  0  0  0  0  0  0
  189.5980  178.1040  147.9840 O   0  0  0  0  0  1  0  0  0  0  0  0
  188.4040  177.5130  147.5700 C   0  0  1  0  0  3  0  0  0  0  0  0
  187.2690  178.1020  148.3920 C   0  0  0  0  0  1  0  0  0  0  0  0
  189.4240  178.3620  145.4480 C   0  0  0  0  0  2  0  0  0  0  0  0
  190.7860  178.4950  143.3880 C   0  0  2  0  0  3  0  0  0  0  0  0
  187.9350  176.4870  143.3000 O   0  0  0  0  0  1  0  0  0  0  0  0
  189.5080  178.0840  144.0060 N   0  0  0  0  0  0  0  0  0  0  0  0
  191.1850  177.4310  139.9610 C   0  0  0  0  0  3  0  0  0  0  0  0
  189.6140  175.8050  144.6850 O   0  0  0  0  0  1  0  0  0  0  0  0
  189.2800  176.6690  143.6360 C   0  0  0  0  0  0  0  0  0  0  0  0
  190.0140  176.5340  139.9820 C   0  0  0  0  0  3  0  0  0  0  0  0
  189.5170  176.0740  141.1360 C   0  0  0  0  0  3  0  0  0  0  0  0
  191.0670  177.5360  142.3440 N   0  0  0  0  0  0  0  0  0  0  0  0
  190.2050  176.3700  142.4510 C   0  0  1  0  0  3  0  0  0  0  0  0
  191.6670  177.9250  141.1030 C   0  0  0  0  0  3  0  0  0  0  0  0
  191.9850  178.5860  144.3500 C   0  0  0  0  0  2  0  0  0  0  0  0
  192.4270  179.9050  144.4730 O   0  0  0  0  0  1  0  0  0  0  0  0
  183.0380  178.5860  139.3420 C   0  0  0  0  0  2  0  0  0  0  0  0
  183.7810  178.4970  138.0340 C   0  0  0  0  0  3  0  0  0  0  0  0
  184.2620  177.3680  137.6260 N   0  0  0  0  0  0  0  0  0  0  0  0
  184.9250  177.3000  136.4170 O   0  0  0  0  0  0  0  0  0  0  0  0
  186.7650  176.8240  134.9770 C   0  0  0  0  0  2  0  0  0  0  0  0
  187.9990  177.4930  136.9950 C   0  0  1  0  0  3  0  0  0  0  0  0
  185.9880  176.3650  136.1950 C   0  0  1  0  0  0  0  0  0  0  0  0
  187.0090  176.3900  137.3320 C   0  0  0  0  0  2  0  0  0  0  0  0
  187.9640  177.6120  135.4750 C   0  0  0  0  0  2  0  0  0  0  0  0
  187.5820  178.7540  137.6120 N   0  0  0  0  0  0  0  0  0  0  0  0
  187.4920  179.6830  136.6290 O   0  0  0  0  0  1  0  0  0  0  0  0
  188.5870  179.1600  138.4250 O   0  0  0  0  0  1  0  0  0  0  0  0
  185.4980  175.0630  135.9410 O   0  0  0  0  0  0  0  0  0  0  0  0
  186.3930  174.1170  136.4730 C   0  0  0  0  0  2  0  0  0  0  0  0
  186.8770  173.1530  135.3880 C   0  0  1  0  0  3  0  0  0  0  0  0
  189.0050  173.3920  136.7050 C   0  0  0  0  0  1  0  0  0  0  0  0
  188.4070  173.0430  135.3510 C   0  0  0  0  0  3  0  0  0  0  0  0
  188.8600  171.6410  134.9760 C   0  0  0  0  0  1  0  0  0  0  0  0
  186.2480  171.7760  135.5930 C   0  0  0  0  0  2  0  0  0  0  0  0
  184.7410  171.8370  135.4020 C   0  0  0  0  0  2  0  0  0  0  0  0
  184.0510  170.7490  136.2090 C   0  0  0  0  0  2  0  0  0  0  0  0
  182.8380  171.3040  136.9370 C   0  0  0  0  0  2  0  0  0  0  0  0
  182.5050  172.6950  136.4310 C   0  0  0  0  0  2  0  0  0  0  0  0
  180.4220  172.0320  137.5710 C   0  0  0  0  0  2  0  0  0  0  0  0
  181.0130  172.9370  136.5110 C   0  0  0  0  0  3  0  0  0  0  0  0
  180.6740  173.4890  137.8810 C   0  0  0  0  0  2  0  0  0  0  0  0
  1  5  1  0  0  0  0
  1  4  1  0  0  0  0
  2  7  1  1  0  0  0
  3  2  1  0  0  0  0
  4  6  1  0  0  0  0
  5  3  1  0  0  0  0
  6  2  1  0  0  0  0
  7  8  1  0  0  0  0
  8  9  1  6  0  0  0
  8 10  1  0  0  0  0
 10 11  1  0  0  0  0
 11 12  1  0  0  0  0
 12 16  1  1  0  0  0
 12 14  1  0  0  0  0
 14 13  1  0  0  0  0
 14 15  1  1  0  0  0
 17 19  1  0  0  0  0
 17 28  1  1  0  0  0
 18 22  1  0  0  0  0
 19 16  1  0  0  0  0
 20 23  1  0  0  0  0
 20 27  2  0  0  0  0
 22 19  1  0  0  0  0
 22 21  1  0  0  0  0
 23 24  2  0  0  0  0
 25 26  1  0  0  0  0
 25 17  1  0  0  0  0
 26 24  1  6  0  0  0
 26 22  1  0  0  0  0
 27 25  1  0  0  0  0
 28 29  1  0  0  0  0
 30  5  1  0  0  0  0
 31 30  1  0  0  0  0
 32 31  2  0  0  0  0
 33 32  1  0  0  0  0
 34 38  1  0  0  0  0
 34 36  1  0  0  0  0
 35 37  1  0  0  0  0
 35 39  1  1  0  0  0
 36 42  1  6  0  0  0
 36 33  1  0  0  0  0
 36 37  1  0  0  0  0
 38 35  1  0  0  0  0
 39 41  1  0  0  0  0
 40 39  1  0  0  0  0
 42 43  1  0  0  0  0
 44 48  1  1  0  0  0
 44 43  1  0  0  0  0
 46 44  1  0  0  0  0
 46 45  1  0  0  0  0
 47 46  1  0  0  0  0
 49 48  1  0  0  0  0
 49 50  1  0  0  0  0
 50 51  1  0  0  0  0
 52 54  1  0  0  0  0
 52 51  1  0  0  0  0
 53 55  1  0  0  0  0
 54 53  1  0  0  0  0
 54 55  1  0  0  0  0
M  END
>  <MODEL>
9

>  <REMARK>
 VINA RESULT:      -4.3      2.505      6.919
  Name = 
  24 active torsions:
  status: ('A' for Active; 'I' for Inactive)
    1  A    between atoms: C_1  and  C_21
    2  A    between atoms: C_2  and  C_28
    3  A    between atoms: C_2  and  N_44
    4  A    between atoms: C_4  and  C_19
    5  A    between atoms: C_4  and  C_37
    6  A    between atoms: N_6  and  C_46
    7  A    between atoms: C_8  and  C_22
    8  A    between atoms: C_8  and  C_35
    9  A    between atoms: N_10  and  C_32
   10  A    between atoms: C_15  and  C_17
   11  A    between atoms: C_16  and  C_17
   12  A    between atoms: C_16  and  C_26
   13  A    between atoms: C_17  and  C_36
   14  A    between atoms: C_20  and  C_22
   15  A    between atoms: C_22  and  C_46
   16  A    between atoms: C_26  and  C_45
   17  A    between atoms: C_27  and  C_54
   18  A    between atoms: N_33  and  O_49
   19  A    between atoms: C_34  and  O_49
   20  A    between atoms: C_34  and  O_52
   21  A    between atoms: C_35  and  C_43
   22  A    between atoms: C_36  and  O_52
   23  A    between atoms: C_37  and  C_45
   24  A    between atoms: C_43  and  C_54
                            x       y       z     vdW  Elec       q    Type
                         _______ _______ _______ _____ _____    ______ ____

>  <TORSDO>
F 24

$$$$
