=
 OpenBabel10272402063D

 32 35  0  0  1  0  0  0  0  0999 V2000
  182.1100  179.1710  138.4900 O   0  0  0  0  0  0  0  0  0  0  0  0
  182.7920  178.4400  139.4800 C   0  0  1  0  0  3  0  0  0  0  0  0
  179.9820  177.3420  138.8350 O   0  0  0  0  0  0  0  0  0  0  0  0
  183.9440  174.7180  137.2140 C   0  0  0  0  0  3  0  0  0  0  0  0
  182.2290  177.0250  139.7330 C   0  0  1  0  0  3  0  0  0  0  0  0
  181.6070  174.9020  136.6150 C   0  0  0  0  0  3  0  0  0  0  0  0
  181.3950  175.7560  137.7010 C   0  0  0  0  0  0  0  0  0  0  0  0
  180.7050  177.0700  140.0130 C   0  0  1  0  0  3  0  0  0  0  0  0
  181.6830  180.3080  139.1050 N   0  0  0  0  0  0  0  0  0  0  0  0
  179.9940  176.1650  138.0630 C   0  0  0  0  0  2  0  0  0  0  0  0
  180.3800  180.0550  139.7160 C   0  0  0  0  0  2  0  0  0  0  0  0
  181.4650  181.2890  138.0570 C   0  0  0  0  0  1  0  0  0  0  0  0
  180.2310  177.9570  141.1770 C   0  0  0  0  0  2  0  0  0  0  0  0
  182.4630  176.1010  138.5550 C   0  0  0  0  0  0  0  0  0  0  0  0
  180.5820  179.4470  141.1010 C   0  0  0  0  0  2  0  0  0  0  0  0
  182.8830  174.3950  136.3640 C   0  0  0  0  0  3  0  0  0  0  0  0
  183.7310  175.5610  138.3090 C   0  0  0  0  0  3  0  0  0  0  0  0
  184.5800  180.0790  139.3130 O   0  0  0  0  0  1  0  0  0  0  0  0
  184.2910  178.7740  139.7160 C   0  0  1  0  0  0  0  0  0  0  0  0
  186.3120  178.5770  142.9810 C   0  0  0  0  0  3  0  0  0  0  0  0
  183.9660  178.4590  143.5290 C   0  0  0  0  0  3  0  0  0  0  0  0
  184.6540  178.6330  141.1940 C   0  0  0  0  0  0  0  0  0  0  0  0
  185.3020  178.4710  143.9460 C   0  0  0  0  0  0  0  0  0  0  0  0
  183.6470  178.5430  142.1730 C   0  0  0  0  0  3  0  0  0  0  0  0
  186.0000  178.6640  141.6220 C   0  0  0  0  0  0  0  0  0  0  0  0
  187.0390  178.7900  140.7090 O   0  0  0  0  0  1  0  0  0  0  0  0
  186.8840  177.6920  145.8350 C   0  0  0  0  0  1  0  0  0  0  0  0
  184.8640  178.9050  146.2720 N   0  0  0  0  0  2  0  0  0  0  0  0
  185.6420  178.3820  145.3820 C   0  0  0  0  0  0  0  0  0  0  0  0
  185.1360  177.8130  138.8560 C   0  0  0  0  0  2  0  0  0  0  0  0
  185.6700  178.4380  137.5700 C   0  0  0  0  0  2  0  0  0  0  0  0
  187.0620  177.9230  137.2650 C   0  0  0  0  0  1  0  0  0  0  0  0
  1  9  1  0  0  0  0
  1  2  1  0  0  0  0
  2 19  1  6  0  0  0
  2  5  1  0  0  0  0
  3  8  1  0  0  0  0
  4 17  1  0  0  0  0
  5 14  1  6  0  0  0
  5  8  1  0  0  0  0
  6  7  2  0  0  0  0
  7 10  1  0  0  0  0
  7 14  1  0  0  0  0
  8 13  1  1  0  0  0
  9 11  1  0  0  0  0
 10  3  1  0  0  0  0
 11 15  1  0  0  0  0
 12  9  1  0  0  0  0
 15 13  1  0  0  0  0
 16  6  1  0  0  0  0
 16  4  2  0  0  0  0
 17 14  2  0  0  0  0
 19 18  1  6  0  0  0
 19 22  1  0  0  0  0
 20 23  1  0  0  0  0
 21 23  2  0  0  0  0
 22 25  1  0  0  0  0
 22 24  2  0  0  0  0
 23 29  1  0  0  0  0
 24 21  1  0  0  0  0
 25 20  2  0  0  0  0
 26 25  1  0  0  0  0
 29 27  1  0  0  0  0
 29 28  2  0  0  0  0
 30 19  1  0  0  0  0
 31 30  1  0  0  0  0
 32 31  1  0  0  0  0
M  END
>  <MODEL>
1

>  <REMARK>
 VINA RESULT:      -7.2      0.000      0.000
  Name = 
  5 active torsions:
  status: ('A' for Active; 'I' for Inactive)
    1  A    between atoms: C_1  and  C_4
    2  A    between atoms: C_1  and  C_27
    3  A    between atoms: C_5  and  C_27
    4  A    between atoms: C_16  and  C_27
    5  A    between atoms: C_19  and  C_26
                            x       y       z     vdW  Elec       q    Type
                         _______ _______ _______ _____ _____    ______ ____

>  <TORSDO>
F 5

$$$$
=
 OpenBabel10272402063D

 32 35  0  0  1  0  0  0  0  0999 V2000
  186.9390  175.6480  137.6160 O   0  0  0  0  0  0  0  0  0  0  0  0
  186.9230  176.9890  137.1880 C   0  0  1  0  0  3  0  0  0  0  0  0
  184.2880  175.4800  136.6460 O   0  0  0  0  0  0  0  0  0  0  0  0
  184.3080  178.9030  140.3200 C   0  0  0  0  0  3  0  0  0  0  0  0
  185.5130  177.5690  136.9470 C   0  0  1  0  0  3  0  0  0  0  0  0
  182.9720  176.9710  139.7390 C   0  0  0  0  0  3  0  0  0  0  0  0
  183.6930  176.8270  138.5510 C   0  0  0  0  0  0  0  0  0  0  0  0
  184.6900  176.6630  135.9960 C   0  0  1  0  0  3  0  0  0  0  0  0
  187.6800  174.9780  136.6920 N   0  0  0  0  0  0  0  0  0  0  0  0
  183.2430  175.8270  137.5240 C   0  0  0  0  0  2  0  0  0  0  0  0
  186.8060  174.5480  135.6030 C   0  0  0  0  0  2  0  0  0  0  0  0
  188.1590  173.7710  137.3420 C   0  0  0  0  0  1  0  0  0  0  0  0
  185.2940  176.3640  134.6140 C   0  0  0  0  0  2  0  0  0  0  0  0
  184.7350  177.7260  138.2380 C   0  0  0  0  0  0  0  0  0  0  0  0
  186.6670  175.6800  134.5910 C   0  0  0  0  0  2  0  0  0  0  0  0
  183.2880  177.9990  140.6290 C   0  0  0  0  0  3  0  0  0  0  0  0
  185.0220  178.7700  139.1250 C   0  0  0  0  0  3  0  0  0  0  0  0
  187.7990  179.2430  137.4470 O   0  0  0  0  0  1  0  0  0  0  0  0
  188.1140  177.8930  137.6130 C   0  0  1  0  0  0  0  0  0  0  0  0
  189.9200  176.6720  140.7810 C   0  0  0  0  0  3  0  0  0  0  0  0
  188.1280  178.1440  141.4450 C   0  0  0  0  0  3  0  0  0  0  0  0
  188.4780  177.6580  139.0790 C   0  0  0  0  0  0  0  0  0  0  0  0
  189.2020  177.3170  141.7950 C   0  0  0  0  0  0  0  0  0  0  0  0
  187.7750  178.3150  140.1060 C   0  0  0  0  0  3  0  0  0  0  0  0
  189.5730  176.8400  139.4370 C   0  0  0  0  0  0  0  0  0  0  0  0
  190.3330  176.1960  138.4700 O   0  0  0  0  0  1  0  0  0  0  0  0
  188.6500  177.5350  144.3110 C   0  0  0  0  0  1  0  0  0  0  0  0
  190.7210  176.6200  143.5260 N   0  0  0  0  0  2  0  0  0  0  0  0
  189.5770  177.1350  143.2140 C   0  0  0  0  0  0  0  0  0  0  0  0
  189.3110  177.5670  136.6980 C   0  0  0  0  0  2  0  0  0  0  0  0
  189.0740  177.8960  135.2260 C   0  0  0  0  0  2  0  0  0  0  0  0
  190.0350  177.1230  134.3460 C   0  0  0  0  0  1  0  0  0  0  0  0
  2 19  1  1  0  0  0
  2  1  1  0  0  0  0
  3 10  1  0  0  0  0
  4 16  1  0  0  0  0
  5  2  1  0  0  0  0
  5 14  1  1  0  0  0
  6 16  2  0  0  0  0
  7  6  1  0  0  0  0
  8 13  1  6  0  0  0
  8  3  1  0  0  0  0
  8  5  1  0  0  0  0
  9 12  1  0  0  0  0
  9  1  1  0  0  0  0
 10  7  1  0  0  0  0
 11  9  1  0  0  0  0
 14  7  2  0  0  0  0
 14 17  1  0  0  0  0
 15 13  1  0  0  0  0
 15 11  1  0  0  0  0
 17  4  2  0  0  0  0
 19 18  1  6  0  0  0
 19 22  1  0  0  0  0
 20 23  1  0  0  0  0
 21 23  2  0  0  0  0
 22 25  1  0  0  0  0
 22 24  2  0  0  0  0
 23 29  1  0  0  0  0
 24 21  1  0  0  0  0
 25 20  2  0  0  0  0
 26 25  1  0  0  0  0
 29 28  2  0  0  0  0
 29 27  1  0  0  0  0
 30 19  1  0  0  0  0
 31 30  1  0  0  0  0
 32 31  1  0  0  0  0
M  END
>  <MODEL>
2

>  <REMARK>
 VINA RESULT:      -6.7      3.403      5.570
  Name = 
  5 active torsions:
  status: ('A' for Active; 'I' for Inactive)
    1  A    between atoms: C_1  and  C_4
    2  A    between atoms: C_1  and  C_27
    3  A    between atoms: C_5  and  C_27
    4  A    between atoms: C_16  and  C_27
    5  A    between atoms: C_19  and  C_26
                            x       y       z     vdW  Elec       q    Type
                         _______ _______ _______ _____ _____    ______ ____

>  <TORSDO>
F 5

$$$$
=
 OpenBabel10272402063D

 32 35  0  0  1  0  0  0  0  0999 V2000
  185.8760  175.1260  137.4540 O   0  0  0  0  0  0  0  0  0  0  0  0
  185.7740  176.3430  136.7560 C   0  0  1  0  0  3  0  0  0  0  0  0
  183.0490  175.1160  137.5200 O   0  0  0  0  0  0  0  0  0  0  0  0
  184.5770  179.1730  140.0530 C   0  0  0  0  0  3  0  0  0  0  0  0
  184.4040  177.0430  136.8850 C   0  0  1  0  0  3  0  0  0  0  0  0
  183.0260  177.3570  140.4360 C   0  0  0  0  0  3  0  0  0  0  0  0
  183.2570  176.8840  139.1410 C   0  0  0  0  0  0  0  0  0  0  0  0
  183.2460  176.0810  136.5140 C   0  0  1  0  0  3  0  0  0  0  0  0
  186.1960  174.1930  136.5170 N   0  0  0  0  0  0  0  0  0  0  0  0
  182.4140  175.7660  138.5960 C   0  0  0  0  0  2  0  0  0  0  0  0
  184.9650  173.6710  135.9270 C   0  0  0  0  0  2  0  0  0  0  0  0
  186.8160  173.0880  137.2260 C   0  0  0  0  0  1  0  0  0  0  0  0
  183.2910  175.4340  135.1190 C   0  0  0  0  0  2  0  0  0  0  0  0
  184.1580  177.5570  138.2890 C   0  0  0  0  0  0  0  0  0  0  0  0
  184.5250  174.5850  134.7880 C   0  0  0  0  0  2  0  0  0  0  0  0
  183.6960  178.4920  140.8960 C   0  0  0  0  0  3  0  0  0  0  0  0
  184.8000  178.7110  138.7530 C   0  0  0  0  0  3  0  0  0  0  0  0
  186.7990  178.4890  136.2480 O   0  0  0  0  0  1  0  0  0  0  0  0
  187.0820  177.1500  136.5230 C   0  0  1  0  0  0  0  0  0  0  0  0
  189.8920  176.1490  138.9480 C   0  0  0  0  0  3  0  0  0  0  0  0
  188.6730  177.9920  139.9140 C   0  0  0  0  0  3  0  0  0  0  0  0
  187.9860  177.0890  137.7530 C   0  0  0  0  0  0  0  0  0  0  0  0
  189.7130  177.0580  139.9970 C   0  0  0  0  0  0  0  0  0  0  0  0
  187.8250  178.0090  138.8060 C   0  0  0  0  0  3  0  0  0  0  0  0
  189.0490  176.1610  137.8340 C   0  0  0  0  0  0  0  0  0  0  0  0
  189.2850  175.2520  136.8110 O   0  0  0  0  0  1  0  0  0  0  0  0
  190.2060  176.3640  142.4370 C   0  0  0  0  0  1  0  0  0  0  0  0
  191.7720  177.6060  141.1160 N   0  0  0  0  0  2  0  0  0  0  0  0
  190.6120  177.0380  141.1710 C   0  0  0  0  0  0  0  0  0  0  0  0
  187.7980  176.5540  135.2940 C   0  0  0  0  0  2  0  0  0  0  0  0
  188.4010  177.6000  134.3600 C   0  0  0  0  0  2  0  0  0  0  0  0
  189.9130  177.4930  134.3470 C   0  0  0  0  0  1  0  0  0  0  0  0
  2 19  1  1  0  0  0
  2  5  1  0  0  0  0
  2  1  1  0  0  0  0
  3 10  1  0  0  0  0
  4 16  1  0  0  0  0
  5 14  1  1  0  0  0
  6 16  2  0  0  0  0
  7  6  1  0  0  0  0
  8 13  1  6  0  0  0
  8  5  1  0  0  0  0
  8  3  1  0  0  0  0
  9 12  1  0  0  0  0
  9  1  1  0  0  0  0
 10  7  1  0  0  0  0
 11  9  1  0  0  0  0
 14 17  1  0  0  0  0
 14  7  2  0  0  0  0
 15 13  1  0  0  0  0
 15 11  1  0  0  0  0
 17  4  2  0  0  0  0
 19 18  1  6  0  0  0
 19 22  1  0  0  0  0
 20 23  1  0  0  0  0
 21 23  2  0  0  0  0
 22 25  1  0  0  0  0
 22 24  2  0  0  0  0
 23 29  1  0  0  0  0
 24 21  1  0  0  0  0
 25 20  2  0  0  0  0
 26 25  1  0  0  0  0
 28 29  2  0  0  0  0
 29 27  1  0  0  0  0
 30 19  1  0  0  0  0
 31 30  1  0  0  0  0
 32 31  1  0  0  0  0
M  END
>  <MODEL>
3

>  <REMARK>
 VINA RESULT:      -6.3      3.544      5.732
  Name = 
  5 active torsions:
  status: ('A' for Active; 'I' for Inactive)
    1  A    between atoms: C_1  and  C_4
    2  A    between atoms: C_1  and  C_27
    3  A    between atoms: C_5  and  C_27
    4  A    between atoms: C_16  and  C_27
    5  A    between atoms: C_19  and  C_26
                            x       y       z     vdW  Elec       q    Type
                         _______ _______ _______ _____ _____    ______ ____

>  <TORSDO>
F 5

$$$$
=
 OpenBabel10272402063D

 32 35  0  0  1  0  0  0  0  0999 V2000
  189.7440  179.0520  144.1540 O   0  0  0  0  0  0  0  0  0  0  0  0
  189.0190  178.0330  143.5070 C   0  0  1  0  0  3  0  0  0  0  0  0
  189.8120  177.3460  146.4080 O   0  0  0  0  0  0  0  0  0  0  0  0
  184.9890  178.4000  145.4910 C   0  0  0  0  0  3  0  0  0  0  0  0
  188.3890  176.9930  144.4570 C   0  0  1  0  0  3  0  0  0  0  0  0
  186.4440  178.4160  147.4240 C   0  0  0  0  0  3  0  0  0  0  0  0
  187.4750  177.8710  146.6550 C   0  0  0  0  0  0  0  0  0  0  0  0
  189.4470  176.4050  145.4250 C   0  0  1  0  0  3  0  0  0  0  0  0
  191.0030  178.9860  143.6410 N   0  0  0  0  0  0  0  0  0  0  0  0
  188.7450  177.4220  147.3220 C   0  0  0  0  0  2  0  0  0  0  0  0
  191.7840  178.0300  144.4230 C   0  0  0  0  0  2  0  0  0  0  0  0
  191.6060  180.2890  143.8570 C   0  0  0  0  0  1  0  0  0  0  0  0
  190.6860  175.7460  144.7950 C   0  0  0  0  0  2  0  0  0  0  0  0
  187.2690  177.5860  145.2880 C   0  0  0  0  0  0  0  0  0  0  0  0
  191.5480  176.6240  143.8800 C   0  0  0  0  0  2  0  0  0  0  0  0
  185.2070  178.6930  146.8400 C   0  0  0  0  0  3  0  0  0  0  0  0
  186.0140  177.8410  144.7230 C   0  0  0  0  0  3  0  0  0  0  0  0
  188.4850  179.7330  141.8510 O   0  0  0  0  0  1  0  0  0  0  0  0
  188.3830  178.3680  142.1290 C   0  0  1  0  0  0  0  0  0  0  0  0
  189.2820  176.9860  138.6550 C   0  0  0  0  0  3  0  0  0  0  0  0
  190.9070  176.1730  140.2420 C   0  0  0  0  0  3  0  0  0  0  0  0
  189.0750  177.5930  141.0080 C   0  0  0  0  0  0  0  0  0  0  0  0
  190.4310  176.2330  138.9270 C   0  0  0  0  0  0  0  0  0  0  0  0
  190.2400  176.8480  141.2660 C   0  0  0  0  0  3  0  0  0  0  0  0
  188.6110  177.6650  139.6750 C   0  0  0  0  0  0  0  0  0  0  0  0
  187.4900  178.4170  139.3470 O   0  0  0  0  0  1  0  0  0  0  0  0
  192.1910  176.1960  137.0350 C   0  0  0  0  0  1  0  0  0  0  0  0
  190.8450  174.2880  137.5730 N   0  0  0  0  0  2  0  0  0  0  0  0
  191.1350  175.5180  137.8410 C   0  0  0  0  0  0  0  0  0  0  0  0
  186.8860  178.0060  142.1930 C   0  0  0  0  0  2  0  0  0  0  0  0
  185.9530  179.1640  141.8450 C   0  0  0  0  0  2  0  0  0  0  0  0
  184.5900  178.6440  141.4340 C   0  0  0  0  0  1  0  0  0  0  0  0
  2 19  1  1  0  0  0
  2  1  1  0  0  0  0
  2  5  1  0  0  0  0
  3 10  1  0  0  0  0
  4 16  1  0  0  0  0
  5 14  1  1  0  0  0
  5  8  1  0  0  0  0
  7 10  1  0  0  0  0
  7  6  1  0  0  0  0
  8 13  1  6  0  0  0
  8  3  1  0  0  0  0
  9 12  1  0  0  0  0
  9  1  1  0  0  0  0
  9 11  1  0  0  0  0
 14  7  2  0  0  0  0
 15 11  1  0  0  0  0
 15 13  1  0  0  0  0
 16  6  2  0  0  0  0
 17 14  1  0  0  0  0
 17  4  2  0  0  0  0
 19 18  1  6  0  0  0
 19 30  1  0  0  0  0
 20 23  2  0  0  0  0
 20 25  1  0  0  0  0
 21 24  2  0  0  0  0
 22 24  1  0  0  0  0
 22 19  1  0  0  0  0
 23 21  1  0  0  0  0
 25 22  2  0  0  0  0
 26 25  1  0  0  0  0
 27 29  1  0  0  0  0
 28 29  2  0  0  0  0
 29 23  1  0  0  0  0
 31 30  1  0  0  0  0
 32 31  1  0  0  0  0
M  END
>  <MODEL>
4

>  <REMARK>
 VINA RESULT:      -6.2      4.540      8.978
  Name = 
  5 active torsions:
  status: ('A' for Active; 'I' for Inactive)
    1  A    between atoms: C_1  and  C_4
    2  A    between atoms: C_1  and  C_27
    3  A    between atoms: C_5  and  C_27
    4  A    between atoms: C_16  and  C_27
    5  A    between atoms: C_19  and  C_26
                            x       y       z     vdW  Elec       q    Type
                         _______ _______ _______ _____ _____    ______ ____

>  <TORSDO>
F 5

$$$$
=
 OpenBabel10272402063D

 32 35  0  0  1  0  0  0  0  0999 V2000
  184.1130  176.3390  135.4800 O   0  0  0  0  0  0  0  0  0  0  0  0
  185.0860  176.3300  136.4970 C   0  0  1  0  0  3  0  0  0  0  0  0
  182.6740  174.4930  137.0670 O   0  0  0  0  0  0  0  0  0  0  0  0
  187.0310  172.3180  135.8440 C   0  0  0  0  0  3  0  0  0  0  0  0
  184.9990  175.1250  137.4560 C   0  0  1  0  0  3  0  0  0  0  0  0
  184.6940  171.6970  135.7930 C   0  0  0  0  0  3  0  0  0  0  0  0
  184.3590  172.8980  136.4240 C   0  0  0  0  0  0  0  0  0  0  0  0
  183.5710  174.9750  138.0400 C   0  0  1  0  0  3  0  0  0  0  0  0
  183.4390  177.5120  135.6300 N   0  0  0  0  0  0  0  0  0  0  0  0
  182.9490  173.1240  136.8940 C   0  0  0  0  0  2  0  0  0  0  0  0
  182.3450  177.3130  136.5780 C   0  0  0  0  0  2  0  0  0  0  0  0
  182.8260  177.8050  134.3460 C   0  0  0  0  0  1  0  0  0  0  0  0
  182.9880  176.1860  138.7870 C   0  0  0  0  0  2  0  0  0  0  0  0
  185.3650  173.8240  136.7700 C   0  0  0  0  0  0  0  0  0  0  0  0
  182.8700  177.4960  137.9990 C   0  0  0  0  0  2  0  0  0  0  0  0
  186.0270  171.4130  135.4910 C   0  0  0  0  0  3  0  0  0  0  0  0
  186.7010  173.5140  136.4880 C   0  0  0  0  0  3  0  0  0  0  0  0
  186.2220  178.3000  135.6330 O   0  0  0  0  0  1  0  0  0  0  0  0
  186.4350  177.0450  136.2070 C   0  0  1  0  0  0  0  0  0  0  0  0
  187.5560  178.2810  139.6700 C   0  0  0  0  0  3  0  0  0  0  0  0
  189.0830  176.5600  138.9450 C   0  0  0  0  0  3  0  0  0  0  0  0
  187.2400  177.2310  137.4920 C   0  0  0  0  0  0  0  0  0  0  0  0
  188.6860  177.4900  139.9130 C   0  0  0  0  0  0  0  0  0  0  0  0
  188.3670  176.4300  137.7550 C   0  0  0  0  0  3  0  0  0  0  0  0
  186.8330  178.1550  138.4810 C   0  0  0  0  0  0  0  0  0  0  0  0
  185.7070  178.9480  138.3010 O   0  0  0  0  0  1  0  0  0  0  0  0
  190.8950  177.2920  141.2410 C   0  0  0  0  0  1  0  0  0  0  0  0
  188.8560  178.0520  142.2470 N   0  0  0  0  0  2  0  0  0  0  0  0
  189.4440  177.6300  141.1750 C   0  0  0  0  0  0  0  0  0  0  0  0
  187.2210  176.1870  135.1950 C   0  0  0  0  0  2  0  0  0  0  0  0
  188.3210  176.9490  134.4590 C   0  0  0  0  0  2  0  0  0  0  0  0
  189.5740  176.1030  134.3520 C   0  0  0  0  0  1  0  0  0  0  0  0
  1  9  1  0  0  0  0
  1  2  1  0  0  0  0
  2 19  1  6  0  0  0
  2  5  1  0  0  0  0
  3  8  1  0  0  0  0
  4 17  1  0  0  0  0
  5 14  1  6  0  0  0
  5  8  1  0  0  0  0
  6  7  2  0  0  0  0
  7 14  1  0  0  0  0
  7 10  1  0  0  0  0
  8 13  1  6  0  0  0
  9 11  1  0  0  0  0
 10  3  1  0  0  0  0
 11 15  1  0  0  0  0
 12  9  1  0  0  0  0
 15 13  1  0  0  0  0
 16  6  1  0  0  0  0
 16  4  2  0  0  0  0
 17 14  2  0  0  0  0
 19 18  1  6  0  0  0
 19 22  1  0  0  0  0
 20 23  1  0  0  0  0
 21 23  2  0  0  0  0
 22 24  2  0  0  0  0
 22 25  1  0  0  0  0
 23 29  1  0  0  0  0
 24 21  1  0  0  0  0
 25 20  2  0  0  0  0
 26 25  1  0  0  0  0
 29 27  1  0  0  0  0
 29 28  2  0  0  0  0
 30 19  1  0  0  0  0
 31 30  1  0  0  0  0
 32 31  1  0  0  0  0
M  END
>  <MODEL>
5

>  <REMARK>
 VINA RESULT:      -5.7      3.410      4.695
  Name = 
  5 active torsions:
  status: ('A' for Active; 'I' for Inactive)
    1  A    between atoms: C_1  and  C_4
    2  A    between atoms: C_1  and  C_27
    3  A    between atoms: C_5  and  C_27
    4  A    between atoms: C_16  and  C_27
    5  A    between atoms: C_19  and  C_26
                            x       y       z     vdW  Elec       q    Type
                         _______ _______ _______ _____ _____    ______ ____

>  <TORSDO>
F 5

$$$$
=
 OpenBabel10272402063D

 32 35  0  0  1  0  0  0  0  0999 V2000
  187.5540  176.6800  135.4520 O   0  0  0  0  0  0  0  0  0  0  0  0
  188.0300  176.3700  136.7390 C   0  0  1  0  0  3  0  0  0  0  0  0
  185.9700  174.3470  135.6550 O   0  0  0  0  0  0  0  0  0  0  0  0
  190.7740  172.9010  135.8720 C   0  0  0  0  0  3  0  0  0  0  0  0
  187.7940  174.9090  137.1750 C   0  0  1  0  0  3  0  0  0  0  0  0
  188.8030  172.2340  134.6380 C   0  0  0  0  0  3  0  0  0  0  0  0
  188.0320  173.1360  135.3770 C   0  0  0  0  0  0  0  0  0  0  0  0
  186.3050  174.5100  137.0140 C   0  0  1  0  0  3  0  0  0  0  0  0
  186.6730  177.7030  135.6240 N   0  0  0  0  0  0  0  0  0  0  0  0
  186.5360  173.1290  135.2340 C   0  0  0  0  0  2  0  0  0  0  0  0
  185.3510  177.1480  135.9040 C   0  0  0  0  0  2  0  0  0  0  0  0
  186.5750  178.3850  134.3460 C   0  0  0  0  0  1  0  0  0  0  0  0
  185.2630  175.3710  137.7470 C   0  0  0  0  0  2  0  0  0  0  0  0
  188.6330  173.9330  136.3740 C   0  0  0  0  0  0  0  0  0  0  0  0
  185.2290  176.8640  137.3980 C   0  0  0  0  0  2  0  0  0  0  0  0
  190.1740  172.1270  134.8760 C   0  0  0  0  0  3  0  0  0  0  0  0
  190.0030  173.7940  136.6230 C   0  0  0  0  0  3  0  0  0  0  0  0
  189.2110  178.4960  136.7660 O   0  0  0  0  0  1  0  0  0  0  0  0
  189.2290  177.1980  137.2800 C   0  0  1  0  0  0  0  0  0  0  0  0
  188.1600  178.0830  140.8660 C   0  0  0  0  0  3  0  0  0  0  0  0
  190.0270  176.5610  140.9820 C   0  0  0  0  0  3  0  0  0  0  0  0
  189.1890  177.2810  138.8060 C   0  0  0  0  0  0  0  0  0  0  0  0
  189.0660  177.3420  141.6340 C   0  0  0  0  0  0  0  0  0  0  0  0
  190.0840  176.5280  139.5880 C   0  0  0  0  0  3  0  0  0  0  0  0
  188.2090  178.0540  139.4700 C   0  0  0  0  0  0  0  0  0  0  0  0
  187.2720  178.7890  138.7560 O   0  0  0  0  0  1  0  0  0  0  0  0
  187.6960  177.3510  143.8250 C   0  0  0  0  0  1  0  0  0  0  0  0
  190.0910  177.4350  143.8090 N   0  0  0  0  0  2  0  0  0  0  0  0
  189.0050  177.3790  143.1110 C   0  0  0  0  0  0  0  0  0  0  0  0
  190.5300  176.5180  136.8090 C   0  0  0  0  0  2  0  0  0  0  0  0
  190.9540  176.9040  135.3930 C   0  0  0  0  0  2  0  0  0  0  0  0
  192.2200  176.1720  134.9980 C   0  0  0  0  0  1  0  0  0  0  0  0
  1  9  1  0  0  0  0
  1  2  1  0  0  0  0
  2  5  1  0  0  0  0
  2 19  1  6  0  0  0
  3  8  1  0  0  0  0
  4 17  1  0  0  0  0
  5 14  1  6  0  0  0
  6 16  1  0  0  0  0
  6  7  2  0  0  0  0
  7 14  1  0  0  0  0
  8  5  1  0  0  0  0
  8 13  1  6  0  0  0
  9 11  1  0  0  0  0
 10  7  1  0  0  0  0
 10  3  1  0  0  0  0
 11 15  1  0  0  0  0
 12  9  1  0  0  0  0
 14 17  2  0  0  0  0
 15 13  1  0  0  0  0
 16  4  2  0  0  0  0
 19 18  1  6  0  0  0
 19 22  1  0  0  0  0
 20 23  1  0  0  0  0
 21 23  2  0  0  0  0
 22 25  1  0  0  0  0
 22 24  2  0  0  0  0
 23 29  1  0  0  0  0
 24 21  1  0  0  0  0
 25 20  2  0  0  0  0
 26 25  1  0  0  0  0
 29 28  2  0  0  0  0
 29 27  1  0  0  0  0
 30 19  1  0  0  0  0
 31 30  1  0  0  0  0
 32 31  1  0  0  0  0
M  END
>  <MODEL>
6

>  <REMARK>
 VINA RESULT:      -5.5      4.262      6.209
  Name = 
  5 active torsions:
  status: ('A' for Active; 'I' for Inactive)
    1  A    between atoms: C_1  and  C_4
    2  A    between atoms: C_1  and  C_27
    3  A    between atoms: C_5  and  C_27
    4  A    between atoms: C_16  and  C_27
    5  A    between atoms: C_19  and  C_26
                            x       y       z     vdW  Elec       q    Type
                         _______ _______ _______ _____ _____    ______ ____

>  <TORSDO>
F 5

$$$$
=
 OpenBabel10272402063D

 32 35  0  0  1  0  0  0  0  0999 V2000
  189.2050  178.7510  143.0740 O   0  0  0  0  0  0  0  0  0  0  0  0
  188.4590  177.9780  142.1650 C   0  0  1  0  0  3  0  0  0  0  0  0
  188.3540  176.9310  145.0640 O   0  0  0  0  0  0  0  0  0  0  0  0
  184.2420  179.1560  143.2330 C   0  0  0  0  0  3  0  0  0  0  0  0
  187.4090  177.0560  142.8180 C   0  0  1  0  0  3  0  0  0  0  0  0
  185.1500  178.6980  145.4280 C   0  0  0  0  0  3  0  0  0  0  0  0
  186.1960  177.9770  144.8470 C   0  0  0  0  0  0  0  0  0  0  0  0
  188.0470  176.1700  143.9190 C   0  0  1  0  0  3  0  0  0  0  0  0
  190.5070  178.4230  142.8500 N   0  0  0  0  0  0  0  0  0  0  0  0
  187.1380  177.1960  145.7210 C   0  0  0  0  0  2  0  0  0  0  0  0
  190.8500  177.2590  143.6640 C   0  0  0  0  0  2  0  0  0  0  0  0
  191.3050  179.5280  143.3500 C   0  0  0  0  0  1  0  0  0  0  0  0
  189.2310  175.2800  143.5050 C   0  0  0  0  0  2  0  0  0  0  0  0
  186.2740  177.8410  143.4450 C   0  0  0  0  0  0  0  0  0  0  0  0
  190.4580  175.9880  142.9170 C   0  0  0  0  0  2  0  0  0  0  0  0
  184.1820  179.2980  144.6220 C   0  0  0  0  0  3  0  0  0  0  0  0
  185.2800  178.4230  142.6500 C   0  0  0  0  0  3  0  0  0  0  0  0
  188.6080  179.8970  140.6780 O   0  0  0  0  0  1  0  0  0  0  0  0
  188.2660  178.5450  140.7300 C   0  0  1  0  0  0  0  0  0  0  0  0
  190.2930  177.6650  137.5830 C   0  0  0  0  0  3  0  0  0  0  0  0
  190.5150  175.8560  139.1630 C   0  0  0  0  0  3  0  0  0  0  0  0
  189.1330  177.7870  139.7250 C   0  0  0  0  0  0  0  0  0  0  0  0
  190.8230  176.4130  137.9160 C   0  0  0  0  0  0  0  0  0  0  0  0
  189.6860  176.5360  140.0550 C   0  0  0  0  0  3  0  0  0  0  0  0
  189.4630  178.3530  138.4730 C   0  0  0  0  0  0  0  0  0  0  0  0
  188.9820  179.6020  138.1020 O   0  0  0  0  0  1  0  0  0  0  0  0
  192.6370  174.6330  137.4430 C   0  0  0  0  0  1  0  0  0  0  0  0
  191.6710  175.9740  135.7070 N   0  0  0  0  0  2  0  0  0  0  0  0
  191.7020  175.6940  136.9690 C   0  0  0  0  0  0  0  0  0  0  0  0
  186.7740  178.4180  140.3640 C   0  0  0  0  0  2  0  0  0  0  0  0
  186.5230  178.0380  138.9060 C   0  0  0  0  0  2  0  0  0  0  0  0
  185.1080  178.3950  138.4990 C   0  0  0  0  0  1  0  0  0  0  0  0
  2 19  1  6  0  0  0
  2  5  1  0  0  0  0
  2  1  1  0  0  0  0
  3 10  1  0  0  0  0
  4 16  1  0  0  0  0
  5 14  1  1  0  0  0
  5  8  1  0  0  0  0
  7  6  1  0  0  0  0
  7 10  1  0  0  0  0
  8 13  1  6  0  0  0
  8  3  1  0  0  0  0
  9  1  1  0  0  0  0
  9 12  1  0  0  0  0
  9 11  1  0  0  0  0
 14  7  2  0  0  0  0
 15 13  1  0  0  0  0
 15 11  1  0  0  0  0
 16  6  2  0  0  0  0
 17  4  2  0  0  0  0
 17 14  1  0  0  0  0
 19 18  1  6  0  0  0
 20 23  2  0  0  0  0
 20 25  1  0  0  0  0
 21 24  2  0  0  0  0
 22 24  1  0  0  0  0
 22 19  1  0  0  0  0
 23 21  1  0  0  0  0
 25 22  2  0  0  0  0
 26 25  1  0  0  0  0
 28 29  2  0  0  0  0
 29 27  1  0  0  0  0
 29 23  1  0  0  0  0
 30 19  1  0  0  0  0
 31 30  1  0  0  0  0
 32 31  1  0  0  0  0
M  END
>  <MODEL>
7

>  <REMARK>
 VINA RESULT:      -5.4      4.273      8.166
  Name = 
  5 active torsions:
  status: ('A' for Active; 'I' for Inactive)
    1  A    between atoms: C_1  and  C_4
    2  A    between atoms: C_1  and  C_27
    3  A    between atoms: C_5  and  C_27
    4  A    between atoms: C_16  and  C_27
    5  A    between atoms: C_19  and  C_26
                            x       y       z     vdW  Elec       q    Type
                         _______ _______ _______ _____ _____    ______ ____

>  <TORSDO>
F 5

$$$$
=
 OpenBabel10272402063D

 32 35  0  0  1  0  0  0  0  0999 V2000
  183.6860  178.6210  137.7600 O   0  0  0  0  0  0  0  0  0  0  0  0
  182.6510  177.8150  137.2510 C   0  0  1  0  0  3  0  0  0  0  0  0
  181.7070  179.8780  139.3410 O   0  0  0  0  0  0  0  0  0  0  0  0
  180.5110  180.7050  134.5350 C   0  0  0  0  0  3  0  0  0  0  0  0
  181.2310  178.3760  137.4780 C   0  0  1  0  0  3  0  0  0  0  0  0
  180.7240  182.0460  136.5380 C   0  0  0  0  0  3  0  0  0  0  0  0
  180.9610  180.8900  137.2880 C   0  0  0  0  0  0  0  0  0  0  0  0
  180.9960  178.7190  138.9710 C   0  0  1  0  0  3  0  0  0  0  0  0
  184.3680  177.8320  138.6350 N   0  0  0  0  0  0  0  0  0  0  0  0
  181.0220  180.9760  138.7870 C   0  0  0  0  0  2  0  0  0  0  0  0
  183.7390  177.9300  139.9500 C   0  0  0  0  0  2  0  0  0  0  0  0
  185.6940  178.4080  138.7650 C   0  0  0  0  0  1  0  0  0  0  0  0
  181.2010  177.5870  139.9930 C   0  0  0  0  0  2  0  0  0  0  0  0
  180.9770  179.6270  136.6610 C   0  0  0  0  0  0  0  0  0  0  0  0
  182.5870  176.9330  140.0340 C   0  0  0  0  0  2  0  0  0  0  0  0
  180.5140  181.9550  135.1610 C   0  0  0  0  0  3  0  0  0  0  0  0
  180.7340  179.5470  135.2850 C   0  0  0  0  0  3  0  0  0  0  0  0
  183.2070  177.6620  134.8880 O   0  0  0  0  0  1  0  0  0  0  0  0
  182.9820  176.9020  136.0380 C   0  0  1  0  0  0  0  0  0  0  0  0
  185.3080  174.1300  137.3380 C   0  0  0  0  0  3  0  0  0  0  0  0
  186.5870  175.5850  135.9010 C   0  0  0  0  0  3  0  0  0  0  0  0
  184.2280  176.0610  136.3130 C   0  0  0  0  0  0  0  0  0  0  0  0
  186.5250  174.4580  136.7290 C   0  0  0  0  0  0  0  0  0  0  0  0
  185.4530  176.3720  135.6920 C   0  0  0  0  0  3  0  0  0  0  0  0
  184.1680  174.9120  137.1330 C   0  0  0  0  0  0  0  0  0  0  0  0
  182.9800  174.5290  137.7430 O   0  0  0  0  0  1  0  0  0  0  0  0
  189.0880  174.2290  136.9740 C   0  0  0  0  0  1  0  0  0  0  0  0
  187.6110  172.3490  137.1330 N   0  0  0  0  0  2  0  0  0  0  0  0
  187.7250  173.6240  136.9520 C   0  0  0  0  0  0  0  0  0  0  0  0
  181.7630  175.9950  135.7760 C   0  0  0  0  0  2  0  0  0  0  0  0
  181.6890  175.4500  134.3520 C   0  0  0  0  0  2  0  0  0  0  0  0
  181.8780  173.9470  134.3460 C   0  0  0  0  0  1  0  0  0  0  0  0
  1  9  1  0  0  0  0
  2 19  1  6  0  0  0
  2  5  1  0  0  0  0
  2  1  1  0  0  0  0
  4 16  2  0  0  0  0
  4 17  1  0  0  0  0
  5 14  1  6  0  0  0
  5  8  1  0  0  0  0
  6  7  2  0  0  0  0
  7 10  1  0  0  0  0
  8  3  1  0  0  0  0
  8 13  1  1  0  0  0
  9 12  1  0  0  0  0
  9 11  1  0  0  0  0
 10  3  1  0  0  0  0
 11 15  1  0  0  0  0
 13 15  1  0  0  0  0
 14  7  1  0  0  0  0
 16  6  1  0  0  0  0
 17 14  2  0  0  0  0
 19 18  1  6  0  0  0
 19 22  1  0  0  0  0
 21 23  1  0  0  0  0
 22 25  2  0  0  0  0
 23 29  1  0  0  0  0
 23 20  2  0  0  0  0
 24 21  2  0  0  0  0
 24 22  1  0  0  0  0
 25 20  1  0  0  0  0
 25 26  1  0  0  0  0
 29 27  1  0  0  0  0
 29 28  2  0  0  0  0
 30 19  1  0  0  0  0
 31 30  1  0  0  0  0
 32 31  1  0  0  0  0
M  END
>  <MODEL>
8

>  <REMARK>
 VINA RESULT:      -5.2      3.039      6.164
  Name = 
  5 active torsions:
  status: ('A' for Active; 'I' for Inactive)
    1  A    between atoms: C_1  and  C_4
    2  A    between atoms: C_1  and  C_27
    3  A    between atoms: C_5  and  C_27
    4  A    between atoms: C_16  and  C_27
    5  A    between atoms: C_19  and  C_26
                            x       y       z     vdW  Elec       q    Type
                         _______ _______ _______ _____ _____    ______ ____

>  <TORSDO>
F 5

$$$$
=
 OpenBabel10272402063D

 32 35  0  0  1  0  0  0  0  0999 V2000
  189.8360  177.2980  136.4120 O   0  0  0  0  0  0  0  0  0  0  0  0
  189.2140  176.6680  137.5060 C   0  0  1  0  0  3  0  0  0  0  0  0
  191.7090  175.1810  136.4670 O   0  0  0  0  0  0  0  0  0  0  0  0
  192.0910  177.6140  140.8430 C   0  0  0  0  0  3  0  0  0  0  0  0
  190.1010  175.6430  138.2430 C   0  0  1  0  0  3  0  0  0  0  0  0
  193.6210  176.8310  139.1400 C   0  0  0  0  0  3  0  0  0  0  0  0
  192.5600  176.2220  138.4650 C   0  0  0  0  0  0  0  0  0  0  0  0
  190.6960  174.6040  137.2580 C   0  0  1  0  0  3  0  0  0  0  0  0
  189.0470  177.0250  135.3370 N   0  0  0  0  0  0  0  0  0  0  0  0
  192.8410  175.3260  137.2910 C   0  0  0  0  0  2  0  0  0  0  0  0
  189.4670  175.7530  134.7530 C   0  0  0  0  0  2  0  0  0  0  0  0
  189.3290  178.0480  134.3460 C   0  0  0  0  0  1  0  0  0  0  0  0
  189.7030  173.8040  136.3980 C   0  0  0  0  0  2  0  0  0  0  0  0
  191.2490  176.3070  138.9770 C   0  0  0  0  0  0  0  0  0  0  0  0
  188.7710  174.6090  135.4840 C   0  0  0  0  0  2  0  0  0  0  0  0
  193.3850  177.5380  140.3200 C   0  0  0  0  0  3  0  0  0  0  0  0
  191.0300  176.9930  140.1770 C   0  0  0  0  0  3  0  0  0  0  0  0
  188.1920  178.8190  137.9970 O   0  0  0  0  0  1  0  0  0  0  0  0
  188.0880  177.4480  138.2400 C   0  0  1  0  0  0  0  0  0  0  0  0
  184.3580  177.4210  137.3070 C   0  0  0  0  0  3  0  0  0  0  0  0
  185.2840  175.2510  136.8060 C   0  0  0  0  0  3  0  0  0  0  0  0
  186.7090  176.9780  137.7780 C   0  0  0  0  0  0  0  0  0  0  0  0
  184.1860  176.1190  136.8220 C   0  0  0  0  0  0  0  0  0  0  0  0
  186.5290  175.6770  137.2720 C   0  0  0  0  0  3  0  0  0  0  0  0
  185.6010  177.8550  137.7750 C   0  0  0  0  0  0  0  0  0  0  0  0
  185.7230  179.1640  138.2240 O   0  0  0  0  0  1  0  0  0  0  0  0
  181.8210  176.6550  135.9290 C   0  0  0  0  0  1  0  0  0  0  0  0
  182.5990  174.4090  136.2340 N   0  0  0  0  0  2  0  0  0  0  0  0
  182.8670  175.6700  136.3280 C   0  0  0  0  0  0  0  0  0  0  0  0
  188.2590  177.2200  139.7550 C   0  0  0  0  0  2  0  0  0  0  0  0
  187.8880  178.4290  140.6110 C   0  0  0  0  0  2  0  0  0  0  0  0
  188.0910  178.1240  142.0810 C   0  0  0  0  0  1  0  0  0  0  0  0
  1  2  1  0  0  0  0
  2 19  1  1  0  0  0
  2  5  1  0  0  0  0
  3  8  1  0  0  0  0
  3 10  1  0  0  0  0
  5 14  1  6  0  0  0
  6 16  2  0  0  0  0
  7 14  2  0  0  0  0
  7  6  1  0  0  0  0
  8 13  1  6  0  0  0
  8  5  1  0  0  0  0
  9  1  1  0  0  0  0
 10  7  1  0  0  0  0
 11  9  1  0  0  0  0
 11 15  1  0  0  0  0
 12  9  1  0  0  0  0
 14 17  1  0  0  0  0
 15 13  1  0  0  0  0
 16  4  1  0  0  0  0
 17  4  2  0  0  0  0
 19 18  1  6  0  0  0
 19 30  1  0  0  0  0
 20 25  1  0  0  0  0
 21 23  1  0  0  0  0
 21 24  2  0  0  0  0
 22 19  1  0  0  0  0
 23 20  2  0  0  0  0
 24 22  1  0  0  0  0
 25 22  2  0  0  0  0
 25 26  1  0  0  0  0
 27 29  1  0  0  0  0
 28 29  2  0  0  0  0
 29 23  1  0  0  0  0
 30 31  1  0  0  0  0
 31 32  1  0  0  0  0
M  END
>  <MODEL>
9

>  <REMARK>
 VINA RESULT:      -5.1      4.442      8.767
  Name = 
  5 active torsions:
  status: ('A' for Active; 'I' for Inactive)
    1  A    between atoms: C_1  and  C_4
    2  A    between atoms: C_1  and  C_27
    3  A    between atoms: C_5  and  C_27
    4  A    between atoms: C_16  and  C_27
    5  A    between atoms: C_19  and  C_26
                            x       y       z     vdW  Elec       q    Type
                         _______ _______ _______ _____ _____    ______ ____

>  <TORSDO>
F 5

$$$$
