=
 OpenBabel10262423483D

 34 37  0  0  1  0  0  0  0  0999 V2000
  182.9900  176.8770  135.7820 C   0  0  2  0  0  3  0  0  0  0  0  0
  184.8450  175.2330  136.3560 C   0  0  0  0  0  0  0  0  0  0  0  0
  188.9710  175.6060  134.4730 C   0  0  0  0  0  2  0  0  0  0  0  0
  185.0890  177.6650  137.0190 C   0  0  1  0  0  3  0  0  0  0  0  0
  187.0490  178.8120  135.3560 C   0  0  0  0  0  1  0  0  0  0  0  0
  180.9880  176.9520  137.0730 O   0  0  0  0  0  0  0  0  0  0  0  0
  184.1300  174.2870  135.9250 O   0  0  0  0  0  0  0  0  0  0  0  0
  186.7500  175.9800  137.8370 C   0  0  0  0  0  2  0  0  0  0  0  0
  189.6680  174.4490  135.1730 C   0  0  0  0  0  2  0  0  0  0  0  0
  188.9080  174.0410  136.4220 C   0  0  0  0  0  2  0  0  0  0  0  0
  184.4860  176.6560  136.0250 C   0  0  2  0  0  3  0  0  0  0  0  0
  189.5440  176.9530  134.9040 C   0  0  0  0  0  2  0  0  0  0  0  0
  187.3760  177.5300  135.9760 N   0  0  0  0  0  0  0  0  0  0  0  0
  182.8150  177.9460  134.9030 O   0  0  0  0  0  1  0  0  0  0  0  0
  186.5730  173.5860  137.1370 C   0  0  0  0  0  2  0  0  0  0  0  0
  184.3330  177.6730  138.3600 C   0  0  2  0  0  3  0  0  0  0  0  0
  182.2320  177.1420  137.0450 C   0  0  0  0  0  0  0  0  0  0  0  0
  186.0670  174.9500  137.0550 N   0  0  0  0  0  0  0  0  0  0  0  0
  188.8500  177.5610  136.1350 C   0  0  1  0  0  3  0  0  0  0  0  0
  186.5940  177.3850  137.2260 C   0  0  1  0  0  3  0  0  0  0  0  0
  182.8850  177.7020  138.1860 N   0  0  0  0  0  2  0  0  0  0  0  0
  187.6070  173.3490  136.0500 C   0  0  0  0  0  2  0  0  0  0  0  0
  189.4380  177.1170  137.4970 C   0  0  0  0  0  3  0  0  0  0  0  0
  189.3660  178.2620  138.4900 C   0  0  0  0  0  1  0  0  0  0  0  0
  190.8960  176.6960  137.3910 C   0  0  0  0  0  1  0  0  0  0  0  0
  184.6630  179.9770  138.8110 O   0  0  0  0  0  0  0  0  0  0  0  0
  184.7710  178.8000  139.2500 C   0  0  0  0  0  0  0  0  0  0  0  0
  187.1940  178.2760  142.1220 C   0  0  0  0  0  0  0  0  0  0  0  0
  186.3140  178.1310  143.1970 C   0  0  0  0  0  3  0  0  0  0  0  0
  185.3120  178.5720  140.6100 C   0  0  0  0  0  0  0  0  0  0  0  0
  184.9350  178.2060  142.9840 C   0  0  0  0  0  3  0  0  0  0  0  0
  186.6960  178.4960  140.8350 C   0  0  0  0  0  3  0  0  0  0  0  0
  184.4370  178.4260  141.6970 C   0  0  0  0  0  3  0  0  0  0  0  0
  188.5980  178.2000  142.3360 N   0  0  0  0  0  1  0  0  0  0  0  0
  1 14  1  6  0  0  0
  1 11  1  0  0  0  0
  1 17  1  0  0  0  0
  2 18  1  0  0  0  0
  3 12  1  0  0  0  0
  3  9  1  0  0  0  0
  4 20  1  0  0  0  0
  4 16  1  0  0  0  0
  5 13  1  0  0  0  0
  7  2  2  0  0  0  0
  9 10  1  0  0  0  0
 11  2  1  0  0  0  0
 11  4  1  0  0  0  0
 12 19  1  0  0  0  0
 13 19  1  0  0  0  0
 13 20  1  0  0  0  0
 16 27  1  0  0  0  0
 17  6  2  0  0  0  0
 17 21  1  0  0  0  0
 18 15  1  0  0  0  0
 18  8  1  0  0  0  0
 19 23  1  0  0  0  0
 20  8  1  0  0  0  0
 21 16  1  0  0  0  0
 22 10  1  0  0  0  0
 22 15  1  0  0  0  0
 23 24  1  0  0  0  0
 25 23  1  0  0  0  0
 26 27  2  0  0  0  0
 27 30  1  0  0  0  0
 28 34  1  0  0  0  0
 28 29  1  0  0  0  0
 30 32  1  0  0  0  0
 30 33  2  0  0  0  0
 31 29  2  0  0  0  0
 32 28  2  0  0  0  0
 33 31  1  0  0  0  0
M  END
>  <MODEL>
1

>  <REMARK>
 VINA RESULT:      -6.1      0.000      0.000
  Name = 
  3 active torsions:
  status: ('A' for Active; 'I' for Inactive)
    1  A    between atoms: C_12  and  C_28
    2  A    between atoms: C_13  and  C_29
    3  A    between atoms: C_21  and  C_28
                            x       y       z     vdW  Elec       q    Type
                         _______ _______ _______ _____ _____    ______ ____

>  <TORSDO>
F 3

$$$$
=
 OpenBabel10262423483D

 34 37  0  0  1  0  0  0  0  0999 V2000
  180.8310  178.9470  142.1940 C   0  0  2  0  0  3  0  0  0  0  0  0
  180.9500  176.8780  140.7180 C   0  0  0  0  0  0  0  0  0  0  0  0
  180.4100  177.1830  136.2100 C   0  0  0  0  0  2  0  0  0  0  0  0
  182.7150  178.6790  140.4810 C   0  0  1  0  0  3  0  0  0  0  0  0
  182.2580  180.0080  138.0420 C   0  0  0  0  0  1  0  0  0  0  0  0
  181.5380  178.8600  144.4690 O   0  0  0  0  0  0  0  0  0  0  0  0
  179.9820  176.3780  141.3530 O   0  0  0  0  0  0  0  0  0  0  0  0
  182.9820  176.5080  139.2630 C   0  0  0  0  0  2  0  0  0  0  0  0
  180.6160  175.7230  135.8370 C   0  0  0  0  0  2  0  0  0  0  0  0
  181.3270  174.9780  136.9520 C   0  0  0  0  0  2  0  0  0  0  0  0
  181.2600  178.3440  140.8530 C   0  0  2  0  0  3  0  0  0  0  0  0
  181.5370  178.0640  135.6790 C   0  0  0  0  0  2  0  0  0  0  0  0
  182.2550  178.5480  138.0090 N   0  0  0  0  0  0  0  0  0  0  0  0
  180.5450  180.3020  142.0250 O   0  0  0  0  0  1  0  0  0  0  0  0
  181.2180  174.7430  139.4220 C   0  0  0  0  0  2  0  0  0  0  0  0
  183.7030  178.2590  141.5850 C   0  0  2  0  0  3  0  0  0  0  0  0
  181.8720  178.7870  143.2580 C   0  0  0  0  0  0  0  0  0  0  0  0
  181.6810  176.0790  139.7730 N   0  0  0  0  0  0  0  0  0  0  0  0
  182.7260  178.2080  136.6440 C   0  0  1  0  0  3  0  0  0  0  0  0
  183.0870  178.0380  139.1250 C   0  0  1  0  0  3  0  0  0  0  0  0
  183.2530  178.6540  142.9160 N   0  0  0  0  0  2  0  0  0  0  0  0
  180.4020  174.7950  138.1430 C   0  0  0  0  0  2  0  0  0  0  0  0
  183.8090  177.1090  136.5080 C   0  0  0  0  0  3  0  0  0  0  0  0
  185.1640  177.6680  136.9010 C   0  0  0  0  0  1  0  0  0  0  0  0
  183.9270  176.5830  135.0860 C   0  0  0  0  0  1  0  0  0  0  0  0
  185.2450  179.6260  140.4130 O   0  0  0  0  0  0  0  0  0  0  0  0
  185.0890  178.7770  141.3310 C   0  0  0  0  0  0  0  0  0  0  0  0
  188.6220  177.7780  142.2880 C   0  0  0  0  0  0  0  0  0  0  0  0
  188.4610  177.4750  143.6420 C   0  0  0  0  0  3  0  0  0  0  0  0
  186.2590  178.3310  142.1230 C   0  0  0  0  0  0  0  0  0  0  0  0
  187.2040  177.5980  144.2400 C   0  0  0  0  0  3  0  0  0  0  0  0
  187.5260  178.2040  141.5330 C   0  0  0  0  0  3  0  0  0  0  0  0
  186.1090  178.0240  143.4840 C   0  0  0  0  0  3  0  0  0  0  0  0
  189.9000  177.6530  141.6770 N   0  0  0  0  0  1  0  0  0  0  0  0
  1 14  1  6  0  0  0
  1 17  1  0  0  0  0
  2 11  1  0  0  0  0
  2  7  2  0  0  0  0
  4 11  1  0  0  0  0
  4 16  1  0  0  0  0
  8 18  1  0  0  0  0
  9  3  1  0  0  0  0
  9 10  1  0  0  0  0
 10 22  1  0  0  0  0
 11  1  1  0  0  0  0
 12  3  1  0  0  0  0
 12 19  1  0  0  0  0
 13  5  1  0  0  0  0
 13 20  1  0  0  0  0
 15 18  1  0  0  0  0
 16 21  1  0  0  0  0
 17  6  2  0  0  0  0
 18  2  1  0  0  0  0
 19 13  1  0  0  0  0
 20  8  1  0  0  0  0
 20  4  1  0  0  0  0
 21 17  1  0  0  0  0
 22 15  1  0  0  0  0
 23 19  1  0  0  0  0
 23 24  1  0  0  0  0
 25 23  1  0  0  0  0
 26 27  2  0  0  0  0
 27 16  1  0  0  0  0
 27 30  1  0  0  0  0
 28 29  1  0  0  0  0
 29 31  2  0  0  0  0
 30 33  2  0  0  0  0
 32 30  1  0  0  0  0
 32 28  2  0  0  0  0
 33 31  1  0  0  0  0
 34 28  1  0  0  0  0
M  END
>  <MODEL>
2

>  <REMARK>
 VINA RESULT:      -5.8      3.588      5.622
  Name = 
  3 active torsions:
  status: ('A' for Active; 'I' for Inactive)
    1  A    between atoms: C_12  and  C_28
    2  A    between atoms: C_13  and  C_29
    3  A    between atoms: C_21  and  C_28
                            x       y       z     vdW  Elec       q    Type
                         _______ _______ _______ _____ _____    ______ ____

>  <TORSDO>
F 3

$$$$
=
 OpenBabel10262423483D

 34 37  0  0  1  0  0  0  0  0999 V2000
  186.0560  177.1060  135.6610 C   0  0  2  0  0  3  0  0  0  0  0  0
  187.2700  174.9230  136.1460 C   0  0  0  0  0  0  0  0  0  0  0  0
  191.3620  174.0690  134.3460 C   0  0  0  0  0  2  0  0  0  0  0  0
  188.2530  177.1050  136.9760 C   0  0  1  0  0  3  0  0  0  0  0  0
  190.5320  177.6620  135.4210 C   0  0  0  0  0  1  0  0  0  0  0  0
  184.1400  177.7400  136.9290 O   0  0  0  0  0  0  0  0  0  0  0  0
  186.3060  174.2840  135.6420 O   0  0  0  0  0  0  0  0  0  0  0  0
  189.2630  174.9300  137.6990 C   0  0  0  0  0  2  0  0  0  0  0  0
  191.6300  172.7100  134.9750 C   0  0  0  0  0  2  0  0  0  0  0  0
  190.7380  172.4920  136.1830 C   0  0  0  0  0  2  0  0  0  0  0  0
  187.3950  176.4040  135.9090 C   0  0  2  0  0  3  0  0  0  0  0  0
  192.3180  175.1340  134.8750 C   0  0  0  0  0  2  0  0  0  0  0  0
  190.4130  176.3090  135.9560 N   0  0  0  0  0  0  0  0  0  0  0  0
  186.2610  178.2260  134.8550 O   0  0  0  0  0  1  0  0  0  0  0  0
  188.3560  172.7660  136.8350 C   0  0  0  0  0  2  0  0  0  0  0  0
  187.4950  177.2730  138.3050 C   0  0  2  0  0  3  0  0  0  0  0  0
  185.3790  177.5230  136.9300 C   0  0  0  0  0  0  0  0  0  0  0  0
  188.3140  174.2220  136.8400 N   0  0  0  0  0  0  0  0  0  0  0  0
  191.8140  175.8570  136.1360 C   0  0  1  0  0  3  0  0  0  0  0  0
  189.5830  176.3460  137.1840 C   0  0  1  0  0  3  0  0  0  0  0  0
  186.1370  177.7740  138.1150 N   0  0  0  0  0  2  0  0  0  0  0  0
  189.2970  172.2770  135.7480 C   0  0  0  0  0  2  0  0  0  0  0  0
  192.1830  175.1660  137.4710 C   0  0  0  0  0  3  0  0  0  0  0  0
  192.4160  176.2110  138.5470 C   0  0  0  0  0  1  0  0  0  0  0  0
  193.4500  174.3310  137.3640 C   0  0  0  0  0  1  0  0  0  0  0  0
  188.8060  179.1770  138.8280 O   0  0  0  0  0  0  0  0  0  0  0  0
  188.2380  178.1450  139.2750 C   0  0  0  0  0  0  0  0  0  0  0  0
  189.3950  176.7250  142.5970 C   0  0  0  0  0  0  0  0  0  0  0  0
  188.4380  177.2530  143.4670 C   0  0  0  0  0  3  0  0  0  0  0  0
  188.3160  177.8350  140.7220 C   0  0  0  0  0  0  0  0  0  0  0  0
  187.4200  178.0710  142.9700 C   0  0  0  0  0  3  0  0  0  0  0  0
  189.3340  177.0140  141.2320 C   0  0  0  0  0  3  0  0  0  0  0  0
  187.3600  178.3600  141.6040 C   0  0  0  0  0  3  0  0  0  0  0  0
  190.4320  175.8910  143.1010 N   0  0  0  0  0  1  0  0  0  0  0  0
  1 14  1  6  0  0  0
  1 11  1  0  0  0  0
  1 17  1  0  0  0  0
  2 18  1  0  0  0  0
  3 12  1  0  0  0  0
  3  9  1  0  0  0  0
  4 20  1  0  0  0  0
  4 16  1  0  0  0  0
  5 13  1  0  0  0  0
  6 17  2  0  0  0  0
  7  2  2  0  0  0  0
  9 10  1  0  0  0  0
 11  2  1  0  0  0  0
 11  4  1  0  0  0  0
 12 19  1  0  0  0  0
 13 19  1  0  0  0  0
 13 20  1  0  0  0  0
 15 18  1  0  0  0  0
 16 27  1  0  0  0  0
 17 21  1  0  0  0  0
 18  8  1  0  0  0  0
 19 23  1  0  0  0  0
 20  8  1  0  0  0  0
 21 16  1  0  0  0  0
 22 10  1  0  0  0  0
 22 15  1  0  0  0  0
 23 24  1  0  0  0  0
 25 23  1  0  0  0  0
 26 27  2  0  0  0  0
 27 30  1  0  0  0  0
 28 34  1  0  0  0  0
 28 29  1  0  0  0  0
 30 32  1  0  0  0  0
 30 33  2  0  0  0  0
 31 29  2  0  0  0  0
 32 28  2  0  0  0  0
 33 31  1  0  0  0  0
M  END
>  <MODEL>
3

>  <REMARK>
 VINA RESULT:      -5.0      2.214      3.040
  Name = 
  3 active torsions:
  status: ('A' for Active; 'I' for Inactive)
    1  A    between atoms: C_12  and  C_28
    2  A    between atoms: C_13  and  C_29
    3  A    between atoms: C_21  and  C_28
                            x       y       z     vdW  Elec       q    Type
                         _______ _______ _______ _____ _____    ______ ____

>  <TORSDO>
F 3

$$$$
=
 OpenBabel10262423483D

 34 37  0  0  1  0  0  0  0  0999 V2000
  182.1910  174.3260  135.7110 C   0  0  2  0  0  3  0  0  0  0  0  0
  184.4530  173.5850  136.6110 C   0  0  0  0  0  0  0  0  0  0  0  0
  188.2980  174.5820  134.3910 C   0  0  0  0  0  2  0  0  0  0  0  0
  183.9120  176.0570  136.4850 C   0  0  1  0  0  3  0  0  0  0  0  0
  185.4540  177.1640  134.4070 C   0  0  0  0  0  1  0  0  0  0  0  0
  180.2380  174.1910  137.0690 O   0  0  0  0  0  0  0  0  0  0  0  0
  184.0770  172.3830  136.5440 O   0  0  0  0  0  0  0  0  0  0  0  0
  185.9980  175.2970  137.6450 C   0  0  0  0  0  2  0  0  0  0  0  0
  189.3050  173.9700  135.3530 C   0  0  0  0  0  2  0  0  0  0  0  0
  188.6830  173.7620  136.7210 C   0  0  0  0  0  2  0  0  0  0  0  0
  183.6760  174.6560  135.8930 C   0  0  2  0  0  3  0  0  0  0  0  0
  188.4130  176.1030  134.3480 C   0  0  0  0  0  2  0  0  0  0  0  0
  186.1500  176.3020  135.3580 N   0  0  0  0  0  0  0  0  0  0  0  0
  181.7120  174.9620  134.5650 O   0  0  0  0  0  1  0  0  0  0  0  0
  186.5900  172.8690  137.7190 C   0  0  0  0  0  2  0  0  0  0  0  0
  183.1630  176.2540  137.8150 C   0  0  2  0  0  3  0  0  0  0  0  0
  181.3610  174.7300  136.8890 C   0  0  0  0  0  0  0  0  0  0  0  0
  185.6870  173.9190  137.2670 N   0  0  0  0  0  0  0  0  0  0  0  0
  187.5380  176.8250  135.3860 C   0  0  1  0  0  3  0  0  0  0  0  0
  185.4250  176.3250  136.6510 C   0  0  1  0  0  3  0  0  0  0  0  0
  181.7810  175.7870  137.7520 N   0  0  0  0  0  2  0  0  0  0  0  0
  187.6700  172.6290  136.6790 C   0  0  0  0  0  2  0  0  0  0  0  0
  188.2050  177.0280  136.7690 C   0  0  0  0  0  3  0  0  0  0  0  0
  187.8360  178.3900  137.3260 C   0  0  0  0  0  1  0  0  0  0  0  0
  189.7220  176.9590  136.6990 C   0  0  0  0  0  1  0  0  0  0  0  0
  182.7840  178.5730  137.5040 O   0  0  0  0  0  0  0  0  0  0  0  0
  183.2080  177.6790  138.2840 C   0  0  0  0  0  0  0  0  0  0  0  0
  185.5390  178.7780  141.0690 C   0  0  0  0  0  0  0  0  0  0  0  0
  184.6760  178.7630  142.1670 C   0  0  0  0  0  3  0  0  0  0  0  0
  183.7220  178.0580  139.6210 C   0  0  0  0  0  0  0  0  0  0  0  0
  183.3380  178.3970  141.9980 C   0  0  0  0  0  3  0  0  0  0  0  0
  185.0640  178.4260  139.8030 C   0  0  0  0  0  3  0  0  0  0  0  0
  182.8640  178.0470  140.7310 C   0  0  0  0  0  3  0  0  0  0  0  0
  186.9020  179.1480  141.2380 N   0  0  0  0  0  1  0  0  0  0  0  0
  1 14  1  6  0  0  0
  1 11  1  0  0  0  0
  1 17  1  0  0  0  0
  2 18  1  0  0  0  0
  3  9  1  0  0  0  0
  4 20  1  0  0  0  0
  4 16  1  0  0  0  0
  5 13  1  0  0  0  0
  7  2  2  0  0  0  0
  9 10  1  0  0  0  0
 11  4  1  0  0  0  0
 11  2  1  0  0  0  0
 12  3  1  0  0  0  0
 12 19  1  0  0  0  0
 13 19  1  0  0  0  0
 13 20  1  0  0  0  0
 16 27  1  0  0  0  0
 17  6  2  0  0  0  0
 17 21  1  0  0  0  0
 18  8  1  0  0  0  0
 18 15  1  0  0  0  0
 19 23  1  0  0  0  0
 20  8  1  0  0  0  0
 21 16  1  0  0  0  0
 22 10  1  0  0  0  0
 22 15  1  0  0  0  0
 23 24  1  0  0  0  0
 25 23  1  0  0  0  0
 26 27  2  0  0  0  0
 27 30  1  0  0  0  0
 28 34  1  0  0  0  0
 28 29  1  0  0  0  0
 30 32  1  0  0  0  0
 30 33  2  0  0  0  0
 31 29  2  0  0  0  0
 32 28  2  0  0  0  0
 33 31  1  0  0  0  0
M  END
>  <MODEL>
4

>  <REMARK>
 VINA RESULT:      -4.9      1.626      1.940
  Name = 
  3 active torsions:
  status: ('A' for Active; 'I' for Inactive)
    1  A    between atoms: C_12  and  C_28
    2  A    between atoms: C_13  and  C_29
    3  A    between atoms: C_21  and  C_28
                            x       y       z     vdW  Elec       q    Type
                         _______ _______ _______ _____ _____    ______ ____

>  <TORSDO>
F 3

$$$$
=
 OpenBabel10262423483D

 34 37  0  0  1  0  0  0  0  0999 V2000
  194.5670  176.5240  136.2870 C   0  0  2  0  0  3  0  0  0  0  0  0
  192.7240  176.5690  138.0420 C   0  0  0  0  0  0  0  0  0  0  0  0
  188.7950  178.7270  137.2570 C   0  0  0  0  0  2  0  0  0  0  0  0
  192.3280  175.3590  135.8520 C   0  0  1  0  0  3  0  0  0  0  0  0
  190.5030  176.8870  134.3490 C   0  0  0  0  0  1  0  0  0  0  0  0
  196.4250  175.0490  136.5130 O   0  0  0  0  0  0  0  0  0  0  0  0
  193.5120  177.1410  138.8430 O   0  0  0  0  0  0  0  0  0  0  0  0
  190.6550  175.1590  137.7040 C   0  0  0  0  0  2  0  0  0  0  0  0
  188.0740  178.4090  138.5580 C   0  0  0  0  0  2  0  0  0  0  0  0
  188.7200  177.2260  139.2550 C   0  0  0  0  0  2  0  0  0  0  0  0
  193.0620  176.5010  136.5770 C   0  0  2  0  0  3  0  0  0  0  0  0
  188.1340  178.0420  136.0640 C   0  0  0  0  0  2  0  0  0  0  0  0
  190.1620  176.6390  135.7480 N   0  0  0  0  0  0  0  0  0  0  0  0
  194.7890  177.0900  135.0320 O   0  0  0  0  0  1  0  0  0  0  0  0
  190.9880  176.4020  139.8480 C   0  0  0  0  0  2  0  0  0  0  0  0
  192.9450  173.9850  136.1680 C   0  0  2  0  0  3  0  0  0  0  0  0
  195.1850  175.1610  136.3350 C   0  0  0  0  0  0  0  0  0  0  0  0
  191.4490  176.0930  138.5010 N   0  0  0  0  0  0  0  0  0  0  0  0
  188.6790  176.6330  135.7720 C   0  0  1  0  0  3  0  0  0  0  0  0
  190.8200  175.3870  136.1900 C   0  0  1  0  0  3  0  0  0  0  0  0
  194.4020  173.9930  136.0820 N   0  0  0  0  0  2  0  0  0  0  0  0
  190.0760  177.6160  139.8190 C   0  0  0  0  0  2  0  0  0  0  0  0
  187.9750  175.4920  136.5460 C   0  0  0  0  0  3  0  0  0  0  0  0
  187.9090  174.2460  135.6830 C   0  0  0  0  0  1  0  0  0  0  0  0
  186.5500  175.8490  136.9410 C   0  0  0  0  0  1  0  0  0  0  0  0
  191.6030  173.2300  134.3660 O   0  0  0  0  0  0  0  0  0  0  0  0
  192.3800  172.8980  135.3000 C   0  0  0  0  0  0  0  0  0  0  0  0
  194.0190  169.7290  136.5930 C   0  0  0  0  0  0  0  0  0  0  0  0
  193.3290  168.7520  135.8710 C   0  0  0  0  0  3  0  0  0  0  0  0
  192.7120  171.4680  135.5050 C   0  0  0  0  0  0  0  0  0  0  0  0
  192.3310  169.1280  134.9670 C   0  0  0  0  0  3  0  0  0  0  0  0
  193.7120  171.0800  136.4100 C   0  0  0  0  0  3  0  0  0  0  0  0
  192.0240  170.4790  134.7860 C   0  0  0  0  0  3  0  0  0  0  0  0
  195.0360  169.3500  137.5120 N   0  0  0  0  0  1  0  0  0  0  0  0
  1 14  1  6  0  0  0
  1 17  1  0  0  0  0
  1 11  1  0  0  0  0
  2 18  1  0  0  0  0
  2  7  2  0  0  0  0
  3  9  1  0  0  0  0
  4 16  1  0  0  0  0
  4 20  1  0  0  0  0
  4 11  1  0  0  0  0
  5 13  1  0  0  0  0
  8 18  1  0  0  0  0
  9 10  1  0  0  0  0
 10 22  1  0  0  0  0
 11  2  1  0  0  0  0
 12  3  1  0  0  0  0
 13 19  1  0  0  0  0
 13 20  1  0  0  0  0
 17  6  2  0  0  0  0
 18 15  1  0  0  0  0
 19 12  1  0  0  0  0
 19 23  1  0  0  0  0
 20  8  1  0  0  0  0
 21 16  1  0  0  0  0
 21 17  1  0  0  0  0
 22 15  1  0  0  0  0
 23 25  1  0  0  0  0
 24 23  1  0  0  0  0
 26 27  2  0  0  0  0
 27 30  1  0  0  0  0
 27 16  1  0  0  0  0
 28 34  1  0  0  0  0
 29 28  2  0  0  0  0
 30 32  2  0  0  0  0
 31 29  1  0  0  0  0
 32 28  1  0  0  0  0
 33 31  2  0  0  0  0
 33 30  1  0  0  0  0
M  END
>  <MODEL>
5

>  <REMARK>
 VINA RESULT:      -4.8      5.212      9.178
  Name = 
  3 active torsions:
  status: ('A' for Active; 'I' for Inactive)
    1  A    between atoms: C_12  and  C_28
    2  A    between atoms: C_13  and  C_29
    3  A    between atoms: C_21  and  C_28
                            x       y       z     vdW  Elec       q    Type
                         _______ _______ _______ _____ _____    ______ ____

>  <TORSDO>
F 3

$$$$
=
 OpenBabel10262423483D

 34 37  0  0  1  0  0  0  0  0999 V2000
  188.8310  177.9350  137.0330 C   0  0  2  0  0  3  0  0  0  0  0  0
  189.3600  175.4740  136.6600 C   0  0  0  0  0  0  0  0  0  0  0  0
  193.0660  174.2010  134.3460 C   0  0  0  0  0  2  0  0  0  0  0  0
  190.9130  176.8790  138.0860 C   0  0  1  0  0  3  0  0  0  0  0  0
  193.2820  177.2880  136.6220 C   0  0  0  0  0  1  0  0  0  0  0  0
  187.1550  178.5950  138.5950 O   0  0  0  0  0  0  0  0  0  0  0  0
  188.2630  175.3380  136.0540 O   0  0  0  0  0  0  0  0  0  0  0  0
  191.2450  174.4000  137.9560 C   0  0  0  0  0  2  0  0  0  0  0  0
  192.9230  172.6910  134.4610 C   0  0  0  0  0  2  0  0  0  0  0  0
  191.9860  172.3260  135.5970 C   0  0  0  0  0  2  0  0  0  0  0  0
  189.9080  176.8520  136.9210 C   0  0  2  0  0  3  0  0  0  0  0  0
  194.2780  174.7130  135.1180 C   0  0  0  0  0  2  0  0  0  0  0  0
  192.7710  175.9210  136.6830 N   0  0  0  0  0  0  0  0  0  0  0  0
  189.3610  179.1610  136.6330 O   0  0  0  0  0  1  0  0  0  0  0  0
  189.7720  173.0020  136.4980 C   0  0  0  0  0  2  0  0  0  0  0  0
  190.2120  176.7830  139.4530 C   0  0  2  0  0  3  0  0  0  0  0  0
  188.2800  178.0600  138.4200 C   0  0  0  0  0  0  0  0  0  0  0  0
  190.1480  174.3200  136.9920 N   0  0  0  0  0  0  0  0  0  0  0  0
  193.9810  175.0690  136.5850 C   0  0  1  0  0  3  0  0  0  0  0  0
  191.9660  175.7610  137.9170 C   0  0  1  0  0  3  0  0  0  0  0  0
  189.0580  177.6710  139.5540 N   0  0  0  0  0  2  0  0  0  0  0  0
  190.5510  172.6770  135.2370 C   0  0  0  0  0  2  0  0  0  0  0  0
  194.1140  173.8880  137.5790 C   0  0  0  0  0  3  0  0  0  0  0  0
  194.8490  174.3430  138.8260 C   0  0  0  0  0  1  0  0  0  0  0  0
  194.8900  172.7190  136.9930 C   0  0  0  0  0  1  0  0  0  0  0  0
  192.3600  177.2870  140.3190 O   0  0  0  0  0  0  0  0  0  0  0  0
  191.1570  177.0290  140.5930 C   0  0  0  0  0  0  0  0  0  0  0  0
  188.9720  176.7450  143.6810 C   0  0  0  0  0  0  0  0  0  0  0  0
  189.9150  176.9160  144.6980 C   0  0  0  0  0  3  0  0  0  0  0  0
  190.7210  176.9860  142.0080 C   0  0  0  0  0  0  0  0  0  0  0  0
  191.2590  177.1220  144.3750 C   0  0  0  0  0  3  0  0  0  0  0  0
  189.3730  176.7810  142.3440 C   0  0  0  0  0  3  0  0  0  0  0  0
  191.6600  177.1560  143.0370 C   0  0  0  0  0  3  0  0  0  0  0  0
  187.6030  176.5370  144.0070 N   0  0  0  0  0  1  0  0  0  0  0  0
  1 14  1  1  0  0  0
  1 17  1  0  0  0  0
  2 11  1  0  0  0  0
  2 18  1  0  0  0  0
  3  9  1  0  0  0  0
  3 12  1  0  0  0  0
  4 16  1  0  0  0  0
  5 13  1  0  0  0  0
  7  2  2  0  0  0  0
  9 10  1  0  0  0  0
 11  1  1  0  0  0  0
 11  4  1  0  0  0  0
 12 19  1  0  0  0  0
 13 20  1  0  0  0  0
 15 18  1  0  0  0  0
 16 21  1  0  0  0  0
 16 27  1  0  0  0  0
 17  6  2  0  0  0  0
 17 21  1  0  0  0  0
 18  8  1  0  0  0  0
 19 13  1  0  0  0  0
 19 23  1  0  0  0  0
 20  8  1  0  0  0  0
 20  4  1  0  0  0  0
 22 10  1  0  0  0  0
 22 15  1  0  0  0  0
 23 24  1  0  0  0  0
 25 23  1  0  0  0  0
 26 27  2  0  0  0  0
 27 30  1  0  0  0  0
 28 34  1  0  0  0  0
 28 29  1  0  0  0  0
 30 32  1  0  0  0  0
 30 33  2  0  0  0  0
 31 29  2  0  0  0  0
 32 28  2  0  0  0  0
 33 31  1  0  0  0  0
M  END
>  <MODEL>
6

>  <REMARK>
 VINA RESULT:      -4.7      3.742      5.481
  Name = 
  3 active torsions:
  status: ('A' for Active; 'I' for Inactive)
    1  A    between atoms: C_12  and  C_28
    2  A    between atoms: C_13  and  C_29
    3  A    between atoms: C_21  and  C_28
                            x       y       z     vdW  Elec       q    Type
                         _______ _______ _______ _____ _____    ______ ____

>  <TORSDO>
F 3

$$$$
=
 OpenBabel10262423483D

 34 37  0  0  1  0  0  0  0  0999 V2000
  187.4780  178.4980  137.7580 C   0  0  2  0  0  3  0  0  0  0  0  0
  185.1380  177.9990  138.6250 C   0  0  0  0  0  0  0  0  0  0  0  0
  181.4620  178.9120  136.1020 C   0  0  0  0  0  2  0  0  0  0  0  0
  186.0200  176.7290  136.6180 C   0  0  1  0  0  3  0  0  0  0  0  0
  184.6400  177.6570  134.3470 C   0  0  0  0  0  1  0  0  0  0  0  0
  189.3980  177.6330  138.8740 O   0  0  0  0  0  0  0  0  0  0  0  0
  185.3410  178.7760  139.5980 O   0  0  0  0  0  0  0  0  0  0  0  0
  183.8520  176.0450  137.6710 C   0  0  0  0  0  2  0  0  0  0  0  0
  180.3830  178.3950  137.0420 C   0  0  0  0  0  2  0  0  0  0  0  0
  180.9750  177.4520  138.0730 C   0  0  0  0  0  2  0  0  0  0  0  0
  186.0550  178.0350  137.4320 C   0  0  2  0  0  3  0  0  0  0  0  0
  181.5620  178.0640  134.8370 C   0  0  0  0  0  2  0  0  0  0  0  0
  183.8340  177.3180  135.5160 N   0  0  0  0  0  0  0  0  0  0  0  0
  188.0380  179.1070  136.6350 O   0  0  0  0  0  1  0  0  0  0  0  0
  182.9260  177.3280  139.6060 C   0  0  0  0  0  2  0  0  0  0  0  0
  186.7940  175.5960  137.3150 C   0  0  2  0  0  3  0  0  0  0  0  0
  188.3610  177.3770  138.2090 C   0  0  0  0  0  0  0  0  0  0  0  0
  183.9660  177.1690  138.5980 N   0  0  0  0  0  0  0  0  0  0  0  0
  182.5330  176.8780  134.9550 C   0  0  1  0  0  3  0  0  0  0  0  0
  184.5590  176.3130  136.3290 C   0  0  1  0  0  3  0  0  0  0  0  0
  188.0960  176.0310  137.8090 N   0  0  0  0  0  2  0  0  0  0  0  0
  181.8190  178.2220  139.0750 C   0  0  0  0  0  2  0  0  0  0  0  0
  181.9070  175.5790  135.5190 C   0  0  0  0  0  3  0  0  0  0  0  0
  182.5480  174.3690  134.8640 C   0  0  0  0  0  1  0  0  0  0  0  0
  180.4100  175.4970  135.2630 C   0  0  0  0  0  1  0  0  0  0  0  0
  187.9660  174.3310  135.6870 O   0  0  0  0  0  0  0  0  0  0  0  0
  186.9510  174.3920  136.4310 C   0  0  0  0  0  0  0  0  0  0  0  0
  185.0370  171.2870  135.3890 C   0  0  0  0  0  0  0  0  0  0  0  0
  184.0780  171.2050  136.4020 C   0  0  0  0  0  3  0  0  0  0  0  0
  185.9640  173.2870  136.4160 C   0  0  0  0  0  0  0  0  0  0  0  0
  184.0590  172.1600  137.4220 C   0  0  0  0  0  3  0  0  0  0  0  0
  185.9740  172.3230  135.3950 C   0  0  0  0  0  3  0  0  0  0  0  0
  184.9980  173.1950  137.4290 C   0  0  0  0  0  3  0  0  0  0  0  0
  185.0570  170.3170  134.3480 N   0  0  0  0  0  1  0  0  0  0  0  0
  1 14  1  6  0  0  0
  1 17  1  0  0  0  0
  2  7  2  0  0  0  0
  3  9  1  0  0  0  0
  4 16  1  0  0  0  0
  4 11  1  0  0  0  0
  5 13  1  0  0  0  0
  8 18  1  0  0  0  0
  9 10  1  0  0  0  0
 10 22  1  0  0  0  0
 11  1  1  0  0  0  0
 11  2  1  0  0  0  0
 12 19  1  0  0  0  0
 12  3  1  0  0  0  0
 13 20  1  0  0  0  0
 16 21  1  0  0  0  0
 17  6  2  0  0  0  0
 18  2  1  0  0  0  0
 18 15  1  0  0  0  0
 19 13  1  0  0  0  0
 19 23  1  0  0  0  0
 20  4  1  0  0  0  0
 20  8  1  0  0  0  0
 21 17  1  0  0  0  0
 22 15  1  0  0  0  0
 24 23  1  0  0  0  0
 25 23  1  0  0  0  0
 26 27  2  0  0  0  0
 27 16  1  0  0  0  0
 28 32  2  0  0  0  0
 28 29  1  0  0  0  0
 29 31  2  0  0  0  0
 30 27  1  0  0  0  0
 30 33  2  0  0  0  0
 31 33  1  0  0  0  0
 32 30  1  0  0  0  0
 34 28  1  0  0  0  0
M  END
>  <MODEL>
7

>  <REMARK>
 VINA RESULT:      -4.7      2.752      7.027
  Name = 
  3 active torsions:
  status: ('A' for Active; 'I' for Inactive)
    1  A    between atoms: C_12  and  C_28
    2  A    between atoms: C_13  and  C_29
    3  A    between atoms: C_21  and  C_28
                            x       y       z     vdW  Elec       q    Type
                         _______ _______ _______ _____ _____    ______ ____

>  <TORSDO>
F 3

$$$$
=
 OpenBabel10262423483D

 34 37  0  0  1  0  0  0  0  0999 V2000
  189.7780  176.5390  134.8550 C   0  0  2  0  0  3  0  0  0  0  0  0
  190.7600  174.2160  135.1920 C   0  0  0  0  0  0  0  0  0  0  0  0
  195.1540  173.3870  134.3470 C   0  0  0  0  0  2  0  0  0  0  0  0
  191.5530  176.1270  136.6540 C   0  0  1  0  0  3  0  0  0  0  0  0
  194.1740  176.7780  135.8620 C   0  0  0  0  0  1  0  0  0  0  0  0
  187.6150  177.0790  135.7000 O   0  0  0  0  0  0  0  0  0  0  0  0
  189.9440  173.7570  134.3470 O   0  0  0  0  0  0  0  0  0  0  0  0
  192.2760  173.7840  137.1670 C   0  0  0  0  0  2  0  0  0  0  0  0
  195.2100  171.9190  134.7440 C   0  0  0  0  0  2  0  0  0  0  0  0
  194.0270  171.5550  135.6220 C   0  0  0  0  0  2  0  0  0  0  0  0
  190.9850  175.7010  135.2890 C   0  0  2  0  0  3  0  0  0  0  0  0
  195.9690  174.2590  135.2980 C   0  0  0  0  0  2  0  0  0  0  0  0
  193.8810  175.3630  136.0740 N   0  0  0  0  0  0  0  0  0  0  0  0
  190.2180  177.7670  134.3620 O   0  0  0  0  0  1  0  0  0  0  0  0
  191.5660  171.8910  135.6950 C   0  0  0  0  0  2  0  0  0  0  0  0
  190.4780  176.1090  137.7560 C   0  0  2  0  0  3  0  0  0  0  0  0
  188.8050  176.7690  135.9700 C   0  0  0  0  0  0  0  0  0  0  0  0
  191.5660  173.3210  135.9750 N   0  0  0  0  0  0  0  0  0  0  0  0
  195.1730  174.7770  136.5080 C   0  0  1  0  0  3  0  0  0  0  0  0
  192.7600  175.2400  137.0360 C   0  0  1  0  0  3  0  0  0  0  0  0
  189.2330  176.7410  137.3320 N   0  0  0  0  0  2  0  0  0  0  0  0
  192.7450  171.5370  134.8060 C   0  0  0  0  0  2  0  0  0  0  0  0
  195.1590  173.8280  137.7310 C   0  0  0  0  0  3  0  0  0  0  0  0
  195.2500  174.6360  139.0130 C   0  0  0  0  0  1  0  0  0  0  0  0
  196.3260  172.8530  137.7230 C   0  0  0  0  0  1  0  0  0  0  0  0
  192.2080  176.8880  139.1770 O   0  0  0  0  0  0  0  0  0  0  0  0
  190.9660  176.7290  139.0330 C   0  0  0  0  0  0  0  0  0  0  0  0
  189.2800  177.0550  142.4160 C   0  0  0  0  0  0  0  0  0  0  0  0
  188.2750  177.9840  142.1300 C   0  0  0  0  0  3  0  0  0  0  0  0
  190.0430  177.1590  140.1090 C   0  0  0  0  0  0  0  0  0  0  0  0
  188.1520  178.5020  140.8380 C   0  0  0  0  0  3  0  0  0  0  0  0
  190.1580  176.6450  141.4100 C   0  0  0  0  0  3  0  0  0  0  0  0
  189.0310  178.0920  139.8330 C   0  0  0  0  0  3  0  0  0  0  0  0
  189.4070  176.5250  143.7290 N   0  0  0  0  0  1  0  0  0  0  0  0
  1 14  1  1  0  0  0
  1 11  1  0  0  0  0
  1 17  1  0  0  0  0
  2 11  1  0  0  0  0
  2 18  1  0  0  0  0
  3  9  1  0  0  0  0
  3 12  1  0  0  0  0
  4 20  1  0  0  0  0
  4 16  1  0  0  0  0
  5 13  1  0  0  0  0
  6 17  2  0  0  0  0
  7  2  2  0  0  0  0
  9 10  1  0  0  0  0
 11  4  1  0  0  0  0
 12 19  1  0  0  0  0
 13 19  1  0  0  0  0
 13 20  1  0  0  0  0
 15 18  1  0  0  0  0
 16 27  1  0  0  0  0
 17 21  1  0  0  0  0
 18  8  1  0  0  0  0
 19 23  1  0  0  0  0
 20  8  1  0  0  0  0
 21 16  1  0  0  0  0
 22 10  1  0  0  0  0
 22 15  1  0  0  0  0
 23 24  1  0  0  0  0
 25 23  1  0  0  0  0
 27 26  2  0  0  0  0
 27 30  1  0  0  0  0
 28 34  1  0  0  0  0
 29 28  1  0  0  0  0
 30 32  1  0  0  0  0
 31 29  2  0  0  0  0
 32 28  2  0  0  0  0
 33 30  2  0  0  0  0
 33 31  1  0  0  0  0
M  END
>  <MODEL>
8

>  <REMARK>
 VINA RESULT:      -4.5      4.252      6.099
  Name = 
  3 active torsions:
  status: ('A' for Active; 'I' for Inactive)
    1  A    between atoms: C_12  and  C_28
    2  A    between atoms: C_13  and  C_29
    3  A    between atoms: C_21  and  C_28
                            x       y       z     vdW  Elec       q    Type
                         _______ _______ _______ _____ _____    ______ ____

>  <TORSDO>
F 3

$$$$
=
 OpenBabel10262423483D

 34 37  0  0  1  0  0  0  0  0999 V2000
  184.6490  178.9390  139.0580 C   0  0  2  0  0  3  0  0  0  0  0  0
  185.5180  176.7650  138.0610 C   0  0  0  0  0  0  0  0  0  0  0  0
  188.3740  176.7900  134.5180 C   0  0  0  0  0  2  0  0  0  0  0  0
  187.1380  178.3520  139.1900 C   0  0  1  0  0  3  0  0  0  0  0  0
  188.7140  179.5370  137.1820 C   0  0  0  0  0  1  0  0  0  0  0  0
  183.5170  178.9490  141.1550 O   0  0  0  0  0  0  0  0  0  0  0  0
  184.3330  176.4170  137.8070 O   0  0  0  0  0  0  0  0  0  0  0  0
  187.9140  176.0800  138.4780 C   0  0  0  0  0  2  0  0  0  0  0  0
  188.5990  175.2930  134.3710 C   0  0  0  0  0  2  0  0  0  0  0  0
  188.2100  174.5630  135.6440 C   0  0  0  0  0  2  0  0  0  0  0  0
  185.8220  178.1980  138.4080 C   0  0  2  0  0  3  0  0  0  0  0  0
  189.6430  177.5080  134.9670 C   0  0  0  0  0  2  0  0  0  0  0  0
  188.5530  178.0860  137.1250 N   0  0  0  0  0  0  0  0  0  0  0  0
  184.7390  180.3000  138.7640 O   0  0  0  0  0  1  0  0  0  0  0  0
  186.3550  174.5240  137.2960 C   0  0  0  0  0  2  0  0  0  0  0  0
  186.9890  177.9160  140.6590 C   0  0  2  0  0  3  0  0  0  0  0  0
  184.5980  178.7520  140.5420 C   0  0  0  0  0  0  0  0  0  0  0  0
  186.5950  175.8280  137.9010 N   0  0  0  0  0  0  0  0  0  0  0  0
  189.8040  177.5990  136.4940 C   0  0  1  0  0  3  0  0  0  0  0  0
  188.2760  177.5770  138.4890 C   0  0  1  0  0  3  0  0  0  0  0  0
  185.7830  178.4520  141.2820 N   0  0  0  0  0  2  0  0  0  0  0  0
  186.7000  174.5660  135.8180 C   0  0  0  0  0  2  0  0  0  0  0  0
  190.5150  176.3880  137.1450 C   0  0  0  0  0  3  0  0  0  0  0  0
  191.2510  176.8320  138.3960 C   0  0  0  0  0  1  0  0  0  0  0  0
  191.5370  175.7470  136.2190 C   0  0  0  0  0  1  0  0  0  0  0  0
  189.1790  178.7920  140.8910 O   0  0  0  0  0  0  0  0  0  0  0  0
  188.1970  178.2670  141.4790 C   0  0  0  0  0  0  0  0  0  0  0  0
  187.1670  177.5690  145.0630 C   0  0  0  0  0  0  0  0  0  0  0  0
  188.4060  177.5750  145.7080 C   0  0  0  0  0  3  0  0  0  0  0  0
  188.2610  178.0250  142.9390 C   0  0  0  0  0  0  0  0  0  0  0  0
  189.5730  177.8050  144.9740 C   0  0  0  0  0  3  0  0  0  0  0  0
  187.0950  177.7930  143.6860 C   0  0  0  0  0  3  0  0  0  0  0  0
  189.5000  178.0280  143.5970 C   0  0  0  0  0  3  0  0  0  0  0  0
  185.9780  177.3360  145.8080 N   0  0  0  0  0  1  0  0  0  0  0  0
  1 14  1  1  0  0  0
  1 17  1  0  0  0  0
  2 11  1  0  0  0  0
  3 12  1  0  0  0  0
  4 16  1  0  0  0  0
  7  2  2  0  0  0  0
  8 20  1  0  0  0  0
  9  3  1  0  0  0  0
  9 10  1  0  0  0  0
 10 22  1  0  0  0  0
 11  1  1  0  0  0  0
 11  4  1  0  0  0  0
 12 19  1  0  0  0  0
 13  5  1  0  0  0  0
 13 20  1  0  0  0  0
 15 18  1  0  0  0  0
 16 21  1  0  0  0  0
 16 27  1  0  0  0  0
 17  6  2  0  0  0  0
 17 21  1  0  0  0  0
 18  2  1  0  0  0  0
 18  8  1  0  0  0  0
 19 13  1  0  0  0  0
 19 23  1  0  0  0  0
 20  4  1  0  0  0  0
 22 15  1  0  0  0  0
 23 24  1  0  0  0  0
 25 23  1  0  0  0  0
 26 27  2  0  0  0  0
 27 30  1  0  0  0  0
 28 29  1  0  0  0  0
 28 34  1  0  0  0  0
 30 33  2  0  0  0  0
 30 32  1  0  0  0  0
 31 29  2  0  0  0  0
 32 28  2  0  0  0  0
 33 31  1  0  0  0  0
M  END
>  <MODEL>
9

>  <REMARK>
 VINA RESULT:      -4.3      2.061      3.220
  Name = 
  3 active torsions:
  status: ('A' for Active; 'I' for Inactive)
    1  A    between atoms: C_12  and  C_28
    2  A    between atoms: C_13  and  C_29
    3  A    between atoms: C_21  and  C_28
                            x       y       z     vdW  Elec       q    Type
                         _______ _______ _______ _____ _____    ______ ____

>  <TORSDO>
F 3

$$$$
