=
 OpenBabel10272413533D

 30 32  0  0  1  0  0  0  0  0999 V2000
  186.1250  177.8040  142.4780 C   0  0  0  0  0  3  0  0  0  0  0  0
  183.7300  178.4130  142.1250 C   0  0  1  0  0  3  0  0  0  0  0  0
  185.8970  178.4200  146.6320 C   0  0  0  0  0  3  0  0  0  0  0  0
  187.2560  177.5690  143.2670 C   0  0  0  0  0  0  0  0  0  0  0  0
  187.0200  178.2110  147.4330 C   0  0  0  0  0  3  0  0  0  0  0  0
  182.5920  179.1960  142.7710 C   0  0  0  0  0  2  0  0  0  0  0  0
  184.0940  179.0360  140.9430 F   0  0  0  0  0  0  0  0  0  0  0  0
  185.9590  178.2130  145.2430 C   0  0  0  0  0  0  0  0  0  0  0  0
  182.3310  178.6680  144.1710 C   0  0  0  0  0  2  0  0  0  0  0  0
  184.9270  178.2560  143.0320 C   0  0  0  0  0  0  0  0  0  0  0  0
  187.1780  177.7800  144.6590 C   0  0  0  0  0  0  0  0  0  0  0  0
  188.2210  177.7960  146.8580 C   0  0  0  0  0  3  0  0  0  0  0  0
  188.2990  177.5840  145.4810 C   0  0  0  0  0  3  0  0  0  0  0  0
  183.5460  178.9530  145.0430 C   0  0  0  0  0  2  0  0  0  0  0  0
  184.8260  178.4350  144.4310 C   0  0  0  0  0  0  0  0  0  0  0  0
  189.4060  176.4910  140.5870 O   0  0  0  0  0  0  0  0  0  0  0  0
  188.7330  177.3310  141.2450 C   0  0  0  0  0  0  0  0  0  0  0  0
  188.4620  177.0910  142.6400 N   0  0  0  0  0  0  0  0  0  0  0  0
  188.5960  179.6840  141.0180 O   0  0  0  0  0  0  0  0  0  0  0  0
  188.2640  178.5540  140.5660 C   0  0  0  0  0  0  0  0  0  0  0  0
  187.4310  178.4600  139.4470 O   0  0  0  0  0  0  0  0  0  0  0  0
  188.9530  178.8490  137.6220 C   0  0  0  0  0  1  0  0  0  0  0  0
  187.8810  177.9460  138.2010 C   0  0  0  0  0  2  0  0  0  0  0  0
  189.3040  176.1460  143.3690 C   0  0  0  0  0  2  0  0  0  0  0  0
  190.7710  176.5020  143.1850 C   0  0  0  0  0  2  0  0  0  0  0  0
  191.6020  175.9270  144.3200 C   0  0  0  0  0  2  0  0  0  0  0  0
  191.6340  176.8630  145.5250 C   0  0  0  0  0  2  0  0  0  0  0  0
  191.5830  177.0470  148.0120 C   0  0  0  0  0  1  0  0  0  0  0  0
  191.5770  176.0910  146.8340 C   0  0  2  0  0  3  0  0  0  0  0  0
  192.7330  175.2180  146.9260 N   0  0  0  0  0  1  0  0  0  0  0  0
  1 10  2  0  0  0  0
  1  4  1  0  0  0  0
  2  7  1  6  0  0  0
  2  6  1  0  0  0  0
  2 10  1  0  0  0  0
  3  5  2  0  0  0  0
  4 11  2  0  0  0  0
  6  9  1  0  0  0  0
  8  3  1  0  0  0  0
  9 14  1  0  0  0  0
 10 15  1  0  0  0  0
 11  8  1  0  0  0  0
 11 13  1  0  0  0  0
 12  5  1  0  0  0  0
 13 12  2  0  0  0  0
 15 14  1  0  0  0  0
 15  8  2  0  0  0  0
 16 17  2  0  0  0  0
 17 18  1  0  0  0  0
 18  4  1  0  0  0  0
 18 24  1  0  0  0  0
 20 19  2  0  0  0  0
 20 17  1  0  0  0  0
 21 20  1  0  0  0  0
 22 23  1  0  0  0  0
 23 21  1  0  0  0  0
 25 24  1  0  0  0  0
 25 26  1  0  0  0  0
 26 27  1  0  0  0  0
 27 29  1  0  0  0  0
 29 30  1  0  0  0  0
 29 28  1  1  0  0  0
M  END
>  <MODEL>
1

>  <REMARK>
 VINA RESULT:      -8.5      0.000      0.000
  Name = 
  9 active torsions:
  status: ('A' for Active; 'I' for Inactive)
    1  A    between atoms: C_4  and  N_13
    2  A    between atoms: O_5  and  C_12
    3  A    between atoms: O_5  and  C_21
    4  A    between atoms: C_7  and  C_15
    5  A    between atoms: C_7  and  C_16
    6  A    between atoms: C_8  and  C_12
    7  A    between atoms: N_13  and  C_27
    8  A    between atoms: C_16  and  C_30
    9  A    between atoms: C_27  and  C_30
                            x       y       z     vdW  Elec       q    Type
                         _______ _______ _______ _____ _____    ______ ____

>  <TORSDO>
F 9

$$$$
=
 OpenBabel10272413533D

 30 32  0  0  1  0  0  0  0  0999 V2000
  188.4020  177.7670  144.1200 C   0  0  0  0  0  3  0  0  0  0  0  0
  188.1140  177.8360  146.5990 C   0  0  1  0  0  3  0  0  0  0  0  0
  184.3510  178.6420  143.4060 C   0  0  0  0  0  3  0  0  0  0  0  0
  187.9510  177.8900  142.8020 C   0  0  0  0  0  0  0  0  0  0  0  0
  183.8790  178.7490  142.0970 C   0  0  0  0  0  3  0  0  0  0  0  0
  187.0470  177.6930  147.6800 C   0  0  0  0  0  2  0  0  0  0  0  0
  189.0060  176.7820  146.7020 F   0  0  0  0  0  0  0  0  0  0  0  0
  185.7040  178.3540  143.6590 C   0  0  0  0  0  0  0  0  0  0  0  0
  185.9360  178.7020  147.4450 C   0  0  0  0  0  2  0  0  0  0  0  0
  187.5370  177.9090  145.2050 C   0  0  0  0  0  0  0  0  0  0  0  0
  186.5920  178.1800  142.5650 C   0  0  0  0  0  0  0  0  0  0  0  0
  184.7500  178.5670  141.0230 C   0  0  0  0  0  3  0  0  0  0  0  0
  186.0950  178.2830  141.2560 C   0  0  0  0  0  3  0  0  0  0  0  0
  185.2240  178.3610  146.1440 C   0  0  0  0  0  2  0  0  0  0  0  0
  186.1800  178.2350  144.9820 C   0  0  0  0  0  0  0  0  0  0  0  0
  191.1650  177.4830  141.2270 O   0  0  0  0  0  0  0  0  0  0  0  0
  190.1750  177.1150  141.9180 C   0  0  0  0  0  0  0  0  0  0  0  0
  188.8940  177.7470  141.7220 N   0  0  0  0  0  0  0  0  0  0  0  0
  189.5140  175.0860  142.9440 O   0  0  0  0  0  0  0  0  0  0  0  0
  190.3560  176.0230  142.8940 C   0  0  0  0  0  0  0  0  0  0  0  0
  191.4410  176.0440  143.7770 O   0  0  0  0  0  0  0  0  0  0  0  0
  191.9020  176.2820  146.1290 C   0  0  0  0  0  1  0  0  0  0  0  0
  191.5470  176.9880  144.8340 C   0  0  0  0  0  2  0  0  0  0  0  0
  188.6470  178.4640  140.4740 C   0  0  0  0  0  2  0  0  0  0  0  0
  188.6210  177.4900  139.3070 C   0  0  0  0  0  2  0  0  0  0  0  0
  189.4620  178.0190  138.1570 C   0  0  0  0  0  2  0  0  0  0  0  0
  190.0760  176.8860  137.3410 C   0  0  0  0  0  2  0  0  0  0  0  0
  192.3830  176.3030  138.0900 C   0  0  0  0  0  1  0  0  0  0  0  0
  190.9100  175.9590  138.2120 C   0  0  2  0  0  3  0  0  0  0  0  0
  190.7070  174.5880  137.7850 N   0  0  0  0  0  1  0  0  0  0  0  0
  1 10  1  0  0  0  0
  2  7  1  6  0  0  0
  2  6  1  0  0  0  0
  3  8  1  0  0  0  0
  4  1  2  0  0  0  0
  5  3  2  0  0  0  0
  8 15  1  0  0  0  0
  9  6  1  0  0  0  0
 10  2  1  0  0  0  0
 11  4  1  0  0  0  0
 11  8  2  0  0  0  0
 12 13  2  0  0  0  0
 12  5  1  0  0  0  0
 13 11  1  0  0  0  0
 14  9  1  0  0  0  0
 15 10  2  0  0  0  0
 15 14  1  0  0  0  0
 16 17  2  0  0  0  0
 17 20  1  0  0  0  0
 18 17  1  0  0  0  0
 18  4  1  0  0  0  0
 20 19  2  0  0  0  0
 20 21  1  0  0  0  0
 21 23  1  0  0  0  0
 23 22  1  0  0  0  0
 24 18  1  0  0  0  0
 25 24  1  0  0  0  0
 26 25  1  0  0  0  0
 27 26  1  0  0  0  0
 27 29  1  0  0  0  0
 29 28  1  6  0  0  0
 30 29  1  0  0  0  0
M  END
>  <MODEL>
2

>  <REMARK>
 VINA RESULT:      -8.2      2.449      5.711
  Name = 
  9 active torsions:
  status: ('A' for Active; 'I' for Inactive)
    1  A    between atoms: C_4  and  N_13
    2  A    between atoms: O_5  and  C_12
    3  A    between atoms: O_5  and  C_21
    4  A    between atoms: C_7  and  C_15
    5  A    between atoms: C_7  and  C_16
    6  A    between atoms: C_8  and  C_12
    7  A    between atoms: N_13  and  C_27
    8  A    between atoms: C_16  and  C_30
    9  A    between atoms: C_27  and  C_30
                            x       y       z     vdW  Elec       q    Type
                         _______ _______ _______ _____ _____    ______ ____

>  <TORSDO>
F 9

$$$$
=
 OpenBabel10272413533D

 30 32  0  0  1  0  0  0  0  0999 V2000
  188.6710  177.6770  144.1520 C   0  0  0  0  0  3  0  0  0  0  0  0
  188.4010  177.7180  146.6340 C   0  0  1  0  0  3  0  0  0  0  0  0
  184.6300  178.6220  143.4760 C   0  0  0  0  0  3  0  0  0  0  0  0
  188.2140  177.8230  142.8390 C   0  0  0  0  0  0  0  0  0  0  0  0
  184.1510  178.7530  142.1720 C   0  0  0  0  0  3  0  0  0  0  0  0
  187.3390  177.5780  147.7190 C   0  0  0  0  0  2  0  0  0  0  0  0
  189.2760  176.6490  146.7170 F   0  0  0  0  0  0  0  0  0  0  0  0
  185.9790  178.3110  143.7160 C   0  0  0  0  0  0  0  0  0  0  0  0
  186.2420  178.6070  147.5050 C   0  0  0  0  0  2  0  0  0  0  0  0
  187.8150  177.8180  145.2450 C   0  0  0  0  0  0  0  0  0  0  0  0
  186.8570  178.1370  142.6150 C   0  0  0  0  0  0  0  0  0  0  0  0
  185.0110  178.5710  141.0900 C   0  0  0  0  0  3  0  0  0  0  0  0
  186.3540  178.2640  141.3110 C   0  0  0  0  0  3  0  0  0  0  0  0
  185.5160  178.2940  146.2050 C   0  0  0  0  0  2  0  0  0  0  0  0
  186.4620  178.1680  145.0340 C   0  0  0  0  0  0  0  0  0  0  0  0
  191.4220  177.5320  141.2280 O   0  0  0  0  0  0  0  0  0  0  0  0
  190.4690  177.1410  141.9570 C   0  0  0  0  0  0  0  0  0  0  0  0
  189.1470  177.6790  141.7500 N   0  0  0  0  0  0  0  0  0  0  0  0
  190.1490  175.0050  142.9270 O   0  0  0  0  0  0  0  0  0  0  0  0
  190.7350  176.1200  142.9880 C   0  0  0  0  0  0  0  0  0  0  0  0
  191.6100  176.3990  144.0430 O   0  0  0  0  0  0  0  0  0  0  0  0
  192.0320  176.1050  146.3960 C   0  0  0  0  0  1  0  0  0  0  0  0
  191.9410  175.4380  145.0360 C   0  0  0  0  0  2  0  0  0  0  0  0
  188.8350  178.3080  140.4700 C   0  0  0  0  0  2  0  0  0  0  0  0
  188.9310  177.2850  139.3480 C   0  0  0  0  0  2  0  0  0  0  0  0
  189.5800  177.9050  138.1210 C   0  0  0  0  0  2  0  0  0  0  0  0
  188.5820  178.7280  137.3120 C   0  0  0  0  0  2  0  0  0  0  0  0
  187.0090  177.7250  135.6560 C   0  0  0  0  0  1  0  0  0  0  0  0
  187.2670  177.9860  137.1270 C   0  0  2  0  0  3  0  0  0  0  0  0
  186.1840  178.7900  137.6630 N   0  0  0  0  0  1  0  0  0  0  0  0
  1 10  1  0  0  0  0
  2  7  1  6  0  0  0
  2  6  1  0  0  0  0
  3  8  1  0  0  0  0
  4  1  2  0  0  0  0
  5  3  2  0  0  0  0
  8 15  1  0  0  0  0
  9  6  1  0  0  0  0
 10  2  1  0  0  0  0
 11  4  1  0  0  0  0
 11  8  2  0  0  0  0
 12 13  2  0  0  0  0
 12  5  1  0  0  0  0
 13 11  1  0  0  0  0
 14  9  1  0  0  0  0
 15 10  2  0  0  0  0
 15 14  1  0  0  0  0
 16 17  2  0  0  0  0
 17 20  1  0  0  0  0
 18 17  1  0  0  0  0
 18  4  1  0  0  0  0
 19 20  2  0  0  0  0
 20 21  1  0  0  0  0
 21 23  1  0  0  0  0
 23 22  1  0  0  0  0
 24 18  1  0  0  0  0
 25 24  1  0  0  0  0
 26 25  1  0  0  0  0
 27 26  1  0  0  0  0
 29 28  1  6  0  0  0
 29 27  1  0  0  0  0
 29 30  1  0  0  0  0
M  END
>  <MODEL>
3

>  <REMARK>
 VINA RESULT:      -8.1      2.464      6.301
  Name = 
  9 active torsions:
  status: ('A' for Active; 'I' for Inactive)
    1  A    between atoms: C_4  and  N_13
    2  A    between atoms: O_5  and  C_12
    3  A    between atoms: O_5  and  C_21
    4  A    between atoms: C_7  and  C_15
    5  A    between atoms: C_7  and  C_16
    6  A    between atoms: C_8  and  C_12
    7  A    between atoms: N_13  and  C_27
    8  A    between atoms: C_16  and  C_30
    9  A    between atoms: C_27  and  C_30
                            x       y       z     vdW  Elec       q    Type
                         _______ _______ _______ _____ _____    ______ ____

>  <TORSDO>
F 9

$$$$
=
 OpenBabel10272413533D

 30 32  0  0  1  0  0  0  0  0999 V2000
  186.2540  178.1340  141.7420 C   0  0  0  0  0  3  0  0  0  0  0  0
  184.1180  178.5350  140.5130 C   0  0  1  0  0  3  0  0  0  0  0  0
  184.4290  178.5860  145.5040 C   0  0  0  0  0  3  0  0  0  0  0  0
  187.0240  177.9780  142.8990 C   0  0  0  0  0  0  0  0  0  0  0  0
  185.1860  178.4530  146.6690 C   0  0  0  0  0  3  0  0  0  0  0  0
  182.7500  179.1880  140.6820 C   0  0  0  0  0  2  0  0  0  0  0  0
  184.8350  179.2280  139.5540 F   0  0  0  0  0  0  0  0  0  0  0  0
  185.0260  178.4330  144.2410 C   0  0  0  0  0  0  0  0  0  0  0  0
  182.0370  178.5910  141.8830 C   0  0  0  0  0  2  0  0  0  0  0  0
  184.8980  178.4560  141.8050 C   0  0  0  0  0  0  0  0  0  0  0  0
  186.4110  178.1330  144.1590 C   0  0  0  0  0  0  0  0  0  0  0  0
  186.5490  178.1690  146.5880 C   0  0  0  0  0  3  0  0  0  0  0  0
  187.1560  178.0120  145.3430 C   0  0  0  0  0  3  0  0  0  0  0  0
  182.8040  178.9560  143.1470 C   0  0  0  0  0  2  0  0  0  0  0  0
  184.2640  178.5780  143.0620 C   0  0  0  0  0  0  0  0  0  0  0  0
  189.9610  176.4920  141.4360 O   0  0  0  0  0  0  0  0  0  0  0  0
  189.0020  177.3090  141.4950 C   0  0  0  0  0  0  0  0  0  0  0  0
  188.4180  177.6320  142.7730 N   0  0  0  0  0  0  0  0  0  0  0  0
  188.6170  179.1810  140.0970 O   0  0  0  0  0  0  0  0  0  0  0  0
  188.5210  177.9330  140.2470 C   0  0  0  0  0  0  0  0  0  0  0  0
  187.9370  177.1460  139.2490 O   0  0  0  0  0  0  0  0  0  0  0  0
  187.0730  178.1060  137.2170 C   0  0  0  0  0  1  0  0  0  0  0  0
  188.2090  177.3380  137.8680 C   0  0  0  0  0  2  0  0  0  0  0  0
  189.1890  177.3730  143.9860 C   0  0  0  0  0  2  0  0  0  0  0  0
  190.2350  178.4590  144.1820 C   0  0  0  0  0  2  0  0  0  0  0  0
  191.5750  177.8430  144.5500 C   0  0  0  0  0  2  0  0  0  0  0  0
  191.4020  176.5350  145.3160 C   0  0  0  0  0  2  0  0  0  0  0  0
  192.3010  175.6900  147.4840 C   0  0  0  0  0  1  0  0  0  0  0  0
  191.4510  176.7570  146.8200 C   0  0  2  0  0  3  0  0  0  0  0  0
  190.1050  176.6930  147.3580 N   0  0  0  0  0  1  0  0  0  0  0  0
  1 10  2  0  0  0  0
  1  4  1  0  0  0  0
  2  7  1  6  0  0  0
  2  6  1  0  0  0  0
  2 10  1  0  0  0  0
  3  5  2  0  0  0  0
  4 11  2  0  0  0  0
  6  9  1  0  0  0  0
  8  3  1  0  0  0  0
  9 14  1  0  0  0  0
 10 15  1  0  0  0  0
 11  8  1  0  0  0  0
 11 13  1  0  0  0  0
 12  5  1  0  0  0  0
 13 12  2  0  0  0  0
 15 14  1  0  0  0  0
 15  8  2  0  0  0  0
 16 17  2  0  0  0  0
 17 18  1  0  0  0  0
 18  4  1  0  0  0  0
 18 24  1  0  0  0  0
 19 20  2  0  0  0  0
 20 17  1  0  0  0  0
 21 20  1  0  0  0  0
 22 23  1  0  0  0  0
 23 21  1  0  0  0  0
 24 25  1  0  0  0  0
 25 26  1  0  0  0  0
 26 27  1  0  0  0  0
 27 29  1  0  0  0  0
 29 30  1  0  0  0  0
 29 28  1  1  0  0  0
M  END
>  <MODEL>
4

>  <REMARK>
 VINA RESULT:      -8.1      1.221      1.550
  Name = 
  9 active torsions:
  status: ('A' for Active; 'I' for Inactive)
    1  A    between atoms: C_4  and  N_13
    2  A    between atoms: O_5  and  C_12
    3  A    between atoms: O_5  and  C_21
    4  A    between atoms: C_7  and  C_15
    5  A    between atoms: C_7  and  C_16
    6  A    between atoms: C_8  and  C_12
    7  A    between atoms: N_13  and  C_27
    8  A    between atoms: C_16  and  C_30
    9  A    between atoms: C_27  and  C_30
                            x       y       z     vdW  Elec       q    Type
                         _______ _______ _______ _____ _____    ______ ____

>  <TORSDO>
F 9

$$$$
=
 OpenBabel10272413533D

 30 32  0  0  1  0  0  0  0  0999 V2000
  188.2630  177.8310  144.2280 C   0  0  0  0  0  3  0  0  0  0  0  0
  188.9980  177.6750  146.6090 C   0  0  1  0  0  3  0  0  0  0  0  0
  184.2780  178.6590  145.2840 C   0  0  0  0  0  3  0  0  0  0  0  0
  187.3210  178.0570  143.2190 C   0  0  0  0  0  0  0  0  0  0  0  0
  183.3200  178.8680  144.2910 C   0  0  0  0  0  3  0  0  0  0  0  0
  188.4550  177.4110  148.0090 C   0  0  0  0  0  2  0  0  0  0  0  0
  189.8430  176.6390  146.2490 F   0  0  0  0  0  0  0  0  0  0  0  0
  185.6140  178.3860  144.9450 C   0  0  0  0  0  0  0  0  0  0  0  0
  187.3550  178.4080  148.3330 C   0  0  0  0  0  2  0  0  0  0  0  0
  187.9090  177.8540  145.5780 C   0  0  0  0  0  0  0  0  0  0  0  0
  185.9850  178.3310  143.5760 C   0  0  0  0  0  0  0  0  0  0  0  0
  183.6830  178.8030  142.9460 C   0  0  0  0  0  3  0  0  0  0  0  0
  185.0050  178.5350  142.5920 C   0  0  0  0  0  3  0  0  0  0  0  0
  186.1750  178.1640  147.4030 C   0  0  0  0  0  2  0  0  0  0  0  0
  186.5810  178.1640  145.9480 C   0  0  0  0  0  0  0  0  0  0  0  0
  189.6310  178.0250  140.4550 O   0  0  0  0  0  0  0  0  0  0  0  0
  189.0500  177.5410  141.4660 C   0  0  0  0  0  0  0  0  0  0  0  0
  187.7480  178.0320  141.8430 N   0  0  0  0  0  0  0  0  0  0  0  0
  189.0360  175.4890  142.6470 O   0  0  0  0  0  0  0  0  0  0  0  0
  189.7160  176.4610  142.2190 C   0  0  0  0  0  0  0  0  0  0  0  0
  191.0880  176.5320  142.4820 O   0  0  0  0  0  0  0  0  0  0  0  0
  191.6080  178.4510  143.8410 C   0  0  0  0  0  1  0  0  0  0  0  0
  191.6050  176.9370  143.7420 C   0  0  0  0  0  2  0  0  0  0  0  0
  186.9450  178.7370  140.8470 C   0  0  0  0  0  2  0  0  0  0  0  0
  186.9080  177.9430  139.5500 C   0  0  0  0  0  2  0  0  0  0  0  0
  185.8420  178.5000  138.6200 C   0  0  0  0  0  2  0  0  0  0  0  0
  184.4550  177.9740  138.9740 C   0  0  0  0  0  2  0  0  0  0  0  0
  182.2630  178.9270  138.2600 C   0  0  0  0  0  1  0  0  0  0  0  0
  183.4610  179.1080  139.1730 C   0  0  2  0  0  3  0  0  0  0  0  0
  184.1060  180.3700  138.8640 N   0  0  0  0  0  1  0  0  0  0  0  0
  1 10  1  0  0  0  0
  2  7  1  6  0  0  0
  2  6  1  0  0  0  0
  4 11  1  0  0  0  0
  4  1  2  0  0  0  0
  5  3  2  0  0  0  0
  6  9  1  0  0  0  0
  8  3  1  0  0  0  0
  8 15  1  0  0  0  0
 10 15  2  0  0  0  0
 10  2  1  0  0  0  0
 11  8  2  0  0  0  0
 12  5  1  0  0  0  0
 13 12  2  0  0  0  0
 13 11  1  0  0  0  0
 14  9  1  0  0  0  0
 15 14  1  0  0  0  0
 16 17  2  0  0  0  0
 17 18  1  0  0  0  0
 17 20  1  0  0  0  0
 18  4  1  0  0  0  0
 20 21  1  0  0  0  0
 20 19  2  0  0  0  0
 21 23  1  0  0  0  0
 23 22  1  0  0  0  0
 24 18  1  0  0  0  0
 25 24  1  0  0  0  0
 26 27  1  0  0  0  0
 26 25  1  0  0  0  0
 27 29  1  0  0  0  0
 29 28  1  6  0  0  0
 30 29  1  0  0  0  0
M  END
>  <MODEL>
5

>  <REMARK>
 VINA RESULT:      -7.9      2.532      6.345
  Name = 
  9 active torsions:
  status: ('A' for Active; 'I' for Inactive)
    1  A    between atoms: C_4  and  N_13
    2  A    between atoms: O_5  and  C_12
    3  A    between atoms: O_5  and  C_21
    4  A    between atoms: C_7  and  C_15
    5  A    between atoms: C_7  and  C_16
    6  A    between atoms: C_8  and  C_12
    7  A    between atoms: N_13  and  C_27
    8  A    between atoms: C_16  and  C_30
    9  A    between atoms: C_27  and  C_30
                            x       y       z     vdW  Elec       q    Type
                         _______ _______ _______ _____ _____    ______ ____

>  <TORSDO>
F 9

$$$$
=
 OpenBabel10272413533D

 30 32  0  0  1  0  0  0  0  0999 V2000
  188.4500  177.6930  144.1420 C   0  0  0  0  0  3  0  0  0  0  0  0
  188.5580  177.6740  146.6360 C   0  0  1  0  0  3  0  0  0  0  0  0
  184.3500  178.6250  144.1080 C   0  0  0  0  0  3  0  0  0  0  0  0
  187.7990  177.8670  142.9170 C   0  0  0  0  0  0  0  0  0  0  0  0
  183.6790  178.7830  142.8950 C   0  0  0  0  0  3  0  0  0  0  0  0
  187.6730  177.5010  147.8660 C   0  0  0  0  0  2  0  0  0  0  0  0
  189.4400  176.6100  146.5600 F   0  0  0  0  0  0  0  0  0  0  0  0
  185.7210  178.3180  144.1340 C   0  0  0  0  0  0  0  0  0  0  0  0
  186.5540  178.5280  147.8450 C   0  0  0  0  0  2  0  0  0  0  0  0
  187.7690  177.8020  145.3550 C   0  0  0  0  0  0  0  0  0  0  0  0
  186.4230  178.1760  142.9080 C   0  0  0  0  0  0  0  0  0  0  0  0
  184.3660  178.6330  141.6910 C   0  0  0  0  0  3  0  0  0  0  0  0
  185.7280  178.3300  141.6990 C   0  0  0  0  0  3  0  0  0  0  0  0
  185.6400  178.2400  146.6630 C   0  0  0  0  0  2  0  0  0  0  0  0
  186.3990  178.1480  145.3600 C   0  0  0  0  0  0  0  0  0  0  0  0
  190.7270  177.6270  140.8340 O   0  0  0  0  0  0  0  0  0  0  0  0
  189.8940  177.2140  141.6870 C   0  0  0  0  0  0  0  0  0  0  0  0
  188.5580  177.7540  141.6970 N   0  0  0  0  0  0  0  0  0  0  0  0
  189.5730  175.1590  142.8170 O   0  0  0  0  0  0  0  0  0  0  0  0
  190.3110  176.1660  142.6380 C   0  0  0  0  0  0  0  0  0  0  0  0
  191.5020  176.3030  143.3570 O   0  0  0  0  0  0  0  0  0  0  0  0
  191.8640  178.5640  144.1030 C   0  0  0  0  0  1  0  0  0  0  0  0
  191.6080  177.1250  144.5110 C   0  0  0  0  0  2  0  0  0  0  0  0
  188.0570  178.4170  140.4960 C   0  0  0  0  0  2  0  0  0  0  0  0
  188.2260  177.5080  139.2880 C   0  0  0  0  0  2  0  0  0  0  0  0
  187.3470  177.9820  138.1420 C   0  0  0  0  0  2  0  0  0  0  0  0
  186.8020  176.8110  137.3290 C   0  0  0  0  0  2  0  0  0  0  0  0
  184.5960  177.7020  138.0800 C   0  0  0  0  0  1  0  0  0  0  0  0
  185.3450  177.0260  136.9470 C   0  0  2  0  0  3  0  0  0  0  0  0
  184.7290  175.7430  136.6700 N   0  0  0  0  0  1  0  0  0  0  0  0
  1 10  1  0  0  0  0
  2  7  1  6  0  0  0
  2  6  1  0  0  0  0
  3  8  1  0  0  0  0
  4  1  2  0  0  0  0
  5  3  2  0  0  0  0
  8 15  1  0  0  0  0
  9  6  1  0  0  0  0
 10 15  2  0  0  0  0
 10  2  1  0  0  0  0
 11  4  1  0  0  0  0
 11  8  2  0  0  0  0
 12 13  2  0  0  0  0
 12  5  1  0  0  0  0
 13 11  1  0  0  0  0
 14  9  1  0  0  0  0
 15 14  1  0  0  0  0
 16 17  2  0  0  0  0
 17 18  1  0  0  0  0
 17 20  1  0  0  0  0
 18  4  1  0  0  0  0
 20 19  2  0  0  0  0
 20 21  1  0  0  0  0
 21 23  1  0  0  0  0
 22 23  1  0  0  0  0
 24 18  1  0  0  0  0
 25 24  1  0  0  0  0
 26 25  1  0  0  0  0
 27 26  1  0  0  0  0
 29 27  1  0  0  0  0
 29 28  1  1  0  0  0
 30 29  1  0  0  0  0
M  END
>  <MODEL>
6

>  <REMARK>
 VINA RESULT:      -7.8      2.478      6.242
  Name = 
  9 active torsions:
  status: ('A' for Active; 'I' for Inactive)
    1  A    between atoms: C_4  and  N_13
    2  A    between atoms: O_5  and  C_12
    3  A    between atoms: O_5  and  C_21
    4  A    between atoms: C_7  and  C_15
    5  A    between atoms: C_7  and  C_16
    6  A    between atoms: C_8  and  C_12
    7  A    between atoms: N_13  and  C_27
    8  A    between atoms: C_16  and  C_30
    9  A    between atoms: C_27  and  C_30
                            x       y       z     vdW  Elec       q    Type
                         _______ _______ _______ _____ _____    ______ ____

>  <TORSDO>
F 9

$$$$
=
 OpenBabel10272413533D

 30 32  0  0  1  0  0  0  0  0999 V2000
  188.1690  177.8670  143.9670 C   0  0  0  0  0  3  0  0  0  0  0  0
  189.3410  177.5010  146.1410 C   0  0  1  0  0  3  0  0  0  0  0  0
  184.4530  178.5080  145.8290 C   0  0  0  0  0  3  0  0  0  0  0  0
  187.0520  178.1680  143.1800 C   0  0  0  0  0  0  0  0  0  0  0  0
  183.3240  178.7910  145.0590 C   0  0  0  0  0  3  0  0  0  0  0  0
  189.0730  177.0940  147.5860 C   0  0  0  0  0  2  0  0  0  0  0  0
  190.1050  176.5220  145.5290 F   0  0  0  0  0  0  0  0  0  0  0  0
  185.7020  178.2960  145.2200 C   0  0  0  0  0  0  0  0  0  0  0  0
  188.0520  178.0330  148.2060 C   0  0  0  0  0  2  0  0  0  0  0  0
  188.0760  177.7550  145.3550 C   0  0  0  0  0  0  0  0  0  0  0  0
  185.8070  178.3790  143.8060 C   0  0  0  0  0  0  0  0  0  0  0  0
  183.4260  178.8610  143.6700 C   0  0  0  0  0  3  0  0  0  0  0  0
  184.6580  178.6550  143.0490 C   0  0  0  0  0  3  0  0  0  0  0  0
  186.7180  177.8530  147.4950 C   0  0  0  0  0  2  0  0  0  0  0  0
  186.8420  178.0010  145.9970 C   0  0  0  0  0  0  0  0  0  0  0  0
  188.7520  178.7760  140.0630 O   0  0  0  0  0  0  0  0  0  0  0  0
  188.5000  178.1390  141.1230 C   0  0  0  0  0  0  0  0  0  0  0  0
  187.2110  178.2830  141.7520 N   0  0  0  0  0  0  0  0  0  0  0  0
  189.2020  176.1030  142.1060 O   0  0  0  0  0  0  0  0  0  0  0  0
  189.5330  177.2400  141.6740 C   0  0  0  0  0  0  0  0  0  0  0  0
  190.8650  177.6600  141.7430 O   0  0  0  0  0  0  0  0  0  0  0  0
  191.6050  178.8210  143.7180 C   0  0  0  0  0  1  0  0  0  0  0  0
  191.6470  177.5310  142.9220 C   0  0  0  0  0  2  0  0  0  0  0  0
  186.0930  178.7900  140.9610 C   0  0  0  0  0  2  0  0  0  0  0  0
  186.1080  178.1650  139.5750 C   0  0  0  0  0  2  0  0  0  0  0  0
  184.8590  178.5580  138.8040 C   0  0  0  0  0  2  0  0  0  0  0  0
  183.9940  179.5360  139.5930 C   0  0  0  0  0  2  0  0  0  0  0  0
  182.2990  177.8510  140.3060 C   0  0  0  0  0  1  0  0  0  0  0  0
  182.5250  179.1450  139.5480 C   0  0  2  0  0  3  0  0  0  0  0  0
  182.1200  178.9620  138.1660 N   0  0  0  0  0  1  0  0  0  0  0  0
  1 10  1  0  0  0  0
  2  7  1  6  0  0  0
  2  6  1  0  0  0  0
  4 11  1  0  0  0  0
  4  1  2  0  0  0  0
  5  3  2  0  0  0  0
  6  9  1  0  0  0  0
  8  3  1  0  0  0  0
  8 15  1  0  0  0  0
 10 15  2  0  0  0  0
 10  2  1  0  0  0  0
 11  8  2  0  0  0  0
 12  5  1  0  0  0  0
 13 12  2  0  0  0  0
 13 11  1  0  0  0  0
 14  9  1  0  0  0  0
 15 14  1  0  0  0  0
 16 17  2  0  0  0  0
 17 20  1  0  0  0  0
 17 18  1  0  0  0  0
 18  4  1  0  0  0  0
 20 21  1  0  0  0  0
 20 19  2  0  0  0  0
 21 23  1  0  0  0  0
 23 22  1  0  0  0  0
 24 18  1  0  0  0  0
 25 24  1  0  0  0  0
 26 25  1  0  0  0  0
 26 27  1  0  0  0  0
 29 27  1  0  0  0  0
 29 28  1  1  0  0  0
 30 29  1  0  0  0  0
M  END
>  <MODEL>
7

>  <REMARK>
 VINA RESULT:      -7.8      2.604      6.386
  Name = 
  9 active torsions:
  status: ('A' for Active; 'I' for Inactive)
    1  A    between atoms: C_4  and  N_13
    2  A    between atoms: O_5  and  C_12
    3  A    between atoms: O_5  and  C_21
    4  A    between atoms: C_7  and  C_15
    5  A    between atoms: C_7  and  C_16
    6  A    between atoms: C_8  and  C_12
    7  A    between atoms: N_13  and  C_27
    8  A    between atoms: C_16  and  C_30
    9  A    between atoms: C_27  and  C_30
                            x       y       z     vdW  Elec       q    Type
                         _______ _______ _______ _____ _____    ______ ____

>  <TORSDO>
F 9

$$$$
=
 OpenBabel10272413533D

 30 32  0  0  1  0  0  0  0  0999 V2000
  188.4000  177.8580  144.2280 C   0  0  0  0  0  3  0  0  0  0  0  0
  189.7610  177.5260  146.2940 C   0  0  1  0  0  3  0  0  0  0  0  0
  184.8600  178.5130  146.3990 C   0  0  0  0  0  3  0  0  0  0  0  0
  187.2180  178.1440  143.5370 C   0  0  0  0  0  0  0  0  0  0  0  0
  183.6660  178.7810  145.7270 C   0  0  0  0  0  3  0  0  0  0  0  0
  189.6220  177.1380  147.7630 C   0  0  0  0  0  2  0  0  0  0  0  0
  190.4730  176.5410  145.6320 F   0  0  0  0  0  0  0  0  0  0  0  0
  186.0510  178.2970  145.6860 C   0  0  0  0  0  0  0  0  0  0  0  0
  188.6560  178.0820  148.4580 C   0  0  0  0  0  2  0  0  0  0  0  0
  188.4310  177.7650  145.6190 C   0  0  0  0  0  0  0  0  0  0  0  0
  186.0310  178.3600  144.2680 C   0  0  0  0  0  0  0  0  0  0  0  0
  183.6450  178.8320  144.3340 C   0  0  0  0  0  3  0  0  0  0  0  0
  184.8190  178.6220  143.6100 C   0  0  0  0  0  3  0  0  0  0  0  0
  187.2650  177.8890  147.8690 C   0  0  0  0  0  2  0  0  0  0  0  0
  187.2560  178.0150  146.3640 C   0  0  0  0  0  0  0  0  0  0  0  0
  188.6780  178.2850  140.2480 O   0  0  0  0  0  0  0  0  0  0  0  0
  188.3610  177.7290  141.3350 C   0  0  0  0  0  0  0  0  0  0  0  0
  187.2500  178.2400  142.1000 N   0  0  0  0  0  0  0  0  0  0  0  0
  188.6160  175.7530  142.6140 O   0  0  0  0  0  0  0  0  0  0  0  0
  189.1260  176.5480  141.7790 C   0  0  0  0  0  0  0  0  0  0  0  0
  190.4210  176.3300  141.2970 O   0  0  0  0  0  0  0  0  0  0  0  0
  191.7090  177.5730  142.9070 C   0  0  0  0  0  1  0  0  0  0  0  0
  191.4600  177.2880  141.4380 C   0  0  0  0  0  2  0  0  0  0  0  0
  186.2600  179.0790  141.4300 C   0  0  0  0  0  2  0  0  0  0  0  0
  185.3580  178.2240  140.5540 C   0  0  0  0  0  2  0  0  0  0  0  0
  185.2360  178.8330  139.1670 C   0  0  0  0  0  2  0  0  0  0  0  0
  184.9800  177.7680  138.1050 C   0  0  0  0  0  2  0  0  0  0  0  0
  186.7680  176.4180  137.0080 C   0  0  0  0  0  1  0  0  0  0  0  0
  186.0690  177.7640  137.0430 C   0  0  2  0  0  3  0  0  0  0  0  0
  187.0420  178.7950  137.3510 N   0  0  0  0  0  1  0  0  0  0  0  0
  1 10  1  0  0  0  0
  2  7  1  6  0  0  0
  2  6  1  0  0  0  0
  4  1  2  0  0  0  0
  4 11  1  0  0  0  0
  5  3  1  0  0  0  0
  6  9  1  0  0  0  0
  8 15  1  0  0  0  0
  8  3  2  0  0  0  0
 10  2  1  0  0  0  0
 10 15  2  0  0  0  0
 11  8  1  0  0  0  0
 12  5  2  0  0  0  0
 13 11  2  0  0  0  0
 13 12  1  0  0  0  0
 14  9  1  0  0  0  0
 15 14  1  0  0  0  0
 16 17  2  0  0  0  0
 17 20  1  0  0  0  0
 17 18  1  0  0  0  0
 18  4  1  0  0  0  0
 20 19  2  0  0  0  0
 21 23  1  0  0  0  0
 21 20  1  0  0  0  0
 23 22  1  0  0  0  0
 24 18  1  0  0  0  0
 25 24  1  0  0  0  0
 26 25  1  0  0  0  0
 27 26  1  0  0  0  0
 29 28  1  1  0  0  0
 29 30  1  0  0  0  0
 29 27  1  0  0  0  0
M  END
>  <MODEL>
8

>  <REMARK>
 VINA RESULT:      -7.6      2.570      6.165
  Name = 
  9 active torsions:
  status: ('A' for Active; 'I' for Inactive)
    1  A    between atoms: C_4  and  N_13
    2  A    between atoms: O_5  and  C_12
    3  A    between atoms: O_5  and  C_21
    4  A    between atoms: C_7  and  C_15
    5  A    between atoms: C_7  and  C_16
    6  A    between atoms: C_8  and  C_12
    7  A    between atoms: N_13  and  C_27
    8  A    between atoms: C_16  and  C_30
    9  A    between atoms: C_27  and  C_30
                            x       y       z     vdW  Elec       q    Type
                         _______ _______ _______ _____ _____    ______ ____

>  <TORSDO>
F 9

$$$$
=
 OpenBabel10272413533D

 30 32  0  0  1  0  0  0  0  0999 V2000
  188.3350  177.1840  143.1490 C   0  0  0  0  0  3  0  0  0  0  0  0
  190.6690  176.3990  143.5550 C   0  0  1  0  0  3  0  0  0  0  0  0
  187.6810  178.0380  147.2140 C   0  0  0  0  0  3  0  0  0  0  0  0
  187.1050  177.7210  143.5460 C   0  0  0  0  0  0  0  0  0  0  0  0
  186.4530  178.5550  147.6320 C   0  0  0  0  0  3  0  0  0  0  0  0
  191.5660  175.8460  144.6580 C   0  0  0  0  0  2  0  0  0  0  0  0
  190.4750  175.4200  142.5970 F   0  0  0  0  0  0  0  0  0  0  0  0
  187.9140  177.7530  145.8580 C   0  0  0  0  0  0  0  0  0  0  0  0
  191.6070  176.8170  145.8260 C   0  0  0  0  0  2  0  0  0  0  0  0
  189.3440  176.9080  144.0720 C   0  0  0  0  0  0  0  0  0  0  0  0
  186.8870  178.0030  144.9100 C   0  0  0  0  0  0  0  0  0  0  0  0
  185.4420  178.7900  146.7020 C   0  0  0  0  0  3  0  0  0  0  0  0
  185.6570  178.5140  145.3520 C   0  0  0  0  0  3  0  0  0  0  0  0
  190.2210  176.8980  146.4520 C   0  0  0  0  0  2  0  0  0  0  0  0
  189.1510  177.2200  145.4360 C   0  0  0  0  0  0  0  0  0  0  0  0
  185.5000  179.4930  140.8520 O   0  0  0  0  0  0  0  0  0  0  0  0
  186.4050  178.7890  141.3780 C   0  0  0  0  0  0  0  0  0  0  0  0
  186.1050  177.9980  142.5460 N   0  0  0  0  0  0  0  0  0  0  0  0
  188.6030  179.6300  141.1180 O   0  0  0  0  0  0  0  0  0  0  0  0
  187.7450  178.7770  140.7610 C   0  0  0  0  0  0  0  0  0  0  0  0
  188.0520  177.8430  139.7660 O   0  0  0  0  0  0  0  0  0  0  0  0
  190.3120  177.0490  139.5260 C   0  0  0  0  0  1  0  0  0  0  0  0
  189.2200  177.9380  138.9630 C   0  0  0  0  0  2  0  0  0  0  0  0
  184.7110  177.6760  142.8400 C   0  0  0  0  0  2  0  0  0  0  0  0
  183.8370  178.9030  142.6310 C   0  0  0  0  0  2  0  0  0  0  0  0
  182.6290  178.8540  143.5520 C   0  0  0  0  0  2  0  0  0  0  0  0
  181.3220  178.8050  142.7660 C   0  0  0  0  0  2  0  0  0  0  0  0
  180.8070  179.9090  140.5900 C   0  0  0  0  0  1  0  0  0  0  0  0
  181.5740  178.7890  141.2660 C   0  0  2  0  0  3  0  0  0  0  0  0
  181.1350  177.5180  140.7200 N   0  0  0  0  0  1  0  0  0  0  0  0
  1  4  2  0  0  0  0
  1 10  1  0  0  0  0
  2  7  1  6  0  0  0
  2 10  1  0  0  0  0
  2  6  1  0  0  0  0
  3  5  1  0  0  0  0
  4 11  1  0  0  0  0
  6  9  1  0  0  0  0
  8  3  2  0  0  0  0
  9 14  1  0  0  0  0
 10 15  2  0  0  0  0
 11 13  2  0  0  0  0
 11  8  1  0  0  0  0
 12  5  2  0  0  0  0
 13 12  1  0  0  0  0
 15  8  1  0  0  0  0
 15 14  1  0  0  0  0
 16 17  2  0  0  0  0
 17 18  1  0  0  0  0
 18 24  1  0  0  0  0
 18  4  1  0  0  0  0
 20 19  2  0  0  0  0
 20 17  1  0  0  0  0
 21 20  1  0  0  0  0
 23 22  1  0  0  0  0
 23 21  1  0  0  0  0
 25 24  1  0  0  0  0
 25 26  1  0  0  0  0
 27 26  1  0  0  0  0
 29 28  1  6  0  0  0
 29 27  1  0  0  0  0
 30 29  1  0  0  0  0
M  END
>  <MODEL>
9

>  <REMARK>
 VINA RESULT:      -7.6      2.352      6.470
  Name = 
  9 active torsions:
  status: ('A' for Active; 'I' for Inactive)
    1  A    between atoms: C_4  and  N_13
    2  A    between atoms: O_5  and  C_12
    3  A    between atoms: O_5  and  C_21
    4  A    between atoms: C_7  and  C_15
    5  A    between atoms: C_7  and  C_16
    6  A    between atoms: C_8  and  C_12
    7  A    between atoms: N_13  and  C_27
    8  A    between atoms: C_16  and  C_30
    9  A    between atoms: C_27  and  C_30
                            x       y       z     vdW  Elec       q    Type
                         _______ _______ _______ _____ _____    ______ ____

>  <TORSDO>
F 9

$$$$
