=
 OpenBabel10272415143D

 34 37  0  0  1  0  0  0  0  0999 V2000
  187.9800  177.8480  143.9270 C   0  0  0  0  0  0  0  0  0  0  0  0
  184.7850  178.9590  145.2930 C   0  0  0  0  0  3  0  0  0  0  0  0
  186.3870  177.4020  146.2800 C   0  0  0  0  0  3  0  0  0  0  0  0
  190.0170  177.5750  145.3010 C   0  0  0  0  0  3  0  0  0  0  0  0
  189.7260  177.6640  147.7600 C   0  0  0  0  0  2  0  0  0  0  0  0
  190.5680  177.5580  146.5170 C   0  0  0  0  0  3  0  0  0  0  0  0
  187.7170  177.3570  146.3290 C   0  0  0  0  0  0  0  0  0  0  0  0
  188.5500  177.6030  145.1250 C   0  0  1  0  0  3  0  0  0  0  0  0
  188.3900  176.9370  147.6000 C   0  0  0  0  0  2  0  0  0  0  0  0
  183.8540  179.3830  144.4410 C   0  0  0  0  0  3  0  0  0  0  0  0
  183.5600  178.7920  143.1110 C   0  0  0  0  0  0  0  0  0  0  0  0
  184.5210  178.2840  142.3160 C   0  0  0  0  0  3  0  0  0  0  0  0
  185.6270  177.7580  145.0340 C   0  0  0  0  0  0  0  0  0  0  0  0
  185.9600  178.1320  142.6130 C   0  0  0  0  0  3  0  0  0  0  0  0
  186.5050  177.9560  143.8220 C   0  0  0  0  0  0  0  0  0  0  0  0
  182.2130  178.8850  142.6010 N   0  0  0  0  0  0  0  0  0  0  0  0
  181.0750  179.1180  143.4800 C   0  0  0  0  0  1  0  0  0  0  0  0
  181.9420  178.7900  141.1750 C   0  0  0  0  0  1  0  0  0  0  0  0
  188.7350  178.0130  142.7550 O   0  0  0  0  0  0  0  0  0  0  0  0
  189.2160  176.9210  141.9820 C   0  0  0  0  0  2  0  0  0  0  0  0
  190.5500  177.2870  141.3440 C   0  0  0  0  0  2  0  0  0  0  0  0
  191.0240  176.3190  137.7660 C   0  0  0  0  0  2  0  0  0  0  0  0
  189.0420  177.0570  139.5310 C   0  0  0  0  0  2  0  0  0  0  0  0
  190.0480  177.3620  137.2190 C   0  0  0  0  0  2  0  0  0  0  0  0
  188.7740  177.4530  138.0730 C   0  0  2  0  0  3  0  0  0  0  0  0
  190.3950  177.4630  139.9050 N   0  0  0  0  0  0  0  0  0  0  0  0
  191.3590  176.5720  139.2480 C   0  0  0  0  0  2  0  0  0  0  0  0
  188.2950  178.7630  138.0320 O   0  0  0  0  0  0  0  0  0  0  0  0
  187.3110  178.7630  137.0370 C   0  0  0  0  0  2  0  0  0  0  0  0
  186.1990  177.7670  137.3710 C   0  0  2  0  0  3  0  0  0  0  0  0
  185.6370  177.1370  136.1070 C   0  0  0  0  0  1  0  0  0  0  0  0
  185.0980  178.3310  138.2360 C   0  0  0  0  0  0  0  0  0  0  0  0
  185.3740  179.1630  139.0850 O   0  0  0  0  0  0  0  0  0  0  0  0
  183.6660  177.9350  138.0650 C   0  0  0  0  0  1  0  0  0  0  0  0
  1  8  1  0  0  0  0
  3  7  2  0  0  0  0
  4  6  2  0  0  0  0
  6  5  1  0  0  0  0
  7  9  1  0  0  0  0
  8  4  1  1  0  0  0
  8  7  1  0  0  0  0
  9  5  1  0  0  0  0
 10  2  1  0  0  0  0
 11 10  2  0  0  0  0
 12 14  2  0  0  0  0
 12 11  1  0  0  0  0
 13  2  2  0  0  0  0
 13  3  1  0  0  0  0
 14 15  1  0  0  0  0
 15  1  2  0  0  0  0
 15 13  1  0  0  0  0
 16 11  1  0  0  0  0
 16 17  1  0  0  0  0
 18 16  1  0  0  0  0
 19  1  1  0  0  0  0
 20 19  1  0  0  0  0
 21 20  1  0  0  0  0
 22 27  1  0  0  0  0
 23 26  1  0  0  0  0
 24 22  1  0  0  0  0
 24 25  1  0  0  0  0
 25 28  1  1  0  0  0
 25 23  1  0  0  0  0
 26 21  1  0  0  0  0
 27 26  1  0  0  0  0
 29 30  1  0  0  0  0
 29 28  1  0  0  0  0
 30 31  1  6  0  0  0
 30 32  1  0  0  0  0
 32 33  2  0  0  0  0
 34 32  1  0  0  0  0
M  END
>  <MODEL>
1

>  <REMARK>
 VINA RESULT:      -9.1      0.000      0.000
  Name = 
  9 active torsions:
  status: ('A' for Active; 'I' for Inactive)
    1  A    between atoms: C_1  and  O_9
    2  A    between atoms: N_3  and  C_25
    3  A    between atoms: C_7  and  C_11
    4  A    between atoms: C_7  and  C_29
    5  A    between atoms: C_8  and  O_9
    6  A    between atoms: C_8  and  C_18
    7  A    between atoms: C_18  and  N_30
    8  A    between atoms: O_26  and  C_28
    9  A    between atoms: O_26  and  C_29
                            x       y       z     vdW  Elec       q    Type
                         _______ _______ _______ _____ _____    ______ ____

>  <TORSDO>
F 9

$$$$
=
 OpenBabel10272415143D

 34 37  0  0  1  0  0  0  0  0999 V2000
  187.9530  177.4540  144.6590 C   0  0  0  0  0  0  0  0  0  0  0  0
  184.9000  179.3860  145.1600 C   0  0  0  0  0  3  0  0  0  0  0  0
  186.0740  177.9780  146.7720 C   0  0  0  0  0  3  0  0  0  0  0  0
  189.7530  177.3070  146.3480 C   0  0  0  0  0  3  0  0  0  0  0  0
  189.2350  178.1720  148.6120 C   0  0  0  0  0  2  0  0  0  0  0  0
  190.1640  177.5740  147.5900 C   0  0  0  0  0  3  0  0  0  0  0  0
  187.3600  177.7520  147.0330 C   0  0  0  0  0  0  0  0  0  0  0  0
  188.3420  177.4990  145.9500 C   0  0  1  0  0  3  0  0  0  0  0  0
  187.8100  177.6380  148.4590 C   0  0  0  0  0  2  0  0  0  0  0  0
  184.1560  179.6690  144.0920 C   0  0  0  0  0  3  0  0  0  0  0  0
  183.8940  178.7560  142.9500 C   0  0  0  0  0  0  0  0  0  0  0  0
  184.8200  177.8960  142.4840 C   0  0  0  0  0  3  0  0  0  0  0  0
  185.5250  178.0520  145.3770 C   0  0  0  0  0  0  0  0  0  0  0  0
  186.1660  177.6290  143.0270 C   0  0  0  0  0  3  0  0  0  0  0  0
  186.5430  177.7440  144.3050 C   0  0  0  0  0  0  0  0  0  0  0  0
  182.6470  178.8910  142.2360 N   0  0  0  0  0  0  0  0  0  0  0  0
  181.4060  179.2340  142.9180 C   0  0  0  0  0  1  0  0  0  0  0  0
  182.5880  178.7280  140.7910 C   0  0  0  0  0  1  0  0  0  0  0  0
  188.8410  177.1460  143.6170 O   0  0  0  0  0  0  0  0  0  0  0  0
  189.5310  178.1380  142.8660 C   0  0  0  0  0  2  0  0  0  0  0  0
  190.6120  177.4840  142.0150 C   0  0  0  0  0  2  0  0  0  0  0  0
  188.6060  177.9120  138.8920 C   0  0  0  0  0  2  0  0  0  0  0  0
  191.1110  177.1260  139.7270 C   0  0  0  0  0  2  0  0  0  0  0  0
  189.1190  176.6290  138.2320 C   0  0  0  0  0  2  0  0  0  0  0  0
  190.6310  176.4500  138.4370 C   0  0  2  0  0  3  0  0  0  0  0  0
  190.0610  177.0440  140.7400 N   0  0  0  0  0  0  0  0  0  0  0  0
  188.9830  177.9750  140.3840 C   0  0  0  0  0  2  0  0  0  0  0  0
  190.9210  175.0850  138.4960 O   0  0  0  0  0  0  0  0  0  0  0  0
  191.4950  174.7770  137.2580 C   0  0  0  0  0  2  0  0  0  0  0  0
  192.8080  175.5370  137.0640 C   0  0  2  0  0  3  0  0  0  0  0  0
  193.1050  175.7380  135.5870 C   0  0  0  0  0  1  0  0  0  0  0  0
  193.9900  174.9310  137.7800 C   0  0  0  0  0  0  0  0  0  0  0  0
  194.6450  175.6250  138.5410 O   0  0  0  0  0  0  0  0  0  0  0  0
  194.3700  173.4940  137.6190 C   0  0  0  0  0  1  0  0  0  0  0  0
  1  8  1  0  0  0  0
  2 13  2  0  0  0  0
  3  7  2  0  0  0  0
  4  6  2  0  0  0  0
  6  5  1  0  0  0  0
  7  9  1  0  0  0  0
  8  4  1  6  0  0  0
  8  7  1  0  0  0  0
  9  5  1  0  0  0  0
 10  2  1  0  0  0  0
 11 10  2  0  0  0  0
 12 11  1  0  0  0  0
 12 14  2  0  0  0  0
 13  3  1  0  0  0  0
 14 15  1  0  0  0  0
 15  1  2  0  0  0  0
 15 13  1  0  0  0  0
 16 17  1  0  0  0  0
 16 11  1  0  0  0  0
 18 16  1  0  0  0  0
 19  1  1  0  0  0  0
 20 19  1  0  0  0  0
 21 20  1  0  0  0  0
 22 27  1  0  0  0  0
 23 26  1  0  0  0  0
 24 25  1  0  0  0  0
 24 22  1  0  0  0  0
 25 28  1  1  0  0  0
 25 23  1  0  0  0  0
 26 21  1  0  0  0  0
 27 26  1  0  0  0  0
 29 28  1  0  0  0  0
 30 31  1  6  0  0  0
 30 29  1  0  0  0  0
 30 32  1  0  0  0  0
 32 33  2  0  0  0  0
 34 32  1  0  0  0  0
M  END
>  <MODEL>
2

>  <REMARK>
 VINA RESULT:      -9.1      2.007      3.954
  Name = 
  9 active torsions:
  status: ('A' for Active; 'I' for Inactive)
    1  A    between atoms: C_1  and  O_9
    2  A    between atoms: N_3  and  C_25
    3  A    between atoms: C_7  and  C_11
    4  A    between atoms: C_7  and  C_29
    5  A    between atoms: C_8  and  O_9
    6  A    between atoms: C_8  and  C_18
    7  A    between atoms: C_18  and  N_30
    8  A    between atoms: O_26  and  C_28
    9  A    between atoms: O_26  and  C_29
                            x       y       z     vdW  Elec       q    Type
                         _______ _______ _______ _____ _____    ______ ____

>  <TORSDO>
F 9

$$$$
=
 OpenBabel10272415143D

 34 37  0  0  1  0  0  0  0  0999 V2000
  188.0030  177.7420  144.1570 C   0  0  0  0  0  0  0  0  0  0  0  0
  184.7820  179.1050  145.1930 C   0  0  0  0  0  3  0  0  0  0  0  0
  186.2360  177.5750  146.4200 C   0  0  0  0  0  3  0  0  0  0  0  0
  189.9280  177.5040  145.6910 C   0  0  0  0  0  3  0  0  0  0  0  0
  189.4760  177.8210  148.1080 C   0  0  0  0  0  2  0  0  0  0  0  0
  190.3940  177.5710  146.9410 C   0  0  0  0  0  3  0  0  0  0  0  0
  187.5560  177.4770  146.5670 C   0  0  0  0  0  0  0  0  0  0  0  0
  188.4790  177.5790  145.4090 C   0  0  1  0  0  3  0  0  0  0  0  0
  188.1200  177.1410  147.9150 C   0  0  0  0  0  2  0  0  0  0  0  0
  183.9320  179.4930  144.2430 C   0  0  0  0  0  3  0  0  0  0  0  0
  183.7000  178.8000  142.9500 C   0  0  0  0  0  0  0  0  0  0  0  0
  184.6870  178.1840  142.2720 C   0  0  0  0  0  3  0  0  0  0  0  0
  185.5800  177.8520  145.0980 C   0  0  0  0  0  0  0  0  0  0  0  0
  186.0930  177.9970  142.6840 C   0  0  0  0  0  3  0  0  0  0  0  0
  186.5460  177.9050  143.9380 C   0  0  0  0  0  0  0  0  0  0  0  0
  182.3970  178.9060  142.3400 N   0  0  0  0  0  0  0  0  0  0  0  0
  182.1980  178.6840  140.9140 C   0  0  0  0  0  1  0  0  0  0  0  0
  181.2160  179.1990  143.1370 C   0  0  0  0  0  1  0  0  0  0  0  0
  188.8430  177.7710  143.0330 O   0  0  0  0  0  0  0  0  0  0  0  0
  189.3150  176.5960  142.3870 C   0  0  0  0  0  2  0  0  0  0  0  0
  190.4680  176.9450  141.4540 C   0  0  0  0  0  2  0  0  0  0  0  0
  189.0630  177.2160  138.0020 C   0  0  0  0  0  2  0  0  0  0  0  0
  191.4120  176.6090  139.3080 C   0  0  0  0  0  2  0  0  0  0  0  0
  189.7750  175.9680  137.4750 C   0  0  0  0  0  2  0  0  0  0  0  0
  191.2300  175.8940  137.9630 C   0  0  2  0  0  3  0  0  0  0  0  0
  190.1970  176.4610  140.1070 N   0  0  0  0  0  0  0  0  0  0  0  0
  189.1460  177.3140  139.5370 C   0  0  0  0  0  2  0  0  0  0  0  0
  191.5930  174.5530  138.1010 O   0  0  0  0  0  0  0  0  0  0  0  0
  192.3080  174.2450  136.9390 C   0  0  0  0  0  2  0  0  0  0  0  0
  193.6600  174.9600  136.9260 C   0  0  2  0  0  3  0  0  0  0  0  0
  194.3170  174.8530  135.5590 C   0  0  0  0  0  1  0  0  0  0  0  0
  194.6040  174.5260  138.0200 C   0  0  0  0  0  0  0  0  0  0  0  0
  195.0300  175.3590  138.8040 O   0  0  0  0  0  0  0  0  0  0  0  0
  195.0120  173.0990  138.2040 C   0  0  0  0  0  1  0  0  0  0  0  0
  1  8  1  0  0  0  0
  3  7  2  0  0  0  0
  4  6  2  0  0  0  0
  6  5  1  0  0  0  0
  7  9  1  0  0  0  0
  8  4  1  1  0  0  0
  8  7  1  0  0  0  0
  9  5  1  0  0  0  0
 10  2  1  0  0  0  0
 11 10  2  0  0  0  0
 12 14  2  0  0  0  0
 12 11  1  0  0  0  0
 13  2  2  0  0  0  0
 13  3  1  0  0  0  0
 14 15  1  0  0  0  0
 15  1  2  0  0  0  0
 15 13  1  0  0  0  0
 16 11  1  0  0  0  0
 16 18  1  0  0  0  0
 17 16  1  0  0  0  0
 19  1  1  0  0  0  0
 20 19  1  0  0  0  0
 21 20  1  0  0  0  0
 22 27  1  0  0  0  0
 23 26  1  0  0  0  0
 24 25  1  0  0  0  0
 24 22  1  0  0  0  0
 25 28  1  1  0  0  0
 25 23  1  0  0  0  0
 26 21  1  0  0  0  0
 27 26  1  0  0  0  0
 29 28  1  0  0  0  0
 30 31  1  6  0  0  0
 30 29  1  0  0  0  0
 30 32  1  0  0  0  0
 32 34  1  0  0  0  0
 32 33  2  0  0  0  0
M  END
>  <MODEL>
3

>  <REMARK>
 VINA RESULT:      -9.0      2.225      4.290
  Name = 
  9 active torsions:
  status: ('A' for Active; 'I' for Inactive)
    1  A    between atoms: C_1  and  O_9
    2  A    between atoms: N_3  and  C_25
    3  A    between atoms: C_7  and  C_11
    4  A    between atoms: C_7  and  C_29
    5  A    between atoms: C_8  and  O_9
    6  A    between atoms: C_8  and  C_18
    7  A    between atoms: C_18  and  N_30
    8  A    between atoms: O_26  and  C_28
    9  A    between atoms: O_26  and  C_29
                            x       y       z     vdW  Elec       q    Type
                         _______ _______ _______ _____ _____    ______ ____

>  <TORSDO>
F 9

$$$$
=
 OpenBabel10272415143D

 34 37  0  0  1  0  0  0  0  0999 V2000
  187.2950  177.7200  143.5820 C   0  0  0  0  0  0  0  0  0  0  0  0
  187.7910  177.0810  147.1390 C   0  0  0  0  0  3  0  0  0  0  0  0
  186.3210  178.7260  146.0940 C   0  0  0  0  0  3  0  0  0  0  0  0
  185.0780  178.1700  142.5850 C   0  0  0  0  0  3  0  0  0  0  0  0
  183.2140  178.6120  144.1580 C   0  0  0  0  0  2  0  0  0  0  0  0
  183.7790  178.4130  142.7770 C   0  0  0  0  0  3  0  0  0  0  0  0
  185.5480  178.7140  145.0090 C   0  0  0  0  0  0  0  0  0  0  0  0
  186.0340  178.1800  143.7130 C   0  0  0  0  0  0  0  0  0  0  0  0
  184.1940  179.3560  145.0660 C   0  0  0  0  0  2  0  0  0  0  0  0
  188.9440  176.5360  147.5220 C   0  0  0  0  0  2  0  0  0  0  0  0
  190.2820  176.8500  146.9610 C   0  0  0  0  0  0  0  0  0  0  0  0
  190.4720  177.1310  145.6570 C   0  0  0  0  0  3  0  0  0  0  0  0
  187.7100  178.1570  146.1130 C   0  0  0  0  0  0  0  0  0  0  0  0
  189.4510  177.2690  144.6000 C   0  0  0  0  0  3  0  0  0  0  0  0
  188.1850  177.6660  144.7670 C   0  0  0  0  0  0  0  0  0  0  0  0
  191.4340  176.7210  147.8190 N   0  0  0  0  0  0  0  0  0  0  0  0
  192.4230  175.6690  147.6240 C   0  0  0  0  0  1  0  0  0  0  0  0
  191.6780  177.6680  148.8970 C   0  0  0  0  0  1  0  0  0  0  0  0
  187.8090  177.2750  142.3540 O   0  0  0  0  0  0  0  0  0  0  0  0
  188.5370  178.1160  141.4680 C   0  0  0  0  0  2  0  0  0  0  0  0
  189.1040  177.2910  140.3200 C   0  0  0  0  0  2  0  0  0  0  0  0
  188.9790  179.0030  137.0010 C   0  0  0  0  0  2  0  0  0  0  0  0
  188.5530  176.5320  138.1440 C   0  0  0  0  0  2  0  0  0  0  0  0
  187.6930  178.3090  136.5460 C   0  0  0  0  0  2  0  0  0  0  0  0
  187.6950  176.8150  136.9050 C   0  0  2  0  0  3  0  0  0  0  0  0
  188.4730  177.6680  139.0620 N   0  0  0  0  0  0  0  0  0  0  0  0
  189.2430  178.7860  138.5030 C   0  0  0  0  0  2  0  0  0  0  0  0
  186.3820  176.4070  137.1510 O   0  0  0  0  0  0  0  0  0  0  0  0
  185.5950  177.5380  136.9070 C   0  0  0  0  0  2  0  0  0  0  0  0
  184.4350  177.6170  137.9000 C   0  0  2  0  0  3  0  0  0  0  0  0
  183.0980  177.5600  137.1790 C   0  0  0  0  0  1  0  0  0  0  0  0
  184.4980  178.7990  138.8380 C   0  0  0  0  0  0  0  0  0  0  0  0
  185.5820  179.1580  139.2710 O   0  0  0  0  0  0  0  0  0  0  0  0
  183.2810  179.5720  139.2320 C   0  0  0  0  0  1  0  0  0  0  0  0
  1  8  2  0  0  0  0
  1 15  1  0  0  0  0
  2 10  1  0  0  0  0
  3 13  1  0  0  0  0
  4  6  2  0  0  0  0
  4  8  1  0  0  0  0
  5  9  1  0  0  0  0
  6  5  1  0  0  0  0
  7  9  1  0  0  0  0
  7  3  2  0  0  0  0
  8  7  1  0  0  0  0
 11 10  1  0  0  0  0
 11 16  1  0  0  0  0
 12 11  2  0  0  0  0
 13  2  2  0  0  0  0
 14 15  2  0  0  0  0
 14 12  1  0  0  0  0
 15 13  1  0  0  0  0
 16 18  1  0  0  0  0
 17 16  1  0  0  0  0
 19  1  1  0  0  0  0
 20 19  1  0  0  0  0
 21 20  1  0  0  0  0
 22 27  1  0  0  0  0
 23 26  1  0  0  0  0
 24 25  1  0  0  0  0
 24 22  1  0  0  0  0
 25 28  1  1  0  0  0
 25 23  1  0  0  0  0
 26 21  1  0  0  0  0
 27 26  1  0  0  0  0
 29 28  1  0  0  0  0
 29 30  1  0  0  0  0
 30 31  1  6  0  0  0
 30 32  1  0  0  0  0
 32 34  1  0  0  0  0
 32 33  2  0  0  0  0
M  END
>  <MODEL>
4

>  <REMARK>
 VINA RESULT:      -8.8      1.907      5.153
  Name = 
  9 active torsions:
  status: ('A' for Active; 'I' for Inactive)
    1  A    between atoms: C_1  and  O_9
    2  A    between atoms: N_3  and  C_25
    3  A    between atoms: C_7  and  C_11
    4  A    between atoms: C_7  and  C_29
    5  A    between atoms: C_8  and  O_9
    6  A    between atoms: C_8  and  C_18
    7  A    between atoms: C_18  and  N_30
    8  A    between atoms: O_26  and  C_28
    9  A    between atoms: O_26  and  C_29
                            x       y       z     vdW  Elec       q    Type
                         _______ _______ _______ _____ _____    ______ ____

>  <TORSDO>
F 9

$$$$
=
 OpenBabel10272415143D

 34 37  0  0  1  0  0  0  0  0999 V2000
  187.6910  178.0420  142.9140 C   0  0  0  0  0  0  0  0  0  0  0  0
  184.8410  178.8850  145.0280 C   0  0  0  0  0  3  0  0  0  0  0  0
  186.6820  177.3580  145.5180 C   0  0  0  0  0  3  0  0  0  0  0  0
  189.9930  177.7920  143.7820 C   0  0  0  0  0  3  0  0  0  0  0  0
  190.2540  177.7040  146.2450 C   0  0  0  0  0  2  0  0  0  0  0  0
  190.8010  177.7260  144.8430 C   0  0  0  0  0  3  0  0  0  0  0  0
  187.9900  177.3820  145.2700 C   0  0  0  0  0  0  0  0  0  0  0  0
  188.5230  177.7510  143.9350 C   0  0  1  0  0  3  0  0  0  0  0  0
  188.9460  176.9180  146.3280 C   0  0  0  0  0  2  0  0  0  0  0  0
  183.7270  179.3130  144.4360 C   0  0  0  0  0  3  0  0  0  0  0  0
  183.1670  178.7940  143.1620 C   0  0  0  0  0  0  0  0  0  0  0  0
  183.9470  178.3930  142.1390 C   0  0  0  0  0  3  0  0  0  0  0  0
  185.6500  177.7520  144.5010 C   0  0  0  0  0  0  0  0  0  0  0  0
  185.4200  178.3010  142.1010 C   0  0  0  0  0  3  0  0  0  0  0  0
  186.2270  178.0770  143.1430 C   0  0  0  0  0  0  0  0  0  0  0  0
  181.7390  178.8460  142.9690 N   0  0  0  0  0  0  0  0  0  0  0  0
  180.8110  178.8090  144.0920 C   0  0  0  0  0  1  0  0  0  0  0  0
  181.1650  178.9810  141.6380 C   0  0  0  0  0  1  0  0  0  0  0  0
  188.1590  178.3250  141.6210 O   0  0  0  0  0  0  0  0  0  0  0  0
  188.6070  177.3190  140.7210 C   0  0  0  0  0  2  0  0  0  0  0  0
  189.3080  177.9630  139.5320 C   0  0  0  0  0  2  0  0  0  0  0  0
  188.6230  178.2040  135.8670 C   0  0  0  0  0  2  0  0  0  0  0  0
  188.2070  176.5210  138.0080 C   0  0  0  0  0  2  0  0  0  0  0  0
  187.2020  177.6440  135.9640 C   0  0  0  0  0  2  0  0  0  0  0  0
  187.1270  176.4450  136.9220 C   0  0  2  0  0  3  0  0  0  0  0  0
  188.4550  177.9200  138.3520 N   0  0  0  0  0  0  0  0  0  0  0  0
  189.1930  178.5560  137.2540 C   0  0  0  0  0  2  0  0  0  0  0  0
  185.8680  176.4260  137.5240 O   0  0  0  0  0  0  0  0  0  0  0  0
  185.4740  177.7660  137.5930 C   0  0  0  0  0  2  0  0  0  0  0  0
  184.3700  177.9550  138.6350 C   0  0  2  0  0  3  0  0  0  0  0  0
  183.2770  176.9130  138.4630 C   0  0  0  0  0  1  0  0  0  0  0  0
  183.7920  179.3490  138.6840 C   0  0  0  0  0  0  0  0  0  0  0  0
  184.4880  180.2690  139.0830 O   0  0  0  0  0  0  0  0  0  0  0  0
  182.4020  179.6530  138.2240 C   0  0  0  0  0  1  0  0  0  0  0  0
  1 15  2  0  0  0  0
  1  8  1  0  0  0  0
  4  6  2  0  0  0  0
  5  9  1  0  0  0  0
  6  5  1  0  0  0  0
  7  3  2  0  0  0  0
  7  9  1  0  0  0  0
  8  4  1  1  0  0  0
  8  7  1  0  0  0  0
 10  2  1  0  0  0  0
 11 10  2  0  0  0  0
 12 11  1  0  0  0  0
 13  2  2  0  0  0  0
 13  3  1  0  0  0  0
 14 12  2  0  0  0  0
 14 15  1  0  0  0  0
 15 13  1  0  0  0  0
 16 11  1  0  0  0  0
 16 17  1  0  0  0  0
 18 16  1  0  0  0  0
 19  1  1  0  0  0  0
 20 19  1  0  0  0  0
 21 20  1  0  0  0  0
 22 24  1  0  0  0  0
 22 27  1  0  0  0  0
 23 26  1  0  0  0  0
 24 25  1  0  0  0  0
 25 28  1  1  0  0  0
 25 23  1  0  0  0  0
 26 21  1  0  0  0  0
 27 26  1  0  0  0  0
 28 29  1  0  0  0  0
 29 30  1  0  0  0  0
 30 31  1  6  0  0  0
 30 32  1  0  0  0  0
 32 33  2  0  0  0  0
 34 32  1  0  0  0  0
M  END
>  <MODEL>
5

>  <REMARK>
 VINA RESULT:      -8.5      1.388      1.872
  Name = 
  9 active torsions:
  status: ('A' for Active; 'I' for Inactive)
    1  A    between atoms: C_1  and  O_9
    2  A    between atoms: N_3  and  C_25
    3  A    between atoms: C_7  and  C_11
    4  A    between atoms: C_7  and  C_29
    5  A    between atoms: C_8  and  O_9
    6  A    between atoms: C_8  and  C_18
    7  A    between atoms: C_18  and  N_30
    8  A    between atoms: O_26  and  C_28
    9  A    between atoms: O_26  and  C_29
                            x       y       z     vdW  Elec       q    Type
                         _______ _______ _______ _____ _____    ______ ____

>  <TORSDO>
F 9

$$$$
=
 OpenBabel10272415143D

 34 37  0  0  1  0  0  0  0  0999 V2000
  188.3280  177.6180  143.9980 C   0  0  0  0  0  0  0  0  0  0  0  0
  185.1580  178.9350  145.2320 C   0  0  0  0  0  3  0  0  0  0  0  0
  186.6760  177.3760  146.3390 C   0  0  0  0  0  3  0  0  0  0  0  0
  190.3270  177.3440  145.4270 C   0  0  0  0  0  3  0  0  0  0  0  0
  189.9950  177.5880  147.8710 C   0  0  0  0  0  2  0  0  0  0  0  0
  190.8550  177.3760  146.6540 C   0  0  0  0  0  3  0  0  0  0  0  0
  188.0020  177.2800  146.4180 C   0  0  0  0  0  0  0  0  0  0  0  0
  188.8660  177.4210  145.2200 C   0  0  1  0  0  3  0  0  0  0  0  0
  188.6340  176.9080  147.7260 C   0  0  0  0  0  2  0  0  0  0  0  0
  184.2610  179.3460  144.3370 C   0  0  0  0  0  3  0  0  0  0  0  0
  183.9670  178.6900  143.0380 C   0  0  0  0  0  0  0  0  0  0  0  0
  184.9210  178.0980  142.2940 C   0  0  0  0  0  3  0  0  0  0  0  0
  185.9540  177.6880  145.0600 C   0  0  0  0  0  0  0  0  0  0  0  0
  186.3460  177.9060  142.6290 C   0  0  0  0  0  3  0  0  0  0  0  0
  186.8610  177.7790  143.8560 C   0  0  0  0  0  0  0  0  0  0  0  0
  182.6350  178.8070  142.4960 N   0  0  0  0  0  0  0  0  0  0  0  0
  181.4940  179.1540  143.3330 C   0  0  0  0  0  1  0  0  0  0  0  0
  182.3830  178.6220  141.0750 C   0  0  0  0  0  1  0  0  0  0  0  0
  189.1110  177.6830  142.8350 O   0  0  0  0  0  0  0  0  0  0  0  0
  189.6660  176.5340  142.2070 C   0  0  0  0  0  2  0  0  0  0  0  0
  190.5110  176.9550  141.0120 C   0  0  0  0  0  2  0  0  0  0  0  0
  188.7980  178.1840  137.9270 C   0  0  0  0  0  2  0  0  0  0  0  0
  190.6810  176.3410  138.7300 C   0  0  0  0  0  2  0  0  0  0  0  0
  188.6220  176.7930  137.3140 C   0  0  0  0  0  2  0  0  0  0  0  0
  189.8830  175.9320  137.4850 C   0  0  2  0  0  3  0  0  0  0  0  0
  189.7610  176.7890  139.7730 N   0  0  0  0  0  0  0  0  0  0  0  0
  189.2280  178.1060  139.4040 C   0  0  0  0  0  2  0  0  0  0  0  0
  189.5040  174.5940  137.6000 O   0  0  0  0  0  0  0  0  0  0  0  0
  188.4960  174.4150  136.6470 C   0  0  0  0  0  2  0  0  0  0  0  0
  187.6310  173.2020  136.9920 C   0  0  2  0  0  3  0  0  0  0  0  0
  187.8840  172.0610  136.0200 C   0  0  0  0  0  1  0  0  0  0  0  0
  186.1550  173.5020  137.1080 C   0  0  0  0  0  0  0  0  0  0  0  0
  185.7970  174.6470  137.3360 O   0  0  0  0  0  0  0  0  0  0  0  0
  185.1090  172.4510  136.9170 C   0  0  0  0  0  1  0  0  0  0  0  0
  1  8  1  0  0  0  0
  3  7  2  0  0  0  0
  4  6  2  0  0  0  0
  6  5  1  0  0  0  0
  7  9  1  0  0  0  0
  8  4  1  1  0  0  0
  8  7  1  0  0  0  0
  9  5  1  0  0  0  0
 10  2  1  0  0  0  0
 11 10  2  0  0  0  0
 12 14  2  0  0  0  0
 12 11  1  0  0  0  0
 13  2  2  0  0  0  0
 13  3  1  0  0  0  0
 14 15  1  0  0  0  0
 15  1  2  0  0  0  0
 15 13  1  0  0  0  0
 16 11  1  0  0  0  0
 16 17  1  0  0  0  0
 18 16  1  0  0  0  0
 19  1  1  0  0  0  0
 20 19  1  0  0  0  0
 21 20  1  0  0  0  0
 22 27  1  0  0  0  0
 23 26  1  0  0  0  0
 24 25  1  0  0  0  0
 24 22  1  0  0  0  0
 25 28  1  1  0  0  0
 25 23  1  0  0  0  0
 26 21  1  0  0  0  0
 27 26  1  0  0  0  0
 29 30  1  0  0  0  0
 29 28  1  0  0  0  0
 30 31  1  6  0  0  0
 30 32  1  0  0  0  0
 32 33  2  0  0  0  0
 34 32  1  0  0  0  0
M  END
>  <MODEL>
6

>  <REMARK>
 VINA RESULT:      -8.5      2.114      2.462
  Name = 
  9 active torsions:
  status: ('A' for Active; 'I' for Inactive)
    1  A    between atoms: C_1  and  O_9
    2  A    between atoms: N_3  and  C_25
    3  A    between atoms: C_7  and  C_11
    4  A    between atoms: C_7  and  C_29
    5  A    between atoms: C_8  and  O_9
    6  A    between atoms: C_8  and  C_18
    7  A    between atoms: C_18  and  N_30
    8  A    between atoms: O_26  and  C_28
    9  A    between atoms: O_26  and  C_29
                            x       y       z     vdW  Elec       q    Type
                         _______ _______ _______ _____ _____    ______ ____

>  <TORSDO>
F 9

$$$$
=
 OpenBabel10272415143D

 34 37  0  0  1  0  0  0  0  0999 V2000
  185.0640  178.2540  142.7020 C   0  0  0  0  0  0  0  0  0  0  0  0
  185.1260  177.6880  146.3050 C   0  0  0  0  0  3  0  0  0  0  0  0
  183.6460  179.1570  145.0360 C   0  0  0  0  0  3  0  0  0  0  0  0
  182.9720  178.4540  141.4000 C   0  0  0  0  0  3  0  0  0  0  0  0
  180.8700  178.6940  142.6920 C   0  0  0  0  0  2  0  0  0  0  0  0
  181.6400  178.5530  141.4060 C   0  0  0  0  0  3  0  0  0  0  0  0
  183.0370  179.0550  143.8550 C   0  0  0  0  0  0  0  0  0  0  0  0
  183.7540  178.5730  142.6490 C   0  0  0  0  0  0  0  0  0  0  0  0
  181.6280  179.5450  143.7130 C   0  0  0  0  0  2  0  0  0  0  0  0
  186.2670  177.2730  146.8540 C   0  0  0  0  0  2  0  0  0  0  0  0
  187.6280  177.7310  146.4770 C   0  0  0  0  0  0  0  0  0  0  0  0
  187.9660  178.0260  145.2070 C   0  0  0  0  0  3  0  0  0  0  0  0
  185.0720  178.7440  145.2570 C   0  0  0  0  0  0  0  0  0  0  0  0
  187.0930  178.0470  144.0160 C   0  0  0  0  0  3  0  0  0  0  0  0
  185.7810  178.3030  143.9990 C   0  0  0  0  0  0  0  0  0  0  0  0
  188.6560  177.7330  147.4880 N   0  0  0  0  0  0  0  0  0  0  0  0
  189.9470  177.0940  147.2710 C   0  0  0  0  0  1  0  0  0  0  0  0
  188.4590  178.4130  148.7600 C   0  0  0  0  0  1  0  0  0  0  0  0
  185.7890  177.8640  141.5660 O   0  0  0  0  0  0  0  0  0  0  0  0
  186.4410  178.7910  140.7060 C   0  0  0  0  0  2  0  0  0  0  0  0
  186.3830  178.2910  139.2680 C   0  0  0  0  0  2  0  0  0  0  0  0
  189.3060  177.8660  136.9800 C   0  0  0  0  0  2  0  0  0  0  0  0
  188.7240  178.4130  139.6170 C   0  0  0  0  0  2  0  0  0  0  0  0
  190.1470  177.0810  137.9890 C   0  0  0  0  0  2  0  0  0  0  0  0
  190.0560  177.6860  139.3980 C   0  0  2  0  0  3  0  0  0  0  0  0
  187.6680  177.7290  138.8720 N   0  0  0  0  0  0  0  0  0  0  0  0
  187.8420  178.0010  137.4400 C   0  0  0  0  0  2  0  0  0  0  0  0
  190.1820  176.6620  140.3390 O   0  0  0  0  0  0  0  0  0  0  0  0
  190.8880  177.2270  141.4060 C   0  0  0  0  0  2  0  0  0  0  0  0
  190.8760  176.2960  142.6190 C   0  0  2  0  0  3  0  0  0  0  0  0
  189.4710  175.7900  142.9010 C   0  0  0  0  0  1  0  0  0  0  0  0
  191.5030  176.8840  143.8610 C   0  0  0  0  0  0  0  0  0  0  0  0
  191.9870  176.1360  144.6950 O   0  0  0  0  0  0  0  0  0  0  0  0
  191.5870  178.3590  144.0910 C   0  0  0  0  0  1  0  0  0  0  0  0
  1 15  1  0  0  0  0
  2 10  1  0  0  0  0
  3 13  1  0  0  0  0
  4  6  2  0  0  0  0
  4  8  1  0  0  0  0
  5  9  1  0  0  0  0
  6  5  1  0  0  0  0
  7  3  2  0  0  0  0
  8  1  2  0  0  0  0
  8  7  1  0  0  0  0
  9  7  1  0  0  0  0
 11 10  1  0  0  0  0
 11 16  1  0  0  0  0
 12 11  2  0  0  0  0
 13  2  2  0  0  0  0
 14 12  1  0  0  0  0
 15 14  2  0  0  0  0
 15 13  1  0  0  0  0
 16 18  1  0  0  0  0
 17 16  1  0  0  0  0
 19  1  1  0  0  0  0
 20 19  1  0  0  0  0
 21 20  1  0  0  0  0
 22 27  1  0  0  0  0
 22 24  1  0  0  0  0
 24 25  1  0  0  0  0
 25 23  1  0  0  0  0
 25 28  1  1  0  0  0
 26 21  1  0  0  0  0
 26 23  1  0  0  0  0
 27 26  1  0  0  0  0
 28 29  1  0  0  0  0
 29 30  1  0  0  0  0
 30 31  1  1  0  0  0
 30 32  1  0  0  0  0
 32 34  1  0  0  0  0
 32 33  2  0  0  0  0
M  END
>  <MODEL>
7

>  <REMARK>
 VINA RESULT:      -8.3      2.063      6.112
  Name = 
  9 active torsions:
  status: ('A' for Active; 'I' for Inactive)
    1  A    between atoms: C_1  and  O_9
    2  A    between atoms: N_3  and  C_25
    3  A    between atoms: C_7  and  C_11
    4  A    between atoms: C_7  and  C_29
    5  A    between atoms: C_8  and  O_9
    6  A    between atoms: C_8  and  C_18
    7  A    between atoms: C_18  and  N_30
    8  A    between atoms: O_26  and  C_28
    9  A    between atoms: O_26  and  C_29
                            x       y       z     vdW  Elec       q    Type
                         _______ _______ _______ _____ _____    ______ ____

>  <TORSDO>
F 9

$$$$
=
 OpenBabel10272415143D

 34 37  0  0  1  0  0  0  0  0999 V2000
  187.7910  177.4220  144.4870 C   0  0  0  0  0  0  0  0  0  0  0  0
  184.8550  179.4820  145.1540 C   0  0  0  0  0  3  0  0  0  0  0  0
  186.0690  178.0410  146.7060 C   0  0  0  0  0  3  0  0  0  0  0  0
  189.6850  177.2160  146.0640 C   0  0  0  0  0  3  0  0  0  0  0  0
  189.3430  178.1220  148.3450 C   0  0  0  0  0  2  0  0  0  0  0  0
  190.1830  177.4780  147.2750 C   0  0  0  0  0  3  0  0  0  0  0  0
  187.3590  177.7650  146.8900 C   0  0  0  0  0  0  0  0  0  0  0  0
  188.2610  177.4620  145.7510 C   0  0  1  0  0  3  0  0  0  0  0  0
  187.8910  177.6450  148.2870 C   0  0  0  0  0  2  0  0  0  0  0  0
  184.0580  179.7850  144.1300 C   0  0  0  0  0  3  0  0  0  0  0  0
  183.6890  178.8740  143.0170 C   0  0  0  0  0  0  0  0  0  0  0  0
  184.5490  177.9730  142.5040 C   0  0  0  0  0  3  0  0  0  0  0  0
  185.4380  178.1260  145.3460 C   0  0  0  0  0  0  0  0  0  0  0  0
  185.9150  177.6550  142.9670 C   0  0  0  0  0  3  0  0  0  0  0  0
  186.3740  177.7670  144.2170 C   0  0  0  0  0  0  0  0  0  0  0  0
  182.4070  179.0530  142.3800 N   0  0  0  0  0  0  0  0  0  0  0  0
  182.2080  178.7700  140.9650 C   0  0  0  0  0  1  0  0  0  0  0  0
  181.2450  179.4880  143.1400 C   0  0  0  0  0  1  0  0  0  0  0  0
  188.6000  177.0690  143.3960 O   0  0  0  0  0  0  0  0  0  0  0  0
  189.2950  178.0240  142.6040 C   0  0  0  0  0  2  0  0  0  0  0  0
  188.9700  177.8090  141.1310 C   0  0  0  0  0  2  0  0  0  0  0  0
  192.6330  177.2230  140.6800 C   0  0  0  0  0  2  0  0  0  0  0  0
  190.2030  176.4140  139.6660 C   0  0  0  0  0  2  0  0  0  0  0  0
  192.5700  177.1790  139.1520 C   0  0  0  0  0  2  0  0  0  0  0  0
  191.3570  176.3760  138.6560 C   0  0  2  0  0  3  0  0  0  0  0  0
  190.1960  177.7060  140.3490 N   0  0  0  0  0  0  0  0  0  0  0  0
  191.3220  177.7530  141.2900 C   0  0  0  0  0  2  0  0  0  0  0  0
  190.9250  176.9140  137.4420 O   0  0  0  0  0  0  0  0  0  0  0  0
  190.3200  175.8500  136.7640 C   0  0  0  0  0  2  0  0  0  0  0  0
  189.0690  176.3200  136.0200 C   0  0  2  0  0  3  0  0  0  0  0  0
  189.3520  177.5890  135.2320 C   0  0  0  0  0  1  0  0  0  0  0  0
  187.8490  176.4820  136.8940 C   0  0  0  0  0  0  0  0  0  0  0  0
  187.7160  177.5050  137.5470 O   0  0  0  0  0  0  0  0  0  0  0  0
  186.7740  175.4460  136.9640 C   0  0  0  0  0  1  0  0  0  0  0  0
  1  8  1  0  0  0  0
  2 13  2  0  0  0  0
  3  7  2  0  0  0  0
  4  6  2  0  0  0  0
  6  5  1  0  0  0  0
  7  9  1  0  0  0  0
  8  4  1  6  0  0  0
  8  7  1  0  0  0  0
  9  5  1  0  0  0  0
 10  2  1  0  0  0  0
 11 10  2  0  0  0  0
 12 14  2  0  0  0  0
 12 11  1  0  0  0  0
 13  3  1  0  0  0  0
 14 15  1  0  0  0  0
 15  1  2  0  0  0  0
 15 13  1  0  0  0  0
 16 11  1  0  0  0  0
 16 18  1  0  0  0  0
 17 16  1  0  0  0  0
 19  1  1  0  0  0  0
 20 19  1  0  0  0  0
 21 20  1  0  0  0  0
 22 27  1  0  0  0  0
 23 26  1  0  0  0  0
 24 22  1  0  0  0  0
 25 28  1  6  0  0  0
 25 24  1  0  0  0  0
 25 23  1  0  0  0  0
 26 21  1  0  0  0  0
 26 27  1  0  0  0  0
 29 28  1  0  0  0  0
 30 31  1  1  0  0  0
 30 29  1  0  0  0  0
 30 32  1  0  0  0  0
 32 34  1  0  0  0  0
 32 33  2  0  0  0  0
M  END
>  <MODEL>
8

>  <REMARK>
 VINA RESULT:      -8.2      1.458      2.165
  Name = 
  9 active torsions:
  status: ('A' for Active; 'I' for Inactive)
    1  A    between atoms: C_1  and  O_9
    2  A    between atoms: N_3  and  C_25
    3  A    between atoms: C_7  and  C_11
    4  A    between atoms: C_7  and  C_29
    5  A    between atoms: C_8  and  O_9
    6  A    between atoms: C_8  and  C_18
    7  A    between atoms: C_18  and  N_30
    8  A    between atoms: O_26  and  C_28
    9  A    between atoms: O_26  and  C_29
                            x       y       z     vdW  Elec       q    Type
                         _______ _______ _______ _____ _____    ______ ____

>  <TORSDO>
F 9

$$$$
=
 OpenBabel10272415143D

 34 37  0  0  1  0  0  0  0  0999 V2000
  186.9500  177.9050  143.3440 C   0  0  0  0  0  0  0  0  0  0  0  0
  187.5060  177.1280  146.8640 C   0  0  0  0  0  3  0  0  0  0  0  0
  185.9890  178.7840  145.9080 C   0  0  0  0  0  3  0  0  0  0  0  0
  184.7110  178.3510  142.3950 C   0  0  0  0  0  3  0  0  0  0  0  0
  182.8600  178.6870  144.0080 C   0  0  0  0  0  2  0  0  0  0  0  0
  183.4100  178.5590  142.6130 C   0  0  0  0  0  3  0  0  0  0  0  0
  185.2020  178.8020  144.8340 C   0  0  0  0  0  0  0  0  0  0  0  0
  185.6820  178.3340  143.5100 C   0  0  0  0  0  0  0  0  0  0  0  0
  183.8370  179.4130  144.9350 C   0  0  0  0  0  2  0  0  0  0  0  0
  188.6750  176.5900  147.2090 C   0  0  0  0  0  2  0  0  0  0  0  0
  189.9990  176.9560  146.6450 C   0  0  0  0  0  0  0  0  0  0  0  0
  190.1660  177.2950  145.3520 C   0  0  0  0  0  3  0  0  0  0  0  0
  187.3900  178.2440  145.8860 C   0  0  0  0  0  0  0  0  0  0  0  0
  189.1280  177.4570  144.3140 C   0  0  0  0  0  3  0  0  0  0  0  0
  187.8570  177.8200  144.5140 C   0  0  0  0  0  0  0  0  0  0  0  0
  191.1650  176.8150  147.4830 N   0  0  0  0  0  0  0  0  0  0  0  0
  191.3820  177.6660  148.6450 C   0  0  0  0  0  1  0  0  0  0  0  0
  192.1560  175.7820  147.2230 C   0  0  0  0  0  1  0  0  0  0  0  0
  187.4570  177.5240  142.0920 O   0  0  0  0  0  0  0  0  0  0  0  0
  188.1270  178.4250  141.2200 C   0  0  0  0  0  2  0  0  0  0  0  0
  189.1230  177.6630  140.3550 C   0  0  0  0  0  2  0  0  0  0  0  0
  188.9310  178.6130  136.7460 C   0  0  0  0  0  2  0  0  0  0  0  0
  189.2880  176.4040  138.3540 C   0  0  0  0  0  2  0  0  0  0  0  0
  188.1060  177.3920  136.3340 C   0  0  0  0  0  2  0  0  0  0  0  0
  188.6140  176.1080  137.0080 C   0  0  2  0  0  3  0  0  0  0  0  0
  188.6240  177.5410  138.9910 N   0  0  0  0  0  0  0  0  0  0  0  0
  188.9940  178.7690  138.2770 C   0  0  0  0  0  2  0  0  0  0  0  0
  187.5350  175.2470  137.2130 O   0  0  0  0  0  0  0  0  0  0  0  0
  186.4040  175.9790  136.8360 C   0  0  0  0  0  2  0  0  0  0  0  0
  185.2930  175.0500  136.3440 C   0  0  2  0  0  3  0  0  0  0  0  0
  184.2410  175.8260  135.5680 C   0  0  0  0  0  1  0  0  0  0  0  0
  184.6620  174.2080  137.4260 C   0  0  0  0  0  0  0  0  0  0  0  0
  183.7280  174.6640  138.0660 O   0  0  0  0  0  0  0  0  0  0  0  0
  185.1170  172.8150  137.7220 C   0  0  0  0  0  1  0  0  0  0  0  0
  1  8  2  0  0  0  0
  1 15  1  0  0  0  0
  2 10  1  0  0  0  0
  4  6  2  0  0  0  0
  4  8  1  0  0  0  0
  5  9  1  0  0  0  0
  6  5  1  0  0  0  0
  7  9  1  0  0  0  0
  7  3  2  0  0  0  0
  8  7  1  0  0  0  0
 11 10  1  0  0  0  0
 11 16  1  0  0  0  0
 12 11  2  0  0  0  0
 13  3  1  0  0  0  0
 13  2  2  0  0  0  0
 14 15  2  0  0  0  0
 14 12  1  0  0  0  0
 15 13  1  0  0  0  0
 16 17  1  0  0  0  0
 18 16  1  0  0  0  0
 19  1  1  0  0  0  0
 20 19  1  0  0  0  0
 21 20  1  0  0  0  0
 22 27  1  0  0  0  0
 23 26  1  0  0  0  0
 24 22  1  0  0  0  0
 24 25  1  0  0  0  0
 25 28  1  1  0  0  0
 25 23  1  0  0  0  0
 26 21  1  0  0  0  0
 27 26  1  0  0  0  0
 29 28  1  0  0  0  0
 30 31  1  1  0  0  0
 30 29  1  0  0  0  0
 30 32  1  0  0  0  0
 32 34  1  0  0  0  0
 32 33  2  0  0  0  0
M  END
>  <MODEL>
9

>  <REMARK>
 VINA RESULT:      -8.1      2.316      5.262
  Name = 
  9 active torsions:
  status: ('A' for Active; 'I' for Inactive)
    1  A    between atoms: C_1  and  O_9
    2  A    between atoms: N_3  and  C_25
    3  A    between atoms: C_7  and  C_11
    4  A    between atoms: C_7  and  C_29
    5  A    between atoms: C_8  and  O_9
    6  A    between atoms: C_8  and  C_18
    7  A    between atoms: C_18  and  N_30
    8  A    between atoms: O_26  and  C_28
    9  A    between atoms: O_26  and  C_29
                            x       y       z     vdW  Elec       q    Type
                         _______ _______ _______ _____ _____    ______ ____

>  <TORSDO>
F 9

$$$$
