=
 OpenBabel10272401193D

 55 64  0  0  1  0  0  0  0  0999 V2000
  191.2020  175.9000  139.5900 C   0  0  0  0  0  2  0  0  0  0  0  0
  186.9910  174.3870  135.7200 C   0  0  0  0  0  3  0  0  0  0  0  0
  188.1950  172.4080  137.4690 C   0  0  0  0  0  2  0  0  0  0  0  0
  185.4090  176.6780  136.8030 C   0  0  0  0  0  3  0  0  0  0  0  0
  185.7350  177.8710  134.6200 C   0  0  0  0  0  2  0  0  0  0  0  0
  190.7990  171.1280  135.9330 C   0  0  0  0  0  3  0  0  0  0  0  0
  191.4960  170.1580  135.0190 C   0  0  0  0  0  2  0  0  0  0  0  0
  192.4430  172.9260  135.4040 C   0  0  1  0  0  3  0  0  0  0  0  0
  193.0210  171.9770  134.3460 C   0  0  0  0  0  2  0  0  0  0  0  0
  190.9210  174.6780  136.9680 N   0  0  0  0  0  2  0  0  0  0  0  0
  183.5470  177.5310  135.5960 O   0  0  0  0  0  0  0  0  0  0  0  0
  184.2580  177.5880  134.3590 C   0  0  0  0  0  2  0  0  0  0  0  0
  192.9550  170.5310  134.8200 C   0  0  0  0  0  2  0  0  0  0  0  0
  188.5400  178.3650  140.6930 C   0  0  0  0  0  3  0  0  0  0  0  0
  191.1590  172.4210  136.0410 C   0  0  0  0  0  0  0  0  0  0  0  0
  188.3710  178.0870  138.2890 C   0  0  0  0  0  0  0  0  0  0  0  0
  192.0380  176.0470  138.4750 O   0  0  0  0  0  0  0  0  0  0  0  0
  189.4600  177.2050  138.3270 C   0  0  0  0  0  3  0  0  0  0  0  0
  193.3750  174.6200  137.0370 C   0  0  1  0  0  3  0  0  0  0  0  0
  186.4250  175.4820  134.8660 C   0  0  0  0  0  2  0  0  0  0  0  0
  193.4810  173.1900  136.4870 C   0  0  0  0  0  2  0  0  0  0  0  0
  188.3020  174.2950  135.9160 C   0  0  0  0  0  3  0  0  0  0  0  0
  188.9280  173.2920  136.8000 C   0  0  0  0  0  0  0  0  0  0  0  0
  189.6150  177.4700  140.7260 C   0  0  0  0  0  3  0  0  0  0  0  0
  184.1040  176.9780  136.7580 C   0  0  0  0  0  0  0  0  0  0  0  0
  186.3120  176.8340  135.5950 C   0  0  2  0  0  0  0  0  0  0  0  0
  190.0880  176.8950  139.5400 C   0  0  0  0  0  0  0  0  0  0  0  0
  190.4170  173.3080  137.0180 C   0  0  2  0  0  3  0  0  0  0  0  0
  192.0750  174.7890  137.8560 C   0  0  2  0  0  3  0  0  0  0  0  0
  187.7130  177.3000  136.0080 C   0  0  0  0  0  2  0  0  0  0  0  0
  187.7300  178.4730  136.9870 C   0  0  0  0  0  2  0  0  0  0  0  0
  187.9240  178.6780  139.4770 C   0  0  0  0  0  3  0  0  0  0  0  0
  197.0960  173.2800  137.5400 C   0  0  1  0  0  3  0  0  0  0  0  0
  195.0180  173.8160  138.7970 C   0  0  0  0  0  2  0  0  0  0  0  0
  199.1670  174.4570  137.3330 O   0  0  0  0  0  0  0  0  0  0  0  0
  196.8470  174.7370  137.7110 C   0  0  2  0  0  0  0  0  0  0  0  0
  195.7320  175.2060  137.0050 O   0  0  0  0  0  0  0  0  0  0  0  0
  198.1820  175.4240  137.6110 C   0  0  0  0  0  2  0  0  0  0  0  0
  198.6020  173.1980  137.6240 C   0  0  0  0  0  2  0  0  0  0  0  0
  196.5200  173.8270  138.8460 C   0  0  2  0  0  3  0  0  0  0  0  0
  194.6340  174.9630  137.8570 C   0  0  1  0  0  3  0  0  0  0  0  0
  183.1050  180.1710  139.6240 O   0  0  0  0  0  1  0  0  0  0  0  0
  182.2550  177.8890  138.3780 C   0  0  1  0  0  3  0  0  0  0  0  0
  184.5930  178.6040  138.8280 O   0  0  0  0  0  0  0  0  0  0  0  0
  183.5540  177.7030  139.2310 C   0  0  1  0  0  0  0  0  0  0  0  0
  183.8490  179.0220  139.9180 C   0  0  2  0  0  0  0  0  0  0  0  0
  182.3180  178.9550  137.4680 O   0  0  0  0  0  1  0  0  0  0  0  0
  183.2400  176.8270  137.9960 C   0  0  2  0  0  0  0  0  0  0  0  0
  182.8220  175.4140  138.3960 C   0  0  2  0  0  3  0  0  0  0  0  0
  182.2810  174.7400  137.2980 O   0  0  0  0  0  1  0  0  0  0  0  0
  181.8040  175.4450  139.5220 C   0  0  0  0  0  1  0  0  0  0  0  0
  184.6780  179.0420  141.1680 C   0  0  0  0  0  0  0  0  0  0  0  0
  185.5550  179.8830  141.2980 O   0  0  0  0  0  0  0  0  0  0  0  0
  184.4890  178.0050  142.2290 C   0  0  0  0  0  2  0  0  0  0  0  0
  184.4780  178.6240  143.5420 N   0  0  0  0  0  1  0  0  0  0  0  0
  2 22  2  0  0  0  0
  6 15  2  0  0  0  0
  7  6  1  0  0  0  0
  8  9  1  6  0  0  0
  8 15  1  0  0  0  0
  8 21  1  0  0  0  0
  9 13  1  0  0  0  0
 10 28  1  0  0  0  0
 11 25  1  0  0  0  0
 12  5  1  0  0  0  0
 12 11  1  0  0  0  0
 13  7  1  0  0  0  0
 14 24  1  0  0  0  0
 16 18  2  0  0  0  0
 16 32  1  0  0  0  0
 17  1  1  0  0  0  0
 18 27  1  0  0  0  0
 19 21  1  1  0  0  0
 19 29  1  0  0  0  0
 19 41  1  0  0  0  0
 20 26  1  0  0  0  0
 20  2  1  0  0  0  0
 22 23  1  0  0  0  0
 23 28  1  0  0  0  0
 23  3  2  0  0  0  0
 25  4  2  0  0  0  0
 25 48  1  0  0  0  0
 26  5  1  6  0  0  0
 26 30  1  0  0  0  0
 26  4  1  0  0  0  0
 27  1  1  0  0  0  0
 27 24  2  0  0  0  0
 28 15  1  6  0  0  0
 29 10  1  6  0  0  0
 29 17  1  0  0  0  0
 30 31  1  0  0  0  0
 31 16  1  0  0  0  0
 32 14  2  0  0  0  0
 33 39  1  1  0  0  0
 33 36  1  0  0  0  0
 33 40  1  0  0  0  0
 35 38  1  0  0  0  0
 35 39  1  0  0  0  0
 36 38  1  1  0  0  0
 36 40  1  0  0  0  0
 37 36  1  0  0  0  0
 37 41  1  0  0  0  0
 40 34  1  6  0  0  0
 41 34  1  1  0  0  0
 43 47  1  6  0  0  0
 43 45  1  0  0  0  0
 44 46  1  0  0  0  0
 45 44  1  6  0  0  0
 45 46  1  0  0  0  0
 46 42  1  6  0  0  0
 46 52  1  0  0  0  0
 48 43  1  0  0  0  0
 48 49  1  1  0  0  0
 48 45  1  0  0  0  0
 49 51  1  1  0  0  0
 50 49  1  0  0  0  0
 52 53  2  0  0  0  0
 52 54  1  0  0  0  0
 54 55  1  0  0  0  0
M  END
>  <MODEL>
1

>  <REMARK>
 VINA RESULT:      -5.2      0.000      0.000
  Name = 
  5 active torsions:
  status: ('A' for Active; 'I' for Inactive)
    1  A    between atoms: C_1  and  C_53
    2  A    between atoms: C_11  and  C_29
    3  A    between atoms: C_29  and  C_38
    4  A    between atoms: C_33  and  C_52
    5  A    between atoms: C_42  and  C_53
                            x       y       z     vdW  Elec       q    Type
                         _______ _______ _______ _____ _____    ______ ____

>  <TORSDO>
F 5

$$$$
=
 OpenBabel10272401193D

 55 64  0  0  1  0  0  0  0  0999 V2000
  190.0570  171.8030  136.0870 C   0  0  0  0  0  2  0  0  0  0  0  0
  193.1440  176.6950  137.3260 C   0  0  0  0  0  3  0  0  0  0  0  0
  191.1390  175.6850  139.1670 C   0  0  0  0  0  2  0  0  0  0  0  0
  195.5900  175.1170  136.6560 C   0  0  0  0  0  3  0  0  0  0  0  0
  195.8810  176.5310  134.6050 C   0  0  0  0  0  2  0  0  0  0  0  0
  188.2590  177.0640  138.4060 C   0  0  0  0  0  3  0  0  0  0  0  0
  187.2050  178.1350  138.4760 C   0  0  0  0  0  2  0  0  0  0  0  0
  187.6380  176.4990  136.0590 C   0  0  1  0  0  3  0  0  0  0  0  0
  186.7010  177.7120  136.0970 C   0  0  0  0  0  2  0  0  0  0  0  0
  189.7760  174.6940  136.0050 N   0  0  0  0  0  2  0  0  0  0  0  0
  197.6520  176.2200  136.2240 O   0  0  0  0  0  0  0  0  0  0  0  0
  197.0630  177.1660  135.3300 C   0  0  0  0  0  2  0  0  0  0  0  0
  186.0850  177.8790  137.4810 C   0  0  0  0  0  2  0  0  0  0  0  0
  193.5420  170.3480  135.7410 C   0  0  0  0  0  3  0  0  0  0  0  0
  188.5350  176.3810  137.2800 C   0  0  0  0  0  0  0  0  0  0  0  0
  193.5950  172.6450  134.9620 C   0  0  0  0  0  0  0  0  0  0  0  0
  189.3980  172.5790  135.1240 O   0  0  0  0  0  0  0  0  0  0  0  0
  192.2210  172.7510  135.2210 C   0  0  0  0  0  3  0  0  0  0  0  0
  187.5720  174.1760  135.0540 C   0  0  1  0  0  3  0  0  0  0  0  0
  194.1630  177.1320  136.3160 C   0  0  0  0  0  2  0  0  0  0  0  0
  186.8250  175.2200  135.8970 C   0  0  0  0  0  2  0  0  0  0  0  0
  191.9360  176.3000  136.9370 C   0  0  0  0  0  3  0  0  0  0  0  0
  190.9060  175.7870  137.8630 C   0  0  0  0  0  0  0  0  0  0  0  0
  192.1750  170.4670  136.0140 C   0  0  0  0  0  3  0  0  0  0  0  0
  196.8870  175.2920  136.9450 C   0  0  0  0  0  0  0  0  0  0  0  0
  194.8780  175.9600  135.6180 C   0  0  2  0  0  0  0  0  0  0  0  0
  191.5060  171.6660  135.7430 C   0  0  0  0  0  0  0  0  0  0  0  0
  189.5900  175.2950  137.3230 C   0  0  2  0  0  3  0  0  0  0  0  0
  188.7930  173.6290  135.8290 C   0  0  2  0  0  3  0  0  0  0  0  0
  193.8440  175.1300  134.8460 C   0  0  0  0  0  2  0  0  0  0  0  0
  194.3580  173.7810  134.3460 C   0  0  0  0  0  2  0  0  0  0  0  0
  194.2490  171.4310  135.2100 C   0  0  0  0  0  3  0  0  0  0  0  0
  184.4030  172.2210  136.4780 C   0  0  1  0  0  3  0  0  0  0  0  0
  186.6850  171.8530  135.5610 C   0  0  0  0  0  2  0  0  0  0  0  0
  182.2390  171.9340  135.5000 O   0  0  0  0  0  0  0  0  0  0  0  0
  184.5050  172.4120  135.0060 C   0  0  2  0  0  0  0  0  0  0  0  0
  185.2710  173.5230  134.6330 O   0  0  0  0  0  0  0  0  0  0  0  0
  183.1300  172.1830  134.4390 C   0  0  0  0  0  2  0  0  0  0  0  0
  183.0230  171.6250  136.6310 C   0  0  0  0  0  2  0  0  0  0  0  0
  185.2860  171.3060  135.6300 C   0  0  2  0  0  3  0  0  0  0  0  0
  186.6030  173.0590  134.6210 C   0  0  1  0  0  3  0  0  0  0  0  0
  200.0390  172.3210  136.1420 O   0  0  0  0  0  1  0  0  0  0  0  0
  199.0420  174.1530  137.9120 C   0  0  1  0  0  3  0  0  0  0  0  0
  197.8140  172.9120  136.1420 O   0  0  0  0  0  0  0  0  0  0  0  0
  198.0420  173.0030  137.5540 C   0  0  1  0  0  0  0  0  0  0  0  0
  198.7620  172.0330  136.6380 C   0  0  2  0  0  0  0  0  0  0  0  0
  199.5950  174.7960  136.7940 O   0  0  0  0  0  1  0  0  0  0  0  0
  197.5670  174.4130  137.9780 C   0  0  2  0  0  0  0  0  0  0  0  0
  196.9960  174.4160  139.3940 C   0  0  2  0  0  3  0  0  0  0  0  0
  195.7590  175.0640  139.4150 O   0  0  0  0  0  1  0  0  0  0  0  0
  197.9440  175.1000  140.3630 C   0  0  0  0  0  1  0  0  0  0  0  0
  198.2910  170.6120  136.5390 C   0  0  0  0  0  0  0  0  0  0  0  0
  197.7070  170.2380  135.5340 O   0  0  0  0  0  0  0  0  0  0  0  0
  198.4710  169.6650  137.6830 C   0  0  0  0  0  2  0  0  0  0  0  0
  199.8500  169.6760  138.1340 N   0  0  0  0  0  1  0  0  0  0  0  0
  4 25  2  0  0  0  0
  5 12  1  0  0  0  0
  6  7  1  0  0  0  0
  8 21  1  1  0  0  0
  8  9  1  0  0  0  0
  8 15  1  0  0  0  0
  9 13  1  0  0  0  0
 11 25  1  0  0  0  0
 12 11  1  0  0  0  0
 13  7  1  0  0  0  0
 14 24  1  0  0  0  0
 15 28  1  0  0  0  0
 15  6  2  0  0  0  0
 16 32  1  0  0  0  0
 16 18  2  0  0  0  0
 17  1  1  0  0  0  0
 18 27  1  0  0  0  0
 19 29  1  0  0  0  0
 19 21  1  1  0  0  0
 20  2  1  0  0  0  0
 22  2  2  0  0  0  0
 22 23  1  0  0  0  0
 23  3  2  0  0  0  0
 25 48  1  0  0  0  0
 26  5  1  6  0  0  0
 26 20  1  0  0  0  0
 26  4  1  0  0  0  0
 27 24  2  0  0  0  0
 27  1  1  0  0  0  0
 28 10  1  6  0  0  0
 28 23  1  0  0  0  0
 29 17  1  6  0  0  0
 29 10  1  0  0  0  0
 30 26  1  0  0  0  0
 31 30  1  0  0  0  0
 31 16  1  0  0  0  0
 32 14  2  0  0  0  0
 33 39  1  6  0  0  0
 35 39  1  0  0  0  0
 36 38  1  6  0  0  0
 36 40  1  0  0  0  0
 36 33  1  0  0  0  0
 37 36  1  0  0  0  0
 38 35  1  0  0  0  0
 40 34  1  1  0  0  0
 40 33  1  0  0  0  0
 41 37  1  0  0  0  0
 41 19  1  0  0  0  0
 41 34  1  1  0  0  0
 43 47  1  6  0  0  0
 43 48  1  0  0  0  0
 44 46  1  0  0  0  0
 45 44  1  6  0  0  0
 45 43  1  0  0  0  0
 45 48  1  0  0  0  0
 46 42  1  6  0  0  0
 46 45  1  0  0  0  0
 48 49  1  1  0  0  0
 49 50  1  0  0  0  0
 49 51  1  1  0  0  0
 52 46  1  0  0  0  0
 52 54  1  0  0  0  0
 53 52  2  0  0  0  0
 54 55  1  0  0  0  0
M  END
>  <MODEL>
2

>  <REMARK>
 VINA RESULT:      -3.6      3.333     11.595
  Name = 
  5 active torsions:
  status: ('A' for Active; 'I' for Inactive)
    1  A    between atoms: C_1  and  C_53
    2  A    between atoms: C_11  and  C_29
    3  A    between atoms: C_29  and  C_38
    4  A    between atoms: C_33  and  C_52
    5  A    between atoms: C_42  and  C_53
                            x       y       z     vdW  Elec       q    Type
                         _______ _______ _______ _____ _____    ______ ____

>  <TORSDO>
F 5

$$$$
