=
 OpenBabel10272413473D

 30 33  0  0  1  0  0  0  0  0999 V2000
  187.2170  178.0730  138.6390 C   0  0  0  0  0  2  0  0  0  0  0  0
  186.2510  178.6860  141.5510 C   0  0  0  0  0  0  0  0  0  0  0  0
  181.5570  178.9740  136.9730 C   0  0  0  0  0  3  0  0  0  0  0  0
  187.3680  178.3130  137.1470 C   0  0  0  0  0  2  0  0  0  0  0  0
  185.9510  178.6440  139.0630 N   0  0  0  0  0  2  0  0  0  0  0  0
  188.3310  176.3940  134.5160 O   0  0  0  0  0  0  0  0  0  0  0  0
  183.0030  174.9950  135.5230 O   0  0  0  0  0  0  0  0  0  0  0  0
  188.3400  177.3420  136.4770 C   0  0  1  0  0  0  0  0  0  0  0  0
  187.7420  175.5160  135.4270 C   0  0  2  0  0  0  0  0  0  0  0  0
  182.2550  177.8450  136.7510 C   0  0  0  0  0  3  0  0  0  0  0  0
  180.9680  179.3460  138.3060 C   0  0  0  0  0  2  0  0  0  0  0  0
  187.9190  176.0320  136.7080 O   0  0  0  0  0  0  0  0  0  0  0  0
  188.3130  177.5810  135.0970 O   0  0  0  0  0  0  0  0  0  0  0  0
  185.6740  178.7200  142.7810 N   0  0  0  0  0  0  0  0  0  0  0  0
  183.9330  175.1590  136.3560 C   0  0  0  0  0  0  0  0  0  0  0  0
  183.7900  176.0770  137.4410 N   0  0  0  0  0  2  0  0  0  0  0  0
  188.4440  174.1720  135.3190 C   0  0  0  0  0  1  0  0  0  0  0  0
  187.7380  178.7190  141.4700 C   0  0  0  0  0  1  0  0  0  0  0  0
  184.0430  178.6930  140.5830 C   0  0  0  0  0  0  0  0  0  0  0  0
  184.3240  178.7300  142.9290 C   0  0  0  0  0  3  0  0  0  0  0  0
  186.2490  175.3740  135.1160 C   0  0  0  0  0  2  0  0  0  0  0  0
  185.4330  178.6650  140.4020 C   0  0  0  0  0  0  0  0  0  0  0  0
  182.5800  177.1830  139.2360 C   0  0  0  0  0  2  0  0  0  0  0  0
  182.0480  179.6530  139.3540 C   0  0  0  0  0  2  0  0  0  0  0  0
  182.5390  176.7490  137.7650 C   0  0  1  0  0  3  0  0  0  0  0  0
  185.4260  174.1850  136.2280 S   0  0  0  0  0  0  0  0  0  0  0  0
  183.5190  178.7110  141.8380 N   0  0  0  0  0  0  0  0  0  0  0  0
  183.1450  178.5870  139.3920 C   0  0  1  0  0  3  0  0  0  0  0  0
  189.7650  177.5170  137.0140 C   0  0  0  0  0  2  0  0  0  0  0  0
  190.2270  176.3190  137.8290 C   0  0  0  0  0  1  0  0  0  0  0  0
  1  5  1  0  0  0  0
  2 14  1  0  0  0  0
  3 11  1  0  0  0  0
  4  1  1  0  0  0  0
  5 22  1  0  0  0  0
  6 13  1  0  0  0  0
  6  9  1  0  0  0  0
  7 15  2  0  0  0  0
  8 12  1  0  0  0  0
  8 29  1  1  0  0  0
  8  4  1  0  0  0  0
  9 17  1  6  0  0  0
  9 12  1  0  0  0  0
 10  3  2  0  0  0  0
 11 24  1  0  0  0  0
 13  8  1  0  0  0  0
 14 20  2  0  0  0  0
 15 16  1  0  0  0  0
 16 25  1  0  0  0  0
 18  2  1  0  0  0  0
 19 27  2  0  0  0  0
 21  9  1  0  0  0  0
 21 26  1  0  0  0  0
 22 19  1  0  0  0  0
 22  2  2  0  0  0  0
 24 28  1  0  0  0  0
 25 10  1  6  0  0  0
 25 23  1  0  0  0  0
 26 15  1  0  0  0  0
 27 20  1  0  0  0  0
 28 23  1  1  0  0  0
 28 19  1  0  0  0  0
 29 30  1  0  0  0  0
M  END
>  <MODEL>
1

>  <REMARK>
 VINA RESULT:      -6.5      0.000      0.000
  Name = 
  1 active torsions:
  status: ('A' for Active; 'I' for Inactive)
    1  A    between atoms: C_8  and  C_27
                            x       y       z     vdW  Elec       q    Type
                         _______ _______ _______ _____ _____    ______ ____

>  <TORSDO>
F 1

$$$$
=
 OpenBabel10272413473D

 30 33  0  0  1  0  0  0  0  0999 V2000
  187.1600  178.0370  139.0190 C   0  0  0  0  0  2  0  0  0  0  0  0
  185.1500  178.8460  141.2760 C   0  0  0  0  0  0  0  0  0  0  0  0
  182.4370  177.9170  135.3720 C   0  0  0  0  0  3  0  0  0  0  0  0
  187.8220  178.1180  137.6540 C   0  0  0  0  0  2  0  0  0  0  0  0
  185.7810  178.4670  138.8790 N   0  0  0  0  0  2  0  0  0  0  0  0
  189.8450  176.0580  135.8670 O   0  0  0  0  0  0  0  0  0  0  0  0
  184.6660  174.0420  135.1770 O   0  0  0  0  0  0  0  0  0  0  0  0
  189.0550  177.2220  137.5290 C   0  0  1  0  0  0  0  0  0  0  0  0
  189.0480  175.2190  136.6460 C   0  0  2  0  0  0  0  0  0  0  0  0
  183.2680  176.8810  135.5920 C   0  0  0  0  0  3  0  0  0  0  0  0
  181.3730  178.3570  136.3390 C   0  0  0  0  0  2  0  0  0  0  0  0
  188.6980  175.9020  137.8080 O   0  0  0  0  0  0  0  0  0  0  0  0
  189.5100  177.2910  136.2060 O   0  0  0  0  0  0  0  0  0  0  0  0
  184.1650  178.9430  142.2070 N   0  0  0  0  0  0  0  0  0  0  0  0
  185.2110  174.4350  136.2430 C   0  0  0  0  0  0  0  0  0  0  0  0
  184.6000  175.4440  137.0470 N   0  0  0  0  0  2  0  0  0  0  0  0
  189.8590  173.9850  137.0070 C   0  0  0  0  0  1  0  0  0  0  0  0
  186.5550  179.0810  141.7110 C   0  0  0  0  0  1  0  0  0  0  0  0
  183.4550  178.4240  139.6150 C   0  0  0  0  0  0  0  0  0  0  0  0
  182.8590  178.7780  141.8740 C   0  0  0  0  0  3  0  0  0  0  0  0
  187.7890  174.8290  135.8640 C   0  0  0  0  0  2  0  0  0  0  0  0
  184.8120  178.5730  139.9340 C   0  0  0  0  0  0  0  0  0  0  0  0
  182.7260  176.5710  138.1070 C   0  0  0  0  0  2  0  0  0  0  0  0
  181.9650  178.9360  137.6330 C   0  0  0  0  0  2  0  0  0  0  0  0
  183.2610  175.9640  136.8040 C   0  0  1  0  0  3  0  0  0  0  0  0
  186.7310  173.6750  136.7990 S   0  0  0  0  0  0  0  0  0  0  0  0
  182.5110  178.5150  140.5900 N   0  0  0  0  0  0  0  0  0  0  0  0
  183.0650  178.0500  138.2200 C   0  0  1  0  0  3  0  0  0  0  0  0
  190.1640  177.6620  138.4900 C   0  0  0  0  0  2  0  0  0  0  0  0
  190.4310  176.6300  139.5750 C   0  0  0  0  0  1  0  0  0  0  0  0
  2 18  1  0  0  0  0
  2 14  1  0  0  0  0
  3 10  2  0  0  0  0
  3 11  1  0  0  0  0
  4  1  1  0  0  0  0
  5  1  1  0  0  0  0
  5 22  1  0  0  0  0
  6 13  1  0  0  0  0
  6  9  1  0  0  0  0
  7 15  2  0  0  0  0
  8  4  1  0  0  0  0
  8 12  1  0  0  0  0
  8 29  1  1  0  0  0
  9 17  1  1  0  0  0
  9 12  1  0  0  0  0
 11 24  1  0  0  0  0
 13  8  1  0  0  0  0
 15 26  1  0  0  0  0
 15 16  1  0  0  0  0
 19 22  1  0  0  0  0
 19 27  2  0  0  0  0
 20 14  2  0  0  0  0
 21  9  1  0  0  0  0
 21 26  1  0  0  0  0
 22  2  2  0  0  0  0
 23 28  1  0  0  0  0
 25 10  1  6  0  0  0
 25 16  1  0  0  0  0
 25 23  1  0  0  0  0
 27 20  1  0  0  0  0
 28 24  1  1  0  0  0
 28 19  1  0  0  0  0
 29 30  1  0  0  0  0
M  END
>  <MODEL>
2

>  <REMARK>
 VINA RESULT:      -6.2      1.318      1.556
  Name = 
  1 active torsions:
  status: ('A' for Active; 'I' for Inactive)
    1  A    between atoms: C_8  and  C_27
                            x       y       z     vdW  Elec       q    Type
                         _______ _______ _______ _____ _____    ______ ____

>  <TORSDO>
F 1

$$$$
=
 OpenBabel10272413473D

 30 33  0  0  1  0  0  0  0  0999 V2000
  184.1390  177.8560  140.6260 C   0  0  0  0  0  2  0  0  0  0  0  0
  183.2480  176.2950  138.0660 C   0  0  0  0  0  0  0  0  0  0  0  0
  188.9820  179.4410  137.5190 C   0  0  0  0  0  3  0  0  0  0  0  0
  184.6390  179.0490  141.4210 C   0  0  0  0  0  2  0  0  0  0  0  0
  184.6910  177.9410  139.2860 N   0  0  0  0  0  2  0  0  0  0  0  0
  185.9260  179.4600  144.5370 O   0  0  0  0  0  0  0  0  0  0  0  0
  190.1590  177.5570  141.4040 O   0  0  0  0  0  0  0  0  0  0  0  0
  184.5960  178.8260  142.9330 C   0  0  1  0  0  0  0  0  0  0  0  0
  186.3030  178.1770  144.1400 C   0  0  2  0  0  0  0  0  0  0  0  0
  189.0010  178.7880  138.6960 C   0  0  0  0  0  3  0  0  0  0  0  0
  188.6510  178.7880  136.2050 C   0  0  0  0  0  2  0  0  0  0  0  0
  185.3430  177.6930  143.2550 O   0  0  0  0  0  0  0  0  0  0  0  0
  185.1810  179.9370  143.5540 O   0  0  0  0  0  0  0  0  0  0  0  0
  183.0940  175.4650  137.0000 N   0  0  0  0  0  0  0  0  0  0  0  0
  188.9690  177.1460  141.4330 C   0  0  0  0  0  0  0  0  0  0  0  0
  188.1900  177.0780  140.2380 N   0  0  0  0  0  2  0  0  0  0  0  0
  186.3520  177.2880  145.3730 C   0  0  0  0  0  1  0  0  0  0  0  0
  182.1150  176.4280  139.0230 C   0  0  0  0  0  1  0  0  0  0  0  0
  185.4280  176.8770  137.2180 C   0  0  0  0  0  0  0  0  0  0  0  0
  184.0700  175.3230  136.0670 C   0  0  0  0  0  3  0  0  0  0  0  0
  187.6730  178.2290  143.4560 C   0  0  0  0  0  2  0  0  0  0  0  0
  184.4440  177.0290  138.2050 C   0  0  0  0  0  0  0  0  0  0  0  0
  187.8250  176.6290  137.8770 C   0  0  0  0  0  2  0  0  0  0  0  0
  187.1840  178.3410  136.1300 C   0  0  0  0  0  2  0  0  0  0  0  0
  188.7380  177.3060  138.9070 C   0  0  1  0  0  3  0  0  0  0  0  0
  188.2620  176.5720  142.9710 S   0  0  0  0  0  0  0  0  0  0  0  0
  185.2280  176.0200  136.1810 N   0  0  0  0  0  0  0  0  0  0  0  0
  186.7420  177.5740  137.3780 C   0  0  1  0  0  3  0  0  0  0  0  0
  183.1570  178.6430  143.4300 C   0  0  0  0  0  2  0  0  0  0  0  0
  182.9650  179.1630  144.8460 C   0  0  0  0  0  1  0  0  0  0  0  0
  1  4  1  0  0  0  0
  2 22  1  0  0  0  0
  2 18  1  0  0  0  0
  3 10  2  0  0  0  0
  4  8  1  0  0  0  0
  5  1  1  0  0  0  0
  7 15  2  0  0  0  0
  8 12  1  0  0  0  0
  8 29  1  1  0  0  0
  8 13  1  0  0  0  0
  9  6  1  0  0  0  0
  9 17  1  1  0  0  0
 10 25  1  0  0  0  0
 11  3  1  0  0  0  0
 12  9  1  0  0  0  0
 13  6  1  0  0  0  0
 14  2  2  0  0  0  0
 15 26  1  0  0  0  0
 16 15  1  0  0  0  0
 19 28  1  0  0  0  0
 19 22  2  0  0  0  0
 20 27  2  0  0  0  0
 20 14  1  0  0  0  0
 21  9  1  0  0  0  0
 22  5  1  0  0  0  0
 24 11  1  0  0  0  0
 25 23  1  6  0  0  0
 25 16  1  0  0  0  0
 26 21  1  0  0  0  0
 27 19  1  0  0  0  0
 28 24  1  6  0  0  0
 28 23  1  0  0  0  0
 29 30  1  0  0  0  0
M  END
>  <MODEL>
3

>  <REMARK>
 VINA RESULT:      -6.1      3.516      7.320
  Name = 
  1 active torsions:
  status: ('A' for Active; 'I' for Inactive)
    1  A    between atoms: C_8  and  C_27
                            x       y       z     vdW  Elec       q    Type
                         _______ _______ _______ _____ _____    ______ ____

>  <TORSDO>
F 1

$$$$
=
 OpenBabel10272413473D

 30 33  0  0  1  0  0  0  0  0999 V2000
  187.5110  176.7070  137.7220 C   0  0  0  0  0  2  0  0  0  0  0  0
  187.4730  178.4130  140.3440 C   0  0  0  0  0  0  0  0  0  0  0  0
  181.8410  178.4130  136.9750 C   0  0  0  0  0  3  0  0  0  0  0  0
  187.2960  176.4270  136.2450 C   0  0  0  0  0  2  0  0  0  0  0  0
  186.5160  177.6750  138.1480 N   0  0  0  0  0  2  0  0  0  0  0  0
  187.1900  173.6090  134.3510 O   0  0  0  0  0  0  0  0  0  0  0  0
  182.1700  173.9540  136.8090 O   0  0  0  0  0  0  0  0  0  0  0  0
  187.8790  175.0860  135.7960 C   0  0  1  0  0  0  0  0  0  0  0  0
  186.7300  173.2320  135.6130 C   0  0  2  0  0  0  0  0  0  0  0  0
  182.2580  177.1360  137.0450 C   0  0  0  0  0  3  0  0  0  0  0  0
  181.6990  179.3140  138.1710 C   0  0  0  0  0  2  0  0  0  0  0  0
  187.3250  174.0600  136.5620 O   0  0  0  0  0  0  0  0  0  0  0  0
  187.5240  174.8840  134.4560 O   0  0  0  0  0  0  0  0  0  0  0  0
  187.2600  178.9700  141.5660 N   0  0  0  0  0  0  0  0  0  0  0  0
  183.3030  174.1330  137.3290 C   0  0  0  0  0  0  0  0  0  0  0  0
  183.6080  175.3480  138.0150 N   0  0  0  0  0  2  0  0  0  0  0  0
  187.1460  171.7910  135.8650 C   0  0  0  0  0  1  0  0  0  0  0  0
  188.8690  178.0510  139.9690 C   0  0  0  0  0  1  0  0  0  0  0  0
  185.1200  178.6640  139.8870 C   0  0  0  0  0  0  0  0  0  0  0  0
  186.0190  179.3580  141.9590 C   0  0  0  0  0  3  0  0  0  0  0  0
  185.2060  173.3740  135.6710 C   0  0  0  0  0  2  0  0  0  0  0  0
  186.3860  178.2390  139.4620 C   0  0  0  0  0  0  0  0  0  0  0  0
  183.1210  177.2200  139.4870 C   0  0  0  0  0  2  0  0  0  0  0  0
  183.0550  179.6550  138.8070 C   0  0  0  0  0  2  0  0  0  0  0  0
  182.6170  176.3740  138.3110 C   0  0  1  0  0  3  0  0  0  0  0  0
  184.5260  172.8300  137.2740 S   0  0  0  0  0  0  0  0  0  0  0  0
  184.9600  179.2000  141.1270 N   0  0  0  0  0  0  0  0  0  0  0  0
  183.9310  178.4180  139.0130 C   0  0  1  0  0  3  0  0  0  0  0  0
  189.4050  175.0630  135.9450 C   0  0  0  0  0  2  0  0  0  0  0  0
  189.8680  174.0400  136.9710 C   0  0  0  0  0  1  0  0  0  0  0  0
  1  5  1  0  0  0  0
  2 14  1  0  0  0  0
  3 10  2  0  0  0  0
  3 11  1  0  0  0  0
  4  1  1  0  0  0  0
  5 22  1  0  0  0  0
  6 13  1  0  0  0  0
  6  9  1  0  0  0  0
  7 15  2  0  0  0  0
  8 29  1  1  0  0  0
  8  4  1  0  0  0  0
  8 12  1  0  0  0  0
  9 21  1  0  0  0  0
  9 17  1  1  0  0  0
  9 12  1  0  0  0  0
 11 24  1  0  0  0  0
 13  8  1  0  0  0  0
 14 20  2  0  0  0  0
 15 16  1  0  0  0  0
 16 25  1  0  0  0  0
 18  2  1  0  0  0  0
 19 27  2  0  0  0  0
 21 26  1  0  0  0  0
 22 19  1  0  0  0  0
 22  2  2  0  0  0  0
 25 10  1  6  0  0  0
 25 23  1  0  0  0  0
 26 15  1  0  0  0  0
 27 20  1  0  0  0  0
 28 24  1  1  0  0  0
 28 23  1  0  0  0  0
 28 19  1  0  0  0  0
 29 30  1  0  0  0  0
M  END
>  <MODEL>
4

>  <REMARK>
 VINA RESULT:      -6.0      1.596      1.879
  Name = 
  1 active torsions:
  status: ('A' for Active; 'I' for Inactive)
    1  A    between atoms: C_8  and  C_27
                            x       y       z     vdW  Elec       q    Type
                         _______ _______ _______ _____ _____    ______ ____

>  <TORSDO>
F 1

$$$$
=
 OpenBabel10272413473D

 30 33  0  0  1  0  0  0  0  0999 V2000
  188.0490  177.9590  139.3670 C   0  0  0  0  0  2  0  0  0  0  0  0
  186.9850  178.3900  142.2770 C   0  0  0  0  0  0  0  0  0  0  0  0
  182.4860  179.1450  137.5600 C   0  0  0  0  0  3  0  0  0  0  0  0
  188.2650  178.3000  137.9030 C   0  0  0  0  0  2  0  0  0  0  0  0
  186.7830  178.5350  139.7830 N   0  0  0  0  0  2  0  0  0  0  0  0
  189.2790  176.5470  135.1770 O   0  0  0  0  0  0  0  0  0  0  0  0
  183.8800  175.2390  135.8800 O   0  0  0  0  0  0  0  0  0  0  0  0
  189.2370  177.3510  137.2010 C   0  0  1  0  0  0  0  0  0  0  0  0
  188.6310  175.6240  135.9990 C   0  0  2  0  0  0  0  0  0  0  0  0
  183.1610  178.0150  137.2830 C   0  0  0  0  0  3  0  0  0  0  0  0
  181.8550  179.4380  138.8930 C   0  0  0  0  0  2  0  0  0  0  0  0
  188.7710  176.0410  137.3210 O   0  0  0  0  0  0  0  0  0  0  0  0
  189.2710  177.6890  135.8420 O   0  0  0  0  0  0  0  0  0  0  0  0
  186.3610  178.3530  143.4840 N   0  0  0  0  0  0  0  0  0  0  0  0
  184.7800  175.3150  136.7570 C   0  0  0  0  0  0  0  0  0  0  0  0
  184.6190  176.1560  137.8990 N   0  0  0  0  0  2  0  0  0  0  0  0
  189.3000  174.2700  135.8210 C   0  0  0  0  0  1  0  0  0  0  0  0
  188.4740  178.3840  142.2550 C   0  0  0  0  0  1  0  0  0  0  0  0
  184.8180  178.5330  141.2300 C   0  0  0  0  0  0  0  0  0  0  0  0
  185.0070  178.3930  143.5820 C   0  0  0  0  0  3  0  0  0  0  0  0
  187.1480  175.5490  135.6230 C   0  0  0  0  0  2  0  0  0  0  0  0
  186.2130  178.4760  141.1000 C   0  0  0  0  0  0  0  0  0  0  0  0
  183.3690  177.1660  139.7230 C   0  0  0  0  0  2  0  0  0  0  0  0
  182.9000  179.6360  140.0010 C   0  0  0  0  0  2  0  0  0  0  0  0
  183.3740  176.8400  138.2240 C   0  0  1  0  0  3  0  0  0  0  0  0
  186.2510  174.3080  136.6140 S   0  0  0  0  0  0  0  0  0  0  0  0
  184.2460  178.4760  142.4630 N   0  0  0  0  0  0  0  0  0  0  0  0
  183.9660  178.5390  140.0020 C   0  0  1  0  0  3  0  0  0  0  0  0
  190.6430  177.4450  137.8030 C   0  0  0  0  0  2  0  0  0  0  0  0
  191.0340  176.1840  138.5570 C   0  0  0  0  0  1  0  0  0  0  0  0
  1  5  1  0  0  0  0
  2 14  1  0  0  0  0
  3 11  1  0  0  0  0
  4  1  1  0  0  0  0
  5 22  1  0  0  0  0
  6 13  1  0  0  0  0
  6  9  1  0  0  0  0
  7 15  2  0  0  0  0
  8 12  1  0  0  0  0
  8 29  1  1  0  0  0
  8  4  1  0  0  0  0
  9 17  1  6  0  0  0
  9 12  1  0  0  0  0
 10  3  2  0  0  0  0
 11 24  1  0  0  0  0
 13  8  1  0  0  0  0
 14 20  2  0  0  0  0
 15 16  1  0  0  0  0
 16 25  1  0  0  0  0
 18  2  1  0  0  0  0
 19 27  2  0  0  0  0
 21  9  1  0  0  0  0
 21 26  1  0  0  0  0
 22 19  1  0  0  0  0
 22  2  2  0  0  0  0
 24 28  1  0  0  0  0
 25 10  1  6  0  0  0
 25 23  1  0  0  0  0
 26 15  1  0  0  0  0
 27 20  1  0  0  0  0
 28 23  1  1  0  0  0
 28 19  1  0  0  0  0
 29 30  1  0  0  0  0
M  END
>  <MODEL>
5

>  <REMARK>
 VINA RESULT:      -5.9      0.993      1.060
  Name = 
  1 active torsions:
  status: ('A' for Active; 'I' for Inactive)
    1  A    between atoms: C_8  and  C_27
                            x       y       z     vdW  Elec       q    Type
                         _______ _______ _______ _____ _____    ______ ____

>  <TORSDO>
F 1

$$$$
=
 OpenBabel10272413473D

 30 33  0  0  1  0  0  0  0  0999 V2000
  186.1710  178.3800  138.7140 C   0  0  0  0  0  2  0  0  0  0  0  0
  184.5590  178.9140  141.3420 C   0  0  0  0  0  0  0  0  0  0  0  0
  180.9390  178.7810  135.8690 C   0  0  0  0  0  3  0  0  0  0  0  0
  186.6150  178.6280  137.2830 C   0  0  0  0  0  2  0  0  0  0  0  0
  184.8000  178.8400  138.8480 N   0  0  0  0  0  2  0  0  0  0  0  0
  188.2740  176.7930  134.9560 O   0  0  0  0  0  0  0  0  0  0  0  0
  182.9910  174.9390  134.8420 O   0  0  0  0  0  0  0  0  0  0  0  0
  187.7860  177.7430  136.8550 C   0  0  1  0  0  0  0  0  0  0  0  0
  187.5810  175.8690  135.7410 C   0  0  2  0  0  0  0  0  0  0  0  0
  181.7620  177.7170  135.8240 C   0  0  0  0  0  3  0  0  0  0  0  0
  180.0510  179.1040  137.0390 C   0  0  0  0  0  2  0  0  0  0  0  0
  187.4370  176.4020  137.0190 O   0  0  0  0  0  0  0  0  0  0  0  0
  188.0330  177.9760  135.4960 O   0  0  0  0  0  0  0  0  0  0  0  0
  183.7330  178.9020  142.4210 N   0  0  0  0  0  0  0  0  0  0  0  0
  183.7060  175.1860  135.8500 C   0  0  0  0  0  0  0  0  0  0  0  0
  183.2580  176.0900  136.8600 N   0  0  0  0  0  2  0  0  0  0  0  0
  188.4000  174.5910  135.8120 C   0  0  0  0  0  1  0  0  0  0  0  0
  186.0210  179.0760  141.5770 C   0  0  0  0  0  1  0  0  0  0  0  0
  182.6160  178.7270  139.9280 C   0  0  0  0  0  0  0  0  0  0  0  0
  182.3870  178.7950  142.2800 C   0  0  0  0  0  3  0  0  0  0  0  0
  186.2050  175.5980  135.1230 C   0  0  0  0  0  2  0  0  0  0  0  0
  184.0090  178.8200  140.0470 C   0  0  0  0  0  0  0  0  0  0  0  0
  181.6050  177.0910  138.3340 C   0  0  0  0  0  2  0  0  0  0  0  0
  180.8540  179.5060  138.2850 C   0  0  0  0  0  2  0  0  0  0  0  0
  181.9140  176.6510  136.8980 C   0  0  1  0  0  3  0  0  0  0  0  0
  185.2690  174.3440  136.0610 S   0  0  0  0  0  0  0  0  0  0  0  0
  181.8370  178.7030  141.0430 N   0  0  0  0  0  0  0  0  0  0  0  0
  182.0040  178.5400  138.5770 C   0  0  1  0  0  3  0  0  0  0  0  0
  189.0440  178.0430  137.6770 C   0  0  0  0  0  2  0  0  0  0  0  0
  189.3590  176.9390  138.6740 C   0  0  0  0  0  1  0  0  0  0  0  0
  1  5  1  0  0  0  0
  2 18  1  0  0  0  0
  2 14  1  0  0  0  0
  3 11  1  0  0  0  0
  4  1  1  0  0  0  0
  5 22  1  0  0  0  0
  6 13  1  0  0  0  0
  6  9  1  0  0  0  0
  7 15  2  0  0  0  0
  8 12  1  0  0  0  0
  8  4  1  0  0  0  0
  8 29  1  1  0  0  0
  9 17  1  1  0  0  0
  9 12  1  0  0  0  0
 10  3  2  0  0  0  0
 11 24  1  0  0  0  0
 13  8  1  0  0  0  0
 15 26  1  0  0  0  0
 15 16  1  0  0  0  0
 16 25  1  0  0  0  0
 19 22  1  0  0  0  0
 19 27  2  0  0  0  0
 20 14  2  0  0  0  0
 21  9  1  0  0  0  0
 21 26  1  0  0  0  0
 22  2  2  0  0  0  0
 23 28  1  0  0  0  0
 25 10  1  6  0  0  0
 25 23  1  0  0  0  0
 27 20  1  0  0  0  0
 28 24  1  1  0  0  0
 28 19  1  0  0  0  0
 29 30  1  0  0  0  0
M  END
>  <MODEL>
6

>  <REMARK>
 VINA RESULT:      -5.7      1.006      1.230
  Name = 
  1 active torsions:
  status: ('A' for Active; 'I' for Inactive)
    1  A    between atoms: C_8  and  C_27
                            x       y       z     vdW  Elec       q    Type
                         _______ _______ _______ _____ _____    ______ ____

>  <TORSDO>
F 1

$$$$
=
 OpenBabel10272413473D

 30 33  0  0  1  0  0  0  0  0999 V2000
  183.0070  176.0820  138.4970 C   0  0  0  0  0  2  0  0  0  0  0  0
  180.7710  177.8460  139.7920 C   0  0  0  0  0  0  0  0  0  0  0  0
  186.4050  177.6320  143.1530 C   0  0  0  0  0  3  0  0  0  0  0  0
  184.0870  175.0140  138.4610 C   0  0  0  0  0  2  0  0  0  0  0  0
  182.9690  176.6420  139.8360 N   0  0  0  0  0  2  0  0  0  0  0  0
  186.5850  174.2320  136.2980 O   0  0  0  0  0  0  0  0  0  0  0  0
  188.5030  178.5470  139.3080 O   0  0  0  0  0  0  0  0  0  0  0  0
  184.6020  174.7270  137.0500 C   0  0  1  0  0  0  0  0  0  0  0  0
  186.4090  175.6120  136.1870 C   0  0  2  0  0  0  0  0  0  0  0  0
  186.7230  177.8420  141.8620 C   0  0  0  0  0  3  0  0  0  0  0  0
  185.4080  178.4610  143.9150 C   0  0  0  0  0  2  0  0  0  0  0  0
  185.0820  175.9090  136.4840 O   0  0  0  0  0  0  0  0  0  0  0  0
  185.6640  173.8190  137.1510 O   0  0  0  0  0  0  0  0  0  0  0  0
  179.9820  178.8240  140.3110 N   0  0  0  0  0  0  0  0  0  0  0  0
  187.3640  178.4090  138.7870 C   0  0  0  0  0  0  0  0  0  0  0  0
  186.1810  178.5160  139.5790 N   0  0  0  0  0  2  0  0  0  0  0  0
  186.7130  176.0200  134.7540 C   0  0  0  0  0  1  0  0  0  0  0  0
  180.2060  176.9790  138.7210 C   0  0  0  0  0  1  0  0  0  0  0  0
  182.4890  178.4890  141.3560 C   0  0  0  0  0  0  0  0  0  0  0  0
  180.4190  179.6270  141.3140 C   0  0  0  0  0  3  0  0  0  0  0  0
  187.3430  176.3320  137.1650 C   0  0  0  0  0  2  0  0  0  0  0  0
  182.0700  177.6570  140.3090 C   0  0  0  0  0  0  0  0  0  0  0  0
  184.7840  179.4750  141.3210 C   0  0  0  0  0  2  0  0  0  0  0  0
  183.9750  178.2730  143.3950 C   0  0  0  0  0  2  0  0  0  0  0  0
  186.1810  178.9480  140.9700 C   0  0  1  0  0  3  0  0  0  0  0  0
  187.2160  178.1460  137.0250 S   0  0  0  0  0  0  0  0  0  0  0  0
  181.6640  179.4620  141.8260 N   0  0  0  0  0  0  0  0  0  0  0  0
  183.8890  178.3730  141.8710 C   0  0  1  0  0  3  0  0  0  0  0  0
  183.4970  174.1490  136.1580 C   0  0  0  0  0  2  0  0  0  0  0  0
  183.0950  172.7440  136.5760 C   0  0  0  0  0  1  0  0  0  0  0  0
  1  5  1  0  0  0  0
  2 22  2  0  0  0  0
  2 14  1  0  0  0  0
  3 11  1  0  0  0  0
  4  1  1  0  0  0  0
  5 22  1  0  0  0  0
  6 13  1  0  0  0  0
  8 29  1  6  0  0  0
  8 13  1  0  0  0  0
  8  4  1  0  0  0  0
  9 17  1  6  0  0  0
  9  6  1  0  0  0  0
  9 12  1  0  0  0  0
  9 21  1  0  0  0  0
 10  3  2  0  0  0  0
 12  8  1  0  0  0  0
 14 20  2  0  0  0  0
 15  7  2  0  0  0  0
 15 16  1  0  0  0  0
 16 25  1  0  0  0  0
 18  2  1  0  0  0  0
 19 27  2  0  0  0  0
 19 28  1  0  0  0  0
 20 27  1  0  0  0  0
 22 19  1  0  0  0  0
 24 11  1  0  0  0  0
 25 23  1  1  0  0  0
 25 10  1  0  0  0  0
 26 21  1  0  0  0  0
 26 15  1  0  0  0  0
 28 23  1  1  0  0  0
 28 24  1  0  0  0  0
 29 30  1  0  0  0  0
M  END
>  <MODEL>
7

>  <REMARK>
 VINA RESULT:      -5.7      2.210      5.125
  Name = 
  1 active torsions:
  status: ('A' for Active; 'I' for Inactive)
    1  A    between atoms: C_8  and  C_27
                            x       y       z     vdW  Elec       q    Type
                         _______ _______ _______ _____ _____    ______ ____

>  <TORSDO>
F 1

$$$$
=
 OpenBabel10272413473D

 30 33  0  0  1  0  0  0  0  0999 V2000
  183.7150  175.5210  136.8110 C   0  0  0  0  0  2  0  0  0  0  0  0
  181.0820  177.1910  136.5480 C   0  0  0  0  0  0  0  0  0  0  0  0
  184.3640  178.0830  142.1620 C   0  0  0  0  0  3  0  0  0  0  0  0
  184.7040  174.5850  137.4830 C   0  0  0  0  0  2  0  0  0  0  0  0
  183.0130  176.2570  137.8460 N   0  0  0  0  0  2  0  0  0  0  0  0
  187.9610  173.7870  136.9480 O   0  0  0  0  0  0  0  0  0  0  0  0
  188.0450  178.6710  139.6860 O   0  0  0  0  0  0  0  0  0  0  0  0
  185.8500  174.1610  136.5640 C   0  0  1  0  0  0  0  0  0  0  0  0
  187.8230  175.1090  136.5230 C   0  0  2  0  0  0  0  0  0  0  0  0
  185.2650  178.1420  141.1650 C   0  0  0  0  0  3  0  0  0  0  0  0
  183.0990  178.8960  142.1970 C   0  0  0  0  0  2  0  0  0  0  0  0
  186.5120  175.2960  136.0940 O   0  0  0  0  0  0  0  0  0  0  0  0
  186.7530  173.3990  137.3180 O   0  0  0  0  0  0  0  0  0  0  0  0
  180.1130  178.1390  136.4460 N   0  0  0  0  0  0  0  0  0  0  0  0
  187.3090  178.3350  138.7200 C   0  0  0  0  0  0  0  0  0  0  0  0
  185.8870  178.4210  138.8200 N   0  0  0  0  0  2  0  0  0  0  0  0
  188.7760  175.3410  135.3610 C   0  0  0  0  0  1  0  0  0  0  0  0
  181.1360  176.1240  135.5110 C   0  0  0  0  0  1  0  0  0  0  0  0
  181.8000  178.2360  138.5990 C   0  0  0  0  0  0  0  0  0  0  0  0
  179.9820  179.1200  137.3750 C   0  0  0  0  0  3  0  0  0  0  0  0
  188.1400  176.0590  137.6820 C   0  0  0  0  0  2  0  0  0  0  0  0
  181.9690  177.2230  137.6450 C   0  0  0  0  0  0  0  0  0  0  0  0
  183.7910  179.4560  139.4860 C   0  0  0  0  0  2  0  0  0  0  0  0
  182.1080  178.4780  141.1000 C   0  0  0  0  0  2  0  0  0  0  0  0
  185.1960  179.0430  139.9420 C   0  0  1  0  0  3  0  0  0  0  0  0
  188.0460  177.8100  137.1790 S   0  0  0  0  0  0  0  0  0  0  0  0
  180.8230  179.1690  138.4380 N   0  0  0  0  0  0  0  0  0  0  0  0
  182.7730  178.3510  139.7290 C   0  0  1  0  0  3  0  0  0  0  0  0
  185.3380  173.3430  135.3730 C   0  0  0  0  0  2  0  0  0  0  0  0
  184.9050  171.9430  135.7790 C   0  0  0  0  0  1  0  0  0  0  0  0
  1  4  1  0  0  0  0
  1  5  1  0  0  0  0
  2 22  1  0  0  0  0
  3 11  1  0  0  0  0
  6 13  1  0  0  0  0
  8 29  1  6  0  0  0
  8 13  1  0  0  0  0
  8  4  1  0  0  0  0
  9 17  1  6  0  0  0
  9  6  1  0  0  0  0
  9 21  1  0  0  0  0
 10  3  2  0  0  0  0
 12  9  1  0  0  0  0
 12  8  1  0  0  0  0
 14  2  2  0  0  0  0
 14 20  1  0  0  0  0
 15 16  1  0  0  0  0
 15  7  2  0  0  0  0
 16 25  1  0  0  0  0
 18  2  1  0  0  0  0
 19 28  1  0  0  0  0
 20 27  2  0  0  0  0
 22  5  1  0  0  0  0
 22 19  2  0  0  0  0
 24 11  1  0  0  0  0
 25 23  1  6  0  0  0
 25 10  1  0  0  0  0
 26 21  1  0  0  0  0
 26 15  1  0  0  0  0
 27 19  1  0  0  0  0
 28 23  1  6  0  0  0
 28 24  1  0  0  0  0
 29 30  1  0  0  0  0
M  END
>  <MODEL>
8

>  <REMARK>
 VINA RESULT:      -5.5      2.181      5.035
  Name = 
  1 active torsions:
  status: ('A' for Active; 'I' for Inactive)
    1  A    between atoms: C_8  and  C_27
                            x       y       z     vdW  Elec       q    Type
                         _______ _______ _______ _____ _____    ______ ____

>  <TORSDO>
F 1

$$$$
=
 OpenBabel10272413473D

 30 33  0  0  1  0  0  0  0  0999 V2000
  188.1340  177.5160  141.9580 C   0  0  0  0  0  2  0  0  0  0  0  0
  189.1240  178.4120  139.1290 C   0  0  0  0  0  0  0  0  0  0  0  0
  182.8630  176.4570  139.3660 C   0  0  0  0  0  3  0  0  0  0  0  0
  187.4700  176.6000  142.9710 C   0  0  0  0  0  2  0  0  0  0  0  0
  187.4800  177.3230  140.6770 N   0  0  0  0  0  2  0  0  0  0  0  0
  186.3560  176.9860  146.1560 O   0  0  0  0  0  0  0  0  0  0  0  0
  182.3590  179.1640  142.8940 O   0  0  0  0  0  0  0  0  0  0  0  0
  187.6650  177.0590  144.4170 C   0  0  1  0  0  0  0  0  0  0  0  0
  186.2080  178.2350  145.5510 C   0  0  2  0  0  0  0  0  0  0  0  0
  183.0570  177.2870  140.4080 C   0  0  0  0  0  3  0  0  0  0  0  0
  183.2180  176.8000  137.9450 C   0  0  0  0  0  2  0  0  0  0  0  0
  187.1770  178.3590  144.5590 O   0  0  0  0  0  0  0  0  0  0  0  0
  186.9210  176.2110  145.2470 O   0  0  0  0  0  0  0  0  0  0  0  0
  189.3590  179.0030  137.9280 N   0  0  0  0  0  0  0  0  0  0  0  0
  183.6050  179.3220  142.8050 C   0  0  0  0  0  0  0  0  0  0  0  0
  184.2940  179.0290  141.5890 N   0  0  0  0  0  2  0  0  0  0  0  0
  186.4220  179.3080  146.6070 C   0  0  0  0  0  1  0  0  0  0  0  0
  190.2750  178.2120  140.0530 C   0  0  0  0  0  1  0  0  0  0  0  0
  186.8160  178.1550  138.4810 C   0  0  0  0  0  0  0  0  0  0  0  0
  188.3640  179.1840  137.0220 C   0  0  0  0  0  3  0  0  0  0  0  0
  184.8080  178.3500  144.9390 C   0  0  0  0  0  2  0  0  0  0  0  0
  187.8210  177.9710  139.4410 C   0  0  0  0  0  0  0  0  0  0  0  0
  184.5680  178.9940  139.1740 C   0  0  0  0  0  2  0  0  0  0  0  0
  184.7360  176.9190  137.7370 C   0  0  0  0  0  2  0  0  0  0  0  0
  183.6180  178.6990  140.3410 C   0  0  1  0  0  3  0  0  0  0  0  0
  184.5200  179.9880  144.1890 S   0  0  0  0  0  0  0  0  0  0  0  0
  187.1040  178.7670  137.3010 N   0  0  0  0  0  0  0  0  0  0  0  0
  185.4070  177.7770  138.8110 C   0  0  1  0  0  3  0  0  0  0  0  0
  189.1430  177.0250  144.8190 C   0  0  0  0  0  2  0  0  0  0  0  0
  189.7650  178.4120  144.8500 C   0  0  0  0  0  1  0  0  0  0  0  0
  1  4  1  0  0  0  0
  2 22  1  0  0  0  0
  2 18  1  0  0  0  0
  3 10  2  0  0  0  0
  4  8  1  0  0  0  0
  5  1  1  0  0  0  0
  8 12  1  0  0  0  0
  8 29  1  1  0  0  0
  8 13  1  0  0  0  0
  9  6  1  0  0  0  0
  9 17  1  1  0  0  0
 11  3  1  0  0  0  0
 12  9  1  0  0  0  0
 13  6  1  0  0  0  0
 14  2  2  0  0  0  0
 15  7  2  0  0  0  0
 15 26  1  0  0  0  0
 16 15  1  0  0  0  0
 19 28  1  0  0  0  0
 19 22  2  0  0  0  0
 20 27  2  0  0  0  0
 20 14  1  0  0  0  0
 21  9  1  0  0  0  0
 22  5  1  0  0  0  0
 24 11  1  0  0  0  0
 25 23  1  6  0  0  0
 25 10  1  0  0  0  0
 25 16  1  0  0  0  0
 26 21  1  0  0  0  0
 27 19  1  0  0  0  0
 28 24  1  6  0  0  0
 28 23  1  0  0  0  0
 29 30  1  0  0  0  0
M  END
>  <MODEL>
9

>  <REMARK>
 VINA RESULT:      -5.5      4.400      6.900
  Name = 
  1 active torsions:
  status: ('A' for Active; 'I' for Inactive)
    1  A    between atoms: C_8  and  C_27
                            x       y       z     vdW  Elec       q    Type
                         _______ _______ _______ _____ _____    ______ ____

>  <TORSDO>
F 1

$$$$
