=
 OpenBabel10272401543D

 28 31  0  0  1  0  0  0  0  0999 V2000
  190.6220  176.7730  142.6530 C   0  0  2  0  0  0  0  0  0  0  0  0
  189.4720  177.7560  144.4820 C   0  0  1  0  0  3  0  0  0  0  0  0
  190.1170  175.4060  143.0440 C   0  0  0  0  0  2  0  0  0  0  0  0
  191.6100  178.8700  143.5560 C   0  0  0  0  0  2  0  0  0  0  0  0
  190.5920  178.7960  144.7260 C   0  0  0  0  0  2  0  0  0  0  0  0
  191.9410  177.4840  142.9480 C   0  0  0  0  0  2  0  0  0  0  0  0
  190.1890  176.4630  144.1170 C   0  0  1  0  0  3  0  0  0  0  0  0
  189.6390  177.5290  141.7050 C   0  0  2  0  0  3  0  0  0  0  0  0
  188.3510  176.9770  141.6910 O   0  0  0  0  0  1  0  0  0  0  0  0
  190.1750  177.6500  140.2800 C   0  0  0  0  0  2  0  0  0  0  0  0
  189.8240  176.4100  138.1470 C   0  0  0  0  0  1  0  0  0  0  0  0
  189.1470  177.2180  139.2390 C   0  0  2  0  0  3  0  0  0  0  0  0
  188.4270  178.3840  138.6410 C   0  0  0  0  0  0  0  0  0  0  0  0
  187.0440  178.4510  138.7370 O   0  0  0  0  0  1  0  0  0  0  0  0
  189.0500  179.2880  138.0200 O   0  0  0  0  0  0  0  0  0  0  0  0
  189.2030  176.9550  146.8660 C   0  0  0  0  0  1  0  0  0  0  0  0
  188.6370  177.5820  145.6730 N   0  0  0  0  0  0  0  0  0  0  0  0
  184.4780  178.2430  141.9910 C   0  0  0  0  0  1  0  0  0  0  0  0
  184.5570  178.7040  145.6220 C   0  0  0  0  0  0  0  0  0  0  0  0
  186.5450  178.0230  144.4220 C   0  0  0  0  0  3  0  0  0  0  0  0
  183.1110  178.9110  144.0760 C   0  0  0  0  0  0  0  0  0  0  0  0
  185.2030  178.3960  144.4510 C   0  0  0  0  0  0  0  0  0  0  0  0
  186.5680  178.2860  146.8520 C   0  0  0  0  0  3  0  0  0  0  0  0
  183.2650  179.0270  145.4160 N   0  0  0  0  0  0  0  0  0  0  0  0
  185.2140  178.6580  146.8480 C   0  0  0  0  0  3  0  0  0  0  0  0
  181.8740  179.1480  143.4160 N   0  0  0  0  0  1  0  0  0  0  0  0
  184.2810  178.5200  143.4430 C   0  0  0  0  0  0  0  0  0  0  0  0
  187.2470  177.9670  145.6470 C   0  0  1  0  0  3  0  0  0  0  0  0
  1  8  1  6  0  0  0
  1  6  1  0  0  0  0
  1  3  1  0  0  0  0
  1  7  1  0  0  0  0
  2  5  1  0  0  0  0
  2 17  1  1  0  0  0
  4  5  1  0  0  0  0
  6  4  1  0  0  0  0
  7  3  1  6  0  0  0
  7  2  1  0  0  0  0
  8  9  1  6  0  0  0
 10  8  1  0  0  0  0
 12 11  1  6  0  0  0
 12 10  1  0  0  0  0
 13 14  1  0  0  0  0
 13 12  1  0  0  0  0
 15 13  2  0  0  0  0
 17 16  1  0  0  0  0
 18 27  1  0  0  0  0
 19 25  1  0  0  0  0
 20 22  2  0  0  0  0
 20 28  1  0  0  0  0
 21 24  1  0  0  0  0
 22 19  1  0  0  0  0
 24 19  2  0  0  0  0
 25 23  2  0  0  0  0
 26 21  1  0  0  0  0
 27 21  2  0  0  0  0
 27 22  1  0  0  0  0
 28 17  1  1  0  0  0
 28 23  1  0  0  0  0
M  END
>  <MODEL>
1

>  <REMARK>
 VINA RESULT:      -9.5      0.000      0.000
  Name = 
  6 active torsions:
  status: ('A' for Active; 'I' for Inactive)
    1  A    between atoms: C_1  and  C_2
    2  A    between atoms: C_2  and  C_3
    3  A    between atoms: C_3  and  C_11
    4  A    between atoms: C_6  and  C_11
    5  A    between atoms: C_16  and  N_20
    6  A    between atoms: N_20  and  C_25
                            x       y       z     vdW  Elec       q    Type
                         _______ _______ _______ _____ _____    ______ ____

>  <TORSDO>
F 6

$$$$
=
 OpenBabel10272401543D

 28 31  0  0  1  0  0  0  0  0999 V2000
  189.3460  176.6240  143.6270 C   0  0  2  0  0  0  0  0  0  0  0  0
  189.1330  177.7140  141.5300 C   0  0  1  0  0  3  0  0  0  0  0  0
  190.2750  175.6010  143.0250 C   0  0  0  0  0  2  0  0  0  0  0  0
  187.2140  177.8510  143.2540 C   0  0  0  0  0  2  0  0  0  0  0  0
  187.6460  178.0660  141.7770 C   0  0  0  0  0  2  0  0  0  0  0  0
  187.8430  176.5890  143.8950 C   0  0  0  0  0  2  0  0  0  0  0  0
  189.3210  176.3160  142.1020 C   0  0  1  0  0  3  0  0  0  0  0  0
  190.0970  177.8920  144.1420 C   0  0  2  0  0  3  0  0  0  0  0  0
  191.4700  177.8730  143.8590 O   0  0  0  0  0  1  0  0  0  0  0  0
  189.8710  178.1430  145.6320 C   0  0  0  0  0  2  0  0  0  0  0  0
  188.9850  176.9240  147.6160 C   0  0  0  0  0  1  0  0  0  0  0  0
  189.9580  176.8600  146.4530 C   0  0  2  0  0  3  0  0  0  0  0  0
  191.3430  176.6070  146.9570 C   0  0  0  0  0  0  0  0  0  0  0  0
  192.1440  175.6790  146.3050 O   0  0  0  0  0  0  0  0  0  0  0  0
  191.7820  177.1930  147.9830 O   0  0  0  0  0  1  0  0  0  0  0  0
  188.4680  178.2470  139.1480 C   0  0  0  0  0  1  0  0  0  0  0  0
  189.4590  177.7530  140.1020 N   0  0  0  0  0  0  0  0  0  0  0  0
  191.4840  174.4470  136.0680 C   0  0  0  0  0  1  0  0  0  0  0  0
  193.1850  176.2820  138.7400 C   0  0  0  0  0  0  0  0  0  0  0  0
  190.7770  176.3670  138.5270 C   0  0  0  0  0  3  0  0  0  0  0  0
  193.7630  174.9910  137.1520 C   0  0  0  0  0  0  0  0  0  0  0  0
  192.0250  175.9080  138.1120 C   0  0  0  0  0  0  0  0  0  0  0  0
  191.9330  177.6270  140.2750 C   0  0  0  0  0  3  0  0  0  0  0  0
  194.2720  175.7280  138.1670 N   0  0  0  0  0  0  0  0  0  0  0  0
  193.1760  177.1460  139.8310 C   0  0  0  0  0  3  0  0  0  0  0  0
  194.5740  174.2380  136.2580 N   0  0  0  0  0  1  0  0  0  0  0  0
  192.3810  175.0780  137.0800 C   0  0  0  0  0  0  0  0  0  0  0  0
  190.7250  177.2450  139.6340 C   0  0  1  0  0  3  0  0  0  0  0  0
  1  6  1  0  0  0  0
  1  8  1  1  0  0  0
  2 17  1  6  0  0  0
  2  5  1  0  0  0  0
  2  7  1  0  0  0  0
  3  1  1  0  0  0  0
  4  6  1  0  0  0  0
  5  4  1  0  0  0  0
  7  3  1  6  0  0  0
  7  1  1  0  0  0  0
  8  9  1  1  0  0  0
  8 10  1  0  0  0  0
 10 12  1  0  0  0  0
 12 13  1  0  0  0  0
 12 11  1  1  0  0  0
 13 15  1  0  0  0  0
 14 13  2  0  0  0  0
 16 17  1  0  0  0  0
 18 27  1  0  0  0  0
 19 25  1  0  0  0  0
 20 28  1  0  0  0  0
 21 24  1  0  0  0  0
 22 20  2  0  0  0  0
 22 19  1  0  0  0  0
 24 19  2  0  0  0  0
 25 23  2  0  0  0  0
 26 21  1  0  0  0  0
 27 21  2  0  0  0  0
 27 22  1  0  0  0  0
 28 17  1  6  0  0  0
 28 23  1  0  0  0  0
M  END
>  <MODEL>
2

>  <REMARK>
 VINA RESULT:      -8.3      4.028      8.388
  Name = 
  6 active torsions:
  status: ('A' for Active; 'I' for Inactive)
    1  A    between atoms: C_1  and  C_2
    2  A    between atoms: C_2  and  C_3
    3  A    between atoms: C_3  and  C_11
    4  A    between atoms: C_6  and  C_11
    5  A    between atoms: C_16  and  N_20
    6  A    between atoms: N_20  and  C_25
                            x       y       z     vdW  Elec       q    Type
                         _______ _______ _______ _____ _____    ______ ____

>  <TORSDO>
F 6

$$$$
=
 OpenBabel10272401543D

 28 31  0  0  1  0  0  0  0  0999 V2000
  190.4960  177.9310  144.9460 C   0  0  2  0  0  0  0  0  0  0  0  0
  190.6720  177.0830  142.7370 C   0  0  1  0  0  3  0  0  0  0  0  0
  190.5100  179.3460  144.4260 C   0  0  0  0  0  2  0  0  0  0  0  0
  191.5940  175.7100  144.7200 C   0  0  0  0  0  2  0  0  0  0  0  0
  191.5680  175.9010  143.1800 C   0  0  0  0  0  2  0  0  0  0  0  0
  191.6130  177.0480  145.5000 C   0  0  0  0  0  2  0  0  0  0  0  0
  191.1300  178.2740  143.5660 C   0  0  1  0  0  3  0  0  0  0  0  0
  189.0590  177.3230  145.0020 C   0  0  2  0  0  3  0  0  0  0  0  0
  188.0980  178.1230  144.3690 O   0  0  0  0  0  1  0  0  0  0  0  0
  188.6160  176.9950  146.4260 C   0  0  0  0  0  2  0  0  0  0  0  0
  188.4660  178.1460  148.6310 C   0  0  0  0  0  1  0  0  0  0  0  0
  188.0880  178.2220  147.1640 C   0  0  2  0  0  3  0  0  0  0  0  0
  186.6060  178.3670  147.0230 C   0  0  0  0  0  0  0  0  0  0  0  0
  185.8750  177.3420  146.4400 O   0  0  0  0  0  0  0  0  0  0  0  0
  186.0150  179.4180  147.3920 O   0  0  0  0  0  1  0  0  0  0  0  0
  192.1430  177.4090  140.7050 C   0  0  0  0  0  1  0  0  0  0  0  0
  190.8110  177.3490  141.3030 N   0  0  0  0  0  0  0  0  0  0  0  0
  185.5300  179.0910  141.9200 C   0  0  0  0  0  1  0  0  0  0  0  0
  187.4020  178.1350  138.9220 C   0  0  0  0  0  0  0  0  0  0  0  0
  188.4410  178.0440  141.1050 C   0  0  0  0  0  3  0  0  0  0  0  0
  185.4280  178.7990  139.3570 C   0  0  0  0  0  0  0  0  0  0  0  0
  187.3430  178.2930  140.2840 C   0  0  0  0  0  0  0  0  0  0  0  0
  189.6920  177.4590  139.0880 C   0  0  0  0  0  3  0  0  0  0  0  0
  186.2310  178.4400  138.3280 N   0  0  0  0  0  0  0  0  0  0  0  0
  188.5670  177.7180  138.2870 C   0  0  0  0  0  3  0  0  0  0  0  0
  184.0810  179.2200  139.1790 N   0  0  0  0  0  1  0  0  0  0  0  0
  186.0770  178.7260  140.5810 C   0  0  0  0  0  0  0  0  0  0  0  0
  189.6440  177.6160  140.4990 C   0  0  1  0  0  3  0  0  0  0  0  0
  1  8  1  6  0  0  0
  1  6  1  0  0  0  0
  2 17  1  6  0  0  0
  2  5  1  0  0  0  0
  2  7  1  0  0  0  0
  3  1  1  0  0  0  0
  4  6  1  0  0  0  0
  5  4  1  0  0  0  0
  7  3  1  6  0  0  0
  7  1  1  0  0  0  0
  8  9  1  1  0  0  0
  8 10  1  0  0  0  0
 10 12  1  0  0  0  0
 12 11  1  1  0  0  0
 13 12  1  0  0  0  0
 13 15  1  0  0  0  0
 14 13  2  0  0  0  0
 16 17  1  0  0  0  0
 19 22  1  0  0  0  0
 21 27  2  0  0  0  0
 22 27  1  0  0  0  0
 22 20  2  0  0  0  0
 23 28  1  0  0  0  0
 24 19  2  0  0  0  0
 24 21  1  0  0  0  0
 25 19  1  0  0  0  0
 25 23  2  0  0  0  0
 26 21  1  0  0  0  0
 27 18  1  0  0  0  0
 28 20  1  0  0  0  0
 28 17  1  6  0  0  0
M  END
>  <MODEL>
3

>  <REMARK>
 VINA RESULT:      -7.9      2.836      6.001
  Name = 
  6 active torsions:
  status: ('A' for Active; 'I' for Inactive)
    1  A    between atoms: C_1  and  C_2
    2  A    between atoms: C_2  and  C_3
    3  A    between atoms: C_3  and  C_11
    4  A    between atoms: C_6  and  C_11
    5  A    between atoms: C_16  and  N_20
    6  A    between atoms: N_20  and  C_25
                            x       y       z     vdW  Elec       q    Type
                         _______ _______ _______ _____ _____    ______ ____

>  <TORSDO>
F 6

$$$$
=
 OpenBabel10272401543D

 28 31  0  0  1  0  0  0  0  0999 V2000
  184.2080  178.5670  138.4500 C   0  0  2  0  0  0  0  0  0  0  0  0
  183.4710  178.0000  140.6330 C   0  0  1  0  0  3  0  0  0  0  0  0
  184.0890  180.0360  138.7690 C   0  0  0  0  0  2  0  0  0  0  0  0
  183.0510  176.3760  138.6690 C   0  0  0  0  0  2  0  0  0  0  0  0
  182.6940  176.7590  140.1310 C   0  0  0  0  0  2  0  0  0  0  0  0
  183.2510  177.6060  137.7490 C   0  0  0  0  0  2  0  0  0  0  0  0
  183.2550  179.0710  139.5740 C   0  0  1  0  0  3  0  0  0  0  0  0
  185.6030  177.9790  138.8330 C   0  0  2  0  0  3  0  0  0  0  0  0
  186.4230  178.8960  139.5050 O   0  0  0  0  0  1  0  0  0  0  0  0
  186.3420  177.3940  137.6310 C   0  0  0  0  0  2  0  0  0  0  0  0
  186.7950  178.1880  135.3130 C   0  0  0  0  0  1  0  0  0  0  0  0
  187.0150  178.4730  136.7870 C   0  0  2  0  0  3  0  0  0  0  0  0
  188.4790  178.5810  137.0750 C   0  0  0  0  0  0  0  0  0  0  0  0
  189.2700  177.4430  137.0060 O   0  0  0  0  0  0  0  0  0  0  0  0
  188.9980  179.6780  137.4140 O   0  0  0  0  0  1  0  0  0  0  0  0
  181.6220  178.9620  142.0670 C   0  0  0  0  0  1  0  0  0  0  0  0
  182.9820  178.4410  141.9420 N   0  0  0  0  0  0  0  0  0  0  0  0
  188.2350  177.0320  143.2530 C   0  0  0  0  0  1  0  0  0  0  0  0
  185.5400  178.4070  145.3130 C   0  0  0  0  0  0  0  0  0  0  0  0
  185.1800  177.9360  142.9680 C   0  0  0  0  0  3  0  0  0  0  0  0
  187.5570  177.8070  145.6200 C   0  0  0  0  0  0  0  0  0  0  0  0
  185.9880  177.9440  144.1020 C   0  0  0  0  0  0  0  0  0  0  0  0
  183.4060  178.9020  144.3450 C   0  0  0  0  0  3  0  0  0  0  0  0
  186.4890  178.3310  146.2670 N   0  0  0  0  0  2  0  0  0  0  0  0
  184.2470  178.8970  145.4710 C   0  0  0  0  0  3  0  0  0  0  0  0
  188.8060  177.5670  146.2560 N   0  0  0  0  0  1  0  0  0  0  0  0
  187.2920  177.5570  144.2820 C   0  0  0  0  0  0  0  0  0  0  0  0
  183.8590  178.4230  143.0870 C   0  0  0  0  0  0  0  0  0  0  0  0
  1  3  1  0  0  0  0
  1  8  1  1  0  0  0
  1  7  1  0  0  0  0
  2 17  1  1  0  0  0
  4  5  1  0  0  0  0
  5  2  1  0  0  0  0
  6  1  1  0  0  0  0
  6  4  1  0  0  0  0
  7  3  1  1  0  0  0
  7  2  1  0  0  0  0
  8  9  1  6  0  0  0
 10  8  1  0  0  0  0
 12 11  1  6  0  0  0
 12 13  1  0  0  0  0
 12 10  1  0  0  0  0
 13 15  1  0  0  0  0
 14 13  2  0  0  0  0
 17 16  1  0  0  0  0
 17 28  1  0  0  0  0
 18 27  1  0  0  0  0
 19 25  1  0  0  0  0
 19 24  1  0  0  0  0
 20 28  2  0  0  0  0
 20 22  1  0  0  0  0
 21 26  1  0  0  0  0
 21 24  1  0  0  0  0
 22 27  1  0  0  0  0
 22 19  2  0  0  0  0
 23 25  2  0  0  0  0
 27 21  2  0  0  0  0
 28 23  1  0  0  0  0
M  END
>  <MODEL>
4

>  <REMARK>
 VINA RESULT:      -7.8      2.306      5.848
  Name = 
  6 active torsions:
  status: ('A' for Active; 'I' for Inactive)
    1  A    between atoms: C_1  and  C_2
    2  A    between atoms: C_2  and  C_3
    3  A    between atoms: C_3  and  C_11
    4  A    between atoms: C_6  and  C_11
    5  A    between atoms: C_16  and  N_20
    6  A    between atoms: N_20  and  C_25
                            x       y       z     vdW  Elec       q    Type
                         _______ _______ _______ _____ _____    ______ ____

>  <TORSDO>
F 6

$$$$
=
 OpenBabel10272401543D

 28 31  0  0  1  0  0  0  0  0999 V2000
  187.8150  177.1050  144.3040 C   0  0  2  0  0  0  0  0  0  0  0  0
  186.8740  178.4250  142.5700 C   0  0  1  0  0  3  0  0  0  0  0  0
  188.2360  176.0560  143.3050 C   0  0  0  0  0  2  0  0  0  0  0  0
  185.9310  178.5870  144.9690 C   0  0  0  0  0  2  0  0  0  0  0  0
  185.7080  178.9070  143.4660 C   0  0  0  0  0  2  0  0  0  0  0  0
  186.5880  177.2040  145.2060 C   0  0  0  0  0  2  0  0  0  0  0  0
  187.0890  176.9620  142.9340 C   0  0  1  0  0  3  0  0  0  0  0  0
  188.8880  178.2230  144.4910 C   0  0  2  0  0  3  0  0  0  0  0  0
  189.9640  178.1110  143.5990 O   0  0  0  0  0  1  0  0  0  0  0  0
  189.4030  178.3080  145.9270 C   0  0  0  0  0  2  0  0  0  0  0  0
  189.0730  176.7750  147.8640 C   0  0  0  0  0  1  0  0  0  0  0  0
  189.7290  176.9340  146.5050 C   0  0  2  0  0  3  0  0  0  0  0  0
  191.2030  176.7070  146.6180 C   0  0  0  0  0  0  0  0  0  0  0  0
  191.8280  176.9030  147.8420 O   0  0  0  0  0  1  0  0  0  0  0  0
  191.8920  176.3760  145.6160 O   0  0  0  0  0  0  0  0  0  0  0  0
  185.2370  179.0790  140.7560 C   0  0  0  0  0  1  0  0  0  0  0  0
  186.5530  178.5780  141.1490 N   0  0  0  0  0  0  0  0  0  0  0  0
  191.9920  177.3540  140.6880 C   0  0  0  0  0  1  0  0  0  0  0  0
  189.3230  177.3810  138.1830 C   0  0  0  0  0  0  0  0  0  0  0  0
  188.8630  177.9860  140.4800 C   0  0  0  0  0  3  0  0  0  0  0  0
  191.4090  176.9650  138.2040 C   0  0  0  0  0  0  0  0  0  0  0  0
  189.7410  177.5910  139.4720 C   0  0  0  0  0  0  0  0  0  0  0  0
  187.0820  177.9500  138.8060 C   0  0  0  0  0  3  0  0  0  0  0  0
  190.3350  176.9950  137.3800 N   0  0  0  0  0  0  0  0  0  0  0  0
  187.9920  177.5510  137.8130 C   0  0  0  0  0  3  0  0  0  0  0  0
  192.7090  176.5860  137.7680 N   0  0  0  0  0  1  0  0  0  0  0  0
  191.0850  177.3210  139.5040 C   0  0  0  0  0  0  0  0  0  0  0  0
  187.5030  178.1730  140.1430 C   0  0  1  0  0  3  0  0  0  0  0  0
  1  8  1  1  0  0  0
  1  6  1  0  0  0  0
  2 17  1  6  0  0  0
  2  7  1  0  0  0  0
  2  5  1  0  0  0  0
  3  1  1  0  0  0  0
  4  6  1  0  0  0  0
  5  4  1  0  0  0  0
  7  3  1  6  0  0  0
  7  1  1  0  0  0  0
  8  9  1  6  0  0  0
  8 10  1  0  0  0  0
 10 12  1  0  0  0  0
 12 13  1  0  0  0  0
 12 11  1  1  0  0  0
 13 14  1  0  0  0  0
 15 13  2  0  0  0  0
 16 17  1  0  0  0  0
 19 22  1  0  0  0  0
 21 27  2  0  0  0  0
 22 27  1  0  0  0  0
 22 20  2  0  0  0  0
 23 28  1  0  0  0  0
 24 19  2  0  0  0  0
 24 21  1  0  0  0  0
 25 19  1  0  0  0  0
 25 23  2  0  0  0  0
 26 21  1  0  0  0  0
 27 18  1  0  0  0  0
 28 20  1  0  0  0  0
 28 17  1  1  0  0  0
M  END
>  <MODEL>
5

>  <REMARK>
 VINA RESULT:      -7.8      3.331      7.331
  Name = 
  6 active torsions:
  status: ('A' for Active; 'I' for Inactive)
    1  A    between atoms: C_1  and  C_2
    2  A    between atoms: C_2  and  C_3
    3  A    between atoms: C_3  and  C_11
    4  A    between atoms: C_6  and  C_11
    5  A    between atoms: C_16  and  N_20
    6  A    between atoms: N_20  and  C_25
                            x       y       z     vdW  Elec       q    Type
                         _______ _______ _______ _____ _____    ______ ____

>  <TORSDO>
F 6

$$$$
=
 OpenBabel10272401543D

 28 31  0  0  1  0  0  0  0  0999 V2000
  190.5260  178.0330  144.8550 C   0  0  2  0  0  0  0  0  0  0  0  0
  190.8000  177.1000  142.6900 C   0  0  1  0  0  3  0  0  0  0  0  0
  190.6090  179.4270  144.2880 C   0  0  0  0  0  2  0  0  0  0  0  0
  191.5710  175.7760  144.7700 C   0  0  0  0  0  2  0  0  0  0  0  0
  191.6360  175.9120  143.2240 C   0  0  0  0  0  2  0  0  0  0  0  0
  191.5840  177.1410  145.5020 C   0  0  0  0  0  2  0  0  0  0  0  0
  191.2460  178.3090  143.5030 C   0  0  1  0  0  3  0  0  0  0  0  0
  189.0710  177.4650  144.8500 C   0  0  2  0  0  3  0  0  0  0  0  0
  188.1410  178.3400  144.2720 O   0  0  0  0  0  1  0  0  0  0  0  0
  188.6020  177.0420  146.2400 C   0  0  0  0  0  2  0  0  0  0  0  0
  188.4540  178.0470  148.5160 C   0  0  0  0  0  1  0  0  0  0  0  0
  188.0770  178.2200  147.0560 C   0  0  2  0  0  3  0  0  0  0  0  0
  186.5960  178.3800  146.9250 C   0  0  0  0  0  0  0  0  0  0  0  0
  185.9830  179.5010  147.4680 O   0  0  0  0  0  1  0  0  0  0  0  0
  185.8910  177.4990  146.3620 O   0  0  0  0  0  0  0  0  0  0  0  0
  192.3900  177.2870  140.7320 C   0  0  0  0  0  1  0  0  0  0  0  0
  191.0270  177.3100  141.2580 N   0  0  0  0  0  0  0  0  0  0  0  0
  189.7010  177.0290  135.8300 C   0  0  0  0  0  1  0  0  0  0  0  0
  187.7570  178.1720  138.7140 C   0  0  0  0  0  0  0  0  0  0  0  0
  190.0290  177.3880  138.9920 C   0  0  0  0  0  3  0  0  0  0  0  0
  187.4430  178.0020  136.6180 C   0  0  0  0  0  0  0  0  0  0  0  0
  188.9280  177.6850  138.1910 C   0  0  0  0  0  0  0  0  0  0  0  0
  188.7000  178.1070  140.9140 C   0  0  0  0  0  3  0  0  0  0  0  0
  186.8250  178.3780  137.7620 N   0  0  0  0  0  0  0  0  0  0  0  0
  187.6080  178.3960  140.0800 C   0  0  0  0  0  3  0  0  0  0  0  0
  186.8070  178.0400  135.3460 N   0  0  0  0  0  1  0  0  0  0  0  0
  188.7400  177.5640  136.8390 C   0  0  0  0  0  0  0  0  0  0  0  0
  189.9180  177.6040  140.3840 C   0  0  1  0  0  3  0  0  0  0  0  0
  1  8  1  6  0  0  0
  1  6  1  0  0  0  0
  2 17  1  6  0  0  0
  2  5  1  0  0  0  0
  2  7  1  0  0  0  0
  3  1  1  0  0  0  0
  4  6  1  0  0  0  0
  5  4  1  0  0  0  0
  7  3  1  6  0  0  0
  7  1  1  0  0  0  0
  8  9  1  1  0  0  0
  8 10  1  0  0  0  0
 10 12  1  0  0  0  0
 12 11  1  1  0  0  0
 13 12  1  0  0  0  0
 13 14  1  0  0  0  0
 15 13  2  0  0  0  0
 16 17  1  0  0  0  0
 18 27  1  0  0  0  0
 19 25  1  0  0  0  0
 20 28  1  0  0  0  0
 21 27  2  0  0  0  0
 21 24  1  0  0  0  0
 22 19  1  0  0  0  0
 22 20  2  0  0  0  0
 24 19  2  0  0  0  0
 25 23  2  0  0  0  0
 26 21  1  0  0  0  0
 27 22  1  0  0  0  0
 28 23  1  0  0  0  0
 28 17  1  1  0  0  0
M  END
>  <MODEL>
6

>  <REMARK>
 VINA RESULT:      -7.8      3.410      6.687
  Name = 
  6 active torsions:
  status: ('A' for Active; 'I' for Inactive)
    1  A    between atoms: C_1  and  C_2
    2  A    between atoms: C_2  and  C_3
    3  A    between atoms: C_3  and  C_11
    4  A    between atoms: C_6  and  C_11
    5  A    between atoms: C_16  and  N_20
    6  A    between atoms: N_20  and  C_25
                            x       y       z     vdW  Elec       q    Type
                         _______ _______ _______ _____ _____    ______ ____

>  <TORSDO>
F 6

$$$$
=
 OpenBabel10272401543D

 28 31  0  0  1  0  0  0  0  0999 V2000
  187.9120  177.0600  144.3200 C   0  0  2  0  0  0  0  0  0  0  0  0
  186.8590  178.4500  142.7110 C   0  0  1  0  0  3  0  0  0  0  0  0
  188.3300  176.0920  143.2410 C   0  0  0  0  0  2  0  0  0  0  0  0
  186.0040  178.4260  145.1480 C   0  0  0  0  0  2  0  0  0  0  0  0
  185.7120  178.8310  143.6780 C   0  0  0  0  0  2  0  0  0  0  0  0
  186.7170  177.0560  145.2710 C   0  0  0  0  0  2  0  0  0  0  0  0
  187.1380  176.9770  142.9710 C   0  0  1  0  0  3  0  0  0  0  0  0
  188.9520  178.2030  144.5390 C   0  0  2  0  0  3  0  0  0  0  0  0
  190.0460  178.1280  143.6670 O   0  0  0  0  0  1  0  0  0  0  0  0
  189.4370  178.2860  145.9860 C   0  0  0  0  0  2  0  0  0  0  0  0
  189.0510  176.7300  147.8940 C   0  0  0  0  0  1  0  0  0  0  0  0
  189.7600  176.9120  146.5650 C   0  0  2  0  0  3  0  0  0  0  0  0
  191.2310  176.7060  146.7370 C   0  0  0  0  0  0  0  0  0  0  0  0
  191.9820  176.2400  145.6660 O   0  0  0  0  0  0  0  0  0  0  0  0
  191.7940  176.9140  147.8460 O   0  0  0  0  0  1  0  0  0  0  0  0
  185.1280  179.1490  141.0020 C   0  0  0  0  0  1  0  0  0  0  0  0
  186.4770  178.6800  141.3150 N   0  0  0  0  0  0  0  0  0  0  0  0
  186.4490  177.6260  135.8200 C   0  0  0  0  0  1  0  0  0  0  0  0
  189.2170  177.8140  138.2080 C   0  0  0  0  0  0  0  0  0  0  0  0
  186.9350  178.1510  138.9380 C   0  0  0  0  0  3  0  0  0  0  0  0
  189.0040  177.4230  136.1290 C   0  0  0  0  0  0  0  0  0  0  0  0
  187.8720  177.8700  137.9460 C   0  0  0  0  0  0  0  0  0  0  0  0
  188.7990  178.3240  140.5100 C   0  0  0  0  0  3  0  0  0  0  0  0
  189.9370  177.5380  137.1030 N   0  0  0  0  0  0  0  0  0  0  0  0
  189.7190  178.0380  139.4870 C   0  0  0  0  0  3  0  0  0  0  0  0
  189.3300  177.1480  134.7720 N   0  0  0  0  0  1  0  0  0  0  0  0
  187.7170  177.6250  136.6050 C   0  0  0  0  0  0  0  0  0  0  0  0
  187.4040  178.3820  140.2510 C   0  0  1  0  0  3  0  0  0  0  0  0
  1  8  1  1  0  0  0
  1  6  1  0  0  0  0
  2 17  1  6  0  0  0
  2  7  1  0  0  0  0
  2  5  1  0  0  0  0
  3  1  1  0  0  0  0
  4  6  1  0  0  0  0
  5  4  1  0  0  0  0
  7  3  1  6  0  0  0
  7  1  1  0  0  0  0
  8  9  1  6  0  0  0
  8 10  1  0  0  0  0
 10 12  1  0  0  0  0
 12 13  1  0  0  0  0
 12 11  1  1  0  0  0
 13 15  1  0  0  0  0
 14 13  2  0  0  0  0
 16 17  1  0  0  0  0
 18 27  1  0  0  0  0
 19 25  1  0  0  0  0
 20 28  1  0  0  0  0
 21 27  2  0  0  0  0
 21 24  1  0  0  0  0
 22 19  1  0  0  0  0
 22 20  2  0  0  0  0
 24 19  2  0  0  0  0
 25 23  2  0  0  0  0
 26 21  1  0  0  0  0
 27 22  1  0  0  0  0
 28 23  1  0  0  0  0
 28 17  1  6  0  0  0
M  END
>  <MODEL>
7

>  <REMARK>
 VINA RESULT:      -7.6      3.632      7.147
  Name = 
  6 active torsions:
  status: ('A' for Active; 'I' for Inactive)
    1  A    between atoms: C_1  and  C_2
    2  A    between atoms: C_2  and  C_3
    3  A    between atoms: C_3  and  C_11
    4  A    between atoms: C_6  and  C_11
    5  A    between atoms: C_16  and  N_20
    6  A    between atoms: N_20  and  C_25
                            x       y       z     vdW  Elec       q    Type
                         _______ _______ _______ _____ _____    ______ ____

>  <TORSDO>
F 6

$$$$
=
 OpenBabel10272401543D

 28 31  0  0  1  0  0  0  0  0999 V2000
  188.0260  177.0970  144.8600 C   0  0  2  0  0  0  0  0  0  0  0  0
  186.2130  178.5780  144.4710 C   0  0  1  0  0  3  0  0  0  0  0  0
  187.6090  176.2460  143.6870 C   0  0  0  0  0  2  0  0  0  0  0  0
  187.1640  178.3040  146.8570 C   0  0  0  0  0  2  0  0  0  0  0  0
  185.9910  178.8250  145.9830 C   0  0  0  0  0  2  0  0  0  0  0  0
  187.7470  176.9600  146.3550 C   0  0  0  0  0  2  0  0  0  0  0  0
  186.5560  177.1000  144.3460 C   0  0  1  0  0  3  0  0  0  0  0  0
  188.9850  178.2590  144.4510 C   0  0  2  0  0  3  0  0  0  0  0  0
  189.1190  178.4010  143.0630 O   0  0  0  0  0  1  0  0  0  0  0  0
  190.3620  178.1390  145.1030 C   0  0  0  0  0  2  0  0  0  0  0  0
  191.5520  176.5390  146.5970 C   0  0  0  0  0  1  0  0  0  0  0  0
  190.7840  176.6860  145.2960 C   0  0  2  0  0  3  0  0  0  0  0  0
  191.6100  176.1830  144.1550 C   0  0  0  0  0  0  0  0  0  0  0  0
  191.9500  177.0530  143.1280 O   0  0  0  0  0  0  0  0  0  0  0  0
  191.9710  174.9770  144.0920 O   0  0  0  0  0  1  0  0  0  0  0  0
  183.8090  179.3620  144.3860 C   0  0  0  0  0  1  0  0  0  0  0  0
  185.0170  178.9140  143.6950 N   0  0  0  0  0  0  0  0  0  0  0  0
  188.6310  178.4090  139.4540 C   0  0  0  0  0  1  0  0  0  0  0  0
  184.9700  178.3930  139.4960 C   0  0  0  0  0  0  0  0  0  0  0  0
  186.2240  178.6810  141.5440 C   0  0  0  0  0  3  0  0  0  0  0  0
  186.4920  178.2310  138.0190 C   0  0  0  0  0  0  0  0  0  0  0  0
  186.1630  178.5080  140.1630 C   0  0  0  0  0  0  0  0  0  0  0  0
  183.7810  178.6170  141.5620 C   0  0  0  0  0  3  0  0  0  0  0  0
  185.1470  178.2230  138.1700 N   0  0  0  0  0  0  0  0  0  0  0  0
  183.7530  178.4430  140.1680 C   0  0  0  0  0  3  0  0  0  0  0  0
  187.1310  178.0610  136.7600 N   0  0  0  0  0  1  0  0  0  0  0  0
  187.1570  178.4000  139.2250 C   0  0  0  0  0  0  0  0  0  0  0  0
  185.0090  178.7390  142.2630 C   0  0  1  0  0  3  0  0  0  0  0  0
  1  8  1  6  0  0  0
  1  6  1  0  0  0  0
  2 17  1  6  0  0  0
  2  5  1  0  0  0  0
  3  1  1  0  0  0  0
  5  4  1  0  0  0  0
  6  4  1  0  0  0  0
  7  3  1  6  0  0  0
  7  2  1  0  0  0  0
  7  1  1  0  0  0  0
  8  9  1  6  0  0  0
  8 10  1  0  0  0  0
 10 12  1  0  0  0  0
 12 11  1  1  0  0  0
 13 12  1  0  0  0  0
 14 13  2  0  0  0  0
 15 13  1  0  0  0  0
 17 16  1  0  0  0  0
 19 22  1  0  0  0  0
 19 25  1  0  0  0  0
 20 28  1  0  0  0  0
 21 24  1  0  0  0  0
 21 27  2  0  0  0  0
 22 20  2  0  0  0  0
 23 28  1  0  0  0  0
 24 19  2  0  0  0  0
 25 23  2  0  0  0  0
 26 21  1  0  0  0  0
 27 18  1  0  0  0  0
 27 22  1  0  0  0  0
 28 17  1  1  0  0  0
M  END
>  <MODEL>
8

>  <REMARK>
 VINA RESULT:      -7.6      2.752      5.626
  Name = 
  6 active torsions:
  status: ('A' for Active; 'I' for Inactive)
    1  A    between atoms: C_1  and  C_2
    2  A    between atoms: C_2  and  C_3
    3  A    between atoms: C_3  and  C_11
    4  A    between atoms: C_6  and  C_11
    5  A    between atoms: C_16  and  N_20
    6  A    between atoms: N_20  and  C_25
                            x       y       z     vdW  Elec       q    Type
                         _______ _______ _______ _____ _____    ______ ____

>  <TORSDO>
F 6

$$$$
=
 OpenBabel10272401543D

 28 31  0  0  1  0  0  0  0  0999 V2000
  187.9760  177.1190  144.8640 C   0  0  2  0  0  0  0  0  0  0  0  0
  186.0790  178.5320  144.6660 C   0  0  1  0  0  3  0  0  0  0  0  0
  187.4760  176.2550  143.7340 C   0  0  0  0  0  2  0  0  0  0  0  0
  187.2730  178.2910  146.9440 C   0  0  0  0  0  2  0  0  0  0  0  0
  186.0000  178.7680  146.1930 C   0  0  0  0  0  2  0  0  0  0  0  0
  187.8530  176.9710  146.3790 C   0  0  0  0  0  2  0  0  0  0  0  0
  186.4630  177.0680  144.5000 C   0  0  1  0  0  3  0  0  0  0  0  0
  188.8450  178.3170  144.3680 C   0  0  2  0  0  3  0  0  0  0  0  0
  188.9240  178.3990  142.9710 O   0  0  0  0  0  1  0  0  0  0  0  0
  190.2470  178.3170  144.9750 C   0  0  0  0  0  2  0  0  0  0  0  0
  191.5700  176.8710  146.5140 C   0  0  0  0  0  1  0  0  0  0  0  0
  190.7650  176.9040  145.2280 C   0  0  2  0  0  3  0  0  0  0  0  0
  191.5940  176.3970  144.0910 C   0  0  0  0  0  0  0  0  0  0  0  0
  191.9820  175.0640  144.0750 O   0  0  0  0  0  1  0  0  0  0  0  0
  191.9760  177.1660  143.1680 O   0  0  0  0  0  0  0  0  0  0  0  0
  183.6330  179.1550  144.8300 C   0  0  0  0  0  1  0  0  0  0  0  0
  184.7990  178.8220  144.0150 N   0  0  0  0  0  0  0  0  0  0  0  0
  180.8630  177.9010  140.1470 C   0  0  0  0  0  1  0  0  0  0  0  0
  184.4550  178.5210  139.8080 C   0  0  0  0  0  0  0  0  0  0  0  0
  183.4200  178.4340  141.9930 C   0  0  0  0  0  3  0  0  0  0  0  0
  182.8280  178.1450  138.4910 C   0  0  0  0  0  0  0  0  0  0  0  0
  183.3520  178.3450  140.6040 C   0  0  0  0  0  0  0  0  0  0  0  0
  185.8080  178.8980  141.7470 C   0  0  0  0  0  3  0  0  0  0  0  0
  184.1570  178.4010  138.4990 N   0  0  0  0  0  0  0  0  0  0  0  0
  185.7060  178.8020  140.3490 C   0  0  0  0  0  3  0  0  0  0  0  0
  182.0810  177.9610  137.2940 N   0  0  0  0  0  1  0  0  0  0  0  0
  182.2910  178.1060  139.7690 C   0  0  0  0  0  0  0  0  0  0  0  0
  184.6740  178.7150  142.5820 C   0  0  1  0  0  3  0  0  0  0  0  0
  1  8  1  6  0  0  0
  1  6  1  0  0  0  0
  2 17  1  6  0  0  0
  2  5  1  0  0  0  0
  3  1  1  0  0  0  0
  5  4  1  0  0  0  0
  6  4  1  0  0  0  0
  7  3  1  6  0  0  0
  7  2  1  0  0  0  0
  7  1  1  0  0  0  0
  8  9  1  6  0  0  0
  8 10  1  0  0  0  0
 10 12  1  0  0  0  0
 12 11  1  1  0  0  0
 13 12  1  0  0  0  0
 14 13  1  0  0  0  0
 15 13  2  0  0  0  0
 17 16  1  0  0  0  0
 19 25  1  0  0  0  0
 19 22  1  0  0  0  0
 20 28  1  0  0  0  0
 21 24  1  0  0  0  0
 21 27  2  0  0  0  0
 22 20  2  0  0  0  0
 23 28  1  0  0  0  0
 24 19  2  0  0  0  0
 25 23  2  0  0  0  0
 26 21  1  0  0  0  0
 27 18  1  0  0  0  0
 27 22  1  0  0  0  0
 28 17  1  6  0  0  0
M  END
>  <MODEL>
9

>  <REMARK>
 VINA RESULT:      -7.6      2.644      5.314
  Name = 
  6 active torsions:
  status: ('A' for Active; 'I' for Inactive)
    1  A    between atoms: C_1  and  C_2
    2  A    between atoms: C_2  and  C_3
    3  A    between atoms: C_3  and  C_11
    4  A    between atoms: C_6  and  C_11
    5  A    between atoms: C_16  and  N_20
    6  A    between atoms: N_20  and  C_25
                            x       y       z     vdW  Elec       q    Type
                         _______ _______ _______ _____ _____    ______ ____

>  <TORSDO>
F 6

$$$$
