=
 OpenBabel10272400543D

 25 29  0  0  1  0  0  0  0  0999 V2000
  188.2120  177.5440  143.7260 C   0  0  1  0  0  0  0  0  0  0  0  0
  186.8580  178.1590  143.4710 C   0  0  0  0  0  0  0  0  0  0  0  0
  187.6650  177.3240  146.1800 C   0  0  0  0  0  2  0  0  0  0  0  0
  189.3720  178.0860  142.8960 C   0  0  0  0  0  2  0  0  0  0  0  0
  191.9140  177.8240  143.4160 C   0  0  0  0  0  2  0  0  0  0  0  0
  186.3170  177.8090  145.8650 N   0  0  0  0  0  2  0  0  0  0  0  0
  190.5400  177.9640  143.8640 C   0  0  1  0  0  0  0  0  0  0  0  0
  191.4030  179.1480  143.8190 N   0  0  0  0  0  2  0  0  0  0  0  0
  184.6260  178.6930  144.2940 C   0  0  0  0  0  0  0  0  0  0  0  0
  183.6190  178.7780  145.3900 C   0  0  0  0  0  1  0  0  0  0  0  0
  186.4720  178.5650  142.1860 C   0  0  0  0  0  3  0  0  0  0  0  0
  188.6230  177.9030  145.1530 C   0  0  1  0  0  3  0  0  0  0  0  0
  190.1060  177.6400  145.2790 C   0  0  0  0  0  2  0  0  0  0  0  0
  184.2650  179.1110  143.0110 C   0  0  0  0  0  3  0  0  0  0  0  0
  185.1850  179.0510  141.9520 C   0  0  0  0  0  0  0  0  0  0  0  0
  185.9210  178.2070  144.5340 C   0  0  0  0  0  0  0  0  0  0  0  0
  184.8330  179.4640  140.6260 N   0  0  0  0  0  0  0  0  0  0  0  0
  183.7140  179.1430  140.0590 C   0  0  0  0  0  3  0  0  0  0  0  0
  182.0420  180.1590  138.4750 C   0  0  2  0  0  3  0  0  0  0  0  0
  183.4180  179.6090  138.6700 C   0  0  1  0  0  3  0  0  0  0  0  0
  183.1590  180.9910  138.6880 O   0  0  0  0  0  0  0  0  0  0  0  0
  180.3110  181.1220  139.4560 C   0  0  0  0  0  1  0  0  0  0  0  0
  181.2650  180.1210  139.6380 O   0  0  0  0  0  0  0  0  0  0  0  0
  188.1270  176.0210  143.5370 C   0  0  0  0  0  2  0  0  0  0  0  0
  189.2010  175.5530  142.7990 F   0  0  0  0  0  0  0  0  0  0  0  0
  1 24  1  6  0  0  0
  1 12  1  0  0  0  0
  2  1  1  0  0  0  0
  2 16  1  0  0  0  0
  4  1  1  0  0  0  0
  5  8  1  0  0  0  0
  5  7  1  0  0  0  0
  6  3  1  0  0  0  0
  7  4  1  6  0  0  0
  7 13  1  0  0  0  0
  8  7  1  0  0  0  0
  9 16  2  0  0  0  0
  9 10  1  0  0  0  0
 11  2  2  0  0  0  0
 12 13  1  1  0  0  0
 12  3  1  0  0  0  0
 14  9  1  0  0  0  0
 15 11  1  0  0  0  0
 15 14  2  0  0  0  0
 16  6  1  0  0  0  0
 17 15  1  0  0  0  0
 18 17  2  0  0  0  0
 19 20  1  0  0  0  0
 19 21  1  0  0  0  0
 19 23  1  1  0  0  0
 20 21  1  0  0  0  0
 20 18  1  1  0  0  0
 22 23  1  0  0  0  0
 25 24  1  0  0  0  0
M  END
>  <MODEL>
1

>  <REMARK>
 VINA RESULT:      -8.4      0.000      0.000
  Name = 
  4 active torsions:
  status: ('A' for Active; 'I' for Inactive)
    1  A    between atoms: C_1  and  C_17
    2  A    between atoms: C_2  and  O_12
    3  A    between atoms: N_6  and  C_23
    4  A    between atoms: C_15  and  C_21
                            x       y       z     vdW  Elec       q    Type
                         _______ _______ _______ _____ _____    ______ ____

>  <TORSDO>
F 4

$$$$
=
 OpenBabel10272400543D

 25 29  0  0  1  0  0  0  0  0999 V2000
  188.0660  177.5800  143.6830 C   0  0  1  0  0  0  0  0  0  0  0  0
  186.7720  178.1040  143.1120 C   0  0  0  0  0  0  0  0  0  0  0  0
  187.0750  177.6190  146.0040 C   0  0  0  0  0  2  0  0  0  0  0  0
  189.3500  178.0720  143.0210 C   0  0  0  0  0  2  0  0  0  0  0  0
  191.7550  177.9790  144.0260 C   0  0  0  0  0  2  0  0  0  0  0  0
  185.8000  178.0080  145.3910 N   0  0  0  0  0  2  0  0  0  0  0  0
  190.3190  178.1110  144.1940 C   0  0  1  0  0  0  0  0  0  0  0  0
  191.1510  179.3180  144.1650 N   0  0  0  0  0  2  0  0  0  0  0  0
  184.4150  178.6340  143.4410 C   0  0  0  0  0  0  0  0  0  0  0  0
  183.2190  178.8020  144.3160 C   0  0  0  0  0  1  0  0  0  0  0  0
  186.6250  178.3430  141.7390 C   0  0  0  0  0  3  0  0  0  0  0  0
  188.1960  178.1170  145.1070 C   0  0  1  0  0  3  0  0  0  0  0  0
  189.6340  177.9330  145.5340 C   0  0  0  0  0  2  0  0  0  0  0  0
  184.2920  178.8870  142.0730 C   0  0  0  0  0  3  0  0  0  0  0  0
  185.3950  178.7450  141.2150 C   0  0  0  0  0  0  0  0  0  0  0  0
  185.6510  178.2340  143.9720 C   0  0  0  0  0  0  0  0  0  0  0  0
  185.2890  178.9880  139.8070 N   0  0  0  0  0  0  0  0  0  0  0  0
  185.8180  178.2160  138.9140 C   0  0  0  0  0  3  0  0  0  0  0  0
  186.9230  178.4040  136.6610 C   0  0  2  0  0  3  0  0  0  0  0  0
  185.6680  178.5360  137.4630 C   0  0  1  0  0  3  0  0  0  0  0  0
  185.9470  177.3870  136.7010 O   0  0  0  0  0  0  0  0  0  0  0  0
  189.0740  178.8130  136.9620 C   0  0  0  0  0  1  0  0  0  0  0  0
  188.0270  178.0170  137.4270 O   0  0  0  0  0  0  0  0  0  0  0  0
  188.0490  176.0430  143.6660 C   0  0  0  0  0  2  0  0  0  0  0  0
  189.0980  175.5440  142.9120 F   0  0  0  0  0  0  0  0  0  0  0  0
  1 24  1  1  0  0  0
  1 12  1  0  0  0  0
  2  1  1  0  0  0  0
  2 16  1  0  0  0  0
  4  1  1  0  0  0  0
  5  8  1  0  0  0  0
  5  7  1  0  0  0  0
  6  3  1  0  0  0  0
  7  4  1  6  0  0  0
  7 13  1  0  0  0  0
  8  7  1  0  0  0  0
  9 16  2  0  0  0  0
  9 10  1  0  0  0  0
 11  2  2  0  0  0  0
 12 13  1  1  0  0  0
 12  3  1  0  0  0  0
 14  9  1  0  0  0  0
 15 11  1  0  0  0  0
 15 14  2  0  0  0  0
 16  6  1  0  0  0  0
 17 15  1  0  0  0  0
 18 17  2  0  0  0  0
 19 21  1  0  0  0  0
 19 23  1  1  0  0  0
 19 20  1  0  0  0  0
 20 18  1  1  0  0  0
 21 20  1  0  0  0  0
 22 23  1  0  0  0  0
 25 24  1  0  0  0  0
M  END
>  <MODEL>
2

>  <REMARK>
 VINA RESULT:      -8.2      2.304      2.971
  Name = 
  4 active torsions:
  status: ('A' for Active; 'I' for Inactive)
    1  A    between atoms: C_1  and  C_17
    2  A    between atoms: C_2  and  O_12
    3  A    between atoms: N_6  and  C_23
    4  A    between atoms: C_15  and  C_21
                            x       y       z     vdW  Elec       q    Type
                         _______ _______ _______ _____ _____    ______ ____

>  <TORSDO>
F 4

$$$$
=
 OpenBabel10272400543D

 25 29  0  0  1  0  0  0  0  0999 V2000
  188.2850  177.5180  143.7900 C   0  0  1  0  0  0  0  0  0  0  0  0
  186.9240  178.1130  143.5280 C   0  0  0  0  0  0  0  0  0  0  0  0
  187.7720  177.3930  146.2580 C   0  0  0  0  0  2  0  0  0  0  0  0
  189.4300  178.0330  142.9240 C   0  0  0  0  0  2  0  0  0  0  0  0
  191.9810  177.8100  143.4190 C   0  0  0  0  0  2  0  0  0  0  0  0
  186.4160  177.8560  145.9420 N   0  0  0  0  0  2  0  0  0  0  0  0
  190.6120  177.9580  143.8800 C   0  0  1  0  0  0  0  0  0  0  0  0
  191.4660  179.1460  143.7750 N   0  0  0  0  0  2  0  0  0  0  0  0
  184.6990  178.6660  144.3580 C   0  0  0  0  0  0  0  0  0  0  0  0
  183.7060  178.7890  145.4640 C   0  0  0  0  0  1  0  0  0  0  0  0
  186.5180  178.4640  142.2330 C   0  0  0  0  0  3  0  0  0  0  0  0
  188.7120  177.9370  145.1950 C   0  0  1  0  0  3  0  0  0  0  0  0
  190.1980  177.6890  145.3120 C   0  0  0  0  0  2  0  0  0  0  0  0
  184.3180  179.0290  143.0640 C   0  0  0  0  0  3  0  0  0  0  0  0
  185.2250  178.9320  141.9960 C   0  0  0  0  0  0  0  0  0  0  0  0
  186.0000  178.1980  144.6010 C   0  0  0  0  0  0  0  0  0  0  0  0
  184.8520  179.2890  140.6590 N   0  0  0  0  0  0  0  0  0  0  0  0
  183.6530  179.1400  140.1960 C   0  0  0  0  0  3  0  0  0  0  0  0
  182.6000  178.4990  138.0010 C   0  0  2  0  0  3  0  0  0  0  0  0
  183.3410  179.5320  138.7880 C   0  0  1  0  0  3  0  0  0  0  0  0
  181.9450  179.5840  138.6180 O   0  0  0  0  0  0  0  0  0  0  0  0
  181.6050  176.5300  137.8600 C   0  0  0  0  0  1  0  0  0  0  0  0
  182.3470  177.3310  138.7290 O   0  0  0  0  0  0  0  0  0  0  0  0
  188.2090  175.9880  143.6630 C   0  0  0  0  0  2  0  0  0  0  0  0
  189.2630  175.5000  142.9100 F   0  0  0  0  0  0  0  0  0  0  0  0
  1 24  1  6  0  0  0
  1 12  1  0  0  0  0
  2  1  1  0  0  0  0
  2 16  1  0  0  0  0
  4  1  1  0  0  0  0
  5  8  1  0  0  0  0
  5  7  1  0  0  0  0
  6  3  1  0  0  0  0
  7  4  1  6  0  0  0
  7 13  1  0  0  0  0
  8  7  1  0  0  0  0
  9 16  2  0  0  0  0
  9 10  1  0  0  0  0
 11  2  2  0  0  0  0
 12 13  1  1  0  0  0
 12  3  1  0  0  0  0
 14  9  1  0  0  0  0
 15 11  1  0  0  0  0
 15 14  2  0  0  0  0
 16  6  1  0  0  0  0
 17 15  1  0  0  0  0
 18 17  2  0  0  0  0
 19 21  1  0  0  0  0
 19 23  1  1  0  0  0
 19 20  1  0  0  0  0
 20 18  1  1  0  0  0
 21 20  1  0  0  0  0
 22 23  1  0  0  0  0
 25 24  1  0  0  0  0
M  END
>  <MODEL>
3

>  <REMARK>
 VINA RESULT:      -8.0      1.052      1.298
  Name = 
  4 active torsions:
  status: ('A' for Active; 'I' for Inactive)
    1  A    between atoms: C_1  and  C_17
    2  A    between atoms: C_2  and  O_12
    3  A    between atoms: N_6  and  C_23
    4  A    between atoms: C_15  and  C_21
                            x       y       z     vdW  Elec       q    Type
                         _______ _______ _______ _____ _____    ______ ____

>  <TORSDO>
F 4

$$$$
=
 OpenBabel10272400543D

 25 29  0  0  1  0  0  0  0  0999 V2000
  188.3760  177.5040  143.3170 C   0  0  1  0  0  0  0  0  0  0  0  0
  187.1980  178.0150  142.5260 C   0  0  0  0  0  0  0  0  0  0  0  0
  187.0250  177.6440  145.4440 C   0  0  0  0  0  2  0  0  0  0  0  0
  189.7560  177.9590  142.8520 C   0  0  0  0  0  2  0  0  0  0  0  0
  191.9670  177.8880  144.2350 C   0  0  0  0  0  2  0  0  0  0  0  0
  185.8710  178.0170  144.6200 N   0  0  0  0  0  2  0  0  0  0  0  0
  190.5240  178.0380  144.1640 C   0  0  1  0  0  0  0  0  0  0  0  0
  191.3670  179.2360  144.2240 N   0  0  0  0  0  2  0  0  0  0  0  0
  184.8270  178.5760  142.4490 C   0  0  0  0  0  0  0  0  0  0  0  0
  183.5080  178.7880  143.1130 C   0  0  0  0  0  1  0  0  0  0  0  0
  187.2780  178.2000  141.1380 C   0  0  0  0  0  3  0  0  0  0  0  0
  188.2830  178.0970  144.7220 C   0  0  1  0  0  3  0  0  0  0  0  0
  189.6310  177.9190  145.3820 C   0  0  0  0  0  2  0  0  0  0  0  0
  184.9290  178.7750  141.0710 C   0  0  0  0  0  3  0  0  0  0  0  0
  186.1530  178.5900  140.4080 C   0  0  0  0  0  0  0  0  0  0  0  0
  185.9560  178.1880  143.1870 C   0  0  0  0  0  0  0  0  0  0  0  0
  186.2780  178.7770  138.9930 N   0  0  0  0  0  0  0  0  0  0  0  0
  186.0500  177.8380  138.1330 C   0  0  0  0  0  3  0  0  0  0  0  0
  187.0620  177.1240  135.9410 C   0  0  2  0  0  3  0  0  0  0  0  0
  186.2050  178.1080  136.6710 C   0  0  1  0  0  3  0  0  0  0  0  0
  185.6550  177.0400  135.9400 O   0  0  0  0  0  0  0  0  0  0  0  0
  188.3820  175.3520  135.9310 C   0  0  0  0  0  1  0  0  0  0  0  0
  187.5840  176.1270  136.7720 O   0  0  0  0  0  0  0  0  0  0  0  0
  188.3410  175.9680  143.3570 C   0  0  0  0  0  2  0  0  0  0  0  0
  189.5210  175.4320  142.8710 F   0  0  0  0  0  0  0  0  0  0  0  0
  1 24  1  1  0  0  0
  1 12  1  0  0  0  0
  2 16  1  0  0  0  0
  2  1  1  0  0  0  0
  4  1  1  0  0  0  0
  6  3  1  0  0  0  0
  7  4  1  6  0  0  0
  7  8  1  0  0  0  0
  7  5  1  0  0  0  0
  7 13  1  0  0  0  0
  8  5  1  0  0  0  0
  9 10  1  0  0  0  0
  9 16  2  0  0  0  0
 11  2  2  0  0  0  0
 12 13  1  1  0  0  0
 12  3  1  0  0  0  0
 14  9  1  0  0  0  0
 15 14  2  0  0  0  0
 15 11  1  0  0  0  0
 16  6  1  0  0  0  0
 17 15  1  0  0  0  0
 18 17  2  0  0  0  0
 19 20  1  0  0  0  0
 19 23  1  1  0  0  0
 20 18  1  1  0  0  0
 21 19  1  0  0  0  0
 21 20  1  0  0  0  0
 22 23  1  0  0  0  0
 25 24  1  0  0  0  0
M  END
>  <MODEL>
4

>  <REMARK>
 VINA RESULT:      -7.4      2.809      3.473
  Name = 
  4 active torsions:
  status: ('A' for Active; 'I' for Inactive)
    1  A    between atoms: C_1  and  C_17
    2  A    between atoms: C_2  and  O_12
    3  A    between atoms: N_6  and  C_23
    4  A    between atoms: C_15  and  C_21
                            x       y       z     vdW  Elec       q    Type
                         _______ _______ _______ _____ _____    ______ ____

>  <TORSDO>
F 4

$$$$
=
 OpenBabel10272400543D

 25 29  0  0  1  0  0  0  0  0999 V2000
  187.9430  177.3670  143.4110 C   0  0  1  0  0  0  0  0  0  0  0  0
  187.1870  177.8890  144.6070 C   0  0  0  0  0  0  0  0  0  0  0  0
  190.0710  177.3050  144.7650 C   0  0  0  0  0  2  0  0  0  0  0  0
  187.5140  177.9040  142.0490 C   0  0  0  0  0  2  0  0  0  0  0  0
  188.8930  177.8150  139.8360 C   0  0  0  0  0  2  0  0  0  0  0  0
  189.2730  177.6940  145.9330 N   0  0  0  0  0  2  0  0  0  0  0  0
  188.8300  177.9160  141.2830 C   0  0  1  0  0  0  0  0  0  0  0  0
  188.9770  179.1380  140.4850 N   0  0  0  0  0  2  0  0  0  0  0  0
  187.1450  178.3680  146.9980 C   0  0  0  0  0  0  0  0  0  0  0  0
  187.8200  178.4830  148.3230 C   0  0  0  0  0  1  0  0  0  0  0  0
  185.8160  178.1760  144.5350 C   0  0  0  0  0  3  0  0  0  0  0  0
  189.3860  177.8540  143.5260 C   0  0  1  0  0  3  0  0  0  0  0  0
  190.0340  177.6780  142.1720 C   0  0  0  0  0  2  0  0  0  0  0  0
  185.7850  178.6680  146.9040 C   0  0  0  0  0  3  0  0  0  0  0  0
  185.1140  178.5750  145.6730 C   0  0  0  0  0  0  0  0  0  0  0  0
  187.8560  177.9690  145.8550 C   0  0  0  0  0  0  0  0  0  0  0  0
  183.7160  178.8680  145.5560 N   0  0  0  0  0  0  0  0  0  0  0  0
  183.0860  178.8650  144.4250 C   0  0  0  0  0  3  0  0  0  0  0  0
  181.0100  179.1030  143.0210 C   0  0  2  0  0  3  0  0  0  0  0  0
  181.6270  179.1850  144.3810 C   0  0  1  0  0  3  0  0  0  0  0  0
  180.9140  178.0500  143.9530 O   0  0  0  0  0  0  0  0  0  0  0  0
  181.2750  179.0630  140.8280 C   0  0  0  0  0  1  0  0  0  0  0  0
  181.9260  178.7560  142.0220 O   0  0  0  0  0  0  0  0  0  0  0  0
  187.8720  175.8310  143.3900 C   0  0  0  0  0  2  0  0  0  0  0  0
  189.0770  175.2850  142.9810 F   0  0  0  0  0  0  0  0  0  0  0  0
  1 24  1  6  0  0  0
  1 12  1  0  0  0  0
  1  2  1  0  0  0  0
  2 16  1  0  0  0  0
  3  6  1  0  0  0  0
  4  1  1  0  0  0  0
  5  8  1  0  0  0  0
  7  5  1  6  0  0  0
  7  4  1  0  0  0  0
  7 13  1  0  0  0  0
  8  7  1  0  0  0  0
  9 10  1  0  0  0  0
 11  2  2  0  0  0  0
 11 15  1  0  0  0  0
 12 13  1  6  0  0  0
 12  3  1  0  0  0  0
 14  9  1  0  0  0  0
 15 14  2  0  0  0  0
 16  6  1  0  0  0  0
 16  9  2  0  0  0  0
 17 15  1  0  0  0  0
 18 17  2  0  0  0  0
 19 23  1  6  0  0  0
 19 21  1  0  0  0  0
 19 20  1  0  0  0  0
 20 18  1  6  0  0  0
 21 20  1  0  0  0  0
 22 23  1  0  0  0  0
 25 24  1  0  0  0  0
M  END
>  <MODEL>
5

>  <REMARK>
 VINA RESULT:      -7.2      2.216      3.624
  Name = 
  4 active torsions:
  status: ('A' for Active; 'I' for Inactive)
    1  A    between atoms: C_1  and  C_17
    2  A    between atoms: C_2  and  O_12
    3  A    between atoms: N_6  and  C_23
    4  A    between atoms: C_15  and  C_21
                            x       y       z     vdW  Elec       q    Type
                         _______ _______ _______ _____ _____    ______ ____

>  <TORSDO>
F 4

$$$$
=
 OpenBabel10272400543D

 25 29  0  0  1  0  0  0  0  0999 V2000
  189.7590  178.0230  144.4390 C   0  0  1  0  0  0  0  0  0  0  0  0
  189.2650  177.8650  143.0230 C   0  0  0  0  0  0  0  0  0  0  0  0
  191.7770  176.6020  143.9090 C   0  0  0  0  0  2  0  0  0  0  0  0
  188.6930  178.0660  145.5300 C   0  0  0  0  0  2  0  0  0  0  0  0
  189.0600  177.6750  148.0830 C   0  0  0  0  0  2  0  0  0  0  0  0
  191.3230  176.5790  142.5140 N   0  0  0  0  0  2  0  0  0  0  0  0
  189.4070  177.4020  146.6990 C   0  0  1  0  0  0  0  0  0  0  0  0
  188.5230  176.4750  147.4130 N   0  0  0  0  0  2  0  0  0  0  0  0
  189.6950  177.1310  140.7380 C   0  0  0  0  0  0  0  0  0  0  0  0
  190.5330  176.4320  139.7220 C   0  0  0  0  0  1  0  0  0  0  0  0
  188.0670  178.4570  142.5980 C   0  0  0  0  0  3  0  0  0  0  0  0
  190.5540  176.7680  144.7960 C   0  0  1  0  0  3  0  0  0  0  0  0
  190.7090  176.7400  146.2990 C   0  0  0  0  0  2  0  0  0  0  0  0
  188.4890  177.7100  140.3360 C   0  0  0  0  0  3  0  0  0  0  0  0
  187.6690  178.3740  141.2630 C   0  0  0  0  0  0  0  0  0  0  0  0
  190.0970  177.2090  142.0800 C   0  0  0  0  0  0  0  0  0  0  0  0
  186.4330  178.9850  140.8710 N   0  0  0  0  0  0  0  0  0  0  0  0
  185.2750  178.4900  141.1670 C   0  0  0  0  0  3  0  0  0  0  0  0
  182.9460  178.2700  140.2360 C   0  0  2  0  0  3  0  0  0  0  0  0
  184.0280  179.1810  140.7200 C   0  0  1  0  0  3  0  0  0  0  0  0
  182.9580  178.7920  141.5450 O   0  0  0  0  0  0  0  0  0  0  0  0
  182.3250  176.2720  139.5250 C   0  0  0  0  0  1  0  0  0  0  0  0
  183.3080  176.9190  140.2730 O   0  0  0  0  0  0  0  0  0  0  0  0
  190.6320  179.2840  144.5400 C   0  0  0  0  0  2  0  0  0  0  0  0
  190.8810  179.8160  143.2870 F   0  0  0  0  0  0  0  0  0  0  0  0
  1 24  1  1  0  0  0
  1 12  1  0  0  0  0
  1  4  1  0  0  0  0
  2  1  1  0  0  0  0
  6  3  1  0  0  0  0
  7  4  1  6  0  0  0
  7  8  1  0  0  0  0
  7  5  1  0  0  0  0
  8  5  1  0  0  0  0
  9 16  1  0  0  0  0
 10  9  1  0  0  0  0
 11  2  1  0  0  0  0
 12  3  1  6  0  0  0
 12 13  1  0  0  0  0
 13  7  1  0  0  0  0
 14  9  2  0  0  0  0
 14 15  1  0  0  0  0
 15 11  2  0  0  0  0
 16  6  1  0  0  0  0
 16  2  2  0  0  0  0
 17 18  2  0  0  0  0
 17 15  1  0  0  0  0
 19 23  1  1  0  0  0
 19 20  1  0  0  0  0
 19 21  1  0  0  0  0
 20 18  1  1  0  0  0
 20 21  1  0  0  0  0
 22 23  1  0  0  0  0
 25 24  1  0  0  0  0
M  END
>  <MODEL>
6

>  <REMARK>
 VINA RESULT:      -7.1      2.476      4.260
  Name = 
  4 active torsions:
  status: ('A' for Active; 'I' for Inactive)
    1  A    between atoms: C_1  and  C_17
    2  A    between atoms: C_2  and  O_12
    3  A    between atoms: N_6  and  C_23
    4  A    between atoms: C_15  and  C_21
                            x       y       z     vdW  Elec       q    Type
                         _______ _______ _______ _____ _____    ______ ____

>  <TORSDO>
F 4

$$$$
=
 OpenBabel10272400543D

 25 29  0  0  1  0  0  0  0  0999 V2000
  188.7750  177.2910  137.9060 C   0  0  1  0  0  0  0  0  0  0  0  0
  188.5640  177.5620  139.3750 C   0  0  0  0  0  0  0  0  0  0  0  0
  186.4180  178.0480  137.4140 C   0  0  0  0  0  2  0  0  0  0  0  0
  189.6450  176.0880  137.5560 C   0  0  0  0  0  2  0  0  0  0  0  0
  189.7570  174.8650  135.2550 C   0  0  0  0  0  2  0  0  0  0  0  0
  186.3000  178.4140  138.8300 N   0  0  0  0  0  2  0  0  0  0  0  0
  189.0130  175.6050  136.2580 C   0  0  1  0  0  0  0  0  0  0  0  0
  188.9090  174.1420  136.2220 N   0  0  0  0  0  2  0  0  0  0  0  0
  187.1810  178.5270  141.1370 C   0  0  0  0  0  0  0  0  0  0  0  0
  185.9200  179.1640  141.6110 C   0  0  0  0  0  1  0  0  0  0  0  0
  189.5790  177.3260  140.3130 C   0  0  0  0  0  3  0  0  0  0  0  0
  187.4220  176.9130  137.3060 C   0  0  1  0  0  3  0  0  0  0  0  0
  187.6840  176.2690  135.9640 C   0  0  0  0  0  2  0  0  0  0  0  0
  188.1960  178.2670  142.0610 C   0  0  0  0  0  3  0  0  0  0  0  0
  189.3980  177.6640  141.6550 C   0  0  0  0  0  0  0  0  0  0  0  0
  187.3580  178.1850  139.7870 C   0  0  0  0  0  0  0  0  0  0  0  0
  190.4560  177.3980  142.5840 N   0  0  0  0  0  0  0  0  0  0  0  0
  190.4650  177.8540  143.7950 C   0  0  0  0  0  3  0  0  0  0  0  0
  191.2080  177.0040  146.0450 C   0  0  2  0  0  3  0  0  0  0  0  0
  191.6060  177.5360  144.7060 C   0  0  1  0  0  3  0  0  0  0  0  0
  191.6060  176.1590  144.9900 O   0  0  0  0  0  0  0  0  0  0  0  0
  189.6020  177.2970  147.5350 C   0  0  0  0  0  1  0  0  0  0  0  0
  189.8210  176.9160  146.2110 O   0  0  0  0  0  0  0  0  0  0  0  0
  189.3540  178.5440  137.2310 C   0  0  0  0  0  2  0  0  0  0  0  0
  189.3560  179.6200  138.1020 F   0  0  0  0  0  0  0  0  0  0  0  0
  1 24  1  6  0  0  0
  1  2  1  0  0  0  0
  2 16  2  0  0  0  0
  2 11  1  0  0  0  0
  3  6  1  0  0  0  0
  4  1  1  0  0  0  0
  5  8  1  0  0  0  0
  6 16  1  0  0  0  0
  7  5  1  6  0  0  0
  7  4  1  0  0  0  0
  8  7  1  0  0  0  0
  9 10  1  0  0  0  0
  9 14  2  0  0  0  0
 11 15  2  0  0  0  0
 12 13  1  6  0  0  0
 12  3  1  0  0  0  0
 12  1  1  0  0  0  0
 13  7  1  0  0  0  0
 15 14  1  0  0  0  0
 15 17  1  0  0  0  0
 16  9  1  0  0  0  0
 17 18  2  0  0  0  0
 19 23  1  6  0  0  0
 20 18  1  6  0  0  0
 20 21  1  0  0  0  0
 20 19  1  0  0  0  0
 21 19  1  0  0  0  0
 23 22  1  0  0  0  0
 24 25  1  0  0  0  0
M  END
>  <MODEL>
7

>  <REMARK>
 VINA RESULT:      -6.8      5.269      7.987
  Name = 
  4 active torsions:
  status: ('A' for Active; 'I' for Inactive)
    1  A    between atoms: C_1  and  C_17
    2  A    between atoms: C_2  and  O_12
    3  A    between atoms: N_6  and  C_23
    4  A    between atoms: C_15  and  C_21
                            x       y       z     vdW  Elec       q    Type
                         _______ _______ _______ _____ _____    ______ ____

>  <TORSDO>
F 4

$$$$
=
 OpenBabel10272400543D

 25 29  0  0  1  0  0  0  0  0999 V2000
  183.0180  178.3240  139.9340 C   0  0  1  0  0  0  0  0  0  0  0  0
  183.8540  178.3880  141.1880 C   0  0  0  0  0  0  0  0  0  0  0  0
  180.9180  178.6290  141.3010 C   0  0  0  0  0  2  0  0  0  0  0  0
  183.4990  177.3710  138.8440 C   0  0  0  0  0  2  0  0  0  0  0  0
  182.0940  176.4510  136.8490 C   0  0  0  0  0  2  0  0  0  0  0  0
  181.7780  178.8100  142.4760 N   0  0  0  0  0  2  0  0  0  0  0  0
  182.1880  176.9100  138.2230 C   0  0  1  0  0  0  0  0  0  0  0  0
  182.2010  175.4700  137.9460 N   0  0  0  0  0  2  0  0  0  0  0  0
  183.9910  178.8530  143.5770 C   0  0  0  0  0  0  0  0  0  0  0  0
  183.3560  179.1630  144.8900 C   0  0  0  0  0  1  0  0  0  0  0  0
  185.2500  178.2660  141.1400 C   0  0  0  0  0  3  0  0  0  0  0  0
  181.6580  177.7430  140.3120 C   0  0  1  0  0  3  0  0  0  0  0  0
  180.9740  177.3150  139.0340 C   0  0  0  0  0  2  0  0  0  0  0  0
  185.3790  178.7100  143.5150 C   0  0  0  0  0  3  0  0  0  0  0  0
  186.0150  178.4140  142.2980 C   0  0  0  0  0  0  0  0  0  0  0  0
  183.2170  178.7020  142.4160 C   0  0  0  0  0  0  0  0  0  0  0  0
  187.4380  178.2730  142.2090 N   0  0  0  0  0  0  0  0  0  0  0  0
  188.0780  177.2490  142.6750 C   0  0  0  0  0  3  0  0  0  0  0  0
  190.2920  176.9690  143.8380 C   0  0  2  0  0  3  0  0  0  0  0  0
  189.5640  177.1740  142.5480 C   0  0  1  0  0  3  0  0  0  0  0  0
  190.0030  175.9030  142.9630 O   0  0  0  0  0  0  0  0  0  0  0  0
  190.2370  177.2840  146.0250 C   0  0  0  0  0  1  0  0  0  0  0  0
  189.4400  176.9040  144.9460 O   0  0  0  0  0  0  0  0  0  0  0  0
  182.8760  179.7350  139.3400 C   0  0  0  0  0  2  0  0  0  0  0  0
  184.0870  180.1890  138.8450 F   0  0  0  0  0  0  0  0  0  0  0  0
  1 24  1  6  0  0  0
  1 12  1  0  0  0  0
  1  2  1  0  0  0  0
  2 16  1  0  0  0  0
  3  6  1  0  0  0  0
  4  1  1  0  0  0  0
  5  8  1  0  0  0  0
  7  5  1  6  0  0  0
  7  4  1  0  0  0  0
  7 13  1  0  0  0  0
  8  7  1  0  0  0  0
  9 10  1  0  0  0  0
 11  2  2  0  0  0  0
 11 15  1  0  0  0  0
 12 13  1  6  0  0  0
 12  3  1  0  0  0  0
 14  9  1  0  0  0  0
 15 14  2  0  0  0  0
 16  6  1  0  0  0  0
 16  9  2  0  0  0  0
 17 15  1  0  0  0  0
 17 18  2  0  0  0  0
 19 23  1  1  0  0  0
 20 18  1  1  0  0  0
 20 21  1  0  0  0  0
 20 19  1  0  0  0  0
 21 19  1  0  0  0  0
 23 22  1  0  0  0  0
 25 24  1  0  0  0  0
M  END
>  <MODEL>
8

>  <REMARK>
 VINA RESULT:      -6.5      3.851      7.702
  Name = 
  4 active torsions:
  status: ('A' for Active; 'I' for Inactive)
    1  A    between atoms: C_1  and  C_17
    2  A    between atoms: C_2  and  O_12
    3  A    between atoms: N_6  and  C_23
    4  A    between atoms: C_15  and  C_21
                            x       y       z     vdW  Elec       q    Type
                         _______ _______ _______ _____ _____    ______ ____

>  <TORSDO>
F 4

$$$$
=
 OpenBabel10272400543D

 25 29  0  0  1  0  0  0  0  0999 V2000
  188.7090  177.1570  137.9300 C   0  0  1  0  0  0  0  0  0  0  0  0
  187.9440  177.6690  139.1250 C   0  0  0  0  0  0  0  0  0  0  0  0
  186.6290  177.3250  136.5100 C   0  0  0  0  0  2  0  0  0  0  0  0
  189.7760  176.1030  138.2070 C   0  0  0  0  0  2  0  0  0  0  0  0
  190.8630  174.4920  136.4670 C   0  0  0  0  0  2  0  0  0  0  0  0
  185.9590  177.9350  137.6640 N   0  0  0  0  0  2  0  0  0  0  0  0
  189.7240  175.2570  136.9430 C   0  0  1  0  0  0  0  0  0  0  0  0
  189.8050  173.8250  137.2490 N   0  0  0  0  0  2  0  0  0  0  0  0
  185.9120  178.6740  140.0220 C   0  0  0  0  0  0  0  0  0  0  0  0
  184.5010  179.1340  139.8730 C   0  0  0  0  0  1  0  0  0  0  0  0
  188.5620  177.8270  140.3740 C   0  0  0  0  0  3  0  0  0  0  0  0
  187.7230  176.4090  137.0350 C   0  0  1  0  0  3  0  0  0  0  0  0
  188.5300  175.5760  136.0660 C   0  0  0  0  0  2  0  0  0  0  0  0
  186.5370  178.8070  141.2640 C   0  0  0  0  0  3  0  0  0  0  0  0
  187.8640  178.3830  141.4470 C   0  0  0  0  0  0  0  0  0  0  0  0
  186.6090  178.1120  138.9420 C   0  0  0  0  0  0  0  0  0  0  0  0
  188.5290  178.5190  142.7080 N   0  0  0  0  0  0  0  0  0  0  0  0
  189.7930  178.2940  142.8690 C   0  0  0  0  0  3  0  0  0  0  0  0
  191.4580  177.4330  144.5500 C   0  0  2  0  0  3  0  0  0  0  0  0
  190.4170  178.4530  144.2170 C   0  0  1  0  0  3  0  0  0  0  0  0
  191.7910  178.7140  144.0670 O   0  0  0  0  0  0  0  0  0  0  0  0
  191.9190  175.2990  144.2050 C   0  0  0  0  0  1  0  0  0  0  0  0
  191.6480  176.4910  143.5330 O   0  0  0  0  0  0  0  0  0  0  0  0
  189.3510  178.3400  137.1880 C   0  0  0  0  0  2  0  0  0  0  0  0
  189.2240  179.5100  137.9160 F   0  0  0  0  0  0  0  0  0  0  0  0
  1 24  1  6  0  0  0
  1  4  1  0  0  0  0
  1  2  1  0  0  0  0
  2 11  1  0  0  0  0
  3 12  1  0  0  0  0
  3  6  1  0  0  0  0
  5  7  1  0  0  0  0
  5  8  1  0  0  0  0
  6 16  1  0  0  0  0
  7 13  1  6  0  0  0
  7  8  1  0  0  0  0
  7  4  1  0  0  0  0
  9 14  2  0  0  0  0
 10  9  1  0  0  0  0
 11 15  2  0  0  0  0
 12 13  1  6  0  0  0
 12  1  1  0  0  0  0
 14 15  1  0  0  0  0
 15 17  1  0  0  0  0
 16  2  2  0  0  0  0
 16  9  1  0  0  0  0
 17 18  2  0  0  0  0
 19 23  1  6  0  0  0
 20 18  1  6  0  0  0
 20 19  1  0  0  0  0
 21 20  1  0  0  0  0
 21 19  1  0  0  0  0
 23 22  1  0  0  0  0
 24 25  1  0  0  0  0
M  END
>  <MODEL>
9

>  <REMARK>
 VINA RESULT:      -6.3      5.241      7.751
  Name = 
  4 active torsions:
  status: ('A' for Active; 'I' for Inactive)
    1  A    between atoms: C_1  and  C_17
    2  A    between atoms: C_2  and  O_12
    3  A    between atoms: N_6  and  C_23
    4  A    between atoms: C_15  and  C_21
                            x       y       z     vdW  Elec       q    Type
                         _______ _______ _______ _____ _____    ______ ____

>  <TORSDO>
F 4

$$$$
