=
 OpenBabel10272413393D

 32 36  0  0  1  0  0  0  0  0999 V2000
  183.6090  178.6750  143.5340 C   0  0  0  0  0  0  0  0  0  0  0  0
  188.2180  177.2850  142.4350 C   0  0  1  0  0  3  0  0  0  0  0  0
  189.6110  177.0250  140.3680 C   0  0  0  0  0  0  0  0  0  0  0  0
  190.9170  176.8870  139.7080 C   0  0  0  0  0  0  0  0  0  0  0  0
  186.1760  178.2410  142.3670 C   0  0  1  0  0  3  0  0  0  0  0  0
  186.9120  177.3520  144.6080 C   0  0  0  0  0  2  0  0  0  0  0  0
  193.4360  176.7260  138.4920 C   0  0  0  0  0  3  0  0  0  0  0  0
  184.6240  178.3220  144.3420 C   0  0  0  0  0  3  0  0  0  0  0  0
  188.2610  177.3210  143.9510 C   0  0  0  0  0  0  0  0  0  0  0  0
  189.4050  177.4580  144.6430 C   0  0  0  0  0  0  0  0  0  0  0  0
  190.7220  176.8710  142.6240 C   0  0  2  0  0  3  0  0  0  0  0  0
  192.2780  176.6640  137.7110 C   0  0  0  0  0  3  0  0  0  0  0  0
  183.8220  179.0270  142.0760 C   0  0  0  0  0  2  0  0  0  0  0  0
  186.0560  178.3980  143.8960 C   0  0  2  0  0  3  0  0  0  0  0  0
  191.0200  176.7480  138.3170 C   0  0  0  0  0  3  0  0  0  0  0  0
  185.2870  179.2860  141.7120 C   0  0  0  0  0  2  0  0  0  0  0  0
  190.7070  177.6700  143.9320 C   0  0  1  0  0  3  0  0  0  0  0  0
  191.9790  177.0810  141.9030 N   0  0  0  0  0  2  0  0  0  0  0  0
  187.5160  178.4140  141.9650 O   0  0  0  0  0  0  0  0  0  0  0  0
  188.5540  177.0150  139.6770 O   0  0  0  0  0  0  0  0  0  0  0  0
  193.3360  176.8640  139.8800 C   0  0  0  0  0  3  0  0  0  0  0  0
  189.5430  177.1900  141.7980 N   0  0  0  0  0  0  0  0  0  0  0  0
  192.0780  176.9350  140.4880 C   0  0  0  0  0  0  0  0  0  0  0  0
  189.4120  177.5260  147.2430 N   0  0  0  0  0  0  0  0  0  0  0  0
  189.4090  177.4960  146.0860 C   0  0  0  0  0  0  0  0  0  0  0  0
  192.1350  179.6560  144.4450 C   0  0  0  0  0  1  0  0  0  0  0  0
  190.9120  179.1640  143.6940 C   0  0  0  0  0  2  0  0  0  0  0  0
  182.2150  178.5940  144.0540 C   0  0  0  0  0  2  0  0  0  0  0  0
  180.6160  179.7090  142.4690 C   0  0  0  0  0  0  0  0  0  0  0  0
  181.4610  179.7560  143.6180 N   0  0  0  0  0  2  0  0  0  0  0  0
  179.9830  180.7380  142.1180 O   0  0  0  0  0  1  0  0  0  0  0  0
  180.4890  178.5370  141.7340 O   0  0  0  0  0  0  0  0  0  0  0  0
  1 28  1  0  0  0  0
  1  8  2  0  0  0  0
  2 19  1  6  0  0  0
  2  9  1  0  0  0  0
  3 22  1  0  0  0  0
  4  3  1  0  0  0  0
  4 23  1  0  0  0  0
  5 16  1  6  0  0  0
  5 14  1  0  0  0  0
  7 21  1  0  0  0  0
  9  6  1  0  0  0  0
  9 10  2  0  0  0  0
 10 25  1  0  0  0  0
 11 18  1  6  0  0  0
 11 17  1  0  0  0  0
 12 15  1  0  0  0  0
 12  7  2  0  0  0  0
 13  1  1  0  0  0  0
 14  8  1  1  0  0  0
 14  6  1  0  0  0  0
 15  4  2  0  0  0  0
 16 13  1  0  0  0  0
 17 27  1  6  0  0  0
 17 10  1  0  0  0  0
 19  5  1  0  0  0  0
 20  3  2  0  0  0  0
 21 23  2  0  0  0  0
 22  2  1  0  0  0  0
 22 11  1  0  0  0  0
 23 18  1  0  0  0  0
 25 24  3  0  0  0  0
 27 26  1  0  0  0  0
 29 30  1  0  0  0  0
 30 28  1  0  0  0  0
 31 29  1  0  0  0  0
 32 29  2  0  0  0  0
M  END
>  <MODEL>
1

>  <REMARK>
 VINA RESULT:      -8.9      0.000      0.000
  Name = 
  4 active torsions:
  status: ('A' for Active; 'I' for Inactive)
    1  A    between atoms: C_2  and  C_24
    2  A    between atoms: N_10  and  C_24
    3  A    between atoms: C_13  and  C_15
    4  A    between atoms: C_25  and  C_26
                            x       y       z     vdW  Elec       q    Type
                         _______ _______ _______ _____ _____    ______ ____

>  <TORSDO>
F 4

$$$$
=
 OpenBabel10272413393D

 32 36  0  0  1  0  0  0  0  0999 V2000
  189.0450  177.3450  144.3820 C   0  0  0  0  0  0  0  0  0  0  0  0
  190.1870  177.2990  139.5780 C   0  0  1  0  0  3  0  0  0  0  0  0
  192.0920  176.5120  138.1540 C   0  0  0  0  0  0  0  0  0  0  0  0
  192.6510  176.1400  136.8450 C   0  0  0  0  0  0  0  0  0  0  0  0
  190.0780  176.8090  141.7770 C   0  0  1  0  0  3  0  0  0  0  0  0
  188.2430  178.2840  140.8760 C   0  0  0  0  0  2  0  0  0  0  0  0
  193.6360  175.3480  134.3460 C   0  0  0  0  0  3  0  0  0  0  0  0
  188.3340  177.7580  143.3180 C   0  0  0  0  0  3  0  0  0  0  0  0
  188.7570  177.8070  139.5490 C   0  0  0  0  0  0  0  0  0  0  0  0
  187.9710  177.7070  138.4630 C   0  0  0  0  0  0  0  0  0  0  0  0
  189.9530  177.2490  137.0440 C   0  0  2  0  0  3  0  0  0  0  0  0
  194.4800  175.3510  135.4610 C   0  0  0  0  0  3  0  0  0  0  0  0
  190.2630  176.4540  144.2440 C   0  0  0  0  0  2  0  0  0  0  0  0
  188.6070  177.2430  141.9340 C   0  0  2  0  0  3  0  0  0  0  0  0
  193.9880  175.7430  136.7090 C   0  0  0  0  0  3  0  0  0  0  0  0
  190.3910  175.7960  142.8660 C   0  0  0  0  0  2  0  0  0  0  0  0
  188.4540  176.9980  137.2350 C   0  0  1  0  0  3  0  0  0  0  0  0
  190.4490  176.5480  135.8580 N   0  0  0  0  0  2  0  0  0  0  0  0
  190.2830  176.2400  140.5040 O   0  0  0  0  0  0  0  0  0  0  0  0
  192.8260  176.4810  139.1810 O   0  0  0  0  0  0  0  0  0  0  0  0
  192.3020  175.7440  134.4780 C   0  0  0  0  0  3  0  0  0  0  0  0
  190.7060  176.8940  138.2610 N   0  0  0  0  0  0  0  0  0  0  0  0
  191.8120  176.1490  135.7240 C   0  0  0  0  0  0  0  0  0  0  0  0
  185.5220  178.5830  138.4810 N   0  0  0  0  0  0  0  0  0  0  0  0
  186.6120  178.1930  138.4740 C   0  0  0  0  0  0  0  0  0  0  0  0
  187.0300  175.1290  136.3820 C   0  0  0  0  0  1  0  0  0  0  0  0
  188.1310  175.5100  137.3530 C   0  0  0  0  0  2  0  0  0  0  0  0
  188.7020  177.8830  145.7280 C   0  0  0  0  0  2  0  0  0  0  0  0
  186.6440  178.4560  147.0510 C   0  0  0  0  0  0  0  0  0  0  0  0
  187.2670  178.0950  145.8190 N   0  0  0  0  0  2  0  0  0  0  0  0
  185.3980  178.6250  147.0940 O   0  0  0  0  0  0  0  0  0  0  0  0
  187.4020  178.6200  148.2040 O   0  0  0  0  0  1  0  0  0  0  0  0
  1 28  1  0  0  0  0
  2  9  1  6  0  0  0
  2 19  1  0  0  0  0
  3 22  1  0  0  0  0
  3 20  2  0  0  0  0
  4  3  1  0  0  0  0
  5 14  1  0  0  0  0
  5 16  1  1  0  0  0
  7 21  2  0  0  0  0
  7 12  1  0  0  0  0
  8  1  2  0  0  0  0
  9  6  1  0  0  0  0
 10 25  1  0  0  0  0
 10  9  2  0  0  0  0
 11 18  1  6  0  0  0
 11 17  1  0  0  0  0
 11 22  1  0  0  0  0
 12 15  2  0  0  0  0
 13  1  1  0  0  0  0
 14  6  1  6  0  0  0
 14  8  1  0  0  0  0
 15  4  1  0  0  0  0
 16 13  1  0  0  0  0
 17 27  1  1  0  0  0
 17 10  1  0  0  0  0
 19  5  1  0  0  0  0
 21 23  1  0  0  0  0
 22  2  1  0  0  0  0
 23 18  1  0  0  0  0
 23  4  2  0  0  0  0
 25 24  3  0  0  0  0
 26 27  1  0  0  0  0
 28 30  1  0  0  0  0
 29 31  2  0  0  0  0
 29 32  1  0  0  0  0
 30 29  1  0  0  0  0
M  END
>  <MODEL>
2

>  <REMARK>
 VINA RESULT:      -8.6      3.584      6.055
  Name = 
  4 active torsions:
  status: ('A' for Active; 'I' for Inactive)
    1  A    between atoms: C_2  and  C_24
    2  A    between atoms: N_10  and  C_24
    3  A    between atoms: C_13  and  C_15
    4  A    between atoms: C_25  and  C_26
                            x       y       z     vdW  Elec       q    Type
                         _______ _______ _______ _____ _____    ______ ____

>  <TORSDO>
F 4

$$$$
=
 OpenBabel10272413393D

 32 36  0  0  1  0  0  0  0  0999 V2000
  186.1350  178.3740  146.0750 C   0  0  0  0  0  0  0  0  0  0  0  0
  185.5140  178.6650  141.1850 C   0  0  1  0  0  3  0  0  0  0  0  0
  186.9170  178.3320  139.1360 C   0  0  0  0  0  0  0  0  0  0  0  0
  187.0450  178.1130  137.6880 C   0  0  0  0  0  0  0  0  0  0  0  0
  186.2770  178.1220  143.2370 C   0  0  1  0  0  3  0  0  0  0  0  0
  183.9940  179.1860  143.1470 C   0  0  0  0  0  2  0  0  0  0  0  0
  187.2300  177.5990  134.9400 C   0  0  0  0  0  3  0  0  0  0  0  0
  185.0320  178.6450  145.3560 C   0  0  0  0  0  3  0  0  0  0  0  0
  184.0950  178.8560  141.6870 C   0  0  0  0  0  0  0  0  0  0  0  0
  183.0150  178.6100  140.9250 C   0  0  0  0  0  0  0  0  0  0  0  0
  184.4250  178.6150  138.8850 C   0  0  2  0  0  3  0  0  0  0  0  0
  188.3920  177.7610  135.7000 C   0  0  0  0  0  3  0  0  0  0  0  0
  187.3760  177.7670  145.4530 C   0  0  0  0  0  2  0  0  0  0  0  0
  184.8990  178.2270  143.9200 C   0  0  2  0  0  3  0  0  0  0  0  0
  188.3010  178.0140  137.0730 C   0  0  0  0  0  3  0  0  0  0  0  0
  187.1410  177.1790  144.0580 C   0  0  0  0  0  2  0  0  0  0  0  0
  183.1660  178.0450  139.5460 C   0  0  1  0  0  3  0  0  0  0  0  0
  184.6030  178.0590  137.5420 N   0  0  0  0  0  2  0  0  0  0  0  0
  186.1310  177.6340  141.9220 O   0  0  0  0  0  0  0  0  0  0  0  0
  187.9540  178.4390  139.8480 O   0  0  0  0  0  0  0  0  0  0  0  0
  185.9760  177.6970  135.5500 C   0  0  0  0  0  3  0  0  0  0  0  0
  185.6100  178.4060  139.7380 N   0  0  0  0  0  0  0  0  0  0  0  0
  185.8830  177.9640  136.9210 C   0  0  0  0  0  0  0  0  0  0  0  0
  180.6060  178.9420  141.8490 N   0  0  0  0  0  0  0  0  0  0  0  0
  181.6790  178.7940  141.4380 C   0  0  0  0  0  0  0  0  0  0  0  0
  181.8590  175.9390  139.2250 C   0  0  0  0  0  1  0  0  0  0  0  0
  183.2010  176.5200  139.6290 C   0  0  0  0  0  2  0  0  0  0  0  0
  186.1860  178.8000  147.5020 C   0  0  0  0  0  2  0  0  0  0  0  0
  188.3820  178.1030  148.5030 C   0  0  0  0  0  0  0  0  0  0  0  0
  187.5590  179.0870  147.8790 N   0  0  0  0  0  2  0  0  0  0  0  0
  189.5650  178.3890  148.8220 O   0  0  0  0  0  1  0  0  0  0  0  0
  187.8870  176.8310  148.7630 O   0  0  0  0  0  0  0  0  0  0  0  0
  1 28  1  0  0  0  0
  2  9  1  1  0  0  0
  2 19  1  0  0  0  0
  3 22  1  0  0  0  0
  3 20  2  0  0  0  0
  4  3  1  0  0  0  0
  5 14  1  0  0  0  0
  5 16  1  1  0  0  0
  7 21  2  0  0  0  0
  7 12  1  0  0  0  0
  8  1  2  0  0  0  0
  9  6  1  0  0  0  0
 10 25  1  0  0  0  0
 10  9  2  0  0  0  0
 11 18  1  6  0  0  0
 11 17  1  0  0  0  0
 11 22  1  0  0  0  0
 12 15  2  0  0  0  0
 13  1  1  0  0  0  0
 14  6  1  6  0  0  0
 14  8  1  0  0  0  0
 15  4  1  0  0  0  0
 16 13  1  0  0  0  0
 17 27  1  1  0  0  0
 17 10  1  0  0  0  0
 19  5  1  0  0  0  0
 21 23  1  0  0  0  0
 22  2  1  0  0  0  0
 23 18  1  0  0  0  0
 23  4  2  0  0  0  0
 25 24  3  0  0  0  0
 26 27  1  0  0  0  0
 28 30  1  0  0  0  0
 29 32  2  0  0  0  0
 29 31  1  0  0  0  0
 30 29  1  0  0  0  0
M  END
>  <MODEL>
3

>  <REMARK>
 VINA RESULT:      -7.9      3.571      6.818
  Name = 
  4 active torsions:
  status: ('A' for Active; 'I' for Inactive)
    1  A    between atoms: C_2  and  C_24
    2  A    between atoms: N_10  and  C_24
    3  A    between atoms: C_13  and  C_15
    4  A    between atoms: C_25  and  C_26
                            x       y       z     vdW  Elec       q    Type
                         _______ _______ _______ _____ _____    ______ ____

>  <TORSDO>
F 4

$$$$
=
 OpenBabel10272413393D

 32 36  0  0  1  0  0  0  0  0999 V2000
  192.9210  175.1600  137.0740 C   0  0  0  0  0  0  0  0  0  0  0  0
  189.2410  177.6010  139.2830 C   0  0  1  0  0  3  0  0  0  0  0  0
  186.8130  178.0430  138.8480 C   0  0  0  0  0  0  0  0  0  0  0  0
  185.4800  178.4600  139.3080 C   0  0  0  0  0  0  0  0  0  0  0  0
  190.4190  176.1470  138.0230 C   0  0  1  0  0  3  0  0  0  0  0  0
  191.7130  177.3770  139.8030 C   0  0  0  0  0  2  0  0  0  0  0  0
  182.9420  179.1680  140.2580 C   0  0  0  0  0  3  0  0  0  0  0  0
  192.9020  175.8290  138.2400 C   0  0  0  0  0  3  0  0  0  0  0  0
  190.3430  177.7020  140.3210 C   0  0  0  0  0  0  0  0  0  0  0  0
  190.0980  177.9240  141.6240 C   0  0  0  0  0  0  0  0  0  0  0  0
  187.7920  178.6630  141.0860 C   0  0  2  0  0  3  0  0  0  0  0  0
  183.1220  178.8640  138.9060 C   0  0  0  0  0  3  0  0  0  0  0  0
  191.6520  174.7570  136.3520 C   0  0  0  0  0  2  0  0  0  0  0  0
  191.6230  176.0900  138.9830 C   0  0  2  0  0  3  0  0  0  0  0  0
  184.3880  178.5070  138.4310 C   0  0  0  0  0  3  0  0  0  0  0  0
  190.3920  174.8570  137.2190 C   0  0  0  0  0  2  0  0  0  0  0  0
  188.6900  177.9980  142.1330 C   0  0  1  0  0  3  0  0  0  0  0  0
  186.4070  178.7280  141.5560 N   0  0  0  0  0  2  0  0  0  0  0  0
  189.2220  176.2940  138.7540 O   0  0  0  0  0  0  0  0  0  0  0  0
  186.9880  177.7230  137.6390 O   0  0  0  0  0  0  0  0  0  0  0  0
  184.0300  179.1230  141.1360 C   0  0  0  0  0  3  0  0  0  0  0  0
  187.9090  177.9840  139.7830 N   0  0  0  0  0  0  0  0  0  0  0  0
  185.3000  178.7780  140.6590 C   0  0  0  0  0  0  0  0  0  0  0  0
  192.0300  178.0710  143.3580 N   0  0  0  0  0  0  0  0  0  0  0  0
  191.1700  178.0060  142.5860 C   0  0  0  0  0  0  0  0  0  0  0  0
  187.7670  176.5410  143.9420 C   0  0  0  0  0  1  0  0  0  0  0  0
  188.2110  176.5930  142.4930 C   0  0  0  0  0  2  0  0  0  0  0  0
  194.2310  174.9200  136.4060 C   0  0  0  0  0  2  0  0  0  0  0  0
  194.9210  177.1210  135.4090 C   0  0  0  0  0  0  0  0  0  0  0  0
  195.0270  176.1350  136.4360 N   0  0  0  0  0  2  0  0  0  0  0  0
  195.6310  178.1580  135.4660 O   0  0  0  0  0  1  0  0  0  0  0  0
  194.0420  176.9440  134.3480 O   0  0  0  0  0  0  0  0  0  0  0  0
  1  8  2  0  0  0  0
  2 19  1  1  0  0  0
  2 22  1  0  0  0  0
  2  9  1  0  0  0  0
  3  4  1  0  0  0  0
  3 22  1  0  0  0  0
  4 23  1  0  0  0  0
  5 16  1  1  0  0  0
  5 19  1  0  0  0  0
  5 14  1  0  0  0  0
  6  9  1  0  0  0  0
  7 21  1  0  0  0  0
  9 10  2  0  0  0  0
 10 17  1  0  0  0  0
 10 25  1  0  0  0  0
 11 18  1  1  0  0  0
 11 17  1  0  0  0  0
 12  7  2  0  0  0  0
 13  1  1  0  0  0  0
 13 16  1  0  0  0  0
 14  8  1  6  0  0  0
 14  6  1  0  0  0  0
 15 12  1  0  0  0  0
 15  4  2  0  0  0  0
 17 27  1  6  0  0  0
 20  3  2  0  0  0  0
 22 11  1  0  0  0  0
 23 21  2  0  0  0  0
 23 18  1  0  0  0  0
 25 24  3  0  0  0  0
 27 26  1  0  0  0  0
 28 30  1  0  0  0  0
 28  1  1  0  0  0  0
 29 31  1  0  0  0  0
 29 30  1  0  0  0  0
 32 29  2  0  0  0  0
M  END
>  <MODEL>
4

>  <REMARK>
 VINA RESULT:      -7.3      3.114      8.825
  Name = 
  4 active torsions:
  status: ('A' for Active; 'I' for Inactive)
    1  A    between atoms: C_2  and  C_24
    2  A    between atoms: N_10  and  C_24
    3  A    between atoms: C_13  and  C_15
    4  A    between atoms: C_25  and  C_26
                            x       y       z     vdW  Elec       q    Type
                         _______ _______ _______ _____ _____    ______ ____

>  <TORSDO>
F 4

$$$$
=
 OpenBabel10272413393D

 32 36  0  0  1  0  0  0  0  0999 V2000
  192.9070  175.4970  137.4230 C   0  0  0  0  0  0  0  0  0  0  0  0
  189.0520  177.7710  139.5100 C   0  0  1  0  0  3  0  0  0  0  0  0
  186.6300  178.1300  138.9810 C   0  0  0  0  0  0  0  0  0  0  0  0
  185.2650  178.4920  139.3900 C   0  0  0  0  0  0  0  0  0  0  0  0
  190.3340  176.3790  138.2810 C   0  0  1  0  0  3  0  0  0  0  0  0
  191.5090  177.6290  140.1280 C   0  0  0  0  0  2  0  0  0  0  0  0
  182.6660  179.0940  140.2450 C   0  0  0  0  0  3  0  0  0  0  0  0
  192.8160  176.1480  138.5960 C   0  0  0  0  0  3  0  0  0  0  0  0
  190.1080  177.8970  140.5940 C   0  0  0  0  0  0  0  0  0  0  0  0
  189.8010  178.0910  141.8880 C   0  0  0  0  0  0  0  0  0  0  0  0
  187.4930  178.7540  141.2650 C   0  0  2  0  0  3  0  0  0  0  0  0
  182.9120  178.8160  138.8970 C   0  0  0  0  0  3  0  0  0  0  0  0
  191.6840  175.0580  136.6450 C   0  0  0  0  0  2  0  0  0  0  0  0
  191.4990  176.3510  139.2890 C   0  0  2  0  0  3  0  0  0  0  0  0
  184.2080  178.5120  138.4700 C   0  0  0  0  0  3  0  0  0  0  0  0
  190.3880  175.1010  137.4600 C   0  0  0  0  0  2  0  0  0  0  0  0
  188.3720  178.1070  142.3400 C   0  0  1  0  0  3  0  0  0  0  0  0
  186.0890  178.7620  141.6790 N   0  0  0  0  0  2  0  0  0  0  0  0
  189.1040  176.4720  138.9640 O   0  0  0  0  0  0  0  0  0  0  0  0
  186.8660  177.8340  137.7760 O   0  0  0  0  0  0  0  0  0  0  0  0
  183.7180  179.0760  141.1650 C   0  0  0  0  0  3  0  0  0  0  0  0
  187.6880  178.0980  139.9590 N   0  0  0  0  0  0  0  0  0  0  0  0
  185.0180  178.7850  140.7370 C   0  0  0  0  0  0  0  0  0  0  0  0
  191.6550  178.2840  143.7010 N   0  0  0  0  0  0  0  0  0  0  0  0
  190.8290  178.1980  142.8940 C   0  0  0  0  0  0  0  0  0  0  0  0
  187.5440  176.5640  144.1230 C   0  0  0  0  0  1  0  0  0  0  0  0
  187.9300  176.6810  142.6610 C   0  0  0  0  0  2  0  0  0  0  0  0
  194.2510  175.3140  136.8070 C   0  0  0  0  0  2  0  0  0  0  0  0
  195.6250  173.8100  138.2780 C   0  0  0  0  0  0  0  0  0  0  0  0
  194.7730  174.0020  137.1490 N   0  0  0  0  0  2  0  0  0  0  0  0
  196.0630  172.6600  138.5400 O   0  0  0  0  0  0  0  0  0  0  0  0
  195.9750  174.8820  139.0890 O   0  0  0  0  0  1  0  0  0  0  0  0
  1  8  2  0  0  0  0
  2 19  1  1  0  0  0
  2 22  1  0  0  0  0
  2  9  1  0  0  0  0
  3  4  1  0  0  0  0
  3 22  1  0  0  0  0
  4 23  1  0  0  0  0
  5 16  1  1  0  0  0
  5 19  1  0  0  0  0
  5 14  1  0  0  0  0
  6  9  1  0  0  0  0
  7 21  1  0  0  0  0
  9 10  2  0  0  0  0
 10 17  1  0  0  0  0
 10 25  1  0  0  0  0
 11 18  1  1  0  0  0
 11 17  1  0  0  0  0
 12  7  2  0  0  0  0
 13  1  1  0  0  0  0
 13 16  1  0  0  0  0
 14  8  1  6  0  0  0
 14  6  1  0  0  0  0
 15 12  1  0  0  0  0
 15  4  2  0  0  0  0
 17 27  1  6  0  0  0
 20  3  2  0  0  0  0
 22 11  1  0  0  0  0
 23 21  2  0  0  0  0
 23 18  1  0  0  0  0
 25 24  3  0  0  0  0
 27 26  1  0  0  0  0
 28 30  1  0  0  0  0
 28  1  1  0  0  0  0
 29 31  2  0  0  0  0
 29 32  1  0  0  0  0
 30 29  1  0  0  0  0
M  END
>  <MODEL>
5

>  <REMARK>
 VINA RESULT:      -7.2      3.074      8.918
  Name = 
  4 active torsions:
  status: ('A' for Active; 'I' for Inactive)
    1  A    between atoms: C_2  and  C_24
    2  A    between atoms: N_10  and  C_24
    3  A    between atoms: C_13  and  C_15
    4  A    between atoms: C_25  and  C_26
                            x       y       z     vdW  Elec       q    Type
                         _______ _______ _______ _____ _____    ______ ____

>  <TORSDO>
F 4

$$$$
=
 OpenBabel10272413393D

 32 36  0  0  1  0  0  0  0  0999 V2000
  182.3300  178.7930  139.5150 C   0  0  0  0  0  0  0  0  0  0  0  0
  186.0790  178.7730  142.7290 C   0  0  1  0  0  3  0  0  0  0  0  0
  186.3670  178.5490  145.2080 C   0  0  0  0  0  0  0  0  0  0  0  0
  187.2070  178.2860  146.3850 C   0  0  0  0  0  0  0  0  0  0  0  0
  184.0800  178.4360  141.7390 C   0  0  1  0  0  3  0  0  0  0  0  0
  185.9600  179.1630  140.2250 C   0  0  0  0  0  2  0  0  0  0  0  0
  188.8300  177.6790  148.5870 C   0  0  0  0  0  3  0  0  0  0  0  0
  183.6550  178.8730  139.3020 C   0  0  0  0  0  3  0  0  0  0  0  0
  186.8130  178.7840  141.4010 C   0  0  0  0  0  0  0  0  0  0  0  0
  188.0800  178.3550  141.2660 C   0  0  0  0  0  0  0  0  0  0  0  0
  188.4020  178.4660  143.7230 C   0  0  2  0  0  3  0  0  0  0  0  0
  187.4930  178.0380  148.7820 C   0  0  0  0  0  3  0  0  0  0  0  0
  181.7510  178.3400  140.8390 C   0  0  0  0  0  2  0  0  0  0  0  0
  184.6520  178.3770  140.3090 C   0  0  2  0  0  3  0  0  0  0  0  0
  186.6810  178.3370  147.6830 C   0  0  0  0  0  3  0  0  0  0  0  0
  182.7720  177.6620  141.7580 C   0  0  0  0  0  2  0  0  0  0  0  0
  188.8100  177.7550  142.4290 C   0  0  1  0  0  3  0  0  0  0  0  0
  189.0900  177.8820  144.8750 N   0  0  0  0  0  2  0  0  0  0  0  0
  184.9960  177.8730  142.6520 O   0  0  0  0  0  0  0  0  0  0  0  0
  185.1460  178.8330  145.3590 O   0  0  0  0  0  0  0  0  0  0  0  0
  189.3580  177.6270  147.2930 C   0  0  0  0  0  3  0  0  0  0  0  0
  186.9360  178.4650  143.8860 N   0  0  0  0  0  0  0  0  0  0  0  0
  188.5500  177.9400  146.1940 C   0  0  0  0  0  0  0  0  0  0  0  0
  189.2790  178.3850  138.9590 N   0  0  0  0  0  0  0  0  0  0  0  0
  188.7450  178.3720  139.9860 C   0  0  0  0  0  0  0  0  0  0  0  0
  189.7470  175.5020  142.9690 C   0  0  0  0  0  1  0  0  0  0  0  0
  188.5240  176.2560  142.4830 C   0  0  0  0  0  2  0  0  0  0  0  0
  181.4020  179.2860  138.4590 C   0  0  0  0  0  2  0  0  0  0  0  0
  181.1860  181.7890  138.4780 C   0  0  0  0  0  0  0  0  0  0  0  0
  181.8240  180.6020  138.0110 N   0  0  0  0  0  2  0  0  0  0  0  0
  181.5750  182.9110  138.0630 O   0  0  0  0  0  0  0  0  0  0  0  0
  180.1380  181.7160  139.3870 O   0  0  0  0  0  1  0  0  0  0  0  0
  1 13  1  0  0  0  0
  2  9  1  6  0  0  0
  2 22  1  0  0  0  0
  3 20  2  0  0  0  0
  3  4  1  0  0  0  0
  4 15  1  0  0  0  0
  5 16  1  6  0  0  0
  5 19  1  0  0  0  0
  6 14  1  0  0  0  0
  6  9  1  0  0  0  0
  7 12  1  0  0  0  0
  8  1  2  0  0  0  0
 10  9  2  0  0  0  0
 10 17  1  0  0  0  0
 11 22  1  0  0  0  0
 11 18  1  1  0  0  0
 13 16  1  0  0  0  0
 14  8  1  6  0  0  0
 14  5  1  0  0  0  0
 15 12  2  0  0  0  0
 17 27  1  1  0  0  0
 17 11  1  0  0  0  0
 18 23  1  0  0  0  0
 19  2  1  0  0  0  0
 21  7  2  0  0  0  0
 22  3  1  0  0  0  0
 23  4  2  0  0  0  0
 23 21  1  0  0  0  0
 24 25  3  0  0  0  0
 25 10  1  0  0  0  0
 27 26  1  0  0  0  0
 28  1  1  0  0  0  0
 29 32  1  0  0  0  0
 30 28  1  0  0  0  0
 30 29  1  0  0  0  0
 31 29  2  0  0  0  0
M  END
>  <MODEL>
6

>  <REMARK>
 VINA RESULT:      -7.0      2.991      5.868
  Name = 
  4 active torsions:
  status: ('A' for Active; 'I' for Inactive)
    1  A    between atoms: C_2  and  C_24
    2  A    between atoms: N_10  and  C_24
    3  A    between atoms: C_13  and  C_15
    4  A    between atoms: C_25  and  C_26
                            x       y       z     vdW  Elec       q    Type
                         _______ _______ _______ _____ _____    ______ ____

>  <TORSDO>
F 4

$$$$
=
 OpenBabel10272413393D

 32 36  0  0  1  0  0  0  0  0999 V2000
  182.3890  178.6890  139.5370 C   0  0  0  0  0  0  0  0  0  0  0  0
  186.1830  178.7050  142.6980 C   0  0  1  0  0  3  0  0  0  0  0  0
  186.5090  178.4770  145.1710 C   0  0  0  0  0  0  0  0  0  0  0  0
  187.3690  178.2200  146.3360 C   0  0  0  0  0  0  0  0  0  0  0  0
  184.1750  178.3460  141.7350 C   0  0  1  0  0  3  0  0  0  0  0  0
  186.0240  179.1000  140.1970 C   0  0  0  0  0  2  0  0  0  0  0  0
  189.0300  177.6260  148.5120 C   0  0  0  0  0  3  0  0  0  0  0  0
  183.7090  178.7860  139.3050 C   0  0  0  0  0  3  0  0  0  0  0  0
  186.8980  178.7290  141.3590 C   0  0  0  0  0  0  0  0  0  0  0  0
  188.1680  178.3150  141.2050 C   0  0  0  0  0  0  0  0  0  0  0  0
  188.5230  178.4230  143.6570 C   0  0  2  0  0  3  0  0  0  0  0  0
  187.6910  177.9680  148.7270 C   0  0  0  0  0  3  0  0  0  0  0  0
  181.8340  178.2250  140.8680 C   0  0  0  0  0  2  0  0  0  0  0  0
  184.7270  178.2980  140.2970 C   0  0  2  0  0  3  0  0  0  0  0  0
  186.8610  178.2610  147.6410 C   0  0  0  0  0  3  0  0  0  0  0  0
  182.8760  177.5570  141.7700 C   0  0  0  0  0  2  0  0  0  0  0  0
  188.9210  177.7200  142.3560 C   0  0  1  0  0  3  0  0  0  0  0  0
  189.2350  177.8430  144.7980 N   0  0  0  0  0  2  0  0  0  0  0  0
  185.1100  177.7920  142.6330 O   0  0  0  0  0  0  0  0  0  0  0  0
  185.2870  178.7460  145.3410 O   0  0  0  0  0  0  0  0  0  0  0  0
  189.5400  177.5840  147.2110 C   0  0  0  0  0  3  0  0  0  0  0  0
  187.0600  178.4030  143.8410 N   0  0  0  0  0  0  0  0  0  0  0  0
  188.7130  177.8900  146.1250 C   0  0  0  0  0  0  0  0  0  0  0  0
  189.3330  178.3660  138.8810 N   0  0  0  0  0  0  0  0  0  0  0  0
  188.8140  178.3430  139.9150 C   0  0  0  0  0  0  0  0  0  0  0  0
  189.8930  175.4770  142.8740 C   0  0  0  0  0  1  0  0  0  0  0  0
  188.6540  176.2180  142.4090 C   0  0  0  0  0  2  0  0  0  0  0  0
  181.4400  179.1740  138.4960 C   0  0  0  0  0  2  0  0  0  0  0  0
  181.2150  178.9960  136.0000 C   0  0  0  0  0  0  0  0  0  0  0  0
  181.6900  178.4820  137.2440 N   0  0  0  0  0  2  0  0  0  0  0  0
  181.4460  178.3650  134.9360 O   0  0  0  0  0  0  0  0  0  0  0  0
  180.5000  180.1860  135.9550 O   0  0  0  0  0  1  0  0  0  0  0  0
  1 13  1  0  0  0  0
  2  9  1  6  0  0  0
  2 22  1  0  0  0  0
  3 20  2  0  0  0  0
  3  4  1  0  0  0  0
  4 15  1  0  0  0  0
  5 16  1  6  0  0  0
  5 19  1  0  0  0  0
  6 14  1  0  0  0  0
  6  9  1  0  0  0  0
  7 12  1  0  0  0  0
  8  1  2  0  0  0  0
 10  9  2  0  0  0  0
 10 17  1  0  0  0  0
 11 22  1  0  0  0  0
 11 18  1  1  0  0  0
 13 16  1  0  0  0  0
 14  8  1  6  0  0  0
 14  5  1  0  0  0  0
 15 12  2  0  0  0  0
 17 27  1  1  0  0  0
 17 11  1  0  0  0  0
 18 23  1  0  0  0  0
 19  2  1  0  0  0  0
 21  7  2  0  0  0  0
 22  3  1  0  0  0  0
 23  4  2  0  0  0  0
 23 21  1  0  0  0  0
 24 25  3  0  0  0  0
 25 10  1  0  0  0  0
 27 26  1  0  0  0  0
 28  1  1  0  0  0  0
 29 30  1  0  0  0  0
 30 28  1  0  0  0  0
 31 29  2  0  0  0  0
 32 29  1  0  0  0  0
M  END
>  <MODEL>
7

>  <REMARK>
 VINA RESULT:      -6.6      3.138      6.037
  Name = 
  4 active torsions:
  status: ('A' for Active; 'I' for Inactive)
    1  A    between atoms: C_2  and  C_24
    2  A    between atoms: N_10  and  C_24
    3  A    between atoms: C_13  and  C_15
    4  A    between atoms: C_25  and  C_26
                            x       y       z     vdW  Elec       q    Type
                         _______ _______ _______ _____ _____    ______ ____

>  <TORSDO>
F 4

$$$$
