=
 OpenBabel10272414453D

 37 43  0  0  1  0  0  0  0  0999 V2000
  184.6210  178.6710  139.6450 C   0  0  2  0  0  3  0  0  0  0  0  0
  190.1740  179.0380  143.6940 C   0  0  0  0  0  2  0  0  0  0  0  0
  186.6220  176.1830  135.0340 C   0  0  0  0  0  2  0  0  0  0  0  0
  189.0980  177.5150  138.7280 N   0  0  0  0  0  0  0  0  0  0  0  0
  183.7300  178.5520  140.7370 O   0  0  0  0  0  0  0  0  0  0  0  0
  189.4570  177.7560  143.2140 C   0  0  2  0  0  0  0  0  0  0  0  0
  187.9560  177.9900  143.2980 C   0  0  0  0  0  2  0  0  0  0  0  0
  189.8090  176.5450  144.0850 C   0  0  0  0  0  2  0  0  0  0  0  0
  188.9730  178.1870  136.2410 C   0  0  0  0  0  2  0  0  0  0  0  0
  188.1720  177.3370  139.8340 C   0  0  1  0  0  3  0  0  0  0  0  0
  188.3790  178.0250  137.6100 C   0  0  0  0  0  0  0  0  0  0  0  0
  188.6360  178.2300  140.9710 C   0  0  1  0  0  3  0  0  0  0  0  0
  191.8240  175.2720  144.6030 C   0  0  0  0  0  2  0  0  0  0  0  0
  188.6750  176.9660  135.3810 C   0  0  0  0  0  2  0  0  0  0  0  0
  184.0530  179.5110  141.5960 O   0  0  0  0  0  0  0  0  0  0  0  0
  191.9910  177.6950  144.8060 C   0  0  0  0  0  2  0  0  0  0  0  0
  191.2820  176.4580  144.3500 C   0  0  0  0  0  0  0  0  0  0  0  0
  187.0920  178.1710  137.8820 C   0  0  0  0  0  0  0  0  0  0  0  0
  185.0770  177.4000  136.6170 C   0  0  0  0  0  2  0  0  0  0  0  0
  191.2000  176.8890  139.9240 O   0  0  0  0  0  0  0  0  0  0  0  0
  191.0120  176.7120  137.6510 O   0  0  0  0  0  0  0  0  0  0  0  0
  186.1170  178.3860  136.8590 N   0  0  0  0  0  2  0  0  0  0  0  0
  185.1260  179.0230  142.3710 C   0  0  2  0  0  3  0  0  0  0  0  0
  187.5690  178.6370  141.9770 C   0  0  1  0  0  3  0  0  0  0  0  0
  190.4630  177.0460  138.7350 C   0  0  0  0  0  0  0  0  0  0  0  0
  186.7670  177.6800  139.2670 C   0  0  2  0  0  3  0  0  0  0  0  0
  187.5130  177.1830  134.6360 O   0  0  0  0  0  0  0  0  0  0  0  0
  189.6620  177.4390  141.7300 C   0  0  1  0  0  3  0  0  0  0  0  0
  185.2370  176.7850  135.2320 C   0  0  0  0  0  2  0  0  0  0  0  0
  186.1610  178.2970  141.4990 C   0  0  2  0  0  3  0  0  0  0  0  0
  191.6840  178.8450  143.8550 C   0  0  0  0  0  2  0  0  0  0  0  0
  186.0360  178.6780  140.0760 N   0  0  2  0  0  0  0  0  0  0  0  0
  191.0320  177.6670  141.1120 C   0  0  0  0  0  2  0  0  0  0  0  0
  184.6220  178.1060  143.4770 C   0  0  0  0  0  2  0  0  0  0  0  0
  184.6280  178.8360  144.8050 C   0  0  0  0  0  1  0  0  0  0  0  0
  182.8290  180.0100  138.5360 C   0  0  0  0  0  1  0  0  0  0  0  0
  184.3130  179.9270  138.8340 C   0  0  0  0  0  2  0  0  0  0  0  0
  1 37  1  1  0  0  0
  1 32  1  0  0  0  0
  1  5  1  0  0  0  0
  2 31  1  0  0  0  0
  3 29  1  0  0  0  0
  4 25  1  0  0  0  0
  5 15  1  0  0  0  0
  6  7  1  1  0  0  0
  6  2  1  0  0  0  0
  6  8  1  0  0  0  0
  8 17  1  0  0  0  0
  9 11  1  0  0  0  0
 10  4  1  6  0  0  0
 10 12  1  0  0  0  0
 11 18  2  0  0  0  0
 11  4  1  0  0  0  0
 12 28  1  0  0  0  0
 12 24  1  0  0  0  0
 14  9  1  0  0  0  0
 15 23  1  0  0  0  0
 17 13  2  0  0  0  0
 17 16  1  0  0  0  0
 18 26  1  0  0  0  0
 19 22  1  0  0  0  0
 20 33  1  0  0  0  0
 21 25  2  0  0  0  0
 22 18  1  0  0  0  0
 23 34  1  0  0  0  0
 24  7  1  0  0  0  0
 25 20  1  0  0  0  0
 26 10  1  0  0  0  0
 26 32  1  0  0  0  0
 27  3  1  0  0  0  0
 27 14  1  0  0  0  0
 28  6  1  0  0  0  0
 29 19  1  0  0  0  0
 30 24  1  0  0  0  0
 30 23  1  0  0  0  0
 31 16  1  0  0  0  0
 32 30  1  0  0  0  0
 33 28  1  0  0  0  0
 34 35  1  0  0  0  0
 36 37  1  0  0  0  0
M  END
>  <MODEL>
1

>  <REMARK>
 VINA RESULT:      -8.4      0.000      0.000
  Name = 
  2 active torsions:
  status: ('A' for Active; 'I' for Inactive)
    1  A    between atoms: C_1  and  C_23
    2  A    between atoms: C_11  and  C_26
                            x       y       z     vdW  Elec       q    Type
                         _______ _______ _______ _____ _____    ______ ____

>  <TORSDO>
F 2

$$$$
=
 OpenBabel10272414453D

 37 43  0  0  1  0  0  0  0  0999 V2000
  189.6480  177.6880  142.5420 C   0  0  2  0  0  3  0  0  0  0  0  0
  184.0780  179.7890  139.0880 C   0  0  0  0  0  2  0  0  0  0  0  0
  187.6260  176.7580  147.6900 C   0  0  0  0  0  2  0  0  0  0  0  0
  185.2820  178.5400  144.1020 N   0  0  0  0  0  0  0  0  0  0  0  0
  190.2360  177.0970  141.3990 O   0  0  0  0  0  0  0  0  0  0  0  0
  184.3190  178.3910  139.7010 C   0  0  2  0  0  0  0  0  0  0  0  0
  185.7600  177.9900  139.4230 C   0  0  0  0  0  2  0  0  0  0  0  0
  183.3950  177.3320  139.0890 C   0  0  0  0  0  2  0  0  0  0  0  0
  186.0570  179.3850  146.4120 C   0  0  0  0  0  2  0  0  0  0  0  0
  185.8770  177.8800  142.9510 C   0  0  1  0  0  3  0  0  0  0  0  0
  186.3130  178.8430  145.0360 C   0  0  0  0  0  0  0  0  0  0  0  0
  185.6120  178.7480  141.7340 C   0  0  1  0  0  3  0  0  0  0  0  0
  180.9920  176.9250  139.0060 C   0  0  0  0  0  2  0  0  0  0  0  0
  186.0010  178.2540  147.4310 C   0  0  0  0  0  2  0  0  0  0  0  0
  190.1690  178.0000  140.4290 O   0  0  0  0  0  0  0  0  0  0  0  0
  181.7320  179.1710  138.4150 C   0  0  0  0  0  2  0  0  0  0  0  0
  181.9790  177.8140  138.9970 C   0  0  0  0  0  0  0  0  0  0  0  0
  187.4950  178.4270  144.6110 C   0  0  0  0  0  0  0  0  0  0  0  0
  189.2400  177.0620  145.7720 C   0  0  0  0  0  2  0  0  0  0  0  0
  182.9370  178.6790  143.2530 O   0  0  0  0  0  0  0  0  0  0  0  0
  183.4100  178.7030  145.4920 O   0  0  0  0  0  0  0  0  0  0  0  0
  188.6300  178.3480  145.4760 N   0  0  0  0  0  2  0  0  0  0  0  0
  188.8800  177.8990  139.8630 C   0  0  2  0  0  3  0  0  0  0  0  0
  186.5740  178.5740  140.5680 C   0  0  1  0  0  3  0  0  0  0  0  0
  183.8600  178.6610  144.3160 C   0  0  0  0  0  0  0  0  0  0  0  0
  187.3780  177.6930  143.3030 C   0  0  2  0  0  3  0  0  0  0  0  0
  187.2620  178.0700  148.0030 O   0  0  0  0  0  0  0  0  0  0  0  0
  184.2520  178.3550  141.2310 C   0  0  1  0  0  3  0  0  0  0  0  0
  189.0840  176.7260  147.2500 C   0  0  0  0  0  2  0  0  0  0  0  0
  187.8030  177.7540  140.9480 C   0  0  2  0  0  3  0  0  0  0  0  0
  182.6050  180.2010  139.1200 C   0  0  0  0  0  2  0  0  0  0  0  0
  188.2940  178.2140  142.2660 N   0  0  2  0  0  0  0  0  0  0  0  0
  183.1930  179.1830  141.9400 C   0  0  0  0  0  2  0  0  0  0  0  0
  188.8090  176.7370  138.8820 C   0  0  0  0  0  2  0  0  0  0  0  0
  189.2730  177.1820  137.5090 C   0  0  0  0  0  1  0  0  0  0  0  0
  191.8140  178.2130  143.6670 C   0  0  0  0  0  1  0  0  0  0  0  0
  190.5390  178.7980  143.0920 C   0  0  0  0  0  2  0  0  0  0  0  0
  1 37  1  6  0  0  0
  2 31  1  0  0  0  0
  3 27  1  0  0  0  0
  4 25  1  0  0  0  0
  4 11  1  0  0  0  0
  5  1  1  0  0  0  0
  6  2  1  6  0  0  0
  6 28  1  0  0  0  0
  7  6  1  0  0  0  0
  7 24  1  0  0  0  0
  8  6  1  0  0  0  0
  9 14  1  0  0  0  0
 10 26  1  0  0  0  0
 10  4  1  1  0  0  0
 11  9  1  0  0  0  0
 12 10  1  0  0  0  0
 14 27  1  0  0  0  0
 15  5  1  0  0  0  0
 16 17  1  0  0  0  0
 16 31  1  0  0  0  0
 17 13  2  0  0  0  0
 17  8  1  0  0  0  0
 18 11  2  0  0  0  0
 18 22  1  0  0  0  0
 19 29  1  0  0  0  0
 20 25  1  0  0  0  0
 22 19  1  0  0  0  0
 23 15  1  0  0  0  0
 23 30  1  0  0  0  0
 24 30  1  0  0  0  0
 24 12  1  0  0  0  0
 25 21  2  0  0  0  0
 26 18  1  0  0  0  0
 28 12  1  0  0  0  0
 28 33  1  0  0  0  0
 29  3  1  0  0  0  0
 30 32  1  0  0  0  0
 32  1  1  0  0  0  0
 32 26  1  0  0  0  0
 33 20  1  0  0  0  0
 34 23  1  0  0  0  0
 35 34  1  0  0  0  0
 37 36  1  0  0  0  0
M  END
>  <MODEL>
2

>  <REMARK>
 VINA RESULT:      -8.2      2.535      8.499
  Name = 
  2 active torsions:
  status: ('A' for Active; 'I' for Inactive)
    1  A    between atoms: C_1  and  C_23
    2  A    between atoms: C_11  and  C_26
                            x       y       z     vdW  Elec       q    Type
                         _______ _______ _______ _____ _____    ______ ____

>  <TORSDO>
F 2

$$$$
=
 OpenBabel10272414453D

 37 43  0  0  1  0  0  0  0  0999 V2000
  188.8210  177.8730  141.8050 C   0  0  2  0  0  3  0  0  0  0  0  0
  183.1700  179.9140  138.4490 C   0  0  0  0  0  2  0  0  0  0  0  0
  186.9000  176.9240  146.9880 C   0  0  0  0  0  2  0  0  0  0  0  0
  184.4750  178.6800  143.4410 N   0  0  0  0  0  0  0  0  0  0  0  0
  189.3950  177.2880  140.6520 O   0  0  0  0  0  0  0  0  0  0  0  0
  183.4360  178.5190  139.0580 C   0  0  2  0  0  0  0  0  0  0  0  0
  184.8770  178.1330  138.7550 C   0  0  0  0  0  2  0  0  0  0  0  0
  182.5130  177.4500  138.4620 C   0  0  0  0  0  2  0  0  0  0  0  0
  185.2810  179.5340  145.7370 C   0  0  0  0  0  2  0  0  0  0  0  0
  185.0560  178.0260  142.2810 C   0  0  1  0  0  3  0  0  0  0  0  0
  185.5180  178.9940  144.3570 C   0  0  0  0  0  0  0  0  0  0  0  0
  184.7600  178.8910  141.0680 C   0  0  1  0  0  3  0  0  0  0  0  0
  180.1130  177.0180  138.4220 C   0  0  0  0  0  2  0  0  0  0  0  0
  185.2550  178.4040  146.7570 C   0  0  0  0  0  2  0  0  0  0  0  0
  189.3020  178.1890  139.6830 O   0  0  0  0  0  0  0  0  0  0  0  0
  180.8190  179.2710  137.8170 C   0  0  0  0  0  2  0  0  0  0  0  0
  181.0900  177.9170  138.3960 C   0  0  0  0  0  0  0  0  0  0  0  0
  186.6970  178.5910  143.9120 C   0  0  0  0  0  0  0  0  0  0  0  0
  188.4770  177.2440  145.0420 C   0  0  0  0  0  2  0  0  0  0  0  0
  182.1140  178.7940  142.6340 O   0  0  0  0  0  0  0  0  0  0  0  0
  182.6250  178.8240  144.8640 O   0  0  0  0  0  0  0  0  0  0  0  0
  187.8480  178.5240  144.7570 N   0  0  0  0  0  2  0  0  0  0  0  0
  188.0040  178.0750  139.1400 C   0  0  2  0  0  3  0  0  0  0  0  0
  185.7040  178.7260  139.8860 C   0  0  1  0  0  3  0  0  0  0  0  0
  183.0550  178.7870  143.6810 C   0  0  0  0  0  0  0  0  0  0  0  0
  186.5650  177.8540  142.6060 C   0  0  2  0  0  3  0  0  0  0  0  0
  186.5270  178.2330  147.3080 O   0  0  0  0  0  0  0  0  0  0  0  0
  183.3970  178.4830  140.5890 C   0  0  1  0  0  3  0  0  0  0  0  0
  188.3500  176.9080  146.5230 C   0  0  0  0  0  2  0  0  0  0  0  0
  186.9480  177.9190  140.2440 C   0  0  2  0  0  3  0  0  0  0  0  0
  181.6930  180.3100  138.5070 C   0  0  0  0  0  2  0  0  0  0  0  0
  187.4570  178.3840  141.5530 N   0  0  2  0  0  0  0  0  0  0  0  0
  182.3420  179.3000  141.3160 C   0  0  0  0  0  2  0  0  0  0  0  0
  187.9280  176.9120  138.1610 C   0  0  0  0  0  2  0  0  0  0  0  0
  188.8320  177.1690  136.9710 C   0  0  0  0  0  1  0  0  0  0  0  0
  190.9810  178.4180  142.9330 C   0  0  0  0  0  1  0  0  0  0  0  0
  189.7100  178.9930  142.3390 C   0  0  0  0  0  2  0  0  0  0  0  0
  1 37  1  6  0  0  0
  2 31  1  0  0  0  0
  3 27  1  0  0  0  0
  4 25  1  0  0  0  0
  4 11  1  0  0  0  0
  5  1  1  0  0  0  0
  6  2  1  6  0  0  0
  6 28  1  0  0  0  0
  7  6  1  0  0  0  0
  7 24  1  0  0  0  0
  8  6  1  0  0  0  0
  9 14  1  0  0  0  0
 10 26  1  0  0  0  0
 10  4  1  1  0  0  0
 11  9  1  0  0  0  0
 12 10  1  0  0  0  0
 14 27  1  0  0  0  0
 15  5  1  0  0  0  0
 16 17  1  0  0  0  0
 16 31  1  0  0  0  0
 17 13  2  0  0  0  0
 17  8  1  0  0  0  0
 18 11  2  0  0  0  0
 18 22  1  0  0  0  0
 19 29  1  0  0  0  0
 20 25  1  0  0  0  0
 22 19  1  0  0  0  0
 23 15  1  0  0  0  0
 23 30  1  0  0  0  0
 24 30  1  0  0  0  0
 24 12  1  0  0  0  0
 25 21  2  0  0  0  0
 26 18  1  0  0  0  0
 28 12  1  0  0  0  0
 28 33  1  0  0  0  0
 29  3  1  0  0  0  0
 30 32  1  0  0  0  0
 32  1  1  0  0  0  0
 32 26  1  0  0  0  0
 33 20  1  0  0  0  0
 34 23  1  0  0  0  0
 35 34  1  0  0  0  0
 37 36  1  0  0  0  0
M  END
>  <MODEL>
3

>  <REMARK>
 VINA RESULT:      -6.6      2.411      8.530
  Name = 
  2 active torsions:
  status: ('A' for Active; 'I' for Inactive)
    1  A    between atoms: C_1  and  C_23
    2  A    between atoms: C_11  and  C_26
                            x       y       z     vdW  Elec       q    Type
                         _______ _______ _______ _____ _____    ______ ____

>  <TORSDO>
F 2

$$$$
=
 OpenBabel10272414453D

 37 43  0  0  1  0  0  0  0  0999 V2000
  186.3200  176.9060  137.3280 C   0  0  2  0  0  3  0  0  0  0  0  0
  192.9050  176.0260  135.5300 C   0  0  0  0  0  2  0  0  0  0  0  0
  184.1840  171.7550  136.7370 C   0  0  0  0  0  2  0  0  0  0  0  0
  188.4940  173.0800  135.6390 N   0  0  0  0  0  0  0  0  0  0  0  0
  186.6220  177.9430  138.2420 O   0  0  0  0  0  0  0  0  0  0  0  0
  192.1860  175.4140  136.7530 C   0  0  2  0  0  0  0  0  0  0  0  0
  191.2950  176.4840  137.3670 C   0  0  0  0  0  2  0  0  0  0  0  0
  193.1780  174.9390  137.8200 C   0  0  0  0  0  2  0  0  0  0  0  0
  186.4310  172.2320  134.3460 C   0  0  0  0  0  2  0  0  0  0  0  0
  188.7900  174.1090  136.6230 C   0  0  1  0  0  3  0  0  0  0  0  0
  187.1370  173.2150  135.2330 C   0  0  0  0  0  0  0  0  0  0  0  0
  189.8930  174.9860  136.0550 C   0  0  1  0  0  3  0  0  0  0  0  0
  194.9400  173.2580  137.9650 C   0  0  0  0  0  2  0  0  0  0  0  0
  185.6730  171.2070  135.1790 C   0  0  0  0  0  2  0  0  0  0  0  0
  187.4150  178.7930  137.6030 O   0  0  0  0  0  0  0  0  0  0  0  0
  195.0100  174.7370  136.0290 C   0  0  0  0  0  2  0  0  0  0  0  0
  194.3100  174.1600  137.2200 C   0  0  0  0  0  0  0  0  0  0  0  0
  186.5330  174.2060  135.8690 C   0  0  0  0  0  0  0  0  0  0  0  0
  184.3520  174.2490  137.0940 C   0  0  0  0  0  2  0  0  0  0  0  0
  190.7860  172.1040  135.4520 O   0  0  0  0  0  0  0  0  0  0  0  0
  188.9160  170.8920  134.9340 O   0  0  0  0  0  0  0  0  0  0  0  0
  185.1120  174.3630  135.8600 N   0  0  0  0  0  2  0  0  0  0  0  0
  188.7260  178.2810  137.6950 C   0  0  2  0  0  3  0  0  0  0  0  0
  189.9760  176.3980  136.6150 C   0  0  1  0  0  3  0  0  0  0  0  0
  189.3890  171.9960  135.3110 C   0  0  0  0  0  0  0  0  0  0  0  0
  187.4450  174.8410  136.8840 C   0  0  2  0  0  3  0  0  0  0  0  0
  184.3520  171.6240  135.3560 O   0  0  0  0  0  0  0  0  0  0  0  0
  191.1860  174.3070  136.4060 C   0  0  1  0  0  3  0  0  0  0  0  0
  183.4250  173.0410  137.0380 C   0  0  0  0  0  2  0  0  0  0  0  0
  188.7520  176.7650  137.4490 C   0  0  2  0  0  3  0  0  0  0  0  0
  193.9880  175.1060  134.9610 C   0  0  0  0  0  2  0  0  0  0  0  0
  187.5380  176.3090  136.7380 N   0  0  2  0  0  0  0  0  0  0  0  0
  191.5430  173.3090  135.3170 C   0  0  0  0  0  2  0  0  0  0  0  0
  189.3430  178.6120  139.0470 C   0  0  0  0  0  2  0  0  0  0  0  0
  189.1450  177.4590  140.0090 C   0  0  0  0  0  1  0  0  0  0  0  0
  186.1850  177.6500  134.9480 C   0  0  0  0  0  1  0  0  0  0  0  0
  185.3990  177.4160  136.2230 C   0  0  0  0  0  2  0  0  0  0  0  0
  1 37  1  6  0  0  0
  1  5  1  0  0  0  0
  3 29  1  0  0  0  0
  6  2  1  6  0  0  0
  6  7  1  0  0  0  0
  6  8  1  0  0  0  0
  9 14  1  0  0  0  0
  9 11  1  0  0  0  0
 10  4  1  6  0  0  0
 10 26  1  0  0  0  0
 11  4  1  0  0  0  0
 11 18  2  0  0  0  0
 12 28  1  0  0  0  0
 12 24  1  0  0  0  0
 12 10  1  0  0  0  0
 14 27  1  0  0  0  0
 15 23  1  0  0  0  0
 15  5  1  0  0  0  0
 16 17  1  0  0  0  0
 17  8  1  0  0  0  0
 17 13  2  0  0  0  0
 18 26  1  0  0  0  0
 21 25  2  0  0  0  0
 22 18  1  0  0  0  0
 22 19  1  0  0  0  0
 23 34  1  0  0  0  0
 24  7  1  0  0  0  0
 24 30  1  0  0  0  0
 25 20  1  0  0  0  0
 25  4  1  0  0  0  0
 27  3  1  0  0  0  0
 28  6  1  0  0  0  0
 29 19  1  0  0  0  0
 30 23  1  0  0  0  0
 31  2  1  0  0  0  0
 31 16  1  0  0  0  0
 32 26  1  0  0  0  0
 32  1  1  0  0  0  0
 32 30  1  0  0  0  0
 33 20  1  0  0  0  0
 33 28  1  0  0  0  0
 34 35  1  0  0  0  0
 36 37  1  0  0  0  0
M  END
>  <MODEL>
4

>  <REMARK>
 VINA RESULT:      -6.4      3.913      6.239
  Name = 
  2 active torsions:
  status: ('A' for Active; 'I' for Inactive)
    1  A    between atoms: C_1  and  C_23
    2  A    between atoms: C_11  and  C_26
                            x       y       z     vdW  Elec       q    Type
                         _______ _______ _______ _____ _____    ______ ____

>  <TORSDO>
F 2

$$$$
=
 OpenBabel10272414453D

 37 43  0  0  1  0  0  0  0  0999 V2000
  190.5230  177.6200  142.4900 C   0  0  2  0  0  3  0  0  0  0  0  0
  187.9770  178.7540  136.1970 C   0  0  0  0  0  2  0  0  0  0  0  0
  185.9000  177.2880  145.6470 C   0  0  0  0  0  2  0  0  0  0  0  0
  186.0680  178.3420  141.1300 N   0  0  0  0  0  0  0  0  0  0  0  0
  191.6490  176.9190  141.9980 O   0  0  0  0  0  0  0  0  0  0  0  0
  187.7970  177.4830  137.0570 C   0  0  2  0  0  0  0  0  0  0  0  0
  189.1300  177.1610  137.7170 C   0  0  0  0  0  2  0  0  0  0  0  0
  187.3720  176.2770  136.2120 C   0  0  0  0  0  2  0  0  0  0  0  0
  185.3950  179.5710  143.2950 C   0  0  0  0  0  2  0  0  0  0  0  0
  187.2020  177.5720  140.6480 C   0  0  1  0  0  3  0  0  0  0  0  0
  186.3820  178.8570  142.4190 C   0  0  0  0  0  0  0  0  0  0  0  0
  187.6990  178.2310  139.3720 C   0  0  1  0  0  3  0  0  0  0  0  0
  185.4420  175.6740  134.8470 C   0  0  0  0  0  2  0  0  0  0  0  0
  184.7440  178.5990  144.2700 C   0  0  0  0  0  2  0  0  0  0  0  0
  192.1670  177.6630  141.0300 O   0  0  0  0  0  0  0  0  0  0  0  0
  186.4290  177.8620  134.4230 C   0  0  0  0  0  2  0  0  0  0  0  0
  186.2720  176.6280  135.2550 C   0  0  0  0  0  0  0  0  0  0  0  0
  187.5870  178.4790  142.8160 C   0  0  0  0  0  0  0  0  0  0  0  0
  188.3270  177.4380  144.9660 C   0  0  0  0  0  2  0  0  0  0  0  0
  184.6350  178.1720  139.0910 O   0  0  0  0  0  0  0  0  0  0  0  0
  183.7400  178.5560  141.1610 O   0  0  0  0  0  0  0  0  0  0  0  0
  188.0200  178.6160  144.1710 N   0  0  0  0  0  2  0  0  0  0  0  0
  191.4330  177.3810  139.8580 C   0  0  2  0  0  3  0  0  0  0  0  0
  189.1520  177.9670  139.0080 C   0  0  1  0  0  3  0  0  0  0  0  0
  184.7820  178.3810  140.4750 C   0  0  0  0  0  0  0  0  0  0  0  0
  188.2280  177.5560  141.8140 C   0  0  2  0  0  3  0  0  0  0  0  0
  185.4460  178.5990  145.4780 O   0  0  0  0  0  0  0  0  0  0  0  0
  186.8650  177.6630  138.2600 C   0  0  1  0  0  3  0  0  0  0  0  0
  187.3460  177.3080  146.1260 C   0  0  0  0  0  2  0  0  0  0  0  0
  189.9260  177.3100  140.1460 C   0  0  2  0  0  3  0  0  0  0  0  0
  186.7590  179.0490  135.3190 C   0  0  0  0  0  2  0  0  0  0  0  0
  189.5810  177.9920  141.4120 N   0  0  2  0  0  0  0  0  0  0  0  0
  185.6070  178.4990  138.0940 C   0  0  0  0  0  2  0  0  0  0  0  0
  191.9150  176.0870  139.2170 C   0  0  0  0  0  2  0  0  0  0  0  0
  192.8120  176.3920  138.0330 C   0  0  0  0  0  1  0  0  0  0  0  0
  191.7800  178.4740  144.4710 C   0  0  0  0  0  1  0  0  0  0  0  0
  190.9590  178.8650  143.2580 C   0  0  0  0  0  2  0  0  0  0  0  0
  1 37  1  6  0  0  0
  3 29  1  0  0  0  0
  4 11  1  0  0  0  0
  5  1  1  0  0  0  0
  6  2  1  6  0  0  0
  6  7  1  0  0  0  0
  6 28  1  0  0  0  0
  7 24  1  0  0  0  0
  8  6  1  0  0  0  0
  9 14  1  0  0  0  0
 10  4  1  1  0  0  0
 10 26  1  0  0  0  0
 11 18  2  0  0  0  0
 11  9  1  0  0  0  0
 12 10  1  0  0  0  0
 13 17  2  0  0  0  0
 14 27  1  0  0  0  0
 15  5  1  0  0  0  0
 16 17  1  0  0  0  0
 16 31  1  0  0  0  0
 17  8  1  0  0  0  0
 18 22  1  0  0  0  0
 19 29  1  0  0  0  0
 20 25  1  0  0  0  0
 22 19  1  0  0  0  0
 23 30  1  0  0  0  0
 23 15  1  0  0  0  0
 24 12  1  0  0  0  0
 24 30  1  0  0  0  0
 25  4  1  0  0  0  0
 25 21  2  0  0  0  0
 26 18  1  0  0  0  0
 27  3  1  0  0  0  0
 28 12  1  0  0  0  0
 30 32  1  0  0  0  0
 31  2  1  0  0  0  0
 32 26  1  0  0  0  0
 32  1  1  0  0  0  0
 33 28  1  0  0  0  0
 33 20  1  0  0  0  0
 34 23  1  0  0  0  0
 35 34  1  0  0  0  0
 37 36  1  0  0  0  0
M  END
>  <MODEL>
5

>  <REMARK>
 VINA RESULT:      -6.1      1.919      7.859
  Name = 
  2 active torsions:
  status: ('A' for Active; 'I' for Inactive)
    1  A    between atoms: C_1  and  C_23
    2  A    between atoms: C_11  and  C_26
                            x       y       z     vdW  Elec       q    Type
                         _______ _______ _______ _____ _____    ______ ____

>  <TORSDO>
F 2

$$$$
=
 OpenBabel10272414453D

 37 43  0  0  1  0  0  0  0  0999 V2000
  185.3790  178.1940  144.3200 C   0  0  2  0  0  3  0  0  0  0  0  0
  189.0270  178.8100  138.5160 C   0  0  0  0  0  2  0  0  0  0  0  0
  180.0990  177.9930  142.4400 C   0  0  0  0  0  2  0  0  0  0  0  0
  183.9000  178.7180  139.8750 N   0  0  0  0  0  0  0  0  0  0  0  0
  186.4050  177.4830  144.9870 O   0  0  0  0  0  0  0  0  0  0  0  0
  188.1670  177.6020  138.9490 C   0  0  2  0  0  0  0  0  0  0  0  0
  188.4010  177.3580  140.4330 C   0  0  0  0  0  2  0  0  0  0  0  0
  188.5450  176.3280  138.1840 C   0  0  0  0  0  2  0  0  0  0  0  0
  181.8110  180.0860  140.5200 C   0  0  0  0  0  2  0  0  0  0  0  0
  184.9190  177.9390  140.5590 C   0  0  1  0  0  3  0  0  0  0  0  0
  183.0650  179.3330  140.8520 C   0  0  0  0  0  0  0  0  0  0  0  0
  186.2720  178.5140  140.1760 C   0  0  1  0  0  3  0  0  0  0  0  0
  188.4890  175.5860  135.8620 C   0  0  0  0  0  2  0  0  0  0  0  0
  180.5960  179.1740  140.6220 C   0  0  0  0  0  2  0  0  0  0  0  0
  187.5260  178.1660  144.7950 O   0  0  0  0  0  0  0  0  0  0  0  0
  189.5120  177.7580  136.2810 C   0  0  0  0  0  2  0  0  0  0  0  0
  188.6900  176.5850  136.7140 C   0  0  0  0  0  0  0  0  0  0  0  0
  183.4340  179.0110  142.0820 C   0  0  0  0  0  0  0  0  0  0  0  0
  182.0800  178.1450  143.9990 C   0  0  0  0  0  2  0  0  0  0  0  0
  184.7000  178.3680  137.5350 O   0  0  0  0  0  0  0  0  0  0  0  0
  182.5190  178.8830  137.9960 O   0  0  0  0  0  0  0  0  0  0  0  0
  182.5980  179.2550  143.2150 N   0  0  0  0  0  2  0  0  0  0  0  0
  188.0300  177.7830  143.5350 C   0  0  2  0  0  3  0  0  0  0  0  0
  187.4070  178.2560  141.1560 C   0  0  1  0  0  3  0  0  0  0  0  0
  183.6760  178.6810  138.4500 C   0  0  0  0  0  0  0  0  0  0  0  0
  184.5760  178.0310  142.0710 C   0  0  2  0  0  3  0  0  0  0  0  0
  180.0310  179.2780  141.8950 O   0  0  0  0  0  0  0  0  0  0  0  0
  186.6570  177.8490  138.8860 C   0  0  1  0  0  3  0  0  0  0  0  0
  180.5620  178.0790  143.8890 C   0  0  0  0  0  2  0  0  0  0  0  0
  186.9110  177.7000  142.4870 C   0  0  2  0  0  3  0  0  0  0  0  0
  189.0360  179.0140  137.0000 C   0  0  0  0  0  2  0  0  0  0  0  0
  185.7160  178.4660  142.9060 N   0  0  2  0  0  0  0  0  0  0  0  0
  186.0910  178.6430  137.7210 C   0  0  0  0  0  2  0  0  0  0  0  0
  188.7720  176.4570  143.6290 C   0  0  0  0  0  2  0  0  0  0  0  0
  190.2680  176.6950  143.6680 C   0  0  0  0  0  1  0  0  0  0  0  0
  185.1550  179.3010  146.5470 C   0  0  0  0  0  1  0  0  0  0  0  0
  185.0720  179.5010  145.0460 C   0  0  0  0  0  2  0  0  0  0  0  0
  1  5  1  0  0  0  0
  1 37  1  1  0  0  0
  2  6  1  0  0  0  0
  3 29  1  0  0  0  0
  4 11  1  0  0  0  0
  6  8  1  6  0  0  0
  6  7  1  0  0  0  0
  7 24  1  0  0  0  0
  9 14  1  0  0  0  0
  9 11  1  0  0  0  0
 10  4  1  6  0  0  0
 10 26  1  0  0  0  0
 11 18  2  0  0  0  0
 12 10  1  0  0  0  0
 12 24  1  0  0  0  0
 13 17  2  0  0  0  0
 14 27  1  0  0  0  0
 15  5  1  0  0  0  0
 16 17  1  0  0  0  0
 16 31  1  0  0  0  0
 17  8  1  0  0  0  0
 18 22  1  0  0  0  0
 20 33  1  0  0  0  0
 20 25  1  0  0  0  0
 21 25  2  0  0  0  0
 22 19  1  0  0  0  0
 23 34  1  0  0  0  0
 23 15  1  0  0  0  0
 24 30  1  0  0  0  0
 25  4  1  0  0  0  0
 26 18  1  0  0  0  0
 26 32  1  0  0  0  0
 27  3  1  0  0  0  0
 28  6  1  0  0  0  0
 28 12  1  0  0  0  0
 29 19  1  0  0  0  0
 30 32  1  0  0  0  0
 30 23  1  0  0  0  0
 31  2  1  0  0  0  0
 32  1  1  0  0  0  0
 33 28  1  0  0  0  0
 34 35  1  0  0  0  0
 37 36  1  0  0  0  0
M  END
>  <MODEL>
6

>  <REMARK>
 VINA RESULT:      -6.1      2.611      6.585
  Name = 
  2 active torsions:
  status: ('A' for Active; 'I' for Inactive)
    1  A    between atoms: C_1  and  C_23
    2  A    between atoms: C_11  and  C_26
                            x       y       z     vdW  Elec       q    Type
                         _______ _______ _______ _____ _____    ______ ____

>  <TORSDO>
F 2

$$$$
=
 OpenBabel10272414453D

 37 43  0  0  1  0  0  0  0  0999 V2000
  185.4910  177.8980  137.1540 C   0  0  2  0  0  3  0  0  0  0  0  0
  189.7600  176.3110  142.3130 C   0  0  0  0  0  2  0  0  0  0  0  0
  181.2470  180.4320  139.8030 C   0  0  0  0  0  2  0  0  0  0  0  0
  184.9150  178.4110  141.8040 N   0  0  0  0  0  0  0  0  0  0  0  0
  186.5440  178.0610  136.2230 O   0  0  0  0  0  0  0  0  0  0  0  0
  189.3700  177.7260  141.8330 C   0  0  2  0  0  0  0  0  0  0  0  0
  189.3560  177.7250  140.3110 C   0  0  0  0  0  2  0  0  0  0  0  0
  190.3700  178.7860  142.3070 C   0  0  0  0  0  2  0  0  0  0  0  0
  182.3730  177.9850  141.7380 C   0  0  0  0  0  2  0  0  0  0  0  0
  185.9860  178.6350  140.8460 C   0  0  1  0  0  3  0  0  0  0  0  0
  183.7190  178.1190  141.0900 C   0  0  0  0  0  0  0  0  0  0  0  0
  187.0540  177.5840  141.0950 C   0  0  1  0  0  3  0  0  0  0  0  0
  191.1080  179.6760  144.4550 C   0  0  0  0  0  2  0  0  0  0  0  0
  181.6200  179.3080  141.6860 C   0  0  0  0  0  2  0  0  0  0  0  0
  187.3220  176.9920  136.3400 O   0  0  0  0  0  0  0  0  0  0  0  0
  191.0860  177.2490  144.2380 C   0  0  0  0  0  2  0  0  0  0  0  0
  190.7150  178.6170  143.7560 C   0  0  0  0  0  0  0  0  0  0  0  0
  183.9110  178.1540  139.7800 C   0  0  0  0  0  0  0  0  0  0  0  0
  182.6260  179.3400  137.9910 C   0  0  0  0  0  2  0  0  0  0  0  0
  186.2700  178.5910  143.8950 O   0  0  0  0  0  0  0  0  0  0  0  0
  184.0180  178.9920  143.8830 O   0  0  0  0  0  0  0  0  0  0  0  0
  182.8250  178.1860  138.8520 N   0  0  0  0  0  2  0  0  0  0  0  0
  188.1930  177.2350  137.4220 C   0  0  2  0  0  3  0  0  0  0  0  0
  187.9610  177.2650  139.9160 C   0  0  1  0  0  3  0  0  0  0  0  0
  185.0360  178.6570  143.2220 C   0  0  0  0  0  0  0  0  0  0  0  0
  185.3190  178.5680  139.4460 C   0  0  2  0  0  3  0  0  0  0  0  0
  180.8000  179.3420  140.5560 O   0  0  0  0  0  0  0  0  0  0  0  0
  187.9350  178.1350  142.1790 C   0  0  1  0  0  3  0  0  0  0  0  0
  181.3160  180.0400  138.3330 C   0  0  0  0  0  2  0  0  0  0  0  0
  187.4480  177.8630  138.6100 C   0  0  2  0  0  3  0  0  0  0  0  0
  190.0150  176.2490  143.8210 C   0  0  0  0  0  2  0  0  0  0  0  0
  185.9900  177.6310  138.5200 N   0  0  2  0  0  0  0  0  0  0  0  0
  187.3680  177.7490  143.5350 C   0  0  0  0  0  2  0  0  0  0  0  0
  189.3550  178.1200  136.9940 C   0  0  0  0  0  2  0  0  0  0  0  0
  189.0650  179.5670  137.3390 C   0  0  0  0  0  1  0  0  0  0  0  0
  183.9700  177.0930  135.3460 C   0  0  0  0  0  1  0  0  0  0  0  0
  184.5500  176.7820  136.7110 C   0  0  0  0  0  2  0  0  0  0  0  0
  1 37  1  6  0  0  0
  1 32  1  0  0  0  0
  2 31  1  0  0  0  0
  3 27  1  0  0  0  0
  4 25  1  0  0  0  0
  5 15  1  0  0  0  0
  5  1  1  0  0  0  0
  6  7  1  6  0  0  0
  6 28  1  0  0  0  0
  6  8  1  0  0  0  0
  6  2  1  0  0  0  0
  8 17  1  0  0  0  0
 10 12  1  0  0  0  0
 10  4  1  1  0  0  0
 11  9  1  0  0  0  0
 11  4  1  0  0  0  0
 12 28  1  0  0  0  0
 14  9  1  0  0  0  0
 15 23  1  0  0  0  0
 17 16  1  0  0  0  0
 17 13  2  0  0  0  0
 18 11  2  0  0  0  0
 19 29  1  0  0  0  0
 19 22  1  0  0  0  0
 22 18  1  0  0  0  0
 23 30  1  0  0  0  0
 24  7  1  0  0  0  0
 24 12  1  0  0  0  0
 25 21  2  0  0  0  0
 25 20  1  0  0  0  0
 26 18  1  0  0  0  0
 26 10  1  0  0  0  0
 27 14  1  0  0  0  0
 28 33  1  0  0  0  0
 29  3  1  0  0  0  0
 30 24  1  0  0  0  0
 31 16  1  0  0  0  0
 32 30  1  0  0  0  0
 32 26  1  0  0  0  0
 33 20  1  0  0  0  0
 34 35  1  0  0  0  0
 34 23  1  0  0  0  0
 36 37  1  0  0  0  0
M  END
>  <MODEL>
7

>  <REMARK>
 VINA RESULT:      -6.0      1.831      5.365
  Name = 
  2 active torsions:
  status: ('A' for Active; 'I' for Inactive)
    1  A    between atoms: C_1  and  C_23
    2  A    between atoms: C_11  and  C_26
                            x       y       z     vdW  Elec       q    Type
                         _______ _______ _______ _____ _____    ______ ____

>  <TORSDO>
F 2

$$$$
=
 OpenBabel10272414453D

 37 43  0  0  1  0  0  0  0  0999 V2000
  183.0050  178.6980  143.5200 C   0  0  2  0  0  3  0  0  0  0  0  0
  189.8260  179.0950  144.3470 C   0  0  0  0  0  2  0  0  0  0  0  0
  182.5080  176.9220  138.2240 C   0  0  0  0  0  2  0  0  0  0  0  0
  186.4610  178.0450  140.3820 N   0  0  0  0  0  0  0  0  0  0  0  0
  182.7750  178.3810  144.8800 O   0  0  0  0  0  0  0  0  0  0  0  0
  188.9920  177.8170  144.1040 C   0  0  2  0  0  0  0  0  0  0  0  0
  187.7260  177.9080  144.9430 C   0  0  0  0  0  2  0  0  0  0  0  0
  189.7540  176.5520  144.5140 C   0  0  0  0  0  2  0  0  0  0  0  0
  185.1060  178.9770  138.3960 C   0  0  0  0  0  2  0  0  0  0  0  0
  186.2090  177.6650  141.7630 C   0  0  1  0  0  3  0  0  0  0  0  0
  185.2720  178.6130  139.8420 C   0  0  0  0  0  0  0  0  0  0  0  0
  187.1570  178.4640  142.6400 C   0  0  1  0  0  3  0  0  0  0  0  0
  191.7870  175.4090  143.7980 C   0  0  0  0  0  2  0  0  0  0  0  0
  184.4460  177.8380  137.6290 C   0  0  0  0  0  2  0  0  0  0  0  0
  183.4610  179.2630  145.5960 O   0  0  0  0  0  0  0  0  0  0  0  0
  191.9820  177.8000  144.2300 C   0  0  0  0  0  2  0  0  0  0  0  0
  191.1660  176.5640  144.0100 C   0  0  0  0  0  0  0  0  0  0  0  0
  184.2870  178.6150  140.7250 C   0  0  0  0  0  0  0  0  0  0  0  0
  181.9260  177.8160  140.5130 C   0  0  0  0  0  2  0  0  0  0  0  0
  188.8920  177.4760  140.2990 O   0  0  0  0  0  0  0  0  0  0  0  0
  187.6060  177.5380  138.4080 O   0  0  0  0  0  0  0  0  0  0  0  0
  182.9290  178.8560  140.3500 N   0  0  0  0  0  2  0  0  0  0  0  0
  184.7880  178.7880  145.6710 C   0  0  2  0  0  3  0  0  0  0  0  0
  186.7210  178.6620  144.0840 C   0  0  1  0  0  3  0  0  0  0  0  0
  187.6600  177.6990  139.6560 C   0  0  0  0  0  0  0  0  0  0  0  0
  184.7020  177.9460  142.0080 C   0  0  2  0  0  3  0  0  0  0  0  0
  183.0640  178.0340  137.5860 O   0  0  0  0  0  0  0  0  0  0  0  0
  188.4410  177.6860  142.6810 C   0  0  1  0  0  3  0  0  0  0  0  0
  181.3910  177.3760  139.1550 C   0  0  0  0  0  2  0  0  0  0  0  0
  185.2690  178.2560  144.3130 C   0  0  2  0  0  3  0  0  0  0  0  0
  191.2200  179.0170  143.7210 C   0  0  0  0  0  2  0  0  0  0  0  0
  184.4470  178.7810  143.2010 N   0  0  2  0  0  0  0  0  0  0  0  0
  189.3200  178.1000  141.5130 C   0  0  0  0  0  2  0  0  0  0  0  0
  184.9170  177.7130  146.7420 C   0  0  0  0  0  2  0  0  0  0  0  0
  186.0060  178.0850  147.7280 C   0  0  0  0  0  1  0  0  0  0  0  0
  180.8050  179.8320  143.1970 C   0  0  0  0  0  1  0  0  0  0  0  0
  182.3100  180.0050  143.1480 C   0  0  0  0  0  2  0  0  0  0  0  0
  1 37  1  1  0  0  0
  1  5  1  0  0  0  0
  3 29  1  0  0  0  0
  5 15  1  0  0  0  0
  6  2  1  1  0  0  0
  6  8  1  0  0  0  0
  6  7  1  0  0  0  0
  9 11  1  0  0  0  0
 10  4  1  6  0  0  0
 10 26  1  0  0  0  0
 10 12  1  0  0  0  0
 11  4  1  0  0  0  0
 11 18  2  0  0  0  0
 12 28  1  0  0  0  0
 12 24  1  0  0  0  0
 13 17  2  0  0  0  0
 14  9  1  0  0  0  0
 15 23  1  0  0  0  0
 17 16  1  0  0  0  0
 17  8  1  0  0  0  0
 18 26  1  0  0  0  0
 20 33  1  0  0  0  0
 21 25  2  0  0  0  0
 22 19  1  0  0  0  0
 22 18  1  0  0  0  0
 23 34  1  0  0  0  0
 24 30  1  0  0  0  0
 24  7  1  0  0  0  0
 25 20  1  0  0  0  0
 25  4  1  0  0  0  0
 26 32  1  0  0  0  0
 27 14  1  0  0  0  0
 27  3  1  0  0  0  0
 28  6  1  0  0  0  0
 29 19  1  0  0  0  0
 30 23  1  0  0  0  0
 31 16  1  0  0  0  0
 31  2  1  0  0  0  0
 32  1  1  0  0  0  0
 32 30  1  0  0  0  0
 33 28  1  0  0  0  0
 34 35  1  0  0  0  0
 37 36  1  0  0  0  0
M  END
>  <MODEL>
8

>  <REMARK>
 VINA RESULT:      -5.8      2.188      3.464
  Name = 
  2 active torsions:
  status: ('A' for Active; 'I' for Inactive)
    1  A    between atoms: C_1  and  C_23
    2  A    between atoms: C_11  and  C_26
                            x       y       z     vdW  Elec       q    Type
                         _______ _______ _______ _____ _____    ______ ____

>  <TORSDO>
F 2

$$$$
=
 OpenBabel10272414453D

 37 43  0  0  1  0  0  0  0  0999 V2000
  190.9980  176.9020  140.0330 C   0  0  2  0  0  3  0  0  0  0  0  0
  184.8440  179.6730  138.6900 C   0  0  0  0  0  2  0  0  0  0  0  0
  190.7030  175.8560  145.5350 C   0  0  0  0  0  2  0  0  0  0  0  0
  187.5000  178.0380  142.9810 N   0  0  0  0  0  0  0  0  0  0  0  0
  191.1140  176.3290  138.7450 O   0  0  0  0  0  0  0  0  0  0  0  0
  185.1310  178.2270  139.1510 C   0  0  2  0  0  0  0  0  0  0  0  0
  186.3520  177.7190  138.3980 C   0  0  0  0  0  2  0  0  0  0  0  0
  183.9550  177.2880  138.8550 C   0  0  0  0  0  2  0  0  0  0  0  0
  189.0740  178.6780  144.9210 C   0  0  0  0  0  2  0  0  0  0  0  0
  187.6130  177.3960  141.6810 C   0  0  1  0  0  3  0  0  0  0  0  0
  188.8060  178.1960  143.5250 C   0  0  0  0  0  0  0  0  0  0  0  0
  187.0500  178.3530  140.6440 C   0  0  1  0  0  3  0  0  0  0  0  0
  181.6310  177.0970  139.5680 C   0  0  0  0  0  2  0  0  0  0  0  0
  189.2430  177.5000  145.8710 C   0  0  0  0  0  2  0  0  0  0  0  0
  190.8230  177.2880  137.8750 O   0  0  0  0  0  0  0  0  0  0  0  0
  182.3570  179.3000  138.8220 C   0  0  0  0  0  2  0  0  0  0  0  0
  182.6440  177.8960  139.2540 C   0  0  0  0  0  0  0  0  0  0  0  0
  189.7340  177.7050  142.7200 C   0  0  0  0  0  0  0  0  0  0  0  0
  191.6170  176.1290  143.1970 C   0  0  0  0  0  2  0  0  0  0  0  0
  185.0330  178.4280  142.9670 O   0  0  0  0  0  0  0  0  0  0  0  0
  186.2170  178.2820  144.9190 O   0  0  0  0  0  0  0  0  0  0  0  0
  191.0770  177.4780  143.1540 N   0  0  0  0  0  2  0  0  0  0  0  0
  189.4160  177.3330  137.7690 C   0  0  2  0  0  3  0  0  0  0  0  0
  187.5520  178.1630  139.2210 C   0  0  1  0  0  3  0  0  0  0  0  0
  186.2480  178.2690  143.6600 C   0  0  0  0  0  0  0  0  0  0  0  0
  189.1190  177.0590  141.5070 C   0  0  2  0  0  3  0  0  0  0  0  0
  190.5970  177.1750  145.9850 O   0  0  0  0  0  0  0  0  0  0  0  0
  185.5690  178.1080  140.6140 C   0  0  1  0  0  3  0  0  0  0  0  0
  191.9240  175.7230  144.6340 C   0  0  0  0  0  2  0  0  0  0  0  0
  188.7480  177.2190  139.1480 C   0  0  2  0  0  3  0  0  0  0  0  0
  183.5130  180.2080  139.2220 C   0  0  0  0  0  2  0  0  0  0  0  0
  189.6890  177.5580  140.2380 N   0  0  2  0  0  0  0  0  0  0  0  0
  184.8920  178.9830  141.6560 C   0  0  0  0  0  2  0  0  0  0  0  0
  188.9090  176.2390  136.8390 C   0  0  0  0  0  2  0  0  0  0  0  0
  188.5750  176.8220  135.4800 C   0  0  0  0  0  1  0  0  0  0  0  0
  193.4690  177.2600  139.9710 C   0  0  0  0  0  1  0  0  0  0  0  0
  192.1280  177.8970  140.2820 C   0  0  0  0  0  2  0  0  0  0  0  0
  1 32  1  0  0  0  0
  1 37  1  6  0  0  0
  2  6  1  0  0  0  0
  2 31  1  0  0  0  0
  3 27  1  0  0  0  0
  4 11  1  0  0  0  0
  4 25  1  0  0  0  0
  5  1  1  0  0  0  0
  6  7  1  6  0  0  0
  6 28  1  0  0  0  0
  7 24  1  0  0  0  0
  8  6  1  0  0  0  0
  8 17  1  0  0  0  0
  9 14  1  0  0  0  0
 10  4  1  1  0  0  0
 11  9  1  0  0  0  0
 12 10  1  0  0  0  0
 14 27  1  0  0  0  0
 15  5  1  0  0  0  0
 16 31  1  0  0  0  0
 16 17  1  0  0  0  0
 17 13  2  0  0  0  0
 18 22  1  0  0  0  0
 18 11  2  0  0  0  0
 19 29  1  0  0  0  0
 20 25  1  0  0  0  0
 22 19  1  0  0  0  0
 23 15  1  0  0  0  0
 23 30  1  0  0  0  0
 24 12  1  0  0  0  0
 25 21  2  0  0  0  0
 26 10  1  0  0  0  0
 26 18  1  0  0  0  0
 28 12  1  0  0  0  0
 28 33  1  0  0  0  0
 29  3  1  0  0  0  0
 30 24  1  0  0  0  0
 30 32  1  0  0  0  0
 32 26  1  0  0  0  0
 33 20  1  0  0  0  0
 34 23  1  0  0  0  0
 35 34  1  0  0  0  0
 36 37  1  0  0  0  0
M  END
>  <MODEL>
9

>  <REMARK>
 VINA RESULT:      -5.6      2.060      7.918
  Name = 
  2 active torsions:
  status: ('A' for Active; 'I' for Inactive)
    1  A    between atoms: C_1  and  C_23
    2  A    between atoms: C_11  and  C_26
                            x       y       z     vdW  Elec       q    Type
                         _______ _______ _______ _____ _____    ______ ____

>  <TORSDO>
F 2

$$$$
