=
 OpenBabel10262423483D

 34 37  0  0  1  0  0  0  0  0999 V2000
  186.4790  178.6710  139.1760 C   0  0  2  0  0  3  0  0  0  0  0  0
  183.9840  177.4560  141.7880 O   0  0  0  0  0  1  0  0  0  0  0  0
  184.1180  179.1030  139.2290 O   0  0  0  0  0  1  0  0  0  0  0  0
  185.0310  178.2030  141.2410 C   0  0  2  0  0  0  0  0  0  0  0  0
  187.5700  177.9620  139.8720 N   0  0  0  0  0  0  0  0  0  0  0  0
  186.3120  178.1350  142.0500 C   0  0  1  0  0  3  0  0  0  0  0  0
  187.6070  178.4130  141.2800 C   0  0  1  0  0  3  0  0  0  0  0  0
  185.4780  179.4180  142.0370 C   0  0  2  0  0  3  0  0  0  0  0  0
  185.1120  178.2530  139.7200 C   0  0  2  0  0  3  0  0  0  0  0  0
  190.9930  177.8420  143.2120 C   0  0  1  0  0  3  0  0  0  0  0  0
  190.4840  176.6450  144.0030 C   0  0  0  0  0  2  0  0  0  0  0  0
  188.7340  177.7710  142.0470 C   0  0  0  0  0  0  0  0  0  0  0  0
  189.7380  175.7160  143.0530 C   0  0  0  0  0  2  0  0  0  0  0  0
  189.8180  178.6420  142.6490 C   0  0  0  0  0  2  0  0  0  0  0  0
  188.6670  176.4520  142.2950 C   0  0  0  0  0  3  0  0  0  0  0  0
  191.9680  178.8870  144.2680 Cl  0  0  0  0  0  0  0  0  0  0  0  0
  186.4880  178.3930  137.6960 C   0  0  0  0  0  0  0  0  0  0  0  0
  183.9050  176.3400  136.2820 C   0  0  0  0  0  1  0  0  0  0  0  0
  185.8920  177.3190  137.2480 C   0  0  0  0  0  0  0  0  0  0  0  0
  185.2940  176.2510  136.8010 C   0  0  0  0  0  3  0  0  0  0  0  0
  187.9690  178.8440  135.8770 O   0  0  0  0  0  1  0  0  0  0  0  0
  187.1280  179.2790  136.8250 O   0  0  0  0  0  0  0  0  0  0  0  0
  184.7480  179.5600  143.3660 C   0  0  0  0  0  2  0  0  0  0  0  0
  185.6950  179.9050  144.4140 N   0  0  0  0  0  2  0  0  0  0  0  0
  187.8390  177.8740  145.5200 C   0  0  0  0  0  2  0  0  0  0  0  0
  185.5390  178.9330  145.4870 C   0  0  1  0  0  3  0  0  0  0  0  0
  186.3660  177.6750  145.1840 C   0  0  0  0  0  2  0  0  0  0  0  0
  187.3640  177.9360  148.0160 C   0  0  0  0  0  3  0  0  0  0  0  0
  185.9940  178.5590  147.9350 C   0  0  0  0  0  2  0  0  0  0  0  0
  185.8880  179.5920  146.8230 C   0  0  0  0  0  2  0  0  0  0  0  0
  188.1410  177.6000  146.9700 C   0  0  0  0  0  3  0  0  0  0  0  0
  188.8330  178.3910  139.2560 C   0  0  0  0  0  2  0  0  0  0  0  0
  190.7630  176.8670  139.1780 C   0  0  0  0  0  2  0  0  0  0  0  0
  189.5730  177.2160  138.6980 C   0  0  0  0  0  3  0  0  0  0  0  0
  1 17  1  6  0  0  0
  1  9  1  0  0  0  0
  1  5  1  0  0  0  0
  3  9  1  0  0  0  0
  4  2  1  1  0  0  0
  4  8  1  0  0  0  0
  4  6  1  0  0  0  0
  5  7  1  0  0  0  0
  7 12  1  0  0  0  0
  7  6  1  0  0  0  0
  8  6  1  0  0  0  0
  8 23  1  0  0  0  0
  9  4  1  0  0  0  0
 10 11  1  0  0  0  0
 10 16  1  0  0  0  0
 12 15  2  0  0  0  0
 12 14  1  0  0  0  0
 13 11  1  0  0  0  0
 14 10  1  0  0  0  0
 15 13  1  0  0  0  0
 18 20  1  0  0  0  0
 19 17  2  0  0  0  0
 20 19  2  0  0  0  0
 21 22  1  0  0  0  0
 22 17  1  0  0  0  0
 23 24  1  0  0  0  0
 24 26  1  0  0  0  0
 25 31  1  0  0  0  0
 26 30  1  0  0  0  0
 27 26  1  0  0  0  0
 27 25  1  0  0  0  0
 29 28  1  0  0  0  0
 30 29  1  0  0  0  0
 31 28  2  0  0  0  0
 32  5  1  0  0  0  0
 34 33  2  0  0  0  0
 34 32  1  0  0  0  0
M  END
>  <MODEL>
1

>  <REMARK>
 VINA RESULT:      -6.6      0.000      0.000
  Name = 
  8 active torsions:
  status: ('A' for Active; 'I' for Inactive)
    1  A    between atoms: C_2  and  C_4
    2  A    between atoms: C_2  and  O_25
    3  A    between atoms: N_3  and  C_13
    4  A    between atoms: N_3  and  C_17
    5  A    between atoms: C_12  and  C_28
    6  A    between atoms: C_17  and  C_29
    7  A    between atoms: N_21  and  C_32
    8  A    between atoms: C_24  and  C_32
                            x       y       z     vdW  Elec       q    Type
                         _______ _______ _______ _____ _____    ______ ____

>  <TORSDO>
F 8

$$$$
=
 OpenBabel10262423483D

 34 37  0  0  1  0  0  0  0  0999 V2000
  186.3810  178.0140  139.8010 C   0  0  2  0  0  3  0  0  0  0  0  0
  189.6420  178.9060  138.0410 O   0  0  0  0  0  1  0  0  0  0  0  0
  186.8400  177.8680  137.4480 O   0  0  0  0  0  1  0  0  0  0  0  0
  188.7540  178.1800  138.8380 C   0  0  2  0  0  0  0  0  0  0  0  0
  186.9590  178.4150  141.0990 N   0  0  0  0  0  0  0  0  0  0  0  0
  189.2750  177.9130  140.2380 C   0  0  1  0  0  3  0  0  0  0  0  0
  188.2120  177.6600  141.3120 C   0  0  1  0  0  3  0  0  0  0  0  0
  189.1870  176.7740  139.2180 C   0  0  2  0  0  3  0  0  0  0  0  0
  187.2690  178.4610  138.6380 C   0  0  2  0  0  3  0  0  0  0  0  0
  188.8470  177.9620  145.1890 C   0  0  1  0  0  3  0  0  0  0  0  0
  190.3620  178.0410  145.0610 C   0  0  0  0  0  2  0  0  0  0  0  0
  188.8380  177.9750  142.6470 C   0  0  0  0  0  0  0  0  0  0  0  0
  190.7050  179.0150  143.9410 C   0  0  0  0  0  2  0  0  0  0  0  0
  188.2370  177.3910  143.9090 C   0  0  0  0  0  2  0  0  0  0  0  0
  189.9990  178.6520  142.6630 C   0  0  0  0  0  3  0  0  0  0  0  0
  188.4150  176.9230  146.5650 Cl  0  0  0  0  0  0  0  0  0  0  0  0
  185.0150  178.6120  139.5900 C   0  0  0  0  0  0  0  0  0  0  0  0
  182.1140  176.5240  139.9230 C   0  0  0  0  0  1  0  0  0  0  0  0
  184.0270  177.8320  139.2380 C   0  0  0  0  0  0  0  0  0  0  0  0
  183.0410  177.0540  138.8900 C   0  0  0  0  0  3  0  0  0  0  0  0
  184.0710  180.7040  138.9280 O   0  0  0  0  0  1  0  0  0  0  0  0
  184.8210  179.9840  139.7730 O   0  0  0  0  0  0  0  0  0  0  0  0
  190.5840  176.4280  138.7240 C   0  0  0  0  0  2  0  0  0  0  0  0
  190.6280  175.0370  138.3020 N   0  0  0  0  0  2  0  0  0  0  0  0
  191.2340  174.9020  135.2100 C   0  0  0  0  0  2  0  0  0  0  0  0
  191.9100  174.8140  137.6490 C   0  0  1  0  0  3  0  0  0  0  0  0
  191.7120  174.0150  136.3540 C   0  0  0  0  0  2  0  0  0  0  0  0
  193.4710  176.1010  135.0740 C   0  0  0  0  0  3  0  0  0  0  0  0
  193.8270  176.0110  136.5360 C   0  0  0  0  0  2  0  0  0  0  0  0
  192.6130  176.1580  137.4420 C   0  0  0  0  0  2  0  0  0  0  0  0
  192.3710  175.5830  134.4960 C   0  0  0  0  0  3  0  0  0  0  0  0
  186.0220  177.9850  142.1450 C   0  0  0  0  0  2  0  0  0  0  0  0
  184.3650  179.0240  143.6370 C   0  0  0  0  0  2  0  0  0  0  0  0
  185.3930  179.1700  142.8070 C   0  0  0  0  0  3  0  0  0  0  0  0
  1 17  1  6  0  0  0
  1  5  1  0  0  0  0
  3  9  1  0  0  0  0
  4  2  1  6  0  0  0
  4  8  1  0  0  0  0
  4  6  1  0  0  0  0
  5  7  1  0  0  0  0
  5 32  1  0  0  0  0
  6  7  1  0  0  0  0
  7 12  1  0  0  0  0
  8  6  1  0  0  0  0
  9  4  1  0  0  0  0
  9  1  1  0  0  0  0
 10 16  1  0  0  0  0
 11 10  1  0  0  0  0
 12 15  2  0  0  0  0
 12 14  1  0  0  0  0
 13 11  1  0  0  0  0
 14 10  1  0  0  0  0
 15 13  1  0  0  0  0
 17 22  1  0  0  0  0
 19 17  2  0  0  0  0
 20 19  2  0  0  0  0
 20 18  1  0  0  0  0
 21 22  1  0  0  0  0
 23  8  1  0  0  0  0
 24 23  1  0  0  0  0
 25 27  1  0  0  0  0
 26 24  1  0  0  0  0
 27 26  1  0  0  0  0
 28 29  1  0  0  0  0
 29 30  1  0  0  0  0
 30 26  1  0  0  0  0
 31 28  2  0  0  0  0
 31 25  1  0  0  0  0
 32 34  1  0  0  0  0
 34 33  2  0  0  0  0
M  END
>  <MODEL>
2

>  <REMARK>
 VINA RESULT:      -6.5      2.511      6.938
  Name = 
  8 active torsions:
  status: ('A' for Active; 'I' for Inactive)
    1  A    between atoms: C_2  and  C_4
    2  A    between atoms: C_2  and  O_25
    3  A    between atoms: N_3  and  C_13
    4  A    between atoms: N_3  and  C_17
    5  A    between atoms: C_12  and  C_28
    6  A    between atoms: C_17  and  C_29
    7  A    between atoms: N_21  and  C_32
    8  A    between atoms: C_24  and  C_32
                            x       y       z     vdW  Elec       q    Type
                         _______ _______ _______ _____ _____    ______ ____

>  <TORSDO>
F 8

$$$$
=
 OpenBabel10262423483D

 34 37  0  0  1  0  0  0  0  0999 V2000
  192.6520  176.0400  138.0500 C   0  0  2  0  0  3  0  0  0  0  0  0
  192.1210  178.4800  140.9300 O   0  0  0  0  0  1  0  0  0  0  0  0
  194.0280  176.2940  140.0020 O   0  0  0  0  0  1  0  0  0  0  0  0
  191.9010  177.3680  140.1140 C   0  0  2  0  0  0  0  0  0  0  0  0
  191.4560  176.5710  137.3660 N   0  0  0  0  0  0  0  0  0  0  0  0
  190.4830  177.2770  139.5820 C   0  0  1  0  0  3  0  0  0  0  0  0
  190.3030  176.4790  138.2860 C   0  0  1  0  0  3  0  0  0  0  0  0
  190.9630  176.3050  140.6640 C   0  0  2  0  0  3  0  0  0  0  0  0
  193.0590  176.9330  139.2240 C   0  0  2  0  0  3  0  0  0  0  0  0
  186.6980  176.5640  136.6970 C   0  0  1  0  0  3  0  0  0  0  0  0
  186.4620  178.0360  137.0070 C   0  0  0  0  0  2  0  0  0  0  0  0
  189.0280  176.9540  137.6390 C   0  0  0  0  0  0  0  0  0  0  0  0
  187.7100  178.8210  136.6250 C   0  0  0  0  0  2  0  0  0  0  0  0
  187.8380  176.0200  137.5590 C   0  0  0  0  0  2  0  0  0  0  0  0
  188.9390  178.2460  137.2770 C   0  0  0  0  0  3  0  0  0  0  0  0
  185.2170  175.6380  137.0220 Cl  0  0  0  0  0  0  0  0  0  0  0  0
  193.8300  175.9410  137.1190 C   0  0  0  0  0  0  0  0  0  0  0  0
  194.7510  172.7370  135.7860 C   0  0  0  0  0  1  0  0  0  0  0  0
  194.4610  174.8010  137.0100 C   0  0  0  0  0  0  0  0  0  0  0  0
  195.0870  173.6630  136.8990 C   0  0  0  0  0  3  0  0  0  0  0  0
  195.4390  177.1190  135.8020 O   0  0  0  0  0  1  0  0  0  0  0  0
  194.2340  177.0610  136.3870 O   0  0  0  0  0  0  0  0  0  0  0  0
  190.3450  176.6920  142.0000 C   0  0  0  0  0  2  0  0  0  0  0  0
  190.9180  175.8790  143.0620 N   0  0  0  0  0  2  0  0  0  0  0  0
  188.9240  177.0680  145.1960 C   0  0  0  0  0  2  0  0  0  0  0  0
  191.2220  176.7620  144.1780 C   0  0  1  0  0  3  0  0  0  0  0  0
  190.0550  177.7310  144.4200 C   0  0  0  0  0  2  0  0  0  0  0  0
  190.3160  176.9510  147.3190 C   0  0  0  0  0  3  0  0  0  0  0  0
  191.6610  176.7810  146.6580 C   0  0  0  0  0  2  0  0  0  0  0  0
  191.5890  175.9230  145.4040 C   0  0  0  0  0  2  0  0  0  0  0  0
  189.1410  177.1190  146.6860 C   0  0  0  0  0  3  0  0  0  0  0  0
  191.1690  175.6790  136.2350 C   0  0  0  0  0  2  0  0  0  0  0  0
  191.0790  173.2370  135.9440 C   0  0  0  0  0  2  0  0  0  0  0  0
  190.8640  174.2960  136.7190 C   0  0  0  0  0  3  0  0  0  0  0  0
  1 17  1  6  0  0  0
  1  9  1  0  0  0  0
  4  8  1  0  0  0  0
  4  2  1  1  0  0  0
  5  1  1  0  0  0  0
  5  7  1  0  0  0  0
  6  4  1  0  0  0  0
  6  8  1  0  0  0  0
  7  6  1  0  0  0  0
  8 23  1  0  0  0  0
  9  3  1  0  0  0  0
  9  4  1  0  0  0  0
 10 11  1  0  0  0  0
 10 16  1  0  0  0  0
 10 14  1  0  0  0  0
 12  7  1  0  0  0  0
 13 11  1  0  0  0  0
 13 15  1  0  0  0  0
 14 12  1  0  0  0  0
 15 12  2  0  0  0  0
 18 20  1  0  0  0  0
 19 17  2  0  0  0  0
 20 19  2  0  0  0  0
 21 22  1  0  0  0  0
 22 17  1  0  0  0  0
 23 24  1  0  0  0  0
 24 26  1  0  0  0  0
 25 31  1  0  0  0  0
 26 27  1  0  0  0  0
 26 30  1  0  0  0  0
 27 25  1  0  0  0  0
 29 28  1  0  0  0  0
 30 29  1  0  0  0  0
 31 28  2  0  0  0  0
 32 34  1  0  0  0  0
 32  5  1  0  0  0  0
 33 34  2  0  0  0  0
M  END
>  <MODEL>
3

>  <REMARK>
 VINA RESULT:      -6.4      4.234      6.879
  Name = 
  8 active torsions:
  status: ('A' for Active; 'I' for Inactive)
    1  A    between atoms: C_2  and  C_4
    2  A    between atoms: C_2  and  O_25
    3  A    between atoms: N_3  and  C_13
    4  A    between atoms: N_3  and  C_17
    5  A    between atoms: C_12  and  C_28
    6  A    between atoms: C_17  and  C_29
    7  A    between atoms: N_21  and  C_32
    8  A    between atoms: C_24  and  C_32
                            x       y       z     vdW  Elec       q    Type
                         _______ _______ _______ _____ _____    ______ ____

>  <TORSDO>
F 8

$$$$
=
 OpenBabel10262423483D

 34 37  0  0  1  0  0  0  0  0999 V2000
  186.1950  177.9390  139.1470 C   0  0  2  0  0  3  0  0  0  0  0  0
  186.2790  180.1380  142.2590 O   0  0  0  0  0  1  0  0  0  0  0  0
  187.9300  178.0320  140.8040 O   0  0  0  0  0  1  0  0  0  0  0  0
  185.8850  179.0970  141.4160 C   0  0  2  0  0  0  0  0  0  0  0  0
  184.8990  178.5270  138.7540 N   0  0  0  0  0  0  0  0  0  0  0  0
  184.3890  179.0520  141.1670 C   0  0  1  0  0  3  0  0  0  0  0  0
  183.9450  178.3630  139.8720 C   0  0  1  0  0  3  0  0  0  0  0  0
  185.0530  177.9950  142.0530 C   0  0  2  0  0  3  0  0  0  0  0  0
  186.8390  178.7330  140.2850 C   0  0  2  0  0  3  0  0  0  0  0  0
  181.0130  180.7080  138.6780 C   0  0  1  0  0  3  0  0  0  0  0  0
  180.0720  179.5620  138.3310 C   0  0  0  0  0  2  0  0  0  0  0  0
  182.5770  178.8920  139.5260 C   0  0  0  0  0  0  0  0  0  0  0  0
  180.1030  178.5460  139.4660 C   0  0  0  0  0  2  0  0  0  0  0  0
  182.4510  180.2000  138.7720 C   0  0  0  0  0  2  0  0  0  0  0  0
  181.5100  178.1130  139.7750 C   0  0  0  0  0  3  0  0  0  0  0  0
  180.9100  181.9680  137.4290 Cl  0  0  0  0  0  0  0  0  0  0  0  0
  187.1670  177.9150  137.9980 C   0  0  0  0  0  0  0  0  0  0  0  0
  187.5600  174.8950  136.0960 C   0  0  0  0  0  1  0  0  0  0  0  0
  187.6720  176.7700  137.6160 C   0  0  0  0  0  0  0  0  0  0  0  0
  188.1710  175.6290  137.2340 C   0  0  0  0  0  3  0  0  0  0  0  0
  188.7760  179.5640  137.3650 O   0  0  0  0  0  1  0  0  0  0  0  0
  187.5160  179.1060  137.3560 O   0  0  0  0  0  0  0  0  0  0  0  0
  184.7150  178.2720  143.5110 C   0  0  0  0  0  2  0  0  0  0  0  0
  185.5150  177.4180  144.3740 N   0  0  0  0  0  2  0  0  0  0  0  0
  187.0290  177.4900  147.1400 C   0  0  0  0  0  2  0  0  0  0  0  0
  186.7300  178.1460  144.7120 C   0  0  1  0  0  3  0  0  0  0  0  0
  186.6760  178.6140  146.1730 C   0  0  0  0  0  2  0  0  0  0  0  0
  189.4590  177.4770  146.3930 C   0  0  0  0  0  3  0  0  0  0  0  0
  189.2220  177.8800  144.9600 C   0  0  0  0  0  2  0  0  0  0  0  0
  187.9470  177.2770  144.3880 C   0  0  0  0  0  2  0  0  0  0  0  0
  188.5150  177.3520  147.3440 C   0  0  0  0  0  3  0  0  0  0  0  0
  184.3810  177.7310  137.6340 C   0  0  0  0  0  2  0  0  0  0  0  0
  184.0390  175.3290  137.2230 C   0  0  0  0  0  2  0  0  0  0  0  0
  184.0490  176.3430  138.0840 C   0  0  0  0  0  3  0  0  0  0  0  0
  1 17  1  6  0  0  0
  1  9  1  0  0  0  0
  4  8  1  0  0  0  0
  4  2  1  1  0  0  0
  5  1  1  0  0  0  0
  5  7  1  0  0  0  0
  6  4  1  0  0  0  0
  6  8  1  0  0  0  0
  7  6  1  0  0  0  0
  8 23  1  0  0  0  0
  9  3  1  0  0  0  0
  9  4  1  0  0  0  0
 10 14  1  0  0  0  0
 11 10  1  0  0  0  0
 11 13  1  0  0  0  0
 12 15  2  0  0  0  0
 12  7  1  0  0  0  0
 13 15  1  0  0  0  0
 14 12  1  0  0  0  0
 16 10  1  0  0  0  0
 18 20  1  0  0  0  0
 19 17  2  0  0  0  0
 20 19  2  0  0  0  0
 22 21  1  0  0  0  0
 22 17  1  0  0  0  0
 23 24  1  0  0  0  0
 24 26  1  0  0  0  0
 25 31  1  0  0  0  0
 26 27  1  0  0  0  0
 27 25  1  0  0  0  0
 28 31  2  0  0  0  0
 29 28  1  0  0  0  0
 30 26  1  0  0  0  0
 30 29  1  0  0  0  0
 32 34  1  0  0  0  0
 32  5  1  0  0  0  0
 33 34  2  0  0  0  0
M  END
>  <MODEL>
4

>  <REMARK>
 VINA RESULT:      -6.3      3.343      5.458
  Name = 
  8 active torsions:
  status: ('A' for Active; 'I' for Inactive)
    1  A    between atoms: C_2  and  C_4
    2  A    between atoms: C_2  and  O_25
    3  A    between atoms: N_3  and  C_13
    4  A    between atoms: N_3  and  C_17
    5  A    between atoms: C_12  and  C_28
    6  A    between atoms: C_17  and  C_29
    7  A    between atoms: N_21  and  C_32
    8  A    between atoms: C_24  and  C_32
                            x       y       z     vdW  Elec       q    Type
                         _______ _______ _______ _____ _____    ______ ____

>  <TORSDO>
F 8

$$$$
=
 OpenBabel10262423483D

 34 37  0  0  1  0  0  0  0  0999 V2000
  190.0430  175.8280  136.8390 C   0  0  2  0  0  3  0  0  0  0  0  0
  189.2520  179.2310  138.3640 O   0  0  0  0  0  1  0  0  0  0  0  0
  191.4840  177.1650  138.2190 O   0  0  0  0  0  1  0  0  0  0  0  0
  189.1990  177.8470  138.1800 C   0  0  2  0  0  0  0  0  0  0  0  0
  188.7160  175.7990  136.1920 N   0  0  0  0  0  0  0  0  0  0  0  0
  187.7920  177.3150  137.9820 C   0  0  1  0  0  3  0  0  0  0  0  0
  187.6790  175.9850  137.2290 C   0  0  1  0  0  3  0  0  0  0  0  0
  188.5400  177.0460  139.2910 C   0  0  2  0  0  3  0  0  0  0  0  0
  190.3500  177.2160  137.4050 C   0  0  2  0  0  3  0  0  0  0  0  0
  184.0290  174.7840  136.3550 C   0  0  1  0  0  3  0  0  0  0  0  0
  183.5130  176.1790  136.0330 C   0  0  0  0  0  2  0  0  0  0  0  0
  186.2880  175.9120  136.6520 C   0  0  0  0  0  0  0  0  0  0  0  0
  184.5390  176.8880  135.1580 C   0  0  0  0  0  2  0  0  0  0  0  0
  185.3180  174.8730  137.1730 C   0  0  0  0  0  2  0  0  0  0  0  0
  185.9040  176.8680  135.7880 C   0  0  0  0  0  3  0  0  0  0  0  0
  182.8020  173.8890  137.2780 Cl  0  0  0  0  0  0  0  0  0  0  0  0
  191.1420  175.4740  135.8740 C   0  0  0  0  0  0  0  0  0  0  0  0
  192.4560  172.1330  135.8600 C   0  0  0  0  0  1  0  0  0  0  0  0
  191.9370  174.4750  136.1550 C   0  0  0  0  0  0  0  0  0  0  0  0
  192.7270  173.4760  136.4340 C   0  0  0  0  0  3  0  0  0  0  0  0
  192.4860  176.7260  134.3460 O   0  0  0  0  0  1  0  0  0  0  0  0
  191.3000  176.2110  134.6970 O   0  0  0  0  0  0  0  0  0  0  0  0
  187.9610  177.9220  140.3930 C   0  0  0  0  0  2  0  0  0  0  0  0
  188.8130  177.8630  141.5690 N   0  0  0  0  0  2  0  0  0  0  0  0
  189.4980  177.6280  144.6390 C   0  0  0  0  0  2  0  0  0  0  0  0
  188.1020  177.1070  142.5910 C   0  0  1  0  0  3  0  0  0  0  0  0
  189.0930  176.5610  143.6290 C   0  0  0  0  0  2  0  0  0  0  0  0
  187.1810  177.6600  145.6840 C   0  0  0  0  0  3  0  0  0  0  0  0
  186.4030  177.3370  144.4350 C   0  0  0  0  0  2  0  0  0  0  0  0
  187.0000  177.9810  143.1930 C   0  0  0  0  0  2  0  0  0  0  0  0
  188.5210  177.7420  145.7800 C   0  0  0  0  0  3  0  0  0  0  0  0
  188.5300  174.4490  135.6430 C   0  0  0  0  0  2  0  0  0  0  0  0
  187.9170  172.3570  136.7850 C   0  0  0  0  0  2  0  0  0  0  0  0
  188.7180  173.4160  136.7100 C   0  0  0  0  0  3  0  0  0  0  0  0
  1 17  1  6  0  0  0
  1  9  1  0  0  0  0
  4  2  1  1  0  0  0
  4  8  1  0  0  0  0
  5  1  1  0  0  0  0
  5  7  1  0  0  0  0
  6  4  1  0  0  0  0
  6  8  1  0  0  0  0
  7  6  1  0  0  0  0
  8 23  1  0  0  0  0
  9  4  1  0  0  0  0
  9  3  1  0  0  0  0
 10 14  1  0  0  0  0
 10 16  1  0  0  0  0
 11 10  1  0  0  0  0
 12 14  1  0  0  0  0
 12  7  1  0  0  0  0
 13 15  1  0  0  0  0
 13 11  1  0  0  0  0
 15 12  2  0  0  0  0
 17 19  2  0  0  0  0
 18 20  1  0  0  0  0
 19 20  2  0  0  0  0
 21 22  1  0  0  0  0
 22 17  1  0  0  0  0
 23 24  1  0  0  0  0
 24 26  1  0  0  0  0
 25 31  1  0  0  0  0
 26 30  1  0  0  0  0
 26 27  1  0  0  0  0
 27 25  1  0  0  0  0
 28 31  2  0  0  0  0
 29 28  1  0  0  0  0
 30 29  1  0  0  0  0
 32  5  1  0  0  0  0
 32 34  1  0  0  0  0
 34 33  2  0  0  0  0
M  END
>  <MODEL>
5

>  <REMARK>
 VINA RESULT:      -6.3      3.588      6.371
  Name = 
  8 active torsions:
  status: ('A' for Active; 'I' for Inactive)
    1  A    between atoms: C_2  and  C_4
    2  A    between atoms: C_2  and  O_25
    3  A    between atoms: N_3  and  C_13
    4  A    between atoms: N_3  and  C_17
    5  A    between atoms: C_12  and  C_28
    6  A    between atoms: C_17  and  C_29
    7  A    between atoms: N_21  and  C_32
    8  A    between atoms: C_24  and  C_32
                            x       y       z     vdW  Elec       q    Type
                         _______ _______ _______ _____ _____    ______ ____

>  <TORSDO>
F 8

$$$$
=
 OpenBabel10262423483D

 34 37  0  0  1  0  0  0  0  0999 V2000
  186.3260  177.0140  137.5540 C   0  0  2  0  0  3  0  0  0  0  0  0
  184.5950  180.1550  138.8440 O   0  0  0  0  0  1  0  0  0  0  0  0
  187.2930  178.7440  138.9110 O   0  0  0  0  0  1  0  0  0  0  0  0
  184.9140  178.7990  138.7390 C   0  0  2  0  0  0  0  0  0  0  0  0
  185.0910  176.6070  136.8560 N   0  0  0  0  0  0  0  0  0  0  0  0
  183.7080  177.9080  138.5150 C   0  0  1  0  0  3  0  0  0  0  0  0
  183.9850  176.5620  137.8370 C   0  0  1  0  0  3  0  0  0  0  0  0
  184.4270  177.9050  139.8670 C   0  0  2  0  0  3  0  0  0  0  0  0
  186.2300  178.4580  138.0500 C   0  0  2  0  0  3  0  0  0  0  0  0
  180.9000  174.3520  136.7790 C   0  0  1  0  0  3  0  0  0  0  0  0
  179.9850  175.5380  136.5090 C   0  0  0  0  0  2  0  0  0  0  0  0
  182.6960  176.1000  137.2090 C   0  0  0  0  0  0  0  0  0  0  0  0
  180.7570  176.5760  135.7060 C   0  0  0  0  0  2  0  0  0  0  0  0
  182.0830  174.7840  137.6440 C   0  0  0  0  0  2  0  0  0  0  0  0
  182.0510  176.9400  136.3820 C   0  0  0  0  0  3  0  0  0  0  0  0
  179.9920  173.0720  137.6140 Cl  0  0  0  0  0  0  0  0  0  0  0  0
  187.5310  176.9170  136.6570 C   0  0  0  0  0  0  0  0  0  0  0  0
  189.6360  174.0150  136.8520 C   0  0  0  0  0  1  0  0  0  0  0  0
  188.5340  176.1590  137.0180 C   0  0  0  0  0  0  0  0  0  0  0  0
  189.5310  175.4020  137.3770 C   0  0  0  0  0  3  0  0  0  0  0  0
  188.1690  177.1420  134.3650 O   0  0  0  0  0  1  0  0  0  0  0  0
  187.5650  177.6320  135.4570 O   0  0  0  0  0  0  0  0  0  0  0  0
  183.5800  178.6470  140.8910 C   0  0  0  0  0  2  0  0  0  0  0  0
  183.7290  178.0260  142.1980 N   0  0  0  0  0  2  0  0  0  0  0  0
  184.0400  178.7930  145.2410 C   0  0  0  0  0  2  0  0  0  0  0  0
  184.8710  178.6470  142.8540 C   0  0  1  0  0  3  0  0  0  0  0  0
  184.3940  179.5730  143.9810 C   0  0  0  0  0  2  0  0  0  0  0  0
  186.4720  178.1960  145.6740 C   0  0  0  0  0  3  0  0  0  0  0  0
  186.9140  178.1330  144.2340 C   0  0  0  0  0  2  0  0  0  0  0  0
  185.8420  177.5600  143.3200 C   0  0  0  0  0  2  0  0  0  0  0  0
  185.2410  178.5240  146.1090 C   0  0  0  0  0  3  0  0  0  0  0  0
  185.2920  175.2320  136.3800 C   0  0  0  0  0  2  0  0  0  0  0  0
  185.5440  173.0000  137.3850 C   0  0  0  0  0  2  0  0  0  0  0  0
  185.6120  174.3210  137.5230 C   0  0  0  0  0  3  0  0  0  0  0  0
  1 17  1  6  0  0  0
  1  9  1  0  0  0  0
  4  2  1  1  0  0  0
  4  8  1  0  0  0  0
  5  1  1  0  0  0  0
  5  7  1  0  0  0  0
  6  4  1  0  0  0  0
  6  8  1  0  0  0  0
  7  6  1  0  0  0  0
  8 23  1  0  0  0  0
  9  4  1  0  0  0  0
  9  3  1  0  0  0  0
 10 16  1  0  0  0  0
 10 14  1  0  0  0  0
 11 10  1  0  0  0  0
 12 14  1  0  0  0  0
 12  7  1  0  0  0  0
 13 15  1  0  0  0  0
 13 11  1  0  0  0  0
 15 12  2  0  0  0  0
 17 19  2  0  0  0  0
 18 20  1  0  0  0  0
 19 20  2  0  0  0  0
 21 22  1  0  0  0  0
 22 17  1  0  0  0  0
 23 24  1  0  0  0  0
 24 26  1  0  0  0  0
 25 31  1  0  0  0  0
 26 30  1  0  0  0  0
 26 27  1  0  0  0  0
 27 25  1  0  0  0  0
 28 31  2  0  0  0  0
 29 28  1  0  0  0  0
 30 29  1  0  0  0  0
 32  5  1  0  0  0  0
 32 34  1  0  0  0  0
 33 34  2  0  0  0  0
M  END
>  <MODEL>
6

>  <REMARK>
 VINA RESULT:      -6.2      3.488      6.228
  Name = 
  8 active torsions:
  status: ('A' for Active; 'I' for Inactive)
    1  A    between atoms: C_2  and  C_4
    2  A    between atoms: C_2  and  O_25
    3  A    between atoms: N_3  and  C_13
    4  A    between atoms: N_3  and  C_17
    5  A    between atoms: C_12  and  C_28
    6  A    between atoms: C_17  and  C_29
    7  A    between atoms: N_21  and  C_32
    8  A    between atoms: C_24  and  C_32
                            x       y       z     vdW  Elec       q    Type
                         _______ _______ _______ _____ _____    ______ ____

>  <TORSDO>
F 8

$$$$
=
 OpenBabel10262423483D

 34 37  0  0  1  0  0  0  0  0999 V2000
  191.9530  175.6370  138.0310 C   0  0  2  0  0  3  0  0  0  0  0  0
  189.9850  178.8020  138.8290 O   0  0  0  0  0  1  0  0  0  0  0  0
  192.5040  177.3090  139.6650 O   0  0  0  0  0  1  0  0  0  0  0  0
  190.2900  177.4400  138.7870 C   0  0  2  0  0  0  0  0  0  0  0  0
  190.9770  175.2820  136.9830 N   0  0  0  0  0  0  0  0  0  0  0  0
  189.1870  176.5890  138.1850 C   0  0  1  0  0  3  0  0  0  0  0  0
  189.6260  175.2500  137.5840 C   0  0  1  0  0  3  0  0  0  0  0  0
  189.4650  176.5370  139.6890 C   0  0  2  0  0  3  0  0  0  0  0  0
  191.7450  177.0730  138.5160 C   0  0  2  0  0  3  0  0  0  0  0  0
  186.8980  173.1840  135.6300 C   0  0  1  0  0  3  0  0  0  0  0  0
  186.1980  174.4100  135.0620 C   0  0  0  0  0  2  0  0  0  0  0  0
  188.5760  174.8400  136.5840 C   0  0  0  0  0  0  0  0  0  0  0  0
  187.2540  175.3710  134.5310 C   0  0  0  0  0  2  0  0  0  0  0  0
  187.7710  173.5790  136.8220 C   0  0  0  0  0  2  0  0  0  0  0  0
  188.2860  175.6850  135.5790 C   0  0  0  0  0  3  0  0  0  0  0  0
  185.6890  171.9900  136.1520 Cl  0  0  0  0  0  0  0  0  0  0  0  0
  193.3700  175.5220  137.5360 C   0  0  0  0  0  0  0  0  0  0  0  0
  194.7900  172.2650  137.0180 C   0  0  0  0  0  1  0  0  0  0  0  0
  194.0460  174.4320  137.7890 C   0  0  0  0  0  0  0  0  0  0  0  0
  194.7170  173.3430  138.0390 C   0  0  0  0  0  3  0  0  0  0  0  0
  195.1110  176.4290  136.1730 O   0  0  0  0  0  1  0  0  0  0  0  0
  193.9430  176.5740  136.8160 O   0  0  0  0  0  0  0  0  0  0  0  0
  188.3660  177.2840  140.4320 C   0  0  0  0  0  2  0  0  0  0  0  0
  188.8840  177.8030  141.6890 N   0  0  0  0  0  2  0  0  0  0  0  0
  189.8150  177.5830  144.6940 C   0  0  0  0  0  2  0  0  0  0  0  0
  188.2600  177.0500  142.7670 C   0  0  1  0  0  3  0  0  0  0  0  0
  189.3320  176.5100  143.7240 C   0  0  0  0  0  2  0  0  0  0  0  0
  187.5900  177.6140  145.9220 C   0  0  0  0  0  3  0  0  0  0  0  0
  186.7140  177.2840  144.7410 C   0  0  0  0  0  2  0  0  0  0  0  0
  187.2070  177.9240  143.4520 C   0  0  0  0  0  2  0  0  0  0  0  0
  188.9330  177.6990  145.9090 C   0  0  0  0  0  3  0  0  0  0  0  0
  191.2810  173.9110  136.5500 C   0  0  0  0  0  2  0  0  0  0  0  0
  191.8310  174.8600  134.3480 C   0  0  0  0  0  2  0  0  0  0  0  0
  191.3670  173.8360  135.0590 C   0  0  0  0  0  3  0  0  0  0  0  0
  1 17  1  6  0  0  0
  1  9  1  0  0  0  0
  4  2  1  1  0  0  0
  4  8  1  0  0  0  0
  5  7  1  0  0  0  0
  5  1  1  0  0  0  0
  6  4  1  0  0  0  0
  6  8  1  0  0  0  0
  7  6  1  0  0  0  0
  8 23  1  0  0  0  0
  9  4  1  0  0  0  0
  9  3  1  0  0  0  0
 10 16  1  0  0  0  0
 10 14  1  0  0  0  0
 11 10  1  0  0  0  0
 12 14  1  0  0  0  0
 12  7  1  0  0  0  0
 13 11  1  0  0  0  0
 13 15  1  0  0  0  0
 15 12  2  0  0  0  0
 17 19  2  0  0  0  0
 18 20  1  0  0  0  0
 19 20  2  0  0  0  0
 21 22  1  0  0  0  0
 22 17  1  0  0  0  0
 23 24  1  0  0  0  0
 24 26  1  0  0  0  0
 25 31  1  0  0  0  0
 26 30  1  0  0  0  0
 26 27  1  0  0  0  0
 27 25  1  0  0  0  0
 29 28  1  0  0  0  0
 30 29  1  0  0  0  0
 31 28  2  0  0  0  0
 32  5  1  0  0  0  0
 33 34  2  0  0  0  0
 34 32  1  0  0  0  0
M  END
>  <MODEL>
7

>  <REMARK>
 VINA RESULT:      -6.0      4.187      6.893
  Name = 
  8 active torsions:
  status: ('A' for Active; 'I' for Inactive)
    1  A    between atoms: C_2  and  C_4
    2  A    between atoms: C_2  and  O_25
    3  A    between atoms: N_3  and  C_13
    4  A    between atoms: N_3  and  C_17
    5  A    between atoms: C_12  and  C_28
    6  A    between atoms: C_17  and  C_29
    7  A    between atoms: N_21  and  C_32
    8  A    between atoms: C_24  and  C_32
                            x       y       z     vdW  Elec       q    Type
                         _______ _______ _______ _____ _____    ______ ____

>  <TORSDO>
F 8

$$$$
=
 OpenBabel10262423483D

 34 37  0  0  1  0  0  0  0  0999 V2000
  188.7350  178.1470  138.1510 C   0  0  2  0  0  3  0  0  0  0  0  0
  188.9800  176.1840  141.4090 O   0  0  0  0  0  1  0  0  0  0  0  0
  187.8130  178.7610  140.2820 O   0  0  0  0  0  1  0  0  0  0  0  0
  189.3960  176.9780  140.3380 C   0  0  2  0  0  0  0  0  0  0  0  0
  189.4880  177.0910  137.4460 N   0  0  0  0  0  0  0  0  0  0  0  0
  190.6040  176.4240  139.6060 C   0  0  1  0  0  3  0  0  0  0  0  0
  190.7690  176.8720  138.1500 C   0  0  1  0  0  3  0  0  0  0  0  0
  190.7430  177.6650  140.4930 C   0  0  2  0  0  3  0  0  0  0  0  0
  188.3020  177.6810  139.5430 C   0  0  2  0  0  3  0  0  0  0  0  0
  193.7030  175.1310  136.1790 C   0  0  1  0  0  3  0  0  0  0  0  0
  193.4210  173.7430  136.7390 C   0  0  0  0  0  2  0  0  0  0  0  0
  191.6230  175.8420  137.4570 C   0  0  0  0  0  0  0  0  0  0  0  0
  191.9210  173.4880  136.6730 C   0  0  0  0  0  2  0  0  0  0  0  0
  193.0390  176.1960  137.0510 C   0  0  0  0  0  2  0  0  0  0  0  0
  191.1480  174.5890  137.3460 C   0  0  0  0  0  3  0  0  0  0  0  0
  195.4580  175.4130  136.1330 Cl  0  0  0  0  0  0  0  0  0  0  0  0
  187.4950  178.5470  137.3960 C   0  0  0  0  0  0  0  0  0  0  0  0
  184.2890  177.4390  138.5730 C   0  0  0  0  0  1  0  0  0  0  0  0
  186.4220  177.8070  137.4980 C   0  0  0  0  0  0  0  0  0  0  0  0
  185.3520  177.0700  137.6020 C   0  0  0  0  0  3  0  0  0  0  0  0
  187.0680  179.6760  135.3340 O   0  0  0  0  0  1  0  0  0  0  0  0
  187.5050  179.6960  136.6010 O   0  0  0  0  0  0  0  0  0  0  0  0
  191.4580  177.2860  141.7830 C   0  0  0  0  0  2  0  0  0  0  0  0
  191.0730  178.2000  142.8470 N   0  0  0  0  0  2  0  0  0  0  0  0
  191.8960  176.5350  145.3950 C   0  0  0  0  0  2  0  0  0  0  0  0
  190.2040  177.4720  143.7600 C   0  0  1  0  0  3  0  0  0  0  0  0
  190.9160  176.2120  144.2750 C   0  0  0  0  0  2  0  0  0  0  0  0
  190.0170  177.1060  147.0090 C   0  0  0  0  0  3  0  0  0  0  0  0
  189.0450  177.6440  145.9890 C   0  0  0  0  0  2  0  0  0  0  0  0
  189.7370  178.4120  144.8730 C   0  0  0  0  0  2  0  0  0  0  0  0
  191.2310  176.5880  146.7460 C   0  0  0  0  0  3  0  0  0  0  0  0
  189.8200  177.6090  136.1120 C   0  0  0  0  0  2  0  0  0  0  0  0
  188.4770  175.6880  135.3620 C   0  0  0  0  0  2  0  0  0  0  0  0
  189.2320  176.7370  135.0480 C   0  0  0  0  0  3  0  0  0  0  0  0
  1 17  1  6  0  0  0
  1  9  1  0  0  0  0
  4  8  1  0  0  0  0
  4  2  1  1  0  0  0
  5  7  1  0  0  0  0
  5  1  1  0  0  0  0
  6  4  1  0  0  0  0
  6  8  1  0  0  0  0
  7  6  1  0  0  0  0
  8 23  1  0  0  0  0
  9  3  1  0  0  0  0
  9  4  1  0  0  0  0
 10 11  1  0  0  0  0
 10 14  1  0  0  0  0
 12  7  1  0  0  0  0
 13 11  1  0  0  0  0
 13 15  1  0  0  0  0
 14 12  1  0  0  0  0
 15 12  2  0  0  0  0
 16 10  1  0  0  0  0
 17 19  2  0  0  0  0
 19 20  2  0  0  0  0
 20 18  1  0  0  0  0
 21 22  1  0  0  0  0
 22 17  1  0  0  0  0
 23 24  1  0  0  0  0
 24 26  1  0  0  0  0
 25 31  1  0  0  0  0
 26 27  1  0  0  0  0
 26 30  1  0  0  0  0
 27 25  1  0  0  0  0
 29 28  1  0  0  0  0
 30 29  1  0  0  0  0
 31 28  2  0  0  0  0
 32  5  1  0  0  0  0
 34 33  2  0  0  0  0
 34 32  1  0  0  0  0
M  END
>  <MODEL>
8

>  <REMARK>
 VINA RESULT:      -5.9      3.120      4.941
  Name = 
  8 active torsions:
  status: ('A' for Active; 'I' for Inactive)
    1  A    between atoms: C_2  and  C_4
    2  A    between atoms: C_2  and  O_25
    3  A    between atoms: N_3  and  C_13
    4  A    between atoms: N_3  and  C_17
    5  A    between atoms: C_12  and  C_28
    6  A    between atoms: C_17  and  C_29
    7  A    between atoms: N_21  and  C_32
    8  A    between atoms: C_24  and  C_32
                            x       y       z     vdW  Elec       q    Type
                         _______ _______ _______ _____ _____    ______ ____

>  <TORSDO>
F 8

$$$$
=
 OpenBabel10262423483D

 34 37  0  0  1  0  0  0  0  0999 V2000
  186.7560  178.6550  140.7200 C   0  0  2  0  0  3  0  0  0  0  0  0
  187.8390  176.1510  143.3820 O   0  0  0  0  0  1  0  0  0  0  0  0
  186.2440  178.7260  143.0650 O   0  0  0  0  0  1  0  0  0  0  0  0
  187.9540  177.1820  142.4470 C   0  0  2  0  0  0  0  0  0  0  0  0
  187.4370  177.8590  139.6800 N   0  0  0  0  0  0  0  0  0  0  0  0
  189.0290  176.9380  141.4050 C   0  0  1  0  0  3  0  0  0  0  0  0
  188.8500  177.6750  140.0730 C   0  0  1  0  0  3  0  0  0  0  0  0
  189.2390  177.9930  142.4950 C   0  0  2  0  0  3  0  0  0  0  0  0
  186.6630  177.8800  142.0360 C   0  0  2  0  0  3  0  0  0  0  0  0
  191.7020  176.5150  137.6140 C   0  0  1  0  0  3  0  0  0  0  0  0
  191.2230  175.0720  137.5400 C   0  0  0  0  0  2  0  0  0  0  0  0
  189.6290  176.9140  139.0300 C   0  0  0  0  0  0  0  0  0  0  0  0
  189.7120  175.0700  137.3460 C   0  0  0  0  0  2  0  0  0  0  0  0
  191.1020  177.2100  138.8360 C   0  0  0  0  0  2  0  0  0  0  0  0
  189.0230  175.8930  138.4000 C   0  0  0  0  0  3  0  0  0  0  0  0
  193.4760  176.5540  137.7220 Cl  0  0  0  0  0  0  0  0  0  0  0  0
  185.3570  179.0300  140.3090 C   0  0  0  0  0  0  0  0  0  0  0  0
  182.6990  178.7890  142.7090 C   0  0  0  0  0  1  0  0  0  0  0  0
  184.3450  178.5210  140.9600 C   0  0  0  0  0  0  0  0  0  0  0  0
  183.3360  178.0150  141.6120 C   0  0  0  0  0  3  0  0  0  0  0  0
  183.9660  180.4830  139.0200 O   0  0  0  0  0  1  0  0  0  0  0  0
  185.1580  179.9140  139.2450 O   0  0  0  0  0  0  0  0  0  0  0  0
  190.2350  177.4690  143.5200 C   0  0  0  0  0  2  0  0  0  0  0  0
  190.0900  178.2010  144.7680 N   0  0  0  0  0  2  0  0  0  0  0  0
  190.1110  177.9890  147.9140 C   0  0  0  0  0  2  0  0  0  0  0  0
  189.1860  177.4430  145.6210 C   0  0  1  0  0  3  0  0  0  0  0  0
  189.9390  176.9130  146.8500 C   0  0  0  0  0  2  0  0  0  0  0  0
  187.6250  178.0010  148.4450 C   0  0  0  0  0  3  0  0  0  0  0  0
  187.1320  177.6640  147.0610 C   0  0  0  0  0  2  0  0  0  0  0  0
  187.9720  178.3080  145.9690 C   0  0  0  0  0  2  0  0  0  0  0  0
  188.9140  178.0980  148.8220 C   0  0  0  0  0  3  0  0  0  0  0  0
  187.4400  178.6610  138.4500 C   0  0  0  0  0  2  0  0  0  0  0  0
  187.1110  178.1450  136.0660 C   0  0  0  0  0  2  0  0  0  0  0  0
  186.7790  177.9160  137.3330 C   0  0  0  0  0  3  0  0  0  0  0  0
  1 17  1  6  0  0  0
  1  9  1  0  0  0  0
  4  8  1  0  0  0  0
  4  2  1  1  0  0  0
  5  7  1  0  0  0  0
  5  1  1  0  0  0  0
  6  4  1  0  0  0  0
  6  8  1  0  0  0  0
  7  6  1  0  0  0  0
  8 23  1  0  0  0  0
  9  4  1  0  0  0  0
  9  3  1  0  0  0  0
 10 16  1  0  0  0  0
 10 14  1  0  0  0  0
 11 10  1  0  0  0  0
 12  7  1  0  0  0  0
 13 11  1  0  0  0  0
 13 15  1  0  0  0  0
 14 12  1  0  0  0  0
 15 12  2  0  0  0  0
 17 19  2  0  0  0  0
 19 20  2  0  0  0  0
 20 18  1  0  0  0  0
 21 22  1  0  0  0  0
 22 17  1  0  0  0  0
 23 24  1  0  0  0  0
 24 26  1  0  0  0  0
 25 31  1  0  0  0  0
 26 30  1  0  0  0  0
 26 27  1  0  0  0  0
 27 25  1  0  0  0  0
 28 31  2  0  0  0  0
 29 28  1  0  0  0  0
 30 29  1  0  0  0  0
 32  5  1  0  0  0  0
 33 34  2  0  0  0  0
 34 32  1  0  0  0  0
M  END
>  <MODEL>
9

>  <REMARK>
 VINA RESULT:      -5.8      2.265      4.167
  Name = 
  8 active torsions:
  status: ('A' for Active; 'I' for Inactive)
    1  A    between atoms: C_2  and  C_4
    2  A    between atoms: C_2  and  O_25
    3  A    between atoms: N_3  and  C_13
    4  A    between atoms: N_3  and  C_17
    5  A    between atoms: C_12  and  C_28
    6  A    between atoms: C_17  and  C_29
    7  A    between atoms: N_21  and  C_32
    8  A    between atoms: C_24  and  C_32
                            x       y       z     vdW  Elec       q    Type
                         _______ _______ _______ _____ _____    ______ ____

>  <TORSDO>
F 8

$$$$
