=
 OpenBabel10272413363D

 32 38  0  0  1  0  0  0  0  0999 V2000
  187.0310  178.0000  136.9510 C   0  0  1  0  0  3  0  0  0  0  0  0
  187.8670  178.0240  142.0520 C   0  0  0  0  0  0  0  0  0  0  0  0
  183.3160  178.4810  143.9950 C   0  0  0  0  0  2  0  0  0  0  0  0
  183.9580  179.0560  145.2420 C   0  0  0  0  0  2  0  0  0  0  0  0
  189.8460  177.5680  143.5990 C   0  0  0  0  0  0  0  0  0  0  0  0
  190.2810  177.1270  144.9330 C   0  0  0  0  0  0  0  0  0  0  0  0
  188.1510  178.0310  139.6230 C   0  0  0  0  0  0  0  0  0  0  0  0
  185.9690  178.4420  140.5800 C   0  0  0  0  0  3  0  0  0  0  0  0
  191.0760  176.2460  147.4710 C   0  0  0  0  0  3  0  0  0  0  0  0
  186.1780  178.5400  138.1000 C   0  0  0  0  0  2  0  0  0  0  0  0
  184.1910  178.8060  142.7930 C   0  0  0  0  0  2  0  0  0  0  0  0
  186.4870  178.2980  141.8790 C   0  0  0  0  0  0  0  0  0  0  0  0
  185.6420  178.4200  142.9950 C   0  0  0  0  0  0  0  0  0  0  0  0
  187.5450  178.0010  144.4750 C   0  0  0  0  0  0  0  0  0  0  0  0
  191.9490  176.1280  146.3870 C   0  0  0  0  0  3  0  0  0  0  0  0
  188.5010  178.3770  137.1550 C   0  0  0  0  0  2  0  0  0  0  0  0
  186.7800  178.2990  139.4570 C   0  0  0  0  0  0  0  0  0  0  0  0
  191.5540  176.5680  145.1210 C   0  0  0  0  0  3  0  0  0  0  0  0
  189.0550  177.7840  138.4500 C   0  0  0  0  0  2  0  0  0  0  0  0
  185.2680  178.3270  145.5060 C   0  0  0  0  0  2  0  0  0  0  0  0
  186.1760  178.2830  144.2960 C   0  0  0  0  0  0  0  0  0  0  0  0
  188.0840  177.9340  145.8880 C   0  0  0  0  0  2  0  0  0  0  0  0
  188.6720  177.8830  140.9080 C   0  0  0  0  0  3  0  0  0  0  0  0
  190.7030  177.6680  142.6780 O   0  0  0  0  0  0  0  0  0  0  0  0
  189.8090  176.8060  147.2890 C   0  0  0  0  0  3  0  0  0  0  0  0
  188.4070  177.8840  143.3560 C   0  0  0  0  0  0  0  0  0  0  0  0
  189.4040  177.2380  146.0230 C   0  0  0  0  0  0  0  0  0  0  0  0
  186.8330  176.4960  136.7950 C   0  0  0  0  0  2  0  0  0  0  0  0
  185.3710  176.1300  136.9660 C   0  0  0  0  0  2  0  0  0  0  0  0
  185.1470  174.7060  136.5030 C   0  0  0  0  0  3  0  0  0  0  0  0
  184.5100  173.9110  137.6250 C   0  0  0  0  0  2  0  0  0  0  0  0
  185.9910  173.7740  137.3470 C   0  0  0  0  0  2  0  0  0  0  0  0
  1 28  1  1  0  0  0
  1 16  1  0  0  0  0
  1 10  1  0  0  0  0
  2 26  1  0  0  0  0
  3  4  1  0  0  0  0
  4 20  1  0  0  0  0
  5  6  1  0  0  0  0
  6 18  2  0  0  0  0
  6 27  1  0  0  0  0
  7 23  1  0  0  0  0
  8 12  2  0  0  0  0
 10 17  1  0  0  0  0
 11 13  1  0  0  0  0
 11  3  1  0  0  0  0
 12  2  1  0  0  0  0
 12 13  1  0  0  0  0
 13 21  2  0  0  0  0
 14 22  1  0  0  0  0
 15  9  2  0  0  0  0
 16 19  1  0  0  0  0
 17  7  2  0  0  0  0
 17  8  1  0  0  0  0
 18 15  1  0  0  0  0
 19  7  1  0  0  0  0
 21 14  1  0  0  0  0
 21 20  1  0  0  0  0
 22 27  1  0  0  0  0
 23  2  2  0  0  0  0
 24  5  2  0  0  0  0
 25  9  1  0  0  0  0
 26  5  1  0  0  0  0
 26 14  2  0  0  0  0
 27 25  2  0  0  0  0
 28 29  1  0  0  0  0
 30 29  1  0  0  0  0
 30 32  1  0  0  0  0
 30 31  1  0  0  0  0
 32 31  1  0  0  0  0
M  END
>  <MODEL>
1

>  <REMARK>
 VINA RESULT:     -11.3      0.000      0.000
  Name = 
  3 active torsions:
  status: ('A' for Active; 'I' for Inactive)
    1  A    between atoms: C_1  and  C_10
    2  A    between atoms: C_2  and  C_24
    3  A    between atoms: C_10  and  C_24
                            x       y       z     vdW  Elec       q    Type
                         _______ _______ _______ _____ _____    ______ ____

>  <TORSDO>
F 3

$$$$
=
 OpenBabel10272413363D

 32 38  0  0  1  0  0  0  0  0999 V2000
  187.7380  177.8790  136.7310 C   0  0  1  0  0  3  0  0  0  0  0  0
  187.0600  178.2570  141.8410 C   0  0  0  0  0  0  0  0  0  0  0  0
  182.1230  178.4790  142.3670 C   0  0  0  0  0  2  0  0  0  0  0  0
  182.3440  179.1710  143.6980 C   0  0  0  0  0  2  0  0  0  0  0  0
  188.5290  178.0400  143.9180 C   0  0  0  0  0  0  0  0  0  0  0  0
  188.5830  177.7100  145.3510 C   0  0  0  0  0  0  0  0  0  0  0  0
  188.0340  178.1460  139.6010 C   0  0  0  0  0  0  0  0  0  0  0  0
  185.6480  178.4460  139.8630 C   0  0  0  0  0  3  0  0  0  0  0  0
  188.6580  177.0370  148.0700 C   0  0  0  0  0  3  0  0  0  0  0  0
  186.5600  178.4180  137.5440 C   0  0  0  0  0  2  0  0  0  0  0  0
  183.2890  178.8010  141.4430 C   0  0  0  0  0  2  0  0  0  0  0  0
  185.7760  178.4160  141.2620 C   0  0  0  0  0  0  0  0  0  0  0  0
  184.6390  178.5370  142.0790 C   0  0  0  0  0  0  0  0  0  0  0  0
  186.0530  178.3480  144.0670 C   0  0  0  0  0  0  0  0  0  0  0  0
  189.8120  176.9240  147.2920 C   0  0  0  0  0  3  0  0  0  0  0  0
  189.0630  178.3770  137.3160 C   0  0  0  0  0  2  0  0  0  0  0  0
  186.7570  178.3010  139.0310 C   0  0  0  0  0  0  0  0  0  0  0  0
  189.7760  177.2600  145.9360 C   0  0  0  0  0  3  0  0  0  0  0  0
  189.2510  177.9020  138.7560 C   0  0  0  0  0  2  0  0  0  0  0  0
  183.5600  178.5600  144.3790 C   0  0  0  0  0  2  0  0  0  0  0  0
  184.7800  178.5150  143.4850 C   0  0  0  0  0  0  0  0  0  0  0  0
  186.1630  178.4020  145.5760 C   0  0  0  0  0  2  0  0  0  0  0  0
  188.1680  178.1120  140.9880 C   0  0  0  0  0  3  0  0  0  0  0  0
  189.6090  178.1510  143.2750 O   0  0  0  0  0  0  0  0  0  0  0  0
  187.4690  177.4890  147.4920 C   0  0  0  0  0  3  0  0  0  0  0  0
  187.2060  178.2320  143.2530 C   0  0  0  0  0  0  0  0  0  0  0  0
  187.4240  177.8170  146.1340 C   0  0  0  0  0  0  0  0  0  0  0  0
  187.6780  176.3580  136.6400 C   0  0  0  0  0  2  0  0  0  0  0  0
  188.9710  175.8070  136.0700 C   0  0  0  0  0  2  0  0  0  0  0  0
  189.4680  174.6730  136.9420 C   0  0  0  0  0  3  0  0  0  0  0  0
  190.9030  174.9450  137.3450 C   0  0  0  0  0  2  0  0  0  0  0  0
  190.6020  173.9650  136.2320 C   0  0  0  0  0  2  0  0  0  0  0  0
  1 28  1  1  0  0  0
  1 16  1  0  0  0  0
  1 10  1  0  0  0  0
  2 26  1  0  0  0  0
  3  4  1  0  0  0  0
  4 20  1  0  0  0  0
  5  6  1  0  0  0  0
  6 18  2  0  0  0  0
  6 27  1  0  0  0  0
  7 23  1  0  0  0  0
  8 12  2  0  0  0  0
 10 17  1  0  0  0  0
 11 13  1  0  0  0  0
 11  3  1  0  0  0  0
 12  2  1  0  0  0  0
 12 13  1  0  0  0  0
 13 21  2  0  0  0  0
 14 22  1  0  0  0  0
 15  9  2  0  0  0  0
 16 19  1  0  0  0  0
 17  7  2  0  0  0  0
 17  8  1  0  0  0  0
 18 15  1  0  0  0  0
 19  7  1  0  0  0  0
 21 14  1  0  0  0  0
 21 20  1  0  0  0  0
 22 27  1  0  0  0  0
 23  2  2  0  0  0  0
 24  5  2  0  0  0  0
 25  9  1  0  0  0  0
 26  5  1  0  0  0  0
 26 14  2  0  0  0  0
 27 25  2  0  0  0  0
 29 28  1  0  0  0  0
 29 30  1  0  0  0  0
 30 31  1  0  0  0  0
 32 30  1  0  0  0  0
 32 31  1  0  0  0  0
M  END
>  <MODEL>
2

>  <REMARK>
 VINA RESULT:     -10.6      1.529      2.275
  Name = 
  3 active torsions:
  status: ('A' for Active; 'I' for Inactive)
    1  A    between atoms: C_1  and  C_10
    2  A    between atoms: C_2  and  C_24
    3  A    between atoms: C_10  and  C_24
                            x       y       z     vdW  Elec       q    Type
                         _______ _______ _______ _____ _____    ______ ____

>  <TORSDO>
F 3

$$$$
=
 OpenBabel10272413363D

 32 38  0  0  1  0  0  0  0  0999 V2000
  181.7280  179.9250  138.6190 C   0  0  1  0  0  3  0  0  0  0  0  0
  185.5250  178.3750  141.7660 C   0  0  0  0  0  0  0  0  0  0  0  0
  189.5260  178.2500  138.8210 C   0  0  0  0  0  2  0  0  0  0  0  0
  190.1440  177.2530  139.7820 C   0  0  0  0  0  2  0  0  0  0  0  0
  185.8120  178.0280  144.2790 C   0  0  0  0  0  0  0  0  0  0  0  0
  186.7490  178.0070  145.4120 C   0  0  0  0  0  0  0  0  0  0  0  0
  183.3480  178.9710  140.8240 C   0  0  0  0  0  0  0  0  0  0  0  0
  185.2630  178.7230  139.3670 C   0  0  0  0  0  3  0  0  0  0  0  0
  188.5540  178.0110  147.5560 C   0  0  0  0  0  3  0  0  0  0  0  0
  183.0710  179.2610  138.3110 C   0  0  0  0  0  2  0  0  0  0  0  0
  188.0110  178.1060  138.8640 C   0  0  0  0  0  2  0  0  0  0  0  0
  186.0850  178.4150  140.4640 C   0  0  0  0  0  0  0  0  0  0  0  0
  187.4520  178.1530  140.2710 C   0  0  0  0  0  0  0  0  0  0  0  0
  187.7190  177.8020  142.6780 C   0  0  0  0  0  0  0  0  0  0  0  0
  187.1980  178.2540  147.7860 C   0  0  0  0  0  3  0  0  0  0  0  0
  181.0580  179.2450  139.8160 C   0  0  0  0  0  2  0  0  0  0  0  0
  183.9100  179.0130  139.5350 C   0  0  0  0  0  0  0  0  0  0  0  0
  186.2970  178.2520  146.7180 C   0  0  0  0  0  3  0  0  0  0  0  0
  181.9190  179.3560  141.0750 C   0  0  0  0  0  2  0  0  0  0  0  0
  189.7570  177.6320  141.2040 C   0  0  0  0  0  2  0  0  0  0  0  0
  188.2680  177.8340  141.3800 C   0  0  0  0  0  0  0  0  0  0  0  0
  188.6150  177.3870  143.8250 C   0  0  0  0  0  2  0  0  0  0  0  0
  184.1590  178.6700  141.9180 C   0  0  0  0  0  3  0  0  0  0  0  0
  184.5710  178.0260  144.5100 O   0  0  0  0  0  0  0  0  0  0  0  0
  189.0080  177.7610  146.2580 C   0  0  0  0  0  3  0  0  0  0  0  0
  186.3410  178.0580  142.8820 C   0  0  0  0  0  0  0  0  0  0  0  0
  188.1130  177.7670  145.1840 C   0  0  0  0  0  0  0  0  0  0  0  0
  181.9060  181.4260  138.8270 C   0  0  0  0  0  2  0  0  0  0  0  0
  180.8970  182.2010  138.0010 C   0  0  0  0  0  2  0  0  0  0  0  0
  181.4800  183.5450  137.6190 C   0  0  0  0  0  3  0  0  0  0  0  0
  180.3520  184.5280  137.3770 C   0  0  0  0  0  2  0  0  0  0  0  0
  181.0590  183.8820  136.2050 C   0  0  0  0  0  2  0  0  0  0  0  0
  1 28  1  1  0  0  0
  1 16  1  0  0  0  0
  2 23  2  0  0  0  0
  2 26  1  0  0  0  0
  3 11  1  0  0  0  0
  3  4  1  0  0  0  0
  4 20  1  0  0  0  0
  5 24  2  0  0  0  0
  5  6  1  0  0  0  0
  6 18  1  0  0  0  0
  7 19  1  0  0  0  0
  7 23  1  0  0  0  0
  8 17  1  0  0  0  0
  8 12  2  0  0  0  0
  9 15  1  0  0  0  0
 10  1  1  0  0  0  0
 10 17  1  0  0  0  0
 11 13  1  0  0  0  0
 12  2  1  0  0  0  0
 13 12  1  0  0  0  0
 13 21  2  0  0  0  0
 14 26  2  0  0  0  0
 14 22  1  0  0  0  0
 16 19  1  0  0  0  0
 17  7  2  0  0  0  0
 18 15  2  0  0  0  0
 20 21  1  0  0  0  0
 21 14  1  0  0  0  0
 22 27  1  0  0  0  0
 25  9  2  0  0  0  0
 26  5  1  0  0  0  0
 27  6  2  0  0  0  0
 27 25  1  0  0  0  0
 29 28  1  0  0  0  0
 30 29  1  0  0  0  0
 31 30  1  0  0  0  0
 32 31  1  0  0  0  0
 32 30  1  0  0  0  0
M  END
>  <MODEL>
3

>  <REMARK>
 VINA RESULT:     -10.1      3.448      5.828
  Name = 
  3 active torsions:
  status: ('A' for Active; 'I' for Inactive)
    1  A    between atoms: C_1  and  C_10
    2  A    between atoms: C_2  and  C_24
    3  A    between atoms: C_10  and  C_24
                            x       y       z     vdW  Elec       q    Type
                         _______ _______ _______ _____ _____    ______ ____

>  <TORSDO>
F 3

$$$$
=
 OpenBabel10272413363D

 32 38  0  0  1  0  0  0  0  0999 V2000
  191.6560  176.0550  136.5450 C   0  0  1  0  0  3  0  0  0  0  0  0
  188.7300  177.6250  140.5060 C   0  0  0  0  0  0  0  0  0  0  0  0
  184.2750  178.4080  138.4490 C   0  0  0  0  0  2  0  0  0  0  0  0
  183.9670  179.3560  139.5900 C   0  0  0  0  0  2  0  0  0  0  0  0
  188.9730  177.7440  143.0450 C   0  0  0  0  0  0  0  0  0  0  0  0
  188.2800  177.7390  144.3420 C   0  0  0  0  0  0  0  0  0  0  0  0
  190.6060  176.9290  139.1000 C   0  0  0  0  0  0  0  0  0  0  0  0
  188.4860  177.4950  138.0840 C   0  0  0  0  0  3  0  0  0  0  0  0
  186.9320  177.6860  146.7980 C   0  0  0  0  0  3  0  0  0  0  0  0
  190.3610  176.8670  136.5680 C   0  0  0  0  0  2  0  0  0  0  0  0
  185.7760  178.4070  138.1970 C   0  0  0  0  0  2  0  0  0  0  0  0
  187.9290  177.7660  139.3450 C   0  0  0  0  0  0  0  0  0  0  0  0
  186.5880  178.1700  139.4540 C   0  0  0  0  0  0  0  0  0  0  0  0
  186.8290  178.3020  141.8850 C   0  0  0  0  0  0  0  0  0  0  0  0
  188.2720  177.2980  146.7300 C   0  0  0  0  0  3  0  0  0  0  0  0
  192.6150  176.5490  137.6320 C   0  0  0  0  0  2  0  0  0  0  0  0
  189.8050  177.0680  137.9520 C   0  0  0  0  0  0  0  0  0  0  0  0
  188.9450  177.3240  145.5060 C   0  0  0  0  0  3  0  0  0  0  0  0
  192.0060  176.3920  139.0260 C   0  0  0  0  0  2  0  0  0  0  0  0
  184.5760  178.8040  140.8710 C   0  0  0  0  0  2  0  0  0  0  0  0
  186.0400  178.4500  140.7260 C   0  0  0  0  0  0  0  0  0  0  0  0
  186.2210  178.6810  143.2190 C   0  0  0  0  0  2  0  0  0  0  0  0
  190.0590  177.1920  140.3550 C   0  0  0  0  0  3  0  0  0  0  0  0
  190.2270  177.6100  143.0200 O   0  0  0  0  0  0  0  0  0  0  0  0
  186.2670  178.1040  145.6430 C   0  0  0  0  0  3  0  0  0  0  0  0
  188.1850  177.9030  141.7860 C   0  0  0  0  0  0  0  0  0  0  0  0
  186.9320  178.1230  144.4140 C   0  0  0  0  0  0  0  0  0  0  0  0
  191.3600  174.5640  136.6640 C   0  0  0  0  0  2  0  0  0  0  0  0
  190.4840  174.1010  135.5160 C   0  0  0  0  0  2  0  0  0  0  0  0
  189.4590  173.1100  136.0260 C   0  0  0  0  0  3  0  0  0  0  0  0
  188.0860  173.5070  135.5250 C   0  0  0  0  0  2  0  0  0  0  0  0
  188.4950  173.8260  136.9470 C   0  0  0  0  0  2  0  0  0  0  0  0
  1 10  1  0  0  0  0
  1 28  1  1  0  0  0
  1 16  1  0  0  0  0
  2 26  1  0  0  0  0
  3  4  1  0  0  0  0
  4 20  1  0  0  0  0
  5  6  1  0  0  0  0
  6 27  2  0  0  0  0
  6 18  1  0  0  0  0
  7 23  1  0  0  0  0
  8 12  2  0  0  0  0
 10 17  1  0  0  0  0
 11  3  1  0  0  0  0
 11 13  1  0  0  0  0
 12 13  1  0  0  0  0
 12  2  1  0  0  0  0
 13 21  2  0  0  0  0
 14 22  1  0  0  0  0
 15  9  1  0  0  0  0
 16 19  1  0  0  0  0
 17  8  1  0  0  0  0
 17  7  2  0  0  0  0
 18 15  2  0  0  0  0
 19  7  1  0  0  0  0
 21 20  1  0  0  0  0
 21 14  1  0  0  0  0
 22 27  1  0  0  0  0
 23  2  2  0  0  0  0
 24  5  2  0  0  0  0
 25  9  2  0  0  0  0
 26 14  2  0  0  0  0
 26  5  1  0  0  0  0
 27 25  1  0  0  0  0
 29 30  1  0  0  0  0
 29 28  1  0  0  0  0
 30 32  1  0  0  0  0
 31 30  1  0  0  0  0
 31 32  1  0  0  0  0
M  END
>  <MODEL>
4

>  <REMARK>
 VINA RESULT:      -9.1      2.102      3.799
  Name = 
  3 active torsions:
  status: ('A' for Active; 'I' for Inactive)
    1  A    between atoms: C_1  and  C_10
    2  A    between atoms: C_2  and  C_24
    3  A    between atoms: C_10  and  C_24
                            x       y       z     vdW  Elec       q    Type
                         _______ _______ _______ _____ _____    ______ ____

>  <TORSDO>
F 3

$$$$
=
 OpenBabel10272413363D

 32 38  0  0  1  0  0  0  0  0999 V2000
  189.2050  177.6220  147.6030 C   0  0  1  0  0  3  0  0  0  0  0  0
  186.0330  178.4370  143.6030 C   0  0  0  0  0  0  0  0  0  0  0  0
  188.8680  177.4930  139.6320 C   0  0  0  0  0  2  0  0  0  0  0  0
  187.9400  178.3730  138.8190 C   0  0  0  0  0  2  0  0  0  0  0  0
  183.5320  178.8430  143.2850 C   0  0  0  0  0  0  0  0  0  0  0  0
  182.3760  178.7120  142.3860 C   0  0  0  0  0  0  0  0  0  0  0  0
  187.0040  178.3000  145.8430 C   0  0  0  0  0  0  0  0  0  0  0  0
  188.4180  178.0300  143.8990 C   0  0  0  0  0  3  0  0  0  0  0  0
  180.1860  178.4130  140.6630 C   0  0  0  0  0  3  0  0  0  0  0  0
  189.5070  177.9480  146.1390 C   0  0  0  0  0  2  0  0  0  0  0  0
  188.8740  177.9780  141.0750 C   0  0  0  0  0  2  0  0  0  0  0  0
  187.3150  178.2010  143.0460 C   0  0  0  0  0  0  0  0  0  0  0  0
  187.4820  178.1360  141.6530 C   0  0  0  0  0  0  0  0  0  0  0  0
  185.0880  178.5440  141.3510 C   0  0  0  0  0  0  0  0  0  0  0  0
  179.9820  178.4960  142.0430 C   0  0  0  0  0  3  0  0  0  0  0  0
  188.0610  178.5000  148.1180 C   0  0  0  0  0  2  0  0  0  0  0  0
  188.2740  178.0640  145.2850 C   0  0  0  0  0  0  0  0  0  0  0  0
  181.0730  178.6460  142.9020 C   0  0  0  0  0  3  0  0  0  0  0  0
  186.7750  178.2640  147.3260 C   0  0  0  0  0  2  0  0  0  0  0  0
  186.5120  178.1690  139.3040 C   0  0  0  0  0  2  0  0  0  0  0  0
  186.3680  178.3200  140.8030 C   0  0  0  0  0  0  0  0  0  0  0  0
  183.9390  178.8060  140.4020 C   0  0  0  0  0  2  0  0  0  0  0  0
  185.9050  178.4680  145.0030 C   0  0  0  0  0  3  0  0  0  0  0  0
  183.3360  179.1390  144.4960 O   0  0  0  0  0  0  0  0  0  0  0  0
  181.4810  178.4830  140.1440 C   0  0  0  0  0  3  0  0  0  0  0  0
  184.9110  178.6200  142.7540 C   0  0  0  0  0  0  0  0  0  0  0  0
  182.5770  178.6230  141.0000 C   0  0  0  0  0  0  0  0  0  0  0  0
  188.9190  176.1350  147.7750 C   0  0  0  0  0  2  0  0  0  0  0  0
  190.2080  175.3360  147.7270 C   0  0  0  0  0  2  0  0  0  0  0  0
  191.3740  176.2680  147.4750 C   0  0  0  0  0  3  0  0  0  0  0  0
  192.3540  175.5990  146.5330 C   0  0  0  0  0  2  0  0  0  0  0  0
  192.6380  175.6370  148.0200 C   0  0  0  0  0  2  0  0  0  0  0  0
  1 28  1  6  0  0  0
  1 16  1  0  0  0  0
  2 23  1  0  0  0  0
  3 11  1  0  0  0  0
  4 20  1  0  0  0  0
  4  3  1  0  0  0  0
  5 24  2  0  0  0  0
  6 18  1  0  0  0  0
  6  5  1  0  0  0  0
  7 19  1  0  0  0  0
  8 17  2  0  0  0  0
  9 15  1  0  0  0  0
 10  1  1  0  0  0  0
 11 13  1  0  0  0  0
 12  2  1  0  0  0  0
 12  8  1  0  0  0  0
 13 12  2  0  0  0  0
 14 26  1  0  0  0  0
 15 18  2  0  0  0  0
 17  7  1  0  0  0  0
 17 10  1  0  0  0  0
 19 16  1  0  0  0  0
 20 21  1  0  0  0  0
 21 14  2  0  0  0  0
 21 13  1  0  0  0  0
 22 27  1  0  0  0  0
 22 14  1  0  0  0  0
 23  7  2  0  0  0  0
 25  9  2  0  0  0  0
 25 27  1  0  0  0  0
 26  5  1  0  0  0  0
 26  2  2  0  0  0  0
 27  6  2  0  0  0  0
 29 28  1  0  0  0  0
 30 29  1  0  0  0  0
 30 32  1  0  0  0  0
 31 30  1  0  0  0  0
 31 32  1  0  0  0  0
M  END
>  <MODEL>
5

>  <REMARK>
 VINA RESULT:      -8.9      2.389      8.573
  Name = 
  3 active torsions:
  status: ('A' for Active; 'I' for Inactive)
    1  A    between atoms: C_1  and  C_10
    2  A    between atoms: C_2  and  C_24
    3  A    between atoms: C_10  and  C_24
                            x       y       z     vdW  Elec       q    Type
                         _______ _______ _______ _____ _____    ______ ____

>  <TORSDO>
F 3

$$$$
=
 OpenBabel10272413363D

 32 38  0  0  1  0  0  0  0  0999 V2000
  191.5230  177.4240  143.5530 C   0  0  1  0  0  3  0  0  0  0  0  0
  188.8100  177.4800  139.1530 C   0  0  0  0  0  0  0  0  0  0  0  0
  191.8510  175.3340  135.8600 C   0  0  0  0  0  2  0  0  0  0  0  0
  191.0980  176.0590  134.7630 C   0  0  0  0  0  2  0  0  0  0  0  0
  186.4050  178.0050  138.4760 C   0  0  0  0  0  0  0  0  0  0  0  0
  185.3220  177.7530  137.5130 C   0  0  0  0  0  0  0  0  0  0  0  0
  189.5670  177.8260  141.4520 C   0  0  0  0  0  0  0  0  0  0  0  0
  191.1030  176.9570  139.7970 C   0  0  0  0  0  3  0  0  0  0  0  0
  183.2660  177.2200  135.6850 C   0  0  0  0  0  3  0  0  0  0  0  0
  191.9820  177.3460  142.0960 C   0  0  0  0  0  2  0  0  0  0  0  0
  191.7880  176.1620  137.1350 C   0  0  0  0  0  2  0  0  0  0  0  0
  190.1010  177.0040  138.8120 C   0  0  0  0  0  0  0  0  0  0  0  0
  190.3780  176.5770  137.5030 C   0  0  0  0  0  0  0  0  0  0  0  0
  188.0770  177.1010  136.8520 C   0  0  0  0  0  0  0  0  0  0  0  0
  182.9560  177.6630  136.9730 C   0  0  0  0  0  3  0  0  0  0  0  0
  190.4420  178.4970  143.7140 C   0  0  0  0  0  2  0  0  0  0  0  0
  190.8460  177.3490  141.1100 C   0  0  0  0  0  0  0  0  0  0  0  0
  183.9810  177.9300  137.8850 C   0  0  0  0  0  3  0  0  0  0  0  0
  189.2100  178.1810  142.8670 C   0  0  0  0  0  2  0  0  0  0  0  0
  189.6200  176.1050  135.1240 C   0  0  0  0  0  2  0  0  0  0  0  0
  189.3660  176.6380  136.5170 C   0  0  0  0  0  0  0  0  0  0  0  0
  187.0480  177.2140  135.7480 C   0  0  0  0  0  2  0  0  0  0  0  0
  188.5680  177.8710  140.4820 C   0  0  0  0  0  3  0  0  0  0  0  0
  186.1410  178.6110  139.5510 O   0  0  0  0  0  0  0  0  0  0  0  0
  184.6000  177.0480  135.3090 C   0  0  0  0  0  3  0  0  0  0  0  0
  187.7910  177.5400  138.1680 C   0  0  0  0  0  0  0  0  0  0  0  0
  185.6290  177.3030  136.2200 C   0  0  0  0  0  0  0  0  0  0  0  0
  191.0620  176.0570  144.0460 C   0  0  0  0  0  2  0  0  0  0  0  0
  191.9750  175.5530  145.1480 C   0  0  0  0  0  2  0  0  0  0  0  0
  191.9820  176.5430  146.2940 C   0  0  0  0  0  3  0  0  0  0  0  0
  192.0000  175.7880  147.6070 C   0  0  0  0  0  2  0  0  0  0  0  0
  190.7060  176.3830  147.0930 C   0  0  0  0  0  2  0  0  0  0  0  0
  1 16  1  0  0  0  0
  1 28  1  6  0  0  0
  2 23  1  0  0  0  0
  3 11  1  0  0  0  0
  4 20  1  0  0  0  0
  4  3  1  0  0  0  0
  5 24  2  0  0  0  0
  6 18  1  0  0  0  0
  6  5  1  0  0  0  0
  7 19  1  0  0  0  0
  8 17  2  0  0  0  0
  9 15  1  0  0  0  0
 10  1  1  0  0  0  0
 11 13  1  0  0  0  0
 12  2  1  0  0  0  0
 12  8  1  0  0  0  0
 13 12  2  0  0  0  0
 14 26  1  0  0  0  0
 15 18  2  0  0  0  0
 17  7  1  0  0  0  0
 17 10  1  0  0  0  0
 19 16  1  0  0  0  0
 20 21  1  0  0  0  0
 21 14  2  0  0  0  0
 21 13  1  0  0  0  0
 22 27  1  0  0  0  0
 22 14  1  0  0  0  0
 23  7  2  0  0  0  0
 25  9  2  0  0  0  0
 25 27  1  0  0  0  0
 26  5  1  0  0  0  0
 26  2  2  0  0  0  0
 27  6  2  0  0  0  0
 28 29  1  0  0  0  0
 29 30  1  0  0  0  0
 30 32  1  0  0  0  0
 30 31  1  0  0  0  0
 32 31  1  0  0  0  0
M  END
>  <MODEL>
6

>  <REMARK>
 VINA RESULT:      -8.9      2.848      9.124
  Name = 
  3 active torsions:
  status: ('A' for Active; 'I' for Inactive)
    1  A    between atoms: C_1  and  C_10
    2  A    between atoms: C_2  and  C_24
    3  A    between atoms: C_10  and  C_24
                            x       y       z     vdW  Elec       q    Type
                         _______ _______ _______ _____ _____    ______ ____

>  <TORSDO>
F 3

$$$$
=
 OpenBabel10272413363D

 32 38  0  0  1  0  0  0  0  0999 V2000
  191.7570  176.2020  137.3510 C   0  0  1  0  0  3  0  0  0  0  0  0
  188.3240  177.8370  140.8530 C   0  0  0  0  0  0  0  0  0  0  0  0
  184.1360  178.3930  138.2350 C   0  0  0  0  0  2  0  0  0  0  0  0
  183.6640  179.3760  139.2880 C   0  0  0  0  0  2  0  0  0  0  0  0
  188.2490  178.0670  143.3940 C   0  0  0  0  0  0  0  0  0  0  0  0
  187.4020  178.0920  144.5960 C   0  0  0  0  0  0  0  0  0  0  0  0
  190.3760  177.1450  139.7180 C   0  0  0  0  0  0  0  0  0  0  0  0
  188.3830  177.6010  138.4270 C   0  0  0  0  0  3  0  0  0  0  0  0
  185.7630  178.0960  146.8700 C   0  0  0  0  0  3  0  0  0  0  0  0
  190.4460  176.9730  137.1800 C   0  0  0  0  0  2  0  0  0  0  0  0
  185.6560  178.4300  138.1680 C   0  0  0  0  0  2  0  0  0  0  0  0
  187.6680  177.9060  139.5980 C   0  0  0  0  0  0  0  0  0  0  0  0
  186.3130  178.2700  139.5240 C   0  0  0  0  0  0  0  0  0  0  0  0
  186.2500  178.5090  141.9590 C   0  0  0  0  0  0  0  0  0  0  0  0
  187.1120  177.7490  146.9830 C   0  0  0  0  0  3  0  0  0  0  0  0
  192.5600  176.7700  138.5240 C   0  0  0  0  0  2  0  0  0  0  0  0
  189.7200  177.2110  138.4760 C   0  0  0  0  0  0  0  0  0  0  0  0
  187.9290  177.7470  145.8500 C   0  0  0  0  0  3  0  0  0  0  0  0
  191.7890  176.6510  139.8390 C   0  0  0  0  0  2  0  0  0  0  0  0
  184.1260  178.8960  140.6560 C   0  0  0  0  0  2  0  0  0  0  0  0
  185.6060  178.5840  140.7070 C   0  0  0  0  0  0  0  0  0  0  0  0
  185.4730  178.9220  143.1900 C   0  0  0  0  0  2  0  0  0  0  0  0
  189.6730  177.4420  140.8840 C   0  0  0  0  0  3  0  0  0  0  0  0
  189.5000  177.9730  143.5290 O   0  0  0  0  0  0  0  0  0  0  0  0
  185.2350  178.4460  145.6250 C   0  0  0  0  0  3  0  0  0  0  0  0
  187.6170  178.1490  142.0430 C   0  0  0  0  0  0  0  0  0  0  0  0
  186.0450  178.4360  144.4860 C   0  0  0  0  0  0  0  0  0  0  0  0
  191.4880  174.7090  137.4990 C   0  0  0  0  0  2  0  0  0  0  0  0
  191.6650  174.0010  136.1700 C   0  0  0  0  0  2  0  0  0  0  0  0
  193.1400  173.8870  135.8480 C   0  0  0  0  0  3  0  0  0  0  0  0
  193.5310  172.4230  135.8080 C   0  0  0  0  0  2  0  0  0  0  0  0
  193.8550  173.2600  137.0260 C   0  0  0  0  0  2  0  0  0  0  0  0
  1 28  1  1  0  0  0
  1 16  1  0  0  0  0
  2 23  2  0  0  0  0
  2 26  1  0  0  0  0
  3  4  1  0  0  0  0
  4 20  1  0  0  0  0
  5 24  2  0  0  0  0
  5  6  1  0  0  0  0
  6 18  1  0  0  0  0
  7 19  1  0  0  0  0
  7 23  1  0  0  0  0
  8 17  1  0  0  0  0
  8 12  2  0  0  0  0
  9 15  1  0  0  0  0
 10  1  1  0  0  0  0
 10 17  1  0  0  0  0
 11  3  1  0  0  0  0
 11 13  1  0  0  0  0
 12  2  1  0  0  0  0
 13 12  1  0  0  0  0
 13 21  2  0  0  0  0
 14 26  2  0  0  0  0
 14 22  1  0  0  0  0
 16 19  1  0  0  0  0
 17  7  2  0  0  0  0
 18 15  2  0  0  0  0
 20 21  1  0  0  0  0
 21 14  1  0  0  0  0
 22 27  1  0  0  0  0
 25  9  2  0  0  0  0
 26  5  1  0  0  0  0
 27  6  2  0  0  0  0
 27 25  1  0  0  0  0
 29 28  1  0  0  0  0
 30 29  1  0  0  0  0
 30 32  1  0  0  0  0
 31 30  1  0  0  0  0
 31 32  1  0  0  0  0
M  END
>  <MODEL>
7

>  <REMARK>
 VINA RESULT:      -8.8      2.807      4.676
  Name = 
  3 active torsions:
  status: ('A' for Active; 'I' for Inactive)
    1  A    between atoms: C_1  and  C_10
    2  A    between atoms: C_2  and  C_24
    3  A    between atoms: C_10  and  C_24
                            x       y       z     vdW  Elec       q    Type
                         _______ _______ _______ _____ _____    ______ ____

>  <TORSDO>
F 3

$$$$
=
 OpenBabel10272413363D

 32 38  0  0  1  0  0  0  0  0999 V2000
  191.6840  177.7480  143.9420 C   0  0  1  0  0  3  0  0  0  0  0  0
  188.2080  177.8830  140.1180 C   0  0  0  0  0  0  0  0  0  0  0  0
  190.1350  174.8780  136.6610 C   0  0  0  0  0  2  0  0  0  0  0  0
  189.3140  175.6210  135.6250 C   0  0  0  0  0  2  0  0  0  0  0  0
  185.8410  178.7890  139.8080 C   0  0  0  0  0  0  0  0  0  0  0  0
  184.5630  178.6530  139.0930 C   0  0  0  0  0  0  0  0  0  0  0  0
  189.4500  178.3050  142.1820 C   0  0  0  0  0  0  0  0  0  0  0  0
  190.4610  176.9990  140.4150 C   0  0  0  0  0  3  0  0  0  0  0  0
  182.1280  178.3440  137.7410 C   0  0  0  0  0  3  0  0  0  0  0  0
  191.8280  177.4390  142.4510 C   0  0  0  0  0  2  0  0  0  0  0  0
  190.4650  175.8260  137.8050 C   0  0  0  0  0  2  0  0  0  0  0  0
  189.3080  177.1370  139.6230 C   0  0  0  0  0  0  0  0  0  0  0  0
  189.2450  176.5380  138.3540 C   0  0  0  0  0  0  0  0  0  0  0  0
  186.9840  177.4240  138.0520 C   0  0  0  0  0  0  0  0  0  0  0  0
  182.1570  178.9640  138.9920 C   0  0  0  0  0  3  0  0  0  0  0  0
  190.8540  179.0190  144.1450 C   0  0  0  0  0  2  0  0  0  0  0  0
  190.5370  177.5610  141.6870 C   0  0  0  0  0  0  0  0  0  0  0  0
  183.3710  179.1190  139.6670 C   0  0  0  0  0  3  0  0  0  0  0  0
  189.4440  178.8620  143.5760 C   0  0  0  0  0  2  0  0  0  0  0  0
  187.9660  175.9840  136.2300 C   0  0  0  0  0  2  0  0  0  0  0  0
  188.0850  176.6920  137.5620 C   0  0  0  0  0  0  0  0  0  0  0  0
  185.7920  177.6210  137.1410 C   0  0  0  0  0  2  0  0  0  0  0  0
  188.3020  178.4430  141.4040 C   0  0  0  0  0  3  0  0  0  0  0  0
  185.9000  179.5370  140.8220 O   0  0  0  0  0  0  0  0  0  0  0  0
  183.3140  177.8830  137.1630 C   0  0  0  0  0  3  0  0  0  0  0  0
  187.0410  178.0380  139.3270 C   0  0  0  0  0  0  0  0  0  0  0  0
  184.5300  178.0260  137.8380 C   0  0  0  0  0  0  0  0  0  0  0  0
  191.1050  176.5500  144.6870 C   0  0  0  0  0  2  0  0  0  0  0  0
  190.8210  176.9090  146.1330 C   0  0  0  0  0  2  0  0  0  0  0  0
  189.3250  176.9130  146.3700 C   0  0  0  0  0  3  0  0  0  0  0  0
  188.9740  178.0380  147.3220 C   0  0  0  0  0  2  0  0  0  0  0  0
  189.0560  176.6150  147.8300 C   0  0  0  0  0  2  0  0  0  0  0  0
  1 16  1  0  0  0  0
  1 28  1  1  0  0  0
  2 23  1  0  0  0  0
  3 11  1  0  0  0  0
  4 20  1  0  0  0  0
  4  3  1  0  0  0  0
  5 24  2  0  0  0  0
  6 18  1  0  0  0  0
  6  5  1  0  0  0  0
  7 19  1  0  0  0  0
  8 17  2  0  0  0  0
  9 15  1  0  0  0  0
 10  1  1  0  0  0  0
 11 13  1  0  0  0  0
 12  2  1  0  0  0  0
 12  8  1  0  0  0  0
 13 12  2  0  0  0  0
 14 26  1  0  0  0  0
 15 18  2  0  0  0  0
 17  7  1  0  0  0  0
 17 10  1  0  0  0  0
 19 16  1  0  0  0  0
 20 21  1  0  0  0  0
 21 14  2  0  0  0  0
 21 13  1  0  0  0  0
 22 27  1  0  0  0  0
 22 14  1  0  0  0  0
 23  7  2  0  0  0  0
 25  9  2  0  0  0  0
 25 27  1  0  0  0  0
 26  5  1  0  0  0  0
 26  2  2  0  0  0  0
 27  6  2  0  0  0  0
 28 29  1  0  0  0  0
 29 30  1  0  0  0  0
 30 31  1  0  0  0  0
 30 32  1  0  0  0  0
 31 32  1  0  0  0  0
M  END
>  <MODEL>
8

>  <REMARK>
 VINA RESULT:      -8.6      2.506      8.489
  Name = 
  3 active torsions:
  status: ('A' for Active; 'I' for Inactive)
    1  A    between atoms: C_1  and  C_10
    2  A    between atoms: C_2  and  C_24
    3  A    between atoms: C_10  and  C_24
                            x       y       z     vdW  Elec       q    Type
                         _______ _______ _______ _____ _____    ______ ____

>  <TORSDO>
F 3

$$$$
=
 OpenBabel10272413363D

 32 38  0  0  1  0  0  0  0  0999 V2000
  192.4160  175.7190  135.7780 C   0  0  1  0  0  3  0  0  0  0  0  0
  190.1260  177.2850  140.1400 C   0  0  0  0  0  0  0  0  0  0  0  0
  185.4250  178.1320  138.7700 C   0  0  0  0  0  2  0  0  0  0  0  0
  185.3000  179.0740  139.9520 C   0  0  0  0  0  2  0  0  0  0  0  0
  190.7430  177.3800  142.6150 C   0  0  0  0  0  0  0  0  0  0  0  0
  190.2500  177.3700  144.0010 C   0  0  0  0  0  0  0  0  0  0  0  0
  191.7650  176.5820  138.4670 C   0  0  0  0  0  0  0  0  0  0  0  0
  189.5250  177.1790  137.7790 C   0  0  0  0  0  3  0  0  0  0  0  0
  189.2790  177.3100  146.6290 C   0  0  0  0  0  3  0  0  0  0  0  0
  191.1470  176.5440  135.9980 C   0  0  0  0  0  2  0  0  0  0  0  0
  186.8720  178.1180  138.2990 C   0  0  0  0  0  2  0  0  0  0  0  0
  189.1640  177.4450  139.1110 C   0  0  0  0  0  0  0  0  0  0  0  0
  187.8580  177.8610  139.4200 C   0  0  0  0  0  0  0  0  0  0  0  0
  188.4580  177.9700  141.7900 C   0  0  0  0  0  0  0  0  0  0  0  0
  190.5900  176.9090  146.3600 C   0  0  0  0  0  3  0  0  0  0  0  0
  193.5300  176.1940  136.7150 C   0  0  0  0  0  2  0  0  0  0  0  0
  190.8050  176.7390  137.4500 C   0  0  0  0  0  0  0  0  0  0  0  0
  191.0750  176.9390  145.0500 C   0  0  0  0  0  3  0  0  0  0  0  0
  193.1330  176.0310  138.1820 C   0  0  0  0  0  2  0  0  0  0  0  0
  186.0860  178.5040  141.1240 C   0  0  0  0  0  2  0  0  0  0  0  0
  187.5080  178.1360  140.7610 C   0  0  0  0  0  0  0  0  0  0  0  0
  188.0590  178.3440  143.2010 C   0  0  0  0  0  2  0  0  0  0  0  0
  191.4130  176.8400  139.7910 C   0  0  0  0  0  3  0  0  0  0  0  0
  191.9790  177.2330  142.4040 O   0  0  0  0  0  0  0  0  0  0  0  0
  188.4560  177.7450  145.5880 C   0  0  0  0  0  3  0  0  0  0  0  0
  189.7790  177.5570  141.4880 C   0  0  0  0  0  0  0  0  0  0  0  0
  188.9320  177.7680  144.2740 C   0  0  0  0  0  0  0  0  0  0  0  0
  192.1230  174.2310  135.9300 C   0  0  0  0  0  2  0  0  0  0  0  0
  193.2930  173.4040  135.4300 C   0  0  0  0  0  2  0  0  0  0  0  0
  193.4230  172.1500  136.2690 C   0  0  0  0  0  3  0  0  0  0  0  0
  194.6450  171.3740  135.8220 C   0  0  0  0  0  2  0  0  0  0  0  0
  193.2660  170.9390  135.3750 C   0  0  0  0  0  2  0  0  0  0  0  0
  1 28  1  1  0  0  0
  1 10  1  0  0  0  0
  1 16  1  0  0  0  0
  2 26  1  0  0  0  0
  3  4  1  0  0  0  0
  4 20  1  0  0  0  0
  5  6  1  0  0  0  0
  6 27  2  0  0  0  0
  6 18  1  0  0  0  0
  7 23  1  0  0  0  0
  8 12  2  0  0  0  0
 10 17  1  0  0  0  0
 11  3  1  0  0  0  0
 11 13  1  0  0  0  0
 12 13  1  0  0  0  0
 12  2  1  0  0  0  0
 13 21  2  0  0  0  0
 14 22  1  0  0  0  0
 15  9  1  0  0  0  0
 16 19  1  0  0  0  0
 17  8  1  0  0  0  0
 17  7  2  0  0  0  0
 18 15  2  0  0  0  0
 19  7  1  0  0  0  0
 21 20  1  0  0  0  0
 21 14  1  0  0  0  0
 22 27  1  0  0  0  0
 23  2  2  0  0  0  0
 24  5  2  0  0  0  0
 25  9  2  0  0  0  0
 26 14  2  0  0  0  0
 26  5  1  0  0  0  0
 27 25  1  0  0  0  0
 29 28  1  0  0  0  0
 29 30  1  0  0  0  0
 31 30  1  0  0  0  0
 32 31  1  0  0  0  0
 32 30  1  0  0  0  0
M  END
>  <MODEL>
9

>  <REMARK>
 VINA RESULT:      -8.5      3.518      4.866
  Name = 
  3 active torsions:
  status: ('A' for Active; 'I' for Inactive)
    1  A    between atoms: C_1  and  C_10
    2  A    between atoms: C_2  and  C_24
    3  A    between atoms: C_10  and  C_24
                            x       y       z     vdW  Elec       q    Type
                         _______ _______ _______ _____ _____    ______ ____

>  <TORSDO>
F 3

$$$$
