=
 OpenBabel10272415273D

 34 39  0  0  1  0  0  0  0  0999 V2000
  184.7310  178.5920  139.3300 N   0  0  0  0  0  0  0  0  0  0  0  0
  185.7530  177.0530  136.2450 C   0  0  0  0  0  3  0  0  0  0  0  0
  183.8540  177.0830  137.7620 N   0  0  0  0  0  0  0  0  0  0  0  0
  182.4130  180.1260  138.9630 C   0  0  0  0  0  1  0  0  0  0  0  0
  182.2790  178.6370  138.6720 C   0  0  2  0  0  0  0  0  0  0  0  0
  181.2070  178.1290  139.4090 O   0  0  0  0  0  1  0  0  0  0  0  0
  182.7970  177.1950  136.7770 C   0  0  0  0  0  2  0  0  0  0  0  0
  183.5340  177.8050  138.9900 C   0  0  2  0  0  3  0  0  0  0  0  0
  182.0010  178.4240  137.1860 C   0  0  0  0  0  2  0  0  0  0  0  0
  187.0600  177.6170  135.7910 C   0  0  0  0  0  2  0  0  0  0  0  0
  188.2000  177.3400  136.7260 C   0  0  0  0  0  0  0  0  0  0  0  0
  188.2030  177.7510  137.9990 C   0  0  0  0  0  3  0  0  0  0  0  0
  185.2110  177.3590  137.4250 C   0  0  0  0  0  0  0  0  0  0  0  0
  187.0790  178.3560  138.7370 C   0  0  0  0  0  3  0  0  0  0  0  0
  185.7810  178.2090  138.4460 C   0  0  0  0  0  0  0  0  0  0  0  0
  189.4330  176.6840  136.1810 C   0  0  1  0  0  3  0  0  0  0  0  0
  189.2890  175.2090  136.1370 C   0  0  0  0  0  2  0  0  0  0  0  0
  189.1250  175.9990  134.9870 O   0  0  0  0  0  0  0  0  0  0  0  0
  184.9580  179.1530  140.6590 C   0  0  0  0  0  2  0  0  0  0  0  0
  184.2670  178.2950  141.7090 C   0  0  0  0  0  2  0  0  0  0  0  0
  184.1420  179.0550  143.0230 C   0  0  0  0  0  2  0  0  0  0  0  0
  185.6450  178.4230  146.4480 C   0  0  0  0  0  3  0  0  0  0  0  0
  186.1340  177.7840  143.6940 C   0  0  0  0  0  3  0  0  0  0  0  0
  189.1920  177.1720  146.5110 N   0  0  0  0  0  0  0  0  0  0  0  0
  187.9290  177.7130  146.9340 C   0  0  0  0  0  3  0  0  0  0  0  0
  186.9110  177.7770  146.0740 C   0  0  0  0  0  0  0  0  0  0  0  0
  188.4510  177.0180  144.2290 C   0  0  0  0  0  3  0  0  0  0  0  0
  187.0320  177.1360  144.7100 C   0  0  2  0  0  3  0  0  0  0  0  0
  189.4550  176.9870  145.1100 C   0  0  0  0  0  3  0  0  0  0  0  0
  185.0520  178.4840  144.0630 C   0  0  0  0  0  0  0  0  0  0  0  0
  184.7650  178.7430  145.4930 C   0  0  0  0  0  3  0  0  0  0  0  0
  190.2140  177.0960  147.3970 O   0  0  0  0  0  0  0  0  0  0  0  0
  192.1890  175.7610  147.3650 C   0  0  0  0  0  1  0  0  0  0  0  0
  191.3420  176.7800  146.6300 C   0  0  0  0  0  2  0  0  0  0  0  0
  1 19  1  0  0  0  0
  2 13  2  0  0  0  0
  5  4  1  1  0  0  0
  5  8  1  0  0  0  0
  5  6  1  0  0  0  0
  7  9  1  0  0  0  0
  7  3  1  0  0  0  0
  8  3  1  6  0  0  0
  8  1  1  0  0  0  0
  9  5  1  0  0  0  0
 10  2  1  0  0  0  0
 10 11  1  0  0  0  0
 11 12  2  0  0  0  0
 12 14  1  0  0  0  0
 13  3  1  0  0  0  0
 13 15  1  0  0  0  0
 15 14  2  0  0  0  0
 15  1  1  0  0  0  0
 16 11  1  1  0  0  0
 17 16  1  0  0  0  0
 18 17  1  0  0  0  0
 18 16  1  0  0  0  0
 19 20  1  0  0  0  0
 20 21  1  0  0  0  0
 21 30  1  0  0  0  0
 23 30  2  0  0  0  0
 24 25  1  0  0  0  0
 24 32  1  0  0  0  0
 26 22  1  0  0  0  0
 26 25  2  0  0  0  0
 27 28  1  0  0  0  0
 27 29  2  0  0  0  0
 28 23  1  6  0  0  0
 28 26  1  0  0  0  0
 29 24  1  0  0  0  0
 30 31  1  0  0  0  0
 31 22  2  0  0  0  0
 34 33  1  0  0  0  0
 34 32  1  0  0  0  0
M  END
>  <MODEL>
1

>  <REMARK>
 VINA RESULT:      -9.1      0.000      0.000
  Name = 
  7 active torsions:
  status: ('A' for Active; 'I' for Inactive)
    1  A    between atoms: N_1  and  C_9
    2  A    between atoms: C_3  and  C_25
    3  A    between atoms: N_7  and  O_11
    4  A    between atoms: C_8  and  C_9
    5  A    between atoms: C_8  and  C_18
    6  A    between atoms: O_11  and  C_21
    7  A    between atoms: C_18  and  C_30
                            x       y       z     vdW  Elec       q    Type
                         _______ _______ _______ _____ _____    ______ ____

>  <TORSDO>
F 7

$$$$
=
 OpenBabel10272415273D

 34 39  0  0  1  0  0  0  0  0999 V2000
  183.3910  178.7970  141.0660 N   0  0  0  0  0  0  0  0  0  0  0  0
  184.6500  177.3280  138.0360 C   0  0  0  0  0  3  0  0  0  0  0  0
  182.7690  177.1090  139.5600 N   0  0  0  0  0  0  0  0  0  0  0  0
  180.8570  179.9240  140.6540 C   0  0  0  0  0  1  0  0  0  0  0  0
  180.9640  178.4240  140.4190 C   0  0  2  0  0  0  0  0  0  0  0  0
  179.9870  177.7780  141.1800 O   0  0  0  0  0  1  0  0  0  0  0  0
  181.7090  177.0130  138.5770 C   0  0  0  0  0  2  0  0  0  0  0  0
  182.3360  177.8170  140.7620 C   0  0  2  0  0  3  0  0  0  0  0  0
  180.7250  178.1130  138.9440 C   0  0  0  0  0  2  0  0  0  0  0  0
  185.8500  178.0760  137.5550 C   0  0  0  0  0  2  0  0  0  0  0  0
  187.0190  178.0210  138.4940 C   0  0  0  0  0  0  0  0  0  0  0  0
  186.9550  178.4750  139.7510 C   0  0  0  0  0  3  0  0  0  0  0  0
  184.0650  177.5870  139.2070 C   0  0  0  0  0  0  0  0  0  0  0  0
  185.7470  178.9190  140.4710 C   0  0  0  0  0  3  0  0  0  0  0  0
  184.4900  178.5550  140.1920 C   0  0  0  0  0  0  0  0  0  0  0  0
  188.3410  177.5520  137.9680 C   0  0  1  0  0  3  0  0  0  0  0  0
  188.9310  178.5330  137.0250 C   0  0  0  0  0  2  0  0  0  0  0  0
  189.3600  178.4450  138.3610 O   0  0  0  0  0  0  0  0  0  0  0  0
  183.5240  179.4370  142.3720 C   0  0  0  0  0  2  0  0  0  0  0  0
  183.4560  178.3880  143.4740 C   0  0  0  0  0  2  0  0  0  0  0  0
  184.0370  178.9350  144.7700 C   0  0  0  0  0  2  0  0  0  0  0  0
  187.1180  177.9680  146.7600 C   0  0  0  0  0  3  0  0  0  0  0  0
  186.0650  177.7200  144.1030 C   0  0  0  0  0  3  0  0  0  0  0  0
  190.1440  176.9540  144.7680 N   0  0  0  0  0  0  0  0  0  0  0  0
  189.3040  177.3530  145.8650 C   0  0  0  0  0  3  0  0  0  0  0  0
  187.9860  177.4590  145.6880 C   0  0  0  0  0  0  0  0  0  0  0  0
  188.3040  177.0450  143.2230 C   0  0  0  0  0  3  0  0  0  0  0  0
  187.3570  177.0080  144.3890 C   0  0  2  0  0  3  0  0  0  0  0  0
  189.6220  176.9670  143.4290 C   0  0  0  0  0  3  0  0  0  0  0  0
  185.3530  178.2960  145.0820 C   0  0  0  0  0  0  0  0  0  0  0  0
  185.8710  178.3500  146.4680 C   0  0  0  0  0  3  0  0  0  0  0  0
  191.4790  176.8310  144.9620 O   0  0  0  0  0  0  0  0  0  0  0  0
  192.1430  175.5320  146.8470 C   0  0  0  0  0  1  0  0  0  0  0  0
  191.6540  176.8780  146.3500 C   0  0  0  0  0  2  0  0  0  0  0  0
  1 19  1  0  0  0  0
  2 13  2  0  0  0  0
  5  4  1  1  0  0  0
  5  8  1  0  0  0  0
  5  6  1  0  0  0  0
  7  9  1  0  0  0  0
  7  3  1  0  0  0  0
  8  3  1  6  0  0  0
  8  1  1  0  0  0  0
  9  5  1  0  0  0  0
 10  2  1  0  0  0  0
 10 11  1  0  0  0  0
 11 12  2  0  0  0  0
 12 14  1  0  0  0  0
 13  3  1  0  0  0  0
 13 15  1  0  0  0  0
 15 14  2  0  0  0  0
 15  1  1  0  0  0  0
 16 18  1  0  0  0  0
 16 11  1  1  0  0  0
 17 16  1  0  0  0  0
 17 18  1  0  0  0  0
 19 20  1  0  0  0  0
 20 21  1  0  0  0  0
 21 30  1  0  0  0  0
 23 28  1  0  0  0  0
 23 30  2  0  0  0  0
 24 32  1  0  0  0  0
 24 25  1  0  0  0  0
 26 25  2  0  0  0  0
 26 22  1  0  0  0  0
 27 29  2  0  0  0  0
 28 27  1  6  0  0  0
 28 26  1  0  0  0  0
 29 24  1  0  0  0  0
 30 31  1  0  0  0  0
 31 22  2  0  0  0  0
 32 34  1  0  0  0  0
 34 33  1  0  0  0  0
M  END
>  <MODEL>
2

>  <REMARK>
 VINA RESULT:      -8.5      1.670      2.067
  Name = 
  7 active torsions:
  status: ('A' for Active; 'I' for Inactive)
    1  A    between atoms: N_1  and  C_9
    2  A    between atoms: C_3  and  C_25
    3  A    between atoms: N_7  and  O_11
    4  A    between atoms: C_8  and  C_9
    5  A    between atoms: C_8  and  C_18
    6  A    between atoms: O_11  and  C_21
    7  A    between atoms: C_18  and  C_30
                            x       y       z     vdW  Elec       q    Type
                         _______ _______ _______ _____ _____    ______ ____

>  <TORSDO>
F 7

$$$$
=
 OpenBabel10272415273D

 34 39  0  0  1  0  0  0  0  0999 V2000
  188.3030  177.9880  145.4210 N   0  0  0  0  0  0  0  0  0  0  0  0
  190.7750  176.9650  143.0190 C   0  0  0  0  0  3  0  0  0  0  0  0
  190.6380  177.7880  145.3020 N   0  0  0  0  0  0  0  0  0  0  0  0
  188.4080  176.3760  147.7130 C   0  0  0  0  0  1  0  0  0  0  0  0
  189.6690  177.1710  147.4010 C   0  0  2  0  0  0  0  0  0  0  0  0
  190.0250  177.9110  148.5310 O   0  0  0  0  0  1  0  0  0  0  0  0
  191.5770  176.8710  145.9160 C   0  0  0  0  0  2  0  0  0  0  0  0
  189.5420  178.1310  146.2040 C   0  0  2  0  0  3  0  0  0  0  0  0
  190.8090  176.2190  147.0550 C   0  0  0  0  0  2  0  0  0  0  0  0
  190.1150  176.4210  141.7940 C   0  0  0  0  0  2  0  0  0  0  0  0
  189.2870  177.4250  141.0510 C   0  0  0  0  0  0  0  0  0  0  0  0
  188.2470  178.0560  141.6100 C   0  0  0  0  0  3  0  0  0  0  0  0
  190.0880  177.5310  144.0130 C   0  0  0  0  0  0  0  0  0  0  0  0
  187.8530  178.0250  143.0300 C   0  0  0  0  0  3  0  0  0  0  0  0
  188.6600  177.7520  144.0620 C   0  0  0  0  0  0  0  0  0  0  0  0
  189.5580  177.6430  139.5930 C   0  0  1  0  0  3  0  0  0  0  0  0
  188.3480  177.3960  138.7730 C   0  0  0  0  0  2  0  0  0  0  0  0
  188.7570  178.6980  139.1080 O   0  0  0  0  0  0  0  0  0  0  0  0
  187.0350  178.5840  145.8310 C   0  0  0  0  0  2  0  0  0  0  0  0
  185.8780  177.6950  145.3970 C   0  0  0  0  0  2  0  0  0  0  0  0
  184.5450  178.3760  145.6760 C   0  0  0  0  0  2  0  0  0  0  0  0
  181.5990  178.9910  143.3670 C   0  0  0  0  0  3  0  0  0  0  0  0
  184.4300  178.5460  143.2280 C   0  0  0  0  0  3  0  0  0  0  0  0
  182.1250  178.1750  139.7320 N   0  0  0  0  0  0  0  0  0  0  0  0
  181.4860  178.5030  140.9780 C   0  0  0  0  0  3  0  0  0  0  0  0
  182.2260  178.7600  142.0580 C   0  0  0  0  0  0  0  0  0  0  0  0
  184.2910  178.0980  140.7730 C   0  0  0  0  0  3  0  0  0  0  0  0
  183.7300  178.8660  141.9370 C   0  0  2  0  0  3  0  0  0  0  0  0
  183.5200  177.8280  139.7170 C   0  0  0  0  0  3  0  0  0  0  0  0
  183.7980  178.6350  144.4070 C   0  0  0  0  0  0  0  0  0  0  0  0
  182.3500  178.9420  144.4720 C   0  0  0  0  0  3  0  0  0  0  0  0
  181.3650  177.9320  138.6380 O   0  0  0  0  0  0  0  0  0  0  0  0
  181.3430  180.1160  137.6830 C   0  0  0  0  0  1  0  0  0  0  0  0
  181.9230  178.7180  137.6220 C   0  0  0  0  0  2  0  0  0  0  0  0
  1 19  1  0  0  0  0
  1  8  1  0  0  0  0
  2 13  2  0  0  0  0
  3  7  1  0  0  0  0
  5  4  1  1  0  0  0
  5  6  1  0  0  0  0
  7  9  1  0  0  0  0
  8  3  1  6  0  0  0
  8  5  1  0  0  0  0
  9  5  1  0  0  0  0
 10  2  1  0  0  0  0
 11 12  2  0  0  0  0
 11 10  1  0  0  0  0
 12 14  1  0  0  0  0
 13 15  1  0  0  0  0
 13  3  1  0  0  0  0
 14 15  2  0  0  0  0
 15  1  1  0  0  0  0
 16 11  1  1  0  0  0
 17 18  1  0  0  0  0
 17 16  1  0  0  0  0
 18 16  1  0  0  0  0
 20 21  1  0  0  0  0
 20 19  1  0  0  0  0
 22 31  2  0  0  0  0
 23 30  2  0  0  0  0
 24 25  1  0  0  0  0
 25 26  2  0  0  0  0
 26 22  1  0  0  0  0
 28 27  1  6  0  0  0
 28 26  1  0  0  0  0
 28 23  1  0  0  0  0
 29 24  1  0  0  0  0
 29 27  2  0  0  0  0
 30 31  1  0  0  0  0
 30 21  1  0  0  0  0
 32 24  1  0  0  0  0
 34 33  1  0  0  0  0
 34 32  1  0  0  0  0
M  END
>  <MODEL>
3

>  <REMARK>
 VINA RESULT:      -8.5      2.032      8.250
  Name = 
  7 active torsions:
  status: ('A' for Active; 'I' for Inactive)
    1  A    between atoms: N_1  and  C_9
    2  A    between atoms: C_3  and  C_25
    3  A    between atoms: N_7  and  O_11
    4  A    between atoms: C_8  and  C_9
    5  A    between atoms: C_8  and  C_18
    6  A    between atoms: O_11  and  C_21
    7  A    between atoms: C_18  and  C_30
                            x       y       z     vdW  Elec       q    Type
                         _______ _______ _______ _____ _____    ______ ____

>  <TORSDO>
F 7

$$$$
=
 OpenBabel10272415273D

 34 39  0  0  1  0  0  0  0  0999 V2000
  189.5010  177.8490  142.1660 N   0  0  0  0  0  0  0  0  0  0  0  0
  186.1070  178.0910  143.3270 C   0  0  0  0  0  3  0  0  0  0  0  0
  188.1830  176.9580  143.8890 N   0  0  0  0  0  0  0  0  0  0  0  0
  191.2990  178.6900  144.1470 C   0  0  0  0  0  1  0  0  0  0  0  0
  190.4350  177.4870  144.5000 C   0  0  2  0  0  0  0  0  0  0  0  0
  191.2640  176.4430  144.9150 O   0  0  0  0  0  1  0  0  0  0  0  0
  188.1620  177.1750  145.3220 C   0  0  0  0  0  2  0  0  0  0  0  0
  189.5410  176.9810  143.3540 C   0  0  2  0  0  3  0  0  0  0  0  0
  189.4880  177.8470  145.6420 C   0  0  0  0  0  2  0  0  0  0  0  0
  185.3650  179.1300  142.5500 C   0  0  0  0  0  2  0  0  0  0  0  0
  185.2240  178.8140  141.0910 C   0  0  0  0  0  0  0  0  0  0  0  0
  186.2790  178.6370  140.2880 C   0  0  0  0  0  3  0  0  0  0  0  0
  187.3480  177.7120  143.0150 C   0  0  0  0  0  0  0  0  0  0  0  0
  187.6940  178.5420  140.6920 C   0  0  0  0  0  3  0  0  0  0  0  0
  188.1410  178.1780  141.9000 C   0  0  0  0  0  0  0  0  0  0  0  0
  183.8530  178.8140  140.4850 C   0  0  1  0  0  3  0  0  0  0  0  0
  183.2040  177.4870  140.6070 C   0  0  0  0  0  2  0  0  0  0  0  0
  182.8880  178.5440  141.4780 O   0  0  0  0  0  0  0  0  0  0  0  0
  190.5450  177.8410  141.1450 C   0  0  0  0  0  2  0  0  0  0  0  0
  190.4550  176.5650  140.3200 C   0  0  0  0  0  2  0  0  0  0  0  0
  190.8850  176.8250  138.8830 C   0  0  0  0  0  2  0  0  0  0  0  0
  188.2200  178.5710  136.8250 C   0  0  0  0  0  3  0  0  0  0  0  0
  188.9260  175.9320  137.7010 C   0  0  0  0  0  3  0  0  0  0  0  0
  185.0780  176.6140  136.1530 N   0  0  0  0  0  0  0  0  0  0  0  0
  186.0110  177.7040  136.2540 C   0  0  0  0  0  3  0  0  0  0  0  0
  187.2740  177.4660  136.6100 C   0  0  0  0  0  0  0  0  0  0  0  0
  186.6730  175.0610  137.0610 C   0  0  0  0  0  3  0  0  0  0  0  0
  187.7670  176.0430  136.7500 C   0  0  2  0  0  3  0  0  0  0  0  0
  185.4110  175.3360  136.7200 C   0  0  0  0  0  3  0  0  0  0  0  0
  189.6990  176.9890  137.9870 C   0  0  0  0  0  0  0  0  0  0  0  0
  189.3690  178.3360  137.4660 C   0  0  0  0  0  3  0  0  0  0  0  0
  183.8020  176.8630  135.7740 O   0  0  0  0  0  0  0  0  0  0  0  0
  182.1810  178.0950  137.0130 C   0  0  0  0  0  1  0  0  0  0  0  0
  183.0590  176.8610  136.9600 C   0  0  0  0  0  2  0  0  0  0  0  0
  3  7  1  0  0  0  0
  5  4  1  6  0  0  0
  5  6  1  0  0  0  0
  5  9  1  0  0  0  0
  7  9  1  0  0  0  0
  8  1  1  6  0  0  0
  8  3  1  0  0  0  0
  8  5  1  0  0  0  0
 10  2  1  0  0  0  0
 11 10  1  0  0  0  0
 12 14  1  0  0  0  0
 12 11  2  0  0  0  0
 13  2  2  0  0  0  0
 13  3  1  0  0  0  0
 14 15  2  0  0  0  0
 15  1  1  0  0  0  0
 15 13  1  0  0  0  0
 16 17  1  0  0  0  0
 16 11  1  1  0  0  0
 16 18  1  0  0  0  0
 17 18  1  0  0  0  0
 19  1  1  0  0  0  0
 20 19  1  0  0  0  0
 21 20  1  0  0  0  0
 22 31  2  0  0  0  0
 23 30  2  0  0  0  0
 24 25  1  0  0  0  0
 24 29  1  0  0  0  0
 25 26  2  0  0  0  0
 26 28  1  0  0  0  0
 26 22  1  0  0  0  0
 28 27  1  1  0  0  0
 28 23  1  0  0  0  0
 29 27  2  0  0  0  0
 30 21  1  0  0  0  0
 31 30  1  0  0  0  0
 32 24  1  0  0  0  0
 32 34  1  0  0  0  0
 34 33  1  0  0  0  0
M  END
>  <MODEL>
4

>  <REMARK>
 VINA RESULT:      -8.4      2.169      8.835
  Name = 
  7 active torsions:
  status: ('A' for Active; 'I' for Inactive)
    1  A    between atoms: N_1  and  C_9
    2  A    between atoms: C_3  and  C_25
    3  A    between atoms: N_7  and  O_11
    4  A    between atoms: C_8  and  C_9
    5  A    between atoms: C_8  and  C_18
    6  A    between atoms: O_11  and  C_21
    7  A    between atoms: C_18  and  C_30
                            x       y       z     vdW  Elec       q    Type
                         _______ _______ _______ _____ _____    ______ ____

>  <TORSDO>
F 7

$$$$
=
 OpenBabel10272415273D

 34 39  0  0  1  0  0  0  0  0999 V2000
  187.2820  177.9950  138.3780 N   0  0  0  0  0  0  0  0  0  0  0  0
  190.3870  176.4210  139.2770 C   0  0  0  0  0  3  0  0  0  0  0  0
  188.4910  176.0700  137.7970 N   0  0  0  0  0  0  0  0  0  0  0  0
  187.2400  178.6380  135.6490 C   0  0  0  0  0  1  0  0  0  0  0  0
  187.3770  177.1590  135.9810 C   0  0  2  0  0  0  0  0  0  0  0  0
  186.3810  176.4520  135.3040 O   0  0  0  0  0  1  0  0  0  0  0  0
  189.2200  175.6910  136.6030 C   0  0  0  0  0  2  0  0  0  0  0  0
  187.2830  176.8270  137.4820 C   0  0  2  0  0  3  0  0  0  0  0  0
  188.7410  176.6500  135.5240 C   0  0  0  0  0  2  0  0  0  0  0  0
  191.1640  177.2970  140.2040 C   0  0  0  0  0  2  0  0  0  0  0  0
  190.4900  177.5400  141.5220 C   0  0  0  0  0  0  0  0  0  0  0  0
  189.2850  178.1150  141.6190 C   0  0  0  0  0  3  0  0  0  0  0  0
  189.1430  176.7100  138.8900 C   0  0  0  0  0  0  0  0  0  0  0  0
  188.3650  178.4330  140.5120 C   0  0  0  0  0  3  0  0  0  0  0  0
  188.3460  177.8390  139.3130 C   0  0  0  0  0  0  0  0  0  0  0  0
  191.2430  177.2370  142.7810 C   0  0  1  0  0  3  0  0  0  0  0  0
  191.6370  178.4780  143.4910 C   0  0  0  0  0  2  0  0  0  0  0  0
  190.5270  177.7180  143.8970 O   0  0  0  0  0  0  0  0  0  0  0  0
  186.0850  178.7890  138.6400 C   0  0  0  0  0  2  0  0  0  0  0  0
  185.1580  178.0360  139.5840 C   0  0  0  0  0  2  0  0  0  0  0  0
  184.3580  179.0100  140.4380 C   0  0  0  0  0  2  0  0  0  0  0  0
  183.5840  179.0210  144.1510 C   0  0  0  0  0  3  0  0  0  0  0  0
  185.5890  178.0580  142.3380 C   0  0  0  0  0  3  0  0  0  0  0  0
  186.4340  178.1670  146.4540 N   0  0  0  0  0  0  0  0  0  0  0  0
  185.1590  178.6270  145.9740 C   0  0  0  0  0  3  0  0  0  0  0  0
  184.8330  178.4640  144.6910 C   0  0  0  0  0  0  0  0  0  0  0  0
  187.1630  177.6200  144.2290 C   0  0  0  0  0  3  0  0  0  0  0  0
  185.7290  177.6560  143.7790 C   0  0  2  0  0  3  0  0  0  0  0  0
  187.4640  177.8160  145.5150 C   0  0  0  0  0  3  0  0  0  0  0  0
  184.4920  178.6880  141.8910 C   0  0  0  0  0  0  0  0  0  0  0  0
  183.4250  179.1120  142.8260 C   0  0  0  0  0  3  0  0  0  0  0  0
  186.7480  178.3210  147.7630 O   0  0  0  0  0  0  0  0  0  0  0  0
  188.9610  178.4010  148.6440 C   0  0  0  0  0  1  0  0  0  0  0  0
  187.9070  177.5600  147.9540 C   0  0  0  0  0  2  0  0  0  0  0  0
  1 19  1  0  0  0  0
  1 15  1  0  0  0  0
  2 10  1  0  0  0  0
  3 13  1  0  0  0  0
  5  4  1  6  0  0  0
  5  8  1  0  0  0  0
  6  5  1  0  0  0  0
  7  3  1  0  0  0  0
  8  3  1  1  0  0  0
  8  1  1  0  0  0  0
  9  5  1  0  0  0  0
  9  7  1  0  0  0  0
 10 11  1  0  0  0  0
 11 12  2  0  0  0  0
 13  2  2  0  0  0  0
 13 15  1  0  0  0  0
 14 12  1  0  0  0  0
 15 14  2  0  0  0  0
 16 11  1  6  0  0  0
 16 17  1  0  0  0  0
 16 18  1  0  0  0  0
 17 18  1  0  0  0  0
 19 20  1  0  0  0  0
 20 21  1  0  0  0  0
 21 30  1  0  0  0  0
 22 26  1  0  0  0  0
 24 32  1  0  0  0  0
 25 24  1  0  0  0  0
 26 25  2  0  0  0  0
 27 29  2  0  0  0  0
 28 23  1  6  0  0  0
 28 27  1  0  0  0  0
 28 26  1  0  0  0  0
 29 24  1  0  0  0  0
 30 23  2  0  0  0  0
 30 31  1  0  0  0  0
 31 22  2  0  0  0  0
 32 34  1  0  0  0  0
 34 33  1  0  0  0  0
M  END
>  <MODEL>
5

>  <REMARK>
 VINA RESULT:      -8.3      2.430      4.628
  Name = 
  7 active torsions:
  status: ('A' for Active; 'I' for Inactive)
    1  A    between atoms: N_1  and  C_9
    2  A    between atoms: C_3  and  C_25
    3  A    between atoms: N_7  and  O_11
    4  A    between atoms: C_8  and  C_9
    5  A    between atoms: C_8  and  C_18
    6  A    between atoms: O_11  and  C_21
    7  A    between atoms: C_18  and  C_30
                            x       y       z     vdW  Elec       q    Type
                         _______ _______ _______ _____ _____    ______ ____

>  <TORSDO>
F 7

$$$$
=
 OpenBabel10272415273D

 34 39  0  0  1  0  0  0  0  0999 V2000
  185.5500  178.1920  138.9530 N   0  0  0  0  0  0  0  0  0  0  0  0
  184.7500  175.8290  136.3640 C   0  0  0  0  0  3  0  0  0  0  0  0
  186.3570  177.5910  136.8340 N   0  0  0  0  0  0  0  0  0  0  0  0
  188.1470  177.7730  139.9220 C   0  0  0  0  0  1  0  0  0  0  0  0
  188.0380  178.1350  138.4470 C   0  0  2  0  0  0  0  0  0  0  0  0
  188.8630  179.2320  138.1910 O   0  0  0  0  0  1  0  0  0  0  0  0
  187.5580  176.9060  136.3990 C   0  0  0  0  0  2  0  0  0  0  0  0
  186.6120  178.4680  137.9720 C   0  0  2  0  0  3  0  0  0  0  0  0
  188.5000  176.9600  137.5900 C   0  0  0  0  0  2  0  0  0  0  0  0
  183.6630  174.9090  136.8170 C   0  0  0  0  0  2  0  0  0  0  0  0
  182.3590  175.5970  137.0920 C   0  0  0  0  0  0  0  0  0  0  0  0
  182.2340  176.5670  138.0050 C   0  0  0  0  0  3  0  0  0  0  0  0
  185.1480  176.8790  137.0850 C   0  0  0  0  0  0  0  0  0  0  0  0
  183.3230  177.2340  138.7420 C   0  0  0  0  0  3  0  0  0  0  0  0
  184.5980  177.3230  138.3450 C   0  0  0  0  0  0  0  0  0  0  0  0
  181.1250  175.0970  136.4030 C   0  0  1  0  0  3  0  0  0  0  0  0
  180.7680  175.9480  135.2430 C   0  0  0  0  0  2  0  0  0  0  0  0
  181.4320  174.7200  135.0790 O   0  0  0  0  0  0  0  0  0  0  0  0
  185.2280  179.1020  140.0490 C   0  0  0  0  0  2  0  0  0  0  0  0
  184.7540  178.3100  141.2600 C   0  0  0  0  0  2  0  0  0  0  0  0
  184.7900  179.1750  142.5120 C   0  0  0  0  0  2  0  0  0  0  0  0
  185.8670  178.1820  146.0110 C   0  0  0  0  0  3  0  0  0  0  0  0
  186.7650  177.9430  143.2960 C   0  0  0  0  0  3  0  0  0  0  0  0
  189.4600  177.1410  146.4210 N   0  0  0  0  0  0  0  0  0  0  0  0
  188.1140  177.5480  146.7250 C   0  0  0  0  0  3  0  0  0  0  0  0
  187.2170  177.6650  145.7440 C   0  0  0  0  0  0  0  0  0  0  0  0
  189.0420  177.2490  144.0550 C   0  0  0  0  0  3  0  0  0  0  0  0
  187.5670  177.2200  144.3410 C   0  0  2  0  0  3  0  0  0  0  0  0
  189.9190  177.1590  145.0590 C   0  0  0  0  0  3  0  0  0  0  0  0
  185.5940  178.5250  143.5920 C   0  0  0  0  0  0  0  0  0  0  0  0
  185.1010  178.5750  144.9880 C   0  0  0  0  0  3  0  0  0  0  0  0
  190.3580  177.0080  147.4260 O   0  0  0  0  0  0  0  0  0  0  0  0
  192.3630  175.7860  147.8330 C   0  0  0  0  0  1  0  0  0  0  0  0
  191.5240  176.5310  146.8160 C   0  0  0  0  0  2  0  0  0  0  0  0
  1 19  1  0  0  0  0
  2 10  1  0  0  0  0
  2 13  2  0  0  0  0
  3 13  1  0  0  0  0
  5  4  1  1  0  0  0
  6  5  1  0  0  0  0
  7  3  1  0  0  0  0
  7  9  1  0  0  0  0
  8  3  1  6  0  0  0
  8  5  1  0  0  0  0
  8  1  1  0  0  0  0
  9  5  1  0  0  0  0
 10 11  1  0  0  0  0
 11 12  2  0  0  0  0
 12 14  1  0  0  0  0
 13 15  1  0  0  0  0
 15 14  2  0  0  0  0
 15  1  1  0  0  0  0
 16 11  1  1  0  0  0
 17 16  1  0  0  0  0
 18 17  1  0  0  0  0
 18 16  1  0  0  0  0
 19 20  1  0  0  0  0
 20 21  1  0  0  0  0
 21 30  1  0  0  0  0
 23 30  2  0  0  0  0
 24 25  1  0  0  0  0
 24 32  1  0  0  0  0
 26 22  1  0  0  0  0
 26 25  2  0  0  0  0
 27 28  1  0  0  0  0
 27 29  2  0  0  0  0
 28 23  1  6  0  0  0
 28 26  1  0  0  0  0
 29 24  1  0  0  0  0
 30 31  1  0  0  0  0
 31 22  2  0  0  0  0
 34 32  1  0  0  0  0
 34 33  1  0  0  0  0
M  END
>  <MODEL>
6

>  <REMARK>
 VINA RESULT:      -8.2      1.727      4.012
  Name = 
  7 active torsions:
  status: ('A' for Active; 'I' for Inactive)
    1  A    between atoms: N_1  and  C_9
    2  A    between atoms: C_3  and  C_25
    3  A    between atoms: N_7  and  O_11
    4  A    between atoms: C_8  and  C_9
    5  A    between atoms: C_8  and  C_18
    6  A    between atoms: O_11  and  C_21
    7  A    between atoms: C_18  and  C_30
                            x       y       z     vdW  Elec       q    Type
                         _______ _______ _______ _____ _____    ______ ____

>  <TORSDO>
F 7

$$$$
=
 OpenBabel10272415273D

 34 39  0  0  1  0  0  0  0  0999 V2000
  185.1800  178.2670  142.4170 N   0  0  0  0  0  0  0  0  0  0  0  0
  184.2440  178.7890  145.8500 C   0  0  0  0  0  3  0  0  0  0  0  0
  183.6240  179.5430  143.6240 N   0  0  0  0  0  0  0  0  0  0  0  0
  183.0220  177.2680  140.9330 C   0  0  0  0  0  1  0  0  0  0  0  0
  182.8200  178.6420  141.5580 C   0  0  2  0  0  0  0  0  0  0  0  0
  182.4270  179.5370  140.5610 O   0  0  0  0  0  1  0  0  0  0  0  0
  182.1830  179.4590  143.7640 C   0  0  0  0  0  2  0  0  0  0  0  0
  184.0600  179.2110  142.2700 C   0  0  2  0  0  3  0  0  0  0  0  0
  181.7240  178.5720  142.6170 C   0  0  0  0  0  2  0  0  0  0  0  0
  184.9910  177.8510  146.7400 C   0  0  0  0  0  2  0  0  0  0  0  0
  186.4760  178.0600  146.7370 C   0  0  0  0  0  0  0  0  0  0  0  0
  187.2150  177.9590  145.6260 C   0  0  0  0  0  3  0  0  0  0  0  0
  184.4960  178.8910  144.5430 C   0  0  0  0  0  0  0  0  0  0  0  0
  186.7210  177.8130  144.2440 C   0  0  0  0  0  3  0  0  0  0  0  0
  185.5150  178.1870  143.8000 C   0  0  0  0  0  0  0  0  0  0  0  0
  187.1750  178.2730  148.0460 C   0  0  1  0  0  3  0  0  0  0  0  0
  188.1850  177.2190  148.3000 C   0  0  0  0  0  2  0  0  0  0  0  0
  188.5510  178.4900  147.8260 O   0  0  0  0  0  0  0  0  0  0  0  0
  186.1230  177.9850  141.3390 C   0  0  0  0  0  2  0  0  0  0  0  0
  187.1190  179.1280  141.2080 C   0  0  0  0  0  2  0  0  0  0  0  0
  188.3310  178.6920  140.3960 C   0  0  0  0  0  2  0  0  0  0  0  0
  190.8720  176.1640  141.6380 C   0  0  0  0  0  3  0  0  0  0  0  0
  189.6350  178.6130  142.4770 C   0  0  0  0  0  3  0  0  0  0  0  0
  191.6970  176.2890  145.3070 N   0  0  0  0  0  0  0  0  0  0  0  0
  191.6060  175.8390  143.9440 C   0  0  0  0  0  3  0  0  0  0  0  0
  191.0770  176.6380  143.0150 C   0  0  0  0  0  0  0  0  0  0  0  0
  190.4410  178.2790  144.8180 C   0  0  0  0  0  3  0  0  0  0  0  0
  190.7240  178.0680  143.3570 C   0  0  2  0  0  3  0  0  0  0  0  0
  190.9580  177.4480  145.7260 C   0  0  0  0  0  3  0  0  0  0  0  0
  189.3750  178.0790  141.2740 C   0  0  0  0  0  0  0  0  0  0  0  0
  190.0760  176.8570  140.8180 C   0  0  0  0  0  3  0  0  0  0  0  0
  192.2520  175.4780  146.2390 O   0  0  0  0  0  0  0  0  0  0  0  0
  192.9170  175.7890  148.5070 C   0  0  0  0  0  1  0  0  0  0  0  0
  191.8300  175.9920  147.4710 C   0  0  0  0  0  2  0  0  0  0  0  0
  1 15  1  0  0  0  0
  2 10  1  0  0  0  0
  3  7  1  0  0  0  0
  3 13  1  0  0  0  0
  5  4  1  6  0  0  0
  5  8  1  0  0  0  0
  5  9  1  0  0  0  0
  6  5  1  0  0  0  0
  8  1  1  1  0  0  0
  8  3  1  0  0  0  0
  9  7  1  0  0  0  0
 11 10  1  0  0  0  0
 12 11  2  0  0  0  0
 13  2  2  0  0  0  0
 14 12  1  0  0  0  0
 15 14  2  0  0  0  0
 15 13  1  0  0  0  0
 16 11  1  6  0  0  0
 16 17  1  0  0  0  0
 18 16  1  0  0  0  0
 18 17  1  0  0  0  0
 19  1  1  0  0  0  0
 20 19  1  0  0  0  0
 21 20  1  0  0  0  0
 21 30  1  0  0  0  0
 22 26  1  0  0  0  0
 24 29  1  0  0  0  0
 24 32  1  0  0  0  0
 25 24  1  0  0  0  0
 26 28  1  0  0  0  0
 26 25  2  0  0  0  0
 27 29  2  0  0  0  0
 28 23  1  6  0  0  0
 28 27  1  0  0  0  0
 30 23  2  0  0  0  0
 31 30  1  0  0  0  0
 31 22  2  0  0  0  0
 32 34  1  0  0  0  0
 34 33  1  0  0  0  0
M  END
>  <MODEL>
7

>  <REMARK>
 VINA RESULT:      -8.0      3.270      6.485
  Name = 
  7 active torsions:
  status: ('A' for Active; 'I' for Inactive)
    1  A    between atoms: N_1  and  C_9
    2  A    between atoms: C_3  and  C_25
    3  A    between atoms: N_7  and  O_11
    4  A    between atoms: C_8  and  C_9
    5  A    between atoms: C_8  and  C_18
    6  A    between atoms: O_11  and  C_21
    7  A    between atoms: C_18  and  C_30
                            x       y       z     vdW  Elec       q    Type
                         _______ _______ _______ _____ _____    ______ ____

>  <TORSDO>
F 7

$$$$
=
 OpenBabel10272415273D

 34 39  0  0  1  0  0  0  0  0999 V2000
  181.7000  178.3470  139.5510 N   0  0  0  0  0  0  0  0  0  0  0  0
  181.2370  180.0620  136.4250 C   0  0  0  0  0  3  0  0  0  0  0  0
  182.5720  178.2670  137.3740 N   0  0  0  0  0  0  0  0  0  0  0  0
  181.1280  175.6150  139.2870 C   0  0  0  0  0  1  0  0  0  0  0  0
  182.2720  176.1410  138.4300 C   0  0  2  0  0  0  0  0  0  0  0  0
  183.4040  175.3570  138.6600 O   0  0  0  0  0  1  0  0  0  0  0  0
  182.4360  177.3070  136.2970 C   0  0  0  0  0  2  0  0  0  0  0  0
  182.6340  177.6160  138.6790 C   0  0  2  0  0  3  0  0  0  0  0  0
  181.8980  176.0460  136.9530 C   0  0  0  0  0  2  0  0  0  0  0  0
  180.0970  181.0230  136.5230 C   0  0  0  0  0  2  0  0  0  0  0  0
  180.3170  182.1300  137.5110 C   0  0  0  0  0  0  0  0  0  0  0  0
  180.5370  181.9010  138.8110 C   0  0  0  0  0  3  0  0  0  0  0  0
  181.7010  179.3900  137.4800 C   0  0  0  0  0  0  0  0  0  0  0  0
  180.7740  180.5950  139.4520 C   0  0  0  0  0  3  0  0  0  0  0  0
  181.2420  179.4980  138.8460 C   0  0  0  0  0  0  0  0  0  0  0  0
  180.1650  183.5470  137.0480 C   0  0  1  0  0  3  0  0  0  0  0  0
  181.4430  184.2920  137.1500 C   0  0  0  0  0  2  0  0  0  0  0  0
  180.9880  183.7760  135.9250 O   0  0  0  0  0  0  0  0  0  0  0  0
  181.7390  178.2550  141.0070 C   0  0  0  0  0  2  0  0  0  0  0  0
  183.1720  178.0410  141.4760 C   0  0  0  0  0  2  0  0  0  0  0  0
  183.5830  179.1340  142.4540 C   0  0  0  0  0  2  0  0  0  0  0  0
  185.1570  178.4410  145.8350 C   0  0  0  0  0  3  0  0  0  0  0  0
  185.7400  178.1170  143.0440 C   0  0  0  0  0  3  0  0  0  0  0  0
  188.8500  177.7250  145.8440 N   0  0  0  0  0  0  0  0  0  0  0  0
  187.5200  178.0370  146.2930 C   0  0  0  0  0  3  0  0  0  0  0  0
  186.5050  178.0220  145.4270 C   0  0  0  0  0  0  0  0  0  0  0  0
  188.1440  177.6580  143.5470 C   0  0  0  0  0  3  0  0  0  0  0  0
  186.7220  177.5250  144.0150 C   0  0  2  0  0  3  0  0  0  0  0  0
  189.1390  177.7000  144.4370 C   0  0  0  0  0  3  0  0  0  0  0  0
  184.5650  178.6160  143.4550 C   0  0  0  0  0  0  0  0  0  0  0  0
  184.2410  178.7080  144.8980 C   0  0  0  0  0  3  0  0  0  0  0  0
  189.8710  177.7250  146.7350 O   0  0  0  0  0  0  0  0  0  0  0  0
  191.5280  176.0580  147.1260 C   0  0  0  0  0  1  0  0  0  0  0  0
  190.0490  176.3830  147.0890 C   0  0  0  0  0  2  0  0  0  0  0  0
  1 19  1  0  0  0  0
  2 10  1  0  0  0  0
  2 13  2  0  0  0  0
  3 13  1  0  0  0  0
  5  6  1  0  0  0  0
  5  8  1  0  0  0  0
  5  4  1  1  0  0  0
  7  9  1  0  0  0  0
  7  3  1  0  0  0  0
  8  3  1  6  0  0  0
  8  1  1  0  0  0  0
  9  5  1  0  0  0  0
 10 11  1  0  0  0  0
 11 12  2  0  0  0  0
 12 14  1  0  0  0  0
 13 15  1  0  0  0  0
 15 14  2  0  0  0  0
 15  1  1  0  0  0  0
 16 17  1  0  0  0  0
 16 11  1  1  0  0  0
 18 16  1  0  0  0  0
 18 17  1  0  0  0  0
 19 20  1  0  0  0  0
 20 21  1  0  0  0  0
 21 30  1  0  0  0  0
 23 30  2  0  0  0  0
 24 25  1  0  0  0  0
 24 32  1  0  0  0  0
 26 22  1  0  0  0  0
 26 25  2  0  0  0  0
 27 28  1  0  0  0  0
 27 29  2  0  0  0  0
 28 23  1  6  0  0  0
 28 26  1  0  0  0  0
 29 24  1  0  0  0  0
 30 31  1  0  0  0  0
 31 22  2  0  0  0  0
 32 34  1  0  0  0  0
 34 33  1  0  0  0  0
M  END
>  <MODEL>
8

>  <REMARK>
 VINA RESULT:      -7.9      3.114      4.936
  Name = 
  7 active torsions:
  status: ('A' for Active; 'I' for Inactive)
    1  A    between atoms: N_1  and  C_9
    2  A    between atoms: C_3  and  C_25
    3  A    between atoms: N_7  and  O_11
    4  A    between atoms: C_8  and  C_9
    5  A    between atoms: C_8  and  C_18
    6  A    between atoms: O_11  and  C_21
    7  A    between atoms: C_18  and  C_30
                            x       y       z     vdW  Elec       q    Type
                         _______ _______ _______ _____ _____    ______ ____

>  <TORSDO>
F 7

$$$$
=
 OpenBabel10272415273D

 34 39  0  0  1  0  0  0  0  0999 V2000
  189.2050  176.5770  137.0370 N   0  0  0  0  0  0  0  0  0  0  0  0
  191.0740  173.5450  136.5450 C   0  0  0  0  0  3  0  0  0  0  0  0
  188.7930  174.2680  136.9710 N   0  0  0  0  0  0  0  0  0  0  0  0
  187.2220  176.8600  135.0750 C   0  0  0  0  0  1  0  0  0  0  0  0
  187.1020  175.6340  135.9700 C   0  0  2  0  0  0  0  0  0  0  0  0
  185.8230  175.6080  136.5280 O   0  0  0  0  0  1  0  0  0  0  0  0
  188.1170  173.4190  136.0100 C   0  0  0  0  0  2  0  0  0  0  0  0
  188.1380  175.5660  137.1070 C   0  0  2  0  0  3  0  0  0  0  0  0
  187.3050  174.3680  135.1430 C   0  0  0  0  0  2  0  0  0  0  0  0
  192.4880  173.8600  136.1810 C   0  0  0  0  0  2  0  0  0  0  0  0
  193.2480  174.5810  137.2540 C   0  0  0  0  0  0  0  0  0  0  0  0
  192.8650  175.7700  137.7340 C   0  0  0  0  0  3  0  0  0  0  0  0
  190.1990  174.4870  136.9050 C   0  0  0  0  0  0  0  0  0  0  0  0
  191.6010  176.4730  137.4490 C   0  0  0  0  0  3  0  0  0  0  0  0
  190.4590  175.9010  137.0470 C   0  0  0  0  0  0  0  0  0  0  0  0
  194.5500  174.0040  137.7230 C   0  0  1  0  0  3  0  0  0  0  0  0
  195.6960  174.5630  136.9650 C   0  0  0  0  0  2  0  0  0  0  0  0
  195.3660  175.0270  138.2510 O   0  0  0  0  0  0  0  0  0  0  0  0
  189.0240  177.9510  137.4960 C   0  0  0  0  0  2  0  0  0  0  0  0
  188.6560  177.9620  138.9730 C   0  0  0  0  0  2  0  0  0  0  0  0
  189.9090  177.9770  139.8380 C   0  0  0  0  0  2  0  0  0  0  0  0
  187.9640  177.6200  143.0740 C   0  0  0  0  0  3  0  0  0  0  0  0
  190.5630  177.0330  142.0090 C   0  0  0  0  0  3  0  0  0  0  0  0
  189.9840  176.9300  146.1710 N   0  0  0  0  0  0  0  0  0  0  0  0
  188.8880  177.2760  145.3060 C   0  0  0  0  0  3  0  0  0  0  0  0
  189.0280  177.1720  143.9840 C   0  0  0  0  0  0  0  0  0  0  0  0
  191.4700  176.6390  144.3040 C   0  0  0  0  0  3  0  0  0  0  0  0
  190.2730  176.5430  143.4000 C   0  0  2  0  0  3  0  0  0  0  0  0
  191.3030  176.7720  145.6220 C   0  0  0  0  0  3  0  0  0  0  0  0
  189.6000  177.5640  141.2410 C   0  0  0  0  0  0  0  0  0  0  0  0
  188.2380  177.7920  141.7770 C   0  0  0  0  0  3  0  0  0  0  0  0
  189.8270  177.0220  147.5140 O   0  0  0  0  0  0  0  0  0  0  0  0
  188.2320  178.0410  148.9630 C   0  0  0  0  0  1  0  0  0  0  0  0
  188.4550  177.2190  147.7100 C   0  0  0  0  0  2  0  0  0  0  0  0
  1 15  1  0  0  0  0
  1  8  1  0  0  0  0
  1 19  1  0  0  0  0
  2 13  2  0  0  0  0
  5  4  1  6  0  0  0
  5  6  1  0  0  0  0
  5  8  1  0  0  0  0
  7  3  1  0  0  0  0
  8  3  1  6  0  0  0
  9  5  1  0  0  0  0
  9  7  1  0  0  0  0
 10  2  1  0  0  0  0
 10 11  1  0  0  0  0
 11 12  2  0  0  0  0
 13  3  1  0  0  0  0
 13 15  1  0  0  0  0
 14 12  1  0  0  0  0
 15 14  2  0  0  0  0
 16 11  1  6  0  0  0
 16 18  1  0  0  0  0
 17 16  1  0  0  0  0
 17 18  1  0  0  0  0
 19 20  1  0  0  0  0
 20 21  1  0  0  0  0
 21 30  1  0  0  0  0
 22 26  1  0  0  0  0
 24 32  1  0  0  0  0
 25 24  1  0  0  0  0
 26 25  2  0  0  0  0
 27 29  2  0  0  0  0
 28 23  1  6  0  0  0
 28 26  1  0  0  0  0
 28 27  1  0  0  0  0
 29 24  1  0  0  0  0
 30 31  1  0  0  0  0
 30 23  2  0  0  0  0
 31 22  2  0  0  0  0
 32 34  1  0  0  0  0
 34 33  1  0  0  0  0
M  END
>  <MODEL>
9

>  <REMARK>
 VINA RESULT:      -7.8      3.477      5.251
  Name = 
  7 active torsions:
  status: ('A' for Active; 'I' for Inactive)
    1  A    between atoms: N_1  and  C_9
    2  A    between atoms: C_3  and  C_25
    3  A    between atoms: N_7  and  O_11
    4  A    between atoms: C_8  and  C_9
    5  A    between atoms: C_8  and  C_18
    6  A    between atoms: O_11  and  C_21
    7  A    between atoms: C_18  and  C_30
                            x       y       z     vdW  Elec       q    Type
                         _______ _______ _______ _____ _____    ______ ____

>  <TORSDO>
F 7

$$$$
