=
 OpenBabel10272413403D

 32 36  0  0  1  0  0  0  0  0999 V2000
  188.7740  175.9180  142.9710 C   0  0  0  0  0  2  0  0  0  0  0  0
  190.1220  175.8450  143.6760 C   0  0  0  0  0  2  0  0  0  0  0  0
  189.4060  177.1740  143.5350 C   0  0  0  0  0  0  0  0  0  0  0  0
  190.7090  176.2090  138.0500 C   0  0  0  0  0  0  0  0  0  0  0  0
  189.1040  179.0000  141.8760 O   0  0  0  0  0  0  0  0  0  0  0  0
  189.1640  177.5660  139.9440 C   0  0  0  0  0  0  0  0  0  0  0  0
  191.0950  177.5950  141.5590 C   0  0  0  0  0  2  0  0  0  0  0  0
  191.2590  176.5390  139.2940 C   0  0  0  0  0  3  0  0  0  0  0  0
  190.0450  178.1690  142.5330 C   0  0  2  0  0  3  0  0  0  0  0  0
  189.3810  176.5420  137.7630 C   0  0  0  0  0  3  0  0  0  0  0  0
  190.4850  177.2080  140.2460 C   0  0  0  0  0  0  0  0  0  0  0  0
  188.6060  177.2170  138.7100 C   0  0  0  0  0  3  0  0  0  0  0  0
  188.3200  178.2210  140.9950 C   0  0  0  0  0  2  0  0  0  0  0  0
  191.5250  175.4720  137.0470 C   0  0  0  0  0  2  0  0  0  0  0  0
  193.9460  175.1370  137.6570 C   0  0  0  0  0  0  0  0  0  0  0  0
  192.5800  174.7310  137.7210 N   0  0  0  0  0  2  0  0  0  0  0  0
  194.9820  174.3420  138.3660 C   0  0  0  0  0  1  0  0  0  0  0  0
  194.2820  176.1630  137.0090 O   0  0  0  0  0  0  0  0  0  0  0  0
  188.8160  177.6660  144.8550 C   0  0  1  0  0  3  0  0  0  0  0  0
  185.3760  178.5350  146.1000 C   0  0  0  0  0  0  0  0  0  0  0  0
  184.5850  178.6150  144.8610 C   0  0  0  0  0  0  0  0  0  0  0  0
  183.1410  178.7460  142.4670 C   0  0  0  0  0  3  0  0  0  0  0  0
  187.2840  177.6630  144.8160 C   0  0  2  0  0  3  0  0  0  0  0  0
  182.4760  178.8510  143.6920 C   0  0  0  0  0  3  0  0  0  0  0  0
  183.1960  178.7880  144.8890 C   0  0  0  0  0  3  0  0  0  0  0  0
  186.7510  178.3940  143.5800 C   0  0  0  0  0  2  0  0  0  0  0  0
  184.8560  178.7880  147.2190 O   0  0  0  0  0  0  0  0  0  0  0  0
  184.5290  178.5780  142.4350 C   0  0  0  0  0  3  0  0  0  0  0  0
  186.7280  178.1960  146.0220 O   0  0  0  0  0  0  0  0  0  0  0  0
  185.2540  178.5010  143.6280 C   0  0  0  0  0  0  0  0  0  0  0  0
  189.3630  177.9020  147.5420 S   0  0  0  0  0  1  0  0  0  0  0  0
  189.3800  176.8840  146.0400 C   0  0  0  0  0  2  0  0  0  0  0  0
  1  3  1  0  0  0  0
  1  2  1  0  0  0  0
  3  2  1  0  0  0  0
  3 19  1  0  0  0  0
  4  8  1  0  0  0  0
  5  9  1  0  0  0  0
  6 11  1  0  0  0  0
  6 13  1  0  0  0  0
  8 11  2  0  0  0  0
  9  7  1  6  0  0  0
  9  3  1  0  0  0  0
 10  4  2  0  0  0  0
 10 12  1  0  0  0  0
 11  7  1  0  0  0  0
 12  6  2  0  0  0  0
 13  5  1  0  0  0  0
 14 16  1  0  0  0  0
 14  4  1  0  0  0  0
 15 16  1  0  0  0  0
 15 17  1  0  0  0  0
 18 15  2  0  0  0  0
 19 32  1  1  0  0  0
 20 27  2  0  0  0  0
 21 25  1  0  0  0  0
 21 20  1  0  0  0  0
 22 24  1  0  0  0  0
 23 19  1  1  0  0  0
 23 29  1  0  0  0  0
 24 25  2  0  0  0  0
 26 30  1  0  0  0  0
 26 23  1  0  0  0  0
 28 22  2  0  0  0  0
 28 30  1  0  0  0  0
 29 20  1  0  0  0  0
 30 21  2  0  0  0  0
 32 31  1  0  0  0  0
M  END
>  <MODEL>
1

>  <REMARK>
 VINA RESULT:      -9.3      0.000      0.000
  Name = 
  6 active torsions:
  status: ('A' for Active; 'I' for Inactive)
    1  A    between atoms: C_2  and  C_24
    2  A    between atoms: N_10  and  C_24
    3  A    between atoms: C_14  and  C_15
    4  A    between atoms: C_15  and  C_26
    5  A    between atoms: C_16  and  C_26
    6  A    between atoms: C_25  and  C_26
                            x       y       z     vdW  Elec       q    Type
                         _______ _______ _______ _____ _____    ______ ____

>  <TORSDO>
F 6

$$$$
=
 OpenBabel10272413403D

 32 36  0  0  1  0  0  0  0  0999 V2000
  190.0020  175.6040  143.2890 C   0  0  0  0  0  2  0  0  0  0  0  0
  191.4840  175.3200  143.5000 C   0  0  0  0  0  2  0  0  0  0  0  0
  190.9200  176.6920  143.8090 C   0  0  0  0  0  0  0  0  0  0  0  0
  189.8840  176.9230  138.1880 C   0  0  0  0  0  0  0  0  0  0  0  0
  190.4030  178.8850  142.7580 O   0  0  0  0  0  0  0  0  0  0  0  0
  189.4550  177.9590  140.7500 C   0  0  0  0  0  0  0  0  0  0  0  0
  191.8090  177.3730  141.4260 C   0  0  0  0  0  2  0  0  0  0  0  0
  190.9080  176.8780  139.1410 C   0  0  0  0  0  3  0  0  0  0  0  0
  191.3320  177.8160  142.8240 C   0  0  2  0  0  3  0  0  0  0  0  0
  188.6410  177.4690  138.5250 C   0  0  0  0  0  3  0  0  0  0  0  0
  190.6930  177.3870  140.4250 C   0  0  0  0  0  0  0  0  0  0  0  0
  188.4240  177.9840  139.8060 C   0  0  0  0  0  3  0  0  0  0  0  0
  189.2100  178.4380  142.1490 C   0  0  0  0  0  2  0  0  0  0  0  0
  190.1050  176.3570  136.8300 C   0  0  0  0  0  2  0  0  0  0  0  0
  189.4650  173.9240  136.9500 C   0  0  0  0  0  0  0  0  0  0  0  0
  189.1670  175.2720  136.5910 N   0  0  0  0  0  2  0  0  0  0  0  0
  188.4680  172.8550  136.6820 C   0  0  0  0  0  1  0  0  0  0  0  0
  190.5640  173.6300  137.4910 O   0  0  0  0  0  0  0  0  0  0  0  0
  190.8260  176.9650  145.3090 C   0  0  1  0  0  3  0  0  0  0  0  0
  188.0400  177.8670  147.6670 C   0  0  0  0  0  0  0  0  0  0  0  0
  186.8990  178.0890  146.7640 C   0  0  0  0  0  0  0  0  0  0  0  0
  184.7730  178.4910  144.9890 C   0  0  0  0  0  3  0  0  0  0  0  0
  189.3670  177.0310  145.7720 C   0  0  2  0  0  3  0  0  0  0  0  0
  184.5480  178.5160  146.3680 C   0  0  0  0  0  3  0  0  0  0  0  0
  185.6090  178.3190  147.2570 C   0  0  0  0  0  3  0  0  0  0  0  0
  188.5160  177.8890  144.8330 C   0  0  0  0  0  2  0  0  0  0  0  0
  187.9280  178.0440  148.9100 O   0  0  0  0  0  0  0  0  0  0  0  0
  186.0610  178.2670  144.4940 C   0  0  0  0  0  3  0  0  0  0  0  0
  189.2680  177.4790  147.1280 O   0  0  0  0  0  0  0  0  0  0  0  0
  187.1250  178.0550  145.3750 C   0  0  0  0  0  0  0  0  0  0  0  0
  191.9740  176.5860  147.7820 S   0  0  0  0  0  1  0  0  0  0  0  0
  191.6570  175.9620  146.1070 C   0  0  0  0  0  2  0  0  0  0  0  0
  1  2  1  0  0  0  0
  1  3  1  0  0  0  0
  2  3  1  0  0  0  0
  3 19  1  0  0  0  0
  4 10  2  0  0  0  0
  4  8  1  0  0  0  0
  5  9  1  0  0  0  0
  6 13  1  0  0  0  0
  8 11  2  0  0  0  0
  9  7  1  6  0  0  0
  9  3  1  0  0  0  0
 10 12  1  0  0  0  0
 11  6  1  0  0  0  0
 11  7  1  0  0  0  0
 12  6  2  0  0  0  0
 13  5  1  0  0  0  0
 14  4  1  0  0  0  0
 15 18  2  0  0  0  0
 16 14  1  0  0  0  0
 16 15  1  0  0  0  0
 17 15  1  0  0  0  0
 19 32  1  1  0  0  0
 20 27  2  0  0  0  0
 21 25  1  0  0  0  0
 21 20  1  0  0  0  0
 22 24  1  0  0  0  0
 23 19  1  6  0  0  0
 23 29  1  0  0  0  0
 24 25  2  0  0  0  0
 26 30  1  0  0  0  0
 26 23  1  0  0  0  0
 28 22  2  0  0  0  0
 28 30  1  0  0  0  0
 29 20  1  0  0  0  0
 30 21  2  0  0  0  0
 32 31  1  0  0  0  0
M  END
>  <MODEL>
2

>  <REMARK>
 VINA RESULT:      -9.2      2.142      2.750
  Name = 
  6 active torsions:
  status: ('A' for Active; 'I' for Inactive)
    1  A    between atoms: C_2  and  C_24
    2  A    between atoms: N_10  and  C_24
    3  A    between atoms: C_14  and  C_15
    4  A    between atoms: C_15  and  C_26
    5  A    between atoms: C_16  and  C_26
    6  A    between atoms: C_25  and  C_26
                            x       y       z     vdW  Elec       q    Type
                         _______ _______ _______ _____ _____    ______ ____

>  <TORSDO>
F 6

$$$$
=
 OpenBabel10272413403D

 32 36  0  0  1  0  0  0  0  0999 V2000
  191.3390  177.9250  144.9500 C   0  0  0  0  0  2  0  0  0  0  0  0
  190.4790  178.7820  144.0300 C   0  0  0  0  0  2  0  0  0  0  0  0
  189.8920  177.5550  144.6970 C   0  0  0  0  0  0  0  0  0  0  0  0
  189.0390  177.7270  139.0440 C   0  0  0  0  0  0  0  0  0  0  0  0
  190.7840  175.7190  143.2780 O   0  0  0  0  0  0  0  0  0  0  0  0
  190.6240  176.9330  141.2060 C   0  0  0  0  0  0  0  0  0  0  0  0
  188.5770  176.5870  142.6310 C   0  0  0  0  0  2  0  0  0  0  0  0
  188.4390  177.3830  140.2600 C   0  0  0  0  0  3  0  0  0  0  0  0
  189.6110  176.3570  143.7530 C   0  0  2  0  0  3  0  0  0  0  0  0
  190.4320  177.6920  138.9170 C   0  0  0  0  0  3  0  0  0  0  0  0
  189.2300  176.9940  141.3460 C   0  0  0  0  0  0  0  0  0  0  0  0
  191.2250  177.2990  139.9980 C   0  0  0  0  0  3  0  0  0  0  0  0
  191.4670  176.5840  142.3940 C   0  0  0  0  0  2  0  0  0  0  0  0
  188.1980  178.1670  137.8970 C   0  0  0  0  0  2  0  0  0  0  0  0
  185.6950  177.9010  137.8040 C   0  0  0  0  0  0  0  0  0  0  0  0
  186.8620  178.4980  138.3670 N   0  0  0  0  0  2  0  0  0  0  0  0
  184.3540  178.2760  138.3230 C   0  0  0  0  0  1  0  0  0  0  0  0
  185.7890  177.0580  136.8730 O   0  0  0  0  0  0  0  0  0  0  0  0
  188.9210  177.9060  145.8230 C   0  0  1  0  0  3  0  0  0  0  0  0
  185.2110  178.4530  146.0920 C   0  0  0  0  0  0  0  0  0  0  0  0
  184.7890  178.5670  144.6860 C   0  0  0  0  0  0  0  0  0  0  0  0
  184.0570  178.7710  141.9930 C   0  0  0  0  0  3  0  0  0  0  0  0
  187.4660  177.8040  145.3540 C   0  0  2  0  0  3  0  0  0  0  0  0
  183.0730  178.7440  142.9860 C   0  0  0  0  0  3  0  0  0  0  0  0
  183.4370  178.6450  144.3320 C   0  0  0  0  0  3  0  0  0  0  0  0
  187.2350  178.5830  144.0560 C   0  0  0  0  0  2  0  0  0  0  0  0
  184.3830  178.5910  147.0320 O   0  0  0  0  0  0  0  0  0  0  0  0
  185.4090  178.6980  142.3440 C   0  0  0  0  0  3  0  0  0  0  0  0
  186.5550  178.2120  146.3800 O   0  0  0  0  0  0  0  0  0  0  0  0
  185.7800  178.5850  143.6870 C   0  0  0  0  0  0  0  0  0  0  0  0
  189.1750  178.1260  148.5540 S   0  0  0  0  0  1  0  0  0  0  0  0
  189.2010  177.0760  147.0740 C   0  0  0  0  0  2  0  0  0  0  0  0
  2  3  1  0  0  0  0
  2  1  1  0  0  0  0
  3  1  1  0  0  0  0
  3 19  1  0  0  0  0
  4  8  1  0  0  0  0
  5  9  1  0  0  0  0
  6 11  1  0  0  0  0
  6 13  1  0  0  0  0
  8 11  2  0  0  0  0
  9  7  1  6  0  0  0
  9  3  1  0  0  0  0
 10  4  2  0  0  0  0
 10 12  1  0  0  0  0
 11  7  1  0  0  0  0
 12  6  2  0  0  0  0
 13  5  1  0  0  0  0
 14 16  1  0  0  0  0
 14  4  1  0  0  0  0
 15 17  1  0  0  0  0
 15 16  1  0  0  0  0
 18 15  2  0  0  0  0
 19 32  1  1  0  0  0
 20 29  1  0  0  0  0
 20 27  2  0  0  0  0
 21 20  1  0  0  0  0
 22 28  2  0  0  0  0
 22 24  1  0  0  0  0
 23 19  1  1  0  0  0
 23 29  1  0  0  0  0
 24 25  2  0  0  0  0
 25 21  1  0  0  0  0
 26 23  1  0  0  0  0
 28 30  1  0  0  0  0
 30 26  1  0  0  0  0
 30 21  2  0  0  0  0
 32 31  1  0  0  0  0
M  END
>  <MODEL>
3

>  <REMARK>
 VINA RESULT:      -9.1      2.437      3.771
  Name = 
  6 active torsions:
  status: ('A' for Active; 'I' for Inactive)
    1  A    between atoms: C_2  and  C_24
    2  A    between atoms: N_10  and  C_24
    3  A    between atoms: C_14  and  C_15
    4  A    between atoms: C_15  and  C_26
    5  A    between atoms: C_16  and  C_26
    6  A    between atoms: C_25  and  C_26
                            x       y       z     vdW  Elec       q    Type
                         _______ _______ _______ _____ _____    ______ ____

>  <TORSDO>
F 6

$$$$
=
 OpenBabel10272413403D

 32 36  0  0  1  0  0  0  0  0999 V2000
  182.3940  178.3200  140.4490 C   0  0  0  0  0  2  0  0  0  0  0  0
  183.4810  177.2600  140.5800 C   0  0  0  0  0  2  0  0  0  0  0  0
  183.6000  178.5710  141.3310 C   0  0  0  0  0  0  0  0  0  0  0  0
  188.7040  177.1930  139.1470 C   0  0  0  0  0  0  0  0  0  0  0  0
  184.5150  179.9080  139.4450 O   0  0  0  0  0  0  0  0  0  0  0  0
  186.1510  178.2740  138.7790 C   0  0  0  0  0  0  0  0  0  0  0  0
  186.1530  179.1830  141.1270 C   0  0  0  0  0  2  0  0  0  0  0  0
  188.0780  177.8800  140.1940 C   0  0  0  0  0  3  0  0  0  0  0  0
  184.6880  179.5420  140.8040 C   0  0  2  0  0  3  0  0  0  0  0  0
  188.0430  177.0320  137.9240 C   0  0  0  0  0  3  0  0  0  0  0  0
  186.7980  178.4130  140.0160 C   0  0  0  0  0  0  0  0  0  0  0  0
  186.7650  177.5690  137.7410 C   0  0  0  0  0  3  0  0  0  0  0  0
  184.7520  178.7870  138.6200 C   0  0  0  0  0  2  0  0  0  0  0  0
  190.0550  176.6030  139.3460 C   0  0  0  0  0  2  0  0  0  0  0  0
  191.6590  177.2380  141.1810 C   0  0  0  0  0  0  0  0  0  0  0  0
  190.4200  176.6760  140.7520 N   0  0  0  0  0  2  0  0  0  0  0  0
  191.9800  177.2870  142.6310 C   0  0  0  0  0  1  0  0  0  0  0  0
  192.4830  177.6930  140.3450 O   0  0  0  0  0  0  0  0  0  0  0  0
  183.3560  178.4130  142.8310 C   0  0  1  0  0  3  0  0  0  0  0  0
  185.4220  178.6920  145.9600 C   0  0  0  0  0  0  0  0  0  0  0  0
  186.7030  178.0810  145.5670 C   0  0  0  0  0  0  0  0  0  0  0  0
  189.1120  176.9130  144.7520 C   0  0  0  0  0  3  0  0  0  0  0  0
  184.6570  178.5680  143.6250 C   0  0  2  0  0  3  0  0  0  0  0  0
  189.0190  177.5220  146.0070 C   0  0  0  0  0  3  0  0  0  0  0  0
  187.8160  178.1040  146.4170 C   0  0  0  0  0  3  0  0  0  0  0  0
  185.5930  177.3750  143.4110 C   0  0  0  0  0  2  0  0  0  0  0  0
  185.2320  179.1030  147.1360 O   0  0  0  0  0  0  0  0  0  0  0  0
  188.0020  176.8850  143.9030 C   0  0  0  0  0  3  0  0  0  0  0  0
  184.3990  178.7890  145.0160 O   0  0  0  0  0  0  0  0  0  0  0  0
  186.7990  177.4760  144.3000 C   0  0  0  0  0  0  0  0  0  0  0  0
  180.7540  178.4130  143.7290 S   0  0  0  0  0  1  0  0  0  0  0  0
  182.2520  179.3510  143.3140 C   0  0  0  0  0  2  0  0  0  0  0  0
  1  2  1  0  0  0  0
  1  3  1  0  0  0  0
  2  3  1  0  0  0  0
  3 19  1  0  0  0  0
  4 14  1  0  0  0  0
  4  8  1  0  0  0  0
  5  9  1  0  0  0  0
  6 11  1  0  0  0  0
  9  7  1  6  0  0  0
  9  3  1  0  0  0  0
 10  4  2  0  0  0  0
 11  8  2  0  0  0  0
 11  7  1  0  0  0  0
 12 10  1  0  0  0  0
 12  6  2  0  0  0  0
 13  6  1  0  0  0  0
 13  5  1  0  0  0  0
 14 16  1  0  0  0  0
 15 17  1  0  0  0  0
 16 15  1  0  0  0  0
 18 15  2  0  0  0  0
 19 32  1  1  0  0  0
 20 27  2  0  0  0  0
 21 20  1  0  0  0  0
 21 25  1  0  0  0  0
 22 24  1  0  0  0  0
 23 19  1  6  0  0  0
 23 29  1  0  0  0  0
 24 25  2  0  0  0  0
 26 23  1  0  0  0  0
 26 30  1  0  0  0  0
 28 30  1  0  0  0  0
 28 22  2  0  0  0  0
 29 20  1  0  0  0  0
 30 21  2  0  0  0  0
 32 31  1  0  0  0  0
M  END
>  <MODEL>
4

>  <REMARK>
 VINA RESULT:      -8.6      2.693      4.872
  Name = 
  6 active torsions:
  status: ('A' for Active; 'I' for Inactive)
    1  A    between atoms: C_2  and  C_24
    2  A    between atoms: N_10  and  C_24
    3  A    between atoms: C_14  and  C_15
    4  A    between atoms: C_15  and  C_26
    5  A    between atoms: C_16  and  C_26
    6  A    between atoms: C_25  and  C_26
                            x       y       z     vdW  Elec       q    Type
                         _______ _______ _______ _____ _____    ______ ____

>  <TORSDO>
F 6

$$$$
=
 OpenBabel10272413403D

 32 36  0  0  1  0  0  0  0  0999 V2000
  190.1340  175.6110  142.8580 C   0  0  0  0  0  2  0  0  0  0  0  0
  191.5490  175.8340  143.3790 C   0  0  0  0  0  2  0  0  0  0  0  0
  190.5780  176.9950  143.2860 C   0  0  0  0  0  0  0  0  0  0  0  0
  192.5640  175.9310  138.0280 C   0  0  0  0  0  0  0  0  0  0  0  0
  189.7580  178.3620  141.3790 O   0  0  0  0  0  0  0  0  0  0  0  0
  190.4870  176.8320  139.6700 C   0  0  0  0  0  0  0  0  0  0  0  0
  192.1430  177.7730  141.3170 C   0  0  0  0  0  2  0  0  0  0  0  0
  192.8570  176.5900  139.2280 C   0  0  0  0  0  3  0  0  0  0  0  0
  190.8840  178.0280  142.1720 C   0  0  2  0  0  3  0  0  0  0  0  0
  191.2320  175.7080  137.6610 C   0  0  0  0  0  3  0  0  0  0  0  0
  191.8210  177.0320  140.0550 C   0  0  0  0  0  0  0  0  0  0  0  0
  190.1930  176.1550  138.4840 C   0  0  0  0  0  3  0  0  0  0  0  0
  189.3840  177.2470  140.5960 C   0  0  0  0  0  2  0  0  0  0  0  0
  193.6670  175.4370  137.1620 C   0  0  0  0  0  2  0  0  0  0  0  0
  195.4340  174.2820  138.5360 C   0  0  0  0  0  0  0  0  0  0  0  0
  194.9180  175.4510  137.9030 N   0  0  0  0  0  2  0  0  0  0  0  0
  196.7180  174.3540  139.2800 C   0  0  0  0  0  1  0  0  0  0  0  0
  194.8130  173.1880  138.4700 O   0  0  0  0  0  0  0  0  0  0  0  0
  190.0730  177.4490  144.6540 C   0  0  1  0  0  3  0  0  0  0  0  0
  186.6890  177.9560  143.0960 C   0  0  0  0  0  0  0  0  0  0  0  0
  185.8240  178.2160  144.2580 C   0  0  0  0  0  0  0  0  0  0  0  0
  184.2380  178.7080  146.5110 C   0  0  0  0  0  3  0  0  0  0  0  0
  188.6660  178.0470  144.5570 C   0  0  2  0  0  3  0  0  0  0  0  0
  183.6950  178.8420  145.2310 C   0  0  0  0  0  3  0  0  0  0  0  0
  184.4840  178.5940  144.1040 C   0  0  0  0  0  3  0  0  0  0  0  0
  187.7840  177.6070  145.7300 C   0  0  0  0  0  2  0  0  0  0  0  0
  186.2120  177.8980  141.9310 O   0  0  0  0  0  0  0  0  0  0  0  0
  185.5740  178.3250  146.6690 C   0  0  0  0  0  3  0  0  0  0  0  0
  188.0540  177.7450  143.2990 O   0  0  0  0  0  0  0  0  0  0  0  0
  186.3740  178.0890  145.5480 C   0  0  0  0  0  0  0  0  0  0  0  0
  191.2580  176.8030  147.0530 S   0  0  0  0  0  1  0  0  0  0  0  0
  190.1690  176.3230  145.6820 C   0  0  0  0  0  2  0  0  0  0  0  0
  1  3  1  0  0  0  0
  1  2  1  0  0  0  0
  3  2  1  0  0  0  0
  3 19  1  0  0  0  0
  4  8  1  0  0  0  0
  5  9  1  0  0  0  0
  6 11  1  0  0  0  0
  6 13  1  0  0  0  0
  8 11  2  0  0  0  0
  9  7  1  6  0  0  0
  9  3  1  0  0  0  0
 10  4  2  0  0  0  0
 10 12  1  0  0  0  0
 11  7  1  0  0  0  0
 12  6  2  0  0  0  0
 13  5  1  0  0  0  0
 14 16  1  0  0  0  0
 14  4  1  0  0  0  0
 15 17  1  0  0  0  0
 16 15  1  0  0  0  0
 18 15  2  0  0  0  0
 19 32  1  1  0  0  0
 20 29  1  0  0  0  0
 20 21  1  0  0  0  0
 21 30  1  0  0  0  0
 22 28  1  0  0  0  0
 23 19  1  6  0  0  0
 23 26  1  0  0  0  0
 24 22  2  0  0  0  0
 25 21  2  0  0  0  0
 25 24  1  0  0  0  0
 27 20  2  0  0  0  0
 29 23  1  0  0  0  0
 30 26  1  0  0  0  0
 30 28  2  0  0  0  0
 32 31  1  0  0  0  0
M  END
>  <MODEL>
5

>  <REMARK>
 VINA RESULT:      -8.4      1.696      2.343
  Name = 
  6 active torsions:
  status: ('A' for Active; 'I' for Inactive)
    1  A    between atoms: C_2  and  C_24
    2  A    between atoms: N_10  and  C_24
    3  A    between atoms: C_14  and  C_15
    4  A    between atoms: C_15  and  C_26
    5  A    between atoms: C_16  and  C_26
    6  A    between atoms: C_25  and  C_26
                            x       y       z     vdW  Elec       q    Type
                         _______ _______ _______ _____ _____    ______ ____

>  <TORSDO>
F 6

$$$$
=
 OpenBabel10272413403D

 32 36  0  0  1  0  0  0  0  0999 V2000
  182.2760  176.1460  139.8970 C   0  0  0  0  0  2  0  0  0  0  0  0
  181.0690  176.6390  139.1090 C   0  0  0  0  0  2  0  0  0  0  0  0
  182.4220  177.2980  138.9240 C   0  0  0  0  0  0  0  0  0  0  0  0
  184.4120  178.7420  144.0880 C   0  0  0  0  0  0  0  0  0  0  0  0
  183.7630  179.3760  139.1700 O   0  0  0  0  0  0  0  0  0  0  0  0
  184.7020  178.7900  141.3070 C   0  0  0  0  0  0  0  0  0  0  0  0
  182.2040  178.8920  141.0070 C   0  0  0  0  0  2  0  0  0  0  0  0
  183.2790  178.7870  143.2670 C   0  0  0  0  0  3  0  0  0  0  0  0
  182.5520  178.7250  139.5130 C   0  0  2  0  0  3  0  0  0  0  0  0
  185.6880  178.7020  143.5150 C   0  0  0  0  0  3  0  0  0  0  0  0
  183.4210  178.8010  141.8770 C   0  0  0  0  0  0  0  0  0  0  0  0
  185.8340  178.7210  142.1250 C   0  0  0  0  0  3  0  0  0  0  0  0
  184.8430  178.7340  139.8160 C   0  0  0  0  0  2  0  0  0  0  0  0
  184.2590  178.7000  145.5670 C   0  0  0  0  0  2  0  0  0  0  0  0
  186.2450  178.7360  147.1160 C   0  0  0  0  0  0  0  0  0  0  0  0
  185.4230  178.0640  146.1630 N   0  0  0  0  0  2  0  0  0  0  0  0
  187.4220  178.0360  147.6930 C   0  0  0  0  0  1  0  0  0  0  0  0
  185.9820  179.9140  147.4740 O   0  0  0  0  0  0  0  0  0  0  0  0
  183.0690  176.9440  137.5850 C   0  0  1  0  0  3  0  0  0  0  0  0
  184.4860  173.4720  137.3220 C   0  0  0  0  0  0  0  0  0  0  0  0
  185.9260  173.7140  137.1340 C   0  0  0  0  0  0  0  0  0  0  0  0
  188.6510  174.2470  136.7850 C   0  0  0  0  0  3  0  0  0  0  0  0
  184.1470  175.8700  137.7550 C   0  0  2  0  0  3  0  0  0  0  0  0
  188.2110  172.9310  136.9540 C   0  0  0  0  0  3  0  0  0  0  0  0
  186.8500  172.6620  137.1260 C   0  0  0  0  0  3  0  0  0  0  0  0
  185.3820  176.1690  136.9000 C   0  0  0  0  0  2  0  0  0  0  0  0
  184.0170  172.3020  137.3120 O   0  0  0  0  0  0  0  0  0  0  0  0
  187.7300  175.2990  136.7880 C   0  0  0  0  0  3  0  0  0  0  0  0
  183.6300  174.5620  137.4890 O   0  0  0  0  0  0  0  0  0  0  0  0
  186.3690  175.0400  136.9730 C   0  0  0  0  0  0  0  0  0  0  0  0
  181.4920  178.0350  135.6100 S   0  0  0  0  0  1  0  0  0  0  0  0
  182.0170  176.5690  136.5440 C   0  0  0  0  0  2  0  0  0  0  0  0
  2  1  1  0  0  0  0
  3  2  1  0  0  0  0
  3  1  1  0  0  0  0
  4 14  1  0  0  0  0
  5  9  1  0  0  0  0
  5 13  1  0  0  0  0
  6 11  2  0  0  0  0
  6 12  1  0  0  0  0
  7 11  1  0  0  0  0
  8  4  2  0  0  0  0
  9  3  1  1  0  0  0
  9  7  1  0  0  0  0
 10  4  1  0  0  0  0
 11  8  1  0  0  0  0
 12 10  2  0  0  0  0
 13  6  1  0  0  0  0
 14 16  1  0  0  0  0
 15 18  2  0  0  0  0
 15 17  1  0  0  0  0
 16 15  1  0  0  0  0
 19 32  1  6  0  0  0
 19  3  1  0  0  0  0
 20 29  1  0  0  0  0
 21 20  1  0  0  0  0
 22 28  2  0  0  0  0
 22 24  1  0  0  0  0
 23 19  1  6  0  0  0
 24 25  2  0  0  0  0
 25 21  1  0  0  0  0
 26 30  1  0  0  0  0
 26 23  1  0  0  0  0
 27 20  2  0  0  0  0
 28 30  1  0  0  0  0
 29 23  1  0  0  0  0
 30 21  2  0  0  0  0
 31 32  1  0  0  0  0
M  END
>  <MODEL>
6

>  <REMARK>
 VINA RESULT:      -8.3      5.122      9.543
  Name = 
  6 active torsions:
  status: ('A' for Active; 'I' for Inactive)
    1  A    between atoms: C_2  and  C_24
    2  A    between atoms: N_10  and  C_24
    3  A    between atoms: C_14  and  C_15
    4  A    between atoms: C_15  and  C_26
    5  A    between atoms: C_16  and  C_26
    6  A    between atoms: C_25  and  C_26
                            x       y       z     vdW  Elec       q    Type
                         _______ _______ _______ _____ _____    ______ ____

>  <TORSDO>
F 6

$$$$
=
 OpenBabel10272413403D

 32 36  0  0  1  0  0  0  0  0999 V2000
  190.0190  175.5330  142.5200 C   0  0  0  0  0  2  0  0  0  0  0  0
  188.9070  176.4280  141.9880 C   0  0  0  0  0  2  0  0  0  0  0  0
  190.3570  176.8390  141.8290 C   0  0  0  0  0  0  0  0  0  0  0  0
  188.9510  177.8170  147.2860 C   0  0  0  0  0  0  0  0  0  0  0  0
  192.0530  177.8090  143.3650 O   0  0  0  0  0  0  0  0  0  0  0  0
  190.9090  177.1930  145.3900 C   0  0  0  0  0  0  0  0  0  0  0  0
  189.7550  178.6240  143.6680 C   0  0  0  0  0  2  0  0  0  0  0  0
  188.8620  178.3420  145.9920 C   0  0  0  0  0  3  0  0  0  0  0  0
  190.8110  178.0250  142.7170 C   0  0  2  0  0  3  0  0  0  0  0  0
  190.0080  176.9660  147.6240 C   0  0  0  0  0  3  0  0  0  0  0  0
  189.8340  178.0240  145.0390 C   0  0  0  0  0  0  0  0  0  0  0  0
  190.9850  176.6500  146.6750 C   0  0  0  0  0  3  0  0  0  0  0  0
  191.9070  176.8010  144.3430 C   0  0  0  0  0  2  0  0  0  0  0  0
  187.9010  178.1350  148.2920 C   0  0  0  0  0  2  0  0  0  0  0  0
  185.6980  178.7840  147.2570 C   0  0  0  0  0  0  0  0  0  0  0  0
  186.5910  177.7920  147.7600 N   0  0  0  0  0  2  0  0  0  0  0  0
  184.3720  178.3760  146.7240 C   0  0  0  0  0  1  0  0  0  0  0  0
  186.0220  180.0010  147.2580 O   0  0  0  0  0  0  0  0  0  0  0  0
  190.8510  176.7070  140.3890 C   0  0  1  0  0  3  0  0  0  0  0  0
  189.0350  178.7290  137.7910 C   0  0  0  0  0  0  0  0  0  0  0  0
  188.4030  177.6980  136.9500 C   0  0  0  0  0  0  0  0  0  0  0  0
  187.2280  175.6880  135.3980 C   0  0  0  0  0  3  0  0  0  0  0  0
  189.7260  176.9900  139.3880 C   0  0  2  0  0  3  0  0  0  0  0  0
  186.9200  177.0300  135.1550 C   0  0  0  0  0  3  0  0  0  0  0  0
  187.5080  178.0360  135.9270 C   0  0  0  0  0  3  0  0  0  0  0  0
  189.7240  175.9750  138.2410 C   0  0  0  0  0  2  0  0  0  0  0  0
  188.9260  179.9520  137.5100 O   0  0  0  0  0  0  0  0  0  0  0  0
  188.1250  175.3480  136.4160 C   0  0  0  0  0  3  0  0  0  0  0  0
  189.7870  178.3340  138.8990 O   0  0  0  0  0  0  0  0  0  0  0  0
  188.7070  176.3470  137.2010 C   0  0  0  0  0  0  0  0  0  0  0  0
  193.2060  176.7590  138.9670 S   0  0  0  0  0  1  0  0  0  0  0  0
  192.0900  177.5670  140.1480 C   0  0  0  0  0  2  0  0  0  0  0  0
  2  1  1  0  0  0  0
  3  2  1  0  0  0  0
  3  1  1  0  0  0  0
  4 10  1  0  0  0  0
  4 14  1  0  0  0  0
  5 13  1  0  0  0  0
  6 12  1  0  0  0  0
  7 11  1  0  0  0  0
  8  4  2  0  0  0  0
  9  3  1  1  0  0  0
  9  5  1  0  0  0  0
  9  7  1  0  0  0  0
 11  6  2  0  0  0  0
 11  8  1  0  0  0  0
 12 10  2  0  0  0  0
 13  6  1  0  0  0  0
 15 18  2  0  0  0  0
 15 16  1  0  0  0  0
 16 14  1  0  0  0  0
 17 15  1  0  0  0  0
 19 32  1  6  0  0  0
 19  3  1  0  0  0  0
 20 29  1  0  0  0  0
 21 30  1  0  0  0  0
 21 20  1  0  0  0  0
 22 28  1  0  0  0  0
 23 19  1  1  0  0  0
 24 22  2  0  0  0  0
 24 25  1  0  0  0  0
 25 21  2  0  0  0  0
 26 23  1  0  0  0  0
 27 20  2  0  0  0  0
 28 30  2  0  0  0  0
 29 23  1  0  0  0  0
 30 26  1  0  0  0  0
 31 32  1  0  0  0  0
M  END
>  <MODEL>
7

>  <REMARK>
 VINA RESULT:      -8.3      3.668      8.360
  Name = 
  6 active torsions:
  status: ('A' for Active; 'I' for Inactive)
    1  A    between atoms: C_2  and  C_24
    2  A    between atoms: N_10  and  C_24
    3  A    between atoms: C_14  and  C_15
    4  A    between atoms: C_15  and  C_26
    5  A    between atoms: C_16  and  C_26
    6  A    between atoms: C_25  and  C_26
                            x       y       z     vdW  Elec       q    Type
                         _______ _______ _______ _____ _____    ______ ____

>  <TORSDO>
F 6

$$$$
=
 OpenBabel10272413403D

 32 36  0  0  1  0  0  0  0  0999 V2000
  188.2880  176.0690  142.6170 C   0  0  0  0  0  2  0  0  0  0  0  0
  189.5700  175.7020  143.3540 C   0  0  0  0  0  2  0  0  0  0  0  0
  189.1180  177.1470  143.2820 C   0  0  0  0  0  0  0  0  0  0  0  0
  189.9110  176.6450  137.6400 C   0  0  0  0  0  0  0  0  0  0  0  0
  189.2720  179.2010  141.8910 O   0  0  0  0  0  0  0  0  0  0  0  0
  188.8670  178.0880  139.7960 C   0  0  0  0  0  0  0  0  0  0  0  0
  190.7870  177.3720  141.2580 C   0  0  0  0  0  2  0  0  0  0  0  0
  190.5730  176.6380  138.8730 C   0  0  0  0  0  3  0  0  0  0  0  0
  189.9710  178.0650  142.3700 C   0  0  2  0  0  3  0  0  0  0  0  0
  188.7160  177.3590  137.4930 C   0  0  0  0  0  3  0  0  0  0  0  0
  190.0480  177.3500  139.9550 C   0  0  0  0  0  0  0  0  0  0  0  0
  188.1910  178.0770  138.5720 C   0  0  0  0  0  3  0  0  0  0  0  0
  188.2740  178.7910  140.9790 C   0  0  0  0  0  2  0  0  0  0  0  0
  190.4560  175.8640  136.4970 C   0  0  0  0  0  2  0  0  0  0  0  0
  189.2570  173.6490  136.4380 C   0  0  0  0  0  0  0  0  0  0  0  0
  189.4250  174.9850  135.9670 N   0  0  0  0  0  2  0  0  0  0  0  0
  188.1860  172.7960  135.8600 C   0  0  0  0  0  1  0  0  0  0  0  0
  190.0040  173.1860  137.3400 O   0  0  0  0  0  0  0  0  0  0  0  0
  188.5760  177.6600  144.6160 C   0  0  1  0  0  3  0  0  0  0  0  0
  185.1840  178.5320  145.9840 C   0  0  0  0  0  0  0  0  0  0  0  0
  184.3520  178.6270  144.7730 C   0  0  0  0  0  0  0  0  0  0  0  0
  182.8280  178.7840  142.4320 C   0  0  0  0  0  3  0  0  0  0  0  0
  187.0440  177.6640  144.6280 C   0  0  2  0  0  3  0  0  0  0  0  0
  182.2060  178.8820  143.6790 C   0  0  0  0  0  3  0  0  0  0  0  0
  182.9650  178.8060  144.8500 C   0  0  0  0  0  3  0  0  0  0  0  0
  186.4720  178.4080  143.4180 C   0  0  0  0  0  2  0  0  0  0  0  0
  184.7040  178.7790  147.1230 O   0  0  0  0  0  0  0  0  0  0  0  0
  184.2130  178.6100  142.3510 C   0  0  0  0  0  3  0  0  0  0  0  0
  186.5310  178.1890  145.8570 O   0  0  0  0  0  0  0  0  0  0  0  0
  184.9780  178.5200  143.5170 C   0  0  0  0  0  0  0  0  0  0  0  0
  189.9420  178.0320  146.9760 S   0  0  0  0  0  1  0  0  0  0  0  0
  189.1760  176.8900  145.7900 C   0  0  0  0  0  2  0  0  0  0  0  0
  1  3  1  0  0  0  0
  1  2  1  0  0  0  0
  3  2  1  0  0  0  0
  3 19  1  0  0  0  0
  4  8  1  0  0  0  0
  5  9  1  0  0  0  0
  6 11  1  0  0  0  0
  6 13  1  0  0  0  0
  8 11  2  0  0  0  0
  9  7  1  6  0  0  0
  9  3  1  0  0  0  0
 10  4  2  0  0  0  0
 10 12  1  0  0  0  0
 11  7  1  0  0  0  0
 12  6  2  0  0  0  0
 13  5  1  0  0  0  0
 14  4  1  0  0  0  0
 15 18  2  0  0  0  0
 16 15  1  0  0  0  0
 16 14  1  0  0  0  0
 17 15  1  0  0  0  0
 19 32  1  1  0  0  0
 20 27  2  0  0  0  0
 21 25  1  0  0  0  0
 21 20  1  0  0  0  0
 22 24  1  0  0  0  0
 23 19  1  1  0  0  0
 23 29  1  0  0  0  0
 24 25  2  0  0  0  0
 26 30  1  0  0  0  0
 26 23  1  0  0  0  0
 28 22  2  0  0  0  0
 28 30  1  0  0  0  0
 29 20  1  0  0  0  0
 30 21  2  0  0  0  0
 32 31  1  0  0  0  0
M  END
>  <MODEL>
8

>  <REMARK>
 VINA RESULT:      -8.2      1.656      2.018
  Name = 
  6 active torsions:
  status: ('A' for Active; 'I' for Inactive)
    1  A    between atoms: C_2  and  C_24
    2  A    between atoms: N_10  and  C_24
    3  A    between atoms: C_14  and  C_15
    4  A    between atoms: C_15  and  C_26
    5  A    between atoms: C_16  and  C_26
    6  A    between atoms: C_25  and  C_26
                            x       y       z     vdW  Elec       q    Type
                         _______ _______ _______ _____ _____    ______ ____

>  <TORSDO>
F 6

$$$$
=
 OpenBabel10272413403D

 32 36  0  0  1  0  0  0  0  0999 V2000
  189.0030  176.7410  141.5940 C   0  0  0  0  0  2  0  0  0  0  0  0
  189.3470  178.1080  142.1720 C   0  0  0  0  0  2  0  0  0  0  0  0
  188.1650  177.9510  141.2360 C   0  0  0  0  0  0  0  0  0  0  0  0
  190.9840  175.6650  136.8160 C   0  0  0  0  0  0  0  0  0  0  0  0
  187.2840  178.2770  138.9350 O   0  0  0  0  0  0  0  0  0  0  0  0
  188.5650  176.4970  137.9450 C   0  0  0  0  0  0  0  0  0  0  0  0
  189.7290  178.3700  139.1600 C   0  0  0  0  0  2  0  0  0  0  0  0
  190.9590  176.7590  137.6880 C   0  0  0  0  0  3  0  0  0  0  0  0
  188.3500  178.5630  139.8240 C   0  0  2  0  0  3  0  0  0  0  0  0
  189.8010  174.9770  136.5250 C   0  0  0  0  0  3  0  0  0  0  0  0
  189.7530  177.1710  138.2620 C   0  0  0  0  0  0  0  0  0  0  0  0
  188.5920  175.3890  137.0930 C   0  0  0  0  0  3  0  0  0  0  0  0
  187.2880  176.9010  138.6190 C   0  0  0  0  0  2  0  0  0  0  0  0
  192.2730  175.2110  136.2280 C   0  0  0  0  0  2  0  0  0  0  0  0
  194.4200  174.8610  137.4960 C   0  0  0  0  0  0  0  0  0  0  0  0
  193.0590  174.5220  137.2390 N   0  0  0  0  0  2  0  0  0  0  0  0
  195.1760  174.1240  138.5430 C   0  0  0  0  0  1  0  0  0  0  0  0
  194.9880  175.7790  136.8480 O   0  0  0  0  0  0  0  0  0  0  0  0
  186.8240  178.0550  141.9620 C   0  0  1  0  0  3  0  0  0  0  0  0
  185.6800  178.6780  145.4890 C   0  0  0  0  0  0  0  0  0  0  0  0
  186.8020  178.1720  146.2960 C   0  0  0  0  0  0  0  0  0  0  0  0
  188.9730  177.1990  147.7690 C   0  0  0  0  0  3  0  0  0  0  0  0
  187.0190  178.3690  143.4490 C   0  0  2  0  0  3  0  0  0  0  0  0
  187.9250  177.8560  148.4190 C   0  0  0  0  0  3  0  0  0  0  0  0
  186.8380  178.3400  147.6860 C   0  0  0  0  0  3  0  0  0  0  0  0
  187.7990  177.2610  144.1620 C   0  0  0  0  0  2  0  0  0  0  0  0
  184.6360  179.1250  146.0360 O   0  0  0  0  0  0  0  0  0  0  0  0
  188.9380  177.0250  146.3820 C   0  0  0  0  0  3  0  0  0  0  0  0
  185.7700  178.6320  144.0970 O   0  0  0  0  0  0  0  0  0  0  0  0
  187.8620  177.5180  145.6400 C   0  0  0  0  0  0  0  0  0  0  0  0
  184.2470  178.3110  141.0290 S   0  0  0  0  0  1  0  0  0  0  0  0
  185.8920  179.0430  141.2640 C   0  0  0  0  0  2  0  0  0  0  0  0
  1  2  1  0  0  0  0
  3  1  1  0  0  0  0
  3 19  1  0  0  0  0
  3  2  1  0  0  0  0
  4  8  1  0  0  0  0
  5  9  1  0  0  0  0
  6 11  1  0  0  0  0
  6 13  1  0  0  0  0
  8 11  2  0  0  0  0
  9  7  1  6  0  0  0
  9  3  1  0  0  0  0
 10  4  2  0  0  0  0
 10 12  1  0  0  0  0
 11  7  1  0  0  0  0
 12  6  2  0  0  0  0
 13  5  1  0  0  0  0
 14  4  1  0  0  0  0
 14 16  1  0  0  0  0
 15 17  1  0  0  0  0
 16 15  1  0  0  0  0
 18 15  2  0  0  0  0
 19 32  1  6  0  0  0
 20 27  2  0  0  0  0
 20 21  1  0  0  0  0
 21 25  1  0  0  0  0
 22 24  1  0  0  0  0
 23 19  1  6  0  0  0
 23 29  1  0  0  0  0
 23 26  1  0  0  0  0
 25 24  2  0  0  0  0
 26 30  1  0  0  0  0
 28 22  2  0  0  0  0
 29 20  1  0  0  0  0
 30 21  2  0  0  0  0
 30 28  1  0  0  0  0
 31 32  1  0  0  0  0
M  END
>  <MODEL>
9

>  <REMARK>
 VINA RESULT:      -8.0      2.210      3.594
  Name = 
  6 active torsions:
  status: ('A' for Active; 'I' for Inactive)
    1  A    between atoms: C_2  and  C_24
    2  A    between atoms: N_10  and  C_24
    3  A    between atoms: C_14  and  C_15
    4  A    between atoms: C_15  and  C_26
    5  A    between atoms: C_16  and  C_26
    6  A    between atoms: C_25  and  C_26
                            x       y       z     vdW  Elec       q    Type
                         _______ _______ _______ _____ _____    ______ ____

>  <TORSDO>
F 6

$$$$
