=
 OpenBabel10272413393D

 32 36  0  0  1  0  0  0  0  0999 V2000
  191.4770  174.5400  137.1980 C   0  0  0  0  0  0  0  0  0  0  0  0
  195.4240  173.0530  138.4900 C   0  0  1  0  0  3  0  0  0  0  0  0
  196.2250  170.8290  137.6620 C   0  0  0  0  0  0  0  0  0  0  0  0
  197.0700  170.0300  136.7540 C   0  0  0  0  0  0  0  0  0  0  0  0
  193.9700  172.7240  136.3690 C   0  0  0  0  0  2  0  0  0  0  0  0
  194.8700  175.4050  138.7490 N   0  0  0  0  0  2  0  0  0  0  0  0
  198.6790  168.5710  135.0440 N   0  0  0  0  0  0  0  0  0  0  0  0
  192.5640  175.3270  137.9040 C   0  0  0  0  0  2  0  0  0  0  0  0
  195.9220  174.4200  138.9830 C   0  0  2  0  0  3  0  0  0  0  0  0
  197.2570  174.9250  138.4190 C   0  0  2  0  0  3  0  0  0  0  0  0
  197.6070  172.8270  137.1070 C   0  0  2  0  0  3  0  0  0  0  0  0
  197.8610  167.9130  135.9090 C   0  0  0  0  0  3  0  0  0  0  0  0
  191.6850  173.7500  136.1250 C   0  0  0  0  0  3  0  0  0  0  0  0
  194.0050  174.8480  137.7180 C   0  0  2  0  0  3  0  0  0  0  0  0
  197.0390  168.6320  136.7790 C   0  0  0  0  0  3  0  0  0  0  0  0
  193.0100  173.5080  135.4670 C   0  0  0  0  0  2  0  0  0  0  0  0
  197.5920  174.3570  137.0440 C   0  0  1  0  0  3  0  0  0  0  0  0
  197.9340  172.1830  135.7560 C   0  0  0  0  0  2  0  0  0  0  0  0
  194.1110  173.3370  137.7700 C   0  0  2  0  0  3  0  0  0  0  0  0
  195.3630  170.2620  138.3880 O   0  0  0  0  0  0  0  0  0  0  0  0
  198.7250  169.9300  134.9980 C   0  0  0  0  0  3  0  0  0  0  0  0
  196.3850  172.2590  137.7010 N   0  0  0  0  0  0  0  0  0  0  0  0
  197.9300  170.6880  135.8600 C   0  0  0  0  0  0  0  0  0  0  0  0
  197.9700  175.3680  140.4670 C   0  0  0  0  0  1  0  0  0  0  0  0
  198.2870  174.6390  139.3190 O   0  0  0  0  0  0  0  0  0  0  0  0
  197.4290  175.8120  135.0200 C   0  0  0  0  0  1  0  0  0  0  0  0
  196.6600  174.9220  135.9750 C   0  0  0  0  0  2  0  0  0  0  0  0
  190.1840  174.6860  137.7140 O   0  0  0  0  0  0  0  0  0  0  0  0
  189.1010  175.2330  136.9680 C   0  0  0  0  0  2  0  0  0  0  0  0
  189.3020  176.6990  136.7990 C   0  0  0  0  0  0  0  0  0  0  0  0
  189.3620  177.2910  135.4330 C   0  0  0  0  0  1  0  0  0  0  0  0
  189.4520  177.4120  137.7770 O   0  0  0  0  0  0  0  0  0  0  0  0
  1 28  1  0  0  0  0
  1  8  1  0  0  0  0
  2 22  1  6  0  0  0
  2  9  1  0  0  0  0
  3 22  1  0  0  0  0
  3 20  2  0  0  0  0
  4 15  1  0  0  0  0
  4  3  1  0  0  0  0
  7 12  1  0  0  0  0
  9  6  1  6  0  0  0
 10  9  1  0  0  0  0
 10 25  1  1  0  0  0
 11 18  1  6  0  0  0
 11 22  1  0  0  0  0
 12 15  2  0  0  0  0
 13  1  2  0  0  0  0
 14 19  1  0  0  0  0
 14  8  1  1  0  0  0
 14  6  1  0  0  0  0
 16 13  1  0  0  0  0
 16  5  1  0  0  0  0
 17 27  1  6  0  0  0
 17 11  1  0  0  0  0
 17 10  1  0  0  0  0
 18 23  1  0  0  0  0
 19  5  1  6  0  0  0
 19  2  1  0  0  0  0
 21  7  2  0  0  0  0
 21 23  1  0  0  0  0
 23  4  2  0  0  0  0
 25 24  1  0  0  0  0
 26 27  1  0  0  0  0
 29 28  1  0  0  0  0
 30 29  1  0  0  0  0
 30 32  2  0  0  0  0
 31 30  1  0  0  0  0
M  END
>  <MODEL>
1

>  <REMARK>
 VINA RESULT:      -4.9      0.000      0.000
  Name = 
  5 active torsions:
  status: ('A' for Active; 'I' for Inactive)
    1  A    between atoms: C_1  and  C_10
    2  A    between atoms: C_2  and  O_24
    3  A    between atoms: C_10  and  O_24
    4  A    between atoms: O_13  and  C_15
    5  A    between atoms: C_25  and  C_26
                            x       y       z     vdW  Elec       q    Type
                         _______ _______ _______ _____ _____    ______ ____

>  <TORSDO>
F 5

$$$$
=
 OpenBabel10272413393D

 32 36  0  0  1  0  0  0  0  0999 V2000
  187.3740  175.6700  136.6400 C   0  0  0  0  0  0  0  0  0  0  0  0
  183.4200  176.5550  138.3840 C   0  0  1  0  0  3  0  0  0  0  0  0
  182.6080  178.9240  138.4350 C   0  0  0  0  0  0  0  0  0  0  0  0
  181.7590  179.9970  137.8860 C   0  0  0  0  0  0  0  0  0  0  0  0
  184.8720  177.6510  136.5370 C   0  0  0  0  0  2  0  0  0  0  0  0
  183.9860  174.2760  137.7560 N   0  0  0  0  0  2  0  0  0  0  0  0
  180.1410  181.9780  136.8330 N   0  0  0  0  0  0  0  0  0  0  0  0
  186.2910  174.6720  137.0030 C   0  0  0  0  0  2  0  0  0  0  0  0
  182.9290  175.1000  138.3360 C   0  0  2  0  0  3  0  0  0  0  0  0
  181.5970  174.8340  137.6230 C   0  0  2  0  0  3  0  0  0  0  0  0
  181.2360  177.2660  137.1780 C   0  0  2  0  0  3  0  0  0  0  0  0
  180.9570  182.2730  137.8820 C   0  0  0  0  0  3  0  0  0  0  0  0
  187.1620  176.7990  135.9350 C   0  0  0  0  0  3  0  0  0  0  0  0
  184.8470  175.1790  137.0050 C   0  0  2  0  0  3  0  0  0  0  0  0
  181.7830  181.2880  138.4260 C   0  0  0  0  0  3  0  0  0  0  0  0
  185.8360  177.2620  135.4100 C   0  0  0  0  0  2  0  0  0  0  0  0
  181.2580  175.8670  136.5540 C   0  0  1  0  0  3  0  0  0  0  0  0
  180.9050  178.3620  136.1610 C   0  0  0  0  0  2  0  0  0  0  0  0
  184.7340  176.5640  137.6120 C   0  0  2  0  0  3  0  0  0  0  0  0
  183.4670  179.1860  139.3210 O   0  0  0  0  0  0  0  0  0  0  0  0
  180.1020  180.7320  136.2880 C   0  0  0  0  0  3  0  0  0  0  0  0
  182.4550  177.5800  137.9420 N   0  0  0  0  0  0  0  0  0  0  0  0
  180.9010  179.7130  136.8100 C   0  0  0  0  0  0  0  0  0  0  0  0
  179.9820  173.5090  138.3580 C   0  0  0  0  0  1  0  0  0  0  0  0
  180.5650  174.7610  138.5630 O   0  0  0  0  0  0  0  0  0  0  0  0
  182.0060  174.4000  134.6770 C   0  0  0  0  0  1  0  0  0  0  0  0
  182.1930  175.7420  135.3540 C   0  0  0  0  0  2  0  0  0  0  0  0
  188.6680  175.3500  137.0670 O   0  0  0  0  0  0  0  0  0  0  0  0
  189.7480  176.2770  137.0530 C   0  0  0  0  0  2  0  0  0  0  0  0
  190.2750  176.4500  138.4360 C   0  0  0  0  0  0  0  0  0  0  0  0
  189.9230  177.6670  139.2210 C   0  0  0  0  0  1  0  0  0  0  0  0
  191.0240  175.6150  138.9130 O   0  0  0  0  0  0  0  0  0  0  0  0
  1  8  1  0  0  0  0
  1 28  1  0  0  0  0
  2 22  1  6  0  0  0
  3 20  2  0  0  0  0
  4 15  1  0  0  0  0
  4  3  1  0  0  0  0
  7 12  1  0  0  0  0
  9  6  1  6  0  0  0
  9  2  1  0  0  0  0
 10  9  1  0  0  0  0
 10 25  1  1  0  0  0
 11 18  1  6  0  0  0
 11 22  1  0  0  0  0
 12 15  2  0  0  0  0
 13  1  2  0  0  0  0
 14  8  1  1  0  0  0
 14 19  1  0  0  0  0
 14  6  1  0  0  0  0
 16 13  1  0  0  0  0
 16  5  1  0  0  0  0
 17 27  1  6  0  0  0
 17 11  1  0  0  0  0
 17 10  1  0  0  0  0
 18 23  1  0  0  0  0
 19  5  1  6  0  0  0
 19  2  1  0  0  0  0
 21 23  1  0  0  0  0
 21  7  2  0  0  0  0
 22  3  1  0  0  0  0
 23  4  2  0  0  0  0
 24 25  1  0  0  0  0
 26 27  1  0  0  0  0
 29 28  1  0  0  0  0
 29 30  1  0  0  0  0
 30 32  2  0  0  0  0
 30 31  1  0  0  0  0
M  END
>  <MODEL>
2

>  <REMARK>
 VINA RESULT:      -4.8      7.726     14.181
  Name = 
  5 active torsions:
  status: ('A' for Active; 'I' for Inactive)
    1  A    between atoms: C_1  and  C_10
    2  A    between atoms: C_2  and  O_24
    3  A    between atoms: C_10  and  O_24
    4  A    between atoms: O_13  and  C_15
    5  A    between atoms: C_25  and  C_26
                            x       y       z     vdW  Elec       q    Type
                         _______ _______ _______ _____ _____    ______ ____

>  <TORSDO>
F 5

$$$$
=
 OpenBabel10272413393D

 32 36  0  0  1  0  0  0  0  0999 V2000
  183.1890  178.1040  140.6940 C   0  0  0  0  0  0  0  0  0  0  0  0
  185.0350  175.8130  137.4070 C   0  0  1  0  0  3  0  0  0  0  0  0
  184.2840  173.4610  136.9830 C   0  0  0  0  0  0  0  0  0  0  0  0
  183.4980  172.4910  136.1990 C   0  0  0  0  0  0  0  0  0  0  0  0
  182.7080  175.7860  138.5510 C   0  0  0  0  0  2  0  0  0  0  0  0
  185.2640  178.2310  137.4780 N   0  0  0  0  0  2  0  0  0  0  0  0
  182.0190  170.7040  134.6930 N   0  0  0  0  0  0  0  0  0  0  0  0
  184.0730  178.6450  139.5870 C   0  0  0  0  0  2  0  0  0  0  0  0
  185.6320  177.0450  136.7110 C   0  0  2  0  0  3  0  0  0  0  0  0
  185.2920  177.2450  135.2280 C   0  0  2  0  0  3  0  0  0  0  0  0
  183.9980  175.1100  135.1360 C   0  0  2  0  0  3  0  0  0  0  0  0
  182.7310  170.2460  135.7590 C   0  0  0  0  0  3  0  0  0  0  0  0
  182.1420  177.2790  140.4960 C   0  0  0  0  0  3  0  0  0  0  0  0
  184.0990  177.8640  138.2710 C   0  0  2  0  0  3  0  0  0  0  0  0
  183.4820  171.1320  136.5320 C   0  0  0  0  0  3  0  0  0  0  0  0
  181.6880  176.7510  139.1690 C   0  0  0  0  0  2  0  0  0  0  0  0
  183.9710  176.6060  134.8130 C   0  0  1  0  0  3  0  0  0  0  0  0
  182.6980  174.3980  134.7490 C   0  0  0  0  0  2  0  0  0  0  0  0
  184.1290  176.3670  138.5010 C   0  0  2  0  0  3  0  0  0  0  0  0
  184.8550  173.1000  138.0490 O   0  0  0  0  0  0  0  0  0  0  0  0
  182.0150  172.0210  134.3510 C   0  0  0  0  0  3  0  0  0  0  0  0
  184.3820  174.8240  136.5290 N   0  0  0  0  0  0  0  0  0  0  0  0
  182.7630  172.9400  135.0890 C   0  0  0  0  0  0  0  0  0  0  0  0
  187.4710  177.4290  134.8780 C   0  0  0  0  0  1  0  0  0  0  0  0
  186.3330  176.7520  134.4350 O   0  0  0  0  0  0  0  0  0  0  0  0
  181.9990  178.0660  134.3470 C   0  0  0  0  0  1  0  0  0  0  0  0
  182.7860  177.3490  135.4240 C   0  0  0  0  0  2  0  0  0  0  0  0
  183.5040  178.5300  141.9900 O   0  0  0  0  0  0  0  0  0  0  0  0
  184.8380  178.6880  142.4600 C   0  0  0  0  0  2  0  0  0  0  0  0
  184.8770  178.4770  143.9340 C   0  0  0  0  0  0  0  0  0  0  0  0
  183.6840  178.8020  144.7650 C   0  0  0  0  0  1  0  0  0  0  0  0
  185.8970  178.0720  144.4670 O   0  0  0  0  0  0  0  0  0  0  0  0
  1 28  1  0  0  0  0
  2 22  1  6  0  0  0
  2 19  1  0  0  0  0
  3 20  2  0  0  0  0
  4 15  1  0  0  0  0
  4  3  1  0  0  0  0
  5 16  1  0  0  0  0
  6 14  1  0  0  0  0
  7 12  1  0  0  0  0
  8  1  1  0  0  0  0
  9  2  1  0  0  0  0
  9  6  1  1  0  0  0
 10 25  1  6  0  0  0
 10  9  1  0  0  0  0
 11 18  1  1  0  0  0
 11 22  1  0  0  0  0
 12 15  2  0  0  0  0
 13  1  2  0  0  0  0
 14 19  1  0  0  0  0
 14  8  1  1  0  0  0
 16 13  1  0  0  0  0
 17 11  1  0  0  0  0
 17 10  1  0  0  0  0
 17 27  1  1  0  0  0
 18 23  1  0  0  0  0
 19  5  1  6  0  0  0
 21  7  2  0  0  0  0
 21 23  1  0  0  0  0
 22  3  1  0  0  0  0
 23  4  2  0  0  0  0
 25 24  1  0  0  0  0
 26 27  1  0  0  0  0
 28 29  1  0  0  0  0
 29 30  1  0  0  0  0
 30 32  2  0  0  0  0
 30 31  1  0  0  0  0
M  END
>  <MODEL>
3

>  <REMARK>
 VINA RESULT:      -4.7     10.039     12.404
  Name = 
  5 active torsions:
  status: ('A' for Active; 'I' for Inactive)
    1  A    between atoms: C_1  and  C_10
    2  A    between atoms: C_2  and  O_24
    3  A    between atoms: C_10  and  O_24
    4  A    between atoms: O_13  and  C_15
    5  A    between atoms: C_25  and  C_26
                            x       y       z     vdW  Elec       q    Type
                         _______ _______ _______ _____ _____    ______ ____

>  <TORSDO>
F 5

$$$$
=
 OpenBabel10272413393D

 32 36  0  0  1  0  0  0  0  0999 V2000
  190.3350  177.4410  140.0750 C   0  0  0  0  0  0  0  0  0  0  0  0
  188.9210  174.3550  137.2580 C   0  0  1  0  0  3  0  0  0  0  0  0
  186.4600  173.9520  137.0190 C   0  0  0  0  0  0  0  0  0  0  0  0
  185.2020  174.1270  136.2700 C   0  0  0  0  0  0  0  0  0  0  0  0
  187.9310  176.5760  138.1590 C   0  0  0  0  0  2  0  0  0  0  0  0
  191.1920  175.2030  137.0870 N   0  0  0  0  0  2  0  0  0  0  0  0
  182.8670  174.4680  134.8280 N   0  0  0  0  0  0  0  0  0  0  0  0
  191.1500  176.7340  139.0090 C   0  0  0  0  0  2  0  0  0  0  0  0
  190.2510  174.2580  136.4950 C   0  0  2  0  0  3  0  0  0  0  0  0
  190.1990  174.4430  134.9720 C   0  0  2  0  0  3  0  0  0  0  0  0
  187.7110  174.6640  134.9850 C   0  0  2  0  0  3  0  0  0  0  0  0
  182.8290  173.7810  136.0030 C   0  0  0  0  0  3  0  0  0  0  0  0
  189.1230  177.9920  139.8640 C   0  0  0  0  0  3  0  0  0  0  0  0
  190.3910  176.1930  137.7950 C   0  0  2  0  0  3  0  0  0  0  0  0
  183.9960  173.6000  136.7470 C   0  0  0  0  0  3  0  0  0  0  0  0
  188.3780  177.9860  138.5630 C   0  0  0  0  0  2  0  0  0  0  0  0
  189.0220  175.2890  134.4990 C   0  0  1  0  0  3  0  0  0  0  0  0
  186.4780  175.4630  134.5490 C   0  0  0  0  0  2  0  0  0  0  0  0
  189.0760  175.5520  138.1890 C   0  0  2  0  0  3  0  0  0  0  0  0
  186.4460  173.4330  138.1700 O   0  0  0  0  0  0  0  0  0  0  0  0
  184.0260  174.9920  134.3460 C   0  0  0  0  0  3  0  0  0  0  0  0
  187.7000  174.3890  136.4310 N   0  0  0  0  0  0  0  0  0  0  0  0
  185.2190  174.8230  135.0510 C   0  0  0  0  0  0  0  0  0  0  0  0
  191.2670  172.5060  134.8780 C   0  0  0  0  0  1  0  0  0  0  0  0
  190.1740  173.1940  134.3460 O   0  0  0  0  0  0  0  0  0  0  0  0
  190.4940  177.3010  134.3480 C   0  0  0  0  0  1  0  0  0  0  0  0
  189.1970  176.7490  134.9050 C   0  0  0  0  0  2  0  0  0  0  0  0
  190.9250  177.5230  141.3420 O   0  0  0  0  0  0  0  0  0  0  0  0
  190.1780  177.6640  142.5450 C   0  0  0  0  0  2  0  0  0  0  0  0
  189.5330  176.3660  142.8880 C   0  0  0  0  0  0  0  0  0  0  0  0
  188.0820  176.3200  143.2220 C   0  0  0  0  0  1  0  0  0  0  0  0
  190.2000  175.3450  142.9310 O   0  0  0  0  0  0  0  0  0  0  0  0
  1 28  1  0  0  0  0
  2 22  1  6  0  0  0
  2 19  1  0  0  0  0
  3 20  2  0  0  0  0
  4 15  1  0  0  0  0
  4  3  1  0  0  0  0
  5 16  1  0  0  0  0
  6 14  1  0  0  0  0
  7 12  1  0  0  0  0
  8  1  1  0  0  0  0
  9  6  1  1  0  0  0
  9  2  1  0  0  0  0
 10 25  1  6  0  0  0
 10  9  1  0  0  0  0
 11 18  1  1  0  0  0
 11 22  1  0  0  0  0
 12 15  2  0  0  0  0
 13  1  2  0  0  0  0
 14 19  1  0  0  0  0
 14  8  1  1  0  0  0
 16 13  1  0  0  0  0
 17 27  1  1  0  0  0
 17 10  1  0  0  0  0
 17 11  1  0  0  0  0
 18 23  1  0  0  0  0
 19  5  1  6  0  0  0
 21  7  2  0  0  0  0
 21 23  1  0  0  0  0
 22  3  1  0  0  0  0
 23  4  2  0  0  0  0
 25 24  1  0  0  0  0
 26 27  1  0  0  0  0
 28 29  1  0  0  0  0
 29 30  1  0  0  0  0
 30 32  2  0  0  0  0
 30 31  1  0  0  0  0
M  END
>  <MODEL>
4

>  <REMARK>
 VINA RESULT:      -4.5      5.708      9.322
  Name = 
  5 active torsions:
  status: ('A' for Active; 'I' for Inactive)
    1  A    between atoms: C_1  and  C_10
    2  A    between atoms: C_2  and  O_24
    3  A    between atoms: C_10  and  O_24
    4  A    between atoms: O_13  and  C_15
    5  A    between atoms: C_25  and  C_26
                            x       y       z     vdW  Elec       q    Type
                         _______ _______ _______ _____ _____    ______ ____

>  <TORSDO>
F 5

$$$$
=
 OpenBabel10272413393D

 32 36  0  0  1  0  0  0  0  0999 V2000
  189.1240  177.9330  142.6610 C   0  0  0  0  0  0  0  0  0  0  0  0
  190.6820  177.8550  138.5350 C   0  0  1  0  0  3  0  0  0  0  0  0
  192.6560  176.4090  138.0000 C   0  0  0  0  0  0  0  0  0  0  0  0
  193.2170  175.1730  137.4230 C   0  0  0  0  0  0  0  0  0  0  0  0
  190.6290  176.1460  140.4840 C   0  0  0  0  0  2  0  0  0  0  0  0
  188.4570  178.7280  138.9740 N   0  0  0  0  0  2  0  0  0  0  0  0
  194.2290  172.8490  136.3190 N   0  0  0  0  0  0  0  0  0  0  0  0
  188.4540  178.4920  141.4200 C   0  0  0  0  0  2  0  0  0  0  0  0
  189.4250  178.4810  137.9110 C   0  0  2  0  0  3  0  0  0  0  0  0
  188.7630  177.7170  136.7560 C   0  0  2  0  0  3  0  0  0  0  0  0
  190.5320  175.9530  136.7780 C   0  0  2  0  0  3  0  0  0  0  0  0
  195.0830  173.7360  136.9000 C   0  0  0  0  0  3  0  0  0  0  0  0
  189.6690  176.7020  142.7420 C   0  0  0  0  0  3  0  0  0  0  0  0
  188.8260  177.8550  140.0800 C   0  0  2  0  0  3  0  0  0  0  0  0
  194.5910  174.9140  137.4650 C   0  0  0  0  0  3  0  0  0  0  0  0
  189.7170  175.6970  141.6320 C   0  0  0  0  0  2  0  0  0  0  0  0
  189.0230  176.2160  136.7880 C   0  0  1  0  0  3  0  0  0  0  0  0
  190.8730  174.4600  136.8120 C   0  0  0  0  0  2  0  0  0  0  0  0
  190.3110  177.5630  139.9840 C   0  0  2  0  0  3  0  0  0  0  0  0
  193.3930  177.1940  138.6560 O   0  0  0  0  0  0  0  0  0  0  0  0
  192.8890  173.0770  136.2690 C   0  0  0  0  0  3  0  0  0  0  0  0
  191.2580  176.7030  137.8170 N   0  0  0  0  0  0  0  0  0  0  0  0
  192.3560  174.2490  136.8090 C   0  0  0  0  0  0  0  0  0  0  0  0
  188.3970  177.6110  134.5750 C   0  0  0  0  0  1  0  0  0  0  0  0
  189.1840  178.2510  135.5350 O   0  0  0  0  0  0  0  0  0  0  0  0
  187.0890  174.7820  137.4520 C   0  0  0  0  0  1  0  0  0  0  0  0
  188.2900  175.5560  137.9540 C   0  0  0  0  0  2  0  0  0  0  0  0
  189.1390  178.7750  143.7790 O   0  0  0  0  0  0  0  0  0  0  0  0
  189.7110  178.4060  145.0290 C   0  0  0  0  0  2  0  0  0  0  0  0
  188.6930  177.6970  145.8540 C   0  0  0  0  0  0  0  0  0  0  0  0
  187.2430  177.9780  145.6540 C   0  0  0  0  0  1  0  0  0  0  0  0
  189.0460  176.9120  146.7180 O   0  0  0  0  0  0  0  0  0  0  0  0
  1 13  2  0  0  0  0
  1 28  1  0  0  0  0
  2 22  1  6  0  0  0
  2 19  1  0  0  0  0
  3 20  2  0  0  0  0
  4 15  1  0  0  0  0
  4  3  1  0  0  0  0
  5 16  1  0  0  0  0
  6 14  1  0  0  0  0
  7 12  1  0  0  0  0
  8  1  1  0  0  0  0
  9  2  1  0  0  0  0
  9  6  1  1  0  0  0
 10 25  1  6  0  0  0
 10 17  1  0  0  0  0
 10  9  1  0  0  0  0
 11 17  1  0  0  0  0
 11 18  1  1  0  0  0
 11 22  1  0  0  0  0
 12 15  2  0  0  0  0
 14  8  1  1  0  0  0
 16 13  1  0  0  0  0
 17 27  1  1  0  0  0
 19 14  1  0  0  0  0
 19  5  1  6  0  0  0
 21  7  2  0  0  0  0
 21 23  1  0  0  0  0
 22  3  1  0  0  0  0
 23 18  1  0  0  0  0
 23  4  2  0  0  0  0
 24 25  1  0  0  0  0
 26 27  1  0  0  0  0
 28 29  1  0  0  0  0
 29 30  1  0  0  0  0
 30 32  2  0  0  0  0
 31 30  1  0  0  0  0
M  END
>  <MODEL>
5

>  <REMARK>
 VINA RESULT:      -4.4      4.446      7.873
  Name = 
  5 active torsions:
  status: ('A' for Active; 'I' for Inactive)
    1  A    between atoms: C_1  and  C_10
    2  A    between atoms: C_2  and  O_24
    3  A    between atoms: C_10  and  O_24
    4  A    between atoms: O_13  and  C_15
    5  A    between atoms: C_25  and  C_26
                            x       y       z     vdW  Elec       q    Type
                         _______ _______ _______ _____ _____    ______ ____

>  <TORSDO>
F 5

$$$$
=
 OpenBabel10272413393D

 32 36  0  0  1  0  0  0  0  0999 V2000
  190.0580  177.2310  140.0190 C   0  0  0  0  0  0  0  0  0  0  0  0
  187.3660  175.0970  137.2510 C   0  0  1  0  0  3  0  0  0  0  0  0
  184.9870  175.8510  137.0340 C   0  0  0  0  0  0  0  0  0  0  0  0
  183.9360  176.5710  136.2910 C   0  0  0  0  0  0  0  0  0  0  0  0
  187.5010  177.5330  138.1300 C   0  0  0  0  0  2  0  0  0  0  0  0
  189.7720  174.8220  137.0550 N   0  0  0  0  0  2  0  0  0  0  0  0
  181.9930  177.9210  134.8600 N   0  0  0  0  0  0  0  0  0  0  0  0
  190.4510  176.2220  138.9570 C   0  0  0  0  0  2  0  0  0  0  0  0
  188.4980  174.4010  136.4810 C   0  0  2  0  0  3  0  0  0  0  0  0
  188.5190  174.5770  134.9560 C   0  0  2  0  0  3  0  0  0  0  0  0
  186.4010  175.9020  134.9820 C   0  0  2  0  0  3  0  0  0  0  0  0
  181.6610  177.3360  136.0430 C   0  0  0  0  0  3  0  0  0  0  0  0
  189.2240  178.2690  139.8090 C   0  0  0  0  0  3  0  0  0  0  0  0
  189.5160  176.0730  137.7550 C   0  0  2  0  0  3  0  0  0  0  0  0
  182.6280  176.6520  136.7820 C   0  0  0  0  0  3  0  0  0  0  0  0
  188.5420  178.5900  138.5140 C   0  0  0  0  0  2  0  0  0  0  0  0
  187.8470  175.8600  134.4800 C   0  0  1  0  0  3  0  0  0  0  0  0
  185.6590  177.1690  134.5440 C   0  0  0  0  0  2  0  0  0  0  0  0
  188.0570  176.1020  138.1650 C   0  0  2  0  0  3  0  0  0  0  0  0
  184.7530  175.4050  138.1910 O   0  0  0  0  0  0  0  0  0  0  0  0
  183.2580  177.8590  134.3630 C   0  0  0  0  0  3  0  0  0  0  0  0
  186.2830  175.6740  136.4320 N   0  0  0  0  0  0  0  0  0  0  0  0
  184.2530  177.1730  135.0620 C   0  0  0  0  0  0  0  0  0  0  0  0
  188.4660  172.3640  135.0050 C   0  0  0  0  0  1  0  0  0  0  0  0
  187.9230  173.4690  134.3470 O   0  0  0  0  0  0  0  0  0  0  0  0
  190.0910  176.9500  134.3590 C   0  0  0  0  0  1  0  0  0  0  0  0
  188.6690  177.0860  134.8660 C   0  0  0  0  0  2  0  0  0  0  0  0
  190.6360  177.0470  141.2810 O   0  0  0  0  0  0  0  0  0  0  0  0
  189.9580  177.3310  142.5010 C   0  0  0  0  0  2  0  0  0  0  0  0
  190.9420  177.3810  143.6180 C   0  0  0  0  0  0  0  0  0  0  0  0
  191.4590  178.6930  144.0980 C   0  0  0  0  0  1  0  0  0  0  0  0
  191.3530  176.3460  144.1180 O   0  0  0  0  0  0  0  0  0  0  0  0
  1 28  1  0  0  0  0
  2 22  1  6  0  0  0
  2 19  1  0  0  0  0
  3 20  2  0  0  0  0
  4 15  1  0  0  0  0
  4  3  1  0  0  0  0
  5 16  1  0  0  0  0
  6 14  1  0  0  0  0
  7 12  1  0  0  0  0
  8  1  1  0  0  0  0
  9  6  1  1  0  0  0
  9  2  1  0  0  0  0
 10 25  1  6  0  0  0
 10  9  1  0  0  0  0
 11 18  1  1  0  0  0
 11 22  1  0  0  0  0
 12 15  2  0  0  0  0
 13  1  2  0  0  0  0
 14 19  1  0  0  0  0
 14  8  1  1  0  0  0
 16 13  1  0  0  0  0
 17 27  1  1  0  0  0
 17 10  1  0  0  0  0
 17 11  1  0  0  0  0
 18 23  1  0  0  0  0
 19  5  1  6  0  0  0
 21  7  2  0  0  0  0
 21 23  1  0  0  0  0
 22  3  1  0  0  0  0
 23  4  2  0  0  0  0
 25 24  1  0  0  0  0
 26 27  1  0  0  0  0
 28 29  1  0  0  0  0
 29 30  1  0  0  0  0
 30 31  1  0  0  0  0
 30 32  2  0  0  0  0
M  END
>  <MODEL>
6

>  <REMARK>
 VINA RESULT:      -4.4      6.928     10.730
  Name = 
  5 active torsions:
  status: ('A' for Active; 'I' for Inactive)
    1  A    between atoms: C_1  and  C_10
    2  A    between atoms: C_2  and  O_24
    3  A    between atoms: C_10  and  O_24
    4  A    between atoms: O_13  and  C_15
    5  A    between atoms: C_25  and  C_26
                            x       y       z     vdW  Elec       q    Type
                         _______ _______ _______ _____ _____    ______ ____

>  <TORSDO>
F 5

$$$$
=
 OpenBabel10272413393D

 32 36  0  0  1  0  0  0  0  0999 V2000
  190.3020  177.1890  141.3610 C   0  0  0  0  0  0  0  0  0  0  0  0
  189.2040  175.5260  137.4260 C   0  0  1  0  0  3  0  0  0  0  0  0
  186.8030  174.9990  136.9480 C   0  0  0  0  0  0  0  0  0  0  0  0
  185.5190  175.3450  136.3080 C   0  0  0  0  0  0  0  0  0  0  0  0
  187.9810  176.9970  139.1760 C   0  0  0  0  0  2  0  0  0  0  0  0
  191.3590  176.6090  137.7250 N   0  0  0  0  0  2  0  0  0  0  0  0
  183.1360  176.0240  135.0820 N   0  0  0  0  0  0  0  0  0  0  0  0
  191.1750  177.1200  140.1220 C   0  0  0  0  0  2  0  0  0  0  0  0
  190.5230  175.9240  136.7450 C   0  0  2  0  0  3  0  0  0  0  0  0
  190.4240  176.7550  135.4580 C   0  0  2  0  0  3  0  0  0  0  0  0
  187.9270  176.6690  135.4790 C   0  0  2  0  0  3  0  0  0  0  0  0
  183.1980  174.8910  135.8320 C   0  0  0  0  0  3  0  0  0  0  0  0
  189.0310  177.6380  141.3710 C   0  0  0  0  0  3  0  0  0  0  0  0
  190.4620  177.0900  138.7680 C   0  0  2  0  0  3  0  0  0  0  0  0
  184.3910  174.5320  136.4610 C   0  0  0  0  0  3  0  0  0  0  0  0
  188.2690  178.1230  140.1750 C   0  0  0  0  0  2  0  0  0  0  0  0
  189.1480  177.5850  135.3640 C   0  0  1  0  0  3  0  0  0  0  0  0
  186.6030  177.4360  135.3960 C   0  0  0  0  0  2  0  0  0  0  0  0
  189.2360  176.1990  138.7930 C   0  0  2  0  0  3  0  0  0  0  0  0
  186.8690  174.0280  137.7510 O   0  0  0  0  0  0  0  0  0  0  0  0
  184.2180  176.8330  134.9210 C   0  0  0  0  0  3  0  0  0  0  0  0
  187.9730  175.7850  136.6560 N   0  0  0  0  0  0  0  0  0  0  0  0
  185.4350  176.5050  135.5210 C   0  0  0  0  0  0  0  0  0  0  0  0
  191.8200  175.3830  134.4250 C   0  0  0  0  0  1  0  0  0  0  0  0
  190.5320  175.9160  134.3460 O   0  0  0  0  0  0  0  0  0  0  0  0
  187.7780  179.3310  136.5090 C   0  0  0  0  0  1  0  0  0  0  0  0
  189.1610  178.7270  136.3770 C   0  0  0  0  0  2  0  0  0  0  0  0
  190.9010  176.7690  142.5540 O   0  0  0  0  0  0  0  0  0  0  0  0
  191.6160  177.6430  143.4220 C   0  0  0  0  0  2  0  0  0  0  0  0
  191.0900  177.5100  144.8090 C   0  0  0  0  0  0  0  0  0  0  0  0
  189.6410  177.7260  145.0810 C   0  0  0  0  0  1  0  0  0  0  0  0
  191.8500  177.2580  145.7290 O   0  0  0  0  0  0  0  0  0  0  0  0
  1 13  2  0  0  0  0
  1 28  1  0  0  0  0
  2 22  1  6  0  0  0
  2 19  1  0  0  0  0
  3 20  2  0  0  0  0
  4 15  1  0  0  0  0
  4  3  1  0  0  0  0
  5 16  1  0  0  0  0
  6 14  1  0  0  0  0
  7 12  1  0  0  0  0
  8  1  1  0  0  0  0
  9  2  1  0  0  0  0
  9  6  1  1  0  0  0
 10 25  1  6  0  0  0
 10  9  1  0  0  0  0
 11 18  1  1  0  0  0
 11 22  1  0  0  0  0
 12 15  2  0  0  0  0
 14 19  1  0  0  0  0
 14  8  1  1  0  0  0
 16 13  1  0  0  0  0
 17 10  1  0  0  0  0
 17 11  1  0  0  0  0
 17 27  1  1  0  0  0
 18 23  1  0  0  0  0
 19  5  1  6  0  0  0
 21  7  2  0  0  0  0
 21 23  1  0  0  0  0
 22  3  1  0  0  0  0
 23  4  2  0  0  0  0
 25 24  1  0  0  0  0
 27 26  1  0  0  0  0
 28 29  1  0  0  0  0
 29 30  1  0  0  0  0
 30 31  1  0  0  0  0
 30 32  2  0  0  0  0
M  END
>  <MODEL>
7

>  <REMARK>
 VINA RESULT:      -4.3      6.138      9.792
  Name = 
  5 active torsions:
  status: ('A' for Active; 'I' for Inactive)
    1  A    between atoms: C_1  and  C_10
    2  A    between atoms: C_2  and  O_24
    3  A    between atoms: C_10  and  O_24
    4  A    between atoms: O_13  and  C_15
    5  A    between atoms: C_25  and  C_26
                            x       y       z     vdW  Elec       q    Type
                         _______ _______ _______ _____ _____    ______ ____

>  <TORSDO>
F 5

$$$$
=
 OpenBabel10272413393D

 32 36  0  0  1  0  0  0  0  0999 V2000
  189.1270  177.7560  138.4280 C   0  0  0  0  0  0  0  0  0  0  0  0
  185.1360  176.0300  137.6830 C   0  0  1  0  0  3  0  0  0  0  0  0
  183.1710  177.5610  137.4160 C   0  0  0  0  0  0  0  0  0  0  0  0
  182.1950  178.2510  136.5520 C   0  0  0  0  0  0  0  0  0  0  0  0
  186.2890  178.2650  137.0540 C   0  0  0  0  0  2  0  0  0  0  0  0
  187.1250  174.6760  137.3420 N   0  0  0  0  0  2  0  0  0  0  0  0
  180.3750  179.5140  134.8970 N   0  0  0  0  0  0  0  0  0  0  0  0
  188.8070  176.3220  138.0510 C   0  0  0  0  0  2  0  0  0  0  0  0
  185.6680  174.6480  137.2740 C   0  0  2  0  0  3  0  0  0  0  0  0
  185.2100  174.0950  135.9170 C   0  0  2  0  0  3  0  0  0  0  0  0
  183.7320  176.0670  135.5020 C   0  0  2  0  0  3  0  0  0  0  0  0
  180.3160  179.7310  136.2400 C   0  0  0  0  0  3  0  0  0  0  0  0
  188.6230  178.8370  137.8000 C   0  0  0  0  0  3  0  0  0  0  0  0
  187.5140  176.0780  137.2690 C   0  0  2  0  0  3  0  0  0  0  0  0
  181.2270  179.1040  137.0910 C   0  0  0  0  0  3  0  0  0  0  0  0
  187.6650  178.8070  136.6480 C   0  0  0  0  0  2  0  0  0  0  0  0
  184.8320  175.1780  134.9130 C   0  0  1  0  0  3  0  0  0  0  0  0
  183.3000  177.1850  134.5470 C   0  0  0  0  0  2  0  0  0  0  0  0
  186.3680  176.9210  137.7920 C   0  0  2  0  0  3  0  0  0  0  0  0
  183.2310  177.8310  138.6470 O   0  0  0  0  0  0  0  0  0  0  0  0
  181.3100  178.6920  134.3480 C   0  0  0  0  0  3  0  0  0  0  0  0
  184.0620  176.5880  136.8390 N   0  0  0  0  0  0  0  0  0  0  0  0
  182.2310  178.0340  135.1650 C   0  0  0  0  0  0  0  0  0  0  0  0
  184.7270  172.0040  136.4610 C   0  0  0  0  0  1  0  0  0  0  0  0
  184.1380  173.2180  136.1030 O   0  0  0  0  0  0  0  0  0  0  0  0
  187.2590  175.0230  134.3470 C   0  0  0  0  0  1  0  0  0  0  0  0
  186.0640  175.9480  134.4460 C   0  0  0  0  0  2  0  0  0  0  0  0
  190.0220  177.9230  139.4910 O   0  0  0  0  0  0  0  0  0  0  0  0
  190.5720  176.8370  140.2290 C   0  0  0  0  0  2  0  0  0  0  0  0
  190.0460  176.8630  141.6220 C   0  0  0  0  0  0  0  0  0  0  0  0
  189.1800  177.9890  142.0720 C   0  0  0  0  0  1  0  0  0  0  0  0
  190.3530  175.9810  142.4080 O   0  0  0  0  0  0  0  0  0  0  0  0
  1 28  1  0  0  0  0
  2 22  1  6  0  0  0
  2 19  1  0  0  0  0
  3 20  2  0  0  0  0
  4 15  1  0  0  0  0
  4  3  1  0  0  0  0
  7 12  1  0  0  0  0
  8  1  1  0  0  0  0
  9  6  1  6  0  0  0
  9  2  1  0  0  0  0
 10 25  1  1  0  0  0
 10  9  1  0  0  0  0
 11 18  1  6  0  0  0
 11 22  1  0  0  0  0
 12 15  2  0  0  0  0
 13  1  2  0  0  0  0
 14  6  1  0  0  0  0
 14 19  1  0  0  0  0
 14  8  1  1  0  0  0
 16  5  1  0  0  0  0
 16 13  1  0  0  0  0
 17 27  1  1  0  0  0
 17 11  1  0  0  0  0
 17 10  1  0  0  0  0
 18 23  1  0  0  0  0
 19  5  1  6  0  0  0
 21  7  2  0  0  0  0
 21 23  1  0  0  0  0
 22  3  1  0  0  0  0
 23  4  2  0  0  0  0
 25 24  1  0  0  0  0
 26 27  1  0  0  0  0
 28 29  1  0  0  0  0
 29 30  1  0  0  0  0
 30 31  1  0  0  0  0
 30 32  2  0  0  0  0
M  END
>  <MODEL>
8

>  <REMARK>
 VINA RESULT:      -4.0      7.770     12.461
  Name = 
  5 active torsions:
  status: ('A' for Active; 'I' for Inactive)
    1  A    between atoms: C_1  and  C_10
    2  A    between atoms: C_2  and  O_24
    3  A    between atoms: C_10  and  O_24
    4  A    between atoms: O_13  and  C_15
    5  A    between atoms: C_25  and  C_26
                            x       y       z     vdW  Elec       q    Type
                         _______ _______ _______ _____ _____    ______ ____

>  <TORSDO>
F 5

$$$$
=
 OpenBabel10272413393D

 32 36  0  0  1  0  0  0  0  0999 V2000
  187.9300  174.0840  136.5280 C   0  0  0  0  0  0  0  0  0  0  0  0
  183.7310  174.7360  137.7130 C   0  0  1  0  0  3  0  0  0  0  0  0
  182.7160  177.0070  137.4230 C   0  0  0  0  0  0  0  0  0  0  0  0
  181.8500  177.9350  136.6720 C   0  0  0  0  0  0  0  0  0  0  0  0
  185.2960  175.7910  135.9360 C   0  0  0  0  0  2  0  0  0  0  0  0
  184.5640  172.4750  137.3960 N   0  0  0  0  0  2  0  0  0  0  0  0
  180.2070  179.6380  135.2420 N   0  0  0  0  0  0  0  0  0  0  0  0
  186.9010  173.0230  136.8700 C   0  0  0  0  0  2  0  0  0  0  0  0
  183.3780  173.2410  137.7640 C   0  0  2  0  0  3  0  0  0  0  0  0
  182.1700  172.7790  136.9380 C   0  0  2  0  0  3  0  0  0  0  0  0
  181.6560  175.1110  136.2020 C   0  0  2  0  0  3  0  0  0  0  0  0
  180.8600  180.1100  136.3390 C   0  0  0  0  0  3  0  0  0  0  0  0
  187.7070  175.1160  135.6880 C   0  0  0  0  0  3  0  0  0  0  0  0
  185.4290  173.3840  136.6570 C   0  0  2  0  0  3  0  0  0  0  0  0
  181.6960  179.2670  137.0730 C   0  0  0  0  0  3  0  0  0  0  0  0
  186.4200  175.3930  134.9720 C   0  0  0  0  0  2  0  0  0  0  0  0
  181.8760  173.6690  135.7350 C   0  0  1  0  0  3  0  0  0  0  0  0
  181.3570  176.0680  135.0440 C   0  0  0  0  0  2  0  0  0  0  0  0
  185.1230  174.8010  137.0980 C   0  0  2  0  0  3  0  0  0  0  0  0
  183.4350  177.4350  138.3680 O   0  0  0  0  0  0  0  0  0  0  0  0
  180.3430  178.3480  134.8310 C   0  0  0  0  0  3  0  0  0  0  0  0
  182.7420  175.6140  137.0610 N   0  0  0  0  0  0  0  0  0  0  0  0
  181.1580  177.4670  135.5430 C   0  0  0  0  0  0  0  0  0  0  0  0
  180.2690  171.6750  137.1990 C   0  0  0  0  0  1  0  0  0  0  0  0
  181.0420  172.6940  137.7590 O   0  0  0  0  0  0  0  0  0  0  0  0
  183.1890  172.0620  134.3460 C   0  0  0  0  0  1  0  0  0  0  0  0
  182.9570  173.5240  134.6670 C   0  0  0  0  0  2  0  0  0  0  0  0
  189.1850  173.9350  137.1290 O   0  0  0  0  0  0  0  0  0  0  0  0
  190.4080  173.9420  136.4000 C   0  0  0  0  0  2  0  0  0  0  0  0
  191.3690  174.8800  137.0450 C   0  0  0  0  0  0  0  0  0  0  0  0
  192.1010  175.8810  136.2200 C   0  0  0  0  0  1  0  0  0  0  0  0
  191.5830  174.8060  138.2430 O   0  0  0  0  0  0  0  0  0  0  0  0
  1  8  1  0  0  0  0
  1 28  1  0  0  0  0
  2 22  1  6  0  0  0
  2  9  1  0  0  0  0
  3 20  2  0  0  0  0
  4 15  1  0  0  0  0
  4  3  1  0  0  0  0
  7 12  1  0  0  0  0
  9  6  1  6  0  0  0
 10 25  1  1  0  0  0
 10  9  1  0  0  0  0
 11 18  1  6  0  0  0
 11 22  1  0  0  0  0
 12 15  2  0  0  0  0
 13  1  2  0  0  0  0
 14  8  1  1  0  0  0
 14 19  1  0  0  0  0
 14  6  1  0  0  0  0
 16 13  1  0  0  0  0
 16  5  1  0  0  0  0
 17 27  1  6  0  0  0
 17 11  1  0  0  0  0
 17 10  1  0  0  0  0
 18 23  1  0  0  0  0
 19  5  1  6  0  0  0
 19  2  1  0  0  0  0
 21  7  2  0  0  0  0
 21 23  1  0  0  0  0
 22  3  1  0  0  0  0
 23  4  2  0  0  0  0
 24 25  1  0  0  0  0
 26 27  1  0  0  0  0
 29 30  1  0  0  0  0
 29 28  1  0  0  0  0
 30 32  2  0  0  0  0
 31 30  1  0  0  0  0
M  END
>  <MODEL>
9

>  <REMARK>
 VINA RESULT:      -3.4      7.081     13.453
  Name = 
  5 active torsions:
  status: ('A' for Active; 'I' for Inactive)
    1  A    between atoms: C_1  and  C_10
    2  A    between atoms: C_2  and  O_24
    3  A    between atoms: C_10  and  O_24
    4  A    between atoms: O_13  and  C_15
    5  A    between atoms: C_25  and  C_26
                            x       y       z     vdW  Elec       q    Type
                         _______ _______ _______ _____ _____    ______ ____

>  <TORSDO>
F 5

$$$$
