=
 OpenBabel10272414443D

 37 42  0  0  1  0  0  0  0  0999 V2000
  188.2100  176.6100  143.9450 C   0  0  0  0  0  2  0  0  0  0  0  0
  188.1670  177.7680  139.3610 C   0  0  2  0  0  3  0  0  0  0  0  0
  188.6410  177.5410  144.9730 N   0  0  0  0  0  0  0  0  0  0  0  0
  185.3180  179.2250  141.5470 C   0  0  0  0  0  2  0  0  0  0  0  0
  187.4390  178.4430  140.5180 C   0  0  1  0  0  3  0  0  0  0  0  0
  189.5830  177.5530  139.8530 C   0  0  1  0  0  3  0  0  0  0  0  0
  185.8940  178.2790  140.4970 C   0  0  2  0  0  3  0  0  0  0  0  0
  187.5000  177.7700  145.8640 C   0  0  0  0  0  2  0  0  0  0  0  0
  189.4060  177.1740  141.3200 C   0  0  2  0  0  3  0  0  0  0  0  0
  186.8780  178.4610  137.2310 C   0  0  0  0  0  2  0  0  0  0  0  0
  188.8610  179.5210  137.9300 O   0  0  0  0  0  0  0  0  0  0  0  0
  189.1610  175.7980  141.4310 O   0  0  0  0  0  1  0  0  0  0  0  0
  186.2050  178.1310  145.0950 C   0  0  2  0  0  3  0  0  0  0  0  0
  185.1350  178.5100  142.8700 C   0  0  0  0  0  2  0  0  0  0  0  0
  188.0730  178.6080  138.1210 C   0  0  0  0  0  0  0  0  0  0  0  0
  188.1860  177.9880  141.7950 C   0  0  2  0  0  3  0  0  0  0  0  0
  185.2240  178.6190  139.1260 C   0  0  1  0  0  3  0  0  0  0  0  0
  186.4620  178.4110  143.6000 C   0  0  2  0  0  3  0  0  0  0  0  0
  187.3360  177.3430  142.9160 C   0  0  2  0  0  3  0  0  0  0  0  0
  185.7280  177.7680  137.9570 C   0  0  0  0  0  2  0  0  0  0  0  0
  182.9870  179.7960  138.7890 C   0  0  0  0  0  3  0  0  0  0  0  0
  183.6910  178.5070  139.1420 C   0  0  1  0  0  3  0  0  0  0  0  0
  183.1780  177.2750  138.3670 C   0  0  0  0  0  2  0  0  0  0  0  0
  180.9200  175.8510  137.8280 Cl  0  0  0  0  0  0  0  0  0  0  0  0
  180.9350  178.4800  138.5300 C   0  0  0  0  0  2  0  0  0  0  0  0
  181.7590  177.4240  137.7900 C   0  0  1  0  0  3  0  0  0  0  0  0
  181.6790  179.7830  138.5100 C   0  0  0  0  0  3  0  0  0  0  0  0
  190.3140  176.4760  139.0450 C   0  0  1  0  0  3  0  0  0  0  0  0
  191.1090  177.0640  138.0410 O   0  0  0  0  0  0  0  0  0  0  0  0
  191.8120  176.5110  139.1350 C   0  0  1  0  0  3  0  0  0  0  0  0
  192.3860  177.6450  139.9650 C   0  0  0  0  0  2  0  0  0  0  0  0
  193.8510  177.3900  140.2590 C   0  0  0  0  0  2  0  0  0  0  0  0
  194.3130  176.3440  139.4570 O   0  0  0  0  0  1  0  0  0  0  0  0
  185.5190  179.3280  145.7710 C   0  0  0  0  0  2  0  0  0  0  0  0
  184.3660  178.9010  146.4390 O   0  0  0  0  0  1  0  0  0  0  0  0
  189.3190  176.9490  147.2230 C   0  0  0  0  0  1  0  0  0  0  0  0
  189.6680  176.8650  145.7470 C   0  0  0  0  0  2  0  0  0  0  0  0
  1  3  1  0  0  0  0
  2 15  1  6  0  0  0
  2  6  1  0  0  0  0
  2  5  1  0  0  0  0
  3 37  1  0  0  0  0
  3  8  1  0  0  0  0
  4 14  1  0  0  0  0
  5 16  1  0  0  0  0
  6  9  1  0  0  0  0
  7  5  1  0  0  0  0
  7  4  1  0  0  0  0
  9 12  1  0  0  0  0
  9 16  1  0  0  0  0
 10 20  1  0  0  0  0
 10 15  1  0  0  0  0
 11 15  2  0  0  0  0
 13 34  1  0  0  0  0
 13  8  1  0  0  0  0
 14 18  1  0  0  0  0
 16 19  1  0  0  0  0
 17 22  1  0  0  0  0
 17  7  1  0  0  0  0
 18 13  1  0  0  0  0
 19 18  1  0  0  0  0
 19  1  1  0  0  0  0
 20 17  1  0  0  0  0
 21 22  1  0  0  0  0
 23 22  1  0  0  0  0
 26 24  1  0  0  0  0
 26 23  1  0  0  0  0
 26 25  1  0  0  0  0
 27 25  1  0  0  0  0
 27 21  2  0  0  0  0
 28 30  1  0  0  0  0
 28  6  1  0  0  0  0
 29 28  1  0  0  0  0
 29 30  1  0  0  0  0
 30 31  1  0  0  0  0
 31 32  1  0  0  0  0
 33 32  1  0  0  0  0
 34 35  1  0  0  0  0
 37 36  1  0  0  0  0
M  END
>  <MODEL>
1

>  <REMARK>
 VINA RESULT:      -8.3      0.000      0.000
  Name = 
  6 active torsions:
  status: ('A' for Active; 'I' for Inactive)
    1  A    between atoms: C_3  and  C_21
    2  A    between atoms: C_3  and  C_30
    3  A    between atoms: N_5  and  C_23
    4  A    between atoms: C_6  and  C_31
    5  A    between atoms: C_9  and  C_13
    6  A    between atoms: C_11  and  C_26
                            x       y       z     vdW  Elec       q    Type
                         _______ _______ _______ _____ _____    ______ ____

>  <TORSDO>
F 6

$$$$
=
 OpenBabel10272414443D

 37 42  0  0  1  0  0  0  0  0999 V2000
  186.3210  177.3570  144.2290 C   0  0  0  0  0  2  0  0  0  0  0  0
  188.1990  177.8230  139.9150 C   0  0  2  0  0  3  0  0  0  0  0  0
  186.1380  178.4900  145.1190 N   0  0  0  0  0  0  0  0  0  0  0  0
  184.5290  178.9910  140.3460 C   0  0  0  0  0  2  0  0  0  0  0  0
  186.9600  178.4990  140.4890 C   0  0  1  0  0  3  0  0  0  0  0  0
  189.2610  177.9590  140.9870 C   0  0  1  0  0  3  0  0  0  0  0  0
  185.6160  178.0370  139.8600 C   0  0  2  0  0  3  0  0  0  0  0  0
  184.7020  178.6170  145.3800 C   0  0  0  0  0  2  0  0  0  0  0  0
  188.4910  177.7650  142.2890 C   0  0  2  0  0  3  0  0  0  0  0  0
  187.9280  177.9420  137.3470 C   0  0  0  0  0  2  0  0  0  0  0  0
  189.2570  179.4560  138.5670 O   0  0  0  0  0  0  0  0  0  0  0  0
  188.3790  176.3980  142.5780 O   0  0  0  0  0  1  0  0  0  0  0  0
  183.8550  178.6050  144.0840 C   0  0  2  0  0  3  0  0  0  0  0  0
  183.8570  178.4490  141.5900 C   0  0  0  0  0  2  0  0  0  0  0  0
  188.5750  178.4440  138.6020 C   0  0  0  0  0  0  0  0  0  0  0  0
  187.1040  178.3850  142.0260 C   0  0  2  0  0  3  0  0  0  0  0  0
  185.5960  178.0410  138.2970 C   0  0  1  0  0  3  0  0  0  0  0  0
  184.7200  178.7160  142.8110 C   0  0  2  0  0  3  0  0  0  0  0  0
  185.9220  177.7520  142.7980 C   0  0  2  0  0  3  0  0  0  0  0  0
  186.6610  177.1480  137.6560 C   0  0  0  0  0  2  0  0  0  0  0  0
  184.2880  177.3970  136.2050 C   0  0  0  0  0  3  0  0  0  0  0  0
  184.2410  177.6370  137.6950 C   0  0  1  0  0  3  0  0  0  0  0  0
  183.5500  176.5110  138.4950 C   0  0  0  0  0  2  0  0  0  0  0  0
  181.2190  175.1160  138.6830 Cl  0  0  0  0  0  0  0  0  0  0  0  0
  182.0850  176.3410  136.4130 C   0  0  0  0  0  2  0  0  0  0  0  0
  182.5930  175.6320  137.6700 C   0  0  1  0  0  3  0  0  0  0  0  0
  183.2610  176.7920  135.5970 C   0  0  0  0  0  3  0  0  0  0  0  0
  190.3920  176.9420  140.8070 C   0  0  1  0  0  3  0  0  0  0  0  0
  191.5790  177.5860  140.4030 O   0  0  0  0  0  0  0  0  0  0  0  0
  191.5600  177.1100  141.7340 C   0  0  1  0  0  3  0  0  0  0  0  0
  191.4790  178.3000  142.6730 C   0  0  0  0  0  2  0  0  0  0  0  0
  191.6260  177.8460  144.1100 C   0  0  0  0  0  2  0  0  0  0  0  0
  191.6300  176.4500  144.1610 O   0  0  0  0  0  1  0  0  0  0  0  0
  182.8090  179.7300  144.1400 C   0  0  0  0  0  2  0  0  0  0  0  0
  181.5280  179.1950  143.9720 O   0  0  0  0  0  1  0  0  0  0  0  0
  188.1880  177.6420  146.0950 C   0  0  0  0  0  1  0  0  0  0  0  0
  186.7810  178.1440  146.3750 C   0  0  0  0  0  2  0  0  0  0  0  0
  1  3  1  0  0  0  0
  2 15  1  6  0  0  0
  2  5  1  0  0  0  0
  2  6  1  0  0  0  0
  3  8  1  0  0  0  0
  3 37  1  0  0  0  0
  4 14  1  0  0  0  0
  5 16  1  0  0  0  0
  6  9  1  0  0  0  0
  7  4  1  0  0  0  0
  7  5  1  0  0  0  0
  9 12  1  0  0  0  0
 10 20  1  0  0  0  0
 10 15  1  0  0  0  0
 11 15  2  0  0  0  0
 13 34  1  0  0  0  0
 13  8  1  0  0  0  0
 14 18  1  0  0  0  0
 16  9  1  0  0  0  0
 16 19  1  0  0  0  0
 17  7  1  0  0  0  0
 18 13  1  0  0  0  0
 19 18  1  0  0  0  0
 19  1  1  0  0  0  0
 20 17  1  0  0  0  0
 21 22  1  0  0  0  0
 22 17  1  0  0  0  0
 22 23  1  0  0  0  0
 25 26  1  0  0  0  0
 26 23  1  0  0  0  0
 26 24  1  0  0  0  0
 27 21  2  0  0  0  0
 27 25  1  0  0  0  0
 28  6  1  0  0  0  0
 28 30  1  0  0  0  0
 29 28  1  0  0  0  0
 29 30  1  0  0  0  0
 30 31  1  0  0  0  0
 31 32  1  0  0  0  0
 32 33  1  0  0  0  0
 35 34  1  0  0  0  0
 36 37  1  0  0  0  0
M  END
>  <MODEL>
2

>  <REMARK>
 VINA RESULT:      -8.0      1.811      2.425
  Name = 
  6 active torsions:
  status: ('A' for Active; 'I' for Inactive)
    1  A    between atoms: C_3  and  C_21
    2  A    between atoms: C_3  and  C_30
    3  A    between atoms: N_5  and  C_23
    4  A    between atoms: C_6  and  C_31
    5  A    between atoms: C_9  and  C_13
    6  A    between atoms: C_11  and  C_26
                            x       y       z     vdW  Elec       q    Type
                         _______ _______ _______ _____ _____    ______ ____

>  <TORSDO>
F 6

$$$$
=
 OpenBabel10272414443D

 37 42  0  0  1  0  0  0  0  0999 V2000
  184.8090  177.6980  142.6190 C   0  0  0  0  0  2  0  0  0  0  0  0
  189.5080  177.5820  143.1250 C   0  0  2  0  0  3  0  0  0  0  0  0
  184.0600  178.9430  142.6420 N   0  0  0  0  0  0  0  0  0  0  0  0
  188.1610  178.7460  139.6820 C   0  0  0  0  0  2  0  0  0  0  0  0
  188.6840  178.3150  142.0720 C   0  0  1  0  0  3  0  0  0  0  0  0
  188.8280  177.8830  144.4440 C   0  0  1  0  0  3  0  0  0  0  0  0
  188.8200  177.7490  140.6310 C   0  0  2  0  0  3  0  0  0  0  0  0
  183.4020  179.0840  141.3400 C   0  0  0  0  0  2  0  0  0  0  0  0
  187.3420  177.8630  144.1010 C   0  0  2  0  0  3  0  0  0  0  0  0
  191.8720  177.3360  142.1080 C   0  0  0  0  0  2  0  0  0  0  0  0
  191.3090  179.0260  143.6500 O   0  0  0  0  0  0  0  0  0  0  0  0
  186.8580  176.5480  144.1540 O   0  0  0  0  0  1  0  0  0  0  0  0
  184.3740  178.8780  140.1530 C   0  0  2  0  0  3  0  0  0  0  0  0
  186.7140  178.3740  139.4340 C   0  0  0  0  0  2  0  0  0  0  0  0
  190.9430  178.0190  143.0650 C   0  0  0  0  0  0  0  0  0  0  0  0
  187.2590  178.4190  142.6650 C   0  0  2  0  0  3  0  0  0  0  0  0
  190.2930  177.5340  140.1550 C   0  0  1  0  0  3  0  0  0  0  0  0
  185.8500  178.8220  140.6000 C   0  0  2  0  0  3  0  0  0  0  0  0
  186.0940  177.8830  141.7980 C   0  0  2  0  0  3  0  0  0  0  0  0
  191.1000  176.5750  141.0340 C   0  0  0  0  0  2  0  0  0  0  0  0
  191.8200  176.6910  138.2940 C   0  0  0  0  0  3  0  0  0  0  0  0
  190.4070  177.0290  138.7070 C   0  0  1  0  0  3  0  0  0  0  0  0
  189.3730  175.9310  138.3800 C   0  0  0  0  0  2  0  0  0  0  0  0
  188.3780  174.4480  136.3240 Cl  0  0  0  0  0  0  0  0  0  0  0  0
  190.8630  175.5540  136.3440 C   0  0  0  0  0  2  0  0  0  0  0  0
  189.8020  174.9560  137.2690 C   0  0  1  0  0  3  0  0  0  0  0  0
  192.0350  176.0010  137.1680 C   0  0  0  0  0  3  0  0  0  0  0  0
  189.2020  176.8680  145.5280 C   0  0  1  0  0  3  0  0  0  0  0  0
  190.1190  177.4300  146.4390 O   0  0  0  0  0  0  0  0  0  0  0  0
  188.8050  177.2440  146.9250 C   0  0  1  0  0  3  0  0  0  0  0  0
  188.1460  178.6040  147.0700 C   0  0  0  0  0  2  0  0  0  0  0  0
  186.7730  178.4580  147.6920 C   0  0  0  0  0  2  0  0  0  0  0  0
  185.9720  179.5400  147.3170 O   0  0  0  0  0  1  0  0  0  0  0  0
  184.1570  179.9840  139.1090 C   0  0  0  0  0  2  0  0  0  0  0  0
  182.7970  180.0750  138.7900 O   0  0  0  0  0  1  0  0  0  0  0  0
  183.6360  178.8800  145.0270 C   0  0  0  0  0  1  0  0  0  0  0  0
  183.0170  178.7850  143.6420 C   0  0  0  0  0  2  0  0  0  0  0  0
  1  3  1  0  0  0  0
  2 15  1  1  0  0  0
  2  6  1  0  0  0  0
  3 37  1  0  0  0  0
  4  7  1  0  0  0  0
  5 16  1  0  0  0  0
  5  2  1  0  0  0  0
  6 28  1  0  0  0  0
  7  5  1  0  0  0  0
  8  3  1  0  0  0  0
  9 12  1  0  0  0  0
  9  6  1  0  0  0  0
 10 15  1  0  0  0  0
 13 18  1  0  0  0  0
 13  8  1  0  0  0  0
 14  4  1  0  0  0  0
 14 18  1  0  0  0  0
 15 11  2  0  0  0  0
 16  9  1  0  0  0  0
 17  7  1  0  0  0  0
 17 20  1  0  0  0  0
 18 19  1  0  0  0  0
 19  1  1  0  0  0  0
 19 16  1  0  0  0  0
 20 10  1  0  0  0  0
 21 22  1  0  0  0  0
 22 17  1  0  0  0  0
 23 22  1  0  0  0  0
 24 26  1  0  0  0  0
 25 27  1  0  0  0  0
 25 26  1  0  0  0  0
 26 23  1  0  0  0  0
 27 21  2  0  0  0  0
 28 29  1  0  0  0  0
 28 30  1  0  0  0  0
 29 30  1  0  0  0  0
 30 31  1  0  0  0  0
 31 32  1  0  0  0  0
 33 32  1  0  0  0  0
 34 13  1  0  0  0  0
 35 34  1  0  0  0  0
 37 36  1  0  0  0  0
M  END
>  <MODEL>
3

>  <REMARK>
 VINA RESULT:      -7.2      2.862      6.705
  Name = 
  6 active torsions:
  status: ('A' for Active; 'I' for Inactive)
    1  A    between atoms: C_3  and  C_21
    2  A    between atoms: C_3  and  C_30
    3  A    between atoms: N_5  and  C_23
    4  A    between atoms: C_6  and  C_31
    5  A    between atoms: C_9  and  C_13
    6  A    between atoms: C_11  and  C_26
                            x       y       z     vdW  Elec       q    Type
                         _______ _______ _______ _____ _____    ______ ____

>  <TORSDO>
F 6

$$$$
=
 OpenBabel10272414443D

 37 42  0  0  1  0  0  0  0  0999 V2000
  185.3280  177.1200  138.0450 C   0  0  0  0  0  2  0  0  0  0  0  0
  184.4790  178.5070  142.4850 C   0  0  2  0  0  3  0  0  0  0  0  0
  185.5810  178.0680  136.9740 N   0  0  0  0  0  0  0  0  0  0  0  0
  188.1600  178.6780  141.2860 C   0  0  0  0  0  2  0  0  0  0  0  0
  185.7020  178.7890  141.6190 C   0  0  1  0  0  3  0  0  0  0  0  0
  183.2860  178.7830  141.5930 C   0  0  1  0  0  3  0  0  0  0  0  0
  187.0040  178.0820  142.0830 C   0  0  2  0  0  3  0  0  0  0  0  0
  186.9300  177.8070  136.4660 C   0  0  0  0  0  2  0  0  0  0  0  0
  183.7240  178.2630  140.2280 C   0  0  2  0  0  3  0  0  0  0  0  0
  185.2660  178.8380  144.9250 C   0  0  0  0  0  2  0  0  0  0  0  0
  184.0950  180.4890  143.7210 O   0  0  0  0  0  0  0  0  0  0  0  0
  183.4700  176.8870  140.1370 O   0  0  0  0  0  1  0  0  0  0  0  0
  187.9890  177.7290  137.5920 C   0  0  2  0  0  3  0  0  0  0  0  0
  188.4390  177.8540  140.0470 C   0  0  0  0  0  2  0  0  0  0  0  0
  184.5150  179.3430  143.7310 C   0  0  0  0  0  0  0  0  0  0  0  0
  185.2390  178.5460  140.1620 C   0  0  2  0  0  3  0  0  0  0  0  0
  187.3300  178.2530  143.6030 C   0  0  1  0  0  3  0  0  0  0  0  0
  187.4360  178.1890  138.9570 C   0  0  2  0  0  3  0  0  0  0  0  0
  186.0760  177.5590  139.3140 C   0  0  2  0  0  3  0  0  0  0  0  0
  186.2380  177.7260  144.5380 C   0  0  0  0  0  2  0  0  0  0  0  0
  189.8760  178.2670  143.4530 C   0  0  0  0  0  3  0  0  0  0  0  0
  188.6520  177.5950  144.0300 C   0  0  1  0  0  3  0  0  0  0  0  0
  188.7250  177.3460  145.5510 C   0  0  0  0  0  2  0  0  0  0  0  0
  190.2410  176.1500  147.4710 Cl  0  0  0  0  0  0  0  0  0  0  0  0
  191.2050  176.9920  145.0700 C   0  0  0  0  0  2  0  0  0  0  0  0
  190.1510  177.3210  146.1290 C   0  0  1  0  0  3  0  0  0  0  0  0
  191.0860  177.9720  143.9410 C   0  0  0  0  0  3  0  0  0  0  0  0
  182.0140  178.1030  142.1090 C   0  0  1  0  0  3  0  0  0  0  0  0
  181.2560  178.9970  142.8900 O   0  0  0  0  0  0  0  0  0  0  0  0
  180.7250  178.6930  141.6160 C   0  0  1  0  0  3  0  0  0  0  0  0
  180.8680  179.9150  140.7270 C   0  0  0  0  0  2  0  0  0  0  0  0
  180.0260  179.7570  139.4780 C   0  0  0  0  0  2  0  0  0  0  0  0
  180.7010  178.9500  138.5580 O   0  0  0  0  0  1  0  0  0  0  0  0
  189.2280  178.5480  137.1940 C   0  0  0  0  0  2  0  0  0  0  0  0
  188.9630  179.9130  137.3460 O   0  0  0  0  0  1  0  0  0  0  0  0
  183.3320  177.2880  136.5160 C   0  0  0  0  0  1  0  0  0  0  0  0
  184.6440  177.7550  135.9080 C   0  0  0  0  0  2  0  0  0  0  0  0
  1 19  1  0  0  0  0
  2 15  1  1  0  0  0
  3  1  1  0  0  0  0
  4  7  1  0  0  0  0
  5  7  1  0  0  0  0
  5  2  1  0  0  0  0
  6 28  1  0  0  0  0
  6  2  1  0  0  0  0
  7 17  1  0  0  0  0
  8  3  1  0  0  0  0
  8 13  1  0  0  0  0
  9  6  1  0  0  0  0
 11 15  2  0  0  0  0
 12  9  1  0  0  0  0
 13 18  1  0  0  0  0
 14  4  1  0  0  0  0
 15 10  1  0  0  0  0
 16  9  1  0  0  0  0
 16  5  1  0  0  0  0
 17 22  1  0  0  0  0
 17 20  1  0  0  0  0
 18 19  1  0  0  0  0
 18 14  1  0  0  0  0
 19 16  1  0  0  0  0
 20 10  1  0  0  0  0
 21 27  2  0  0  0  0
 21 22  1  0  0  0  0
 22 23  1  0  0  0  0
 23 26  1  0  0  0  0
 25 26  1  0  0  0  0
 26 24  1  0  0  0  0
 27 25  1  0  0  0  0
 28 29  1  0  0  0  0
 30 28  1  0  0  0  0
 30 29  1  0  0  0  0
 31 30  1  0  0  0  0
 32 31  1  0  0  0  0
 33 32  1  0  0  0  0
 34 35  1  0  0  0  0
 34 13  1  0  0  0  0
 37 36  1  0  0  0  0
 37  3  1  0  0  0  0
M  END
>  <MODEL>
4

>  <REMARK>
 VINA RESULT:      -6.6      3.549      8.775
  Name = 
  6 active torsions:
  status: ('A' for Active; 'I' for Inactive)
    1  A    between atoms: C_3  and  C_21
    2  A    between atoms: C_3  and  C_30
    3  A    between atoms: N_5  and  C_23
    4  A    between atoms: C_6  and  C_31
    5  A    between atoms: C_9  and  C_13
    6  A    between atoms: C_11  and  C_26
                            x       y       z     vdW  Elec       q    Type
                         _______ _______ _______ _____ _____    ______ ____

>  <TORSDO>
F 6

$$$$
=
 OpenBabel10272414443D

 37 42  0  0  1  0  0  0  0  0999 V2000
  188.3590  178.6920  140.2030 C   0  0  0  0  0  2  0  0  0  0  0  0
  188.7140  176.3060  136.1360 C   0  0  2  0  0  3  0  0  0  0  0  0
  187.9080  178.0620  141.4310 N   0  0  0  0  0  0  0  0  0  0  0  0
  191.4890  175.6760  138.7670 C   0  0  0  0  0  2  0  0  0  0  0  0
  189.4010  176.0220  137.4670 C   0  0  1  0  0  3  0  0  0  0  0  0
  187.2640  176.5710  136.4850 C   0  0  1  0  0  3  0  0  0  0  0  0
  190.9370  176.2580  137.4690 C   0  0  2  0  0  3  0  0  0  0  0  0
  189.0040  178.1540  142.4000 C   0  0  0  0  0  2  0  0  0  0  0  0
  187.3410  177.3530  137.7920 C   0  0  2  0  0  3  0  0  0  0  0  0
  190.1520  175.1190  134.3460 C   0  0  0  0  0  2  0  0  0  0  0  0
  188.1760  174.1880  135.2270 O   0  0  0  0  0  0  0  0  0  0  0  0
  187.5230  178.7170  137.5230 O   0  0  0  0  0  1  0  0  0  0  0  0
  190.3550  177.6650  141.8220 C   0  0  2  0  0  3  0  0  0  0  0  0
  191.5660  176.7400  139.8420 C   0  0  0  0  0  2  0  0  0  0  0  0
  188.9140  175.1600  135.1880 C   0  0  0  0  0  0  0  0  0  0  0  0
  188.5640  176.7720  138.5310 C   0  0  2  0  0  3  0  0  0  0  0  0
  191.6980  175.5870  136.2800 C   0  0  1  0  0  3  0  0  0  0  0  0
  190.1960  176.9650  140.4560 C   0  0  2  0  0  3  0  0  0  0  0  0
  189.3200  177.7510  139.4610 C   0  0  2  0  0  3  0  0  0  0  0  0
  191.2290  176.0490  134.8980 C   0  0  0  0  0  2  0  0  0  0  0  0
  193.9940  174.4910  136.4520 C   0  0  0  0  0  3  0  0  0  0  0  0
  193.2220  175.7830  136.3320 C   0  0  1  0  0  3  0  0  0  0  0  0
  193.7360  176.7260  135.2230 C   0  0  0  0  0  2  0  0  0  0  0  0
  195.9690  178.0230  134.3580 Cl  0  0  0  0  0  0  0  0  0  0  0  0
  196.0080  175.7660  135.8760 C   0  0  0  0  0  2  0  0  0  0  0  0
  195.1930  176.4780  134.7940 C   0  0  1  0  0  3  0  0  0  0  0  0
  195.3160  174.4860  136.2450 C   0  0  0  0  0  3  0  0  0  0  0  0
  186.5380  177.3380  135.3750 C   0  0  1  0  0  3  0  0  0  0  0  0
  186.1300  176.4600  134.3510 O   0  0  0  0  0  0  0  0  0  0  0  0
  185.0980  176.9660  135.1740 C   0  0  1  0  0  3  0  0  0  0  0  0
  184.5880  175.8420  136.0570 C   0  0  0  0  0  2  0  0  0  0  0  0
  183.3820  176.3040  136.8500 C   0  0  0  0  0  2  0  0  0  0  0  0
  183.6940  177.4850  137.5300 O   0  0  0  0  0  1  0  0  0  0  0  0
  191.0480  176.7430  142.8370 C   0  0  0  0  0  2  0  0  0  0  0  0
  190.3920  175.5090  142.8830 O   0  0  0  0  0  1  0  0  0  0  0  0
  185.9800  178.0360  142.8990 C   0  0  0  0  0  1  0  0  0  0  0  0
  186.8110  178.8690  141.9370 C   0  0  0  0  0  2  0  0  0  0  0  0
  1  3  1  0  0  0  0
  2 15  1  6  0  0  0
  2  6  1  0  0  0  0
  2  5  1  0  0  0  0
  3 37  1  0  0  0  0
  3  8  1  0  0  0  0
  4 14  1  0  0  0  0
  5  7  1  0  0  0  0
  5 16  1  0  0  0  0
  6  9  1  0  0  0  0
  7  4  1  0  0  0  0
  9 16  1  0  0  0  0
 10 20  1  0  0  0  0
 10 15  1  0  0  0  0
 12  9  1  0  0  0  0
 13  8  1  0  0  0  0
 13 34  1  0  0  0  0
 14 18  1  0  0  0  0
 15 11  2  0  0  0  0
 16 19  1  0  0  0  0
 17 22  1  0  0  0  0
 17  7  1  0  0  0  0
 18 13  1  0  0  0  0
 19  1  1  0  0  0  0
 19 18  1  0  0  0  0
 20 17  1  0  0  0  0
 22 21  1  0  0  0  0
 23 22  1  0  0  0  0
 24 26  1  0  0  0  0
 25 27  1  0  0  0  0
 26 23  1  0  0  0  0
 26 25  1  0  0  0  0
 27 21  2  0  0  0  0
 28  6  1  0  0  0  0
 29 30  1  0  0  0  0
 29 28  1  0  0  0  0
 30 28  1  0  0  0  0
 30 31  1  0  0  0  0
 31 32  1  0  0  0  0
 32 33  1  0  0  0  0
 34 35  1  0  0  0  0
 37 36  1  0  0  0  0
M  END
>  <MODEL>
5

>  <REMARK>
 VINA RESULT:      -6.4      4.057      8.138
  Name = 
  6 active torsions:
  status: ('A' for Active; 'I' for Inactive)
    1  A    between atoms: C_3  and  C_21
    2  A    between atoms: C_3  and  C_30
    3  A    between atoms: N_5  and  C_23
    4  A    between atoms: C_6  and  C_31
    5  A    between atoms: C_9  and  C_13
    6  A    between atoms: C_11  and  C_26
                            x       y       z     vdW  Elec       q    Type
                         _______ _______ _______ _____ _____    ______ ____

>  <TORSDO>
F 6

$$$$
=
 OpenBabel10272414443D

 37 42  0  0  1  0  0  0  0  0999 V2000
  186.3870  176.1170  137.3130 C   0  0  0  0  0  2  0  0  0  0  0  0
  182.7900  177.8360  139.8560 C   0  0  2  0  0  3  0  0  0  0  0  0
  187.0210  176.8850  136.2550 N   0  0  0  0  0  0  0  0  0  0  0  0
  186.3210  179.1890  140.7070 C   0  0  0  0  0  2  0  0  0  0  0  0
  184.1940  178.4070  139.6900 C   0  0  1  0  0  3  0  0  0  0  0  0
  182.3400  177.4720  138.4570 C   0  0  1  0  0  3  0  0  0  0  0  0
  185.0760  178.3460  140.9680 C   0  0  2  0  0  3  0  0  0  0  0  0
  188.4250  177.0740  136.6320 C   0  0  0  0  0  2  0  0  0  0  0  0
  183.6030  176.9260  137.7980 C   0  0  2  0  0  3  0  0  0  0  0  0
  181.8750  178.8690  142.0420 C   0  0  0  0  0  2  0  0  0  0  0  0
  181.3380  179.7050  139.9060 O   0  0  0  0  0  0  0  0  0  0  0  0
  183.7500  175.5650  138.1020 O   0  0  0  0  0  1  0  0  0  0  0  0
  188.5900  177.6090  138.0750 C   0  0  2  0  0  3  0  0  0  0  0  0
  187.4490  178.3290  140.1780 C   0  0  0  0  0  2  0  0  0  0  0  0
  181.8990  178.8280  140.5440 C   0  0  0  0  0  0  0  0  0  0  0  0
  184.7550  177.7510  138.4050 C   0  0  2  0  0  3  0  0  0  0  0  0
  184.3850  178.8950  142.2590 C   0  0  1  0  0  3  0  0  0  0  0  0
  187.2510  178.0560  138.6980 C   0  0  2  0  0  3  0  0  0  0  0  0
  186.1170  177.0270  138.5220 C   0  0  2  0  0  3  0  0  0  0  0  0
  183.0930  178.1650  142.6350 C   0  0  0  0  0  2  0  0  0  0  0  0
  184.5340  178.8820  144.8050 C   0  0  0  0  0  3  0  0  0  0  0  0
  185.2940  178.8800  143.4990 C   0  0  1  0  0  3  0  0  0  0  0  0
  186.3980  177.8050  143.4110 C   0  0  0  0  0  2  0  0  0  0  0  0
  188.6380  176.9050  144.6730 Cl  0  0  0  0  0  0  0  0  0  0  0  0
  186.6400  178.2810  145.9060 C   0  0  0  0  0  2  0  0  0  0  0  0
  186.8980  177.2870  144.7720 C   0  0  1  0  0  3  0  0  0  0  0  0
  185.1760  178.6080  145.9460 C   0  0  0  0  0  3  0  0  0  0  0  0
  181.1900  176.4590  138.4690 C   0  0  1  0  0  3  0  0  0  0  0  0
  179.9840  177.0830  138.8470 O   0  0  0  0  0  0  0  0  0  0  0  0
  180.0890  176.7250  137.4840 C   0  0  1  0  0  3  0  0  0  0  0  0
  180.2450  177.9920  136.6620 C   0  0  0  0  0  2  0  0  0  0  0  0
  180.2330  177.6630  135.1830 C   0  0  0  0  0  2  0  0  0  0  0  0
  181.5360  177.7140  134.6820 O   0  0  0  0  0  1  0  0  0  0  0  0
  189.6140  178.7540  138.0880 C   0  0  0  0  0  2  0  0  0  0  0  0
  189.0380  179.9120  137.5530 O   0  0  0  0  0  1  0  0  0  0  0  0
  188.3960  175.5240  134.7960 C   0  0  0  0  0  1  0  0  0  0  0  0
  186.9970  176.0540  135.0640 C   0  0  0  0  0  2  0  0  0  0  0  0
  1 19  1  0  0  0  0
  2 15  1  6  0  0  0
  3  8  1  0  0  0  0
  3  1  1  0  0  0  0
  4  7  1  0  0  0  0
  5  2  1  0  0  0  0
  5  7  1  0  0  0  0
  6 28  1  0  0  0  0
  6  2  1  0  0  0  0
  7 17  1  0  0  0  0
  8 13  1  0  0  0  0
  9 12  1  0  0  0  0
  9 16  1  0  0  0  0
  9  6  1  0  0  0  0
 10 20  1  0  0  0  0
 11 15  2  0  0  0  0
 13 34  1  0  0  0  0
 13 18  1  0  0  0  0
 14  4  1  0  0  0  0
 15 10  1  0  0  0  0
 16 19  1  0  0  0  0
 16  5  1  0  0  0  0
 17 20  1  0  0  0  0
 17 22  1  0  0  0  0
 18 14  1  0  0  0  0
 19 18  1  0  0  0  0
 21 27  2  0  0  0  0
 22 21  1  0  0  0  0
 23 22  1  0  0  0  0
 23 26  1  0  0  0  0
 24 26  1  0  0  0  0
 25 27  1  0  0  0  0
 26 25  1  0  0  0  0
 28 29  1  0  0  0  0
 30 28  1  0  0  0  0
 30 29  1  0  0  0  0
 31 30  1  0  0  0  0
 32 31  1  0  0  0  0
 33 32  1  0  0  0  0
 35 34  1  0  0  0  0
 36 37  1  0  0  0  0
 37  3  1  0  0  0  0
M  END
>  <MODEL>
6

>  <REMARK>
 VINA RESULT:      -6.1      3.756      8.261
  Name = 
  6 active torsions:
  status: ('A' for Active; 'I' for Inactive)
    1  A    between atoms: C_3  and  C_21
    2  A    between atoms: C_3  and  C_30
    3  A    between atoms: N_5  and  C_23
    4  A    between atoms: C_6  and  C_31
    5  A    between atoms: C_9  and  C_13
    6  A    between atoms: C_11  and  C_26
                            x       y       z     vdW  Elec       q    Type
                         _______ _______ _______ _____ _____    ______ ____

>  <TORSDO>
F 6

$$$$
=
 OpenBabel10272414443D

 37 42  0  0  1  0  0  0  0  0999 V2000
  185.4180  179.3930  139.2500 C   0  0  0  0  0  2  0  0  0  0  0  0
  189.4230  177.0890  138.2460 C   0  0  2  0  0  3  0  0  0  0  0  0
  184.1720  178.6960  139.5180 N   0  0  0  0  0  0  0  0  0  0  0  0
  188.3080  177.0970  141.9580 C   0  0  0  0  0  2  0  0  0  0  0  0
  188.5470  176.9740  139.4890 C   0  0  1  0  0  3  0  0  0  0  0  0
  188.4630  177.0440  137.0760 C   0  0  1  0  0  3  0  0  0  0  0  0
  189.1880  177.5320  140.7900 C   0  0  2  0  0  3  0  0  0  0  0  0
  183.7670  179.0300  140.8860 C   0  0  0  0  0  2  0  0  0  0  0  0
  187.2560  177.8390  137.5630 C   0  0  2  0  0  3  0  0  0  0  0  0
  191.7500  176.2150  138.9550 C   0  0  0  0  0  2  0  0  0  0  0  0
  190.1850  174.8950  137.7910 O   0  0  0  0  0  0  0  0  0  0  0  0
  187.4630  179.2080  137.3370 O   0  0  0  0  0  1  0  0  0  0  0  0
  184.9090  178.8340  141.9120 C   0  0  2  0  0  3  0  0  0  0  0  0
  187.2870  178.1650  142.2880 C   0  0  0  0  0  2  0  0  0  0  0  0
  190.4560  176.0010  138.2310 C   0  0  0  0  0  0  0  0  0  0  0  0
  187.1680  177.5410  139.0740 C   0  0  2  0  0  3  0  0  0  0  0  0
  190.6400  177.0250  141.0670 C   0  0  1  0  0  3  0  0  0  0  0  0
  186.1260  178.1000  141.3120 C   0  0  2  0  0  3  0  0  0  0  0  0
  186.5770  178.6690  139.9530 C   0  0  2  0  0  3  0  0  0  0  0  0
  191.6410  177.3610  139.9580 C   0  0  0  0  0  2  0  0  0  0  0  0
  190.7250  178.9080  142.7860 C   0  0  0  0  0  3  0  0  0  0  0  0
  191.2340  177.5420  142.3880 C   0  0  1  0  0  3  0  0  0  0  0  0
  191.1730  176.4910  143.5160 C   0  0  0  0  0  2  0  0  0  0  0  0
  191.9980  176.0140  146.0670 Cl  0  0  0  0  0  0  0  0  0  0  0  0
  191.6830  178.4990  145.0050 C   0  0  0  0  0  2  0  0  0  0  0  0
  191.1190  177.0790  144.9380 C   0  0  1  0  0  3  0  0  0  0  0  0
  190.9470  179.3640  144.0240 C   0  0  0  0  0  3  0  0  0  0  0  0
  189.0840  177.6250  135.8010 C   0  0  1  0  0  3  0  0  0  0  0  0
  190.0230  176.7290  135.2540 O   0  0  0  0  0  0  0  0  0  0  0  0
  188.8080  176.8550  134.5440 C   0  0  1  0  0  3  0  0  0  0  0  0
  188.0060  175.5790  134.7260 C   0  0  0  0  0  2  0  0  0  0  0  0
  188.8810  174.3690  134.4730 C   0  0  0  0  0  2  0  0  0  0  0  0
  188.3470  173.2590  135.1320 O   0  0  0  0  0  1  0  0  0  0  0  0
  184.3720  178.0930  143.1480 C   0  0  0  0  0  2  0  0  0  0  0  0
  184.3680  178.9520  144.2520 O   0  0  0  0  0  1  0  0  0  0  0  0
  181.9630  178.3440  138.5850 C   0  0  0  0  0  1  0  0  0  0  0  0
  183.1770  179.2570  138.6190 C   0  0  0  0  0  2  0  0  0  0  0  0
  1  3  1  0  0  0  0
  1 19  1  0  0  0  0
  2 15  1  6  0  0  0
  2  5  1  0  0  0  0
  3  8  1  0  0  0  0
  4 14  1  0  0  0  0
  5  7  1  0  0  0  0
  6  9  1  0  0  0  0
  6  2  1  0  0  0  0
  7 17  1  0  0  0  0
  7  4  1  0  0  0  0
  8 13  1  0  0  0  0
  9 16  1  0  0  0  0
 10 20  1  0  0  0  0
 11 15  2  0  0  0  0
 12  9  1  0  0  0  0
 13 34  1  0  0  0  0
 15 10  1  0  0  0  0
 16  5  1  0  0  0  0
 16 19  1  0  0  0  0
 17 22  1  0  0  0  0
 18 13  1  0  0  0  0
 18 14  1  0  0  0  0
 19 18  1  0  0  0  0
 20 17  1  0  0  0  0
 21 27  2  0  0  0  0
 22 21  1  0  0  0  0
 22 23  1  0  0  0  0
 23 26  1  0  0  0  0
 26 25  1  0  0  0  0
 26 24  1  0  0  0  0
 27 25  1  0  0  0  0
 28  6  1  0  0  0  0
 29 28  1  0  0  0  0
 30 31  1  0  0  0  0
 30 29  1  0  0  0  0
 30 28  1  0  0  0  0
 32 31  1  0  0  0  0
 32 33  1  0  0  0  0
 34 35  1  0  0  0  0
 36 37  1  0  0  0  0
 37  3  1  0  0  0  0
M  END
>  <MODEL>
7

>  <REMARK>
 VINA RESULT:      -6.0      3.368      6.826
  Name = 
  6 active torsions:
  status: ('A' for Active; 'I' for Inactive)
    1  A    between atoms: C_3  and  C_21
    2  A    between atoms: C_3  and  C_30
    3  A    between atoms: N_5  and  C_23
    4  A    between atoms: C_6  and  C_31
    5  A    between atoms: C_9  and  C_13
    6  A    between atoms: C_11  and  C_26
                            x       y       z     vdW  Elec       q    Type
                         _______ _______ _______ _____ _____    ______ ____

>  <TORSDO>
F 6

$$$$
=
 OpenBabel10272414443D

 37 42  0  0  1  0  0  0  0  0999 V2000
  190.5890  178.4350  141.7760 C   0  0  0  0  0  2  0  0  0  0  0  0
  187.5190  177.9440  145.3380 C   0  0  2  0  0  3  0  0  0  0  0  0
  191.1140  177.2940  141.0460 N   0  0  0  0  0  0  0  0  0  0  0  0
  186.1070  177.5030  141.7560 C   0  0  0  0  0  2  0  0  0  0  0  0
  187.3760  177.4860  143.8910 C   0  0  1  0  0  3  0  0  0  0  0  0
  188.9090  177.5140  145.7570 C   0  0  1  0  0  3  0  0  0  0  0  0
  186.3060  178.2560  143.0680 C   0  0  2  0  0  3  0  0  0  0  0  0
  190.6970  177.4370  139.6490 C   0  0  0  0  0  2  0  0  0  0  0  0
  189.7560  177.7550  144.5120 C   0  0  2  0  0  3  0  0  0  0  0  0
  185.1090  178.0850  146.2630 C   0  0  0  0  0  2  0  0  0  0  0  0
  186.5260  176.2440  146.6520 O   0  0  0  0  0  0  0  0  0  0  0  0
  190.1830  179.0900  144.4760 O   0  0  0  0  0  1  0  0  0  0  0  0
  189.1820  177.7200  139.5030 C   0  0  2  0  0  3  0  0  0  0  0  0
  187.0010  178.0690  140.6720 C   0  0  0  0  0  2  0  0  0  0  0  0
  186.4210  177.3660  146.1820 C   0  0  0  0  0  0  0  0  0  0  0  0
  188.8170  177.4480  143.3280 C   0  0  2  0  0  3  0  0  0  0  0  0
  184.9140  178.3790  143.7680 C   0  0  1  0  0  3  0  0  0  0  0  0
  188.4150  177.5390  140.8300 C   0  0  2  0  0  3  0  0  0  0  0  0
  189.0850  178.2420  142.0270 C   0  0  2  0  0  3  0  0  0  0  0  0
  184.9570  179.0890  145.1230 C   0  0  0  0  0  2  0  0  0  0  0  0
  183.8090  178.6150  141.4810 C   0  0  0  0  0  3  0  0  0  0  0  0
  183.8540  179.0930  142.9130 C   0  0  1  0  0  3  0  0  0  0  0  0
  182.4750  179.1470  143.6040 C   0  0  0  0  0  2  0  0  0  0  0  0
  179.9820  180.2170  143.3630 Cl  0  0  0  0  0  0  0  0  0  0  0  0
  181.6650  179.7840  141.2700 C   0  0  0  0  0  2  0  0  0  0  0  0
  181.2770  179.2260  142.6410 C   0  0  1  0  0  3  0  0  0  0  0  0
  182.7760  178.9520  140.7010 C   0  0  0  0  0  3  0  0  0  0  0  0
  189.4090  178.2960  146.9770 C   0  0  1  0  0  3  0  0  0  0  0  0
  188.9840  177.6770  148.1700 O   0  0  0  0  0  0  0  0  0  0  0  0
  190.3600  177.5540  147.8690 C   0  0  1  0  0  3  0  0  0  0  0  0
  190.6400  176.1160  147.4680 C   0  0  0  0  0  2  0  0  0  0  0  0
  192.1100  175.9390  147.1480 C   0  0  0  0  0  2  0  0  0  0  0  0
  192.8770  176.2640  148.2700 O   0  0  0  0  0  1  0  0  0  0  0  0
  188.5930  176.8260  138.4000 C   0  0  0  0  0  2  0  0  0  0  0  0
  189.6080  176.0630  137.8140 O   0  0  0  0  0  1  0  0  0  0  0  0
  193.1090  177.2730  139.6700 C   0  0  0  0  0  1  0  0  0  0  0  0
  192.5630  177.4040  141.0820 C   0  0  0  0  0  2  0  0  0  0  0  0
  1 19  1  0  0  0  0
  2  6  1  0  0  0  0
  2 15  1  1  0  0  0
  3 37  1  0  0  0  0
  3  1  1  0  0  0  0
  4  7  1  0  0  0  0
  5  2  1  0  0  0  0
  6 28  1  0  0  0  0
  7 17  1  0  0  0  0
  7  5  1  0  0  0  0
  8  3  1  0  0  0  0
  9  6  1  0  0  0  0
 12  9  1  0  0  0  0
 13  8  1  0  0  0  0
 13 18  1  0  0  0  0
 14 18  1  0  0  0  0
 14  4  1  0  0  0  0
 15 10  1  0  0  0  0
 15 11  2  0  0  0  0
 16  5  1  0  0  0  0
 16  9  1  0  0  0  0
 17 20  1  0  0  0  0
 18 19  1  0  0  0  0
 19 16  1  0  0  0  0
 20 10  1  0  0  0  0
 21 22  1  0  0  0  0
 22 23  1  0  0  0  0
 22 17  1  0  0  0  0
 25 26  1  0  0  0  0
 26 24  1  0  0  0  0
 26 23  1  0  0  0  0
 27 25  1  0  0  0  0
 27 21  2  0  0  0  0
 28 30  1  0  0  0  0
 28 29  1  0  0  0  0
 30 29  1  0  0  0  0
 31 30  1  0  0  0  0
 32 31  1  0  0  0  0
 32 33  1  0  0  0  0
 34 13  1  0  0  0  0
 35 34  1  0  0  0  0
 36 37  1  0  0  0  0
M  END
>  <MODEL>
8

>  <REMARK>
 VINA RESULT:      -5.9      2.722      6.325
  Name = 
  6 active torsions:
  status: ('A' for Active; 'I' for Inactive)
    1  A    between atoms: C_3  and  C_21
    2  A    between atoms: C_3  and  C_30
    3  A    between atoms: N_5  and  C_23
    4  A    between atoms: C_6  and  C_31
    5  A    between atoms: C_9  and  C_13
    6  A    between atoms: C_11  and  C_26
                            x       y       z     vdW  Elec       q    Type
                         _______ _______ _______ _____ _____    ______ ____

>  <TORSDO>
F 6

$$$$
=
 OpenBabel10272414443D

 37 42  0  0  1  0  0  0  0  0999 V2000
  185.5060  179.4820  141.0270 C   0  0  0  0  0  2  0  0  0  0  0  0
  189.5240  177.2330  142.1040 C   0  0  2  0  0  3  0  0  0  0  0  0
  184.2750  178.7670  140.7350 N   0  0  0  0  0  0  0  0  0  0  0  0
  186.8320  177.4080  144.8860 C   0  0  0  0  0  2  0  0  0  0  0  0
  188.1750  177.1610  142.8120 C   0  0  1  0  0  3  0  0  0  0  0  0
  189.2060  177.1000  140.6290 C   0  0  1  0  0  3  0  0  0  0  0  0
  188.1500  177.8030  144.2270 C   0  0  2  0  0  3  0  0  0  0  0  0
  183.2890  179.1630  141.7440 C   0  0  0  0  0  2  0  0  0  0  0  0
  187.9110  177.8890  140.4620 C   0  0  2  0  0  3  0  0  0  0  0  0
  191.2670  176.4580  143.8480 C   0  0  0  0  0  2  0  0  0  0  0  0
  190.4060  175.0380  142.1780 O   0  0  0  0  0  0  0  0  0  0  0  0
  188.2010  179.2480  140.2750 O   0  0  0  0  0  1  0  0  0  0  0  0
  183.8330  179.0520  143.1890 C   0  0  2  0  0  3  0  0  0  0  0  0
  185.7750  178.4650  144.6490 C   0  0  0  0  0  2  0  0  0  0  0  0
  190.4480  176.1720  142.6260 C   0  0  0  0  0  0  0  0  0  0  0  0
  187.1410  177.6690  141.7800 C   0  0  2  0  0  3  0  0  0  0  0  0
  189.3130  177.3490  145.1670 C   0  0  1  0  0  3  0  0  0  0  0  0
  185.1900  178.3190  143.2560 C   0  0  2  0  0  3  0  0  0  0  0  0
  186.2140  178.8270  142.2230 C   0  0  2  0  0  3  0  0  0  0  0  0
  190.7110  177.6510  144.6210 C   0  0  0  0  0  2  0  0  0  0  0  0
  187.9760  177.5840  147.3260 C   0  0  0  0  0  3  0  0  0  0  0  0
  189.2370  177.9510  146.5800 C   0  0  1  0  0  3  0  0  0  0  0  0
  190.5340  177.7340  147.3870 C   0  0  0  0  0  2  0  0  0  0  0  0
  191.7620  178.4130  149.7210 Cl  0  0  0  0  0  0  0  0  0  0  0  0
  189.0650  178.4130  149.3590 C   0  0  0  0  0  2  0  0  0  0  0  0
  190.3420  177.6980  148.9130 C   0  0  1  0  0  3  0  0  0  0  0  0
  187.8920  177.8130  148.6410 C   0  0  0  0  0  3  0  0  0  0  0  0
  190.3420  177.6290  139.7470 C   0  0  1  0  0  3  0  0  0  0  0  0
  191.2560  176.5990  139.4450 O   0  0  0  0  0  0  0  0  0  0  0  0
  190.4300  177.0210  138.3780 C   0  0  1  0  0  3  0  0  0  0  0  0
  189.4180  175.9260  138.0880 C   0  0  0  0  0  2  0  0  0  0  0  0
  189.9390  175.0050  137.0040 C   0  0  0  0  0  2  0  0  0  0  0  0
  190.5860  173.9130  137.5890 O   0  0  0  0  0  1  0  0  0  0  0  0
  182.7900  178.3640  144.0830 C   0  0  0  0  0  2  0  0  0  0  0  0
  181.5140  178.5210  143.5320 O   0  0  0  0  0  1  0  0  0  0  0  0
  184.4910  178.4780  138.3390 C   0  0  0  0  0  1  0  0  0  0  0  0
  183.8040  179.2540  139.4500 C   0  0  0  0  0  2  0  0  0  0  0  0
  1 19  1  0  0  0  0
  2 15  1  1  0  0  0
  2  5  1  0  0  0  0
  3  1  1  0  0  0  0
  3  8  1  0  0  0  0
  5  7  1  0  0  0  0
  6  2  1  0  0  0  0
  7  4  1  0  0  0  0
  7 17  1  0  0  0  0
  8 13  1  0  0  0  0
  9  6  1  0  0  0  0
  9 16  1  0  0  0  0
 10 20  1  0  0  0  0
 11 15  2  0  0  0  0
 12  9  1  0  0  0  0
 13 18  1  0  0  0  0
 13 34  1  0  0  0  0
 14  4  1  0  0  0  0
 15 10  1  0  0  0  0
 16 19  1  0  0  0  0
 16  5  1  0  0  0  0
 17 22  1  0  0  0  0
 18 14  1  0  0  0  0
 19 18  1  0  0  0  0
 20 17  1  0  0  0  0
 21 27  2  0  0  0  0
 22 21  1  0  0  0  0
 22 23  1  0  0  0  0
 23 26  1  0  0  0  0
 26 25  1  0  0  0  0
 26 24  1  0  0  0  0
 27 25  1  0  0  0  0
 28  6  1  0  0  0  0
 29 28  1  0  0  0  0
 30 29  1  0  0  0  0
 30 28  1  0  0  0  0
 31 30  1  0  0  0  0
 32 33  1  0  0  0  0
 32 31  1  0  0  0  0
 35 34  1  0  0  0  0
 36 37  1  0  0  0  0
 37  3  1  0  0  0  0
M  END
>  <MODEL>
9

>  <REMARK>
 VINA RESULT:      -5.8      3.385      7.091
  Name = 
  6 active torsions:
  status: ('A' for Active; 'I' for Inactive)
    1  A    between atoms: C_3  and  C_21
    2  A    between atoms: C_3  and  C_30
    3  A    between atoms: N_5  and  C_23
    4  A    between atoms: C_6  and  C_31
    5  A    between atoms: C_9  and  C_13
    6  A    between atoms: C_11  and  C_26
                            x       y       z     vdW  Elec       q    Type
                         _______ _______ _______ _____ _____    ______ ____

>  <TORSDO>
F 6

$$$$
