=
 OpenBabel10272415203D

 34 37  0  0  0  0  0  0  0  0999 V2000
  186.8770  177.7090  144.7370 C   0  0  0  0  0  0  0  0  0  0  0  0
  183.5030  179.1110  144.0520 C   0  0  0  0  0  3  0  0  0  0  0  0
  184.8610  179.1560  146.0070 N   0  0  0  0  0  0  0  0  0  0  0  0
  189.1150  176.7570  144.2250 C   0  0  0  0  0  0  0  0  0  0  0  0
  187.8330  176.8780  144.0560 N   0  0  0  0  0  0  0  0  0  0  0  0
  189.4990  177.9810  146.3590 C   0  0  0  0  0  3  0  0  0  0  0  0
  188.0650  177.6380  148.3090 C   0  0  0  0  0  1  0  0  0  0  0  0
  189.9110  177.5380  145.1800 C   0  0  0  0  0  3  0  0  0  0  0  0
  185.9880  178.8370  146.6910 C   0  0  0  0  0  3  0  0  0  0  0  0
  187.0230  178.1080  146.0850 C   0  0  0  0  0  0  0  0  0  0  0  0
  188.1820  177.7750  146.8650 N   0  0  0  0  0  0  0  0  0  0  0  0
  183.3070  178.7110  142.7270 C   0  0  0  0  0  0  0  0  0  0  0  0
  184.2980  177.9860  142.0630 C   0  0  0  0  0  3  0  0  0  0  0  0
  184.6850  178.7780  144.7180 C   0  0  0  0  0  0  0  0  0  0  0  0
  185.4820  177.6480  142.7240 C   0  0  0  0  0  3  0  0  0  0  0  0
  185.6890  178.0390  144.0560 C   0  0  0  0  0  0  0  0  0  0  0  0
  190.0080  175.6600  143.1310 S   0  0  0  0  0  0  0  0  0  0  0  0
  188.4100  178.4090  140.6800 C   0  0  0  0  0  3  0  0  0  0  0  0
  190.4590  176.5490  140.5510 C   0  0  0  0  0  3  0  0  0  0  0  0
  189.1610  178.3000  139.5050 C   0  0  0  0  0  0  0  0  0  0  0  0
  190.1950  177.3540  139.4350 C   0  0  0  0  0  0  0  0  0  0  0  0
  189.6880  176.6910  141.7050 C   0  0  0  0  0  0  0  0  0  0  0  0
  188.6860  177.6110  141.7450 N   0  0  0  0  0  0  0  0  0  0  0  0
  190.9400  177.2280  138.2560 O   0  0  0  0  0  0  0  0  0  0  0  0
  192.1390  176.4700  138.1830 C   0  0  0  0  0  1  0  0  0  0  0  0
  188.8270  179.1640  138.3370 C   0  0  0  0  0  2  0  0  0  0  0  0
  188.1230  178.3800  137.3340 N   0  0  0  0  0  2  0  0  0  0  0  0
  186.7020  178.2680  137.3230 C   0  0  0  0  0  0  0  0  0  0  0  0
  186.0380  177.4360  136.2880 C   0  0  0  0  0  1  0  0  0  0  0  0
  186.0030  178.8750  138.1780 O   0  0  0  0  0  0  0  0  0  0  0  0
  182.0510  179.0820  142.0160 C   0  0  0  0  0  2  0  0  0  0  0  0
  180.7220  177.6520  140.7370 C   0  0  0  0  0  1  0  0  0  0  0  0
  181.8580  179.4090  139.7190 C   0  0  0  0  0  1  0  0  0  0  0  0
  181.9740  178.3880  140.7430 N   0  0  0  0  0  0  0  0  0  0  0  0
  1 10  1  0  0  0  0
  2 14  1  0  0  0  0
  3  9  1  0  0  0  0
  4  8  1  0  0  0  0
  5  4  2  0  0  0  0
  5  1  1  0  0  0  0
  6 11  1  0  0  0  0
  8  6  2  0  0  0  0
 10  9  2  0  0  0  0
 10 11  1  0  0  0  0
 11  7  1  0  0  0  0
 12  2  2  0  0  0  0
 13 15  2  0  0  0  0
 13 12  1  0  0  0  0
 14  3  2  0  0  0  0
 15 16  1  0  0  0  0
 16 14  1  0  0  0  0
 16  1  2  0  0  0  0
 17  4  1  0  0  0  0
 18 23  1  0  0  0  0
 19 22  1  0  0  0  0
 20 18  2  0  0  0  0
 21 20  1  0  0  0  0
 21 19  2  0  0  0  0
 22 23  2  0  0  0  0
 22 17  1  0  0  0  0
 24 21  1  0  0  0  0
 25 24  1  0  0  0  0
 26 20  1  0  0  0  0
 27 26  1  0  0  0  0
 28 27  1  0  0  0  0
 28 30  2  0  0  0  0
 29 28  1  0  0  0  0
 31 12  1  0  0  0  0
 32 34  1  0  0  0  0
 33 34  1  0  0  0  0
 34 31  1  0  0  0  0
M  END
>  <MODEL>
1

>  <REMARK>
 VINA RESULT:      -9.0      0.000      0.000
  Name = 
  7 active torsions:
  status: ('A' for Active; 'I' for Inactive)
    1  A    between atoms: N_7  and  C_14
    2  A    between atoms: C_8  and  S_18
    3  A    between atoms: C_14  and  C_16
    4  A    between atoms: S_18  and  C_30
    5  A    between atoms: C_23  and  N_24
    6  A    between atoms: C_23  and  C_25
    7  A    between atoms: O_26  and  C_28
                            x       y       z     vdW  Elec       q    Type
                         _______ _______ _______ _____ _____    ______ ____

>  <TORSDO>
F 7

$$$$
=
 OpenBabel10272415203D

 34 37  0  0  0  0  0  0  0  0999 V2000
  188.0560  177.7570  142.6410 C   0  0  0  0  0  0  0  0  0  0  0  0
  190.5980  176.6850  140.1490 C   0  0  0  0  0  3  0  0  0  0  0  0
  190.5440  176.5050  142.5220 N   0  0  0  0  0  0  0  0  0  0  0  0
  185.8380  178.4930  143.4870 C   0  0  0  0  0  0  0  0  0  0  0  0
  186.8220  178.4950  142.6390 N   0  0  0  0  0  0  0  0  0  0  0  0
  186.7860  177.2320  145.4140 C   0  0  0  0  0  3  0  0  0  0  0  0
  189.0220  177.7040  146.2800 C   0  0  0  0  0  1  0  0  0  0  0  0
  185.7610  177.6380  144.6770 C   0  0  0  0  0  3  0  0  0  0  0  0
  189.9560  176.7120  143.7270 C   0  0  0  0  0  3  0  0  0  0  0  0
  188.7050  177.3420  143.8260 C   0  0  0  0  0  0  0  0  0  0  0  0
  188.1430  177.5610  145.1280 N   0  0  0  0  0  0  0  0  0  0  0  0
  190.0030  177.1050  138.9560 C   0  0  0  0  0  0  0  0  0  0  0  0
  188.7570  177.7350  138.9820 C   0  0  0  0  0  3  0  0  0  0  0  0
  189.9530  176.9010  141.3690 C   0  0  0  0  0  0  0  0  0  0  0  0
  188.1080  177.9560  140.1990 C   0  0  0  0  0  3  0  0  0  0  0  0
  188.6970  177.5430  141.4050 C   0  0  0  0  0  0  0  0  0  0  0  0
  184.4100  179.5040  143.1200 S   0  0  0  0  0  0  0  0  0  0  0  0
  184.8190  179.0870  139.1490 C   0  0  0  0  0  3  0  0  0  0  0  0
  183.5750  177.6990  141.1980 C   0  0  0  0  0  3  0  0  0  0  0  0
  184.1150  177.9160  138.8510 C   0  0  0  0  0  0  0  0  0  0  0  0
  183.4780  177.2140  139.8860 C   0  0  0  0  0  0  0  0  0  0  0  0
  184.2900  178.8700  141.4520 C   0  0  0  0  0  0  0  0  0  0  0  0
  184.8930  179.5350  140.4290 N   0  0  0  0  0  0  0  0  0  0  0  0
  182.7570  176.0510  139.5940 O   0  0  0  0  0  0  0  0  0  0  0  0
  181.3380  176.0010  139.6160 C   0  0  0  0  0  1  0  0  0  0  0  0
  184.0210  177.4540  137.4360 C   0  0  0  0  0  2  0  0  0  0  0  0
  185.3520  177.1640  136.9270 N   0  0  0  0  0  2  0  0  0  0  0  0
  185.8770  175.8390  136.8960 C   0  0  0  0  0  0  0  0  0  0  0  0
  187.2520  175.6050  136.3840 C   0  0  0  0  0  1  0  0  0  0  0  0
  185.1840  174.8640  137.2890 O   0  0  0  0  0  0  0  0  0  0  0  0
  190.6870  176.8570  137.6560 C   0  0  0  0  0  2  0  0  0  0  0  0
  191.1140  174.6530  137.0210 C   0  0  0  0  0  1  0  0  0  0  0  0
  192.8550  176.1930  137.1260 C   0  0  0  0  0  1  0  0  0  0  0  0
  191.6370  175.7670  137.7900 N   0  0  0  0  0  0  0  0  0  0  0  0
  1 10  1  0  0  0  0
  2 14  1  0  0  0  0
  3  9  1  0  0  0  0
  4  8  1  0  0  0  0
  5  1  1  0  0  0  0
  5  4  2  0  0  0  0
  8  6  2  0  0  0  0
  9 10  2  0  0  0  0
 10 11  1  0  0  0  0
 11  6  1  0  0  0  0
 11  7  1  0  0  0  0
 12 13  1  0  0  0  0
 12  2  2  0  0  0  0
 13 15  2  0  0  0  0
 14 16  1  0  0  0  0
 14  3  2  0  0  0  0
 15 16  1  0  0  0  0
 16  1  2  0  0  0  0
 17  4  1  0  0  0  0
 18 23  1  0  0  0  0
 19 22  1  0  0  0  0
 20 18  2  0  0  0  0
 20 21  1  0  0  0  0
 21 19  2  0  0  0  0
 22 17  1  0  0  0  0
 23 22  2  0  0  0  0
 24 25  1  0  0  0  0
 24 21  1  0  0  0  0
 26 20  1  0  0  0  0
 27 26  1  0  0  0  0
 28 27  1  0  0  0  0
 28 30  2  0  0  0  0
 29 28  1  0  0  0  0
 31 34  1  0  0  0  0
 31 12  1  0  0  0  0
 32 34  1  0  0  0  0
 33 34  1  0  0  0  0
M  END
>  <MODEL>
2

>  <REMARK>
 VINA RESULT:      -8.4      2.476      6.303
  Name = 
  7 active torsions:
  status: ('A' for Active; 'I' for Inactive)
    1  A    between atoms: N_7  and  C_14
    2  A    between atoms: C_8  and  S_18
    3  A    between atoms: C_14  and  C_16
    4  A    between atoms: S_18  and  C_30
    5  A    between atoms: C_23  and  N_24
    6  A    between atoms: C_23  and  C_25
    7  A    between atoms: O_26  and  C_28
                            x       y       z     vdW  Elec       q    Type
                         _______ _______ _______ _____ _____    ______ ____

>  <TORSDO>
F 7

$$$$
=
 OpenBabel10272415203D

 34 37  0  0  0  0  0  0  0  0999 V2000
  184.4320  178.3570  139.1690 C   0  0  0  0  0  0  0  0  0  0  0  0
  183.3250  178.5440  142.7130 C   0  0  0  0  0  3  0  0  0  0  0  0
  182.1660  177.9160  140.7310 N   0  0  0  0  0  0  0  0  0  0  0  0
  186.0230  178.2540  137.2630 C   0  0  0  0  0  0  0  0  0  0  0  0
  185.6050  178.6970  138.4100 N   0  0  0  0  0  0  0  0  0  0  0  0
  184.0560  176.9810  136.4230 C   0  0  0  0  0  3  0  0  0  0  0  0
  181.7950  177.9040  136.5200 C   0  0  0  0  0  1  0  0  0  0  0  0
  185.3620  177.2060  136.4780 C   0  0  0  0  0  3  0  0  0  0  0  0
  182.1040  177.7170  139.3910 C   0  0  0  0  0  3  0  0  0  0  0  0
  183.2240  177.9320  138.5720 C   0  0  0  0  0  0  0  0  0  0  0  0
  183.0930  177.7320  137.1570 N   0  0  0  0  0  0  0  0  0  0  0  0
  184.4930  178.9910  143.3390 C   0  0  0  0  0  0  0  0  0  0  0  0
  185.6450  179.2210  142.5840 C   0  0  0  0  0  3  0  0  0  0  0  0
  183.3050  178.3340  141.3320 C   0  0  0  0  0  0  0  0  0  0  0  0
  185.6310  179.0150  141.2020 C   0  0  0  0  0  3  0  0  0  0  0  0
  184.4640  178.5710  140.5610 C   0  0  0  0  0  0  0  0  0  0  0  0
  187.5880  178.8630  136.6470 S   0  0  0  0  0  0  0  0  0  0  0  0
  189.1130  178.2160  140.3030 C   0  0  0  0  0  3  0  0  0  0  0  0
  189.2690  177.0050  137.8170 C   0  0  0  0  0  3  0  0  0  0  0  0
  189.8980  177.0690  140.1510 C   0  0  0  0  0  0  0  0  0  0  0  0
  189.9850  176.4570  138.8910 C   0  0  0  0  0  0  0  0  0  0  0  0
  188.4950  178.1490  138.0130 C   0  0  0  0  0  0  0  0  0  0  0  0
  188.4340  178.7270  139.2430 N   0  0  0  0  0  0  0  0  0  0  0  0
  190.7830  175.3190  138.7270 O   0  0  0  0  0  0  0  0  0  0  0  0
  191.8820  175.2750  137.8280 C   0  0  0  0  0  1  0  0  0  0  0  0
  190.6590  176.5390  141.3180 C   0  0  0  0  0  2  0  0  0  0  0  0
  189.9170  176.7910  142.5430 N   0  0  0  0  0  2  0  0  0  0  0  0
  190.5330  177.3590  143.6960 C   0  0  0  0  0  0  0  0  0  0  0  0
  189.7310  177.5750  144.9280 C   0  0  0  0  0  1  0  0  0  0  0  0
  191.7490  177.6870  143.6790 O   0  0  0  0  0  0  0  0  0  0  0  0
  184.5140  179.1980  144.8140 C   0  0  0  0  0  2  0  0  0  0  0  0
  185.7990  179.1980  146.7620 C   0  0  0  0  0  1  0  0  0  0  0  0
  186.0180  177.4670  145.2210 C   0  0  0  0  0  1  0  0  0  0  0  0
  185.8350  178.9020  145.3410 N   0  0  0  0  0  0  0  0  0  0  0  0
  1 16  1  0  0  0  0
  2 12  1  0  0  0  0
  3 14  1  0  0  0  0
  4  5  2  0  0  0  0
  5  1  1  0  0  0  0
  6  8  2  0  0  0  0
  6 11  1  0  0  0  0
  7 11  1  0  0  0  0
  8  4  1  0  0  0  0
  9  3  2  0  0  0  0
 10  1  2  0  0  0  0
 10  9  1  0  0  0  0
 11 10  1  0  0  0  0
 12 31  1  0  0  0  0
 13 12  2  0  0  0  0
 14  2  2  0  0  0  0
 15 13  1  0  0  0  0
 16 15  2  0  0  0  0
 16 14  1  0  0  0  0
 17  4  1  0  0  0  0
 17 22  1  0  0  0  0
 19 22  2  0  0  0  0
 19 21  1  0  0  0  0
 20 18  1  0  0  0  0
 20 26  1  0  0  0  0
 21 20  2  0  0  0  0
 22 23  1  0  0  0  0
 23 18  2  0  0  0  0
 24 21  1  0  0  0  0
 25 24  1  0  0  0  0
 26 27  1  0  0  0  0
 27 28  1  0  0  0  0
 28 29  1  0  0  0  0
 30 28  2  0  0  0  0
 31 34  1  0  0  0  0
 33 34  1  0  0  0  0
 34 32  1  0  0  0  0
M  END
>  <MODEL>
3

>  <REMARK>
 VINA RESULT:      -8.1      2.317      6.435
  Name = 
  7 active torsions:
  status: ('A' for Active; 'I' for Inactive)
    1  A    between atoms: N_7  and  C_14
    2  A    between atoms: C_8  and  S_18
    3  A    between atoms: C_14  and  C_16
    4  A    between atoms: S_18  and  C_30
    5  A    between atoms: C_23  and  N_24
    6  A    between atoms: C_23  and  C_25
    7  A    between atoms: O_26  and  C_28
                            x       y       z     vdW  Elec       q    Type
                         _______ _______ _______ _____ _____    ______ ____

>  <TORSDO>
F 7

$$$$
=
 OpenBabel10272415203D

 34 37  0  0  0  0  0  0  0  0999 V2000
  185.6100  178.4800  142.2240 C   0  0  0  0  0  0  0  0  0  0  0  0
  188.5230  177.6990  144.3980 C   0  0  0  0  0  3  0  0  0  0  0  0
  186.2000  177.8830  144.8820 N   0  0  0  0  0  0  0  0  0  0  0  0
  184.3330  178.7620  140.1100 C   0  0  0  0  0  0  0  0  0  0  0  0
  185.3880  178.8770  140.8590 N   0  0  0  0  0  0  0  0  0  0  0  0
  182.5770  178.0930  141.7440 C   0  0  0  0  0  3  0  0  0  0  0  0
  182.3190  179.2360  143.8890 C   0  0  0  0  0  1  0  0  0  0  0  0
  183.0830  178.1100  140.5190 C   0  0  0  0  0  3  0  0  0  0  0  0
  184.9150  178.1230  144.5190 C   0  0  0  0  0  3  0  0  0  0  0  0
  184.5810  178.4290  143.1900 C   0  0  0  0  0  0  0  0  0  0  0  0
  183.2080  178.7010  142.8680 N   0  0  0  0  0  0  0  0  0  0  0  0
  189.5740  177.7670  143.4780 C   0  0  0  0  0  0  0  0  0  0  0  0
  189.3120  178.0630  142.1390 C   0  0  0  0  0  3  0  0  0  0  0  0
  187.2110  177.9360  143.9820 C   0  0  0  0  0  0  0  0  0  0  0  0
  188.0010  178.3020  141.7170 C   0  0  0  0  0  3  0  0  0  0  0  0
  186.9380  178.2420  142.6310 C   0  0  0  0  0  0  0  0  0  0  0  0
  184.4430  179.3150  138.4140 S   0  0  0  0  0  0  0  0  0  0  0  0
  188.0980  177.6990  138.0370 C   0  0  0  0  0  3  0  0  0  0  0  0
  185.4940  176.9320  137.4840 C   0  0  0  0  0  3  0  0  0  0  0  0
  187.8610  176.4400  137.4760 C   0  0  0  0  0  0  0  0  0  0  0  0
  186.5440  176.0510  137.1890 C   0  0  0  0  0  0  0  0  0  0  0  0
  185.7740  178.1790  138.0450 C   0  0  0  0  0  0  0  0  0  0  0  0
  187.0600  178.5340  138.3080 N   0  0  0  0  0  0  0  0  0  0  0  0
  186.3010  174.8000  136.6120 O   0  0  0  0  0  0  0  0  0  0  0  0
  185.7160  173.7230  137.3300 C   0  0  0  0  0  1  0  0  0  0  0  0
  189.0140  175.5480  137.1600 C   0  0  0  0  0  2  0  0  0  0  0  0
  190.2600  176.2770  137.3340 N   0  0  0  0  0  2  0  0  0  0  0  0
  191.4660  175.6270  137.7270 C   0  0  0  0  0  0  0  0  0  0  0  0
  192.7050  176.4260  137.9110 C   0  0  0  0  0  1  0  0  0  0  0  0
  191.4950  174.3810  137.9110 O   0  0  0  0  0  0  0  0  0  0  0  0
  190.9700  177.4980  143.9230 C   0  0  0  0  0  2  0  0  0  0  0  0
  191.8450  175.3410  144.0820 C   0  0  0  0  0  1  0  0  0  0  0  0
  191.7100  176.6860  145.9760 C   0  0  0  0  0  1  0  0  0  0  0  0
  191.0090  176.3130  144.7620 N   0  0  0  0  0  0  0  0  0  0  0  0
  1 16  2  0  0  0  0
  1 10  1  0  0  0  0
  4  8  1  0  0  0  0
  4  5  2  0  0  0  0
  5  1  1  0  0  0  0
  6 11  1  0  0  0  0
  8  6  2  0  0  0  0
  9  3  1  0  0  0  0
 10  9  2  0  0  0  0
 11 10  1  0  0  0  0
 11  7  1  0  0  0  0
 12 31  1  0  0  0  0
 12  2  2  0  0  0  0
 13 12  1  0  0  0  0
 14  2  1  0  0  0  0
 14  3  2  0  0  0  0
 15 13  2  0  0  0  0
 15 16  1  0  0  0  0
 16 14  1  0  0  0  0
 17  4  1  0  0  0  0
 18 23  1  0  0  0  0
 19 22  1  0  0  0  0
 20 18  2  0  0  0  0
 21 20  1  0  0  0  0
 21 19  2  0  0  0  0
 22 23  2  0  0  0  0
 22 17  1  0  0  0  0
 24 21  1  0  0  0  0
 24 25  1  0  0  0  0
 26 27  1  0  0  0  0
 26 20  1  0  0  0  0
 27 28  1  0  0  0  0
 28 30  2  0  0  0  0
 28 29  1  0  0  0  0
 31 34  1  0  0  0  0
 32 34  1  0  0  0  0
 34 33  1  0  0  0  0
M  END
>  <MODEL>
4

>  <REMARK>
 VINA RESULT:      -7.9      2.542      6.259
  Name = 
  7 active torsions:
  status: ('A' for Active; 'I' for Inactive)
    1  A    between atoms: N_7  and  C_14
    2  A    between atoms: C_8  and  S_18
    3  A    between atoms: C_14  and  C_16
    4  A    between atoms: S_18  and  C_30
    5  A    between atoms: C_23  and  N_24
    6  A    between atoms: C_23  and  C_25
    7  A    between atoms: O_26  and  C_28
                            x       y       z     vdW  Elec       q    Type
                         _______ _______ _______ _____ _____    ______ ____

>  <TORSDO>
F 7

$$$$
=
 OpenBabel10272415203D

 34 37  0  0  0  0  0  0  0  0999 V2000
  186.3960  176.9980  137.2480 C   0  0  0  0  0  0  0  0  0  0  0  0
  182.7690  177.7520  137.5590 C   0  0  0  0  0  3  0  0  0  0  0  0
  183.9450  176.2090  136.1790 N   0  0  0  0  0  0  0  0  0  0  0  0
  188.7970  176.9580  137.8920 C   0  0  0  0  0  0  0  0  0  0  0  0
  187.6310  177.5180  137.7700 N   0  0  0  0  0  0  0  0  0  0  0  0
  188.5340  174.8660  136.5670 C   0  0  0  0  0  3  0  0  0  0  0  0
  187.5130  174.8750  134.3460 C   0  0  0  0  0  1  0  0  0  0  0  0
  189.0960  175.5640  137.5450 C   0  0  0  0  0  3  0  0  0  0  0  0
  185.0880  175.6320  135.7300 C   0  0  0  0  0  3  0  0  0  0  0  0
  186.3400  176.0060  136.2430 C   0  0  0  0  0  0  0  0  0  0  0  0
  187.5190  175.3820  135.7110 N   0  0  0  0  0  0  0  0  0  0  0  0
  182.7830  178.7560  138.5320 C   0  0  0  0  0  0  0  0  0  0  0  0
  183.9950  179.1730  139.0870 C   0  0  0  0  0  3  0  0  0  0  0  0
  183.9660  177.1700  137.1340 C   0  0  0  0  0  0  0  0  0  0  0  0
  185.1950  178.5960  138.6650 C   0  0  0  0  0  3  0  0  0  0  0  0
  185.1960  177.5910  137.6850 C   0  0  0  0  0  0  0  0  0  0  0  0
  190.1060  177.9020  138.6600 S   0  0  0  0  0  0  0  0  0  0  0  0
  187.7720  178.0610  141.9220 C   0  0  0  0  0  3  0  0  0  0  0  0
  190.1230  176.7900  141.1920 C   0  0  0  0  0  3  0  0  0  0  0  0
  188.4130  177.2280  142.8450 C   0  0  0  0  0  0  0  0  0  0  0  0
  189.6070  176.5880  142.4800 C   0  0  0  0  0  0  0  0  0  0  0  0
  189.4500  177.6270  140.3010 C   0  0  0  0  0  0  0  0  0  0  0  0
  188.2980  178.2420  140.6820 N   0  0  0  0  0  0  0  0  0  0  0  0
  190.2630  175.7660  143.4040 O   0  0  0  0  0  0  0  0  0  0  0  0
  191.6170  175.9650  143.7830 C   0  0  0  0  0  1  0  0  0  0  0  0
  187.8370  177.0640  144.2100 C   0  0  0  0  0  2  0  0  0  0  0  0
  186.5330  177.7050  144.2730 N   0  0  0  0  0  2  0  0  0  0  0  0
  185.9770  178.1680  145.5010 C   0  0  0  0  0  0  0  0  0  0  0  0
  184.6310  178.7960  145.5080 C   0  0  0  0  0  1  0  0  0  0  0  0
  186.6190  178.0570  146.5790 O   0  0  0  0  0  0  0  0  0  0  0  0
  181.5030  179.3620  138.9930 C   0  0  0  0  0  2  0  0  0  0  0  0
  180.2000  179.9140  140.8490 C   0  0  0  0  0  1  0  0  0  0  0  0
  180.7940  177.6980  140.4600 C   0  0  0  0  0  1  0  0  0  0  0  0
  181.2850  179.0620  140.3980 N   0  0  0  0  0  0  0  0  0  0  0  0
  1 16  1  0  0  0  0
  1  5  1  0  0  0  0
  2 12  1  0  0  0  0
  3 14  1  0  0  0  0
  4 17  1  0  0  0  0
  5  4  2  0  0  0  0
  6  8  2  0  0  0  0
  7 11  1  0  0  0  0
  8  4  1  0  0  0  0
  9  3  2  0  0  0  0
  9 10  1  0  0  0  0
 10  1  2  0  0  0  0
 11 10  1  0  0  0  0
 11  6  1  0  0  0  0
 12 31  1  0  0  0  0
 12 13  2  0  0  0  0
 14  2  2  0  0  0  0
 14 16  1  0  0  0  0
 15 13  1  0  0  0  0
 16 15  2  0  0  0  0
 17 22  1  0  0  0  0
 18 20  1  0  0  0  0
 19 21  1  0  0  0  0
 20 26  1  0  0  0  0
 21 20  2  0  0  0  0
 21 24  1  0  0  0  0
 22 23  1  0  0  0  0
 22 19  2  0  0  0  0
 23 18  2  0  0  0  0
 24 25  1  0  0  0  0
 26 27  1  0  0  0  0
 27 28  1  0  0  0  0
 28 29  1  0  0  0  0
 28 30  2  0  0  0  0
 31 34  1  0  0  0  0
 34 33  1  0  0  0  0
 34 32  1  0  0  0  0
M  END
>  <MODEL>
5

>  <REMARK>
 VINA RESULT:      -7.5      2.786      6.917
  Name = 
  7 active torsions:
  status: ('A' for Active; 'I' for Inactive)
    1  A    between atoms: N_7  and  C_14
    2  A    between atoms: C_8  and  S_18
    3  A    between atoms: C_14  and  C_16
    4  A    between atoms: S_18  and  C_30
    5  A    between atoms: C_23  and  N_24
    6  A    between atoms: C_23  and  C_25
    7  A    between atoms: O_26  and  C_28
                            x       y       z     vdW  Elec       q    Type
                         _______ _______ _______ _____ _____    ______ ____

>  <TORSDO>
F 7

$$$$
=
 OpenBabel10272415203D

 34 37  0  0  0  0  0  0  0  0999 V2000
  189.2010  177.5250  140.3910 C   0  0  0  0  0  0  0  0  0  0  0  0
  190.6760  177.6290  143.8010 C   0  0  0  0  0  3  0  0  0  0  0  0
  191.6830  177.4090  141.6550 N   0  0  0  0  0  0  0  0  0  0  0  0
  187.4810  177.8310  138.6220 C   0  0  0  0  0  0  0  0  0  0  0  0
  187.8860  177.4940  139.8090 N   0  0  0  0  0  0  0  0  0  0  0  0
  189.6210  178.1260  137.3840 C   0  0  0  0  0  3  0  0  0  0  0  0
  191.4280  176.4860  137.5380 C   0  0  0  0  0  1  0  0  0  0  0  0
  188.3380  178.4010  137.5760 C   0  0  0  0  0  3  0  0  0  0  0  0
  191.6150  177.3130  140.3040 C   0  0  0  0  0  3  0  0  0  0  0  0
  190.3830  177.3650  139.6330 C   0  0  0  0  0  0  0  0  0  0  0  0
  190.3690  177.2320  138.2040 N   0  0  0  0  0  0  0  0  0  0  0  0
  189.5290  177.7600  144.5890 C   0  0  0  0  0  0  0  0  0  0  0  0
  188.2710  177.8220  143.9860 C   0  0  0  0  0  3  0  0  0  0  0  0
  190.5670  177.5510  142.4110 C   0  0  0  0  0  0  0  0  0  0  0  0
  188.1550  177.7420  142.5960 C   0  0  0  0  0  3  0  0  0  0  0  0
  189.2990  177.6060  141.7940 C   0  0  0  0  0  0  0  0  0  0  0  0
  185.7320  177.7220  138.2680 S   0  0  0  0  0  0  0  0  0  0  0  0
  185.8940  179.5380  141.8440 C   0  0  0  0  0  3  0  0  0  0  0  0
  184.0040  178.1300  140.3880 C   0  0  0  0  0  3  0  0  0  0  0  0
  184.6220  179.3390  142.3890 C   0  0  0  0  0  0  0  0  0  0  0  0
  183.6650  178.6200  141.6570 C   0  0  0  0  0  0  0  0  0  0  0  0
  185.2850  178.3540  139.8800 C   0  0  0  0  0  0  0  0  0  0  0  0
  186.1960  179.0480  140.6130 N   0  0  0  0  0  0  0  0  0  0  0  0
  182.3950  178.4010  142.2040 O   0  0  0  0  0  0  0  0  0  0  0  0
  181.2090  178.4130  141.4210 C   0  0  0  0  0  1  0  0  0  0  0  0
  184.3170  179.8600  143.7530 C   0  0  0  0  0  2  0  0  0  0  0  0
  185.3140  179.3790  144.6960 N   0  0  0  0  0  2  0  0  0  0  0  0
  184.9560  178.8660  145.9770 C   0  0  0  0  0  0  0  0  0  0  0  0
  186.0190  178.4090  146.9090 C   0  0  0  0  0  1  0  0  0  0  0  0
  183.7480  178.7880  146.3240 O   0  0  0  0  0  0  0  0  0  0  0  0
  189.6510  177.8590  146.0710 C   0  0  0  0  0  2  0  0  0  0  0  0
  191.2050  176.4760  147.1290 C   0  0  0  0  0  1  0  0  0  0  0  0
  188.9820  176.4710  147.8170 C   0  0  0  0  0  1  0  0  0  0  0  0
  189.8370  176.5380  146.6470 N   0  0  0  0  0  0  0  0  0  0  0  0
  1 16  1  0  0  0  0
  2 12  1  0  0  0  0
  3 14  1  0  0  0  0
  4  5  2  0  0  0  0
  5  1  1  0  0  0  0
  6  8  2  0  0  0  0
  6 11  1  0  0  0  0
  7 11  1  0  0  0  0
  8  4  1  0  0  0  0
  9  3  2  0  0  0  0
 10  9  1  0  0  0  0
 10  1  2  0  0  0  0
 11 10  1  0  0  0  0
 12 31  1  0  0  0  0
 13 12  2  0  0  0  0
 14  2  2  0  0  0  0
 15 13  1  0  0  0  0
 16 14  1  0  0  0  0
 16 15  2  0  0  0  0
 17  4  1  0  0  0  0
 17 22  1  0  0  0  0
 18 20  1  0  0  0  0
 19 21  1  0  0  0  0
 20 26  1  0  0  0  0
 21 24  1  0  0  0  0
 21 20  2  0  0  0  0
 22 19  2  0  0  0  0
 22 23  1  0  0  0  0
 23 18  2  0  0  0  0
 25 24  1  0  0  0  0
 26 27  1  0  0  0  0
 27 28  1  0  0  0  0
 28 30  2  0  0  0  0
 28 29  1  0  0  0  0
 31 34  1  0  0  0  0
 34 32  1  0  0  0  0
 34 33  1  0  0  0  0
M  END
>  <MODEL>
6

>  <REMARK>
 VINA RESULT:      -7.4      2.767      7.813
  Name = 
  7 active torsions:
  status: ('A' for Active; 'I' for Inactive)
    1  A    between atoms: N_7  and  C_14
    2  A    between atoms: C_8  and  S_18
    3  A    between atoms: C_14  and  C_16
    4  A    between atoms: S_18  and  C_30
    5  A    between atoms: C_23  and  N_24
    6  A    between atoms: C_23  and  C_25
    7  A    between atoms: O_26  and  C_28
                            x       y       z     vdW  Elec       q    Type
                         _______ _______ _______ _____ _____    ______ ____

>  <TORSDO>
F 7

$$$$
=
 OpenBabel10272415203D

 34 37  0  0  0  0  0  0  0  0999 V2000
  190.4950  176.4030  138.6420 C   0  0  0  0  0  0  0  0  0  0  0  0
  191.1510  177.7820  142.0320 C   0  0  0  0  0  3  0  0  0  0  0  0
  192.6160  177.2880  140.2210 N   0  0  0  0  0  0  0  0  0  0  0  0
  189.1670  175.7660  136.6400 C   0  0  0  0  0  0  0  0  0  0  0  0
  189.3720  175.8710  137.9180 N   0  0  0  0  0  0  0  0  0  0  0  0
  191.4070  176.2890  135.6870 C   0  0  0  0  0  3  0  0  0  0  0  0
  193.4480  175.2920  136.5880 C   0  0  0  0  0  1  0  0  0  0  0  0
  190.0840  176.2520  135.6030 C   0  0  0  0  0  3  0  0  0  0  0  0
  192.8590  176.8300  138.9680 C   0  0  0  0  0  3  0  0  0  0  0  0
  191.8170  176.3730  138.1450 C   0  0  0  0  0  0  0  0  0  0  0  0
  192.1370  175.8730  136.8380 N   0  0  0  0  0  0  0  0  0  0  0  0
  189.8620  177.8020  142.5710 C   0  0  0  0  0  0  0  0  0  0  0  0
  188.7780  177.3660  141.8060 C   0  0  0  0  0  3  0  0  0  0  0  0
  191.3610  177.3180  140.7300 C   0  0  0  0  0  0  0  0  0  0  0  0
  188.9810  176.8990  140.5050 C   0  0  0  0  0  3  0  0  0  0  0  0
  190.2710  176.8690  139.9530 C   0  0  0  0  0  0  0  0  0  0  0  0
  187.5990  175.1050  136.0920 S   0  0  0  0  0  0  0  0  0  0  0  0
  186.6240  178.4590  138.0710 C   0  0  0  0  0  3  0  0  0  0  0  0
  185.3140  176.1650  137.2340 C   0  0  0  0  0  3  0  0  0  0  0  0
  185.2630  178.3100  138.3510 C   0  0  0  0  0  0  0  0  0  0  0  0
  184.5980  177.1460  137.9350 C   0  0  0  0  0  0  0  0  0  0  0  0
  186.6720  176.3550  136.9730 C   0  0  0  0  0  0  0  0  0  0  0  0
  187.2950  177.4890  137.3940 N   0  0  0  0  0  0  0  0  0  0  0  0
  183.2390  176.9820  138.2270 O   0  0  0  0  0  0  0  0  0  0  0  0
  182.7340  175.8540  138.9270 C   0  0  0  0  0  1  0  0  0  0  0  0
  184.5500  179.3710  139.1200 C   0  0  0  0  0  2  0  0  0  0  0  0
  185.1430  179.5020  140.4400 N   0  0  0  0  0  2  0  0  0  0  0  0
  184.6300  178.8020  141.5720 C   0  0  0  0  0  0  0  0  0  0  0  0
  185.2640  178.9910  142.9020 C   0  0  0  0  0  1  0  0  0  0  0  0
  183.6520  178.0190  141.4530 O   0  0  0  0  0  0  0  0  0  0  0  0
  189.6410  178.3120  143.9530 C   0  0  0  0  0  2  0  0  0  0  0  0
  190.5480  177.1020  145.7320 C   0  0  0  0  0  1  0  0  0  0  0  0
  188.2740  177.6010  145.6990 C   0  0  0  0  0  1  0  0  0  0  0  0
  189.3910  177.2060  144.8610 N   0  0  0  0  0  0  0  0  0  0  0  0
  1 16  1  0  0  0  0
  2 12  1  0  0  0  0
  3 14  1  0  0  0  0
  4  5  2  0  0  0  0
  5  1  1  0  0  0  0
  6 11  1  0  0  0  0
  7 11  1  0  0  0  0
  8  6  2  0  0  0  0
  8  4  1  0  0  0  0
  9  3  2  0  0  0  0
 10  1  2  0  0  0  0
 10  9  1  0  0  0  0
 11 10  1  0  0  0  0
 12 31  1  0  0  0  0
 13 12  2  0  0  0  0
 14  2  2  0  0  0  0
 15 13  1  0  0  0  0
 16 15  2  0  0  0  0
 16 14  1  0  0  0  0
 17  4  1  0  0  0  0
 17 22  1  0  0  0  0
 18 20  1  0  0  0  0
 19 21  1  0  0  0  0
 20 26  1  0  0  0  0
 21 24  1  0  0  0  0
 21 20  2  0  0  0  0
 22 19  2  0  0  0  0
 22 23  1  0  0  0  0
 23 18  2  0  0  0  0
 24 25  1  0  0  0  0
 26 27  1  0  0  0  0
 27 28  1  0  0  0  0
 28 29  1  0  0  0  0
 30 28  2  0  0  0  0
 31 34  1  0  0  0  0
 34 33  1  0  0  0  0
 34 32  1  0  0  0  0
M  END
>  <MODEL>
7

>  <REMARK>
 VINA RESULT:      -7.4      2.802      7.707
  Name = 
  7 active torsions:
  status: ('A' for Active; 'I' for Inactive)
    1  A    between atoms: N_7  and  C_14
    2  A    between atoms: C_8  and  S_18
    3  A    between atoms: C_14  and  C_16
    4  A    between atoms: S_18  and  C_30
    5  A    between atoms: C_23  and  N_24
    6  A    between atoms: C_23  and  C_25
    7  A    between atoms: O_26  and  C_28
                            x       y       z     vdW  Elec       q    Type
                         _______ _______ _______ _____ _____    ______ ____

>  <TORSDO>
F 7

$$$$
=
 OpenBabel10272415203D

 34 37  0  0  0  0  0  0  0  0999 V2000
  187.6520  177.6910  142.1400 C   0  0  0  0  0  0  0  0  0  0  0  0
  184.7930  178.2690  144.4450 C   0  0  0  0  0  3  0  0  0  0  0  0
  186.9420  177.3110  144.8090 N   0  0  0  0  0  0  0  0  0  0  0  0
  189.0430  177.9520  140.0970 C   0  0  0  0  0  0  0  0  0  0  0  0
  187.9180  177.8270  140.7330 N   0  0  0  0  0  0  0  0  0  0  0  0
  190.7230  177.4340  141.8600 C   0  0  0  0  0  3  0  0  0  0  0  0
  190.4740  175.5080  143.3430 C   0  0  0  0  0  1  0  0  0  0  0  0
  190.3610  178.0380  140.7360 C   0  0  0  0  0  3  0  0  0  0  0  0
  188.1640  176.9110  144.3780 C   0  0  0  0  0  3  0  0  0  0  0  0
  188.5550  177.0840  143.0410 C   0  0  0  0  0  0  0  0  0  0  0  0
  189.8500  176.6160  142.6340 N   0  0  0  0  0  0  0  0  0  0  0  0
  183.8600  178.8490  143.5810 C   0  0  0  0  0  0  0  0  0  0  0  0
  184.1850  179.0540  142.2380 C   0  0  0  0  0  3  0  0  0  0  0  0
  186.0490  177.8860  143.9680 C   0  0  0  0  0  0  0  0  0  0  0  0
  185.4390  178.6700  141.7540 C   0  0  0  0  0  3  0  0  0  0  0  0
  186.3830  178.0830  142.6100 C   0  0  0  0  0  0  0  0  0  0  0  0
  188.9860  178.1690  138.3230 S   0  0  0  0  0  0  0  0  0  0  0  0
  192.4710  176.1950  138.0570 C   0  0  0  0  0  3  0  0  0  0  0  0
  189.7970  175.6260  137.6030 C   0  0  0  0  0  3  0  0  0  0  0  0
  192.1100  174.9180  137.6160 C   0  0  0  0  0  0  0  0  0  0  0  0
  190.7570  174.6280  137.3790 C   0  0  0  0  0  0  0  0  0  0  0  0
  190.2000  176.8860  138.0460 C   0  0  0  0  0  0  0  0  0  0  0  0
  191.5190  177.1430  138.2620 N   0  0  0  0  0  0  0  0  0  0  0  0
  190.3900  173.3580  136.9200 O   0  0  0  0  0  0  0  0  0  0  0  0
  189.7400  173.1490  135.6750 C   0  0  0  0  0  1  0  0  0  0  0  0
  193.1700  173.8980  137.3700 C   0  0  0  0  0  2  0  0  0  0  0  0
  194.4660  174.4380  137.7490 N   0  0  0  0  0  2  0  0  0  0  0  0
  195.4080  173.6790  138.5040 C   0  0  0  0  0  0  0  0  0  0  0  0
  196.7090  174.2900  138.8820 C   0  0  0  0  0  1  0  0  0  0  0  0
  195.1530  172.4940  138.8460 O   0  0  0  0  0  0  0  0  0  0  0  0
  182.5280  179.2710  144.0980 C   0  0  0  0  0  2  0  0  0  0  0  0
  180.5360  178.0550  144.0960 C   0  0  0  0  0  1  0  0  0  0  0  0
  180.7690  179.9140  142.7150 C   0  0  0  0  0  1  0  0  0  0  0  0
  181.4740  178.7590  143.2400 N   0  0  0  0  0  0  0  0  0  0  0  0
  1 16  2  0  0  0  0
  1 10  1  0  0  0  0
  4  5  2  0  0  0  0
  4  8  1  0  0  0  0
  5  1  1  0  0  0  0
  6 11  1  0  0  0  0
  8  6  2  0  0  0  0
  9  3  1  0  0  0  0
 10  9  2  0  0  0  0
 11 10  1  0  0  0  0
 11  7  1  0  0  0  0
 12 31  1  0  0  0  0
 12  2  2  0  0  0  0
 13 12  1  0  0  0  0
 14  2  1  0  0  0  0
 14  3  2  0  0  0  0
 15 13  2  0  0  0  0
 15 16  1  0  0  0  0
 16 14  1  0  0  0  0
 17  4  1  0  0  0  0
 18 23  1  0  0  0  0
 19 22  1  0  0  0  0
 20 18  2  0  0  0  0
 21 19  2  0  0  0  0
 21 20  1  0  0  0  0
 22 23  2  0  0  0  0
 22 17  1  0  0  0  0
 24 21  1  0  0  0  0
 25 24  1  0  0  0  0
 26 20  1  0  0  0  0
 26 27  1  0  0  0  0
 27 28  1  0  0  0  0
 28 30  2  0  0  0  0
 28 29  1  0  0  0  0
 33 34  1  0  0  0  0
 34 32  1  0  0  0  0
 34 31  1  0  0  0  0
M  END
>  <MODEL>
8

>  <REMARK>
 VINA RESULT:      -7.4      2.948      5.012
  Name = 
  7 active torsions:
  status: ('A' for Active; 'I' for Inactive)
    1  A    between atoms: N_7  and  C_14
    2  A    between atoms: C_8  and  S_18
    3  A    between atoms: C_14  and  C_16
    4  A    between atoms: S_18  and  C_30
    5  A    between atoms: C_23  and  N_24
    6  A    between atoms: C_23  and  C_25
    7  A    between atoms: O_26  and  C_28
                            x       y       z     vdW  Elec       q    Type
                         _______ _______ _______ _____ _____    ______ ____

>  <TORSDO>
F 7

$$$$
=
 OpenBabel10272415203D

 34 37  0  0  0  0  0  0  0  0999 V2000
  184.9570  178.4240  142.2990 C   0  0  0  0  0  0  0  0  0  0  0  0
  185.5420  178.7820  138.6460 C   0  0  0  0  0  3  0  0  0  0  0  0
  183.6010  179.1490  139.9740 N   0  0  0  0  0  0  0  0  0  0  0  0
  185.5350  178.2070  144.7070 C   0  0  0  0  0  0  0  0  0  0  0  0
  185.6860  177.9460  143.4440 N   0  0  0  0  0  0  0  0  0  0  0  0
  183.3500  179.3990  144.7580 C   0  0  0  0  0  3  0  0  0  0  0  0
  181.4040  178.5620  143.5380 C   0  0  0  0  0  1  0  0  0  0  0  0
  184.5530  179.1490  145.2560 C   0  0  0  0  0  3  0  0  0  0  0  0
  182.9440  179.1530  141.1610 C   0  0  0  0  0  3  0  0  0  0  0  0
  183.5940  178.7920  142.3520 C   0  0  0  0  0  0  0  0  0  0  0  0
  182.8420  178.7880  143.5750 N   0  0  0  0  0  0  0  0  0  0  0  0
  186.8830  178.3980  138.5470 C   0  0  0  0  0  0  0  0  0  0  0  0
  187.5900  178.0300  139.6930 C   0  0  0  0  0  3  0  0  0  0  0  0
  184.9050  178.7900  139.8890 C   0  0  0  0  0  0  0  0  0  0  0  0
  186.9580  178.0340  140.9390 C   0  0  0  0  0  3  0  0  0  0  0  0
  185.6110  178.4130  141.0520 C   0  0  0  0  0  0  0  0  0  0  0  0
  186.6880  177.4730  145.8600 S   0  0  0  0  0  0  0  0  0  0  0  0
  188.9500  176.1660  142.8120 C   0  0  0  0  0  3  0  0  0  0  0  0
  188.9620  178.3310  144.5400 C   0  0  0  0  0  3  0  0  0  0  0  0
  189.9580  177.1280  142.6940 C   0  0  0  0  0  0  0  0  0  0  0  0
  189.9700  178.2230  143.5730 C   0  0  0  0  0  0  0  0  0  0  0  0
  187.9730  177.3500  144.6210 C   0  0  0  0  0  0  0  0  0  0  0  0
  187.9870  176.2960  143.7620 N   0  0  0  0  0  0  0  0  0  0  0  0
  190.9860  179.1800  143.4720 O   0  0  0  0  0  0  0  0  0  0  0  0
  192.0000  179.3310  144.4560 C   0  0  0  0  0  1  0  0  0  0  0  0
  191.0220  176.9560  141.6640 C   0  0  0  0  0  2  0  0  0  0  0  0
  190.4450  176.3960  140.4520 N   0  0  0  0  0  2  0  0  0  0  0  0
  191.1220  176.4500  139.1990 C   0  0  0  0  0  0  0  0  0  0  0  0
  190.4740  175.8810  137.9890 C   0  0  0  0  0  1  0  0  0  0  0  0
  192.2670  176.9670  139.1080 O   0  0  0  0  0  0  0  0  0  0  0  0
  187.5630  178.4060  137.2210 C   0  0  0  0  0  2  0  0  0  0  0  0
  187.2480  178.0430  134.9370 C   0  0  0  0  0  1  0  0  0  0  0  0
  187.1610  176.2550  136.4250 C   0  0  0  0  0  1  0  0  0  0  0  0
  186.7870  177.6470  136.2560 N   0  0  0  0  0  0  0  0  0  0  0  0
  1 10  1  0  0  0  0
  1  5  1  0  0  0  0
  2 14  1  0  0  0  0
  3  9  1  0  0  0  0
  4  8  1  0  0  0  0
  4 17  1  0  0  0  0
  5  4  2  0  0  0  0
  6  8  2  0  0  0  0
  7 11  1  0  0  0  0
  9 10  2  0  0  0  0
 10 11  1  0  0  0  0
 11  6  1  0  0  0  0
 12  2  2  0  0  0  0
 12 13  1  0  0  0  0
 13 15  2  0  0  0  0
 14  3  2  0  0  0  0
 14 16  1  0  0  0  0
 15 16  1  0  0  0  0
 16  1  2  0  0  0  0
 18 23  1  0  0  0  0
 19 22  1  0  0  0  0
 20 18  2  0  0  0  0
 20 21  1  0  0  0  0
 21 19  2  0  0  0  0
 22 17  1  0  0  0  0
 23 22  2  0  0  0  0
 24 21  1  0  0  0  0
 24 25  1  0  0  0  0
 26 20  1  0  0  0  0
 27 26  1  0  0  0  0
 28 27  1  0  0  0  0
 29 28  1  0  0  0  0
 30 28  2  0  0  0  0
 31 12  1  0  0  0  0
 32 34  1  0  0  0  0
 34 33  1  0  0  0  0
 34 31  1  0  0  0  0
M  END
>  <MODEL>
9

>  <REMARK>
 VINA RESULT:      -7.3      2.214      5.351
  Name = 
  7 active torsions:
  status: ('A' for Active; 'I' for Inactive)
    1  A    between atoms: N_7  and  C_14
    2  A    between atoms: C_8  and  S_18
    3  A    between atoms: C_14  and  C_16
    4  A    between atoms: S_18  and  C_30
    5  A    between atoms: C_23  and  N_24
    6  A    between atoms: C_23  and  C_25
    7  A    between atoms: O_26  and  C_28
                            x       y       z     vdW  Elec       q    Type
                         _______ _______ _______ _____ _____    ______ ____

>  <TORSDO>
F 7

$$$$
