=
 OpenBabel10272413523D

 30 33  0  0  1  0  0  0  0  0999 V2000
  184.9620  178.5950  140.8950 C   0  0  0  0  0  3  0  0  0  0  0  0
  186.7400  178.1570  142.4870 C   0  0  0  0  0  0  0  0  0  0  0  0
  182.1120  178.6680  144.0020 C   0  0  0  0  0  3  0  0  0  0  0  0
  183.6140  178.8060  140.5960 C   0  0  0  0  0  0  0  0  0  0  0  0
  180.7690  178.9070  143.7060 C   0  0  0  0  0  3  0  0  0  0  0  0
  187.1580  177.9410  143.8010 C   0  0  0  0  0  3  0  0  0  0  0  0
  187.6580  178.1370  141.4870 F   0  0  0  0  0  0  0  0  0  0  0  0
  183.0760  178.6360  142.9780 C   0  0  0  0  0  0  0  0  0  0  0  0
  186.2320  177.9540  144.8460 C   0  0  0  0  0  3  0  0  0  0  0  0
  185.3820  178.3860  142.2100 C   0  0  0  0  0  0  0  0  0  0  0  0
  182.6660  178.8480  141.6370 C   0  0  0  0  0  0  0  0  0  0  0  0
  180.3700  179.1170  142.3860 C   0  0  0  0  0  3  0  0  0  0  0  0
  181.3120  179.0870  141.3570 C   0  0  0  0  0  3  0  0  0  0  0  0
  184.8810  178.1830  144.5810 C   0  0  0  0  0  3  0  0  0  0  0  0
  184.4370  178.4000  143.2650 C   0  0  0  0  0  0  0  0  0  0  0  0
  182.8010  178.2170  137.0810 O   0  0  0  0  0  0  0  0  0  0  0  0
  183.0060  177.9490  138.2940 C   0  0  0  0  0  0  0  0  0  0  0  0
  183.2250  179.0270  139.2320 N   0  0  0  0  0  0  0  0  0  0  0  0
  183.6960  175.6070  137.6900 C   0  0  0  0  0  2  0  0  0  0  0  0
  181.3360  175.8530  138.9960 S   0  0  0  0  0  0  0  0  0  0  0  0
  183.0060  176.4980  138.6900 C   0  0  2  0  0  3  0  0  0  0  0  0
  183.0150  174.2660  137.7990 C   0  0  0  0  0  2  0  0  0  0  0  0
  181.5820  174.4900  137.8910 N   0  0  0  0  0  2  0  0  0  0  0  0
  183.1110  180.4090  138.7790 C   0  0  0  0  0  2  0  0  0  0  0  0
  181.6930  180.6890  138.3120 C   0  0  0  0  0  2  0  0  0  0  0  0
  181.3880  182.1700  138.4230 C   0  0  0  0  0  2  0  0  0  0  0  0
  180.9480  182.6850  137.1360 N   0  0  0  0  0  2  0  0  0  0  0  0
  182.1280  184.8010  137.4700 O   0  0  0  0  0  1  0  0  0  0  0  0
  181.3230  183.9850  136.6840 C   0  0  0  0  0  0  0  0  0  0  0  0
  180.9220  184.3950  135.5650 O   0  0  0  0  0  0  0  0  0  0  0  0
  1 10  1  0  0  0  0
  2  6  1  0  0  0  0
  4  1  2  0  0  0  0
  4 11  1  0  0  0  0
  5  3  1  0  0  0  0
  6  9  2  0  0  0  0
  7  2  1  0  0  0  0
  8 15  1  0  0  0  0
  8  3  2  0  0  0  0
 10  2  2  0  0  0  0
 10 15  1  0  0  0  0
 11  8  1  0  0  0  0
 12  5  2  0  0  0  0
 13 11  2  0  0  0  0
 13 12  1  0  0  0  0
 14  9  1  0  0  0  0
 15 14  2  0  0  0  0
 16 17  2  0  0  0  0
 17 18  1  0  0  0  0
 18  4  1  0  0  0  0
 19 22  1  0  0  0  0
 19 21  1  0  0  0  0
 21 17  1  6  0  0  0
 21 20  1  0  0  0  0
 22 23  1  0  0  0  0
 23 20  1  0  0  0  0
 24 18  1  0  0  0  0
 25 26  1  0  0  0  0
 25 24  1  0  0  0  0
 27 26  1  0  0  0  0
 29 27  1  0  0  0  0
 29 28  1  0  0  0  0
 30 29  2  0  0  0  0
M  END
>  <MODEL>
1

>  <REMARK>
 VINA RESULT:      -7.2      0.000      0.000
  Name = 
  6 active torsions:
  status: ('A' for Active; 'I' for Inactive)
    1  A    between atoms: C_4  and  N_13
    2  A    between atoms: N_7  and  C_16
    3  A    between atoms: C_8  and  C_12
    4  A    between atoms: N_13  and  C_27
    5  A    between atoms: C_16  and  C_30
    6  A    between atoms: C_27  and  C_30
                            x       y       z     vdW  Elec       q    Type
                         _______ _______ _______ _____ _____    ______ ____

>  <TORSDO>
F 6

$$$$
=
 OpenBabel10272413523D

 30 33  0  0  1  0  0  0  0  0999 V2000
  189.1170  177.5310  143.4940 C   0  0  0  0  0  3  0  0  0  0  0  0
  191.0360  176.7590  144.7620 C   0  0  0  0  0  0  0  0  0  0  0  0
  186.8490  177.9010  147.0290 C   0  0  0  0  0  3  0  0  0  0  0  0
  187.7880  177.9570  143.4250 C   0  0  0  0  0  0  0  0  0  0  0  0
  185.5300  178.3540  146.9630 C   0  0  0  0  0  3  0  0  0  0  0  0
  191.6210  176.4250  145.9850 C   0  0  0  0  0  3  0  0  0  0  0  0
  191.7670  176.6440  143.6240 F   0  0  0  0  0  0  0  0  0  0  0  0
  187.6190  177.7670  145.8600 C   0  0  0  0  0  0  0  0  0  0  0  0
  190.8880  176.5330  147.1690 C   0  0  0  0  0  3  0  0  0  0  0  0
  189.7050  177.2040  144.7170 C   0  0  0  0  0  0  0  0  0  0  0  0
  187.0390  178.0980  144.6090 C   0  0  0  0  0  0  0  0  0  0  0  0
  184.9630  178.6790  145.7320 C   0  0  0  0  0  3  0  0  0  0  0  0
  185.7110  178.5520  144.5610 C   0  0  0  0  0  3  0  0  0  0  0  0
  189.5640  176.9760  147.1350 C   0  0  0  0  0  3  0  0  0  0  0  0
  188.9550  177.3150  145.9140 C   0  0  0  0  0  0  0  0  0  0  0  0
  187.4140  178.4700  139.8250 O   0  0  0  0  0  0  0  0  0  0  0  0
  187.9010  178.0260  140.8990 C   0  0  0  0  0  0  0  0  0  0  0  0
  187.2260  178.2950  142.1480 N   0  0  0  0  0  0  0  0  0  0  0  0
  190.4120  178.0560  141.0280 C   0  0  0  0  0  2  0  0  0  0  0  0
  189.3340  176.3500  139.2210 S   0  0  0  0  0  0  0  0  0  0  0  0
  189.1730  177.2290  140.8030 C   0  0  2  0  0  3  0  0  0  0  0  0
  191.4990  177.3920  140.2200 C   0  0  0  0  0  2  0  0  0  0  0  0
  190.9450  177.0260  138.9270 N   0  0  0  0  0  2  0  0  0  0  0  0
  185.9450  178.9930  142.1380 C   0  0  0  0  0  2  0  0  0  0  0  0
  184.8440  178.0530  141.6760 C   0  0  0  0  0  2  0  0  0  0  0  0
  183.5340  178.8070  141.5470 C   0  0  0  0  0  2  0  0  0  0  0  0
  182.9260  178.5300  140.2550 N   0  0  0  0  0  2  0  0  0  0  0  0
  184.2980  180.2180  139.1390 O   0  0  0  0  0  1  0  0  0  0  0  0
  183.3160  179.2370  139.0800 C   0  0  0  0  0  0  0  0  0  0  0  0
  182.7670  178.9690  137.9800 O   0  0  0  0  0  0  0  0  0  0  0  0
  1 10  1  0  0  0  0
  2  6  1  0  0  0  0
  4  1  2  0  0  0  0
  4 11  1  0  0  0  0
  5  3  1  0  0  0  0
  6  9  2  0  0  0  0
  7  2  1  0  0  0  0
  8 15  1  0  0  0  0
  8  3  2  0  0  0  0
 10  2  2  0  0  0  0
 10 15  1  0  0  0  0
 11  8  1  0  0  0  0
 12  5  2  0  0  0  0
 13 11  2  0  0  0  0
 13 12  1  0  0  0  0
 14  9  1  0  0  0  0
 15 14  2  0  0  0  0
 16 17  2  0  0  0  0
 17 18  1  0  0  0  0
 18  4  1  0  0  0  0
 20 21  1  0  0  0  0
 21 17  1  6  0  0  0
 21 19  1  0  0  0  0
 22 19  1  0  0  0  0
 23 20  1  0  0  0  0
 23 22  1  0  0  0  0
 24 18  1  0  0  0  0
 25 24  1  0  0  0  0
 26 25  1  0  0  0  0
 27 26  1  0  0  0  0
 29 28  1  0  0  0  0
 29 27  1  0  0  0  0
 30 29  2  0  0  0  0
M  END
>  <MODEL>
2

>  <REMARK>
 VINA RESULT:      -7.1      3.677      5.973
  Name = 
  6 active torsions:
  status: ('A' for Active; 'I' for Inactive)
    1  A    between atoms: C_4  and  N_13
    2  A    between atoms: N_7  and  C_16
    3  A    between atoms: C_8  and  C_12
    4  A    between atoms: N_13  and  C_27
    5  A    between atoms: C_16  and  C_30
    6  A    between atoms: C_27  and  C_30
                            x       y       z     vdW  Elec       q    Type
                         _______ _______ _______ _____ _____    ______ ____

>  <TORSDO>
F 6

$$$$
=
 OpenBabel10272413523D

 30 33  0  0  1  0  0  0  0  0999 V2000
  183.0830  178.8770  141.5780 C   0  0  0  0  0  3  0  0  0  0  0  0
  183.0500  178.7960  144.0020 C   0  0  0  0  0  0  0  0  0  0  0  0
  187.2660  178.3400  141.5540 C   0  0  0  0  0  3  0  0  0  0  0  0
  183.7730  178.8510  140.3630 C   0  0  0  0  0  0  0  0  0  0  0  0
  187.9520  178.2860  140.3390 C   0  0  0  0  0  3  0  0  0  0  0  0
  183.7280  178.6740  145.2160 C   0  0  0  0  0  3  0  0  0  0  0  0
  181.7030  178.9650  144.0090 F   0  0  0  0  0  0  0  0  0  0  0  0
  185.8720  178.5230  141.5820 C   0  0  0  0  0  0  0  0  0  0  0  0
  185.1140  178.5020  145.2340 C   0  0  0  0  0  3  0  0  0  0  0  0
  183.7610  178.7480  142.7920 C   0  0  0  0  0  0  0  0  0  0  0  0
  185.1680  178.6540  140.3570 C   0  0  0  0  0  0  0  0  0  0  0  0
  187.2560  178.4130  139.1370 C   0  0  0  0  0  3  0  0  0  0  0  0
  185.8730  178.5960  139.1450 C   0  0  0  0  0  3  0  0  0  0  0  0
  185.8290  178.4520  144.0360 C   0  0  0  0  0  3  0  0  0  0  0  0
  185.1660  178.5740  142.8030 C   0  0  0  0  0  0  0  0  0  0  0  0
  182.2280  178.0530  137.1480 O   0  0  0  0  0  0  0  0  0  0  0  0
  182.7580  177.8520  138.2730 C   0  0  0  0  0  0  0  0  0  0  0  0
  183.0380  178.9760  139.1370 N   0  0  0  0  0  0  0  0  0  0  0  0
  184.0580  175.7700  137.7200 C   0  0  0  0  0  2  0  0  0  0  0  0
  181.5790  175.3890  138.7450 S   0  0  0  0  0  0  0  0  0  0  0  0
  183.0660  176.4270  138.6450 C   0  0  2  0  0  3  0  0  0  0  0  0
  183.7150  174.3010  137.7300 C   0  0  0  0  0  2  0  0  0  0  0  0
  182.2690  174.1720  137.6560 N   0  0  0  0  0  2  0  0  0  0  0  0
  182.6170  180.3140  138.7350 C   0  0  0  0  0  2  0  0  0  0  0  0
  181.1180  180.4680  138.9320 C   0  0  0  0  0  2  0  0  0  0  0  0
  180.5940  181.6080  138.0800 C   0  0  0  0  0  2  0  0  0  0  0  0
  181.4830  182.7540  138.1800 N   0  0  0  0  0  2  0  0  0  0  0  0
  180.5480  183.7780  136.1650 O   0  0  0  0  0  0  0  0  0  0  0  0
  181.4460  183.8140  137.2260 C   0  0  0  0  0  0  0  0  0  0  0  0
  182.2320  184.7880  137.3460 O   0  0  0  0  0  1  0  0  0  0  0  0
  1 10  1  0  0  0  0
  2  7  1  0  0  0  0
  2  6  1  0  0  0  0
  3  8  1  0  0  0  0
  4  1  2  0  0  0  0
  5  3  2  0  0  0  0
  6  9  2  0  0  0  0
  8 15  1  0  0  0  0
 10 15  1  0  0  0  0
 10  2  2  0  0  0  0
 11  4  1  0  0  0  0
 11  8  2  0  0  0  0
 12 13  2  0  0  0  0
 12  5  1  0  0  0  0
 13 11  1  0  0  0  0
 14  9  1  0  0  0  0
 15 14  2  0  0  0  0
 16 17  2  0  0  0  0
 17 18  1  0  0  0  0
 18  4  1  0  0  0  0
 19 22  1  0  0  0  0
 19 21  1  0  0  0  0
 21 17  1  6  0  0  0
 21 20  1  0  0  0  0
 23 22  1  0  0  0  0
 23 20  1  0  0  0  0
 24 25  1  0  0  0  0
 24 18  1  0  0  0  0
 26 27  1  0  0  0  0
 26 25  1  0  0  0  0
 28 29  2  0  0  0  0
 29 30  1  0  0  0  0
 29 27  1  0  0  0  0
M  END
>  <MODEL>
3

>  <REMARK>
 VINA RESULT:      -7.1      1.587      3.154
  Name = 
  6 active torsions:
  status: ('A' for Active; 'I' for Inactive)
    1  A    between atoms: C_4  and  N_13
    2  A    between atoms: N_7  and  C_16
    3  A    between atoms: C_8  and  C_12
    4  A    between atoms: N_13  and  C_27
    5  A    between atoms: C_16  and  C_30
    6  A    between atoms: C_27  and  C_30
                            x       y       z     vdW  Elec       q    Type
                         _______ _______ _______ _____ _____    ______ ____

>  <TORSDO>
F 6

$$$$
=
 OpenBabel10272413523D

 30 33  0  0  1  0  0  0  0  0999 V2000
  187.1880  178.3460  141.3890 C   0  0  0  0  0  3  0  0  0  0  0  0
  184.9290  178.7710  140.6140 C   0  0  0  0  0  0  0  0  0  0  0  0
  185.8080  177.8510  145.3420 C   0  0  0  0  0  3  0  0  0  0  0  0
  188.0990  178.0740  142.4130 C   0  0  0  0  0  0  0  0  0  0  0  0
  186.7140  177.5510  146.3610 C   0  0  0  0  0  3  0  0  0  0  0  0
  183.5660  178.9110  140.8830 C   0  0  0  0  0  3  0  0  0  0  0  0
  185.3740  178.9270  139.3410 F   0  0  0  0  0  0  0  0  0  0  0  0
  186.2500  178.0240  144.0190 C   0  0  0  0  0  0  0  0  0  0  0  0
  183.0860  178.7580  142.1850 C   0  0  0  0  0  3  0  0  0  0  0  0
  185.8240  178.4790  141.6560 C   0  0  0  0  0  0  0  0  0  0  0  0
  187.6330  177.8910  143.7300 C   0  0  0  0  0  0  0  0  0  0  0  0
  188.0720  177.4190  146.0730 C   0  0  0  0  0  3  0  0  0  0  0  0
  188.5300  177.5880  144.7660 C   0  0  0  0  0  3  0  0  0  0  0  0
  183.9680  178.4650  143.2270 C   0  0  0  0  0  3  0  0  0  0  0  0
  185.3440  178.3220  142.9790 C   0  0  0  0  0  0  0  0  0  0  0  0
  191.1850  177.2850  140.6210 O   0  0  0  0  0  0  0  0  0  0  0  0
  189.9590  177.5180  140.7920 C   0  0  0  0  0  0  0  0  0  0  0  0
  189.4910  177.9340  142.0950 N   0  0  0  0  0  0  0  0  0  0  0  0
  189.3390  176.0980  138.8110 C   0  0  0  0  0  2  0  0  0  0  0  0
  189.0830  178.7740  138.4840 S   0  0  0  0  0  0  0  0  0  0  0  0
  189.0520  177.3460  139.6050 C   0  0  2  0  0  3  0  0  0  0  0  0
  188.9440  176.4170  137.3910 C   0  0  0  0  0  2  0  0  0  0  0  0
  189.4210  177.7530  137.0760 N   0  0  0  0  0  2  0  0  0  0  0  0
  190.4550  178.1700  143.1640 C   0  0  0  0  0  2  0  0  0  0  0  0
  191.6290  177.2150  143.0270 C   0  0  0  0  0  2  0  0  0  0  0  0
  191.6330  176.2240  144.1760 C   0  0  0  0  0  2  0  0  0  0  0  0
  191.6080  176.9340  145.4450 N   0  0  0  0  0  2  0  0  0  0  0  0
  192.3710  174.9620  146.6740 O   0  0  0  0  0  0  0  0  0  0  0  0
  191.9750  176.2940  146.6660 C   0  0  0  0  0  0  0  0  0  0  0  0
  191.9400  176.9410  147.7440 O   0  0  0  0  0  1  0  0  0  0  0  0
  1 10  2  0  0  0  0
  1  4  1  0  0  0  0
  2  6  2  0  0  0  0
  2 10  1  0  0  0  0
  3  5  2  0  0  0  0
  4 11  2  0  0  0  0
  6  9  1  0  0  0  0
  7  2  1  0  0  0  0
  8  3  1  0  0  0  0
  9 14  2  0  0  0  0
 10 15  1  0  0  0  0
 11  8  1  0  0  0  0
 11 13  1  0  0  0  0
 12  5  1  0  0  0  0
 13 12  2  0  0  0  0
 15 14  1  0  0  0  0
 15  8  2  0  0  0  0
 16 17  2  0  0  0  0
 17 18  1  0  0  0  0
 18  4  1  0  0  0  0
 18 24  1  0  0  0  0
 19 21  1  0  0  0  0
 20 21  1  0  0  0  0
 21 17  1  1  0  0  0
 22 19  1  0  0  0  0
 23 22  1  0  0  0  0
 23 20  1  0  0  0  0
 25 24  1  0  0  0  0
 25 26  1  0  0  0  0
 26 27  1  0  0  0  0
 27 29  1  0  0  0  0
 29 28  2  0  0  0  0
 29 30  1  0  0  0  0
M  END
>  <MODEL>
4

>  <REMARK>
 VINA RESULT:      -7.0      5.629      8.678
  Name = 
  6 active torsions:
  status: ('A' for Active; 'I' for Inactive)
    1  A    between atoms: C_4  and  N_13
    2  A    between atoms: N_7  and  C_16
    3  A    between atoms: C_8  and  C_12
    4  A    between atoms: N_13  and  C_27
    5  A    between atoms: C_16  and  C_30
    6  A    between atoms: C_27  and  C_30
                            x       y       z     vdW  Elec       q    Type
                         _______ _______ _______ _____ _____    ______ ____

>  <TORSDO>
F 6

$$$$
=
 OpenBabel10272413523D

 30 33  0  0  1  0  0  0  0  0999 V2000
  188.1920  177.7890  143.8510 C   0  0  0  0  0  3  0  0  0  0  0  0
  189.4040  177.0830  145.8300 C   0  0  0  0  0  0  0  0  0  0  0  0
  184.7070  178.4310  146.1360 C   0  0  0  0  0  3  0  0  0  0  0  0
  187.0220  178.2260  143.2250 C   0  0  0  0  0  0  0  0  0  0  0  0
  183.5450  178.8950  145.5150 C   0  0  0  0  0  3  0  0  0  0  0  0
  189.4320  176.8260  147.2030 C   0  0  0  0  0  3  0  0  0  0  0  0
  190.5270  176.8790  145.0950 F   0  0  0  0  0  0  0  0  0  0  0  0
  185.8770  178.2070  145.3900 C   0  0  0  0  0  0  0  0  0  0  0  0
  188.2880  177.0250  147.9800 C   0  0  0  0  0  3  0  0  0  0  0  0
  188.2220  177.5400  145.2250 C   0  0  0  0  0  0  0  0  0  0  0  0
  185.8640  178.4570  143.9930 C   0  0  0  0  0  0  0  0  0  0  0  0
  183.5370  179.1410  144.1430 C   0  0  0  0  0  3  0  0  0  0  0  0
  184.6890  178.9240  143.3850 C   0  0  0  0  0  3  0  0  0  0  0  0
  187.1090  177.4810  147.3860 C   0  0  0  0  0  3  0  0  0  0  0  0
  187.0580  177.7430  146.0060 C   0  0  0  0  0  0  0  0  0  0  0  0
  188.1720  178.5590  139.7720 O   0  0  0  0  0  0  0  0  0  0  0  0
  188.1750  178.1850  140.9740 C   0  0  0  0  0  0  0  0  0  0  0  0
  187.0360  178.4820  141.8130 N   0  0  0  0  0  0  0  0  0  0  0  0
  190.3480  178.3030  142.2360 C   0  0  0  0  0  2  0  0  0  0  0  0
  190.2910  176.6130  140.1200 S   0  0  0  0  0  0  0  0  0  0  0  0
  189.3870  177.4390  141.4620 C   0  0  2  0  0  3  0  0  0  0  0  0
  191.7130  177.7040  142.0070 C   0  0  0  0  0  2  0  0  0  0  0  0
  191.8260  177.3560  140.6000 N   0  0  0  0  0  2  0  0  0  0  0  0
  185.8630  179.1240  141.2310 C   0  0  0  0  0  2  0  0  0  0  0  0
  185.1030  178.1350  140.3640 C   0  0  0  0  0  2  0  0  0  0  0  0
  184.8630  178.7220  138.9870 C   0  0  0  0  0  2  0  0  0  0  0  0
  185.1140  177.7170  137.9670 N   0  0  0  0  0  2  0  0  0  0  0  0
  186.9460  179.0170  136.9990 O   0  0  0  0  0  1  0  0  0  0  0  0
  186.1450  177.8810  136.9950 C   0  0  0  0  0  0  0  0  0  0  0  0
  186.3320  176.9890  136.1280 O   0  0  0  0  0  0  0  0  0  0  0  0
  1 10  1  0  0  0  0
  2  6  1  0  0  0  0
  4  1  2  0  0  0  0
  4 11  1  0  0  0  0
  5  3  1  0  0  0  0
  6  9  2  0  0  0  0
  7  2  1  0  0  0  0
  8 15  1  0  0  0  0
  8  3  2  0  0  0  0
 10  2  2  0  0  0  0
 10 15  1  0  0  0  0
 11  8  1  0  0  0  0
 12  5  2  0  0  0  0
 13 11  2  0  0  0  0
 13 12  1  0  0  0  0
 14  9  1  0  0  0  0
 15 14  2  0  0  0  0
 16 17  2  0  0  0  0
 17 18  1  0  0  0  0
 18  4  1  0  0  0  0
 20 23  1  0  0  0  0
 20 21  1  0  0  0  0
 21 17  1  6  0  0  0
 21 19  1  0  0  0  0
 22 19  1  0  0  0  0
 23 22  1  0  0  0  0
 24 18  1  0  0  0  0
 25 24  1  0  0  0  0
 26 25  1  0  0  0  0
 27 26  1  0  0  0  0
 29 28  1  0  0  0  0
 29 27  1  0  0  0  0
 30 29  2  0  0  0  0
M  END
>  <MODEL>
5

>  <REMARK>
 VINA RESULT:      -6.8      4.115      5.967
  Name = 
  6 active torsions:
  status: ('A' for Active; 'I' for Inactive)
    1  A    between atoms: C_4  and  N_13
    2  A    between atoms: N_7  and  C_16
    3  A    between atoms: C_8  and  C_12
    4  A    between atoms: N_13  and  C_27
    5  A    between atoms: C_16  and  C_30
    6  A    between atoms: C_27  and  C_30
                            x       y       z     vdW  Elec       q    Type
                         _______ _______ _______ _____ _____    ______ ____

>  <TORSDO>
F 6

$$$$
=
 OpenBabel10272413523D

 30 33  0  0  1  0  0  0  0  0999 V2000
  185.4770  178.6780  142.4880 C   0  0  0  0  0  3  0  0  0  0  0  0
  184.2570  178.9370  144.5690 C   0  0  0  0  0  0  0  0  0  0  0  0
  188.7330  176.9520  144.5380 C   0  0  0  0  0  3  0  0  0  0  0  0
  186.6170  178.2900  141.7800 C   0  0  0  0  0  0  0  0  0  0  0  0
  189.8600  176.5380  143.8270 C   0  0  0  0  0  3  0  0  0  0  0  0
  184.1880  178.7880  145.9550 C   0  0  0  0  0  3  0  0  0  0  0  0
  183.2080  179.4900  143.9080 F   0  0  0  0  0  0  0  0  0  0  0  0
  187.6390  177.5340  143.8720 C   0  0  0  0  0  0  0  0  0  0  0  0
  185.2560  178.2260  146.6570 C   0  0  0  0  0  3  0  0  0  0  0  0
  185.4050  178.5230  143.8740 C   0  0  0  0  0  0  0  0  0  0  0  0
  187.6960  177.6970  142.4640 C   0  0  0  0  0  0  0  0  0  0  0  0
  189.9120  176.6990  142.4420 C   0  0  0  0  0  3  0  0  0  0  0  0
  188.8370  177.2750  141.7640 C   0  0  0  0  0  3  0  0  0  0  0  0
  186.4000  177.8090  145.9750 C   0  0  0  0  0  3  0  0  0  0  0  0
  186.4920  177.9510  144.5790 C   0  0  0  0  0  0  0  0  0  0  0  0
  185.5410  178.6070  138.3010 O   0  0  0  0  0  0  0  0  0  0  0  0
  185.4500  178.6020  139.5570 C   0  0  0  0  0  0  0  0  0  0  0  0
  186.6460  178.4560  140.3540 N   0  0  0  0  0  0  0  0  0  0  0  0
  183.3410  177.4460  140.2950 C   0  0  0  0  0  2  0  0  0  0  0  0
  183.0320  179.9130  139.2210 S   0  0  0  0  0  0  0  0  0  0  0  0
  184.0760  178.7540  140.1510 C   0  0  2  0  0  3  0  0  0  0  0  0
  181.8770  177.7840  140.1710 C   0  0  0  0  0  2  0  0  0  0  0  0
  181.7200  178.7310  139.0790 N   0  0  0  0  0  2  0  0  0  0  0  0
  187.9480  178.4130  139.6970 C   0  0  0  0  0  2  0  0  0  0  0  0
  187.9600  177.3250  138.6360 C   0  0  0  0  0  2  0  0  0  0  0  0
  189.1240  177.5330  137.6870 C   0  0  0  0  0  2  0  0  0  0  0  0
  190.3470  177.7590  138.4410 N   0  0  0  0  0  2  0  0  0  0  0  0
  190.8620  175.3690  138.5060 O   0  0  0  0  0  0  0  0  0  0  0  0
  191.1900  176.6780  138.8360 C   0  0  0  0  0  0  0  0  0  0  0  0
  192.2400  176.9130  139.4870 O   0  0  0  0  0  1  0  0  0  0  0  0
  1 10  1  0  0  0  0
  2  6  1  0  0  0  0
  4 11  1  0  0  0  0
  4  1  2  0  0  0  0
  5  3  2  0  0  0  0
  6  9  2  0  0  0  0
  7  2  1  0  0  0  0
  8  3  1  0  0  0  0
  8 15  1  0  0  0  0
 10  2  2  0  0  0  0
 10 15  1  0  0  0  0
 11  8  2  0  0  0  0
 12  5  1  0  0  0  0
 13 12  2  0  0  0  0
 13 11  1  0  0  0  0
 14  9  1  0  0  0  0
 15 14  2  0  0  0  0
 16 17  2  0  0  0  0
 17 18  1  0  0  0  0
 18  4  1  0  0  0  0
 20 21  1  0  0  0  0
 21 17  1  6  0  0  0
 21 19  1  0  0  0  0
 22 19  1  0  0  0  0
 23 20  1  0  0  0  0
 23 22  1  0  0  0  0
 24 18  1  0  0  0  0
 25 24  1  0  0  0  0
 26 27  1  0  0  0  0
 26 25  1  0  0  0  0
 27 29  1  0  0  0  0
 28 29  2  0  0  0  0
 29 30  1  0  0  0  0
M  END
>  <MODEL>
6

>  <REMARK>
 VINA RESULT:      -6.8      3.812      6.658
  Name = 
  6 active torsions:
  status: ('A' for Active; 'I' for Inactive)
    1  A    between atoms: C_4  and  N_13
    2  A    between atoms: N_7  and  C_16
    3  A    between atoms: C_8  and  C_12
    4  A    between atoms: N_13  and  C_27
    5  A    between atoms: C_16  and  C_30
    6  A    between atoms: C_27  and  C_30
                            x       y       z     vdW  Elec       q    Type
                         _______ _______ _______ _____ _____    ______ ____

>  <TORSDO>
F 6

$$$$
=
 OpenBabel10272413523D

 30 33  0  0  1  0  0  0  0  0999 V2000
  188.4850  177.7540  141.7340 C   0  0  0  0  0  3  0  0  0  0  0  0
  190.7050  177.0220  142.3840 C   0  0  0  0  0  0  0  0  0  0  0  0
  187.2110  177.6670  145.7530 C   0  0  0  0  0  3  0  0  0  0  0  0
  187.1660  178.0880  142.0520 C   0  0  0  0  0  0  0  0  0  0  0  0
  185.9000  178.0270  146.0730 C   0  0  0  0  0  3  0  0  0  0  0  0
  191.6060  176.6310  143.3760 C   0  0  0  0  0  3  0  0  0  0  0  0
  191.1160  177.0530  141.0900 F   0  0  0  0  0  0  0  0  0  0  0  0
  187.6520  177.6860  144.4180 C   0  0  0  0  0  0  0  0  0  0  0  0
  191.2050  176.5880  144.7140 C   0  0  0  0  0  3  0  0  0  0  0  0
  189.3890  177.3710  142.7270 C   0  0  0  0  0  0  0  0  0  0  0  0
  186.7480  178.0750  143.3970 C   0  0  0  0  0  0  0  0  0  0  0  0
  185.0140  178.4110  145.0670 C   0  0  0  0  0  3  0  0  0  0  0  0
  185.4340  178.4350  143.7360 C   0  0  0  0  0  3  0  0  0  0  0  0
  189.8990  176.9350  145.0650 C   0  0  0  0  0  3  0  0  0  0  0  0
  188.9750  177.3290  144.0820 C   0  0  0  0  0  0  0  0  0  0  0  0
  185.8470  178.9070  138.7430 O   0  0  0  0  0  0  0  0  0  0  0  0
  186.6240  178.4130  139.6030 C   0  0  0  0  0  0  0  0  0  0  0  0
  186.2720  178.4870  141.0020 N   0  0  0  0  0  0  0  0  0  0  0  0
  188.9360  178.7610  138.6740 C   0  0  0  0  0  2  0  0  0  0  0  0
  187.5890  176.6060  137.7380 S   0  0  0  0  0  0  0  0  0  0  0  0
  187.8870  177.7670  139.1020 C   0  0  2  0  0  3  0  0  0  0  0  0
  189.7320  178.0760  137.5920 C   0  0  0  0  0  2  0  0  0  0  0  0
  188.8020  177.3890  136.7110 N   0  0  0  0  0  2  0  0  0  0  0  0
  184.9820  179.0450  141.3910 C   0  0  0  0  0  2  0  0  0  0  0  0
  183.8600  178.1190  140.9520 C   0  0  0  0  0  2  0  0  0  0  0  0
  182.5180  178.8010  141.1330 C   0  0  0  0  0  2  0  0  0  0  0  0
  181.9310  178.4130  142.4060 N   0  0  0  0  0  2  0  0  0  0  0  0
  180.3610  180.2880  142.3630 O   0  0  0  0  0  0  0  0  0  0  0  0
  180.8690  179.1600  142.9970 C   0  0  0  0  0  0  0  0  0  0  0  0
  180.3880  178.7940  144.1000 O   0  0  0  0  0  1  0  0  0  0  0  0
  1  4  2  0  0  0  0
  1 10  1  0  0  0  0
  2 10  2  0  0  0  0
  2  6  1  0  0  0  0
  3  5  1  0  0  0  0
  4 11  1  0  0  0  0
  6  9  2  0  0  0  0
  7  2  1  0  0  0  0
  8  3  2  0  0  0  0
  9 14  1  0  0  0  0
 10 15  1  0  0  0  0
 11 13  2  0  0  0  0
 11  8  1  0  0  0  0
 12  5  2  0  0  0  0
 13 12  1  0  0  0  0
 15  8  1  0  0  0  0
 15 14  2  0  0  0  0
 16 17  2  0  0  0  0
 17 18  1  0  0  0  0
 18 24  1  0  0  0  0
 18  4  1  0  0  0  0
 19 21  1  0  0  0  0
 20 21  1  0  0  0  0
 21 17  1  6  0  0  0
 22 19  1  0  0  0  0
 23 22  1  0  0  0  0
 23 20  1  0  0  0  0
 25 26  1  0  0  0  0
 25 24  1  0  0  0  0
 26 27  1  0  0  0  0
 27 29  1  0  0  0  0
 28 29  2  0  0  0  0
 29 30  1  0  0  0  0
M  END
>  <MODEL>
7

>  <REMARK>
 VINA RESULT:      -6.8      3.814      5.518
  Name = 
  6 active torsions:
  status: ('A' for Active; 'I' for Inactive)
    1  A    between atoms: C_4  and  N_13
    2  A    between atoms: N_7  and  C_16
    3  A    between atoms: C_8  and  C_12
    4  A    between atoms: N_13  and  C_27
    5  A    between atoms: C_16  and  C_30
    6  A    between atoms: C_27  and  C_30
                            x       y       z     vdW  Elec       q    Type
                         _______ _______ _______ _____ _____    ______ ____

>  <TORSDO>
F 6

$$$$
=
 OpenBabel10272413523D

 30 33  0  0  1  0  0  0  0  0999 V2000
  188.4890  177.7140  141.9220 C   0  0  0  0  0  3  0  0  0  0  0  0
  190.7060  176.9690  142.5650 C   0  0  0  0  0  0  0  0  0  0  0  0
  187.2350  177.6660  145.9470 C   0  0  0  0  0  3  0  0  0  0  0  0
  187.1740  178.0590  142.2440 C   0  0  0  0  0  0  0  0  0  0  0  0
  185.9290  178.0380  146.2720 C   0  0  0  0  0  3  0  0  0  0  0  0
  191.6100  176.5790  143.5560 C   0  0  0  0  0  3  0  0  0  0  0  0
  191.1110  176.9880  141.2690 F   0  0  0  0  0  0  0  0  0  0  0  0
  187.6700  177.6710  144.6100 C   0  0  0  0  0  0  0  0  0  0  0  0
  191.2160  176.5480  144.8950 C   0  0  0  0  0  3  0  0  0  0  0  0
  189.3950  177.3300  142.9130 C   0  0  0  0  0  0  0  0  0  0  0  0
  186.7630  178.0600  143.5900 C   0  0  0  0  0  0  0  0  0  0  0  0
  185.0410  178.4210  145.2670 C   0  0  0  0  0  3  0  0  0  0  0  0
  185.4540  178.4320  143.9340 C   0  0  0  0  0  3  0  0  0  0  0  0
  189.9140  176.9080  145.2510 C   0  0  0  0  0  3  0  0  0  0  0  0
  188.9880  177.3020  144.2700 C   0  0  0  0  0  0  0  0  0  0  0  0
  185.8530  178.8950  138.9390 O   0  0  0  0  0  0  0  0  0  0  0  0
  186.6340  178.4030  139.7960 C   0  0  0  0  0  0  0  0  0  0  0  0
  186.2780  178.4580  141.1960 N   0  0  0  0  0  0  0  0  0  0  0  0
  188.9310  178.7880  138.8460 C   0  0  0  0  0  2  0  0  0  0  0  0
  187.6220  176.5950  137.9430 S   0  0  0  0  0  0  0  0  0  0  0  0
  187.9060  177.7780  139.2920 C   0  0  2  0  0  3  0  0  0  0  0  0
  189.7320  178.1070  137.7640 C   0  0  0  0  0  2  0  0  0  0  0  0
  188.8100  177.3920  136.8980 N   0  0  0  0  0  2  0  0  0  0  0  0
  184.9800  178.9960  141.5870 C   0  0  0  0  0  2  0  0  0  0  0  0
  183.8740  178.0380  141.1760 C   0  0  0  0  0  2  0  0  0  0  0  0
  182.5700  178.7900  140.9970 C   0  0  0  0  0  2  0  0  0  0  0  0
  182.0580  178.5850  139.6510 N   0  0  0  0  0  2  0  0  0  0  0  0
  183.0710  180.6610  138.8460 O   0  0  0  0  0  1  0  0  0  0  0  0
  182.3150  179.5200  138.6040 C   0  0  0  0  0  0  0  0  0  0  0  0
  181.8560  179.3080  137.4530 O   0  0  0  0  0  0  0  0  0  0  0  0
  1  4  2  0  0  0  0
  1 10  1  0  0  0  0
  2 10  2  0  0  0  0
  2  6  1  0  0  0  0
  3  5  1  0  0  0  0
  4 11  1  0  0  0  0
  6  9  2  0  0  0  0
  7  2  1  0  0  0  0
  8  3  2  0  0  0  0
  9 14  1  0  0  0  0
 10 15  1  0  0  0  0
 11 13  2  0  0  0  0
 11  8  1  0  0  0  0
 12  5  2  0  0  0  0
 13 12  1  0  0  0  0
 15  8  1  0  0  0  0
 15 14  2  0  0  0  0
 16 17  2  0  0  0  0
 17 18  1  0  0  0  0
 18 24  1  0  0  0  0
 18  4  1  0  0  0  0
 19 21  1  0  0  0  0
 20 21  1  0  0  0  0
 21 17  1  6  0  0  0
 22 19  1  0  0  0  0
 23 22  1  0  0  0  0
 23 20  1  0  0  0  0
 25 24  1  0  0  0  0
 26 25  1  0  0  0  0
 27 26  1  0  0  0  0
 29 28  1  0  0  0  0
 29 27  1  0  0  0  0
 30 29  2  0  0  0  0
M  END
>  <MODEL>
8

>  <REMARK>
 VINA RESULT:      -6.8      3.113      5.050
  Name = 
  6 active torsions:
  status: ('A' for Active; 'I' for Inactive)
    1  A    between atoms: C_4  and  N_13
    2  A    between atoms: N_7  and  C_16
    3  A    between atoms: C_8  and  C_12
    4  A    between atoms: N_13  and  C_27
    5  A    between atoms: C_16  and  C_30
    6  A    between atoms: C_27  and  C_30
                            x       y       z     vdW  Elec       q    Type
                         _______ _______ _______ _____ _____    ______ ____

>  <TORSDO>
F 6

$$$$
=
 OpenBabel10272413523D

 30 33  0  0  1  0  0  0  0  0999 V2000
  187.5460  178.0460  143.5260 C   0  0  0  0  0  3  0  0  0  0  0  0
  186.5070  178.0820  145.7170 C   0  0  0  0  0  0  0  0  0  0  0  0
  183.8320  178.8030  141.6810 C   0  0  0  0  0  3  0  0  0  0  0  0
  187.4670  178.1290  142.1330 C   0  0  0  0  0  0  0  0  0  0  0  0
  183.7570  178.9150  140.2910 C   0  0  0  0  0  3  0  0  0  0  0  0
  185.3670  178.2190  146.5110 C   0  0  0  0  0  3  0  0  0  0  0  0
  187.7040  177.8420  146.3110 F   0  0  0  0  0  0  0  0  0  0  0  0
  185.0610  178.5470  142.3130 C   0  0  0  0  0  0  0  0  0  0  0  0
  184.1240  178.4630  145.9230 C   0  0  0  0  0  3  0  0  0  0  0  0
  186.4080  178.1890  144.3210 C   0  0  0  0  0  0  0  0  0  0  0  0
  186.2280  178.4000  141.5200 C   0  0  0  0  0  0  0  0  0  0  0  0
  184.9070  178.7720  139.5150 C   0  0  0  0  0  3  0  0  0  0  0  0
  186.1360  178.5160  140.1250 C   0  0  0  0  0  3  0  0  0  0  0  0
  184.0160  178.5720  144.5350 C   0  0  0  0  0  3  0  0  0  0  0  0
  185.1500  178.4370  143.7170 C   0  0  0  0  0  0  0  0  0  0  0  0
  190.9640  177.6020  141.2100 O   0  0  0  0  0  0  0  0  0  0  0  0
  189.9260  177.5740  141.9230 C   0  0  0  0  0  0  0  0  0  0  0  0
  188.6640  177.9870  141.3530 N   0  0  0  0  0  0  0  0  0  0  0  0
  190.9990  177.9630  144.1640 C   0  0  0  0  0  2  0  0  0  0  0  0
  190.6300  175.3750  143.4550 S   0  0  0  0  0  0  0  0  0  0  0  0
  190.0750  177.1010  143.3430 C   0  0  2  0  0  3  0  0  0  0  0  0
  191.6060  177.0450  145.1960 C   0  0  0  0  0  2  0  0  0  0  0  0
  191.9660  175.7990  144.5400 N   0  0  0  0  0  2  0  0  0  0  0  0
  188.5930  178.3380  139.9390 C   0  0  0  0  0  2  0  0  0  0  0  0
  189.0890  177.1800  139.0900 C   0  0  0  0  0  2  0  0  0  0  0  0
  189.5550  177.6850  137.7380 C   0  0  0  0  0  2  0  0  0  0  0  0
  188.5700  177.3590  136.7190 N   0  0  0  0  0  2  0  0  0  0  0  0
  187.4980  179.5480  136.9180 O   0  0  0  0  0  1  0  0  0  0  0  0
  187.5630  178.2910  136.3290 C   0  0  0  0  0  0  0  0  0  0  0  0
  186.7290  177.9720  135.4430 O   0  0  0  0  0  0  0  0  0  0  0  0
  1 10  1  0  0  0  0
  2  7  1  0  0  0  0
  2  6  1  0  0  0  0
  3  8  1  0  0  0  0
  4  1  2  0  0  0  0
  5  3  2  0  0  0  0
  8 15  1  0  0  0  0
  9  6  2  0  0  0  0
 10  2  2  0  0  0  0
 11  4  1  0  0  0  0
 11  8  2  0  0  0  0
 12 13  2  0  0  0  0
 12  5  1  0  0  0  0
 13 11  1  0  0  0  0
 14  9  1  0  0  0  0
 15 10  1  0  0  0  0
 15 14  2  0  0  0  0
 16 17  2  0  0  0  0
 18 17  1  0  0  0  0
 18  4  1  0  0  0  0
 19 22  1  0  0  0  0
 20 23  1  0  0  0  0
 21 17  1  6  0  0  0
 21 20  1  0  0  0  0
 21 19  1  0  0  0  0
 23 22  1  0  0  0  0
 24 18  1  0  0  0  0
 25 24  1  0  0  0  0
 26 25  1  0  0  0  0
 27 26  1  0  0  0  0
 29 27  1  0  0  0  0
 29 28  1  0  0  0  0
 30 29  2  0  0  0  0
M  END
>  <MODEL>
9

>  <REMARK>
 VINA RESULT:      -6.7      4.595      6.879
  Name = 
  6 active torsions:
  status: ('A' for Active; 'I' for Inactive)
    1  A    between atoms: C_4  and  N_13
    2  A    between atoms: N_7  and  C_16
    3  A    between atoms: C_8  and  C_12
    4  A    between atoms: N_13  and  C_27
    5  A    between atoms: C_16  and  C_30
    6  A    between atoms: C_27  and  C_30
                            x       y       z     vdW  Elec       q    Type
                         _______ _______ _______ _____ _____    ______ ____

>  <TORSDO>
F 6

$$$$
