=
 OpenBabel10272402123D

 32 38  0  0  1  0  0  0  0  0999 V2000
  185.3000  178.0750  143.4700 C   0  0  1  0  0  3  0  0  0  0  0  0
  185.0920  179.3430  141.2820 C   0  0  2  0  0  3  0  0  0  0  0  0
  184.7050  179.1660  144.2520 N   0  0  0  0  0  0  0  0  0  0  0  0
  184.7210  178.0710  142.0960 C   0  0  2  0  0  3  0  0  0  0  0  0
  184.8240  179.0830  139.8110 C   0  0  1  0  0  3  0  0  0  0  0  0
  186.2860  179.0940  140.3670 C   0  0  2  0  0  3  0  0  0  0  0  0
  183.2340  177.8990  142.1210 C   0  0  2  0  0  3  0  0  0  0  0  0
  182.7280  177.9370  140.6550 C   0  0  0  0  0  2  0  0  0  0  0  0
  182.6760  178.9590  142.9690 N   0  0  0  0  0  2  0  0  0  0  0  0
  187.5290  178.6160  142.3550 O   0  0  0  0  0  0  0  0  0  0  0  0
  186.8520  177.9580  143.4220 C   0  0  1  0  0  3  0  0  0  0  0  0
  187.1510  178.0470  141.1090 C   0  0  2  0  0  3  0  0  0  0  0  0
  183.9120  177.8380  139.6360 C   0  0  1  0  0  3  0  0  0  0  0  0
  183.4660  179.5420  144.0400 C   0  0  0  0  0  3  0  0  0  0  0  0
  189.4650  177.8490  146.2640 C   0  0  2  0  0  3  0  0  0  0  0  0
  188.1560  177.8270  149.2320 N   0  0  0  0  0  2  0  0  0  0  0  0
  190.3460  176.9470  147.0890 C   0  0  0  0  0  2  0  0  0  0  0  0
  186.7920  178.3540  147.2890 C   0  0  0  0  0  2  0  0  0  0  0  0
  187.5220  178.1870  144.7800 C   0  0  1  0  0  3  0  0  0  0  0  0
  188.8410  176.7920  147.1610 C   0  0  1  0  0  3  0  0  0  0  0  0
  186.5010  177.7910  145.8760 C   0  0  0  0  0  2  0  0  0  0  0  0
  188.8990  177.4700  144.9190 C   0  0  1  0  0  3  0  0  0  0  0  0
  189.8760  177.9150  143.8440 C   0  0  0  0  0  1  0  0  0  0  0  0
  187.9480  177.6610  147.9780 C   0  0  0  0  0  0  0  0  0  0  0  0
  188.4390  178.1140  138.9720 C   0  0  0  0  0  3  0  0  0  0  0  0
  190.6210  177.0830  138.7720 C   0  0  0  0  0  3  0  0  0  0  0  0
  189.4210  176.9750  140.8710 C   0  0  0  0  0  3  0  0  0  0  0  0
  190.5480  176.6670  140.1050 C   0  0  0  0  0  3  0  0  0  0  0  0
  189.5670  177.8060  138.2060 C   0  0  0  0  0  3  0  0  0  0  0  0
  188.3590  177.6970  140.3050 C   0  0  0  0  0  0  0  0  0  0  0  0
  183.4100  177.8060  138.3350 O   0  0  0  0  0  0  0  0  0  0  0  0
  184.4700  177.3360  137.5580 C   0  0  0  0  0  1  0  0  0  0  0  0
  1  3  1  6  0  0  0
  2  4  1  0  0  0  0
  4  7  1  0  0  0  0
  4  1  1  0  0  0  0
  5  6  1  0  0  0  0
  5  2  1  0  0  0  0
  6 12  1  0  0  0  0
  6  2  1  0  0  0  0
  7  9  1  0  0  0  0
  8  7  1  0  0  0  0
  9 14  1  0  0  0  0
 10 11  1  0  0  0  0
 11  1  1  0  0  0  0
 11 19  1  0  0  0  0
 12 10  1  0  0  0  0
 13  5  1  0  0  0  0
 13  8  1  0  0  0  0
 14  3  2  0  0  0  0
 15 17  1  0  0  0  0
 15 20  1  0  0  0  0
 17 20  1  0  0  0  0
 18 24  1  0  0  0  0
 19 22  1  0  0  0  0
 19 21  1  0  0  0  0
 20 24  1  0  0  0  0
 21 18  1  0  0  0  0
 22 15  1  0  0  0  0
 23 22  1  0  0  0  0
 24 16  2  0  0  0  0
 25 30  1  0  0  0  0
 26 28  2  0  0  0  0
 28 27  1  0  0  0  0
 29 26  1  0  0  0  0
 29 25  2  0  0  0  0
 30 27  2  0  0  0  0
 30 12  1  0  0  0  0
 31 13  1  0  0  0  0
 32 31  1  0  0  0  0
M  END
>  <MODEL>
1

>  <REMARK>
 VINA RESULT:      -9.2      0.000      0.000
  Name = 
  3 active torsions:
  status: ('A' for Active; 'I' for Inactive)
    1  A    between atoms: O_13  and  C_29
    2  A    between atoms: C_16  and  C_27
    3  A    between atoms: C_28  and  C_32
                            x       y       z     vdW  Elec       q    Type
                         _______ _______ _______ _____ _____    ______ ____

>  <TORSDO>
F 3

$$$$
=
 OpenBabel10272402123D

 32 38  0  0  1  0  0  0  0  0999 V2000
  185.6870  178.7350  141.5280 C   0  0  1  0  0  3  0  0  0  0  0  0
  185.5760  177.5190  143.7530 C   0  0  2  0  0  3  0  0  0  0  0  0
  184.5750  177.9630  140.9590 N   0  0  0  0  0  0  0  0  0  0  0  0
  185.4950  178.8780  143.0000 C   0  0  2  0  0  3  0  0  0  0  0  0
  185.7790  177.7860  145.2330 C   0  0  1  0  0  3  0  0  0  0  0  0
  186.9640  177.2860  144.3410 C   0  0  2  0  0  3  0  0  0  0  0  0
  184.2060  179.5640  143.3280 C   0  0  2  0  0  3  0  0  0  0  0  0
  184.0870  179.6370  144.8730 C   0  0  0  0  0  2  0  0  0  0  0  0
  183.1230  178.8110  142.6840 N   0  0  0  0  0  2  0  0  0  0  0  0
  187.7780  177.3900  142.0940 O   0  0  0  0  0  0  0  0  0  0  0  0
  187.1430  178.2940  141.1960 C   0  0  1  0  0  3  0  0  0  0  0  0
  187.9370  177.9950  143.3700 C   0  0  2  0  0  3  0  0  0  0  0  0
  185.4370  179.2630  145.5710 C   0  0  1  0  0  3  0  0  0  0  0  0
  183.3730  178.0390  141.4800 C   0  0  0  0  0  3  0  0  0  0  0  0
  188.8250  177.7660  137.7590 C   0  0  2  0  0  3  0  0  0  0  0  0
  186.7920  178.1010  135.2530 N   0  0  0  0  0  2  0  0  0  0  0  0
  189.6290  178.4290  136.6710 C   0  0  0  0  0  2  0  0  0  0  0  0
  185.9310  177.9210  137.5210 C   0  0  0  0  0  2  0  0  0  0  0  0
  187.3410  177.9090  139.7260 C   0  0  1  0  0  3  0  0  0  0  0  0
  188.2400  178.9420  136.9920 C   0  0  1  0  0  3  0  0  0  0  0  0
  186.1790  178.5380  138.9190 C   0  0  0  0  0  2  0  0  0  0  0  0
  188.7540  178.2720  139.1780 C   0  0  1  0  0  3  0  0  0  0  0  0
  189.8580  177.6050  139.9800 C   0  0  0  0  0  1  0  0  0  0  0  0
  186.9810  178.3140  136.5030 C   0  0  0  0  0  0  0  0  0  0  0  0
  190.3120  178.7610  143.3880 C   0  0  0  0  0  3  0  0  0  0  0  0
  191.9950  177.6490  144.7270 C   0  0  0  0  0  3  0  0  0  0  0  0
  189.7110  176.8500  144.7490 C   0  0  0  0  0  3  0  0  0  0  0  0
  191.0340  176.7460  145.1890 C   0  0  0  0  0  3  0  0  0  0  0  0
  191.6350  178.6570  143.8280 C   0  0  0  0  0  3  0  0  0  0  0  0
  189.3470  177.8570  143.8430 C   0  0  0  0  0  0  0  0  0  0  0  0
  185.3070  179.4080  146.9520 O   0  0  0  0  0  0  0  0  0  0  0  0
  186.3870  178.7020  147.4850 C   0  0  0  0  0  1  0  0  0  0  0  0
  1  3  1  1  0  0  0
  1  4  1  0  0  0  0
  2  6  1  0  0  0  0
  2  5  1  0  0  0  0
  3 14  2  0  0  0  0
  4  7  1  0  0  0  0
  4  2  1  0  0  0  0
  5 13  1  0  0  0  0
  6  5  1  0  0  0  0
  7  8  1  0  0  0  0
  8 13  1  0  0  0  0
  9  7  1  0  0  0  0
 10 12  1  0  0  0  0
 11  1  1  0  0  0  0
 11 10  1  0  0  0  0
 12 30  1  0  0  0  0
 12  6  1  0  0  0  0
 13 31  1  0  0  0  0
 14  9  1  0  0  0  0
 15 22  1  0  0  0  0
 16 24  2  0  0  0  0
 17 20  1  0  0  0  0
 17 15  1  0  0  0  0
 18 21  1  0  0  0  0
 19 11  1  0  0  0  0
 20 15  1  0  0  0  0
 21 19  1  0  0  0  0
 22 19  1  0  0  0  0
 22 23  1  0  0  0  0
 24 20  1  0  0  0  0
 24 18  1  0  0  0  0
 25 29  2  0  0  0  0
 25 30  1  0  0  0  0
 26 28  2  0  0  0  0
 27 28  1  0  0  0  0
 29 26  1  0  0  0  0
 30 27  2  0  0  0  0
 31 32  1  0  0  0  0
M  END
>  <MODEL>
2

>  <REMARK>
 VINA RESULT:      -8.9      2.279      6.491
  Name = 
  3 active torsions:
  status: ('A' for Active; 'I' for Inactive)
    1  A    between atoms: O_13  and  C_29
    2  A    between atoms: C_16  and  C_27
    3  A    between atoms: C_28  and  C_32
                            x       y       z     vdW  Elec       q    Type
                         _______ _______ _______ _____ _____    ______ ____

>  <TORSDO>
F 3

$$$$
=
 OpenBabel10272402123D

 32 38  0  0  1  0  0  0  0  0999 V2000
  183.7180  178.0240  141.8640 C   0  0  1  0  0  3  0  0  0  0  0  0
  183.1510  179.3160  139.7540 C   0  0  2  0  0  3  0  0  0  0  0  0
  182.9960  178.9650  142.7300 N   0  0  0  0  0  0  0  0  0  0  0  0
  183.0600  177.9690  140.5270 C   0  0  2  0  0  3  0  0  0  0  0  0
  182.8360  179.0660  138.2910 C   0  0  1  0  0  3  0  0  0  0  0  0
  184.3080  179.3130  138.7610 C   0  0  2  0  0  3  0  0  0  0  0  0
  181.6290  177.5380  140.6310 C   0  0  2  0  0  3  0  0  0  0  0  0
  181.0290  177.5410  139.2010 C   0  0  0  0  0  2  0  0  0  0  0  0
  180.9540  178.4530  141.5600 N   0  0  0  0  0  2  0  0  0  0  0  0
  185.7420  178.9880  140.6480 O   0  0  0  0  0  0  0  0  0  0  0  0
  185.2610  178.1830  141.7190 C   0  0  1  0  0  3  0  0  0  0  0  0
  185.3870  178.4080  139.4000 C   0  0  2  0  0  3  0  0  0  0  0  0
  182.1430  177.6880  138.1110 C   0  0  1  0  0  3  0  0  0  0  0  0
  181.7000  179.1260  142.6090 C   0  0  0  0  0  3  0  0  0  0  0  0
  187.8270  178.0050  144.6000 C   0  0  2  0  0  3  0  0  0  0  0  0
  186.5530  178.6350  147.5160 N   0  0  0  0  0  2  0  0  0  0  0  0
  188.5350  177.0830  145.5600 C   0  0  0  0  0  2  0  0  0  0  0  0
  185.2950  179.1210  145.4920 C   0  0  0  0  0  2  0  0  0  0  0  0
  185.9690  178.4760  143.0460 C   0  0  1  0  0  3  0  0  0  0  0  0
  187.0270  177.2140  145.6230 C   0  0  1  0  0  3  0  0  0  0  0  0
  184.9000  178.4280  144.1660 C   0  0  0  0  0  2  0  0  0  0  0  0
  187.1940  177.5490  143.3100 C   0  0  1  0  0  3  0  0  0  0  0  0
  188.2290  177.6560  142.2040 C   0  0  0  0  0  1  0  0  0  0  0  0
  186.3110  178.3350  146.2930 C   0  0  0  0  0  0  0  0  0  0  0  0
  186.3990  178.1700  137.1310 C   0  0  0  0  0  3  0  0  0  0  0  0
  188.7980  178.1330  136.8080 C   0  0  0  0  0  3  0  0  0  0  0  0
  187.8820  178.3570  139.0370 C   0  0  0  0  0  3  0  0  0  0  0  0
  188.9880  178.2700  138.1870 C   0  0  0  0  0  3  0  0  0  0  0  0
  187.5050  178.0830  136.2810 C   0  0  0  0  0  3  0  0  0  0  0  0
  186.5820  178.3040  138.5120 C   0  0  0  0  0  0  0  0  0  0  0  0
  181.5700  177.6160  136.8410 O   0  0  0  0  0  0  0  0  0  0  0  0
  181.0590  178.8940  136.6100 C   0  0  0  0  0  1  0  0  0  0  0  0
  1  3  1  1  0  0  0
  2  4  1  0  0  0  0
  4  7  1  0  0  0  0
  4  1  1  0  0  0  0
  5  6  1  0  0  0  0
  5  2  1  0  0  0  0
  6 12  1  0  0  0  0
  6  2  1  0  0  0  0
  7  9  1  0  0  0  0
  8  7  1  0  0  0  0
  9 14  1  0  0  0  0
 10 11  1  0  0  0  0
 11  1  1  0  0  0  0
 11 19  1  0  0  0  0
 12 10  1  0  0  0  0
 13  5  1  0  0  0  0
 13  8  1  0  0  0  0
 14  3  2  0  0  0  0
 15 17  1  0  0  0  0
 15 20  1  0  0  0  0
 17 20  1  0  0  0  0
 18 24  1  0  0  0  0
 19 22  1  0  0  0  0
 19 21  1  0  0  0  0
 20 24  1  0  0  0  0
 21 18  1  0  0  0  0
 22 15  1  0  0  0  0
 23 22  1  0  0  0  0
 24 16  2  0  0  0  0
 25 30  1  0  0  0  0
 26 28  2  0  0  0  0
 28 27  1  0  0  0  0
 29 26  1  0  0  0  0
 29 25  2  0  0  0  0
 30 27  2  0  0  0  0
 30 12  1  0  0  0  0
 31 13  1  0  0  0  0
 32 31  1  0  0  0  0
M  END
>  <MODEL>
3

>  <REMARK>
 VINA RESULT:      -8.7      1.720      2.522
  Name = 
  3 active torsions:
  status: ('A' for Active; 'I' for Inactive)
    1  A    between atoms: O_13  and  C_29
    2  A    between atoms: C_16  and  C_27
    3  A    between atoms: C_28  and  C_32
                            x       y       z     vdW  Elec       q    Type
                         _______ _______ _______ _____ _____    ______ ____

>  <TORSDO>
F 3

$$$$
=
 OpenBabel10272402123D

 32 38  0  0  1  0  0  0  0  0999 V2000
  189.8120  177.0210  141.2320 C   0  0  1  0  0  3  0  0  0  0  0  0
  189.9460  178.3710  143.3780 C   0  0  2  0  0  3  0  0  0  0  0  0
  190.9670  177.7040  140.6360 N   0  0  0  0  0  0  0  0  0  0  0  0
  189.9740  176.9640  142.7140 C   0  0  2  0  0  3  0  0  0  0  0  0
  189.7090  178.2070  144.8680 C   0  0  1  0  0  3  0  0  0  0  0  0
  188.5630  178.7040  143.9250 C   0  0  2  0  0  3  0  0  0  0  0  0
  191.2250  176.2410  143.1070 C   0  0  2  0  0  3  0  0  0  0  0  0
  191.3170  176.2610  144.6550 C   0  0  0  0  0  2  0  0  0  0  0  0
  192.3520  176.9010  142.4360 N   0  0  0  0  0  2  0  0  0  0  0  0
  187.7780  178.4950  141.6750 O   0  0  0  0  0  0  0  0  0  0  0  0
  188.3830  177.5070  140.8470 C   0  0  1  0  0  3  0  0  0  0  0  0
  187.5720  177.9800  142.9830 C   0  0  2  0  0  3  0  0  0  0  0  0
  189.9760  176.7410  145.3040 C   0  0  1  0  0  3  0  0  0  0  0  0
  192.1560  177.6060  141.1820 C   0  0  0  0  0  3  0  0  0  0  0  0
  186.7430  178.1440  137.4080 C   0  0  2  0  0  3  0  0  0  0  0  0
  188.5340  177.1210  134.9050 N   0  0  0  0  0  2  0  0  0  0  0  0
  185.7610  177.6100  136.3990 C   0  0  0  0  0  2  0  0  0  0  0  0
  189.5030  177.2720  137.1310 C   0  0  0  0  0  2  0  0  0  0  0  0
  188.2260  177.8070  139.3530 C   0  0  1  0  0  3  0  0  0  0  0  0
  186.9970  176.8030  136.7380 C   0  0  1  0  0  3  0  0  0  0  0  0
  189.1690  176.8500  138.5830 C   0  0  0  0  0  2  0  0  0  0  0  0
  186.7460  177.7550  138.8650 C   0  0  1  0  0  3  0  0  0  0  0  0
  185.8680  178.7330  139.6250 C   0  0  0  0  0  1  0  0  0  0  0  0
  188.3490  177.0640  136.1730 C   0  0  0  0  0  0  0  0  0  0  0  0
  185.9030  178.4950  144.7670 C   0  0  0  0  0  3  0  0  0  0  0  0
  183.5390  178.6800  144.2780 C   0  0  0  0  0  3  0  0  0  0  0  0
  185.1040  178.1710  142.5030 C   0  0  0  0  0  3  0  0  0  0  0  0
  183.7930  178.4030  142.9310 C   0  0  0  0  0  3  0  0  0  0  0  0
  184.5930  178.7270  145.1950 C   0  0  0  0  0  3  0  0  0  0  0  0
  186.1640  178.2130  143.4210 C   0  0  0  0  0  0  0  0  0  0  0  0
  190.0780  176.6780  146.6940 O   0  0  0  0  0  0  0  0  0  0  0  0
  191.4360  176.4680  146.9400 C   0  0  0  0  0  1  0  0  0  0  0  0
  1  3  1  1  0  0  0
  1  4  1  0  0  0  0
  2  6  1  0  0  0  0
  2  5  1  0  0  0  0
  3 14  2  0  0  0  0
  4  7  1  0  0  0  0
  4  2  1  0  0  0  0
  5 13  1  0  0  0  0
  6  5  1  0  0  0  0
  7  8  1  0  0  0  0
  8 13  1  0  0  0  0
  9  7  1  0  0  0  0
 10 12  1  0  0  0  0
 11  1  1  0  0  0  0
 11 10  1  0  0  0  0
 12 30  1  0  0  0  0
 12  6  1  0  0  0  0
 13 31  1  0  0  0  0
 14  9  1  0  0  0  0
 15 22  1  0  0  0  0
 16 24  2  0  0  0  0
 17 20  1  0  0  0  0
 17 15  1  0  0  0  0
 18 21  1  0  0  0  0
 19 11  1  0  0  0  0
 20 15  1  0  0  0  0
 21 19  1  0  0  0  0
 22 19  1  0  0  0  0
 22 23  1  0  0  0  0
 24 20  1  0  0  0  0
 24 18  1  0  0  0  0
 25 29  1  0  0  0  0
 26 29  2  0  0  0  0
 27 28  2  0  0  0  0
 27 30  1  0  0  0  0
 28 26  1  0  0  0  0
 30 25  2  0  0  0  0
 31 32  1  0  0  0  0
M  END
>  <MODEL>
4

>  <REMARK>
 VINA RESULT:      -8.5      3.133      8.177
  Name = 
  3 active torsions:
  status: ('A' for Active; 'I' for Inactive)
    1  A    between atoms: O_13  and  C_29
    2  A    between atoms: C_16  and  C_27
    3  A    between atoms: C_28  and  C_32
                            x       y       z     vdW  Elec       q    Type
                         _______ _______ _______ _____ _____    ______ ____

>  <TORSDO>
F 3

$$$$
=
 OpenBabel10272402123D

 32 38  0  0  1  0  0  0  0  0999 V2000
  186.7310  177.7450  138.7790 C   0  0  1  0  0  3  0  0  0  0  0  0
  189.1920  178.3290  138.9840 C   0  0  2  0  0  3  0  0  0  0  0  0
  186.5020  178.7360  137.7200 N   0  0  0  0  0  0  0  0  0  0  0  0
  188.1280  177.2330  138.6910 C   0  0  2  0  0  3  0  0  0  0  0  0
  190.5230  177.6590  139.2730 C   0  0  1  0  0  3  0  0  0  0  0  0
  189.6690  178.2730  140.4310 C   0  0  2  0  0  3  0  0  0  0  0  0
  188.4030  176.5990  137.3630 C   0  0  2  0  0  3  0  0  0  0  0  0
  189.8810  176.1270  137.3600 C   0  0  0  0  0  2  0  0  0  0  0  0
  188.0940  177.5890  136.3240 N   0  0  0  0  0  2  0  0  0  0  0  0
  187.3970  178.7030  141.0470 O   0  0  0  0  0  0  0  0  0  0  0  0
  186.3700  178.1300  140.2450 C   0  0  1  0  0  3  0  0  0  0  0  0
  188.4500  177.7680  141.2380 C   0  0  2  0  0  3  0  0  0  0  0  0
  190.5040  176.1820  138.7950 C   0  0  1  0  0  3  0  0  0  0  0  0
  187.1100  178.6290  136.5620 C   0  0  0  0  0  3  0  0  0  0  0  0
  182.9150  179.2290  141.5790 C   0  0  2  0  0  3  0  0  0  0  0  0
  180.8620  180.1650  139.2490 N   0  0  0  0  0  2  0  0  0  0  0  0
  181.5580  178.7450  142.0160 C   0  0  0  0  0  2  0  0  0  0  0  0
  183.2250  179.8670  138.7590 C   0  0  0  0  0  2  0  0  0  0  0  0
  185.0370  178.8750  140.3670 C   0  0  1  0  0  3  0  0  0  0  0  0
  182.0080  178.5170  140.5880 C   0  0  1  0  0  3  0  0  0  0  0  0
  184.3430  178.8200  138.9840 C   0  0  0  0  0  2  0  0  0  0  0  0
  184.1450  178.3570  141.5360 C   0  0  1  0  0  3  0  0  0  0  0  0
  184.8540  178.4620  142.8750 C   0  0  0  0  0  1  0  0  0  0  0  0
  181.9540  179.5500  139.5170 C   0  0  0  0  0  0  0  0  0  0  0  0
  189.9670  178.2360  143.1650 C   0  0  0  0  0  3  0  0  0  0  0  0
  189.4490  177.4740  145.4040 C   0  0  0  0  0  3  0  0  0  0  0  0
  187.9380  176.9790  143.5780 C   0  0  0  0  0  3  0  0  0  0  0  0
  188.2680  176.8900  144.9340 C   0  0  0  0  0  3  0  0  0  0  0  0
  190.2970  178.1470  144.5200 C   0  0  0  0  0  3  0  0  0  0  0  0
  188.7900  177.6500  142.6880 C   0  0  0  0  0  0  0  0  0  0  0  0
  191.8070  175.6850  138.7600 O   0  0  0  0  0  0  0  0  0  0  0  0
  192.4730  176.5030  137.8460 C   0  0  0  0  0  1  0  0  0  0  0  0
  1  3  1  6  0  0  0
  1 11  1  0  0  0  0
  2  5  1  0  0  0  0
  2  6  1  0  0  0  0
  4  1  1  0  0  0  0
  4  2  1  0  0  0  0
  5  6  1  0  0  0  0
  6 12  1  0  0  0  0
  7  4  1  0  0  0  0
  8  7  1  0  0  0  0
  8 13  1  0  0  0  0
  9 14  1  0  0  0  0
  9  7  1  0  0  0  0
 10 12  1  0  0  0  0
 11 19  1  0  0  0  0
 11 10  1  0  0  0  0
 12 30  1  0  0  0  0
 13  5  1  0  0  0  0
 14  3  2  0  0  0  0
 15 17  1  0  0  0  0
 16 24  2  0  0  0  0
 18 21  1  0  0  0  0
 18 24  1  0  0  0  0
 19 22  1  0  0  0  0
 20 15  1  0  0  0  0
 20 17  1  0  0  0  0
 21 19  1  0  0  0  0
 22 15  1  0  0  0  0
 22 23  1  0  0  0  0
 24 20  1  0  0  0  0
 25 29  1  0  0  0  0
 27 28  2  0  0  0  0
 28 26  1  0  0  0  0
 29 26  2  0  0  0  0
 30 25  2  0  0  0  0
 30 27  1  0  0  0  0
 31 13  1  0  0  0  0
 32 31  1  0  0  0  0
M  END
>  <MODEL>
5

>  <REMARK>
 VINA RESULT:      -8.3      2.976      6.938
  Name = 
  3 active torsions:
  status: ('A' for Active; 'I' for Inactive)
    1  A    between atoms: O_13  and  C_29
    2  A    between atoms: C_16  and  C_27
    3  A    between atoms: C_28  and  C_32
                            x       y       z     vdW  Elec       q    Type
                         _______ _______ _______ _____ _____    ______ ____

>  <TORSDO>
F 3

$$$$
=
 OpenBabel10272402123D

 32 38  0  0  1  0  0  0  0  0999 V2000
  187.2020  177.6190  141.7380 C   0  0  1  0  0  3  0  0  0  0  0  0
  189.4450  178.4160  142.6200 C   0  0  2  0  0  3  0  0  0  0  0  0
  187.2350  178.5390  140.5940 N   0  0  0  0  0  0  0  0  0  0  0  0
  188.5930  177.2220  142.1000 C   0  0  2  0  0  3  0  0  0  0  0  0
  190.6700  177.8730  143.3320 C   0  0  1  0  0  3  0  0  0  0  0  0
  189.4690  178.4640  144.1430 C   0  0  2  0  0  3  0  0  0  0  0  0
  189.2950  176.5560  140.9580 C   0  0  2  0  0  3  0  0  0  0  0  0
  190.7340  176.2100  141.4230 C   0  0  0  0  0  2  0  0  0  0  0  0
  189.2450  177.4700  139.8100 N   0  0  0  0  0  2  0  0  0  0  0  0
  187.0940  178.7280  144.0320 O   0  0  0  0  0  0  0  0  0  0  0  0
  186.3950  178.0360  143.0030 C   0  0  1  0  0  3  0  0  0  0  0  0
  188.1020  177.8940  144.5870 C   0  0  2  0  0  3  0  0  0  0  0  0
  190.8940  176.3800  142.9700 C   0  0  1  0  0  3  0  0  0  0  0  0
  188.1680  178.4330  139.6770 C   0  0  0  0  0  3  0  0  0  0  0  0
  182.7360  179.2180  143.3760 C   0  0  2  0  0  3  0  0  0  0  0  0
  181.0760  179.2020  140.5890 N   0  0  0  0  0  2  0  0  0  0  0  0
  181.3380  178.7880  143.7390 C   0  0  0  0  0  2  0  0  0  0  0  0
  183.4950  178.9560  140.5810 C   0  0  0  0  0  2  0  0  0  0  0  0
  185.0390  178.6720  142.6760 C   0  0  1  0  0  3  0  0  0  0  0  0
  182.0270  178.1580  142.5460 C   0  0  1  0  0  3  0  0  0  0  0  0
  184.5890  178.1270  141.2980 C   0  0  0  0  0  2  0  0  0  0  0  0
  183.9790  178.4790  143.8030 C   0  0  1  0  0  3  0  0  0  0  0  0
  184.4510  179.0580  145.1250 C   0  0  0  0  0  1  0  0  0  0  0  0
  182.1250  178.7930  141.2030 C   0  0  0  0  0  0  0  0  0  0  0  0
  189.0410  177.3110  146.8250 C   0  0  0  0  0  3  0  0  0  0  0  0
  187.8570  177.8280  148.8730 C   0  0  0  0  0  3  0  0  0  0  0  0
  186.8860  178.4130  146.7350 C   0  0  0  0  0  3  0  0  0  0  0  0
  186.8150  178.3910  148.1300 C   0  0  0  0  0  3  0  0  0  0  0  0
  188.9690  177.2880  148.2210 C   0  0  0  0  0  3  0  0  0  0  0  0
  187.9990  177.8690  146.0760 C   0  0  0  0  0  0  0  0  0  0  0  0
  192.1780  175.9930  143.3550 O   0  0  0  0  0  0  0  0  0  0  0  0
  191.9820  175.1640  144.4600 C   0  0  0  0  0  1  0  0  0  0  0  0
  1  3  1  6  0  0  0
  1  4  1  0  0  0  0
  1 11  1  0  0  0  0
  2  5  1  0  0  0  0
  2  6  1  0  0  0  0
  4  2  1  0  0  0  0
  5  6  1  0  0  0  0
  6 12  1  0  0  0  0
  7  8  1  0  0  0  0
  7  4  1  0  0  0  0
  8 13  1  0  0  0  0
  9  7  1  0  0  0  0
 10 12  1  0  0  0  0
 11 10  1  0  0  0  0
 12 30  1  0  0  0  0
 13  5  1  0  0  0  0
 13 31  1  0  0  0  0
 14  9  1  0  0  0  0
 14  3  2  0  0  0  0
 15 17  1  0  0  0  0
 15 22  1  0  0  0  0
 16 24  2  0  0  0  0
 18 24  1  0  0  0  0
 18 21  1  0  0  0  0
 19 11  1  0  0  0  0
 19 22  1  0  0  0  0
 20 15  1  0  0  0  0
 20 17  1  0  0  0  0
 21 19  1  0  0  0  0
 22 23  1  0  0  0  0
 24 20  1  0  0  0  0
 25 29  1  0  0  0  0
 27 28  2  0  0  0  0
 28 26  1  0  0  0  0
 29 26  2  0  0  0  0
 30 27  1  0  0  0  0
 30 25  2  0  0  0  0
 31 32  1  0  0  0  0
M  END
>  <MODEL>
6

>  <REMARK>
 VINA RESULT:      -8.2      2.546      7.171
  Name = 
  3 active torsions:
  status: ('A' for Active; 'I' for Inactive)
    1  A    between atoms: O_13  and  C_29
    2  A    between atoms: C_16  and  C_27
    3  A    between atoms: C_28  and  C_32
                            x       y       z     vdW  Elec       q    Type
                         _______ _______ _______ _____ _____    ______ ____

>  <TORSDO>
F 3

$$$$
=
 OpenBabel10272402123D

 32 38  0  0  1  0  0  0  0  0999 V2000
  189.7830  176.9610  143.3420 C   0  0  1  0  0  3  0  0  0  0  0  0
  189.1120  178.4010  145.3210 C   0  0  2  0  0  3  0  0  0  0  0  0
  191.0890  177.6190  143.2030 N   0  0  0  0  0  0  0  0  0  0  0  0
  189.3690  176.9680  144.7750 C   0  0  2  0  0  3  0  0  0  0  0  0
  188.3240  178.3020  146.6130 C   0  0  1  0  0  3  0  0  0  0  0  0
  187.6290  178.7550  145.2860 C   0  0  2  0  0  3  0  0  0  0  0  0
  190.3660  176.2640  145.6430 C   0  0  2  0  0  3  0  0  0  0  0  0
  189.8620  176.3510  147.1070 C   0  0  0  0  0  2  0  0  0  0  0  0
  191.6730  176.8970  145.4250 N   0  0  0  0  0  2  0  0  0  0  0  0
  187.7570  178.4490  142.9170 O   0  0  0  0  0  0  0  0  0  0  0  0
  188.6160  177.4270  142.4220 C   0  0  1  0  0  3  0  0  0  0  0  0
  187.0610  177.9910  144.0680 C   0  0  2  0  0  3  0  0  0  0  0  0
  188.3830  176.8560  147.1770 C   0  0  1  0  0  3  0  0  0  0  0  0
  191.9790  177.5460  144.1640 C   0  0  0  0  0  3  0  0  0  0  0  0
  188.4100  178.0180  138.6110 C   0  0  2  0  0  3  0  0  0  0  0  0
  190.8870  176.7270  136.9610 N   0  0  0  0  0  2  0  0  0  0  0  0
  187.8180  177.5140  137.3200 C   0  0  0  0  0  2  0  0  0  0  0  0
  190.9860  176.9130  139.3840 C   0  0  0  0  0  2  0  0  0  0  0  0
  189.0430  177.6620  140.9700 C   0  0  1  0  0  3  0  0  0  0  0  0
  188.7640  176.6280  138.1050 C   0  0  1  0  0  3  0  0  0  0  0  0
  190.1080  176.5940  140.6180 C   0  0  0  0  0  2  0  0  0  0  0  0
  187.8450  177.7040  139.9730 C   0  0  1  0  0  3  0  0  0  0  0  0
  186.8460  178.7880  140.3390 C   0  0  0  0  0  1  0  0  0  0  0  0
  190.2480  176.7500  138.0720 C   0  0  0  0  0  0  0  0  0  0  0  0
  184.8450  178.5700  145.0610 C   0  0  0  0  0  3  0  0  0  0  0  0
  182.8490  178.7390  143.7010 C   0  0  0  0  0  3  0  0  0  0  0  0
  184.9650  178.1650  142.6760 C   0  0  0  0  0  3  0  0  0  0  0  0
  183.5940  178.4130  142.5640 C   0  0  0  0  0  3  0  0  0  0  0  0
  183.4740  178.8180  144.9490 C   0  0  0  0  0  3  0  0  0  0  0  0
  185.5950  178.2390  143.9270 C   0  0  0  0  0  0  0  0  0  0  0  0
  187.9480  176.8540  148.5030 O   0  0  0  0  0  0  0  0  0  0  0  0
  188.2310  178.1370  148.9710 C   0  0  0  0  0  1  0  0  0  0  0  0
  1  3  1  1  0  0  0
  1  4  1  0  0  0  0
  2  5  1  0  0  0  0
  3 14  2  0  0  0  0
  4  2  1  0  0  0  0
  4  7  1  0  0  0  0
  5 13  1  0  0  0  0
  6  2  1  0  0  0  0
  6  5  1  0  0  0  0
  7  8  1  0  0  0  0
  8 13  1  0  0  0  0
  9  7  1  0  0  0  0
 10 12  1  0  0  0  0
 11 10  1  0  0  0  0
 11  1  1  0  0  0  0
 12  6  1  0  0  0  0
 13 31  1  0  0  0  0
 14  9  1  0  0  0  0
 15 22  1  0  0  0  0
 16 24  2  0  0  0  0
 17 20  1  0  0  0  0
 17 15  1  0  0  0  0
 18 21  1  0  0  0  0
 19 11  1  0  0  0  0
 20 15  1  0  0  0  0
 21 19  1  0  0  0  0
 22 23  1  0  0  0  0
 22 19  1  0  0  0  0
 24 20  1  0  0  0  0
 24 18  1  0  0  0  0
 26 29  2  0  0  0  0
 27 30  1  0  0  0  0
 28 27  2  0  0  0  0
 28 26  1  0  0  0  0
 29 25  1  0  0  0  0
 30 12  1  0  0  0  0
 30 25  2  0  0  0  0
 31 32  1  0  0  0  0
M  END
>  <MODEL>
7

>  <REMARK>
 VINA RESULT:      -8.1      2.763      7.756
  Name = 
  3 active torsions:
  status: ('A' for Active; 'I' for Inactive)
    1  A    between atoms: O_13  and  C_29
    2  A    between atoms: C_16  and  C_27
    3  A    between atoms: C_28  and  C_32
                            x       y       z     vdW  Elec       q    Type
                         _______ _______ _______ _____ _____    ______ ____

>  <TORSDO>
F 3

$$$$
=
 OpenBabel10272402123D

 32 38  0  0  1  0  0  0  0  0999 V2000
  184.3550  178.1070  142.0910 C   0  0  1  0  0  3  0  0  0  0  0  0
  183.5130  179.5360  140.1700 C   0  0  2  0  0  3  0  0  0  0  0  0
  183.9750  179.1010  143.1030 N   0  0  0  0  0  0  0  0  0  0  0  0
  183.4160  178.1850  140.9350 C   0  0  2  0  0  3  0  0  0  0  0  0
  182.8510  179.3820  138.8130 C   0  0  1  0  0  3  0  0  0  0  0  0
  184.4100  179.4200  138.9430 C   0  0  2  0  0  3  0  0  0  0  0  0
  182.0000  177.9380  141.3540 C   0  0  2  0  0  3  0  0  0  0  0  0
  181.1040  178.0690  140.0950 C   0  0  0  0  0  2  0  0  0  0  0  0
  181.6750  178.8980  142.4170 N   0  0  0  0  0  2  0  0  0  0  0  0
  186.1700  178.8460  140.4590 O   0  0  0  0  0  0  0  0  0  0  0  0
  185.8350  178.0710  141.6050 C   0  0  1  0  0  3  0  0  0  0  0  0
  185.4730  178.3610  139.3180 C   0  0  2  0  0  3  0  0  0  0  0  0
  181.9580  178.1110  138.7840 C   0  0  1  0  0  3  0  0  0  0  0  0
  182.7170  179.4310  143.2760 C   0  0  0  0  0  3  0  0  0  0  0  0
  189.1460  177.8860  143.5850 C   0  0  2  0  0  3  0  0  0  0  0  0
  188.7300  177.5110  146.7800 N   0  0  0  0  0  2  0  0  0  0  0  0
  190.2590  176.9750  144.0340 C   0  0  0  0  0  2  0  0  0  0  0  0
  186.8530  178.1160  145.3570 C   0  0  0  0  0  2  0  0  0  0  0  0
  186.8510  178.2230  142.7420 C   0  0  1  0  0  3  0  0  0  0  0  0
  188.8430  176.7140  144.5050 C   0  0  1  0  0  3  0  0  0  0  0  0
  186.1980  177.6630  144.0290 C   0  0  0  0  0  2  0  0  0  0  0  0
  188.2390  177.5910  142.4170 C   0  0  1  0  0  3  0  0  0  0  0  0
  188.8540  178.1950  141.1670 C   0  0  0  0  0  1  0  0  0  0  0  0
  188.1830  177.4440  145.6230 C   0  0  0  0  0  0  0  0  0  0  0  0
  185.9220  177.6620  136.9650 C   0  0  0  0  0  3  0  0  0  0  0  0
  188.1520  177.7290  136.0240 C   0  0  0  0  0  3  0  0  0  0  0  0
  187.7870  178.4130  138.3160 C   0  0  0  0  0  3  0  0  0  0  0  0
  188.6520  178.2080  137.2380 C   0  0  0  0  0  3  0  0  0  0  0  0
  186.7880  177.4560  135.8870 C   0  0  0  0  0  3  0  0  0  0  0  0
  186.4180  178.1370  138.1840 C   0  0  0  0  0  0  0  0  0  0  0  0
  181.1140  178.1590  137.6750 O   0  0  0  0  0  0  0  0  0  0  0  0
  181.0480  179.5120  137.3380 C   0  0  0  0  0  1  0  0  0  0  0  0
  1  3  1  1  0  0  0
  2  4  1  0  0  0  0
  3 14  2  0  0  0  0
  4  7  1  0  0  0  0
  4  1  1  0  0  0  0
  5  6  1  0  0  0  0
  5  2  1  0  0  0  0
  6 12  1  0  0  0  0
  6  2  1  0  0  0  0
  7  9  1  0  0  0  0
  8  7  1  0  0  0  0
  9 14  1  0  0  0  0
 10 11  1  0  0  0  0
 11  1  1  0  0  0  0
 11 19  1  0  0  0  0
 12 10  1  0  0  0  0
 13  5  1  0  0  0  0
 13  8  1  0  0  0  0
 15 17  1  0  0  0  0
 15 20  1  0  0  0  0
 17 20  1  0  0  0  0
 18 24  1  0  0  0  0
 19 21  1  0  0  0  0
 20 24  1  0  0  0  0
 21 18  1  0  0  0  0
 22 19  1  0  0  0  0
 22 15  1  0  0  0  0
 23 22  1  0  0  0  0
 24 16  2  0  0  0  0
 25 30  1  0  0  0  0
 26 28  2  0  0  0  0
 28 27  1  0  0  0  0
 29 26  1  0  0  0  0
 29 25  2  0  0  0  0
 30 27  2  0  0  0  0
 30 12  1  0  0  0  0
 31 13  1  0  0  0  0
 32 31  1  0  0  0  0
M  END
>  <MODEL>
8

>  <REMARK>
 VINA RESULT:      -8.0      1.694      2.544
  Name = 
  3 active torsions:
  status: ('A' for Active; 'I' for Inactive)
    1  A    between atoms: O_13  and  C_29
    2  A    between atoms: C_16  and  C_27
    3  A    between atoms: C_28  and  C_32
                            x       y       z     vdW  Elec       q    Type
                         _______ _______ _______ _____ _____    ______ ____

>  <TORSDO>
F 3

$$$$
=
 OpenBabel10272402123D

 32 38  0  0  1  0  0  0  0  0999 V2000
  189.4260  177.7960  142.8310 C   0  0  1  0  0  3  0  0  0  0  0  0
  190.4570  176.3530  141.0150 C   0  0  2  0  0  3  0  0  0  0  0  0
  189.5340  176.7390  143.8440 N   0  0  0  0  0  0  0  0  0  0  0  0
  190.5410  177.6640  141.8490 C   0  0  2  0  0  3  0  0  0  0  0  0
  191.3560  176.4850  139.7990 C   0  0  1  0  0  3  0  0  0  0  0  0
  189.8010  176.5930  139.6600 C   0  0  2  0  0  3  0  0  0  0  0  0
  191.8790  177.7590  142.5140 C   0  0  2  0  0  3  0  0  0  0  0  0
  192.9650  177.5820  141.4200 C   0  0  0  0  0  2  0  0  0  0  0  0
  191.9270  176.7390  143.5690 N   0  0  0  0  0  2  0  0  0  0  0  0
  187.8640  177.2870  140.8800 O   0  0  0  0  0  0  0  0  0  0  0  0
  188.0630  177.9900  142.1030 C   0  0  1  0  0  3  0  0  0  0  0  0
  188.7880  177.7380  139.9000 C   0  0  2  0  0  3  0  0  0  0  0  0
  192.3510  177.6630  139.9830 C   0  0  1  0  0  3  0  0  0  0  0  0
  190.7080  176.2830  144.2120 C   0  0  0  0  0  3  0  0  0  0  0  0
  184.5610  178.6140  143.6080 C   0  0  2  0  0  3  0  0  0  0  0  0
  184.4820  178.4040  146.8450 N   0  0  0  0  0  2  0  0  0  0  0  0
  183.5890  179.6730  144.0600 C   0  0  0  0  0  2  0  0  0  0  0  0
  186.4210  177.6130  145.6070 C   0  0  0  0  0  2  0  0  0  0  0  0
  186.8550  177.9010  143.0420 C   0  0  1  0  0  3  0  0  0  0  0  0
  184.9260  179.5370  144.7600 C   0  0  1  0  0  3  0  0  0  0  0  0
  187.3720  178.1010  144.4870 C   0  0  0  0  0  2  0  0  0  0  0  0
  185.6970  178.8690  142.6510 C   0  0  1  0  0  3  0  0  0  0  0  0
  185.2010  178.6120  141.2380 C   0  0  0  0  0  1  0  0  0  0  0  0
  185.2240  178.5190  145.8050 C   0  0  0  0  0  0  0  0  0  0  0  0
  188.7670  178.7850  137.6340 C   0  0  0  0  0  3  0  0  0  0  0  0
  186.7930  178.7400  136.2330 C   0  0  0  0  0  3  0  0  0  0  0  0
  186.7440  177.7130  138.4240 C   0  0  0  0  0  3  0  0  0  0  0  0
  186.1020  178.0400  137.2260 C   0  0  0  0  0  3  0  0  0  0  0  0
  188.1250  179.1120  136.4360 C   0  0  0  0  0  3  0  0  0  0  0  0
  188.0790  178.0880  138.6330 C   0  0  0  0  0  0  0  0  0  0  0  0
  193.3670  177.5690  139.0320 O   0  0  0  0  0  0  0  0  0  0  0  0
  193.0300  176.4540  138.2630 C   0  0  0  0  0  1  0  0  0  0  0  0
  1  3  1  6  0  0  0
  2  4  1  0  0  0  0
  3 14  2  0  0  0  0
  4  7  1  0  0  0  0
  4  1  1  0  0  0  0
  5 13  1  0  0  0  0
  5  2  1  0  0  0  0
  6  5  1  0  0  0  0
  6 12  1  0  0  0  0
  6  2  1  0  0  0  0
  7  9  1  0  0  0  0
  8  7  1  0  0  0  0
  9 14  1  0  0  0  0
 10 11  1  0  0  0  0
 11  1  1  0  0  0  0
 11 19  1  0  0  0  0
 12 10  1  0  0  0  0
 13  8  1  0  0  0  0
 15 17  1  0  0  0  0
 15 20  1  0  0  0  0
 17 20  1  0  0  0  0
 18 24  1  0  0  0  0
 19 21  1  0  0  0  0
 20 24  1  0  0  0  0
 21 18  1  0  0  0  0
 22 19  1  0  0  0  0
 22 15  1  0  0  0  0
 23 22  1  0  0  0  0
 24 16  2  0  0  0  0
 25 30  1  0  0  0  0
 26 29  1  0  0  0  0
 26 28  2  0  0  0  0
 27 30  2  0  0  0  0
 28 27  1  0  0  0  0
 29 25  2  0  0  0  0
 30 12  1  0  0  0  0
 31 13  1  0  0  0  0
 32 31  1  0  0  0  0
M  END
>  <MODEL>
9

>  <REMARK>
 VINA RESULT:      -7.8      2.527      5.782
  Name = 
  3 active torsions:
  status: ('A' for Active; 'I' for Inactive)
    1  A    between atoms: O_13  and  C_29
    2  A    between atoms: C_16  and  C_27
    3  A    between atoms: C_28  and  C_32
                            x       y       z     vdW  Elec       q    Type
                         _______ _______ _______ _____ _____    ______ ____

>  <TORSDO>
F 3

$$$$
