=
 OpenBabel10272401253D

 55 61  0  0  1  0  0  0  0  0999 V2000
  187.1380  178.2350  140.6820 C   0  0  0  0  0  2  0  0  0  0  0  0
  191.7250  177.0050  139.9790 C   0  0  0  0  0  2  0  0  0  0  0  0
  191.6280  176.6620  142.9560 O   0  0  0  0  0  0  0  0  0  0  0  0
  190.5480  177.3280  145.6950 C   0  0  0  0  0  3  0  0  0  0  0  0
  190.6180  176.7590  146.9340 C   0  0  0  0  0  3  0  0  0  0  0  0
  188.1420  177.3050  145.8670 C   0  0  0  0  0  0  0  0  0  0  0  0
  188.2530  177.0310  147.2340 C   0  0  0  0  0  3  0  0  0  0  0  0
  190.3460  178.6960  143.1920 C   0  0  0  0  0  2  0  0  0  0  0  0
  189.4970  176.7070  147.7530 C   0  0  0  0  0  3  0  0  0  0  0  0
  186.1980  178.0350  138.3950 C   0  0  0  0  0  3  0  0  0  0  0  0
  189.3090  177.6320  145.1300 C   0  0  0  0  0  0  0  0  0  0  0  0
  188.2910  176.5520  137.4090 C   0  0  0  0  0  0  0  0  0  0  0  0
  187.8730  177.4130  141.7340 C   0  0  0  0  0  2  0  0  0  0  0  0
  188.3150  176.9730  138.7540 C   0  0  0  0  0  3  0  0  0  0  0  0
  186.6950  177.9230  143.9670 C   0  0  2  0  0  3  0  0  0  0  0  0
  191.4800  177.5230  138.5280 C   0  0  0  0  0  2  0  0  0  0  0  0
  186.9510  177.7670  145.4030 O   0  0  0  0  0  0  0  0  0  0  0  0
  191.2990  177.9450  140.9870 N   0  0  0  0  0  2  0  0  0  0  0  0
  191.1190  177.6570  142.3820 C   0  0  0  0  0  0  0  0  0  0  0  0
  186.2210  177.6820  137.0440 C   0  0  0  0  0  3  0  0  0  0  0  0
  191.6300  176.4960  137.4840 C   0  0  1  0  0  3  0  0  0  0  0  0
  187.2590  177.7430  139.2390 C   0  0  0  0  0  0  0  0  0  0  0  0
  189.1830  178.1020  143.7950 N   0  0  0  0  0  0  0  0  0  0  0  0
  187.9010  178.2190  143.0640 C   0  0  1  0  0  3  0  0  0  0  0  0
  190.4880  176.6130  136.4770 C   0  0  0  0  0  2  0  0  0  0  0  0
  189.3610  175.7040  136.8860 C   0  0  0  0  0  2  0  0  0  0  0  0
  187.2100  176.8260  136.5890 C   0  0  0  0  0  3  0  0  0  0  0  0
  184.5100  178.8180  144.6330 C   0  0  0  0  0  3  0  0  0  0  0  0
  182.6490  178.9500  143.0850 C   0  0  0  0  0  0  0  0  0  0  0  0
  184.8540  178.2740  142.2630 C   0  0  0  0  0  3  0  0  0  0  0  0
  183.5160  178.4890  142.0390 C   0  0  0  0  0  3  0  0  0  0  0  0
  183.2010  179.0860  144.3910 C   0  0  0  0  0  3  0  0  0  0  0  0
  185.3560  178.3630  143.5930 C   0  0  0  0  0  0  0  0  0  0  0  0
  181.3570  179.4590  142.7760 C   0  0  0  0  0  0  0  0  0  0  0  0
  180.7800  180.5390  143.4880 O   0  0  0  0  0  1  0  0  0  0  0  0
  180.6640  178.9250  141.8020 O   0  0  0  0  0  0  0  0  0  0  0  0
  193.8530  176.8400  137.5110 O   0  0  0  0  0  0  0  0  0  0  0  0
  192.8920  176.4660  136.8430 C   0  0  0  0  0  0  0  0  0  0  0  0
  192.9490  175.8430  135.1490 S   0  0  0  0  0  0  0  0  0  0  0  0
  193.2140  174.0870  135.6580 C   0  0  2  0  0  3  0  0  0  0  0  0
  192.4100  173.6600  136.7690 F   0  0  0  0  0  0  0  0  0  0  0  0
  194.6460  173.5390  135.4490 C   0  0  2  0  0  3  0  0  0  0  0  0
  194.6690  172.6120  134.3960 O   0  0  0  0  0  1  0  0  0  0  0  0
  194.9810  172.6790  136.8000 C   0  0  2  0  0  3  0  0  0  0  0  0
  195.9530  172.8080  138.9960 O   0  0  0  0  0  0  0  0  0  0  0  0
  195.1790  174.9850  139.2950 O   0  0  0  0  0  1  0  0  0  0  0  0
  196.1700  174.1810  138.6940 C   0  0  1  0  0  0  0  0  0  0  0  0
  197.2160  174.3580  137.6710 C   0  0  1  0  0  0  0  0  0  0  0  0
  196.2740  173.0650  137.6680 C   0  0  2  0  0  0  0  0  0  0  0  0
  196.8110  175.3930  136.8760 O   0  0  0  0  0  1  0  0  0  0  0  0
  198.1760  174.5180  138.7480 C   0  0  0  0  0  2  0  0  0  0  0  0
  198.5570  175.8320  138.8980 O   0  0  0  0  0  1  0  0  0  0  0  0
  194.7180  171.2250  136.5700 C   0  0  0  0  0  0  0  0  0  0  0  0
  195.7540  170.4040  136.4240 C   0  0  0  0  0  2  0  0  0  0  0  0
  193.4820  170.7430  136.3090 O   0  0  0  0  0  1  0  0  0  0  0  0
  1 13  1  0  0  0  0
  2 18  1  0  0  0  0
  4  5  1  0  0  0  0
  5  9  2  0  0  0  0
  6  7  2  0  0  0  0
  7  9  1  0  0  0  0
  8 23  1  0  0  0  0
 10 22  1  0  0  0  0
 11  4  2  0  0  0  0
 11  6  1  0  0  0  0
 12 14  1  0  0  0  0
 14 22  2  0  0  0  0
 15 33  1  1  0  0  0
 15 17  1  0  0  0  0
 16  2  1  0  0  0  0
 17  6  1  0  0  0  0
 18 19  1  0  0  0  0
 19  3  2  0  0  0  0
 19  8  1  0  0  0  0
 20 10  2  0  0  0  0
 21 38  1  6  0  0  0
 21 16  1  0  0  0  0
 22  1  1  0  0  0  0
 23 11  1  0  0  0  0
 24 13  1  6  0  0  0
 24 23  1  0  0  0  0
 24 15  1  0  0  0  0
 25 26  1  0  0  0  0
 25 21  1  0  0  0  0
 26 12  1  0  0  0  0
 27 20  1  0  0  0  0
 27 12  2  0  0  0  0
 29 32  2  0  0  0  0
 30 33  1  0  0  0  0
 31 30  2  0  0  0  0
 31 29  1  0  0  0  0
 32 28  1  0  0  0  0
 33 28  2  0  0  0  0
 34 29  1  0  0  0  0
 34 35  1  0  0  0  0
 36 34  2  0  0  0  0
 38 37  2  0  0  0  0
 39 40  1  0  0  0  0
 39 38  1  0  0  0  0
 40 41  1  1  0  0  0
 42 43  1  6  0  0  0
 42 40  1  0  0  0  0
 42 44  1  0  0  0  0
 44 53  1  6  0  0  0
 47 45  1  0  0  0  0
 47 46  1  6  0  0  0
 48 50  1  6  0  0  0
 48 47  1  0  0  0  0
 48 51  1  0  0  0  0
 49 44  1  6  0  0  0
 49 48  1  0  0  0  0
 49 47  1  0  0  0  0
 49 45  1  0  0  0  0
 51 52  1  0  0  0  0
 54 53  2  0  0  0  0
 55 53  1  0  0  0  0
M  END
>  <MODEL>
1

>  <REMARK>
 VINA RESULT:     -10.0      0.000      0.000
  Name = 
  10 active torsions:
  status: ('A' for Active; 'I' for Inactive)
    1  A    between atoms: C_1  and  C_53
    2  A    between atoms: C_6  and  C_20
    3  A    between atoms: C_6  and  C_53
    4  A    between atoms: C_8  and  S_22
    5  A    between atoms: C_8  and  C_43
    6  A    between atoms: C_10  and  C_32
    7  A    between atoms: C_11  and  C_29
    8  A    between atoms: C_20  and  S_22
    9  A    between atoms: C_33  and  C_52
   10  A    between atoms: C_38  and  C_53
                            x       y       z     vdW  Elec       q    Type
                         _______ _______ _______ _____ _____    ______ ____

>  <TORSDO>
F 10

$$$$
=
 OpenBabel10272401253D

 55 61  0  0  1  0  0  0  0  0999 V2000
  187.6570  178.0170  140.4510 C   0  0  0  0  0  2  0  0  0  0  0  0
  192.2650  176.7150  140.1120 C   0  0  0  0  0  2  0  0  0  0  0  0
  191.9700  176.5250  143.0900 O   0  0  0  0  0  0  0  0  0  0  0  0
  190.7220  177.3380  145.7160 C   0  0  0  0  0  3  0  0  0  0  0  0
  190.7040  176.8330  146.9840 C   0  0  0  0  0  3  0  0  0  0  0  0
  188.3100  177.3440  145.7300 C   0  0  0  0  0  0  0  0  0  0  0  0
  188.3280  177.1390  147.1140 C   0  0  0  0  0  3  0  0  0  0  0  0
  190.7000  178.5790  143.1400 C   0  0  0  0  0  2  0  0  0  0  0  0
  189.5320  176.8320  147.7290 C   0  0  0  0  0  3  0  0  0  0  0  0
  186.8650  177.7090  138.1200 C   0  0  0  0  0  3  0  0  0  0  0  0
  189.5260  177.6230  145.0560 C   0  0  0  0  0  0  0  0  0  0  0  0
  189.0010  176.1610  137.3490 C   0  0  0  0  0  0  0  0  0  0  0  0
  188.3120  177.2440  141.5890 C   0  0  0  0  0  2  0  0  0  0  0  0
  188.9420  176.6500  138.6700 C   0  0  0  0  0  3  0  0  0  0  0  0
  186.9970  177.8770  143.7110 C   0  0  2  0  0  3  0  0  0  0  0  0
  192.1210  177.1610  138.6240 C   0  0  0  0  0  2  0  0  0  0  0  0
  187.1570  177.7920  145.1670 O   0  0  0  0  0  0  0  0  0  0  0  0
  191.7860  177.7080  141.0420 N   0  0  0  0  0  2  0  0  0  0  0  0
  191.5110  177.4930  142.4350 C   0  0  0  0  0  0  0  0  0  0  0  0
  186.9720  177.2880  136.7920 C   0  0  0  0  0  3  0  0  0  0  0  0
  192.3270  176.0810  137.6450 C   0  0  1  0  0  3  0  0  0  0  0  0
  187.8660  177.4510  139.0460 C   0  0  0  0  0  0  0  0  0  0  0  0
  189.4930  178.0260  143.6940 N   0  0  0  0  0  0  0  0  0  0  0  0
  188.2620  178.1170  142.8760 C   0  0  1  0  0  3  0  0  0  0  0  0
  191.2540  176.1550  136.5610 C   0  0  0  0  0  2  0  0  0  0  0  0
  190.0920  175.2780  136.9400 C   0  0  0  0  0  2  0  0  0  0  0  0
  187.9780  176.4020  136.4470 C   0  0  0  0  0  3  0  0  0  0  0  0
  184.7210  178.6480  144.2020 C   0  0  0  0  0  3  0  0  0  0  0  0
  183.0330  178.8590  142.4730 C   0  0  0  0  0  0  0  0  0  0  0  0
  185.3380  178.3190  141.8490 C   0  0  0  0  0  3  0  0  0  0  0  0
  184.0250  178.5130  141.4960 C   0  0  0  0  0  3  0  0  0  0  0  0
  183.4360  178.8980  143.8390 C   0  0  0  0  0  3  0  0  0  0  0  0
  185.6910  178.3080  143.2280 C   0  0  0  0  0  0  0  0  0  0  0  0
  181.7640  179.3540  142.0660 C   0  0  0  0  0  0  0  0  0  0  0  0
  180.8780  179.9940  142.9680 O   0  0  0  0  0  1  0  0  0  0  0  0
  181.3860  179.2260  140.8190 O   0  0  0  0  0  0  0  0  0  0  0  0
  194.1920  177.0790  136.8800 O   0  0  0  0  0  0  0  0  0  0  0  0
  193.6270  176.0080  137.0910 C   0  0  0  0  0  0  0  0  0  0  0  0
  194.3170  174.3640  136.8050 S   0  0  0  0  0  0  0  0  0  0  0  0
  195.4580  174.4400  138.2550 C   0  0  2  0  0  3  0  0  0  0  0  0
  195.0360  175.3290  139.3010 F   0  0  0  0  0  0  0  0  0  0  0  0
  196.9590  174.2340  137.9370 C   0  0  2  0  0  3  0  0  0  0  0  0
  197.6860  175.4010  138.2150 O   0  0  0  0  0  1  0  0  0  0  0  0
  197.0340  174.0450  136.3130 C   0  0  2  0  0  3  0  0  0  0  0  0
  196.2310  171.9420  135.4690 O   0  0  0  0  0  0  0  0  0  0  0  0
  196.2530  170.9910  137.5950 O   0  0  0  0  0  1  0  0  0  0  0  0
  197.0390  171.3570  136.4820 C   0  0  1  0  0  0  0  0  0  0  0  0
  198.4760  171.5000  136.1880 C   0  0  1  0  0  0  0  0  0  0  0  0
  197.4250  172.6090  135.7140 C   0  0  2  0  0  0  0  0  0  0  0  0
  199.0960  171.7370  137.3820 O   0  0  0  0  0  1  0  0  0  0  0  0
  198.4310  170.1880  135.5680 C   0  0  0  0  0  2  0  0  0  0  0  0
  198.8880  169.2080  136.4190 O   0  0  0  0  0  1  0  0  0  0  0  0
  197.6560  175.2470  135.6780 C   0  0  0  0  0  0  0  0  0  0  0  0
  198.8140  175.1040  135.0380 C   0  0  0  0  0  2  0  0  0  0  0  0
  197.1980  176.5000  135.8920 O   0  0  0  0  0  1  0  0  0  0  0  0
  1 13  1  0  0  0  0
  2 18  1  0  0  0  0
  4  5  1  0  0  0  0
  5  9  2  0  0  0  0
  6  7  2  0  0  0  0
  7  9  1  0  0  0  0
  8 23  1  0  0  0  0
 10 22  1  0  0  0  0
 11  4  2  0  0  0  0
 11  6  1  0  0  0  0
 12 14  1  0  0  0  0
 14 22  2  0  0  0  0
 15 33  1  1  0  0  0
 15 17  1  0  0  0  0
 16  2  1  0  0  0  0
 17  6  1  0  0  0  0
 18 19  1  0  0  0  0
 19  3  2  0  0  0  0
 19  8  1  0  0  0  0
 20 10  2  0  0  0  0
 21 38  1  6  0  0  0
 21 16  1  0  0  0  0
 22  1  1  0  0  0  0
 23 11  1  0  0  0  0
 24 13  1  6  0  0  0
 24 23  1  0  0  0  0
 24 15  1  0  0  0  0
 25 26  1  0  0  0  0
 25 21  1  0  0  0  0
 26 12  1  0  0  0  0
 27 20  1  0  0  0  0
 27 12  2  0  0  0  0
 29 32  2  0  0  0  0
 30 33  1  0  0  0  0
 31 30  2  0  0  0  0
 31 29  1  0  0  0  0
 32 28  1  0  0  0  0
 33 28  2  0  0  0  0
 34 29  1  0  0  0  0
 34 35  1  0  0  0  0
 36 34  2  0  0  0  0
 37 38  2  0  0  0  0
 39 38  1  0  0  0  0
 39 40  1  0  0  0  0
 40 41  1  6  0  0  0
 42 43  1  6  0  0  0
 42 40  1  0  0  0  0
 44 53  1  1  0  0  0
 44 42  1  0  0  0  0
 45 49  1  0  0  0  0
 45 47  1  0  0  0  0
 47 46  1  1  0  0  0
 48 47  1  0  0  0  0
 48 50  1  1  0  0  0
 49 48  1  0  0  0  0
 49 44  1  1  0  0  0
 49 47  1  0  0  0  0
 51 48  1  0  0  0  0
 51 52  1  0  0  0  0
 53 55  1  0  0  0  0
 54 53  2  0  0  0  0
M  END
>  <MODEL>
2

>  <REMARK>
 VINA RESULT:      -9.8      1.570      2.589
  Name = 
  10 active torsions:
  status: ('A' for Active; 'I' for Inactive)
    1  A    between atoms: C_1  and  C_53
    2  A    between atoms: C_6  and  C_20
    3  A    between atoms: C_6  and  C_53
    4  A    between atoms: C_8  and  S_22
    5  A    between atoms: C_8  and  C_43
    6  A    between atoms: C_10  and  C_32
    7  A    between atoms: C_11  and  C_29
    8  A    between atoms: C_20  and  S_22
    9  A    between atoms: C_33  and  C_52
   10  A    between atoms: C_38  and  C_53
                            x       y       z     vdW  Elec       q    Type
                         _______ _______ _______ _____ _____    ______ ____

>  <TORSDO>
F 10

$$$$
=
 OpenBabel10272401253D

 55 61  0  0  1  0  0  0  0  0999 V2000
  187.1780  178.3700  141.9680 C   0  0  0  0  0  2  0  0  0  0  0  0
  184.5920  178.8930  137.9560 C   0  0  0  0  0  2  0  0  0  0  0  0
  186.9820  177.5270  136.7660 O   0  0  0  0  0  0  0  0  0  0  0  0
  189.9220  176.8480  136.7020 C   0  0  0  0  0  3  0  0  0  0  0  0
  190.6970  175.9350  136.0470 C   0  0  0  0  0  3  0  0  0  0  0  0
  190.8220  176.0490  138.7930 C   0  0  0  0  0  0  0  0  0  0  0  0
  191.8200  175.3650  138.0890 C   0  0  0  0  0  3  0  0  0  0  0  0
  188.4730  178.8710  138.1100 C   0  0  0  0  0  2  0  0  0  0  0  0
  191.7200  175.2700  136.7100 C   0  0  0  0  0  3  0  0  0  0  0  0
  185.4630  178.7030  143.7290 C   0  0  0  0  0  3  0  0  0  0  0  0
  189.9730  176.9440  138.0930 C   0  0  0  0  0  0  0  0  0  0  0  0
  183.3220  178.3530  142.0420 C   0  0  0  0  0  0  0  0  0  0  0  0
  187.4730  177.4950  140.7550 C   0  0  0  0  0  2  0  0  0  0  0  0
  184.6310  178.2680  141.5250 C   0  0  0  0  0  3  0  0  0  0  0  0
  189.9510  176.8240  140.9660 C   0  0  2  0  0  3  0  0  0  0  0  0
  183.6730  179.7820  138.8490 C   0  0  0  0  0  2  0  0  0  0  0  0
  191.0120  176.2640  140.1210 O   0  0  0  0  0  0  0  0  0  0  0  0
  185.9850  179.2520  138.0570 N   0  0  0  0  0  2  0  0  0  0  0  0
  187.0930  178.4590  137.6020 C   0  0  0  0  0  0  0  0  0  0  0  0
  184.1640  178.8650  144.2160 C   0  0  0  0  0  3  0  0  0  0  0  0
  182.2990  179.2750  139.0000 C   0  0  1  0  0  3  0  0  0  0  0  0
  185.7100  178.4690  142.3840 C   0  0  0  0  0  0  0  0  0  0  0  0
  189.0930  177.7860  138.8240 N   0  0  0  0  0  0  0  0  0  0  0  0
  188.9350  177.7600  140.2960 C   0  0  1  0  0  3  0  0  0  0  0  0
  181.8640  179.3860  140.4590 C   0  0  0  0  0  2  0  0  0  0  0  0
  182.1720  178.0990  141.1750 C   0  0  0  0  0  2  0  0  0  0  0  0
  183.0940  178.5570  143.3920 C   0  0  0  0  0  3  0  0  0  0  0  0
  189.4200  176.2330  143.2870 C   0  0  0  0  0  3  0  0  0  0  0  0
  190.5040  177.3140  145.1680 C   0  0  0  0  0  0  0  0  0  0  0  0
  191.2750  177.7940  142.8950 C   0  0  0  0  0  3  0  0  0  0  0  0
  191.3410  178.0270  144.2470 C   0  0  0  0  0  3  0  0  0  0  0  0
  189.5320  176.4250  144.6280 C   0  0  0  0  0  3  0  0  0  0  0  0
  190.2520  176.9440  142.3880 C   0  0  0  0  0  0  0  0  0  0  0  0
  190.7890  177.3340  146.5620 C   0  0  0  0  0  0  0  0  0  0  0  0
  192.0490  176.9470  147.0800 O   0  0  0  0  0  0  0  0  0  0  0  0
  189.8690  177.7220  147.4080 O   0  0  0  0  0  1  0  0  0  0  0  0
  181.4010  181.0670  137.9780 O   0  0  0  0  0  0  0  0  0  0  0  0
  181.3450  179.8480  138.1250 C   0  0  0  0  0  0  0  0  0  0  0  0
  180.1980  178.7250  137.2970 S   0  0  0  0  0  0  0  0  0  0  0  0
  181.4200  178.2010  136.0150 C   0  0  2  0  0  3  0  0  0  0  0  0
  181.6480  179.1660  134.9770 F   0  0  0  0  0  0  0  0  0  0  0  0
  181.4700  176.6820  135.7210 C   0  0  2  0  0  3  0  0  0  0  0  0
  180.2020  176.1050  135.8920 O   0  0  0  0  0  1  0  0  0  0  0  0
  182.4070  176.0440  136.9030 C   0  0  2  0  0  3  0  0  0  0  0  0
  184.0520  175.7160  135.1810 O   0  0  0  0  0  0  0  0  0  0  0  0
  183.4750  173.4710  134.9480 O   0  0  0  0  0  1  0  0  0  0  0  0
  184.1910  174.4080  135.7220 C   0  0  1  0  0  0  0  0  0  0  0  0
  184.8440  174.4280  137.0430 C   0  0  1  0  0  0  0  0  0  0  0  0
  183.9230  175.6440  136.5630 C   0  0  2  0  0  0  0  0  0  0  0  0
  184.2260  173.4720  137.7980 O   0  0  0  0  0  1  0  0  0  0  0  0
  186.1100  174.2050  136.3680 C   0  0  0  0  0  2  0  0  0  0  0  0
  186.4700  172.8760  136.3900 O   0  0  0  0  0  1  0  0  0  0  0  0
  181.6140  175.0880  137.7360 C   0  0  0  0  0  0  0  0  0  0  0  0
  181.4460  175.3560  139.0280 C   0  0  0  0  0  2  0  0  0  0  0  0
  181.2310  173.8750  137.2820 O   0  0  0  0  0  1  0  0  0  0  0  0
  1 22  1  0  0  0  0
  2 18  1  0  0  0  0
  2 16  1  0  0  0  0
  3 19  2  0  0  0  0
  4 11  1  0  0  0  0
  5  4  2  0  0  0  0
  5  9  1  0  0  0  0
  6 17  1  0  0  0  0
  7  6  1  0  0  0  0
  8 23  1  0  0  0  0
  9  7  2  0  0  0  0
 10 20  1  0  0  0  0
 11  6  2  0  0  0  0
 11 23  1  0  0  0  0
 12 27  1  0  0  0  0
 13  1  1  0  0  0  0
 14 12  2  0  0  0  0
 14 22  1  0  0  0  0
 15 33  1  1  0  0  0
 16 21  1  0  0  0  0
 17 15  1  0  0  0  0
 19 18  1  0  0  0  0
 19  8  1  0  0  0  0
 21 38  1  6  0  0  0
 21 25  1  0  0  0  0
 22 10  2  0  0  0  0
 23 24  1  0  0  0  0
 24 13  1  6  0  0  0
 24 15  1  0  0  0  0
 25 26  1  0  0  0  0
 26 12  1  0  0  0  0
 27 20  2  0  0  0  0
 28 32  1  0  0  0  0
 29 34  1  0  0  0  0
 30 31  2  0  0  0  0
 31 29  1  0  0  0  0
 32 29  2  0  0  0  0
 33 30  1  0  0  0  0
 33 28  2  0  0  0  0
 34 35  2  0  0  0  0
 34 36  1  0  0  0  0
 37 38  2  0  0  0  0
 39 38  1  0  0  0  0
 40 41  1  6  0  0  0
 40 39  1  0  0  0  0
 42 43  1  1  0  0  0
 42 40  1  0  0  0  0
 42 44  1  0  0  0  0
 44 53  1  6  0  0  0
 45 47  1  0  0  0  0
 45 49  1  0  0  0  0
 47 46  1  6  0  0  0
 47 49  1  0  0  0  0
 47 48  1  0  0  0  0
 48 50  1  1  0  0  0
 49 44  1  1  0  0  0
 49 48  1  0  0  0  0
 51 52  1  0  0  0  0
 51 48  1  0  0  0  0
 53 54  2  0  0  0  0
 55 53  1  0  0  0  0
M  END
>  <MODEL>
3

>  <REMARK>
 VINA RESULT:      -9.3      4.450      9.847
  Name = 
  10 active torsions:
  status: ('A' for Active; 'I' for Inactive)
    1  A    between atoms: C_1  and  C_53
    2  A    between atoms: C_6  and  C_20
    3  A    between atoms: C_6  and  C_53
    4  A    between atoms: C_8  and  S_22
    5  A    between atoms: C_8  and  C_43
    6  A    between atoms: C_10  and  C_32
    7  A    between atoms: C_11  and  C_29
    8  A    between atoms: C_20  and  S_22
    9  A    between atoms: C_33  and  C_52
   10  A    between atoms: C_38  and  C_53
                            x       y       z     vdW  Elec       q    Type
                         _______ _______ _______ _____ _____    ______ ____

>  <TORSDO>
F 10

$$$$
=
 OpenBabel10272401253D

 55 61  0  0  1  0  0  0  0  0999 V2000
  187.1470  178.4150  141.9070 C   0  0  0  0  0  2  0  0  0  0  0  0
  184.5210  178.8210  137.9080 C   0  0  0  0  0  2  0  0  0  0  0  0
  186.9270  177.4800  136.7220 O   0  0  0  0  0  0  0  0  0  0  0  0
  189.8790  176.8550  136.6450 C   0  0  0  0  0  3  0  0  0  0  0  0
  190.6660  175.9450  136.0000 C   0  0  0  0  0  3  0  0  0  0  0  0
  190.8100  176.1080  138.7420 C   0  0  0  0  0  0  0  0  0  0  0  0
  191.8150  175.4310  138.0420 C   0  0  0  0  0  3  0  0  0  0  0  0
  188.4040  178.8740  138.0310 C   0  0  0  0  0  2  0  0  0  0  0  0
  191.7060  175.3100  136.6660 C   0  0  0  0  0  3  0  0  0  0  0  0
  185.4400  178.7460  143.6760 C   0  0  0  0  0  3  0  0  0  0  0  0
  189.9390  176.9750  138.0350 C   0  0  0  0  0  0  0  0  0  0  0  0
  183.2930  178.3270  142.0130 C   0  0  0  0  0  0  0  0  0  0  0  0
  187.4500  177.5250  140.7070 C   0  0  0  0  0  2  0  0  0  0  0  0
  184.5990  178.2580  141.4860 C   0  0  0  0  0  3  0  0  0  0  0  0
  189.9410  176.9030  140.9090 C   0  0  2  0  0  3  0  0  0  0  0  0
  183.5930  179.7080  138.7930 C   0  0  0  0  0  2  0  0  0  0  0  0
  191.0060  176.3490  140.0650 O   0  0  0  0  0  0  0  0  0  0  0  0
  185.9080  179.2070  137.9910 N   0  0  0  0  0  2  0  0  0  0  0  0
  187.0270  178.4270  137.5410 C   0  0  0  0  0  0  0  0  0  0  0  0
  184.1420  178.8910  144.1710 C   0  0  0  0  0  3  0  0  0  0  0  0
  182.2300  179.1790  138.9630 C   0  0  1  0  0  3  0  0  0  0  0  0
  185.6810  178.4930  142.3330 C   0  0  0  0  0  0  0  0  0  0  0  0
  189.0490  177.8130  138.7580 N   0  0  0  0  0  0  0  0  0  0  0  0
  188.9030  177.8090  140.2310 C   0  0  1  0  0  3  0  0  0  0  0  0
  181.8040  179.3060  140.4240 C   0  0  0  0  0  2  0  0  0  0  0  0
  182.1420  178.0370  141.1590 C   0  0  0  0  0  2  0  0  0  0  0  0
  183.0720  178.5490  143.3610 C   0  0  0  0  0  3  0  0  0  0  0  0
  190.4440  175.8660  143.0750 C   0  0  0  0  0  3  0  0  0  0  0  0
  190.5480  177.1580  145.1250 C   0  0  0  0  0  0  0  0  0  0  0  0
  190.2830  178.3150  142.9840 C   0  0  0  0  0  3  0  0  0  0  0  0
  190.3520  178.3520  144.3550 C   0  0  0  0  0  3  0  0  0  0  0  0
  190.5710  175.9160  144.4260 C   0  0  0  0  0  3  0  0  0  0  0  0
  190.2510  177.0530  142.3260 C   0  0  0  0  0  0  0  0  0  0  0  0
  190.9220  177.2380  146.4950 C   0  0  0  0  0  0  0  0  0  0  0  0
  190.0220  177.6680  147.5000 O   0  0  0  0  0  1  0  0  0  0  0  0
  192.1350  176.9040  146.8570 O   0  0  0  0  0  0  0  0  0  0  0  0
  181.3870  180.9050  137.7920 O   0  0  0  0  0  0  0  0  0  0  0  0
  181.2580  179.7180  138.0860 C   0  0  0  0  0  0  0  0  0  0  0  0
  179.9820  178.5990  137.4700 S   0  0  0  0  0  0  0  0  0  0  0  0
  181.1860  177.3250  136.8900 C   0  0  2  0  0  3  0  0  0  0  0  0
  181.9200  177.6900  135.7110 F   0  0  0  0  0  0  0  0  0  0  0  0
  180.7850  175.8540  137.1590 C   0  0  2  0  0  3  0  0  0  0  0  0
  180.8990  175.5560  138.5260 O   0  0  0  0  0  1  0  0  0  0  0  0
  181.9300  174.9510  136.4150 C   0  0  2  0  0  3  0  0  0  0  0  0
  180.1730  173.3400  136.0970 O   0  0  0  0  0  0  0  0  0  0  0  0
  180.6740  172.2800  138.1100 O   0  0  0  0  0  1  0  0  0  0  0  0
  181.0440  172.4300  136.7570 C   0  0  1  0  0  0  0  0  0  0  0  0
  182.2060  172.0780  135.9200 C   0  0  1  0  0  0  0  0  0  0  0  0
  181.5220  173.5210  135.8130 C   0  0  2  0  0  0  0  0  0  0  0  0
  183.2780  171.9870  136.7610 O   0  0  0  0  0  1  0  0  0  0  0  0
  181.4620  170.9200  135.4590 C   0  0  0  0  0  2  0  0  0  0  0  0
  182.2300  169.7780  135.4930 O   0  0  0  0  0  1  0  0  0  0  0  0
  183.2260  175.0410  137.1550 C   0  0  0  0  0  0  0  0  0  0  0  0
  184.3310  175.3350  136.4740 C   0  0  0  0  0  2  0  0  0  0  0  0
  183.3570  174.6480  138.4410 O   0  0  0  0  0  1  0  0  0  0  0  0
  1 22  1  0  0  0  0
  2 18  1  0  0  0  0
  2 16  1  0  0  0  0
  3 19  2  0  0  0  0
  4 11  1  0  0  0  0
  5  4  2  0  0  0  0
  5  9  1  0  0  0  0
  6 17  1  0  0  0  0
  7  6  1  0  0  0  0
  8 23  1  0  0  0  0
  9  7  2  0  0  0  0
 10 20  1  0  0  0  0
 11  6  2  0  0  0  0
 11 23  1  0  0  0  0
 12 27  1  0  0  0  0
 13  1  1  0  0  0  0
 14 12  2  0  0  0  0
 14 22  1  0  0  0  0
 15 33  1  1  0  0  0
 16 21  1  0  0  0  0
 17 15  1  0  0  0  0
 19 18  1  0  0  0  0
 19  8  1  0  0  0  0
 21 38  1  6  0  0  0
 21 25  1  0  0  0  0
 22 10  2  0  0  0  0
 23 24  1  0  0  0  0
 24 13  1  6  0  0  0
 24 15  1  0  0  0  0
 25 26  1  0  0  0  0
 26 12  1  0  0  0  0
 27 20  2  0  0  0  0
 28 32  1  0  0  0  0
 29 34  1  0  0  0  0
 30 31  2  0  0  0  0
 31 29  1  0  0  0  0
 32 29  2  0  0  0  0
 33 30  1  0  0  0  0
 33 28  2  0  0  0  0
 34 36  2  0  0  0  0
 34 35  1  0  0  0  0
 37 38  2  0  0  0  0
 39 38  1  0  0  0  0
 40 41  1  6  0  0  0
 40 42  1  0  0  0  0
 40 39  1  0  0  0  0
 42 43  1  1  0  0  0
 44 53  1  1  0  0  0
 44 42  1  0  0  0  0
 45 47  1  0  0  0  0
 47 46  1  1  0  0  0
 48 47  1  0  0  0  0
 48 50  1  1  0  0  0
 49 48  1  0  0  0  0
 49 45  1  0  0  0  0
 49 44  1  1  0  0  0
 49 47  1  0  0  0  0
 51 52  1  0  0  0  0
 51 48  1  0  0  0  0
 53 55  1  0  0  0  0
 54 53  2  0  0  0  0
M  END
>  <MODEL>
4

>  <REMARK>
 VINA RESULT:      -8.8      4.805     10.363
  Name = 
  10 active torsions:
  status: ('A' for Active; 'I' for Inactive)
    1  A    between atoms: C_1  and  C_53
    2  A    between atoms: C_6  and  C_20
    3  A    between atoms: C_6  and  C_53
    4  A    between atoms: C_8  and  S_22
    5  A    between atoms: C_8  and  C_43
    6  A    between atoms: C_10  and  C_32
    7  A    between atoms: C_11  and  C_29
    8  A    between atoms: C_20  and  S_22
    9  A    between atoms: C_33  and  C_52
   10  A    between atoms: C_38  and  C_53
                            x       y       z     vdW  Elec       q    Type
                         _______ _______ _______ _____ _____    ______ ____

>  <TORSDO>
F 10

$$$$
=
 OpenBabel10272401253D

 55 61  0  0  1  0  0  0  0  0999 V2000
  187.0560  177.5310  142.1830 C   0  0  0  0  0  2  0  0  0  0  0  0
  185.7430  177.9080  137.5810 C   0  0  0  0  0  2  0  0  0  0  0  0
  183.2220  178.9290  138.8440 O   0  0  0  0  0  0  0  0  0  0  0  0
  181.2200  179.0620  141.0980 C   0  0  0  0  0  3  0  0  0  0  0  0
  180.1790  179.8820  141.4310 C   0  0  0  0  0  3  0  0  0  0  0  0
  182.1750  179.4630  143.2780 C   0  0  0  0  0  0  0  0  0  0  0  0
  180.9620  180.0220  143.6940 C   0  0  0  0  0  3  0  0  0  0  0  0
  183.3170  177.2040  140.5320 C   0  0  0  0  0  2  0  0  0  0  0  0
  179.9820  180.2760  142.7480 C   0  0  0  0  0  3  0  0  0  0  0  0
  189.5220  177.3370  141.9980 C   0  0  0  0  0  3  0  0  0  0  0  0
  182.2410  178.8160  142.0170 C   0  0  0  0  0  0  0  0  0  0  0  0
  189.6350  178.2460  139.4070 C   0  0  0  0  0  0  0  0  0  0  0  0
  185.9100  178.4580  141.7950 C   0  0  0  0  0  2  0  0  0  0  0  0
  188.3850  178.1430  140.0490 C   0  0  0  0  0  3  0  0  0  0  0  0
  184.4190  178.6400  143.8870 C   0  0  2  0  0  3  0  0  0  0  0  0
  187.0560  177.1150  137.3020 C   0  0  0  0  0  2  0  0  0  0  0  0
  183.0630  179.0800  144.2330 O   0  0  0  0  0  0  0  0  0  0  0  0
  184.9220  177.2920  138.5940 N   0  0  0  0  0  2  0  0  0  0  0  0
  183.8200  177.9120  139.2750 C   0  0  0  0  0  0  0  0  0  0  0  0
  190.7470  177.3670  141.3270 C   0  0  0  0  0  3  0  0  0  0  0  0
  188.0480  177.8460  136.4960 C   0  0  1  0  0  3  0  0  0  0  0  0
  188.3350  177.6610  141.3560 C   0  0  0  0  0  0  0  0  0  0  0  0
  183.4040  178.0770  141.6720 N   0  0  0  0  0  0  0  0  0  0  0  0
  184.6170  177.9790  142.5150 C   0  0  1  0  0  3  0  0  0  0  0  0
  189.4380  177.6660  137.1000 C   0  0  0  0  0  2  0  0  0  0  0  0
  189.7230  178.7940  138.0540 C   0  0  0  0  0  2  0  0  0  0  0  0
  190.8120  177.9490  140.0720 C   0  0  0  0  0  3  0  0  0  0  0  0
  185.2170  179.1490  146.1500 C   0  0  0  0  0  3  0  0  0  0  0  0
  187.1400  178.0310  147.1160 C   0  0  0  0  0  0  0  0  0  0  0  0
  186.2730  177.2830  144.9520 C   0  0  0  0  0  3  0  0  0  0  0  0
  187.2130  177.1980  145.9500 C   0  0  0  0  0  3  0  0  0  0  0  0
  186.1150  179.0190  147.1610 C   0  0  0  0  0  3  0  0  0  0  0  0
  185.2990  178.3210  145.0040 C   0  0  0  0  0  0  0  0  0  0  0  0
  187.9220  177.7290  148.2660 C   0  0  0  0  0  0  0  0  0  0  0  0
  189.2740  178.1340  148.3870 O   0  0  0  0  0  0  0  0  0  0  0  0
  187.3890  177.0580  149.2550 O   0  0  0  0  0  1  0  0  0  0  0  0
  186.9550  177.6640  134.5380 O   0  0  0  0  0  0  0  0  0  0  0  0
  188.0360  177.5510  135.1110 C   0  0  0  0  0  0  0  0  0  0  0  0
  189.6070  177.0940  134.3460 S   0  0  0  0  0  0  0  0  0  0  0  0
  189.3670  175.2820  134.6130 C   0  0  2  0  0  3  0  0  0  0  0  0
  188.3190  174.9480  135.5370 F   0  0  0  0  0  0  0  0  0  0  0  0
  190.6460  174.4150  134.5060 C   0  0  2  0  0  3  0  0  0  0  0  0
  190.3930  173.1090  134.9500 O   0  0  0  0  0  1  0  0  0  0  0  0
  191.6930  175.0540  135.5890 C   0  0  2  0  0  3  0  0  0  0  0  0
  193.7310  173.8160  135.2850 O   0  0  0  0  0  0  0  0  0  0  0  0
  194.3180  174.0800  137.5250 O   0  0  0  0  0  1  0  0  0  0  0  0
  194.2780  174.6980  136.2570 C   0  0  1  0  0  0  0  0  0  0  0  0
  194.4370  176.0650  135.7280 C   0  0  1  0  0  0  0  0  0  0  0  0
  193.2530  175.1190  135.2180 C   0  0  2  0  0  0  0  0  0  0  0  0
  194.1240  176.9170  136.7490 O   0  0  0  0  0  1  0  0  0  0  0  0
  195.8040  175.7190  135.3790 C   0  0  0  0  0  2  0  0  0  0  0  0
  196.6500  175.8430  136.4560 O   0  0  0  0  0  1  0  0  0  0  0  0
  191.3330  174.6250  136.9750 C   0  0  0  0  0  0  0  0  0  0  0  0
  191.7600  175.3580  138.0010 C   0  0  0  0  0  2  0  0  0  0  0  0
  190.7660  173.4280  137.2410 O   0  0  0  0  0  1  0  0  0  0  0  0
  2 18  1  0  0  0  0
  3 19  2  0  0  0  0
  4  5  2  0  0  0  0
  4 11  1  0  0  0  0
  5  9  1  0  0  0  0
  6  7  1  0  0  0  0
  6 17  1  0  0  0  0
  8 23  1  0  0  0  0
  9  7  2  0  0  0  0
 11  6  2  0  0  0  0
 12 14  1  0  0  0  0
 12 27  2  0  0  0  0
 13  1  1  0  0  0  0
 14 22  2  0  0  0  0
 15 17  1  0  0  0  0
 15 33  1  1  0  0  0
 16  2  1  0  0  0  0
 18 19  1  0  0  0  0
 19  8  1  0  0  0  0
 20 10  2  0  0  0  0
 21 38  1  6  0  0  0
 21 25  1  0  0  0  0
 21 16  1  0  0  0  0
 22 10  1  0  0  0  0
 22  1  1  0  0  0  0
 23 11  1  0  0  0  0
 23 24  1  0  0  0  0
 24 13  1  6  0  0  0
 24 15  1  0  0  0  0
 25 26  1  0  0  0  0
 26 12  1  0  0  0  0
 27 20  1  0  0  0  0
 28 32  1  0  0  0  0
 29 32  2  0  0  0  0
 29 34  1  0  0  0  0
 30 33  1  0  0  0  0
 30 31  2  0  0  0  0
 31 29  1  0  0  0  0
 33 28  2  0  0  0  0
 34 35  2  0  0  0  0
 34 36  1  0  0  0  0
 37 38  2  0  0  0  0
 39 40  1  0  0  0  0
 39 38  1  0  0  0  0
 40 41  1  1  0  0  0
 42 40  1  0  0  0  0
 42 43  1  1  0  0  0
 42 44  1  0  0  0  0
 44 53  1  1  0  0  0
 45 47  1  0  0  0  0
 47 46  1  1  0  0  0
 48 47  1  0  0  0  0
 48 50  1  1  0  0  0
 49 45  1  0  0  0  0
 49 44  1  1  0  0  0
 49 48  1  0  0  0  0
 49 47  1  0  0  0  0
 51 48  1  0  0  0  0
 51 52  1  0  0  0  0
 53 55  1  0  0  0  0
 53 54  2  0  0  0  0
M  END
>  <MODEL>
5

>  <REMARK>
 VINA RESULT:      -7.9      2.658      5.834
  Name = 
  10 active torsions:
  status: ('A' for Active; 'I' for Inactive)
    1  A    between atoms: C_1  and  C_53
    2  A    between atoms: C_6  and  C_20
    3  A    between atoms: C_6  and  C_53
    4  A    between atoms: C_8  and  S_22
    5  A    between atoms: C_8  and  C_43
    6  A    between atoms: C_10  and  C_32
    7  A    between atoms: C_11  and  C_29
    8  A    between atoms: C_20  and  S_22
    9  A    between atoms: C_33  and  C_52
   10  A    between atoms: C_38  and  C_53
                            x       y       z     vdW  Elec       q    Type
                         _______ _______ _______ _____ _____    ______ ____

>  <TORSDO>
F 10

$$$$
=
 OpenBabel10272401253D

 55 61  0  0  1  0  0  0  0  0999 V2000
  187.0520  177.5080  142.1630 C   0  0  0  0  0  2  0  0  0  0  0  0
  185.6680  177.7320  137.5720 C   0  0  0  0  0  2  0  0  0  0  0  0
  183.1650  178.7910  138.8390 O   0  0  0  0  0  0  0  0  0  0  0  0
  181.1970  178.9960  141.1190 C   0  0  0  0  0  3  0  0  0  0  0  0
  180.1610  179.8240  141.4400 C   0  0  0  0  0  3  0  0  0  0  0  0
  182.1850  179.4680  143.2690 C   0  0  0  0  0  0  0  0  0  0  0  0
  180.9780  180.0400  143.6860 C   0  0  0  0  0  3  0  0  0  0  0  0
  183.2890  177.1220  140.5820 C   0  0  0  0  0  2  0  0  0  0  0  0
  179.9830  180.2610  142.7470 C   0  0  0  0  0  3  0  0  0  0  0  0
  189.5150  177.3100  141.9460 C   0  0  0  0  0  3  0  0  0  0  0  0
  182.2330  178.7810  142.0300 C   0  0  0  0  0  0  0  0  0  0  0  0
  189.5870  178.1340  139.3260 C   0  0  0  0  0  0  0  0  0  0  0  0
  185.8990  178.4200  141.7620 C   0  0  0  0  0  2  0  0  0  0  0  0
  188.3470  178.0500  139.9900 C   0  0  0  0  0  3  0  0  0  0  0  0
  184.4400  178.6690  143.8700 C   0  0  2  0  0  3  0  0  0  0  0  0
  186.9780  176.9310  137.2990 C   0  0  0  0  0  2  0  0  0  0  0  0
  183.0890  179.1190  144.2220 O   0  0  0  0  0  0  0  0  0  0  0  0
  184.8640  177.1480  138.6170 N   0  0  0  0  0  2  0  0  0  0  0  0
  183.7710  177.7890  139.2950 C   0  0  0  0  0  0  0  0  0  0  0  0
  190.7300  177.3190  141.2560 C   0  0  0  0  0  3  0  0  0  0  0  0
  187.9560  177.6360  136.4540 C   0  0  1  0  0  3  0  0  0  0  0  0
  188.3190  177.6110  141.3130 C   0  0  0  0  0  0  0  0  0  0  0  0
  183.3920  178.0330  141.6910 N   0  0  0  0  0  0  0  0  0  0  0  0
  184.6180  177.9640  142.5180 C   0  0  1  0  0  3  0  0  0  0  0  0
  189.3560  177.4780  137.0420 C   0  0  0  0  0  2  0  0  0  0  0  0
  189.6530  178.6370  137.9540 C   0  0  0  0  0  2  0  0  0  0  0  0
  190.7750  177.8600  139.9820 C   0  0  0  0  0  3  0  0  0  0  0  0
  185.2660  179.2470  146.1060 C   0  0  0  0  0  3  0  0  0  0  0  0
  187.2100  178.1710  147.0760 C   0  0  0  0  0  0  0  0  0  0  0  0
  186.3180  177.3550  144.9480 C   0  0  0  0  0  3  0  0  0  0  0  0
  187.2730  177.3050  145.9340 C   0  0  0  0  0  3  0  0  0  0  0  0
  186.1790  179.1520  147.1080 C   0  0  0  0  0  3  0  0  0  0  0  0
  185.3380  178.3870  144.9830 C   0  0  0  0  0  0  0  0  0  0  0  0
  188.0100  177.9070  148.2230 C   0  0  0  0  0  0  0  0  0  0  0  0
  189.3840  178.2450  148.2800 O   0  0  0  0  0  0  0  0  0  0  0  0
  187.4730  177.3350  149.2710 O   0  0  0  0  0  1  0  0  0  0  0  0
  188.6920  177.9140  134.3460 O   0  0  0  0  0  0  0  0  0  0  0  0
  187.9240  177.2960  135.0800 C   0  0  0  0  0  0  0  0  0  0  0  0
  186.8020  175.9720  134.5780 S   0  0  0  0  0  0  0  0  0  0  0  0
  187.8820  174.6230  135.2300 C   0  0  2  0  0  3  0  0  0  0  0  0
  188.9480  174.2330  134.3500 F   0  0  0  0  0  0  0  0  0  0  0  0
  187.1820  173.5900  136.1470 C   0  0  2  0  0  3  0  0  0  0  0  0
  188.1320  172.8180  136.8320 O   0  0  0  0  0  1  0  0  0  0  0  0
  186.4240  172.5550  135.1300 C   0  0  2  0  0  3  0  0  0  0  0  0
  184.2150  173.1710  134.4070 O   0  0  0  0  0  0  0  0  0  0  0  0
  184.0690  174.8450  136.0200 O   0  0  0  0  0  1  0  0  0  0  0  0
  183.9700  173.4590  135.7780 C   0  0  1  0  0  0  0  0  0  0  0  0
  183.9080  172.2320  136.5930 C   0  0  1  0  0  0  0  0  0  0  0  0
  184.8470  172.3140  135.3000 C   0  0  2  0  0  0  0  0  0  0  0  0
  184.5070  172.5260  137.7840 O   0  0  0  0  0  1  0  0  0  0  0  0
  182.4680  172.2400  136.4080 C   0  0  0  0  0  2  0  0  0  0  0  0
  181.8450  171.3380  137.2400 O   0  0  0  0  0  1  0  0  0  0  0  0
  187.2790  171.3560  134.8760 C   0  0  0  0  0  0  0  0  0  0  0  0
  186.6870  170.1970  134.5970 C   0  0  0  0  0  2  0  0  0  0  0  0
  188.6100  171.3500  135.1090 O   0  0  0  0  0  1  0  0  0  0  0  0
  2 18  1  0  0  0  0
  3 19  2  0  0  0  0
  4  5  2  0  0  0  0
  4 11  1  0  0  0  0
  5  9  1  0  0  0  0
  6  7  1  0  0  0  0
  6 17  1  0  0  0  0
  8 23  1  0  0  0  0
  9  7  2  0  0  0  0
 11  6  2  0  0  0  0
 12 27  2  0  0  0  0
 12 14  1  0  0  0  0
 13  1  1  0  0  0  0
 14 22  2  0  0  0  0
 15 17  1  0  0  0  0
 15 33  1  1  0  0  0
 16  2  1  0  0  0  0
 18 19  1  0  0  0  0
 19  8  1  0  0  0  0
 20 10  2  0  0  0  0
 21 38  1  6  0  0  0
 21 25  1  0  0  0  0
 21 16  1  0  0  0  0
 22 10  1  0  0  0  0
 22  1  1  0  0  0  0
 23 11  1  0  0  0  0
 23 24  1  0  0  0  0
 24 13  1  6  0  0  0
 24 15  1  0  0  0  0
 25 26  1  0  0  0  0
 26 12  1  0  0  0  0
 27 20  1  0  0  0  0
 28 32  1  0  0  0  0
 29 32  2  0  0  0  0
 29 34  1  0  0  0  0
 30 33  1  0  0  0  0
 30 31  2  0  0  0  0
 31 29  1  0  0  0  0
 33 28  2  0  0  0  0
 34 35  2  0  0  0  0
 34 36  1  0  0  0  0
 37 38  2  0  0  0  0
 39 38  1  0  0  0  0
 39 40  1  0  0  0  0
 40 41  1  6  0  0  0
 40 42  1  0  0  0  0
 42 43  1  6  0  0  0
 44 53  1  1  0  0  0
 44 42  1  0  0  0  0
 45 49  1  0  0  0  0
 45 47  1  0  0  0  0
 47 46  1  1  0  0  0
 47 48  1  0  0  0  0
 48 50  1  1  0  0  0
 49 44  1  1  0  0  0
 49 47  1  0  0  0  0
 49 48  1  0  0  0  0
 51 48  1  0  0  0  0
 51 52  1  0  0  0  0
 53 55  1  0  0  0  0
 54 53  2  0  0  0  0
M  END
>  <MODEL>
6

>  <REMARK>
 VINA RESULT:      -7.8      4.713      7.962
  Name = 
  10 active torsions:
  status: ('A' for Active; 'I' for Inactive)
    1  A    between atoms: C_1  and  C_53
    2  A    between atoms: C_6  and  C_20
    3  A    between atoms: C_6  and  C_53
    4  A    between atoms: C_8  and  S_22
    5  A    between atoms: C_8  and  C_43
    6  A    between atoms: C_10  and  C_32
    7  A    between atoms: C_11  and  C_29
    8  A    between atoms: C_20  and  S_22
    9  A    between atoms: C_33  and  C_52
   10  A    between atoms: C_38  and  C_53
                            x       y       z     vdW  Elec       q    Type
                         _______ _______ _______ _____ _____    ______ ____

>  <TORSDO>
F 10

$$$$
=
 OpenBabel10272401253D

 55 61  0  0  1  0  0  0  0  0999 V2000
  186.9280  177.5100  141.1550 C   0  0  0  0  0  2  0  0  0  0  0  0
  187.9300  176.5360  136.5620 C   0  0  0  0  0  2  0  0  0  0  0  0
  185.2290  177.7800  136.1700 O   0  0  0  0  0  0  0  0  0  0  0  0
  182.4390  178.4680  137.0920 C   0  0  0  0  0  3  0  0  0  0  0  0
  181.4520  179.3100  136.6660 C   0  0  0  0  0  3  0  0  0  0  0  0
  182.3170  179.4970  139.2710 C   0  0  0  0  0  0  0  0  0  0  0  0
  181.1130  180.1070  138.9040 C   0  0  0  0  0  3  0  0  0  0  0  0
  184.3600  176.6010  138.0910 C   0  0  0  0  0  2  0  0  0  0  0  0
  180.7110  180.0500  137.5790 C   0  0  0  0  0  3  0  0  0  0  0  0
  189.1680  177.3600  142.2100 C   0  0  0  0  0  3  0  0  0  0  0  0
  182.8910  178.5250  138.4110 C   0  0  0  0  0  0  0  0  0  0  0  0
  190.5550  177.5100  139.8420 C   0  0  0  0  0  0  0  0  0  0  0  0
  186.1920  178.2500  140.0440 C   0  0  0  0  0  2  0  0  0  0  0  0
  189.1450  177.5460  139.8220 C   0  0  0  0  0  3  0  0  0  0  0  0
  183.9320  178.9580  141.0570 C   0  0  2  0  0  3  0  0  0  0  0  0
  189.1350  175.7430  137.1540 C   0  0  0  0  0  2  0  0  0  0  0  0
  182.6210  179.4290  140.5940 O   0  0  0  0  0  0  0  0  0  0  0  0
  186.6760  176.2000  137.1910 N   0  0  0  0  0  2  0  0  0  0  0  0
  185.4540  176.9460  137.0830 C   0  0  0  0  0  0  0  0  0  0  0  0
  190.5600  177.2440  142.2140 C   0  0  0  0  0  3  0  0  0  0  0  0
  190.4550  176.2540  136.7490 C   0  0  1  0  0  3  0  0  0  0  0  0
  188.4510  177.4480  141.0260 C   0  0  0  0  0  0  0  0  0  0  0  0
  184.0000  177.7620  138.8620 N   0  0  0  0  0  0  0  0  0  0  0  0
  184.6710  177.9470  140.1690 C   0  0  1  0  0  3  0  0  0  0  0  0
  191.3850  176.3000  137.9590 C   0  0  0  0  0  2  0  0  0  0  0  0
  191.3110  177.6590  138.6000 C   0  0  0  0  0  2  0  0  0  0  0  0
  191.2550  177.4530  141.0350 C   0  0  0  0  0  3  0  0  0  0  0  0
  185.5050  178.9470  142.9380 C   0  0  0  0  0  3  0  0  0  0  0  0
  184.7590  178.7460  145.2370 C   0  0  0  0  0  0  0  0  0  0  0  0
  183.1040  178.9960  143.4510 C   0  0  0  0  0  3  0  0  0  0  0  0
  183.4020  178.7980  144.7770 C   0  0  0  0  0  3  0  0  0  0  0  0
  185.7930  178.8100  144.2590 C   0  0  0  0  0  3  0  0  0  0  0  0
  184.1610  178.9950  142.4960 C   0  0  0  0  0  0  0  0  0  0  0  0
  185.0530  178.8510  146.6250 C   0  0  0  0  0  0  0  0  0  0  0  0
  185.9470  179.8230  147.1370 O   0  0  0  0  0  0  0  0  0  0  0  0
  184.4840  178.0320  147.4730 O   0  0  0  0  0  1  0  0  0  0  0  0
  190.2870  175.0230  134.8730 O   0  0  0  0  0  0  0  0  0  0  0  0
  191.0530  175.5830  135.6550 C   0  0  0  0  0  0  0  0  0  0  0  0
  192.8510  175.6670  135.5110 S   0  0  0  0  0  0  0  0  0  0  0  0
  193.0970  173.8600  135.8040 C   0  0  2  0  0  3  0  0  0  0  0  0
  192.2170  173.2890  136.7850 F   0  0  0  0  0  0  0  0  0  0  0  0
  194.5470  173.3460  135.6340 C   0  0  2  0  0  3  0  0  0  0  0  0
  194.6240  172.4320  134.5730 O   0  0  0  0  0  1  0  0  0  0  0  0
  194.8590  172.4780  136.9870 C   0  0  2  0  0  3  0  0  0  0  0  0
  195.4180  173.1620  139.2230 O   0  0  0  0  0  0  0  0  0  0  0  0
  194.9600  175.3940  138.7390 O   0  0  0  0  0  1  0  0  0  0  0  0
  195.9030  174.3520  138.6150 C   0  0  1  0  0  0  0  0  0  0  0  0
  197.1340  174.1100  137.8420 C   0  0  1  0  0  0  0  0  0  0  0  0
  196.0140  172.9760  137.9820 C   0  0  2  0  0  0  0  0  0  0  0  0
  197.0540  174.8940  136.7260 O   0  0  0  0  0  1  0  0  0  0  0  0
  197.8930  174.4880  139.0210 C   0  0  0  0  0  2  0  0  0  0  0  0
  198.3610  175.7790  138.9300 O   0  0  0  0  0  1  0  0  0  0  0  0
  194.7890  171.0140  136.6920 C   0  0  0  0  0  0  0  0  0  0  0  0
  195.9200  170.3130  136.6690 C   0  0  0  0  0  2  0  0  0  0  0  0
  193.6600  170.4140  136.2570 O   0  0  0  0  0  1  0  0  0  0  0  0
  2 16  1  0  0  0  0
  2 18  1  0  0  0  0
  3 19  2  0  0  0  0
  4 11  1  0  0  0  0
  5  4  2  0  0  0  0
  5  9  1  0  0  0  0
  6 17  1  0  0  0  0
  7  6  1  0  0  0  0
  8 23  1  0  0  0  0
  9  7  2  0  0  0  0
 10 20  1  0  0  0  0
 11 23  1  0  0  0  0
 11  6  2  0  0  0  0
 12 27  1  0  0  0  0
 13  1  1  0  0  0  0
 14 12  2  0  0  0  0
 14 22  1  0  0  0  0
 15 33  1  1  0  0  0
 17 15  1  0  0  0  0
 19 18  1  0  0  0  0
 19  8  1  0  0  0  0
 21 38  1  6  0  0  0
 21 16  1  0  0  0  0
 21 25  1  0  0  0  0
 22  1  1  0  0  0  0
 22 10  2  0  0  0  0
 23 24  1  0  0  0  0
 24 13  1  6  0  0  0
 24 15  1  0  0  0  0
 25 26  1  0  0  0  0
 26 12  1  0  0  0  0
 27 20  2  0  0  0  0
 28 32  1  0  0  0  0
 29 34  1  0  0  0  0
 30 31  2  0  0  0  0
 31 29  1  0  0  0  0
 32 29  2  0  0  0  0
 33 28  2  0  0  0  0
 33 30  1  0  0  0  0
 34 35  2  0  0  0  0
 34 36  1  0  0  0  0
 37 38  2  0  0  0  0
 39 38  1  0  0  0  0
 39 40  1  0  0  0  0
 40 41  1  1  0  0  0
 42 43  1  6  0  0  0
 42 40  1  0  0  0  0
 42 44  1  0  0  0  0
 44 53  1  6  0  0  0
 47 46  1  6  0  0  0
 47 45  1  0  0  0  0
 48 50  1  6  0  0  0
 48 49  1  0  0  0  0
 48 47  1  0  0  0  0
 48 51  1  0  0  0  0
 49 44  1  6  0  0  0
 49 47  1  0  0  0  0
 49 45  1  0  0  0  0
 52 51  1  0  0  0  0
 54 53  2  0  0  0  0
 55 53  1  0  0  0  0
M  END
>  <MODEL>
7

>  <REMARK>
 VINA RESULT:      -7.4      2.462      5.364
  Name = 
  10 active torsions:
  status: ('A' for Active; 'I' for Inactive)
    1  A    between atoms: C_1  and  C_53
    2  A    between atoms: C_6  and  C_20
    3  A    between atoms: C_6  and  C_53
    4  A    between atoms: C_8  and  S_22
    5  A    between atoms: C_8  and  C_43
    6  A    between atoms: C_10  and  C_32
    7  A    between atoms: C_11  and  C_29
    8  A    between atoms: C_20  and  S_22
    9  A    between atoms: C_33  and  C_52
   10  A    between atoms: C_38  and  C_53
                            x       y       z     vdW  Elec       q    Type
                         _______ _______ _______ _____ _____    ______ ____

>  <TORSDO>
F 10

$$$$
=
 OpenBabel10272401253D

 55 61  0  0  1  0  0  0  0  0999 V2000
  185.3420  176.6050  137.4320 C   0  0  0  0  0  2  0  0  0  0  0  0
  188.0960  172.9800  135.9070 C   0  0  0  0  0  2  0  0  0  0  0  0
  185.4150  171.7040  135.4860 O   0  0  0  0  0  0  0  0  0  0  0  0
  182.4930  171.3310  136.1460 C   0  0  0  0  0  3  0  0  0  0  0  0
  181.4250  170.7350  135.5390 C   0  0  0  0  0  3  0  0  0  0  0  0
  181.2180  173.3750  136.2870 C   0  0  0  0  0  0  0  0  0  0  0  0
  180.0580  172.6600  135.9660 C   0  0  0  0  0  3  0  0  0  0  0  0
  184.6220  172.5720  137.5970 C   0  0  0  0  0  2  0  0  0  0  0  0
  180.1780  171.3460  135.5420 C   0  0  0  0  0  3  0  0  0  0  0  0
  186.9240  178.5140  137.3640 C   0  0  0  0  0  3  0  0  0  0  0  0
  182.4160  172.6640  136.5520 C   0  0  0  0  0  0  0  0  0  0  0  0
  188.7630  177.2380  135.7690 C   0  0  0  0  0  0  0  0  0  0  0  0
  184.7480  175.5280  136.5310 C   0  0  0  0  0  2  0  0  0  0  0  0
  187.5870  176.5590  136.1480 C   0  0  0  0  0  3  0  0  0  0  0  0
  182.2270  175.4890  137.0580 C   0  0  2  0  0  3  0  0  0  0  0  0
  189.2680  173.8330  136.4820 C   0  0  0  0  0  2  0  0  0  0  0  0
  181.0750  174.6060  136.8440 O   0  0  0  0  0  0  0  0  0  0  0  0
  187.0120  172.8150  136.8450 N   0  0  0  0  0  2  0  0  0  0  0  0
  185.6910  172.3460  136.5300 C   0  0  0  0  0  0  0  0  0  0  0  0
  188.1280  179.1490  137.0500 C   0  0  0  0  0  3  0  0  0  0  0  0
  190.2540  174.2640  135.4780 C   0  0  1  0  0  3  0  0  0  0  0  0
  186.6710  177.2070  136.9750 C   0  0  0  0  0  0  0  0  0  0  0  0
  183.5410  173.3610  137.0680 N   0  0  0  0  0  0  0  0  0  0  0  0
  183.5900  174.8240  137.2950 C   0  0  1  0  0  3  0  0  0  0  0  0
  190.6130  175.7310  135.7030 C   0  0  0  0  0  2  0  0  0  0  0  0
  189.7180  176.6020  134.8630 C   0  0  0  0  0  2  0  0  0  0  0  0
  188.9850  178.5530  136.1410 C   0  0  0  0  0  3  0  0  0  0  0  0
  181.4980  176.8760  138.9450 C   0  0  0  0  0  3  0  0  0  0  0  0
  181.0400  179.2440  138.6990 C   0  0  0  0  0  0  0  0  0  0  0  0
  181.9970  178.0000  136.8200 C   0  0  0  0  0  3  0  0  0  0  0  0
  181.4880  179.1660  137.3380 C   0  0  0  0  0  3  0  0  0  0  0  0
  181.0510  178.0470  139.4700 C   0  0  0  0  0  3  0  0  0  0  0  0
  181.9370  176.8110  137.6000 C   0  0  0  0  0  0  0  0  0  0  0  0
  180.8090  180.5090  139.3080 C   0  0  0  0  0  0  0  0  0  0  0  0
  180.5490  180.6430  140.6940 O   0  0  0  0  0  1  0  0  0  0  0  0
  180.8370  181.5960  138.5790 O   0  0  0  0  0  0  0  0  0  0  0  0
  191.2250  172.2370  135.3850 O   0  0  0  0  0  0  0  0  0  0  0  0
  191.4100  173.4520  135.3790 C   0  0  0  0  0  0  0  0  0  0  0  0
  193.0010  174.2890  135.2080 S   0  0  0  0  0  0  0  0  0  0  0  0
  193.4360  174.1220  136.9960 C   0  0  2  0  0  3  0  0  0  0  0  0
  192.3080  173.9840  137.8740 F   0  0  0  0  0  0  0  0  0  0  0  0
  194.7140  174.8710  137.4460 C   0  0  2  0  0  3  0  0  0  0  0  0
  194.8410  176.0860  136.7550 O   0  0  0  0  0  1  0  0  0  0  0  0
  195.9610  173.9410  136.9350 C   0  0  2  0  0  3  0  0  0  0  0  0
  197.5040  172.1880  137.5060 O   0  0  0  0  0  0  0  0  0  0  0  0
  197.2720  171.1940  135.4110 O   0  0  0  0  0  1  0  0  0  0  0  0
  196.6890  171.3600  136.6850 C   0  0  1  0  0  0  0  0  0  0  0  0
  195.3770  171.0960  137.3040 C   0  0  1  0  0  0  0  0  0  0  0  0
  196.1450  172.4750  137.5610 C   0  0  2  0  0  0  0  0  0  0  0  0
  194.4610  171.1020  136.2920 O   0  0  0  0  0  1  0  0  0  0  0  0
  195.9370  169.8750  137.8560 C   0  0  0  0  0  2  0  0  0  0  0  0
  195.6030  168.7750  137.0980 O   0  0  0  0  0  1  0  0  0  0  0  0
  197.1910  174.7720  136.7570 C   0  0  0  0  0  0  0  0  0  0  0  0
  197.7570  174.8250  135.5540 C   0  0  0  0  0  2  0  0  0  0  0  0
  197.8600  175.3100  137.8000 O   0  0  0  0  0  1  0  0  0  0  0  0
  2 16  1  0  0  0  0
  2 18  1  0  0  0  0
  3 19  2  0  0  0  0
  4 11  1  0  0  0  0
  5  9  1  0  0  0  0
  5  4  2  0  0  0  0
  6 11  2  0  0  0  0
  6 17  1  0  0  0  0
  7  6  1  0  0  0  0
  9  7  2  0  0  0  0
 11 23  1  0  0  0  0
 12 27  1  0  0  0  0
 12 14  2  0  0  0  0
 13  1  1  0  0  0  0
 14 22  1  0  0  0  0
 15 24  1  0  0  0  0
 15 33  1  1  0  0  0
 17 15  1  0  0  0  0
 19 18  1  0  0  0  0
 19  8  1  0  0  0  0
 20 10  1  0  0  0  0
 21 38  1  1  0  0  0
 21 25  1  0  0  0  0
 21 16  1  0  0  0  0
 22 10  2  0  0  0  0
 22  1  1  0  0  0  0
 23 24  1  0  0  0  0
 23  8  1  0  0  0  0
 24 13  1  6  0  0  0
 26 25  1  0  0  0  0
 26 12  1  0  0  0  0
 27 20  2  0  0  0  0
 28 32  1  0  0  0  0
 29 34  1  0  0  0  0
 29 32  2  0  0  0  0
 30 31  2  0  0  0  0
 30 33  1  0  0  0  0
 31 29  1  0  0  0  0
 33 28  2  0  0  0  0
 34 35  1  0  0  0  0
 36 34  2  0  0  0  0
 38 37  2  0  0  0  0
 39 38  1  0  0  0  0
 39 40  1  0  0  0  0
 40 42  1  0  0  0  0
 40 41  1  1  0  0  0
 42 43  1  6  0  0  0
 44 53  1  1  0  0  0
 44 42  1  0  0  0  0
 45 49  1  0  0  0  0
 47 46  1  6  0  0  0
 47 48  1  0  0  0  0
 47 45  1  0  0  0  0
 47 49  1  0  0  0  0
 48 50  1  6  0  0  0
 48 49  1  0  0  0  0
 48 51  1  0  0  0  0
 49 44  1  6  0  0  0
 52 51  1  0  0  0  0
 53 55  1  0  0  0  0
 54 53  2  0  0  0  0
M  END
>  <MODEL>
8

>  <REMARK>
 VINA RESULT:      -7.1      4.865      7.027
  Name = 
  10 active torsions:
  status: ('A' for Active; 'I' for Inactive)
    1  A    between atoms: C_1  and  C_53
    2  A    between atoms: C_6  and  C_20
    3  A    between atoms: C_6  and  C_53
    4  A    between atoms: C_8  and  S_22
    5  A    between atoms: C_8  and  C_43
    6  A    between atoms: C_10  and  C_32
    7  A    between atoms: C_11  and  C_29
    8  A    between atoms: C_20  and  S_22
    9  A    between atoms: C_33  and  C_52
   10  A    between atoms: C_38  and  C_53
                            x       y       z     vdW  Elec       q    Type
                         _______ _______ _______ _____ _____    ______ ____

>  <TORSDO>
F 10

$$$$
