=
 OpenBabel10272413213D

 32 38  0  0  1  0  0  0  0  0999 V2000
  191.1150  175.7250  138.1420 C   0  0  1  0  0  3  0  0  0  0  0  0
  188.5830  177.5170  142.0270 C   0  0  2  0  0  3  0  0  0  0  0  0
  191.7680  176.6790  145.6890 C   0  0  0  0  0  3  0  0  0  0  0  0
  190.7330  176.7780  146.6190 C   0  0  0  0  0  3  0  0  0  0  0  0
  186.2010  178.2700  142.6710 C   0  0  0  0  0  0  0  0  0  0  0  0
  185.2980  178.5930  143.6800 C   0  0  0  0  0  0  0  0  0  0  0  0
  189.5150  177.6260  139.6680 C   0  0  1  0  0  3  0  0  0  0  0  0
  191.0640  177.3310  141.4900 C   0  0  0  0  0  2  0  0  0  0  0  0
  184.5230  178.9130  145.8660 C   0  0  1  0  0  3  0  0  0  0  0  0
  191.5570  176.5240  139.3660 C   0  0  0  0  0  2  0  0  0  0  0  0
  191.5350  176.9880  144.3480 C   0  0  0  0  0  3  0  0  0  0  0  0
  190.0110  177.8250  142.5000 C   0  0  2  0  0  3  0  0  0  0  0  0
  190.2560  177.3790  143.9190 C   0  0  0  0  0  0  0  0  0  0  0  0
  187.8640  177.9160  144.4260 C   0  0  0  0  0  0  0  0  0  0  0  0
  183.3820  179.1630  144.8540 C   0  0  0  0  0  3  0  0  0  0  0  0
  189.6830  175.9800  137.6560 C   0  0  1  0  0  3  0  0  0  0  0  0
  190.4640  176.7030  140.3080 N   0  0  2  0  0  0  0  0  0  0  0  0
  183.9370  178.9330  143.5180 N   0  0  0  0  0  0  0  0  0  0  0  0
  188.8160  176.9330  138.4980 C   0  0  0  0  0  2  0  0  0  0  0  0
  190.8450  176.7030  137.0090 C   0  0  2  0  0  3  0  0  0  0  0  0
  189.4620  177.1880  146.2080 C   0  0  0  0  0  3  0  0  0  0  0  0
  189.2150  177.4960  144.8620 C   0  0  0  0  0  0  0  0  0  0  0  0
  186.9200  178.2270  145.3660 N   0  0  0  0  0  0  0  0  0  0  0  0
  188.4310  178.1300  140.6360 C   0  0  0  0  0  2  0  0  0  0  0  0
  185.7680  178.2370  141.3500 O   0  0  0  0  0  1  0  0  0  0  0  0
  184.1660  177.7270  146.7430 C   0  0  0  0  0  1  0  0  0  0  0  0
  187.5390  177.9660  143.0380 C   0  0  0  0  0  0  0  0  0  0  0  0
  185.6650  178.5700  144.9850 C   0  0  0  0  0  0  0  0  0  0  0  0
  191.1580  176.0680  135.7400 N   0  0  0  0  0  2  0  0  0  0  0  0
  192.3910  175.3200  135.9250 C   0  0  2  0  0  3  0  0  0  0  0  0
  193.5510  176.1180  135.3640 C   0  0  0  0  0  1  0  0  0  0  0  0
  192.3030  174.0980  135.2550 O   0  0  0  0  0  1  0  0  0  0  0  0
  1 10  1  1  0  0  0
  2 24  1  6  0  0  0
  2 12  1  0  0  0  0
  2 27  1  0  0  0  0
  3  4  1  0  0  0  0
  5 27  2  0  0  0  0
  5  6  1  0  0  0  0
  6 28  2  0  0  0  0
  7 19  1  6  0  0  0
  7 17  1  0  0  0  0
  7 24  1  0  0  0  0
  9 26  1  1  0  0  0
 11  3  2  0  0  0  0
 12  8  1  6  0  0  0
 12 13  1  0  0  0  0
 13 11  1  0  0  0  0
 13 22  2  0  0  0  0
 14 22  1  0  0  0  0
 14 23  2  0  0  0  0
 15  9  1  0  0  0  0
 16  1  1  0  0  0  0
 16 19  1  1  0  0  0
 17 10  1  6  0  0  0
 17  8  1  0  0  0  0
 18  6  1  0  0  0  0
 18 15  2  0  0  0  0
 20 29  1  6  0  0  0
 20 16  1  0  0  0  0
 20  1  1  0  0  0  0
 21  4  2  0  0  0  0
 22 21  1  0  0  0  0
 25  5  1  0  0  0  0
 27 14  1  0  0  0  0
 28 23  1  0  0  0  0
 28  9  1  0  0  0  0
 29 30  1  0  0  0  0
 30 31  1  6  0  0  0
 32 30  1  0  0  0  0
M  END
>  <MODEL>
1

>  <REMARK>
 VINA RESULT:      -9.7      0.000      0.000
  Name = 
  2 active torsions:
  status: ('A' for Active; 'I' for Inactive)
    1  A    between atoms: C_1  and  N_10
    2  A    between atoms: N_10  and  C_24
                            x       y       z     vdW  Elec       q    Type
                         _______ _______ _______ _____ _____    ______ ____

>  <TORSDO>
F 2

$$$$
=
 OpenBabel10272413213D

 32 38  0  0  1  0  0  0  0  0999 V2000
  187.8850  179.0570  137.4540 C   0  0  1  0  0  3  0  0  0  0  0  0
  187.9670  177.9120  142.2920 C   0  0  2  0  0  3  0  0  0  0  0  0
  183.3920  179.1590  143.6270 C   0  0  0  0  0  3  0  0  0  0  0  0
  183.7950  179.2250  144.9610 C   0  0  0  0  0  3  0  0  0  0  0  0
  189.6380  177.3330  144.1690 C   0  0  0  0  0  0  0  0  0  0  0  0
  189.8770  177.1860  145.5330 C   0  0  0  0  0  0  0  0  0  0  0  0
  188.3800  177.4420  139.8310 C   0  0  1  0  0  3  0  0  0  0  0  0
  186.1290  177.9420  140.5310 C   0  0  0  0  0  2  0  0  0  0  0  0
  189.3980  177.2030  147.8250 C   0  0  1  0  0  3  0  0  0  0  0  0
  186.8390  178.4250  138.3700 C   0  0  0  0  0  2  0  0  0  0  0  0
  184.2690  178.6710  142.6560 C   0  0  0  0  0  3  0  0  0  0  0  0
  186.4870  177.6290  141.9970 C   0  0  2  0  0  3  0  0  0  0  0  0
  185.5660  178.2640  143.0080 C   0  0  0  0  0  0  0  0  0  0  0  0
  187.3280  177.8800  144.7460 C   0  0  0  0  0  0  0  0  0  0  0  0
  190.8840  176.8480  147.5930 C   0  0  0  0  0  3  0  0  0  0  0  0
  189.3490  178.7810  137.8180 C   0  0  1  0  0  3  0  0  0  0  0  0
  187.2810  178.4150  139.7550 N   0  0  2  0  0  0  0  0  0  0  0  0
  191.1090  176.8690  146.1460 N   0  0  0  0  0  0  0  0  0  0  0  0
  189.6130  177.9850  139.1080 C   0  0  0  0  0  2  0  0  0  0  0  0
  188.6550  177.9370  136.7700 C   0  0  2  0  0  3  0  0  0  0  0  0
  185.0760  178.8020  145.3260 C   0  0  0  0  0  3  0  0  0  0  0  0
  185.9660  178.3140  144.3580 C   0  0  0  0  0  0  0  0  0  0  0  0
  187.6360  177.7350  146.0700 N   0  0  0  0  0  0  0  0  0  0  0  0
  188.7850  177.1140  141.2790 C   0  0  0  0  0  2  0  0  0  0  0  0
  190.6910  177.1940  143.2720 O   0  0  0  0  0  1  0  0  0  0  0  0
  189.3070  178.5110  148.5870 C   0  0  0  0  0  1  0  0  0  0  0  0
  188.3190  177.6450  143.7470 C   0  0  0  0  0  0  0  0  0  0  0  0
  188.8900  177.3810  146.4430 C   0  0  0  0  0  0  0  0  0  0  0  0
  189.0710  178.3770  135.4490 N   0  0  0  0  0  2  0  0  0  0  0  0
  189.3430  177.1830  134.6640 C   0  0  2  0  0  3  0  0  0  0  0  0
  188.1440  176.2590  134.7230 C   0  0  0  0  0  1  0  0  0  0  0  0
  190.4610  176.5260  135.1820 O   0  0  0  0  0  1  0  0  0  0  0  0
  1 16  1  0  0  0  0
  1 10  1  1  0  0  0
  2 24  1  6  0  0  0
  2 27  1  0  0  0  0
  3  4  1  0  0  0  0
  4 21  2  0  0  0  0
  5  6  1  0  0  0  0
  6 18  1  0  0  0  0
  6 28  2  0  0  0  0
  7 19  1  6  0  0  0
  7 24  1  0  0  0  0
  9 26  1  1  0  0  0
 11 13  1  0  0  0  0
 11  3  2  0  0  0  0
 12  8  1  6  0  0  0
 12  2  1  0  0  0  0
 12 13  1  0  0  0  0
 13 22  2  0  0  0  0
 14 23  2  0  0  0  0
 15  9  1  0  0  0  0
 16 19  1  1  0  0  0
 17 10  1  6  0  0  0
 17  7  1  0  0  0  0
 17  8  1  0  0  0  0
 18 15  2  0  0  0  0
 20 29  1  6  0  0  0
 20  1  1  0  0  0  0
 20 16  1  0  0  0  0
 22 14  1  0  0  0  0
 22 21  1  0  0  0  0
 23 28  1  0  0  0  0
 25  5  1  0  0  0  0
 27  5  2  0  0  0  0
 27 14  1  0  0  0  0
 28  9  1  0  0  0  0
 30 31  1  1  0  0  0
 30 32  1  0  0  0  0
 30 29  1  0  0  0  0
M  END
>  <MODEL>
2

>  <REMARK>
 VINA RESULT:      -9.5      2.337      4.734
  Name = 
  2 active torsions:
  status: ('A' for Active; 'I' for Inactive)
    1  A    between atoms: C_1  and  N_10
    2  A    between atoms: N_10  and  C_24
                            x       y       z     vdW  Elec       q    Type
                         _______ _______ _______ _____ _____    ______ ____

>  <TORSDO>
F 2

$$$$
=
 OpenBabel10272413213D

 32 38  0  0  1  0  0  0  0  0999 V2000
  190.6820  176.2430  139.2150 C   0  0  1  0  0  3  0  0  0  0  0  0
  186.6720  177.9750  141.5910 C   0  0  2  0  0  3  0  0  0  0  0  0
  188.1350  177.6180  146.2800 C   0  0  0  0  0  3  0  0  0  0  0  0
  186.8060  177.6630  146.7030 C   0  0  0  0  0  3  0  0  0  0  0  0
  184.1910  178.5310  141.1580 C   0  0  0  0  0  0  0  0  0  0  0  0
  182.9350  178.8150  141.6870 C   0  0  0  0  0  0  0  0  0  0  0  0
  188.4750  178.0560  139.8060 C   0  0  1  0  0  3  0  0  0  0  0  0
  189.1630  177.9970  142.1150 C   0  0  0  0  0  2  0  0  0  0  0  0
  181.3160  179.1660  143.3430 C   0  0  1  0  0  3  0  0  0  0  0  0
  190.5320  177.1380  140.4430 C   0  0  0  0  0  2  0  0  0  0  0  0
  188.4490  177.8380  144.9380 C   0  0  0  0  0  3  0  0  0  0  0  0
  187.7590  178.4380  142.5710 C   0  0  2  0  0  3  0  0  0  0  0  0
  187.4330  178.0860  144.0010 C   0  0  0  0  0  0  0  0  0  0  0  0
  185.0120  178.4190  143.4560 C   0  0  0  0  0  0  0  0  0  0  0  0
  180.6740  179.2580  141.9400 C   0  0  0  0  0  3  0  0  0  0  0  0
  189.5580  176.3380  138.1750 C   0  0  1  0  0  3  0  0  0  0  0  0
  189.1400  177.2590  140.8470 N   0  0  2  0  0  0  0  0  0  0  0  0
  181.7390  179.0170  140.9640 N   0  0  0  0  0  0  0  0  0  0  0  0
  188.3620  177.2450  138.5150 C   0  0  0  0  0  2  0  0  0  0  0  0
  190.8320  177.1350  137.9930 C   0  0  2  0  0  3  0  0  0  0  0  0
  185.7890  177.9310  145.7830 C   0  0  0  0  0  3  0  0  0  0  0  0
  186.0930  178.1490  144.4310 C   0  0  0  0  0  0  0  0  0  0  0  0
  183.7490  178.6850  143.9070 N   0  0  0  0  0  0  0  0  0  0  0  0
  187.0600  178.5030  140.2110 C   0  0  0  0  0  2  0  0  0  0  0  0
  184.3370  178.3930  139.7820 O   0  0  0  0  0  1  0  0  0  0  0  0
  180.7130  177.9950  144.0960 C   0  0  0  0  0  1  0  0  0  0  0  0
  185.2790  178.3710  142.0550 C   0  0  0  0  0  0  0  0  0  0  0  0
  182.7390  178.8900  143.0270 C   0  0  0  0  0  0  0  0  0  0  0  0
  191.6770  176.4720  137.0140 N   0  0  0  0  0  2  0  0  0  0  0  0
  192.3490  175.3780  137.6950 C   0  0  2  0  0  3  0  0  0  0  0  0
  193.8410  175.6430  137.7210 C   0  0  0  0  0  1  0  0  0  0  0  0
  192.1040  174.1820  137.0190 O   0  0  0  0  0  1  0  0  0  0  0  0
  1 10  1  1  0  0  0
  2 24  1  6  0  0  0
  2 27  1  0  0  0  0
  2 12  1  0  0  0  0
  3  4  1  0  0  0  0
  5  6  2  0  0  0  0
  5 27  1  0  0  0  0
  6 28  1  0  0  0  0
  7 19  1  6  0  0  0
  7 24  1  0  0  0  0
  7 17  1  0  0  0  0
  9 26  1  1  0  0  0
 11  3  2  0  0  0  0
 12  8  1  6  0  0  0
 12 13  1  0  0  0  0
 13 22  2  0  0  0  0
 13 11  1  0  0  0  0
 14 23  1  0  0  0  0
 14 22  1  0  0  0  0
 15  9  1  0  0  0  0
 16 19  1  1  0  0  0
 16  1  1  0  0  0  0
 17 10  1  6  0  0  0
 17  8  1  0  0  0  0
 18  6  1  0  0  0  0
 18 15  2  0  0  0  0
 20 29  1  6  0  0  0
 20 16  1  0  0  0  0
 20  1  1  0  0  0  0
 21  4  2  0  0  0  0
 22 21  1  0  0  0  0
 25  5  1  0  0  0  0
 27 14  2  0  0  0  0
 28  9  1  0  0  0  0
 28 23  2  0  0  0  0
 29 30  1  0  0  0  0
 30 31  1  6  0  0  0
 32 30  1  0  0  0  0
M  END
>  <MODEL>
3

>  <REMARK>
 VINA RESULT:      -9.4      1.794      2.729
  Name = 
  2 active torsions:
  status: ('A' for Active; 'I' for Inactive)
    1  A    between atoms: C_1  and  N_10
    2  A    between atoms: N_10  and  C_24
                            x       y       z     vdW  Elec       q    Type
                         _______ _______ _______ _____ _____    ______ ____

>  <TORSDO>
F 2

$$$$
=
 OpenBabel10272413213D

 32 38  0  0  1  0  0  0  0  0999 V2000
  181.1300  180.6700  139.5840 C   0  0  1  0  0  3  0  0  0  0  0  0
  185.2660  178.7100  141.5280 C   0  0  2  0  0  3  0  0  0  0  0  0
  184.1350  178.7040  146.3220 C   0  0  0  0  0  3  0  0  0  0  0  0
  185.4890  178.6100  146.6460 C   0  0  0  0  0  3  0  0  0  0  0  0
  187.7020  178.1640  140.8800 C   0  0  0  0  0  0  0  0  0  0  0  0
  188.9860  177.8250  141.2960 C   0  0  0  0  0  0  0  0  0  0  0  0
  183.3420  178.7920  139.8730 C   0  0  1  0  0  3  0  0  0  0  0  0
  182.8160  178.6720  142.2220 C   0  0  0  0  0  2  0  0  0  0  0  0
  190.7090  177.3250  142.8010 C   0  0  1  0  0  3  0  0  0  0  0  0
  181.3500  179.6780  140.7240 C   0  0  0  0  0  2  0  0  0  0  0  0
  183.7260  178.5960  144.9920 C   0  0  0  0  0  3  0  0  0  0  0  0
  184.2420  178.1810  142.5420 C   0  0  2  0  0  3  0  0  0  0  0  0
  184.6700  178.4130  143.9690 C   0  0  0  0  0  0  0  0  0  0  0  0
  187.0430  178.0990  143.2310 C   0  0  0  0  0  0  0  0  0  0  0  0
  191.2520  177.3390  141.3540 C   0  0  0  0  0  3  0  0  0  0  0  0
  182.1780  180.6470  138.4640 C   0  0  1  0  0  3  0  0  0  0  0  0
  182.7640  179.5100  141.0180 N   0  0  2  0  0  0  0  0  0  0  0  0
  190.1260  177.6690  140.4770 N   0  0  0  0  0  0  0  0  0  0  0  0
  183.3800  179.7030  138.6460 C   0  0  0  0  0  2  0  0  0  0  0  0
  180.8810  179.8810  138.3080 C   0  0  2  0  0  3  0  0  0  0  0  0
  186.4360  178.4060  145.6390 C   0  0  0  0  0  3  0  0  0  0  0  0
  186.0360  178.3010  144.2980 C   0  0  0  0  0  0  0  0  0  0  0  0
  188.3290  177.7850  143.5710 N   0  0  0  0  0  0  0  0  0  0  0  0
  184.7750  178.2990  140.1420 C   0  0  0  0  0  2  0  0  0  0  0  0
  187.4630  178.4140  139.5330 O   0  0  0  0  0  1  0  0  0  0  0  0
  191.3820  178.4250  143.6010 C   0  0  0  0  0  1  0  0  0  0  0  0
  186.6800  178.2630  141.8610 C   0  0  0  0  0  0  0  0  0  0  0  0
  189.2730  177.6410  142.6090 C   0  0  0  0  0  0  0  0  0  0  0  0
  179.9820  180.6300  137.4470 N   0  0  0  0  0  2  0  0  0  0  0  0
  180.7400  181.0250  136.2710 C   0  0  2  0  0  3  0  0  0  0  0  0
  180.2220  182.3550  135.7620 C   0  0  0  0  0  1  0  0  0  0  0  0
  180.5950  180.0590  135.2730 O   0  0  0  0  0  1  0  0  0  0  0  0
  1 10  1  1  0  0  0
  2 24  1  6  0  0  0
  2 27  1  0  0  0  0
  2 12  1  0  0  0  0
  3  4  1  0  0  0  0
  5  6  2  0  0  0  0
  5 27  1  0  0  0  0
  6 28  1  0  0  0  0
  7 19  1  6  0  0  0
  7 24  1  0  0  0  0
  7 17  1  0  0  0  0
  9 26  1  1  0  0  0
 11  3  2  0  0  0  0
 12  8  1  6  0  0  0
 12 13  1  0  0  0  0
 13 22  2  0  0  0  0
 13 11  1  0  0  0  0
 14 23  1  0  0  0  0
 14 22  1  0  0  0  0
 15  9  1  0  0  0  0
 16 19  1  1  0  0  0
 16  1  1  0  0  0  0
 17 10  1  6  0  0  0
 17  8  1  0  0  0  0
 18  6  1  0  0  0  0
 18 15  2  0  0  0  0
 20 29  1  6  0  0  0
 20 16  1  0  0  0  0
 20  1  1  0  0  0  0
 21  4  2  0  0  0  0
 22 21  1  0  0  0  0
 25  5  1  0  0  0  0
 27 14  2  0  0  0  0
 28  9  1  0  0  0  0
 28 23  2  0  0  0  0
 30 31  1  6  0  0  0
 30 29  1  0  0  0  0
 32 30  1  0  0  0  0
M  END
>  <MODEL>
4

>  <REMARK>
 VINA RESULT:      -9.2      4.115      7.756
  Name = 
  2 active torsions:
  status: ('A' for Active; 'I' for Inactive)
    1  A    between atoms: C_1  and  N_10
    2  A    between atoms: N_10  and  C_24
                            x       y       z     vdW  Elec       q    Type
                         _______ _______ _______ _____ _____    ______ ____

>  <TORSDO>
F 2

$$$$
=
 OpenBabel10272413213D

 32 38  0  0  1  0  0  0  0  0999 V2000
  190.8090  175.8680  147.5570 C   0  0  1  0  0  3  0  0  0  0  0  0
  189.0180  177.5500  143.2340 C   0  0  2  0  0  3  0  0  0  0  0  0
  184.3250  178.4270  144.4410 C   0  0  0  0  0  3  0  0  0  0  0  0
  183.9670  178.3930  143.0930 C   0  0  0  0  0  3  0  0  0  0  0  0
  189.6470  177.6720  140.7350 C   0  0  0  0  0  0  0  0  0  0  0  0
  189.2370  177.9020  139.4250 C   0  0  0  0  0  0  0  0  0  0  0  0
  190.7160  177.4670  145.1200 C   0  0  1  0  0  3  0  0  0  0  0  0
  188.4320  178.0080  145.6680 C   0  0  0  0  0  2  0  0  0  0  0  0
  187.7570  178.3970  137.6790 C   0  0  1  0  0  3  0  0  0  0  0  0
  189.8210  176.9850  147.2280 C   0  0  0  0  0  2  0  0  0  0  0  0
  185.6710  178.3850  144.8080 C   0  0  0  0  0  3  0  0  0  0  0  0
  188.1330  178.3540  144.1970 C   0  0  2  0  0  3  0  0  0  0  0  0
  186.6730  178.2870  143.8290 C   0  0  0  0  0  0  0  0  0  0  0  0
  187.3570  178.1770  141.4230 C   0  0  0  0  0  0  0  0  0  0  0  0
  189.1640  178.0940  137.1160 C   0  0  0  0  0  3  0  0  0  0  0  0
  191.8790  175.5860  146.4960 C   0  0  1  0  0  3  0  0  0  0  0  0
  189.5000  177.0120  145.8100 N   0  0  2  0  0  0  0  0  0  0  0  0
  190.0250  177.7840  138.2600 N   0  0  0  0  0  0  0  0  0  0  0  0
  191.7920  176.3840  145.1820 C   0  0  0  0  0  2  0  0  0  0  0  0
  192.1960  176.4810  147.6750 C   0  0  2  0  0  3  0  0  0  0  0  0
  184.9560  178.3190  142.1090 C   0  0  0  0  0  3  0  0  0  0  0  0
  186.3120  178.2710  142.4670 C   0  0  0  0  0  0  0  0  0  0  0  0
  187.0190  178.3700  140.1130 N   0  0  0  0  0  0  0  0  0  0  0  0
  190.4680  177.8060  143.6400 C   0  0  0  0  0  2  0  0  0  0  0  0
  190.9500  177.2540  140.9800 O   0  0  0  0  0  1  0  0  0  0  0  0
  186.7790  177.3540  137.1730 C   0  0  0  0  0  1  0  0  0  0  0  0
  188.7020  177.8560  141.7780 C   0  0  0  0  0  0  0  0  0  0  0  0
  187.9550  178.2440  139.1400 C   0  0  0  0  0  0  0  0  0  0  0  0
  192.9710  175.7330  148.6500 N   0  0  0  0  0  2  0  0  0  0  0  0
  193.2700  176.6370  149.7490 C   0  0  2  0  0  3  0  0  0  0  0  0
  192.5160  177.9360  149.5480 C   0  0  0  0  0  1  0  0  0  0  0  0
  194.6410  176.8970  149.7830 O   0  0  0  0  0  1  0  0  0  0  0  0
  1 10  1  6  0  0  0
  1 20  1  0  0  0  0
  2 24  1  1  0  0  0
  2 12  1  0  0  0  0
  3 11  1  0  0  0  0
  4  3  2  0  0  0  0
  5 25  1  0  0  0  0
  5 27  1  0  0  0  0
  6  5  2  0  0  0  0
  7 24  1  6  0  0  0
  7 19  1  0  0  0  0
  7 17  1  0  0  0  0
  9 26  1  6  0  0  0
  9 28  1  0  0  0  0
 12  8  1  1  0  0  0
 13 12  1  0  0  0  0
 13 11  2  0  0  0  0
 14 27  2  0  0  0  0
 14 22  1  0  0  0  0
 15  9  1  0  0  0  0
 15 18  2  0  0  0  0
 16 19  1  6  0  0  0
 16  1  1  0  0  0  0
 16 20  1  0  0  0  0
 17  8  1  1  0  0  0
 17 10  1  0  0  0  0
 18  6  1  0  0  0  0
 20 29  1  1  0  0  0
 21 22  2  0  0  0  0
 21  4  1  0  0  0  0
 22 13  1  0  0  0  0
 23 14  1  0  0  0  0
 27  2  1  0  0  0  0
 28  6  1  0  0  0  0
 28 23  2  0  0  0  0
 29 30  1  0  0  0  0
 30 31  1  6  0  0  0
 30 32  1  0  0  0  0
M  END
>  <MODEL>
5

>  <REMARK>
 VINA RESULT:      -9.2      3.217      7.960
  Name = 
  2 active torsions:
  status: ('A' for Active; 'I' for Inactive)
    1  A    between atoms: C_1  and  N_10
    2  A    between atoms: N_10  and  C_24
                            x       y       z     vdW  Elec       q    Type
                         _______ _______ _______ _____ _____    ______ ____

>  <TORSDO>
F 2

$$$$
=
 OpenBabel10272413213D

 32 38  0  0  1  0  0  0  0  0999 V2000
  191.2180  177.7820  145.1850 C   0  0  1  0  0  3  0  0  0  0  0  0
  187.3810  177.9880  142.0300 C   0  0  2  0  0  3  0  0  0  0  0  0
  189.7320  178.2310  137.7090 C   0  0  0  0  0  3  0  0  0  0  0  0
  188.5830  178.7460  137.1070 C   0  0  0  0  0  3  0  0  0  0  0  0
  184.8330  178.3930  142.0230 C   0  0  0  0  0  0  0  0  0  0  0  0
  183.6850  178.6720  141.2870 C   0  0  0  0  0  0  0  0  0  0  0  0
  188.6590  177.0330  144.0050 C   0  0  1  0  0  3  0  0  0  0  0  0
  189.7440  177.0580  141.8530 C   0  0  0  0  0  2  0  0  0  0  0  0
  182.3940  179.1460  139.3920 C   0  0  1  0  0  3  0  0  0  0  0  0
  190.9890  177.1460  143.8150 C   0  0  0  0  0  2  0  0  0  0  0  0
  189.6840  177.7700  139.0260 C   0  0  0  0  0  3  0  0  0  0  0  0
  188.3890  177.2440  141.1430 C   0  0  2  0  0  3  0  0  0  0  0  0
  188.4910  177.8390  139.7610 C   0  0  0  0  0  0  0  0  0  0  0  0
  186.0580  178.4130  139.9080 C   0  0  0  0  0  0  0  0  0  0  0  0
  181.5090  179.1660  140.6590 C   0  0  0  0  0  3  0  0  0  0  0  0
  189.9620  178.0220  146.0310 C   0  0  1  0  0  3  0  0  0  0  0  0
  189.7520  177.6140  143.2110 N   0  0  2  0  0  0  0  0  0  0  0  0
  182.3840  178.8740  141.7970 N   0  0  0  0  0  0  0  0  0  0  0  0
  188.6060  177.6880  145.3850 C   0  0  0  0  0  2  0  0  0  0  0  0
  190.8000  176.7810  146.2500 C   0  0  2  0  0  3  0  0  0  0  0  0
  187.3840  178.7990  137.8230 C   0  0  0  0  0  3  0  0  0  0  0  0
  187.3260  178.3430  139.1480 C   0  0  0  0  0  0  0  0  0  0  0  0
  184.8950  178.7040  139.2510 N   0  0  0  0  0  0  0  0  0  0  0  0
  187.2820  177.2130  143.3420 C   0  0  0  0  0  2  0  0  0  0  0  0
  184.7570  178.3210  143.4090 O   0  0  0  0  0  1  0  0  0  0  0  0
  182.4110  180.5290  138.7690 C   0  0  0  0  0  1  0  0  0  0  0  0
  186.0540  178.2110  141.3210 C   0  0  0  0  0  0  0  0  0  0  0  0
  183.7320  178.8170  139.9390 C   0  0  0  0  0  0  0  0  0  0  0  0
  191.6270  176.9620  147.4320 N   0  0  0  0  0  2  0  0  0  0  0  0
  192.1220  175.6500  147.8170 C   0  0  2  0  0  3  0  0  0  0  0  0
  193.1340  175.8040  148.9340 C   0  0  0  0  0  1  0  0  0  0  0  0
  192.7320  175.0380  146.7200 O   0  0  0  0  0  1  0  0  0  0  0  0
  1 10  1  6  0  0  0
  1 16  1  0  0  0  0
  1 20  1  0  0  0  0
  2 24  1  1  0  0  0
  3 11  1  0  0  0  0
  4  3  2  0  0  0  0
  4 21  1  0  0  0  0
  5 25  1  0  0  0  0
  6 18  1  0  0  0  0
  6  5  2  0  0  0  0
  7 24  1  6  0  0  0
  7 19  1  0  0  0  0
  9 26  1  1  0  0  0
  9 28  1  0  0  0  0
  9 15  1  0  0  0  0
 11 13  2  0  0  0  0
 12  8  1  1  0  0  0
 12  2  1  0  0  0  0
 13 12  1  0  0  0  0
 14 27  2  0  0  0  0
 15 18  2  0  0  0  0
 16 19  1  6  0  0  0
 16 20  1  0  0  0  0
 17  8  1  6  0  0  0
 17 10  1  0  0  0  0
 17  7  1  0  0  0  0
 20 29  1  1  0  0  0
 21 22  2  0  0  0  0
 22 13  1  0  0  0  0
 22 14  1  0  0  0  0
 23 14  1  0  0  0  0
 23 28  2  0  0  0  0
 27  5  1  0  0  0  0
 27  2  1  0  0  0  0
 28  6  1  0  0  0  0
 29 30  1  0  0  0  0
 30 31  1  1  0  0  0
 32 30  1  0  0  0  0
M  END
>  <MODEL>
6

>  <REMARK>
 VINA RESULT:      -9.0      3.363      6.905
  Name = 
  2 active torsions:
  status: ('A' for Active; 'I' for Inactive)
    1  A    between atoms: C_1  and  N_10
    2  A    between atoms: N_10  and  C_24
                            x       y       z     vdW  Elec       q    Type
                         _______ _______ _______ _____ _____    ______ ____

>  <TORSDO>
F 2

$$$$
=
 OpenBabel10272413213D

 32 38  0  0  1  0  0  0  0  0999 V2000
  189.0770  177.1330  144.1820 C   0  0  1  0  0  3  0  0  0  0  0  0
  190.8910  176.7960  139.5640 C   0  0  2  0  0  3  0  0  0  0  0  0
  186.7300  176.5670  136.9380 C   0  0  0  0  0  3  0  0  0  0  0  0
  187.4330  176.0170  135.8650 C   0  0  0  0  0  3  0  0  0  0  0  0
  193.1060  176.3270  138.3280 C   0  0  0  0  0  0  0  0  0  0  0  0
  193.7460  176.0110  137.1330 C   0  0  0  0  0  0  0  0  0  0  0  0
  190.7520  177.8040  141.8910 C   0  0  1  0  0  3  0  0  0  0  0  0
  188.7560  177.7830  140.5390 C   0  0  0  0  0  2  0  0  0  0  0  0
  193.9430  175.4850  134.8600 C   0  0  1  0  0  3  0  0  0  0  0  0
  188.6220  177.7490  142.8600 C   0  0  0  0  0  2  0  0  0  0  0  0
  187.4210  177.0410  138.0550 C   0  0  0  0  0  3  0  0  0  0  0  0
  189.5910  177.5560  139.2640 C   0  0  2  0  0  3  0  0  0  0  0  0
  188.8200  176.9490  138.1190 C   0  0  0  0  0  0  0  0  0  0  0  0
  191.0070  176.3150  137.0770 C   0  0  0  0  0  0  0  0  0  0  0  0
  195.3320  175.4560  135.5370 C   0  0  0  0  0  3  0  0  0  0  0  0
  190.5820  176.8700  144.3160 C   0  0  1  0  0  3  0  0  0  0  0  0
  189.4010  177.2430  141.7410 N   0  0  2  0  0  0  0  0  0  0  0  0
  195.1270  175.7810  136.9500 N   0  0  0  0  0  0  0  0  0  0  0  0
  191.4580  177.1630  143.0850 C   0  0  0  0  0  2  0  0  0  0  0  0
  189.9770  178.1350  144.8880 C   0  0  2  0  0  3  0  0  0  0  0  0
  188.8270  175.9410  135.9080 C   0  0  0  0  0  3  0  0  0  0  0  0
  189.5300  176.4090  137.0280 C   0  0  0  0  0  0  0  0  0  0  0  0
  191.6980  175.9880  135.9440 N   0  0  0  0  0  0  0  0  0  0  0  0
  191.6290  177.5830  140.6460 C   0  0  0  0  0  2  0  0  0  0  0  0
  193.8480  176.4110  139.5010 O   0  0  0  0  0  1  0  0  0  0  0  0
  193.6020  174.0950  134.3550 C   0  0  0  0  0  1  0  0  0  0  0  0
  191.7010  176.5330  138.3050 C   0  0  0  0  0  0  0  0  0  0  0  0
  193.0470  175.8540  135.9820 C   0  0  0  0  0  0  0  0  0  0  0  0
  189.8270  177.9870  146.3260 N   0  0  0  0  0  2  0  0  0  0  0  0
  188.6520  177.1620  146.5540 C   0  0  2  0  0  3  0  0  0  0  0  0
  187.5220  178.0310  147.0680 C   0  0  0  0  0  1  0  0  0  0  0  0
  188.9460  176.1780  147.4980 O   0  0  0  0  0  1  0  0  0  0  0  0
  1 10  1  6  0  0  0
  1 16  1  0  0  0  0
  1 20  1  0  0  0  0
  2 24  1  1  0  0  0
  3 11  1  0  0  0  0
  4 21  1  0  0  0  0
  4  3  2  0  0  0  0
  5 25  1  0  0  0  0
  6  5  2  0  0  0  0
  7 24  1  6  0  0  0
  7 19  1  0  0  0  0
  9 26  1  1  0  0  0
  9 15  1  0  0  0  0
  9 28  1  0  0  0  0
 11 13  2  0  0  0  0
 12  2  1  0  0  0  0
 12  8  1  1  0  0  0
 13 12  1  0  0  0  0
 14 27  2  0  0  0  0
 15 18  2  0  0  0  0
 16 19  1  6  0  0  0
 16 20  1  0  0  0  0
 17  8  1  6  0  0  0
 17  7  1  0  0  0  0
 17 10  1  0  0  0  0
 18  6  1  0  0  0  0
 20 29  1  1  0  0  0
 21 22  2  0  0  0  0
 22 14  1  0  0  0  0
 22 13  1  0  0  0  0
 23 28  2  0  0  0  0
 23 14  1  0  0  0  0
 27  5  1  0  0  0  0
 27  2  1  0  0  0  0
 28  6  1  0  0  0  0
 29 30  1  0  0  0  0
 30 31  1  1  0  0  0
 30 32  1  0  0  0  0
M  END
>  <MODEL>
7

>  <REMARK>
 VINA RESULT:      -8.6      2.623      9.464
  Name = 
  2 active torsions:
  status: ('A' for Active; 'I' for Inactive)
    1  A    between atoms: C_1  and  N_10
    2  A    between atoms: N_10  and  C_24
                            x       y       z     vdW  Elec       q    Type
                         _______ _______ _______ _____ _____    ______ ____

>  <TORSDO>
F 2

$$$$
=
 OpenBabel10272413213D

 32 38  0  0  1  0  0  0  0  0999 V2000
  188.3070  176.9010  146.2600 C   0  0  1  0  0  3  0  0  0  0  0  0
  187.3500  178.0500  141.5180 C   0  0  2  0  0  3  0  0  0  0  0  0
  182.4710  178.7050  141.6790 C   0  0  0  0  0  3  0  0  0  0  0  0
  182.3960  178.5230  140.2970 C   0  0  0  0  0  3  0  0  0  0  0  0
  188.4650  177.9860  139.1930 C   0  0  0  0  0  0  0  0  0  0  0  0
  188.3190  178.0650  137.8110 C   0  0  0  0  0  0  0  0  0  0  0  0
  188.6310  178.2590  143.7000 C   0  0  1  0  0  3  0  0  0  0  0  0
  186.2590  178.6880  143.7280 C   0  0  0  0  0  2  0  0  0  0  0  0
  187.2020  178.2940  135.7660 C   0  0  1  0  0  3  0  0  0  0  0  0
  187.3520  177.9120  145.6280 C   0  0  0  0  0  2  0  0  0  0  0  0
  183.7150  178.7900  142.3060 C   0  0  0  0  0  3  0  0  0  0  0  0
  186.2490  178.8750  142.1980 C   0  0  2  0  0  3  0  0  0  0  0  0
  184.8980  178.6730  141.5590 C   0  0  0  0  0  0  0  0  0  0  0  0
  186.0620  178.3910  139.3600 C   0  0  0  0  0  0  0  0  0  0  0  0
  188.7070  178.0400  135.5260 C   0  0  0  0  0  3  0  0  0  0  0  0
  189.5830  176.5980  145.4650 C   0  0  1  0  0  3  0  0  0  0  0  0
  187.3250  177.7860  144.1800 N   0  0  2  0  0  0  0  0  0  0  0  0
  189.3320  177.8960  136.8430 N   0  0  0  0  0  0  0  0  0  0  0  0
  189.7250  177.2640  144.0850 C   0  0  0  0  0  2  0  0  0  0  0  0
  189.6090  177.6170  146.5840 C   0  0  2  0  0  3  0  0  0  0  0  0
  183.5670  178.4270  139.5410 C   0  0  0  0  0  3  0  0  0  0  0  0
  184.8220  178.5070  140.1620 C   0  0  0  0  0  0  0  0  0  0  0  0
  185.9870  178.4390  137.9960 N   0  0  0  0  0  0  0  0  0  0  0  0
  188.6720  178.4430  142.1730 C   0  0  0  0  0  2  0  0  0  0  0  0
  189.7110  177.6840  139.7320 O   0  0  0  0  0  1  0  0  0  0  0  0
  186.4000  177.1430  135.1880 C   0  0  0  0  0  1  0  0  0  0  0  0
  187.3200  178.1980  140.0050 C   0  0  0  0  0  0  0  0  0  0  0  0
  187.1070  178.2900  137.2460 C   0  0  0  0  0  0  0  0  0  0  0  0
  190.2060  177.0180  147.7660 N   0  0  0  0  0  2  0  0  0  0  0  0
  191.6290  176.8760  147.5040 C   0  0  2  0  0  3  0  0  0  0  0  0
  191.9560  175.4130  147.2830 C   0  0  0  0  0  1  0  0  0  0  0  0
  192.3570  177.3520  148.5960 O   0  0  0  0  0  1  0  0  0  0  0  0
  1 10  1  6  0  0  0
  1 20  1  0  0  0  0
  2 24  1  1  0  0  0
  2 12  1  0  0  0  0
  3 11  1  0  0  0  0
  4  3  2  0  0  0  0
  5 25  1  0  0  0  0
  5 27  1  0  0  0  0
  6  5  2  0  0  0  0
  7 24  1  6  0  0  0
  7 19  1  0  0  0  0
  7 17  1  0  0  0  0
  9 26  1  6  0  0  0
  9 28  1  0  0  0  0
 12  8  1  1  0  0  0
 13 12  1  0  0  0  0
 13 11  2  0  0  0  0
 14 27  2  0  0  0  0
 14 22  1  0  0  0  0
 15  9  1  0  0  0  0
 15 18  2  0  0  0  0
 16 19  1  6  0  0  0
 16  1  1  0  0  0  0
 16 20  1  0  0  0  0
 17  8  1  6  0  0  0
 17 10  1  0  0  0  0
 18  6  1  0  0  0  0
 20 29  1  1  0  0  0
 21 22  2  0  0  0  0
 21  4  1  0  0  0  0
 22 13  1  0  0  0  0
 23 14  1  0  0  0  0
 27  2  1  0  0  0  0
 28  6  1  0  0  0  0
 28 23  2  0  0  0  0
 30 31  1  1  0  0  0
 30 29  1  0  0  0  0
 30 32  1  0  0  0  0
M  END
>  <MODEL>
8

>  <REMARK>
 VINA RESULT:      -8.4      3.095      8.204
  Name = 
  2 active torsions:
  status: ('A' for Active; 'I' for Inactive)
    1  A    between atoms: C_1  and  N_10
    2  A    between atoms: N_10  and  C_24
                            x       y       z     vdW  Elec       q    Type
                         _______ _______ _______ _____ _____    ______ ____

>  <TORSDO>
F 2

$$$$
=
 OpenBabel10272413213D

 32 38  0  0  1  0  0  0  0  0999 V2000
  186.9730  177.2400  144.4910 C   0  0  1  0  0  3  0  0  0  0  0  0
  189.3000  177.2520  140.0970 C   0  0  2  0  0  3  0  0  0  0  0  0
  185.4950  177.8330  137.0240 C   0  0  0  0  0  3  0  0  0  0  0  0
  186.2650  177.3370  135.9700 C   0  0  0  0  0  3  0  0  0  0  0  0
  191.5910  176.6780  139.0600 C   0  0  0  0  0  0  0  0  0  0  0  0
  192.3380  176.4360  137.9110 C   0  0  0  0  0  0  0  0  0  0  0  0
  188.9780  177.9810  142.5080 C   0  0  1  0  0  3  0  0  0  0  0  0
  187.1740  178.3590  140.9560 C   0  0  0  0  0  2  0  0  0  0  0  0
  192.7610  176.1680  135.6230 C   0  0  1  0  0  3  0  0  0  0  0  0
  186.7510  178.0600  143.2220 C   0  0  0  0  0  2  0  0  0  0  0  0
  186.0870  178.0830  138.2630 C   0  0  0  0  0  3  0  0  0  0  0  0
  188.1320  178.1900  139.7600 C   0  0  2  0  0  3  0  0  0  0  0  0
  187.4510  177.8210  138.4670 C   0  0  0  0  0  0  0  0  0  0  0  0
  189.6730  177.0640  137.5960 C   0  0  0  0  0  0  0  0  0  0  0  0
  194.0450  175.8950  136.4380 C   0  0  0  0  0  3  0  0  0  0  0  0
  188.4150  176.7880  144.7540 C   0  0  1  0  0  3  0  0  0  0  0  0
  187.6060  177.6050  142.1380 N   0  0  2  0  0  0  0  0  0  0  0  0
  193.7010  176.0690  137.8510 N   0  0  0  0  0  0  0  0  0  0  0  0
  189.4620  177.1220  143.6760 C   0  0  0  0  0  2  0  0  0  0  0  0
  187.8770  178.0370  145.4190 C   0  0  2  0  0  3  0  0  0  0  0  0
  187.6280  177.0930  136.1560 C   0  0  0  0  0  3  0  0  0  0  0  0
  188.2310  177.3370  137.3980 C   0  0  0  0  0  0  0  0  0  0  0  0
  190.4620  176.7970  136.5120 N   0  0  0  0  0  0  0  0  0  0  0  0
  189.9750  177.8100  141.3490 C   0  0  0  0  0  2  0  0  0  0  0  0
  192.1870  176.5330  140.3070 O   0  0  0  0  0  1  0  0  0  0  0  0
  192.3440  174.9000  134.9020 C   0  0  0  0  0  1  0  0  0  0  0  0
  190.2280  177.0490  138.9100 C   0  0  0  0  0  0  0  0  0  0  0  0
  191.7740  176.5020  136.6790 C   0  0  0  0  0  0  0  0  0  0  0  0
  187.5360  177.7350  146.7990 N   0  0  0  0  0  2  0  0  0  0  0  0
  188.6650  178.1410  147.6210 C   0  0  2  0  0  3  0  0  0  0  0  0
  189.7340  177.0680  147.5700 C   0  0  0  0  0  1  0  0  0  0  0  0
  188.2460  178.3140  148.9410 O   0  0  0  0  0  1  0  0  0  0  0  0
  1 10  1  6  0  0  0
  1 16  1  0  0  0  0
  1 20  1  0  0  0  0
  2 24  1  1  0  0  0
  3 11  1  0  0  0  0
  4 21  1  0  0  0  0
  4  3  2  0  0  0  0
  5 25  1  0  0  0  0
  6  5  2  0  0  0  0
  7 24  1  6  0  0  0
  7 19  1  0  0  0  0
  9 26  1  1  0  0  0
  9 15  1  0  0  0  0
  9 28  1  0  0  0  0
 11 13  2  0  0  0  0
 12  2  1  0  0  0  0
 12  8  1  1  0  0  0
 13 12  1  0  0  0  0
 14 27  2  0  0  0  0
 15 18  2  0  0  0  0
 16 19  1  6  0  0  0
 16 20  1  0  0  0  0
 17  8  1  6  0  0  0
 17  7  1  0  0  0  0
 17 10  1  0  0  0  0
 18  6  1  0  0  0  0
 20 29  1  1  0  0  0
 21 22  2  0  0  0  0
 22 14  1  0  0  0  0
 22 13  1  0  0  0  0
 23 28  2  0  0  0  0
 23 14  1  0  0  0  0
 27  5  1  0  0  0  0
 27  2  1  0  0  0  0
 28  6  1  0  0  0  0
 29 30  1  0  0  0  0
 30 31  1  1  0  0  0
 30 32  1  0  0  0  0
M  END
>  <MODEL>
9

>  <REMARK>
 VINA RESULT:      -8.3      2.458      9.184
  Name = 
  2 active torsions:
  status: ('A' for Active; 'I' for Inactive)
    1  A    between atoms: C_1  and  N_10
    2  A    between atoms: N_10  and  C_24
                            x       y       z     vdW  Elec       q    Type
                         _______ _______ _______ _____ _____    ______ ____

>  <TORSDO>
F 2

$$$$
