=
 OpenBabel10272415123D

 34 39  0  0  1  0  0  0  0  0999 V2000
  184.5130  178.8610  139.9150 C   0  0  2  0  0  3  0  0  0  0  0  0
  186.2490  178.0440  136.8270 C   0  0  0  0  0  3  0  0  0  0  0  0
  184.1040  177.0860  137.6380 C   0  0  0  0  0  2  0  0  0  0  0  0
  182.4460  180.1190  139.2200 C   0  0  0  0  0  3  0  0  0  0  0  0
  181.1940  179.4880  137.2450 C   0  0  0  0  0  3  0  0  0  0  0  0
  181.3700  180.3240  138.3520 C   0  0  0  0  0  3  0  0  0  0  0  0
  183.1780  178.2430  137.8630 C   0  0  0  0  0  0  0  0  0  0  0  0
  183.3500  179.0790  138.9810 C   0  0  0  0  0  0  0  0  0  0  0  0
  182.0940  178.4450  137.0050 C   0  0  0  0  0  3  0  0  0  0  0  0
  187.5680  178.2290  136.7920 C   0  0  0  0  0  3  0  0  0  0  0  0
  188.5050  177.9110  137.8910 C   0  0  0  0  0  0  0  0  0  0  0  0
  188.2110  178.0500  139.1970 C   0  0  0  0  0  3  0  0  0  0  0  0
  185.5610  177.4120  137.9900 C   0  0  2  0  0  3  0  0  0  0  0  0
  186.9180  178.4670  139.7770 C   0  0  0  0  0  3  0  0  0  0  0  0
  185.7160  178.2480  139.2400 C   0  0  0  0  0  0  0  0  0  0  0  0
  189.9010  177.5430  137.4890 C   0  0  1  0  0  3  0  0  0  0  0  0
  190.6520  177.0290  138.6230 N   0  0  0  0  0  1  0  0  0  0  0  0
  189.8990  176.5280  136.3620 C   0  0  0  0  0  1  0  0  0  0  0  0
  184.1700  178.2500  141.1440 O   0  0  0  0  0  0  0  0  0  0  0  0
  184.5020  179.1150  142.2030 C   0  0  0  0  0  2  0  0  0  0  0  0
  184.3780  178.3930  143.5340 C   0  0  0  0  0  2  0  0  0  0  0  0
  188.0170  177.3380  143.6610 C   0  0  0  0  0  3  0  0  0  0  0  0
  185.9760  178.0900  145.4330 C   0  0  0  0  0  3  0  0  0  0  0  0
  189.8070  177.1700  146.8990 C   0  0  0  0  0  0  0  0  0  0  0  0
  189.5470  177.1010  145.5230 C   0  0  0  0  0  3  0  0  0  0  0  0
  188.2740  177.4000  145.0320 C   0  0  0  0  0  0  0  0  0  0  0  0
  187.5120  177.8660  147.2940 C   0  0  0  0  0  3  0  0  0  0  0  0
  187.2470  177.7800  145.9250 C   0  0  0  0  0  0  0  0  0  0  0  0
  188.7890  177.5690  147.7780 C   0  0  0  0  0  3  0  0  0  0  0  0
  185.7230  178.0220  144.0590 C   0  0  0  0  0  0  0  0  0  0  0  0
  186.7430  177.6510  143.1750 C   0  0  0  0  0  3  0  0  0  0  0  0
  191.1890  176.9070  147.4170 C   0  0  0  0  0  3  0  0  0  0  0  0
  191.4490  175.4110  147.4980 C   0  0  0  0  0  2  0  0  0  0  0  0
  192.0320  176.2150  146.3590 C   0  0  0  0  0  2  0  0  0  0  0  0
  1 19  1  1  0  0  0
  3  7  1  0  0  0  0
  3 13  1  0  0  0  0
  5  6  1  0  0  0  0
  6  4  2  0  0  0  0
  7  8  2  0  0  0  0
  8  4  1  0  0  0  0
  8  1  1  0  0  0  0
  9  5  2  0  0  0  0
  9  7  1  0  0  0  0
 10  2  2  0  0  0  0
 10 11  1  0  0  0  0
 11 12  2  0  0  0  0
 12 14  1  0  0  0  0
 13  2  1  6  0  0  0
 13 15  1  0  0  0  0
 15 14  2  0  0  0  0
 15  1  1  0  0  0  0
 16 18  1  6  0  0  0
 16 11  1  0  0  0  0
 16 17  1  0  0  0  0
 19 20  1  0  0  0  0
 20 21  1  0  0  0  0
 21 30  1  0  0  0  0
 22 26  1  0  0  0  0
 23 28  1  0  0  0  0
 24 32  1  0  0  0  0
 24 29  1  0  0  0  0
 25 24  2  0  0  0  0
 26 25  1  0  0  0  0
 26 28  2  0  0  0  0
 27 29  2  0  0  0  0
 28 27  1  0  0  0  0
 30 23  2  0  0  0  0
 31 22  2  0  0  0  0
 31 30  1  0  0  0  0
 32 33  1  0  0  0  0
 34 32  1  0  0  0  0
 34 33  1  0  0  0  0
M  END
>  <MODEL>
1

>  <REMARK>
 VINA RESULT:      -9.8      0.000      0.000
  Name = 
  6 active torsions:
  status: ('A' for Active; 'I' for Inactive)
    1  A    between atoms: C_1  and  O_9
    2  A    between atoms: C_3  and  C_25
    3  A    between atoms: C_7  and  C_11
    4  A    between atoms: C_8  and  O_9
    5  A    between atoms: C_8  and  C_18
    6  A    between atoms: C_18  and  C_30
                            x       y       z     vdW  Elec       q    Type
                         _______ _______ _______ _____ _____    ______ ____

>  <TORSDO>
F 6

$$$$
=
 OpenBabel10272415123D

 34 39  0  0  1  0  0  0  0  0999 V2000
  188.3070  177.5450  144.8150 C   0  0  2  0  0  3  0  0  0  0  0  0
  190.7670  177.1930  142.1610 C   0  0  0  0  0  3  0  0  0  0  0  0
  190.9960  178.5200  144.2500 C   0  0  0  0  0  2  0  0  0  0  0  0
  189.2480  176.2910  146.7840 C   0  0  0  0  0  3  0  0  0  0  0  0
  191.6150  176.3470  147.2970 C   0  0  0  0  0  3  0  0  0  0  0  0
  190.3220  175.9000  147.5880 C   0  0  0  0  0  3  0  0  0  0  0  0
  190.7660  177.5700  145.3860 C   0  0  0  0  0  0  0  0  0  0  0  0
  189.4650  177.1270  145.6840 C   0  0  0  0  0  0  0  0  0  0  0  0
  191.8350  177.1870  146.2010 C   0  0  0  0  0  3  0  0  0  0  0  0
  190.3210  176.9070  140.9380 C   0  0  0  0  0  3  0  0  0  0  0  0
  189.1150  177.4900  140.3110 C   0  0  0  0  0  0  0  0  0  0  0  0
  187.9910  177.8000  140.9830 C   0  0  0  0  0  3  0  0  0  0  0  0
  190.1160  178.2150  143.0310 C   0  0  2  0  0  3  0  0  0  0  0  0
  187.7660  177.6900  142.4380 C   0  0  0  0  0  3  0  0  0  0  0  0
  188.7010  177.8150  143.3830 C   0  0  0  0  0  0  0  0  0  0  0  0
  189.1310  177.6010  138.8170 C   0  0  1  0  0  3  0  0  0  0  0  0
  188.9320  178.9780  138.3950 N   0  0  0  0  0  1  0  0  0  0  0  0
  190.4260  177.0620  138.2390 C   0  0  0  0  0  1  0  0  0  0  0  0
  187.4790  178.5420  145.3810 O   0  0  0  0  0  0  0  0  0  0  0  0
  186.2250  177.9840  145.6940 C   0  0  0  0  0  2  0  0  0  0  0  0
  185.1600  179.0660  145.7270 C   0  0  0  0  0  2  0  0  0  0  0  0
  181.9900  178.8750  143.6570 C   0  0  0  0  0  3  0  0  0  0  0  0
  184.7680  178.8300  143.2680 C   0  0  0  0  0  3  0  0  0  0  0  0
  182.1750  178.5890  139.9680 C   0  0  0  0  0  0  0  0  0  0  0  0
  181.6520  178.6920  141.2660 C   0  0  0  0  0  3  0  0  0  0  0  0
  182.5100  178.7660  142.3650 C   0  0  0  0  0  0  0  0  0  0  0  0
  184.4290  178.6610  140.8750 C   0  0  0  0  0  3  0  0  0  0  0  0
  183.9090  178.7450  142.1690 C   0  0  0  0  0  0  0  0  0  0  0  0
  183.5650  178.5900  139.7780 C   0  0  0  0  0  3  0  0  0  0  0  0
  184.2410  178.9350  144.5600 C   0  0  0  0  0  0  0  0  0  0  0  0
  182.8550  178.9620  144.7520 C   0  0  0  0  0  3  0  0  0  0  0  0
  181.2530  178.5710  138.7860 C   0  0  0  0  0  3  0  0  0  0  0  0
  181.3640  179.8730  138.0080 C   0  0  0  0  0  2  0  0  0  0  0  0
  182.0470  178.6290  137.4910 C   0  0  0  0  0  2  0  0  0  0  0  0
  1 19  1  1  0  0  0
  1  8  1  0  0  0  0
  3  7  1  0  0  0  0
  4  6  1  0  0  0  0
  5  6  2  0  0  0  0
  7  8  1  0  0  0  0
  7  9  2  0  0  0  0
  8  4  2  0  0  0  0
  9  5  1  0  0  0  0
 10  2  2  0  0  0  0
 11 10  1  0  0  0  0
 11 12  2  0  0  0  0
 12 14  1  0  0  0  0
 13  2  1  1  0  0  0
 13 15  1  0  0  0  0
 13  3  1  0  0  0  0
 14 15  2  0  0  0  0
 15  1  1  0  0  0  0
 16 18  1  1  0  0  0
 16 11  1  0  0  0  0
 17 16  1  0  0  0  0
 19 20  1  0  0  0  0
 20 21  1  0  0  0  0
 22 31  1  0  0  0  0
 23 30  1  0  0  0  0
 24 25  2  0  0  0  0
 25 26  1  0  0  0  0
 26 22  2  0  0  0  0
 27 28  1  0  0  0  0
 28 26  1  0  0  0  0
 28 23  2  0  0  0  0
 29 24  1  0  0  0  0
 29 27  2  0  0  0  0
 30 31  2  0  0  0  0
 30 21  1  0  0  0  0
 32 24  1  0  0  0  0
 33 32  1  0  0  0  0
 34 33  1  0  0  0  0
 34 32  1  0  0  0  0
M  END
>  <MODEL>
2

>  <REMARK>
 VINA RESULT:      -9.7      1.841      8.248
  Name = 
  6 active torsions:
  status: ('A' for Active; 'I' for Inactive)
    1  A    between atoms: C_1  and  O_9
    2  A    between atoms: C_3  and  C_25
    3  A    between atoms: C_7  and  C_11
    4  A    between atoms: C_8  and  O_9
    5  A    between atoms: C_8  and  C_18
    6  A    between atoms: C_18  and  C_30
                            x       y       z     vdW  Elec       q    Type
                         _______ _______ _______ _____ _____    ______ ____

>  <TORSDO>
F 6

$$$$
=
 OpenBabel10272415123D

 34 39  0  0  1  0  0  0  0  0999 V2000
  184.2580  179.3860  138.9350 C   0  0  2  0  0  3  0  0  0  0  0  0
  184.1000  176.9050  136.2830 C   0  0  0  0  0  3  0  0  0  0  0  0
  182.6050  177.0810  138.2600 C   0  0  0  0  0  2  0  0  0  0  0  0
  182.2320  180.8470  138.6200 C   0  0  0  0  0  3  0  0  0  0  0  0
  180.1010  179.9130  137.9460 C   0  0  0  0  0  3  0  0  0  0  0  0
  180.8830  181.0180  138.2960 C   0  0  0  0  0  3  0  0  0  0  0  0
  182.0180  178.4600  138.2290 C   0  0  0  0  0  0  0  0  0  0  0  0
  182.8020  179.5700  138.5900 C   0  0  0  0  0  0  0  0  0  0  0  0
  180.6670  178.6350  137.9180 C   0  0  0  0  0  3  0  0  0  0  0  0
  185.2250  176.6320  135.6230 C   0  0  0  0  0  3  0  0  0  0  0  0
  186.5650  176.4990  136.2360 C   0  0  0  0  0  0  0  0  0  0  0  0
  186.9920  177.2320  137.2810 C   0  0  0  0  0  3  0  0  0  0  0  0
  184.0570  177.0410  137.7670 C   0  0  2  0  0  3  0  0  0  0  0  0
  186.2150  178.2310  138.0420 C   0  0  0  0  0  3  0  0  0  0  0  0
  184.8940  178.2090  138.2350 C   0  0  0  0  0  0  0  0  0  0  0  0
  187.5250  175.5820  135.5430 C   0  0  1  0  0  3  0  0  0  0  0  0
  188.6990  176.3060  135.0830 N   0  0  0  0  0  1  0  0  0  0  0  0
  187.9410  174.4360  136.4480 C   0  0  0  0  0  1  0  0  0  0  0  0
  184.5460  179.4580  140.3180 O   0  0  0  0  0  0  0  0  0  0  0  0
  183.9830  178.3450  140.9690 C   0  0  0  0  0  2  0  0  0  0  0  0
  183.2710  178.7810  142.2380 C   0  0  0  0  0  2  0  0  0  0  0  0
  184.4890  178.6940  145.8270 C   0  0  0  0  0  3  0  0  0  0  0  0
  185.4500  178.0990  143.2590 C   0  0  0  0  0  3  0  0  0  0  0  0
  187.8950  177.4740  146.6210 C   0  0  0  0  0  0  0  0  0  0  0  0
  186.5980  177.9810  146.7810 C   0  0  0  0  0  3  0  0  0  0  0  0
  185.7840  178.1960  145.6670 C   0  0  0  0  0  0  0  0  0  0  0  0
  187.5540  177.3720  144.2160 C   0  0  0  0  0  3  0  0  0  0  0  0
  186.2680  177.8940  144.3730 C   0  0  0  0  0  0  0  0  0  0  0  0
  188.3620  177.1570  145.3360 C   0  0  0  0  0  3  0  0  0  0  0  0
  184.1550  178.6020  143.4260 C   0  0  0  0  0  0  0  0  0  0  0  0
  183.6750  178.8950  144.7070 C   0  0  0  0  0  3  0  0  0  0  0  0
  188.7440  177.1880  147.8220 C   0  0  0  0  0  3  0  0  0  0  0  0
  189.4880  178.4410  148.2560 C   0  0  0  0  0  2  0  0  0  0  0  0
  188.2640  177.9920  149.0180 C   0  0  0  0  0  2  0  0  0  0  0  0
  1 19  1  1  0  0  0
  5  6  1  0  0  0  0
  6  4  2  0  0  0  0
  7  3  1  0  0  0  0
  7  8  2  0  0  0  0
  8  4  1  0  0  0  0
  8  1  1  0  0  0  0
  9  5  2  0  0  0  0
  9  7  1  0  0  0  0
 10 11  1  0  0  0  0
 10  2  2  0  0  0  0
 11 12  2  0  0  0  0
 12 14  1  0  0  0  0
 13  2  1  6  0  0  0
 13 15  1  0  0  0  0
 13  3  1  0  0  0  0
 14 15  2  0  0  0  0
 15  1  1  0  0  0  0
 16 11  1  0  0  0  0
 16 18  1  1  0  0  0
 17 16  1  0  0  0  0
 19 20  1  0  0  0  0
 20 21  1  0  0  0  0
 21 30  1  0  0  0  0
 23 30  2  0  0  0  0
 23 28  1  0  0  0  0
 24 25  1  0  0  0  0
 24 32  1  0  0  0  0
 26 22  1  0  0  0  0
 26 25  2  0  0  0  0
 27 28  2  0  0  0  0
 27 29  1  0  0  0  0
 28 26  1  0  0  0  0
 29 24  2  0  0  0  0
 30 31  1  0  0  0  0
 31 22  2  0  0  0  0
 32 33  1  0  0  0  0
 32 34  1  0  0  0  0
 33 34  1  0  0  0  0
M  END
>  <MODEL>
3

>  <REMARK>
 VINA RESULT:      -9.7      1.725      2.559
  Name = 
  6 active torsions:
  status: ('A' for Active; 'I' for Inactive)
    1  A    between atoms: C_1  and  O_9
    2  A    between atoms: C_3  and  C_25
    3  A    between atoms: C_7  and  C_11
    4  A    between atoms: C_8  and  O_9
    5  A    between atoms: C_8  and  C_18
    6  A    between atoms: C_18  and  C_30
                            x       y       z     vdW  Elec       q    Type
                         _______ _______ _______ _____ _____    ______ ____

>  <TORSDO>
F 6

$$$$
=
 OpenBabel10272415123D

 34 39  0  0  1  0  0  0  0  0999 V2000
  185.3050  177.9640  138.7410 C   0  0  2  0  0  3  0  0  0  0  0  0
  185.1700  175.3590  136.2090 C   0  0  0  0  0  3  0  0  0  0  0  0
  186.0420  177.6700  135.9350 C   0  0  0  0  0  2  0  0  0  0  0  0
  187.7460  178.2590  139.2820 C   0  0  0  0  0  3  0  0  0  0  0  0
  189.4400  178.1470  137.5540 C   0  0  0  0  0  3  0  0  0  0  0  0
  189.0890  178.3160  138.8960 C   0  0  0  0  0  3  0  0  0  0  0  0
  187.1060  177.8500  136.9760 C   0  0  0  0  0  0  0  0  0  0  0  0
  186.7520  178.0290  138.3250 C   0  0  0  0  0  0  0  0  0  0  0  0
  188.4490  177.9200  136.5930 C   0  0  0  0  0  3  0  0  0  0  0  0
  184.2430  174.4120  136.3450 C   0  0  0  0  0  3  0  0  0  0  0  0
  182.8480  174.6380  136.7820 C   0  0  0  0  0  0  0  0  0  0  0  0
  182.4840  175.5570  137.6950 C   0  0  0  0  0  3  0  0  0  0  0  0
  184.8730  176.8050  136.4230 C   0  0  2  0  0  3  0  0  0  0  0  0
  183.3600  176.5360  138.3690 C   0  0  0  0  0  3  0  0  0  0  0  0
  184.4670  177.0750  137.8540 C   0  0  0  0  0  0  0  0  0  0  0  0
  181.8230  173.6780  136.2590 C   0  0  1  0  0  3  0  0  0  0  0  0
  182.4520  172.4750  135.7400 N   0  0  0  0  0  1  0  0  0  0  0  0
  180.8110  173.3160  137.3310 C   0  0  0  0  0  1  0  0  0  0  0  0
  184.7170  179.2210  139.0170 O   0  0  0  0  0  0  0  0  0  0  0  0
  184.8840  179.5250  140.3800 C   0  0  0  0  0  2  0  0  0  0  0  0
  184.1480  178.5110  141.2400 C   0  0  0  0  0  2  0  0  0  0  0  0
  184.7190  178.4470  144.9870 C   0  0  0  0  0  3  0  0  0  0  0  0
  186.1420  177.9140  142.6280 C   0  0  0  0  0  3  0  0  0  0  0  0
  187.9830  177.3680  146.3670 C   0  0  0  0  0  0  0  0  0  0  0  0
  186.6560  177.8170  146.2970 C   0  0  0  0  0  3  0  0  0  0  0  0
  186.0430  178.0060  145.0570 C   0  0  0  0  0  0  0  0  0  0  0  0
  188.0740  177.2710  143.9400 C   0  0  0  0  0  3  0  0  0  0  0  0
  186.7590  177.7360  143.8690 C   0  0  0  0  0  0  0  0  0  0  0  0
  188.6810  177.0810  145.1850 C   0  0  0  0  0  3  0  0  0  0  0  0
  184.8170  178.3600  142.5640 C   0  0  0  0  0  0  0  0  0  0  0  0
  184.1070  178.6220  143.7420 C   0  0  0  0  0  3  0  0  0  0  0  0
  188.6190  177.1080  147.7000 C   0  0  0  0  0  3  0  0  0  0  0  0
  189.3300  178.3560  148.2000 C   0  0  0  0  0  2  0  0  0  0  0  0
  187.9840  177.9780  148.7720 C   0  0  0  0  0  2  0  0  0  0  0  0
  1 19  1  6  0  0  0
  2 10  2  0  0  0  0
  2 13  1  0  0  0  0
  3  7  1  0  0  0  0
  5  6  2  0  0  0  0
  6  4  1  0  0  0  0
  7  8  1  0  0  0  0
  8  1  1  0  0  0  0
  8  4  2  0  0  0  0
  9  7  2  0  0  0  0
  9  5  1  0  0  0  0
 10 11  1  0  0  0  0
 11 12  2  0  0  0  0
 12 14  1  0  0  0  0
 13  3  1  1  0  0  0
 13 15  1  0  0  0  0
 15 14  2  0  0  0  0
 15  1  1  0  0  0  0
 16 11  1  0  0  0  0
 16 18  1  1  0  0  0
 17 16  1  0  0  0  0
 19 20  1  0  0  0  0
 20 21  1  0  0  0  0
 21 30  1  0  0  0  0
 22 26  1  0  0  0  0
 23 28  1  0  0  0  0
 24 32  1  0  0  0  0
 25 24  1  0  0  0  0
 26 25  2  0  0  0  0
 27 29  1  0  0  0  0
 28 27  2  0  0  0  0
 28 26  1  0  0  0  0
 29 24  2  0  0  0  0
 30 23  2  0  0  0  0
 30 31  1  0  0  0  0
 31 22  2  0  0  0  0
 32 33  1  0  0  0  0
 32 34  1  0  0  0  0
 33 34  1  0  0  0  0
M  END
>  <MODEL>
4

>  <REMARK>
 VINA RESULT:      -9.5      2.457      4.848
  Name = 
  6 active torsions:
  status: ('A' for Active; 'I' for Inactive)
    1  A    between atoms: C_1  and  O_9
    2  A    between atoms: C_3  and  C_25
    3  A    between atoms: C_7  and  C_11
    4  A    between atoms: C_8  and  O_9
    5  A    between atoms: C_8  and  C_18
    6  A    between atoms: C_18  and  C_30
                            x       y       z     vdW  Elec       q    Type
                         _______ _______ _______ _____ _____    ______ ____

>  <TORSDO>
F 6

$$$$
=
 OpenBabel10272415123D

 34 39  0  0  1  0  0  0  0  0999 V2000
  189.4990  177.0190  138.6730 C   0  0  2  0  0  3  0  0  0  0  0  0
  186.3320  177.8950  137.1190 C   0  0  0  0  0  3  0  0  0  0  0  0
  188.6100  178.3190  136.2200 C   0  0  0  0  0  2  0  0  0  0  0  0
  190.4580  175.1670  137.2640 C   0  0  0  0  0  3  0  0  0  0  0  0
  190.2450  175.1820  134.8510 C   0  0  0  0  0  3  0  0  0  0  0  0
  190.6980  174.5690  136.0230 C   0  0  0  0  0  3  0  0  0  0  0  0
  189.2980  176.9890  136.1570 C   0  0  0  0  0  0  0  0  0  0  0  0
  189.7610  176.3770  137.3350 C   0  0  0  0  0  0  0  0  0  0  0  0
  189.5510  176.3940  134.9180 C   0  0  0  0  0  3  0  0  0  0  0  0
  185.2800  178.0770  137.9170 C   0  0  0  0  0  3  0  0  0  0  0  0
  185.3080  178.7720  139.2220 C   0  0  0  0  0  0  0  0  0  0  0  0
  186.3420  178.7190  140.0830 C   0  0  0  0  0  3  0  0  0  0  0  0
  187.6800  178.4520  137.4330 C   0  0  2  0  0  3  0  0  0  0  0  0
  187.6360  178.0380  139.8770 C   0  0  0  0  0  3  0  0  0  0  0  0
  188.2390  177.8500  138.7010 C   0  0  0  0  0  0  0  0  0  0  0  0
  184.0420  179.4560  139.6380 C   0  0  1  0  0  3  0  0  0  0  0  0
  183.8100  180.6530  138.8460 N   0  0  0  0  0  1  0  0  0  0  0  0
  182.8510  178.5210  139.5300 C   0  0  0  0  0  1  0  0  0  0  0  0
  190.6240  177.6590  139.2470 O   0  0  0  0  0  0  0  0  0  0  0  0
  191.2140  176.8020  140.1930 C   0  0  0  0  0  2  0  0  0  0  0  0
  191.9020  177.6110  141.2800 C   0  0  0  0  0  2  0  0  0  0  0  0
  190.7930  178.2040  144.8560 C   0  0  0  0  0  3  0  0  0  0  0  0
  189.6820  177.3910  142.4120 C   0  0  0  0  0  3  0  0  0  0  0  0
  187.2490  177.7290  145.8230 C   0  0  0  0  0  0  0  0  0  0  0  0
  188.6180  178.0220  145.9050 C   0  0  0  0  0  3  0  0  0  0  0  0
  189.4310  177.9050  144.7770 C   0  0  0  0  0  0  0  0  0  0  0  0
  187.5040  177.2240  143.4590 C   0  0  0  0  0  3  0  0  0  0  0  0
  188.8710  177.4980  143.5450 C   0  0  0  0  0  0  0  0  0  0  0  0
  186.6950  177.3460  144.5920 C   0  0  0  0  0  3  0  0  0  0  0  0
  191.0470  177.6870  142.5000 C   0  0  0  0  0  0  0  0  0  0  0  0
  191.5990  178.0960  143.7190 C   0  0  0  0  0  3  0  0  0  0  0  0
  186.3670  177.9140  147.0210 C   0  0  0  0  0  3  0  0  0  0  0  0
  185.9960  179.3800  147.1840 C   0  0  0  0  0  2  0  0  0  0  0  0
  184.9940  178.4120  146.6000 C   0  0  0  0  0  2  0  0  0  0  0  0
  1 15  1  0  0  0  0
  1 19  1  6  0  0  0
  2 13  1  0  0  0  0
  2 10  2  0  0  0  0
  4  8  1  0  0  0  0
  5  9  2  0  0  0  0
  5  6  1  0  0  0  0
  6  4  2  0  0  0  0
  7  3  1  0  0  0  0
  7  8  2  0  0  0  0
  8  1  1  0  0  0  0
  9  7  1  0  0  0  0
 10 11  1  0  0  0  0
 11 16  1  0  0  0  0
 11 12  2  0  0  0  0
 13  3  1  6  0  0  0
 13 15  1  0  0  0  0
 14 12  1  0  0  0  0
 15 14  2  0  0  0  0
 16 18  1  6  0  0  0
 17 16  1  0  0  0  0
 19 20  1  0  0  0  0
 20 21  1  0  0  0  0
 21 30  1  0  0  0  0
 23 30  2  0  0  0  0
 23 28  1  0  0  0  0
 24 25  1  0  0  0  0
 24 32  1  0  0  0  0
 26 22  1  0  0  0  0
 26 25  2  0  0  0  0
 27 28  2  0  0  0  0
 27 29  1  0  0  0  0
 28 26  1  0  0  0  0
 29 24  2  0  0  0  0
 30 31  1  0  0  0  0
 31 22  2  0  0  0  0
 32 33  1  0  0  0  0
 34 32  1  0  0  0  0
 34 33  1  0  0  0  0
M  END
>  <MODEL>
5

>  <REMARK>
 VINA RESULT:      -9.3      2.451      5.850
  Name = 
  6 active torsions:
  status: ('A' for Active; 'I' for Inactive)
    1  A    between atoms: C_1  and  O_9
    2  A    between atoms: C_3  and  C_25
    3  A    between atoms: C_7  and  C_11
    4  A    between atoms: C_8  and  O_9
    5  A    between atoms: C_8  and  C_18
    6  A    between atoms: C_18  and  C_30
                            x       y       z     vdW  Elec       q    Type
                         _______ _______ _______ _____ _____    ______ ____

>  <TORSDO>
F 6

$$$$
=
 OpenBabel10272415123D

 34 39  0  0  1  0  0  0  0  0999 V2000
  180.8850  178.2950  140.1270 C   0  0  2  0  0  3  0  0  0  0  0  0
  181.0810  179.6700  136.7680 C   0  0  0  0  0  3  0  0  0  0  0  0
  182.5880  177.9740  137.7820 C   0  0  0  0  0  2  0  0  0  0  0  0
  180.1540  175.9030  139.8400 C   0  0  0  0  0  3  0  0  0  0  0  0
  180.9790  174.5460  138.0110 C   0  0  0  0  0  3  0  0  0  0  0  0
  180.1820  174.6870  139.1520 C   0  0  0  0  0  3  0  0  0  0  0  0
  181.7140  176.8430  138.2350 C   0  0  0  0  0  0  0  0  0  0  0  0
  180.9200  176.9820  139.3870 C   0  0  0  0  0  0  0  0  0  0  0  0
  181.7490  175.6220  137.5570 C   0  0  0  0  0  3  0  0  0  0  0  0
  180.5690  180.8840  136.5650 C   0  0  0  0  0  3  0  0  0  0  0  0
  180.6960  182.0300  137.4900 C   0  0  0  0  0  0  0  0  0  0  0  0
  180.7020  181.9190  138.8320 C   0  0  0  0  0  3  0  0  0  0  0  0
  181.9240  179.3460  137.9550 C   0  0  2  0  0  3  0  0  0  0  0  0
  180.6540  180.6720  139.6210 C   0  0  0  0  0  3  0  0  0  0  0  0
  181.1400  179.4890  139.2390 C   0  0  0  0  0  0  0  0  0  0  0  0
  180.6790  183.3930  136.8680 C   0  0  1  0  0  3  0  0  0  0  0  0
  181.8430  184.1650  137.2700 N   0  0  0  0  0  1  0  0  0  0  0  0
  180.6110  183.3040  135.3540 C   0  0  0  0  0  1  0  0  0  0  0  0
  181.6250  178.3070  141.3330 O   0  0  0  0  0  0  0  0  0  0  0  0
  182.8950  177.7460  141.1070 C   0  0  0  0  0  2  0  0  0  0  0  0
  183.9720  178.8100  141.2390 C   0  0  0  0  0  2  0  0  0  0  0  0
  184.8200  178.8600  144.9330 C   0  0  0  0  0  3  0  0  0  0  0  0
  185.9860  178.0520  142.5130 C   0  0  0  0  0  3  0  0  0  0  0  0
  188.0370  177.4750  146.1360 C   0  0  0  0  0  0  0  0  0  0  0  0
  186.7680  178.0720  146.1350 C   0  0  0  0  0  3  0  0  0  0  0  0
  186.0860  178.2720  144.9340 C   0  0  0  0  0  0  0  0  0  0  0  0
  187.9300  177.2510  143.7180 C   0  0  0  0  0  3  0  0  0  0  0  0
  186.6730  177.8630  143.7150 C   0  0  0  0  0  0  0  0  0  0  0  0
  188.6060  177.0520  144.9250 C   0  0  0  0  0  3  0  0  0  0  0  0
  184.7190  178.6460  142.5180 C   0  0  0  0  0  0  0  0  0  0  0  0
  184.1360  179.0450  143.7260 C   0  0  0  0  0  3  0  0  0  0  0  0
  188.7410  177.2070  147.4330 C   0  0  0  0  0  3  0  0  0  0  0  0
  188.9060  178.4960  148.2220 C   0  0  0  0  0  2  0  0  0  0  0  0
  187.8270  177.5110  148.6080 C   0  0  0  0  0  2  0  0  0  0  0  0
  1 19  1  1  0  0  0
  3 13  1  0  0  0  0
  3  7  1  0  0  0  0
  5  6  1  0  0  0  0
  6  4  2  0  0  0  0
  7  8  2  0  0  0  0
  8  4  1  0  0  0  0
  8  1  1  0  0  0  0
  9  5  2  0  0  0  0
  9  7  1  0  0  0  0
 10  2  2  0  0  0  0
 10 11  1  0  0  0  0
 11 12  2  0  0  0  0
 12 14  1  0  0  0  0
 13  2  1  6  0  0  0
 13 15  1  0  0  0  0
 15 14  2  0  0  0  0
 15  1  1  0  0  0  0
 16 18  1  6  0  0  0
 16 17  1  0  0  0  0
 16 11  1  0  0  0  0
 20 21  1  0  0  0  0
 20 19  1  0  0  0  0
 21 30  1  0  0  0  0
 22 26  1  0  0  0  0
 23 30  2  0  0  0  0
 23 28  1  0  0  0  0
 24 32  1  0  0  0  0
 25 24  1  0  0  0  0
 26 25  2  0  0  0  0
 27 29  1  0  0  0  0
 28 27  2  0  0  0  0
 28 26  1  0  0  0  0
 29 24  2  0  0  0  0
 30 31  1  0  0  0  0
 31 22  2  0  0  0  0
 32 33  1  0  0  0  0
 32 34  1  0  0  0  0
 33 34  1  0  0  0  0
M  END
>  <MODEL>
6

>  <REMARK>
 VINA RESULT:      -9.2      3.400      5.340
  Name = 
  6 active torsions:
  status: ('A' for Active; 'I' for Inactive)
    1  A    between atoms: C_1  and  O_9
    2  A    between atoms: C_3  and  C_25
    3  A    between atoms: C_7  and  C_11
    4  A    between atoms: C_8  and  O_9
    5  A    between atoms: C_8  and  C_18
    6  A    between atoms: C_18  and  C_30
                            x       y       z     vdW  Elec       q    Type
                         _______ _______ _______ _____ _____    ______ ____

>  <TORSDO>
F 6

$$$$
=
 OpenBabel10272415123D

 34 39  0  0  1  0  0  0  0  0999 V2000
  188.4890  178.1020  141.9290 C   0  0  2  0  0  3  0  0  0  0  0  0
  186.0330  178.3370  144.6000 C   0  0  0  0  0  3  0  0  0  0  0  0
  187.7160  176.5380  144.2650 C   0  0  0  0  0  2  0  0  0  0  0  0
  190.7200  178.5060  143.0210 C   0  0  0  0  0  3  0  0  0  0  0  0
  191.2220  177.6260  145.2220 C   0  0  0  0  0  3  0  0  0  0  0  0
  191.6070  178.3540  144.0910 C   0  0  0  0  0  3  0  0  0  0  0  0
  189.0550  177.2100  144.2220 C   0  0  0  0  0  0  0  0  0  0  0  0
  189.4450  177.9340  143.0810 C   0  0  0  0  0  0  0  0  0  0  0  0
  189.9490  177.0500  145.2840 C   0  0  0  0  0  3  0  0  0  0  0  0
  184.9200  179.0290  144.3580 C   0  0  0  0  0  3  0  0  0  0  0  0
  184.1550  179.0010  143.0920 C   0  0  0  0  0  0  0  0  0  0  0  0
  184.7160  178.8860  141.8740 C   0  0  0  0  0  3  0  0  0  0  0  0
  186.6080  177.3760  143.6140 C   0  0  2  0  0  3  0  0  0  0  0  0
  186.1500  178.7020  141.5690 C   0  0  0  0  0  3  0  0  0  0  0  0
  187.0390  178.0810  142.3480 C   0  0  0  0  0  0  0  0  0  0  0  0
  182.6820  179.2530  143.2000 C   0  0  1  0  0  3  0  0  0  0  0  0
  181.9850  178.7880  142.0120 N   0  0  0  0  0  1  0  0  0  0  0  0
  182.1010  178.5940  144.4370 C   0  0  0  0  0  1  0  0  0  0  0  0
  188.7750  177.2900  140.8060 O   0  0  0  0  0  0  0  0  0  0  0  0
  189.1350  178.1080  139.7200 C   0  0  0  0  0  2  0  0  0  0  0  0
  188.7470  177.4450  138.4090 C   0  0  0  0  0  2  0  0  0  0  0  0
  190.2880  174.2920  136.9770 C   0  0  0  0  0  3  0  0  0  0  0  0
  191.1110  176.6410  138.2710 C   0  0  0  0  0  3  0  0  0  0  0  0
  193.9570  173.7920  137.0660 C   0  0  0  0  0  0  0  0  0  0  0  0
  192.5940  173.5690  136.8220 C   0  0  0  0  0  3  0  0  0  0  0  0
  191.6450  174.5100  137.2260 C   0  0  0  0  0  0  0  0  0  0  0  0
  193.4190  175.9240  138.1020 C   0  0  0  0  0  3  0  0  0  0  0  0
  192.0600  175.6940  137.8760 C   0  0  0  0  0  0  0  0  0  0  0  0
  194.3650  174.9790  137.6920 C   0  0  0  0  0  3  0  0  0  0  0  0
  189.7530  176.4150  138.0230 C   0  0  0  0  0  0  0  0  0  0  0  0
  189.3440  175.2440  137.3730 C   0  0  0  0  0  3  0  0  0  0  0  0
  194.9790  172.8090  136.5770 C   0  0  0  0  0  3  0  0  0  0  0  0
  195.3570  171.8420  137.6880 C   0  0  0  0  0  2  0  0  0  0  0  0
  194.4130  171.3990  136.5960 C   0  0  0  0  0  2  0  0  0  0  0  0
  1 19  1  6  0  0  0
  1 15  1  0  0  0  0
  1  8  1  0  0  0  0
  4  8  2  0  0  0  0
  4  6  1  0  0  0  0
  5  9  1  0  0  0  0
  6  5  2  0  0  0  0
  7  3  1  0  0  0  0
  7  9  2  0  0  0  0
  8  7  1  0  0  0  0
 10  2  2  0  0  0  0
 11 16  1  0  0  0  0
 11 10  1  0  0  0  0
 12 11  2  0  0  0  0
 13  3  1  1  0  0  0
 13  2  1  0  0  0  0
 14 12  1  0  0  0  0
 14 15  2  0  0  0  0
 15 13  1  0  0  0  0
 16 18  1  1  0  0  0
 17 16  1  0  0  0  0
 20 19  1  0  0  0  0
 21 20  1  0  0  0  0
 22 26  2  0  0  0  0
 22 31  1  0  0  0  0
 24 29  1  0  0  0  0
 25 24  2  0  0  0  0
 25 26  1  0  0  0  0
 26 28  1  0  0  0  0
 28 27  1  0  0  0  0
 28 23  2  0  0  0  0
 29 27  2  0  0  0  0
 30 23  1  0  0  0  0
 30 21  1  0  0  0  0
 31 30  2  0  0  0  0
 32 34  1  0  0  0  0
 32 24  1  0  0  0  0
 32 33  1  0  0  0  0
 34 33  1  0  0  0  0
M  END
>  <MODEL>
7

>  <REMARK>
 VINA RESULT:      -9.2      3.466      8.874
  Name = 
  6 active torsions:
  status: ('A' for Active; 'I' for Inactive)
    1  A    between atoms: C_1  and  O_9
    2  A    between atoms: C_3  and  C_25
    3  A    between atoms: C_7  and  C_11
    4  A    between atoms: C_8  and  O_9
    5  A    between atoms: C_8  and  C_18
    6  A    between atoms: C_18  and  C_30
                            x       y       z     vdW  Elec       q    Type
                         _______ _______ _______ _____ _____    ______ ____

>  <TORSDO>
F 6

$$$$
=
 OpenBabel10272415123D

 34 39  0  0  1  0  0  0  0  0999 V2000
  188.6220  178.2430  141.8170 C   0  0  2  0  0  3  0  0  0  0  0  0
  186.0450  178.2470  144.3820 C   0  0  0  0  0  3  0  0  0  0  0  0
  187.7900  176.5160  144.0130 C   0  0  0  0  0  2  0  0  0  0  0  0
  190.7910  178.6320  143.0340 C   0  0  0  0  0  3  0  0  0  0  0  0
  191.2180  177.6270  145.1960 C   0  0  0  0  0  3  0  0  0  0  0  0
  191.6330  178.4340  144.1320 C   0  0  0  0  0  3  0  0  0  0  0  0
  189.1110  177.2210  144.0740 C   0  0  0  0  0  0  0  0  0  0  0  0
  189.5310  178.0260  143.0000 C   0  0  0  0  0  0  0  0  0  0  0  0
  189.9610  177.0170  145.1640 C   0  0  0  0  0  3  0  0  0  0  0  0
  184.9250  178.9250  144.1320 C   0  0  0  0  0  3  0  0  0  0  0  0
  184.2180  178.9580  142.8340 C   0  0  0  0  0  0  0  0  0  0  0  0
  184.8360  178.9350  141.6380 C   0  0  0  0  0  3  0  0  0  0  0  0
  186.6890  177.3650  143.3650 C   0  0  2  0  0  3  0  0  0  0  0  0
  186.2850  178.8070  141.3890 C   0  0  0  0  0  3  0  0  0  0  0  0
  187.1560  178.1600  142.1670 C   0  0  0  0  0  0  0  0  0  0  0  0
  182.7350  179.1670  142.8890 C   0  0  1  0  0  3  0  0  0  0  0  0
  182.0630  178.4180  141.8400 N   0  0  0  0  0  1  0  0  0  0  0  0
  182.1760  178.7800  144.2460 C   0  0  0  0  0  1  0  0  0  0  0  0
  188.9800  177.5120  140.6600 O   0  0  0  0  0  0  0  0  0  0  0  0
  189.2330  178.4060  139.6040 C   0  0  0  0  0  2  0  0  0  0  0  0
  189.2810  177.6590  138.2810 C   0  0  0  0  0  2  0  0  0  0  0  0
  186.4540  175.5060  136.9610 C   0  0  0  0  0  3  0  0  0  0  0  0
  186.8130  178.0340  138.1250 C   0  0  0  0  0  3  0  0  0  0  0  0
  182.9540  176.7090  137.1130 C   0  0  0  0  0  0  0  0  0  0  0  0
  184.0650  175.8890  136.8690 C   0  0  0  0  0  3  0  0  0  0  0  0
  185.3490  176.3270  137.1970 C   0  0  0  0  0  0  0  0  0  0  0  0
  184.4210  178.4090  138.0450 C   0  0  0  0  0  3  0  0  0  0  0  0
  185.5290  177.5990  137.7860 C   0  0  0  0  0  0  0  0  0  0  0  0
  183.1380  177.9630  137.7160 C   0  0  0  0  0  3  0  0  0  0  0  0
  187.9170  177.2090  137.8810 C   0  0  0  0  0  0  0  0  0  0  0  0
  187.7370  175.9470  137.3050 C   0  0  0  0  0  3  0  0  0  0  0  0
  181.5720  176.2120  136.8150 C   0  0  0  0  0  3  0  0  0  0  0  0
  181.1020  175.2670  137.9090 C   0  0  0  0  0  2  0  0  0  0  0  0
  180.5940  176.6890  137.8760 C   0  0  0  0  0  2  0  0  0  0  0  0
  1 19  1  6  0  0  0
  1 15  1  0  0  0  0
  1  8  1  0  0  0  0
  3  7  1  0  0  0  0
  4  6  1  0  0  0  0
  6  5  2  0  0  0  0
  7  9  2  0  0  0  0
  8  4  2  0  0  0  0
  8  7  1  0  0  0  0
  9  5  1  0  0  0  0
 10  2  2  0  0  0  0
 11 16  1  0  0  0  0
 11 10  1  0  0  0  0
 12 11  2  0  0  0  0
 13  3  1  1  0  0  0
 13  2  1  0  0  0  0
 14 12  1  0  0  0  0
 14 15  2  0  0  0  0
 15 13  1  0  0  0  0
 16 18  1  1  0  0  0
 17 16  1  0  0  0  0
 20 19  1  0  0  0  0
 21 20  1  0  0  0  0
 22 26  2  0  0  0  0
 22 31  1  0  0  0  0
 24 29  1  0  0  0  0
 25 24  2  0  0  0  0
 25 26  1  0  0  0  0
 26 28  1  0  0  0  0
 28 27  1  0  0  0  0
 28 23  2  0  0  0  0
 29 27  2  0  0  0  0
 30 23  1  0  0  0  0
 30 21  1  0  0  0  0
 31 30  2  0  0  0  0
 32 24  1  0  0  0  0
 32 34  1  0  0  0  0
 32 33  1  0  0  0  0
 34 33  1  0  0  0  0
M  END
>  <MODEL>
8

>  <REMARK>
 VINA RESULT:      -9.2      2.495      9.028
  Name = 
  6 active torsions:
  status: ('A' for Active; 'I' for Inactive)
    1  A    between atoms: C_1  and  O_9
    2  A    between atoms: C_3  and  C_25
    3  A    between atoms: C_7  and  C_11
    4  A    between atoms: C_8  and  O_9
    5  A    between atoms: C_8  and  C_18
    6  A    between atoms: C_18  and  C_30
                            x       y       z     vdW  Elec       q    Type
                         _______ _______ _______ _____ _____    ______ ____

>  <TORSDO>
F 6

$$$$
=
 OpenBabel10272415123D

 34 39  0  0  1  0  0  0  0  0999 V2000
  186.9910  177.8340  138.8690 C   0  0  2  0  0  3  0  0  0  0  0  0
  183.4850  177.7300  139.8260 C   0  0  0  0  0  3  0  0  0  0  0  0
  184.4180  178.4070  137.6230 C   0  0  0  0  0  2  0  0  0  0  0  0
  187.3000  175.9630  137.2150 C   0  0  0  0  0  3  0  0  0  0  0  0
  185.6000  175.4450  135.5690 C   0  0  0  0  0  3  0  0  0  0  0  0
  186.8470  175.1850  136.1450 C   0  0  0  0  0  3  0  0  0  0  0  0
  185.2460  177.2550  137.1390 C   0  0  0  0  0  0  0  0  0  0  0  0
  186.5040  176.9990  137.7130 C   0  0  0  0  0  0  0  0  0  0  0  0
  184.8030  176.4830  136.0620 C   0  0  0  0  0  3  0  0  0  0  0  0
  183.1930  177.8570  141.1190 C   0  0  0  0  0  3  0  0  0  0  0  0
  183.8500  178.7940  142.0550 C   0  0  0  0  0  0  0  0  0  0  0  0
  185.1540  179.1240  142.0010 C   0  0  0  0  0  3  0  0  0  0  0  0
  184.4910  178.5950  139.1440 C   0  0  2  0  0  3  0  0  0  0  0  0
  186.1400  178.6860  140.9930 C   0  0  0  0  0  3  0  0  0  0  0  0
  185.8730  178.3870  139.7200 C   0  0  0  0  0  0  0  0  0  0  0  0
  183.0170  179.2830  143.2010 C   0  0  1  0  0  3  0  0  0  0  0  0
  181.7600  178.5570  143.2800 N   0  0  0  0  0  1  0  0  0  0  0  0
  183.7690  179.1680  144.5150 C   0  0  0  0  0  1  0  0  0  0  0  0
  187.9790  178.7880  138.5290 O   0  0  0  0  0  0  0  0  0  0  0  0
  188.9850  178.7870  139.5130 C   0  0  0  0  0  2  0  0  0  0  0  0
  189.3700  177.3620  139.8720 C   0  0  0  0  0  2  0  0  0  0  0  0
  190.9540  176.9110  143.2860 C   0  0  0  0  0  3  0  0  0  0  0  0
  188.4090  177.3260  142.1810 C   0  0  0  0  0  3  0  0  0  0  0  0
  188.8750  177.0410  146.3490 C   0  0  0  0  0  0  0  0  0  0  0  0
  189.9910  176.9280  145.5080 C   0  0  0  0  0  3  0  0  0  0  0  0
  189.8410  177.0160  144.1230 C   0  0  0  0  0  0  0  0  0  0  0  0
  187.4490  177.3570  144.4050 C   0  0  0  0  0  3  0  0  0  0  0  0
  188.5590  177.2270  143.5670 C   0  0  0  0  0  0  0  0  0  0  0  0
  187.6080  177.2710  145.7910 C   0  0  0  0  0  3  0  0  0  0  0  0
  189.5280  177.2150  141.3480 C   0  0  0  0  0  0  0  0  0  0  0  0
  190.7970  177.0130  141.9000 C   0  0  0  0  0  3  0  0  0  0  0  0
  189.0470  177.0070  147.8380 C   0  0  0  0  0  3  0  0  0  0  0  0
  189.1610  178.4190  148.3900 C   0  0  0  0  0  2  0  0  0  0  0  0
  187.8610  177.6610  148.5260 C   0  0  0  0  0  2  0  0  0  0  0  0
  1 19  1  6  0  0  0
  1 15  1  0  0  0  0
  2 10  2  0  0  0  0
  4  8  1  0  0  0  0
  5  9  2  0  0  0  0
  5  6  1  0  0  0  0
  6  4  2  0  0  0  0
  7  3  1  0  0  0  0
  7  8  2  0  0  0  0
  8  1  1  0  0  0  0
  9  7  1  0  0  0  0
 10 11  1  0  0  0  0
 11 16  1  0  0  0  0
 12 11  2  0  0  0  0
 13  3  1  6  0  0  0
 13 15  1  0  0  0  0
 13  2  1  0  0  0  0
 14 12  1  0  0  0  0
 15 14  2  0  0  0  0
 16 17  1  0  0  0  0
 16 18  1  1  0  0  0
 19 20  1  0  0  0  0
 20 21  1  0  0  0  0
 21 30  1  0  0  0  0
 22 26  1  0  0  0  0
 23 28  1  0  0  0  0
 24 32  1  0  0  0  0
 25 24  2  0  0  0  0
 26 25  1  0  0  0  0
 27 29  2  0  0  0  0
 28 26  2  0  0  0  0
 28 27  1  0  0  0  0
 29 24  1  0  0  0  0
 30 31  1  0  0  0  0
 30 23  2  0  0  0  0
 31 22  2  0  0  0  0
 32 33  1  0  0  0  0
 32 34  1  0  0  0  0
 33 34  1  0  0  0  0
M  END
>  <MODEL>
9

>  <REMARK>
 VINA RESULT:      -9.1      2.593      4.943
  Name = 
  6 active torsions:
  status: ('A' for Active; 'I' for Inactive)
    1  A    between atoms: C_1  and  O_9
    2  A    between atoms: C_3  and  C_25
    3  A    between atoms: C_7  and  C_11
    4  A    between atoms: C_8  and  O_9
    5  A    between atoms: C_8  and  C_18
    6  A    between atoms: C_18  and  C_30
                            x       y       z     vdW  Elec       q    Type
                         _______ _______ _______ _____ _____    ______ ____

>  <TORSDO>
F 6

$$$$
