=
 OpenBabel10272414203D

 43 47  0  0  1  0  0  0  0  0999 V2000
  183.8320  179.2830  139.5420 C   0  0  0  0  0  0  0  0  0  0  0  0
  188.5530  177.7080  138.6040 C   0  0  0  0  0  0  0  0  0  0  0  0
  189.7170  177.3460  141.1080 C   0  0  0  0  0  0  0  0  0  0  0  0
  185.8950  178.6200  138.4590 C   0  0  0  0  0  0  0  0  0  0  0  0
  184.4140  179.0640  140.7930 C   0  0  0  0  0  3  0  0  0  0  0  0
  182.5500  179.7100  139.4570 F   0  0  0  0  0  0  0  0  0  0  0  0
  186.4900  178.3930  139.7230 C   0  0  0  0  0  0  0  0  0  0  0  0
  184.5710  179.0630  138.3760 C   0  0  0  0  0  3  0  0  0  0  0  0
  185.7370  178.6210  140.8850 C   0  0  0  0  0  3  0  0  0  0  0  0
  188.4250  177.7570  141.0020 N   0  0  0  0  0  0  0  0  0  0  0  0
  187.8230  177.9460  139.7950 C   0  0  0  0  0  0  0  0  0  0  0  0
  187.9480  177.9580  137.3640 C   0  0  0  0  0  3  0  0  0  0  0  0
  189.8860  177.2570  138.6980 C   0  0  0  0  0  0  0  0  0  0  0  0
  190.4680  177.1020  139.9570 C   0  0  0  0  0  3  0  0  0  0  0  0
  186.6280  178.4070  137.2910 C   0  0  0  0  0  3  0  0  0  0  0  0
  190.3550  177.1820  142.4470 C   0  0  2  0  0  3  0  0  0  0  0  0
  190.4100  175.7110  142.8280 C   0  0  0  0  0  1  0  0  0  0  0  0
  189.5910  177.9910  143.4930 C   0  0  0  0  0  2  0  0  0  0  0  0
  190.5050  178.7430  144.4610 C   0  0  2  0  0  3  0  0  0  0  0  0
  191.8410  178.4040  144.2400 O   0  0  0  0  0  1  0  0  0  0  0  0
  190.1400  178.4990  145.9190 C   0  0  0  0  0  2  0  0  0  0  0  0
  189.2780  177.2470  146.0600 C   0  0  1  0  0  3  0  0  0  0  0  0
  190.1050  176.0990  146.6300 C   0  0  0  0  0  2  0  0  0  0  0  0
  192.4880  175.7070  147.2180 C   0  0  0  0  0  1  0  0  0  0  0  0
  191.2970  176.6250  147.4110 C   0  0  0  0  0  2  0  0  0  0  0  0
  188.0460  177.4980  146.9380 C   0  0  2  0  0  3  0  0  0  0  0  0
  186.8480  177.8960  146.1300 C   0  0  0  0  0  0  0  0  0  0  0  0
  185.6320  177.8210  144.0330 C   0  0  0  0  0  3  0  0  0  0  0  0
  184.7300  179.0650  145.9040 C   0  0  0  0  0  3  0  0  0  0  0  0
  184.6270  178.6230  144.5820 C   0  0  0  0  0  3  0  0  0  0  0  0
  185.8390  178.7040  146.6770 C   0  0  0  0  0  3  0  0  0  0  0  0
  186.7400  177.4590  144.8040 C   0  0  0  0  0  3  0  0  0  0  0  0
  188.3090  178.4410  147.9400 O   0  0  0  0  0  0  0  0  0  0  0  0
  188.2130  177.7670  149.0670 O   0  0  0  0  0  1  0  0  0  0  0  0
  190.6940  177.0020  137.5410 N   0  0  0  0  0  2  0  0  0  0  0  0
  192.2850  173.6500  137.0240 C   0  0  0  0  0  3  0  0  0  0  0  0
  193.6310  173.9500  137.2930 C   0  0  0  0  0  0  0  0  0  0  0  0
  193.0140  176.2590  137.7100 C   0  0  0  0  0  3  0  0  0  0  0  0
  191.3130  174.6510  137.0970 C   0  0  0  0  0  3  0  0  0  0  0  0
  191.6760  175.9650  137.4290 C   0  0  0  0  0  0  0  0  0  0  0  0
  193.9870  175.2570  137.6370 C   0  0  0  0  0  3  0  0  0  0  0  0
  194.6270  172.9720  137.2280 O   0  0  0  0  0  0  0  0  0  0  0  0
  195.4370  172.6270  138.3450 C   0  0  0  0  0  1  0  0  0  0  0  0
  1  5  1  0  0  0  0
  2 13  2  0  0  0  0
  2 11  1  0  0  0  0
  3 16  1  0  0  0  0
  4  7  2  0  0  0  0
  5  9  2  0  0  0  0
  6  1  1  0  0  0  0
  7 11  1  0  0  0  0
  7  9  1  0  0  0  0
  8  4  1  0  0  0  0
  8  1  2  0  0  0  0
 10  3  1  0  0  0  0
 11 10  2  0  0  0  0
 12  2  1  0  0  0  0
 13 14  1  0  0  0  0
 14  3  2  0  0  0  0
 15 12  2  0  0  0  0
 15  4  1  0  0  0  0
 16 17  1  1  0  0  0
 16 18  1  0  0  0  0
 18 19  1  0  0  0  0
 19 20  1  1  0  0  0
 19 21  1  0  0  0  0
 22 21  1  1  0  0  0
 22 23  1  0  0  0  0
 22 26  1  0  0  0  0
 23 25  1  0  0  0  0
 24 25  1  0  0  0  0
 26 33  1  1  0  0  0
 27 31  1  0  0  0  0
 27 26  1  0  0  0  0
 28 30  2  0  0  0  0
 28 32  1  0  0  0  0
 29 31  2  0  0  0  0
 30 29  1  0  0  0  0
 32 27  2  0  0  0  0
 33 34  1  0  0  0  0
 35 13  1  0  0  0  0
 36 39  2  0  0  0  0
 36 37  1  0  0  0  0
 37 41  2  0  0  0  0
 39 40  1  0  0  0  0
 40 35  1  0  0  0  0
 40 38  2  0  0  0  0
 41 38  1  0  0  0  0
 42 37  1  0  0  0  0
 42 43  1  0  0  0  0
M  END
>  <MODEL>
1

>  <REMARK>
 VINA RESULT:      -8.7      0.000      0.000
  Name = 
  13 active torsions:
  status: ('A' for Active; 'I' for Inactive)
    1  A    between atoms: N_1  and  C_34
    2  A    between atoms: N_1  and  C_35
    3  A    between atoms: C_2  and  C_6
    4  A    between atoms: C_2  and  C_13
    5  A    between atoms: C_3  and  C_4
    6  A    between atoms: C_3  and  C_12
    7  A    between atoms: C_4  and  C_15
    8  A    between atoms: C_4  and  C_22
    9  A    between atoms: C_6  and  C_12
   10  A    between atoms: C_11  and  C_22
   11  A    between atoms: O_14  and  C_22
   12  A    between atoms: C_15  and  C_42
   13  A    between atoms: C_19  and  O_25
                            x       y       z     vdW  Elec       q    Type
                         _______ _______ _______ _____ _____    ______ ____

>  <TORSDO>
F 13

$$$$
=
 OpenBabel10272414203D

 43 47  0  0  1  0  0  0  0  0999 V2000
  188.0250  177.6830  147.9570 C   0  0  0  0  0  0  0  0  0  0  0  0
  188.7410  177.7620  142.9450 C   0  0  0  0  0  0  0  0  0  0  0  0
  186.2850  178.5050  141.8630 C   0  0  0  0  0  0  0  0  0  0  0  0
  188.9790  177.5100  145.7370 C   0  0  0  0  0  0  0  0  0  0  0  0
  186.8070  178.0900  147.4060 C   0  0  0  0  0  3  0  0  0  0  0  0
  188.1570  177.5700  149.3000 F   0  0  0  0  0  0  0  0  0  0  0  0
  187.7480  177.9250  145.1720 C   0  0  0  0  0  0  0  0  0  0  0  0
  189.1090  177.3920  147.1240 C   0  0  0  0  0  3  0  0  0  0  0  0
  186.6680  178.2110  146.0210 C   0  0  0  0  0  3  0  0  0  0  0  0
  186.4420  178.4030  143.2100 N   0  0  0  0  0  0  0  0  0  0  0  0
  187.6270  178.0410  143.7750 C   0  0  0  0  0  0  0  0  0  0  0  0
  189.9440  177.3340  143.5260 C   0  0  0  0  0  3  0  0  0  0  0  0
  188.6000  177.8880  141.5460 C   0  0  0  0  0  0  0  0  0  0  0  0
  187.3590  178.2370  141.0140 C   0  0  0  0  0  3  0  0  0  0  0  0
  190.0630  177.2120  144.9110 C   0  0  0  0  0  3  0  0  0  0  0  0
  184.9610  178.8720  141.2780 C   0  0  2  0  0  3  0  0  0  0  0  0
  183.8530  178.6270  142.2890 C   0  0  0  0  0  1  0  0  0  0  0  0
  184.7190  178.0780  139.9950 C   0  0  0  0  0  2  0  0  0  0  0  0
  184.3600  178.9610  138.7990 C   0  0  2  0  0  3  0  0  0  0  0  0
  184.2670  180.2990  139.1840 O   0  0  0  0  0  1  0  0  0  0  0  0
  183.0700  178.5250  138.1180 C   0  0  0  0  0  2  0  0  0  0  0  0
  182.7630  177.0610  138.4220 C   0  0  1  0  0  3  0  0  0  0  0  0
  181.3640  176.9280  139.0140 C   0  0  0  0  0  2  0  0  0  0  0  0
  180.4880  178.4300  140.7910 C   0  0  0  0  0  1  0  0  0  0  0  0
  180.7670  178.2940  139.3080 C   0  0  0  0  0  2  0  0  0  0  0  0
  182.8960  176.1790  137.1750 C   0  0  2  0  0  3  0  0  0  0  0  0
  184.1070  175.2980  137.2320 C   0  0  0  0  0  0  0  0  0  0  0  0
  186.5020  175.0300  136.9590 C   0  0  0  0  0  3  0  0  0  0  0  0
  185.1480  173.1400  137.6340 C   0  0  0  0  0  3  0  0  0  0  0  0
  186.3960  173.6830  137.3180 C   0  0  0  0  0  3  0  0  0  0  0  0
  184.0040  173.9450  137.5890 C   0  0  0  0  0  3  0  0  0  0  0  0
  185.3610  175.8360  136.9140 C   0  0  0  0  0  3  0  0  0  0  0  0
  182.8860  176.9410  136.0000 O   0  0  0  0  0  0  0  0  0  0  0  0
  182.2130  176.2110  135.1340 O   0  0  0  0  0  1  0  0  0  0  0  0
  189.6760  177.6140  140.6380 N   0  0  0  0  0  2  0  0  0  0  0  0
  189.0410  178.7470  137.1240 C   0  0  0  0  0  3  0  0  0  0  0  0
  189.3260  177.5720  136.4100 C   0  0  0  0  0  0  0  0  0  0  0  0
  189.8450  176.4510  138.4980 C   0  0  0  0  0  3  0  0  0  0  0  0
  189.1610  178.7720  138.5160 C   0  0  0  0  0  3  0  0  0  0  0  0
  189.5760  177.6250  139.2090 C   0  0  0  0  0  0  0  0  0  0  0  0
  189.7250  176.4270  137.1050 C   0  0  0  0  0  3  0  0  0  0  0  0
  189.2160  177.5150  135.0180 O   0  0  0  0  0  0  0  0  0  0  0  0
  187.9630  177.4790  134.3480 C   0  0  0  0  0  1  0  0  0  0  0  0
  1  6  1  0  0  0  0
  2 12  1  0  0  0  0
  2 11  1  0  0  0  0
  3 10  1  0  0  0  0
  4  8  1  0  0  0  0
  5  1  1  0  0  0  0
  7  4  2  0  0  0  0
  7  9  1  0  0  0  0
  8  1  2  0  0  0  0
  9  5  2  0  0  0  0
 10 11  2  0  0  0  0
 11  7  1  0  0  0  0
 12 15  2  0  0  0  0
 13  2  2  0  0  0  0
 14 13  1  0  0  0  0
 14  3  2  0  0  0  0
 15  4  1  0  0  0  0
 16  3  1  0  0  0  0
 16 17  1  1  0  0  0
 18 16  1  0  0  0  0
 19 20  1  1  0  0  0
 19 18  1  0  0  0  0
 21 19  1  0  0  0  0
 22 21  1  6  0  0  0
 22 23  1  0  0  0  0
 23 25  1  0  0  0  0
 25 24  1  0  0  0  0
 26 33  1  6  0  0  0
 26 27  1  0  0  0  0
 26 22  1  0  0  0  0
 27 31  1  0  0  0  0
 28 30  2  0  0  0  0
 30 29  1  0  0  0  0
 31 29  2  0  0  0  0
 32 28  1  0  0  0  0
 32 27  2  0  0  0  0
 34 33  1  0  0  0  0
 35 13  1  0  0  0  0
 36 39  1  0  0  0  0
 37 41  1  0  0  0  0
 37 36  2  0  0  0  0
 38 40  1  0  0  0  0
 39 40  2  0  0  0  0
 40 35  1  0  0  0  0
 41 38  2  0  0  0  0
 42 37  1  0  0  0  0
 43 42  1  0  0  0  0
M  END
>  <MODEL>
2

>  <REMARK>
 VINA RESULT:      -8.6      4.356      8.385
  Name = 
  13 active torsions:
  status: ('A' for Active; 'I' for Inactive)
    1  A    between atoms: N_1  and  C_34
    2  A    between atoms: N_1  and  C_35
    3  A    between atoms: C_2  and  C_6
    4  A    between atoms: C_2  and  C_13
    5  A    between atoms: C_3  and  C_4
    6  A    between atoms: C_3  and  C_12
    7  A    between atoms: C_4  and  C_15
    8  A    between atoms: C_4  and  C_22
    9  A    between atoms: C_6  and  C_12
   10  A    between atoms: C_11  and  C_22
   11  A    between atoms: O_14  and  C_22
   12  A    between atoms: C_15  and  C_42
   13  A    between atoms: C_19  and  O_25
                            x       y       z     vdW  Elec       q    Type
                         _______ _______ _______ _____ _____    ______ ____

>  <TORSDO>
F 13

$$$$
=
 OpenBabel10272414203D

 43 47  0  0  1  0  0  0  0  0999 V2000
  191.0710  176.5520  146.8290 C   0  0  0  0  0  0  0  0  0  0  0  0
  189.0710  177.9640  142.3970 C   0  0  0  0  0  0  0  0  0  0  0  0
  186.3990  178.5280  142.9420 C   0  0  0  0  0  0  0  0  0  0  0  0
  190.7320  177.0840  144.4910 C   0  0  0  0  0  0  0  0  0  0  0  0
  189.7380  176.8720  147.1000 C   0  0  0  0  0  3  0  0  0  0  0  0
  191.8840  176.1400  147.8310 F   0  0  0  0  0  0  0  0  0  0  0  0
  189.3810  177.4130  144.7580 C   0  0  0  0  0  0  0  0  0  0  0  0
  191.5670  176.6570  145.5270 C   0  0  0  0  0  3  0  0  0  0  0  0
  188.8950  177.3010  146.0700 C   0  0  0  0  0  3  0  0  0  0  0  0
  187.2360  178.1290  143.9370 N   0  0  0  0  0  0  0  0  0  0  0  0
  188.5480  177.8440  143.7080 C   0  0  0  0  0  0  0  0  0  0  0  0
  190.4070  177.6140  142.1530 C   0  0  0  0  0  3  0  0  0  0  0  0
  188.2210  178.4000  141.3590 C   0  0  0  0  0  0  0  0  0  0  0  0
  186.8780  178.6570  141.6380 C   0  0  0  0  0  3  0  0  0  0  0  0
  191.2320  177.1810  143.1920 C   0  0  0  0  0  3  0  0  0  0  0  0
  184.9590  178.8000  143.2240 C   0  0  2  0  0  3  0  0  0  0  0  0
  184.6310  178.4560  144.6690 C   0  0  0  0  0  1  0  0  0  0  0  0
  184.0790  178.0090  142.2580 C   0  0  0  0  0  2  0  0  0  0  0  0
  182.8050  178.7540  141.8560 C   0  0  2  0  0  3  0  0  0  0  0  0
  181.8930  178.7760  142.9110 O   0  0  0  0  0  1  0  0  0  0  0  0
  182.1500  178.1640  140.6150 C   0  0  0  0  0  2  0  0  0  0  0  0
  183.2000  177.5880  139.6680 C   0  0  1  0  0  3  0  0  0  0  0  0
  182.7680  176.2100  139.1770 C   0  0  0  0  0  2  0  0  0  0  0  0
  180.5320  175.3410  138.5260 C   0  0  0  0  0  1  0  0  0  0  0  0
  181.3720  175.8710  139.6700 C   0  0  0  0  0  2  0  0  0  0  0  0
  183.4650  178.5150  138.4770 C   0  0  2  0  0  3  0  0  0  0  0  0
  183.3510  177.7980  137.1650 C   0  0  0  0  0  0  0  0  0  0  0  0
  184.3520  176.3720  135.4780 C   0  0  0  0  0  3  0  0  0  0  0  0
  182.0970  177.2010  135.1730 C   0  0  0  0  0  3  0  0  0  0  0  0
  183.1820  176.4490  134.7150 C   0  0  0  0  0  3  0  0  0  0  0  0
  182.1810  177.8760  136.3950 C   0  0  0  0  0  3  0  0  0  0  0  0
  184.4370  177.0460  136.7000 C   0  0  0  0  0  3  0  0  0  0  0  0
  184.7040  179.1600  138.5890 O   0  0  0  0  0  0  0  0  0  0  0  0
  184.4160  180.3620  139.0420 O   0  0  0  0  0  1  0  0  0  0  0  0
  188.6710  178.5390  140.0040 N   0  0  0  0  0  2  0  0  0  0  0  0
  190.2120  175.7230  138.0720 C   0  0  0  0  0  3  0  0  0  0  0  0
  189.1680  175.4040  137.1880 C   0  0  0  0  0  0  0  0  0  0  0  0
  187.8140  177.1520  138.1870 C   0  0  0  0  0  3  0  0  0  0  0  0
  190.0540  176.7490  139.0070 C   0  0  0  0  0  3  0  0  0  0  0  0
  188.8470  177.4610  139.0760 C   0  0  0  0  0  0  0  0  0  0  0  0
  187.9720  176.1250  137.2510 C   0  0  0  0  0  3  0  0  0  0  0  0
  189.2940  174.3830  136.2420 O   0  0  0  0  0  0  0  0  0  0  0  0
  188.8940  173.0430  136.5010 C   0  0  0  0  0  1  0  0  0  0  0  0
  1  5  1  0  0  0  0
  1  6  1  0  0  0  0
  2 11  1  0  0  0  0
  3 16  1  0  0  0  0
  3 10  1  0  0  0  0
  4  7  2  0  0  0  0
  4  8  1  0  0  0  0
  7  9  1  0  0  0  0
  8  1  2  0  0  0  0
  9  5  2  0  0  0  0
 11 10  2  0  0  0  0
 11  7  1  0  0  0  0
 12  2  1  0  0  0  0
 12 15  2  0  0  0  0
 13 14  1  0  0  0  0
 13  2  2  0  0  0  0
 14  3  2  0  0  0  0
 15  4  1  0  0  0  0
 16 17  1  1  0  0  0
 18 16  1  0  0  0  0
 19 18  1  0  0  0  0
 19 20  1  1  0  0  0
 21 19  1  0  0  0  0
 22 23  1  6  0  0  0
 22 21  1  0  0  0  0
 23 25  1  0  0  0  0
 24 25  1  0  0  0  0
 26 33  1  1  0  0  0
 26 22  1  0  0  0  0
 27 26  1  0  0  0  0
 28 32  2  0  0  0  0
 29 31  1  0  0  0  0
 30 29  2  0  0  0  0
 30 28  1  0  0  0  0
 31 27  2  0  0  0  0
 32 27  1  0  0  0  0
 33 34  1  0  0  0  0
 35 13  1  0  0  0  0
 36 39  1  0  0  0  0
 37 41  1  0  0  0  0
 37 36  2  0  0  0  0
 38 40  1  0  0  0  0
 39 40  2  0  0  0  0
 40 35  1  0  0  0  0
 41 38  2  0  0  0  0
 42 43  1  0  0  0  0
 42 37  1  0  0  0  0
M  END
>  <MODEL>
3

>  <REMARK>
 VINA RESULT:      -8.4      3.870      8.096
  Name = 
  13 active torsions:
  status: ('A' for Active; 'I' for Inactive)
    1  A    between atoms: N_1  and  C_34
    2  A    between atoms: N_1  and  C_35
    3  A    between atoms: C_2  and  C_6
    4  A    between atoms: C_2  and  C_13
    5  A    between atoms: C_3  and  C_4
    6  A    between atoms: C_3  and  C_12
    7  A    between atoms: C_4  and  C_15
    8  A    between atoms: C_4  and  C_22
    9  A    between atoms: C_6  and  C_12
   10  A    between atoms: C_11  and  C_22
   11  A    between atoms: O_14  and  C_22
   12  A    between atoms: C_15  and  C_42
   13  A    between atoms: C_19  and  O_25
                            x       y       z     vdW  Elec       q    Type
                         _______ _______ _______ _____ _____    ______ ____

>  <TORSDO>
F 13

$$$$
=
 OpenBabel10272414203D

 43 47  0  0  1  0  0  0  0  0999 V2000
  185.6130  178.3540  145.7520 C   0  0  0  0  0  0  0  0  0  0  0  0
  183.3610  178.7590  141.2340 C   0  0  0  0  0  0  0  0  0  0  0  0
  185.3930  178.4000  139.3650 C   0  0  0  0  0  0  0  0  0  0  0  0
  184.0000  178.6730  143.9740 C   0  0  0  0  0  0  0  0  0  0  0  0
  186.6190  178.1390  144.8060 C   0  0  0  0  0  3  0  0  0  0  0  0
  185.9040  178.3020  147.0730 F   0  0  0  0  0  0  0  0  0  0  0  0
  185.0130  178.4530  143.0090 C   0  0  0  0  0  0  0  0  0  0  0  0
  184.3050  178.6220  145.3360 C   0  0  0  0  0  3  0  0  0  0  0  0
  186.3220  178.1890  143.4410 C   0  0  0  0  0  3  0  0  0  0  0  0
  185.6630  178.3350  140.6970 N   0  0  0  0  0  0  0  0  0  0  0  0
  184.6950  178.5060  141.6390 C   0  0  0  0  0  0  0  0  0  0  0  0
  182.3780  178.9930  142.2070 C   0  0  0  0  0  3  0  0  0  0  0  0
  183.0610  178.8050  139.8560 C   0  0  0  0  0  0  0  0  0  0  0  0
  184.0920  178.6480  138.9280 C   0  0  0  0  0  3  0  0  0  0  0  0
  182.6940  178.9460  143.5660 C   0  0  0  0  0  3  0  0  0  0  0  0
  186.4860  178.2400  138.3600 C   0  0  2  0  0  3  0  0  0  0  0  0
  186.1160  177.1690  137.3460 C   0  0  0  0  0  1  0  0  0  0  0  0
  187.7980  177.9000  139.0650 C   0  0  0  0  0  2  0  0  0  0  0  0
  188.9490  178.8270  138.6750 C   0  0  2  0  0  3  0  0  0  0  0  0
  188.6040  179.6030  137.5680 O   0  0  0  0  0  1  0  0  0  0  0  0
  190.2410  178.0700  138.3970 C   0  0  0  0  0  2  0  0  0  0  0  0
  190.3200  176.8020  139.2430 C   0  0  1  0  0  3  0  0  0  0  0  0
  190.4830  175.5800  138.3470 C   0  0  0  0  0  2  0  0  0  0  0  0
  192.5870  174.9200  137.1970 C   0  0  0  0  0  1  0  0  0  0  0  0
  191.4140  175.8790  137.1840 C   0  0  0  0  0  2  0  0  0  0  0  0
  191.4630  176.8670  140.2630 C   0  0  2  0  0  3  0  0  0  0  0  0
  190.9660  177.1090  141.6560 C   0  0  0  0  0  0  0  0  0  0  0  0
  189.5650  176.4260  143.5150 C   0  0  0  0  0  3  0  0  0  0  0  0
  190.9210  178.4240  143.6980 C   0  0  0  0  0  3  0  0  0  0  0  0
  190.0040  177.5290  144.2550 C   0  0  0  0  0  3  0  0  0  0  0  0
  191.4000  178.2160  142.4000 C   0  0  0  0  0  3  0  0  0  0  0  0
  190.0440  176.2170  142.2180 C   0  0  0  0  0  3  0  0  0  0  0  0
  192.4240  177.8200  139.9020 O   0  0  0  0  0  0  0  0  0  0  0  0
  193.5240  177.1260  139.6980 O   0  0  0  0  0  1  0  0  0  0  0  0
  181.7390  179.0650  139.3660 N   0  0  0  0  0  2  0  0  0  0  0  0
  180.5240  180.7320  136.2390 C   0  0  0  0  0  3  0  0  0  0  0  0
  180.8070  182.0780  136.5270 C   0  0  0  0  0  0  0  0  0  0  0  0
  181.6900  181.4090  138.6860 C   0  0  0  0  0  3  0  0  0  0  0  0
  180.8210  179.7350  137.1710 C   0  0  0  0  0  3  0  0  0  0  0  0
  181.3950  180.0710  138.4060 C   0  0  0  0  0  0  0  0  0  0  0  0
  181.3920  182.4080  137.7530 C   0  0  0  0  0  3  0  0  0  0  0  0
  180.5210  183.0980  135.6170 O   0  0  0  0  0  0  0  0  0  0  0  0
  180.9320  184.4440  135.8190 C   0  0  0  0  0  1  0  0  0  0  0  0
  1  6  1  0  0  0  0
  2 11  1  0  0  0  0
  2 12  1  0  0  0  0
  3 10  1  0  0  0  0
  4  8  2  0  0  0  0
  5  1  2  0  0  0  0
  7  9  2  0  0  0  0
  7  4  1  0  0  0  0
  8  1  1  0  0  0  0
  9  5  1  0  0  0  0
 10 11  2  0  0  0  0
 11  7  1  0  0  0  0
 12 15  2  0  0  0  0
 13  2  2  0  0  0  0
 14  3  2  0  0  0  0
 14 13  1  0  0  0  0
 15  4  1  0  0  0  0
 16 17  1  6  0  0  0
 16 18  1  0  0  0  0
 16  3  1  0  0  0  0
 19 20  1  6  0  0  0
 19 18  1  0  0  0  0
 21 19  1  0  0  0  0
 21 22  1  0  0  0  0
 22 23  1  6  0  0  0
 22 26  1  0  0  0  0
 25 24  1  0  0  0  0
 25 23  1  0  0  0  0
 26 33  1  6  0  0  0
 26 27  1  0  0  0  0
 27 32  2  0  0  0  0
 27 31  1  0  0  0  0
 28 30  2  0  0  0  0
 29 30  1  0  0  0  0
 31 29  2  0  0  0  0
 32 28  1  0  0  0  0
 34 33  1  0  0  0  0
 35 13  1  0  0  0  0
 36 37  2  0  0  0  0
 36 39  1  0  0  0  0
 37 41  1  0  0  0  0
 39 40  2  0  0  0  0
 40 38  1  0  0  0  0
 40 35  1  0  0  0  0
 41 38  2  0  0  0  0
 42 43  1  0  0  0  0
 42 37  1  0  0  0  0
M  END
>  <MODEL>
4

>  <REMARK>
 VINA RESULT:      -8.4      3.870      8.823
  Name = 
  13 active torsions:
  status: ('A' for Active; 'I' for Inactive)
    1  A    between atoms: N_1  and  C_34
    2  A    between atoms: N_1  and  C_35
    3  A    between atoms: C_2  and  C_6
    4  A    between atoms: C_2  and  C_13
    5  A    between atoms: C_3  and  C_4
    6  A    between atoms: C_3  and  C_12
    7  A    between atoms: C_4  and  C_15
    8  A    between atoms: C_4  and  C_22
    9  A    between atoms: C_6  and  C_12
   10  A    between atoms: C_11  and  C_22
   11  A    between atoms: O_14  and  C_22
   12  A    between atoms: C_15  and  C_42
   13  A    between atoms: C_19  and  O_25
                            x       y       z     vdW  Elec       q    Type
                         _______ _______ _______ _____ _____    ______ ____

>  <TORSDO>
F 13

$$$$
=
 OpenBabel10272414203D

 43 47  0  0  1  0  0  0  0  0999 V2000
  190.2960  176.9430  146.5560 C   0  0  0  0  0  0  0  0  0  0  0  0
  189.8570  177.6910  141.5670 C   0  0  0  0  0  0  0  0  0  0  0  0
  187.2090  178.4590  141.1700 C   0  0  0  0  0  0  0  0  0  0  0  0
  190.7240  177.0960  144.1770 C   0  0  0  0  0  0  0  0  0  0  0  0
  188.9790  177.3640  146.3510 C   0  0  0  0  0  3  0  0  0  0  0  0
  190.7300  176.6660  147.8090 F   0  0  0  0  0  0  0  0  0  0  0  0
  189.3920  177.5260  143.9620 C   0  0  0  0  0  0  0  0  0  0  0  0
  191.1670  176.8080  145.4710 C   0  0  0  0  0  3  0  0  0  0  0  0
  188.5280  177.6540  145.0600 C   0  0  0  0  0  3  0  0  0  0  0  0
  187.6690  178.1920  142.4220 N   0  0  0  0  0  0  0  0  0  0  0  0
  188.9560  177.8140  142.6550 C   0  0  0  0  0  0  0  0  0  0  0  0
  191.1650  177.2460  141.8030 C   0  0  0  0  0  3  0  0  0  0  0  0
  189.4010  177.9880  140.2660 C   0  0  0  0  0  0  0  0  0  0  0  0
  188.0660  178.3480  140.0750 C   0  0  0  0  0  3  0  0  0  0  0  0
  191.5970  176.9540  143.0980 C   0  0  0  0  0  3  0  0  0  0  0  0
  185.7830  178.8390  140.9490 C   0  0  2  0  0  3  0  0  0  0  0  0
  184.9640  178.5630  142.2000 C   0  0  0  0  0  1  0  0  0  0  0  0
  185.2200  178.0810  139.7470 C   0  0  0  0  0  2  0  0  0  0  0  0
  184.4970  178.9860  138.7490 C   0  0  2  0  0  3  0  0  0  0  0  0
  184.4240  180.2930  139.2320 O   0  0  0  0  0  1  0  0  0  0  0  0
  183.1030  178.4810  138.4040 C   0  0  0  0  0  2  0  0  0  0  0  0
  182.9220  177.0350  138.8600 C   0  0  1  0  0  3  0  0  0  0  0  0
  181.7110  176.9210  139.7800 C   0  0  0  0  0  2  0  0  0  0  0  0
  181.3910  178.5910  141.5930 C   0  0  0  0  0  1  0  0  0  0  0  0
  181.1600  178.2940  140.1250 C   0  0  0  0  0  2  0  0  0  0  0  0
  182.7770  176.0760  137.6730 C   0  0  2  0  0  3  0  0  0  0  0  0
  184.0010  175.2340  137.4730 C   0  0  0  0  0  0  0  0  0  0  0  0
  185.1170  173.0930  137.7080 C   0  0  0  0  0  3  0  0  0  0  0  0
  186.2930  174.9630  136.7160 C   0  0  0  0  0  3  0  0  0  0  0  0
  186.2700  173.6270  137.1250 C   0  0  0  0  0  3  0  0  0  0  0  0
  185.1610  175.7670  136.8920 C   0  0  0  0  0  3  0  0  0  0  0  0
  183.9850  173.8950  137.8830 C   0  0  0  0  0  3  0  0  0  0  0  0
  182.4400  176.7570  136.4960 O   0  0  0  0  0  0  0  0  0  0  0  0
  181.7800  175.8750  135.7750 O   0  0  0  0  0  1  0  0  0  0  0  0
  190.2470  177.8800  139.1120 N   0  0  0  0  0  2  0  0  0  0  0  0
  192.2780  175.0800  137.6730 C   0  0  0  0  0  3  0  0  0  0  0  0
  191.2690  174.2780  137.1160 C   0  0  0  0  0  0  0  0  0  0  0  0
  189.6050  175.8630  137.8960 C   0  0  0  0  0  3  0  0  0  0  0  0
  191.9490  176.2640  138.3390 C   0  0  0  0  0  3  0  0  0  0  0  0
  190.6080  176.6550  138.4630 C   0  0  0  0  0  0  0  0  0  0  0  0
  189.9340  174.6780  137.2300 C   0  0  0  0  0  3  0  0  0  0  0  0
  191.5640  173.0890  136.4450 O   0  0  0  0  0  0  0  0  0  0  0  0
  191.2270  172.8730  135.0800 C   0  0  0  0  0  1  0  0  0  0  0  0
  1  6  1  0  0  0  0
  2 12  1  0  0  0  0
  2 11  1  0  0  0  0
  3 10  1  0  0  0  0
  4  8  1  0  0  0  0
  5  1  1  0  0  0  0
  7  4  2  0  0  0  0
  7  9  1  0  0  0  0
  8  1  2  0  0  0  0
  9  5  2  0  0  0  0
 10 11  2  0  0  0  0
 11  7  1  0  0  0  0
 12 15  2  0  0  0  0
 13  2  2  0  0  0  0
 14 13  1  0  0  0  0
 14  3  2  0  0  0  0
 15  4  1  0  0  0  0
 16  3  1  0  0  0  0
 16 17  1  1  0  0  0
 18 16  1  0  0  0  0
 19 20  1  1  0  0  0
 19 18  1  0  0  0  0
 21 19  1  0  0  0  0
 22 21  1  6  0  0  0
 22 23  1  0  0  0  0
 23 25  1  0  0  0  0
 25 24  1  0  0  0  0
 26 33  1  6  0  0  0
 26 22  1  0  0  0  0
 27 26  1  0  0  0  0
 27 32  1  0  0  0  0
 28 32  2  0  0  0  0
 29 31  1  0  0  0  0
 29 30  2  0  0  0  0
 30 28  1  0  0  0  0
 31 27  2  0  0  0  0
 34 33  1  0  0  0  0
 35 13  1  0  0  0  0
 36 39  1  0  0  0  0
 37 41  1  0  0  0  0
 37 36  2  0  0  0  0
 38 40  1  0  0  0  0
 39 40  2  0  0  0  0
 40 35  1  0  0  0  0
 41 38  2  0  0  0  0
 42 37  1  0  0  0  0
 43 42  1  0  0  0  0
M  END
>  <MODEL>
5

>  <REMARK>
 VINA RESULT:      -8.3      4.240      7.823
  Name = 
  13 active torsions:
  status: ('A' for Active; 'I' for Inactive)
    1  A    between atoms: N_1  and  C_34
    2  A    between atoms: N_1  and  C_35
    3  A    between atoms: C_2  and  C_6
    4  A    between atoms: C_2  and  C_13
    5  A    between atoms: C_3  and  C_4
    6  A    between atoms: C_3  and  C_12
    7  A    between atoms: C_4  and  C_15
    8  A    between atoms: C_4  and  C_22
    9  A    between atoms: C_6  and  C_12
   10  A    between atoms: C_11  and  C_22
   11  A    between atoms: O_14  and  C_22
   12  A    between atoms: C_15  and  C_42
   13  A    between atoms: C_19  and  O_25
                            x       y       z     vdW  Elec       q    Type
                         _______ _______ _______ _____ _____    ______ ____

>  <TORSDO>
F 13

$$$$
=
 OpenBabel10272414203D

 43 47  0  0  1  0  0  0  0  0999 V2000
  193.1840  174.5560  135.9120 C   0  0  0  0  0  0  0  0  0  0  0  0
  189.3470  177.3300  137.7070 C   0  0  0  0  0  0  0  0  0  0  0  0
  189.8220  177.5590  140.4420 C   0  0  0  0  0  0  0  0  0  0  0  0
  191.1490  175.8500  136.1320 C   0  0  0  0  0  0  0  0  0  0  0  0
  193.4320  174.7070  137.2790 C   0  0  0  0  0  3  0  0  0  0  0  0
  194.0500  173.8570  135.1400 F   0  0  0  0  0  0  0  0  0  0  0  0
  191.3960  176.0100  137.5170 C   0  0  0  0  0  0  0  0  0  0  0  0
  192.0440  175.1260  135.3390 C   0  0  0  0  0  3  0  0  0  0  0  0
  192.5430  175.4300  138.0790 C   0  0  0  0  0  3  0  0  0  0  0  0
  190.6880  176.8750  139.6470 N   0  0  0  0  0  0  0  0  0  0  0  0
  190.4890  176.7420  138.3060 C   0  0  0  0  0  0  0  0  0  0  0  0
  189.1140  177.1420  136.3370 C   0  0  0  0  0  3  0  0  0  0  0  0
  188.4520  178.0630  138.5150 C   0  0  0  0  0  0  0  0  0  0  0  0
  188.6870  178.1510  139.8880 C   0  0  0  0  0  3  0  0  0  0  0  0
  190.0100  176.4110  135.5550 C   0  0  0  0  0  3  0  0  0  0  0  0
  190.0550  177.6560  141.9130 C   0  0  2  0  0  3  0  0  0  0  0  0
  190.6430  176.3560  142.4400 C   0  0  0  0  0  1  0  0  0  0  0  0
  188.7490  177.9970  142.6280 C   0  0  0  0  0  2  0  0  0  0  0  0
  188.5460  177.2080  143.9220 C   0  0  2  0  0  3  0  0  0  0  0  0
  187.6450  176.1620  143.7250 O   0  0  0  0  0  1  0  0  0  0  0  0
  188.0800  178.0860  145.0750 C   0  0  0  0  0  2  0  0  0  0  0  0
  186.8990  177.4470  145.8010 C   0  0  1  0  0  3  0  0  0  0  0  0
  187.3670  176.8030  147.1020 C   0  0  0  0  0  2  0  0  0  0  0  0
  188.7230  178.0510  148.7710 C   0  0  0  0  0  1  0  0  0  0  0  0
  188.7630  177.2750  147.4700 C   0  0  0  0  0  2  0  0  0  0  0  0
  185.7850  178.4620  146.0840 C   0  0  2  0  0  3  0  0  0  0  0  0
  184.8180  178.5710  144.9430 C   0  0  0  0  0  0  0  0  0  0  0  0
  184.4090  178.5790  142.5520 C   0  0  0  0  0  3  0  0  0  0  0  0
  182.5630  178.8780  144.0920 C   0  0  0  0  0  3  0  0  0  0  0  0
  183.0450  178.7790  142.7830 C   0  0  0  0  0  3  0  0  0  0  0  0
  183.4480  178.7760  145.1710 C   0  0  0  0  0  3  0  0  0  0  0  0
  185.2940  178.4760  143.6300 C   0  0  0  0  0  3  0  0  0  0  0  0
  186.3040  179.7180  146.4230 O   0  0  0  0  0  0  0  0  0  0  0  0
  185.9460  179.9000  147.6770 O   0  0  0  0  0  1  0  0  0  0  0  0
  187.2700  178.6810  137.9870 N   0  0  0  0  0  2  0  0  0  0  0  0
  184.3020  176.4770  137.3820 C   0  0  0  0  0  3  0  0  0  0  0  0
  183.3240  177.1290  138.1520 C   0  0  0  0  0  0  0  0  0  0  0  0
  184.9720  178.7860  138.8050 C   0  0  0  0  0  3  0  0  0  0  0  0
  185.6050  176.9770  137.3280 C   0  0  0  0  0  3  0  0  0  0  0  0
  185.9500  178.1290  138.0500 C   0  0  0  0  0  0  0  0  0  0  0  0
  183.6680  178.2850  138.8590 C   0  0  0  0  0  3  0  0  0  0  0  0
  182.0130  176.6550  138.2270 O   0  0  0  0  0  0  0  0  0  0  0  0
  181.5670  175.7940  139.2670 C   0  0  0  0  0  1  0  0  0  0  0  0
  1  5  1  0  0  0  0
  2 11  1  0  0  0  0
  2 13  1  0  0  0  0
  3 16  1  0  0  0  0
  4  7  1  0  0  0  0
  5  9  2  0  0  0  0
  6  1  1  0  0  0  0
  7  9  1  0  0  0  0
  7 11  2  0  0  0  0
  8  1  2  0  0  0  0
  8  4  1  0  0  0  0
 10  3  2  0  0  0  0
 11 10  1  0  0  0  0
 12  2  2  0  0  0  0
 13 14  2  0  0  0  0
 14  3  1  0  0  0  0
 15  4  2  0  0  0  0
 15 12  1  0  0  0  0
 16 17  1  1  0  0  0
 16 18  1  0  0  0  0
 18 19  1  0  0  0  0
 19 20  1  6  0  0  0
 19 21  1  0  0  0  0
 22 21  1  1  0  0  0
 22 26  1  0  0  0  0
 22 23  1  0  0  0  0
 23 25  1  0  0  0  0
 25 24  1  0  0  0  0
 26 33  1  6  0  0  0
 27 31  1  0  0  0  0
 27 26  1  0  0  0  0
 28 30  2  0  0  0  0
 28 32  1  0  0  0  0
 29 31  2  0  0  0  0
 30 29  1  0  0  0  0
 32 27  2  0  0  0  0
 33 34  1  0  0  0  0
 35 40  1  0  0  0  0
 35 13  1  0  0  0  0
 36 37  1  0  0  0  0
 37 42  1  0  0  0  0
 37 41  2  0  0  0  0
 38 41  1  0  0  0  0
 39 36  2  0  0  0  0
 39 40  1  0  0  0  0
 40 38  2  0  0  0  0
 42 43  1  0  0  0  0
M  END
>  <MODEL>
6

>  <REMARK>
 VINA RESULT:      -8.1      3.285      6.249
  Name = 
  13 active torsions:
  status: ('A' for Active; 'I' for Inactive)
    1  A    between atoms: N_1  and  C_34
    2  A    between atoms: N_1  and  C_35
    3  A    between atoms: C_2  and  C_6
    4  A    between atoms: C_2  and  C_13
    5  A    between atoms: C_3  and  C_4
    6  A    between atoms: C_3  and  C_12
    7  A    between atoms: C_4  and  C_15
    8  A    between atoms: C_4  and  C_22
    9  A    between atoms: C_6  and  C_12
   10  A    between atoms: C_11  and  C_22
   11  A    between atoms: O_14  and  C_22
   12  A    between atoms: C_15  and  C_42
   13  A    between atoms: C_19  and  O_25
                            x       y       z     vdW  Elec       q    Type
                         _______ _______ _______ _____ _____    ______ ____

>  <TORSDO>
F 13

$$$$
=
 OpenBabel10272414203D

 43 47  0  0  1  0  0  0  0  0999 V2000
  181.2340  179.1100  141.6470 C   0  0  0  0  0  0  0  0  0  0  0  0
  185.3960  178.3650  144.4320 C   0  0  0  0  0  0  0  0  0  0  0  0
  187.3850  177.6710  142.6100 C   0  0  0  0  0  0  0  0  0  0  0  0
  182.7990  178.8830  143.4810 C   0  0  0  0  0  0  0  0  0  0  0  0
  182.2470  178.7970  140.7380 C   0  0  0  0  0  3  0  0  0  0  0  0
  179.9820  179.3750  141.2020 F   0  0  0  0  0  0  0  0  0  0  0  0
  183.8320  178.5680  142.5650 C   0  0  0  0  0  0  0  0  0  0  0  0
  181.5090  179.1530  143.0170 C   0  0  0  0  0  3  0  0  0  0  0  0
  183.5410  178.5260  141.1930 C   0  0  0  0  0  3  0  0  0  0  0  0
  186.1270  177.9570  142.1810 N   0  0  0  0  0  0  0  0  0  0  0  0
  185.1290  178.2990  143.0420 C   0  0  0  0  0  0  0  0  0  0  0  0
  184.3530  178.6610  145.3220 C   0  0  0  0  0  3  0  0  0  0  0  0
  186.7040  178.0960  144.8900 C   0  0  0  0  0  0  0  0  0  0  0  0
  187.6860  177.7250  143.9710 C   0  0  0  0  0  3  0  0  0  0  0  0
  183.0660  178.9220  144.8500 C   0  0  0  0  0  3  0  0  0  0  0  0
  188.4460  177.2680  141.6400 C   0  0  2  0  0  3  0  0  0  0  0  0
  189.6470  176.7010  142.3790 C   0  0  0  0  0  1  0  0  0  0  0  0
  188.8460  178.4630  140.7770 C   0  0  0  0  0  2  0  0  0  0  0  0
  188.5250  178.2690  139.2940 C   0  0  2  0  0  3  0  0  0  0  0  0
  187.2480  178.7460  139.0000 O   0  0  0  0  0  1  0  0  0  0  0  0
  188.6520  176.8170  138.8530 C   0  0  0  0  0  2  0  0  0  0  0  0
  189.6280  176.6870  137.6870 C   0  0  1  0  0  3  0  0  0  0  0  0
  189.3200  177.7340  136.6230 C   0  0  0  0  0  2  0  0  0  0  0  0
  187.2620  178.0330  135.2610 C   0  0  0  0  0  1  0  0  0  0  0  0
  188.4650  177.1460  135.5140 C   0  0  0  0  0  2  0  0  0  0  0  0
  191.0860  176.8110  138.1450 C   0  0  2  0  0  3  0  0  0  0  0  0
  192.0260  176.0580  137.2530 C   0  0  0  0  0  0  0  0  0  0  0  0
  192.4580  174.1500  135.8200 C   0  0  0  0  0  3  0  0  0  0  0  0
  194.1910  175.8020  136.1810 C   0  0  0  0  0  3  0  0  0  0  0  0
  193.7550  174.6160  135.5840 C   0  0  0  0  0  3  0  0  0  0  0  0
  193.3290  176.5220  137.0160 C   0  0  0  0  0  3  0  0  0  0  0  0
  191.5960  174.8680  136.6540 C   0  0  0  0  0  3  0  0  0  0  0  0
  191.2430  176.4200  139.4810 O   0  0  0  0  0  0  0  0  0  0  0  0
  192.0990  177.2840  139.9850 O   0  0  0  0  0  1  0  0  0  0  0  0
  187.0530  178.1320  146.2810 N   0  0  0  0  0  2  0  0  0  0  0  0
  189.9880  177.9530  148.6020 C   0  0  0  0  0  3  0  0  0  0  0  0
  190.9250  177.2860  147.7960 C   0  0  0  0  0  0  0  0  0  0  0  0
  189.2850  177.1810  146.0100 C   0  0  0  0  0  3  0  0  0  0  0  0
  188.7090  178.2290  148.1130 C   0  0  0  0  0  3  0  0  0  0  0  0
  188.3470  177.8330  146.8170 C   0  0  0  0  0  0  0  0  0  0  0  0
  190.5660  176.9050  146.4990 C   0  0  0  0  0  3  0  0  0  0  0  0
  192.2120  176.9940  148.2550 O   0  0  0  0  0  0  0  0  0  0  0  0
  192.7460  175.6760  148.2570 C   0  0  0  0  0  1  0  0  0  0  0  0
  1  8  1  0  0  0  0
  2 13  1  0  0  0  0
  2 12  1  0  0  0  0
  3 14  1  0  0  0  0
  4 15  1  0  0  0  0
  5  9  1  0  0  0  0
  5  1  2  0  0  0  0
  6  1  1  0  0  0  0
  7 11  1  0  0  0  0
  7  4  1  0  0  0  0
  8  4  2  0  0  0  0
  9  7  2  0  0  0  0
 10  3  2  0  0  0  0
 10 11  1  0  0  0  0
 11  2  2  0  0  0  0
 13 35  1  0  0  0  0
 14 13  2  0  0  0  0
 15 12  2  0  0  0  0
 16 17  1  1  0  0  0
 16  3  1  0  0  0  0
 18 16  1  0  0  0  0
 19 20  1  1  0  0  0
 19 18  1  0  0  0  0
 21 19  1  0  0  0  0
 22 23  1  6  0  0  0
 22 26  1  0  0  0  0
 22 21  1  0  0  0  0
 24 25  1  0  0  0  0
 25 23  1  0  0  0  0
 26 33  1  1  0  0  0
 27 26  1  0  0  0  0
 28 32  1  0  0  0  0
 29 31  2  0  0  0  0
 30 28  2  0  0  0  0
 30 29  1  0  0  0  0
 31 27  1  0  0  0  0
 32 27  2  0  0  0  0
 33 34  1  0  0  0  0
 35 40  1  0  0  0  0
 37 42  1  0  0  0  0
 37 36  2  0  0  0  0
 38 41  2  0  0  0  0
 38 40  1  0  0  0  0
 39 36  1  0  0  0  0
 40 39  2  0  0  0  0
 41 37  1  0  0  0  0
 42 43  1  0  0  0  0
M  END
>  <MODEL>
7

>  <REMARK>
 VINA RESULT:      -8.1      2.401      8.687
  Name = 
  13 active torsions:
  status: ('A' for Active; 'I' for Inactive)
    1  A    between atoms: N_1  and  C_34
    2  A    between atoms: N_1  and  C_35
    3  A    between atoms: C_2  and  C_6
    4  A    between atoms: C_2  and  C_13
    5  A    between atoms: C_3  and  C_4
    6  A    between atoms: C_3  and  C_12
    7  A    between atoms: C_4  and  C_15
    8  A    between atoms: C_4  and  C_22
    9  A    between atoms: C_6  and  C_12
   10  A    between atoms: C_11  and  C_22
   11  A    between atoms: O_14  and  C_22
   12  A    between atoms: C_15  and  C_42
   13  A    between atoms: C_19  and  O_25
                            x       y       z     vdW  Elec       q    Type
                         _______ _______ _______ _____ _____    ______ ____

>  <TORSDO>
F 13

$$$$
=
 OpenBabel10272414203D

 43 47  0  0  1  0  0  0  0  0999 V2000
  181.2530  179.0310  141.7960 C   0  0  0  0  0  0  0  0  0  0  0  0
  185.5060  178.3250  144.4520 C   0  0  0  0  0  0  0  0  0  0  0  0
  187.4750  177.7880  142.5580 C   0  0  0  0  0  0  0  0  0  0  0  0
  182.8690  178.7840  143.5830 C   0  0  0  0  0  0  0  0  0  0  0  0
  182.2550  178.7960  140.8510 C   0  0  0  0  0  3  0  0  0  0  0  0
  179.9820  179.2660  141.3900 F   0  0  0  0  0  0  0  0  0  0  0  0
  183.8910  178.5490  142.6310 C   0  0  0  0  0  0  0  0  0  0  0  0
  181.5590  179.0230  143.1600 C   0  0  0  0  0  3  0  0  0  0  0  0
  183.5690  178.5560  141.2650 C   0  0  0  0  0  3  0  0  0  0  0  0
  186.1970  178.0440  142.1690 N   0  0  0  0  0  0  0  0  0  0  0  0
  185.2080  178.3090  143.0670 C   0  0  0  0  0  0  0  0  0  0  0  0
  184.4740  178.5410  145.3770 C   0  0  0  0  0  3  0  0  0  0  0  0
  186.8330  178.0860  144.8690 C   0  0  0  0  0  0  0  0  0  0  0  0
  187.8070  177.7950  143.9130 C   0  0  0  0  0  3  0  0  0  0  0  0
  183.1670  178.7730  144.9450 C   0  0  0  0  0  3  0  0  0  0  0  0
  188.5270  177.4690  141.5470 C   0  0  2  0  0  3  0  0  0  0  0  0
  189.9020  177.4820  142.1960 C   0  0  0  0  0  1  0  0  0  0  0  0
  188.4560  178.4610  140.3880 C   0  0  0  0  0  2  0  0  0  0  0  0
  188.5680  177.7950  139.0160 C   0  0  2  0  0  3  0  0  0  0  0  0
  189.8630  177.9210  138.5110 O   0  0  0  0  0  1  0  0  0  0  0  0
  187.5630  178.3470  138.0150 C   0  0  0  0  0  2  0  0  0  0  0  0
  186.4180  177.3610  137.7950 C   0  0  1  0  0  3  0  0  0  0  0  0
  185.0780  178.0860  137.8620 C   0  0  0  0  0  2  0  0  0  0  0  0
  182.6870  178.0050  137.1850 C   0  0  0  0  0  1  0  0  0  0  0  0
  183.9520  177.1920  137.3710 C   0  0  0  0  0  2  0  0  0  0  0  0
  186.5520  176.6190  136.4590 C   0  0  2  0  0  3  0  0  0  0  0  0
  186.9950  175.1990  136.6430 C   0  0  0  0  0  0  0  0  0  0  0  0
  186.4330  172.8430  136.7770 C   0  0  0  0  0  3  0  0  0  0  0  0
  188.7350  173.5490  137.0320 C   0  0  0  0  0  3  0  0  0  0  0  0
  187.7790  172.5310  136.9900 C   0  0  0  0  0  3  0  0  0  0  0  0
  188.3440  174.8820  136.8610 C   0  0  0  0  0  3  0  0  0  0  0  0
  186.0410  174.1740  136.6060 C   0  0  0  0  0  3  0  0  0  0  0  0
  187.4010  177.2970  135.5750 O   0  0  0  0  0  0  0  0  0  0  0  0
  186.5990  177.7830  134.6490 O   0  0  0  0  0  1  0  0  0  0  0  0
  187.2140  178.0750  146.2510 N   0  0  0  0  0  2  0  0  0  0  0  0
  190.6660  176.6460  146.5170 C   0  0  0  0  0  3  0  0  0  0  0  0
  191.0380  177.0830  147.7990 C   0  0  0  0  0  0  0  0  0  0  0  0
  188.8830  178.1750  148.0300 C   0  0  0  0  0  3  0  0  0  0  0  0
  189.4120  176.9750  145.9970 C   0  0  0  0  0  3  0  0  0  0  0  0
  188.5180  177.7520  146.7480 C   0  0  0  0  0  0  0  0  0  0  0  0
  190.1390  177.8460  148.5500 C   0  0  0  0  0  3  0  0  0  0  0  0
  192.2850  176.7730  148.3470 O   0  0  0  0  0  0  0  0  0  0  0  0
  192.9150  175.5130  148.1540 C   0  0  0  0  0  1  0  0  0  0  0  0
  1  8  1  0  0  0  0
  2 13  1  0  0  0  0
  2 12  1  0  0  0  0
  3 14  1  0  0  0  0
  4 15  1  0  0  0  0
  5  9  1  0  0  0  0
  5  1  2  0  0  0  0
  6  1  1  0  0  0  0
  7 11  1  0  0  0  0
  7  4  1  0  0  0  0
  8  4  2  0  0  0  0
  9  7  2  0  0  0  0
 10  3  2  0  0  0  0
 10 11  1  0  0  0  0
 11  2  2  0  0  0  0
 13 35  1  0  0  0  0
 14 13  2  0  0  0  0
 15 12  2  0  0  0  0
 16 17  1  1  0  0  0
 16  3  1  0  0  0  0
 18 16  1  0  0  0  0
 19 20  1  6  0  0  0
 19 18  1  0  0  0  0
 21 19  1  0  0  0  0
 22 23  1  6  0  0  0
 22 21  1  0  0  0  0
 24 25  1  0  0  0  0
 25 23  1  0  0  0  0
 26 33  1  6  0  0  0
 26 27  1  0  0  0  0
 26 22  1  0  0  0  0
 27 31  1  0  0  0  0
 28 30  2  0  0  0  0
 30 29  1  0  0  0  0
 31 29  2  0  0  0  0
 32 27  2  0  0  0  0
 32 28  1  0  0  0  0
 34 33  1  0  0  0  0
 35 40  1  0  0  0  0
 36 37  1  0  0  0  0
 37 42  1  0  0  0  0
 37 41  2  0  0  0  0
 38 41  1  0  0  0  0
 39 36  2  0  0  0  0
 39 40  1  0  0  0  0
 40 38  2  0  0  0  0
 43 42  1  0  0  0  0
M  END
>  <MODEL>
8

>  <REMARK>
 VINA RESULT:      -8.1      3.188      8.647
  Name = 
  13 active torsions:
  status: ('A' for Active; 'I' for Inactive)
    1  A    between atoms: N_1  and  C_34
    2  A    between atoms: N_1  and  C_35
    3  A    between atoms: C_2  and  C_6
    4  A    between atoms: C_2  and  C_13
    5  A    between atoms: C_3  and  C_4
    6  A    between atoms: C_3  and  C_12
    7  A    between atoms: C_4  and  C_15
    8  A    between atoms: C_4  and  C_22
    9  A    between atoms: C_6  and  C_12
   10  A    between atoms: C_11  and  C_22
   11  A    between atoms: O_14  and  C_22
   12  A    between atoms: C_15  and  C_42
   13  A    between atoms: C_19  and  O_25
                            x       y       z     vdW  Elec       q    Type
                         _______ _______ _______ _____ _____    ______ ____

>  <TORSDO>
F 13

$$$$
=
 OpenBabel10272414203D

 43 47  0  0  1  0  0  0  0  0999 V2000
  193.4250  175.1000  135.8310 C   0  0  0  0  0  0  0  0  0  0  0  0
  189.3260  177.4610  137.6360 C   0  0  0  0  0  0  0  0  0  0  0  0
  189.6770  177.5350  140.3980 C   0  0  0  0  0  0  0  0  0  0  0  0
  191.2920  176.2260  136.0470 C   0  0  0  0  0  0  0  0  0  0  0  0
  193.6090  175.1740  137.2140 C   0  0  0  0  0  3  0  0  0  0  0  0
  194.3700  174.5190  135.0520 F   0  0  0  0  0  0  0  0  0  0  0  0
  191.4730  176.3080  137.4490 C   0  0  0  0  0  0  0  0  0  0  0  0
  192.2680  175.6230  135.2480 C   0  0  0  0  0  3  0  0  0  0  0  0
  192.6390  175.7750  138.0200 C   0  0  0  0  0  3  0  0  0  0  0  0
  190.6220  176.9720  139.5980 N   0  0  0  0  0  0  0  0  0  0  0  0
  190.4850  176.9170  138.2440 C   0  0  0  0  0  0  0  0  0  0  0  0
  189.1600  177.3510  136.2480 C   0  0  0  0  0  3  0  0  0  0  0  0
  188.3490  178.0710  138.4510 C   0  0  0  0  0  0  0  0  0  0  0  0
  188.5230  178.0810  139.8360 C   0  0  0  0  0  3  0  0  0  0  0  0
  190.1370  176.7410  135.4590 C   0  0  0  0  0  3  0  0  0  0  0  0
  189.8470  177.5490  141.8810 C   0  0  2  0  0  3  0  0  0  0  0  0
  190.0340  176.1330  142.4020 C   0  0  0  0  0  1  0  0  0  0  0  0
  188.6430  178.2210  142.5390 C   0  0  0  0  0  2  0  0  0  0  0  0
  187.5650  177.2300  142.9780 C   0  0  2  0  0  3  0  0  0  0  0  0
  186.2930  177.7310  142.7000 O   0  0  0  0  0  1  0  0  0  0  0  0
  187.6700  176.8680  144.4540 C   0  0  0  0  0  2  0  0  0  0  0  0
  187.1480  178.0040  145.3300 C   0  0  1  0  0  3  0  0  0  0  0  0
  185.7140  177.7190  145.7640 C   0  0  0  0  0  2  0  0  0  0  0  0
  183.7150  178.8180  144.7760 C   0  0  0  0  0  1  0  0  0  0  0  0
  184.8760  178.9850  145.7360 C   0  0  0  0  0  2  0  0  0  0  0  0
  188.0370  178.2330  146.5570 C   0  0  2  0  0  3  0  0  0  0  0  0
  189.3930  177.6120  146.3980 C   0  0  0  0  0  0  0  0  0  0  0  0
  191.0240  175.9630  147.1070 C   0  0  0  0  0  3  0  0  0  0  0  0
  191.5560  177.4840  145.3000 C   0  0  0  0  0  3  0  0  0  0  0  0
  191.9190  176.4270  146.1390 C   0  0  0  0  0  3  0  0  0  0  0  0
  190.2950  178.0780  145.4300 C   0  0  0  0  0  3  0  0  0  0  0  0
  189.7640  176.5540  147.2380 C   0  0  0  0  0  3  0  0  0  0  0  0
  187.4190  177.7910  147.7340 O   0  0  0  0  0  0  0  0  0  0  0  0
  187.9300  178.5450  148.6840 O   0  0  0  0  0  1  0  0  0  0  0  0
  187.1450  178.6360  137.9140 N   0  0  0  0  0  2  0  0  0  0  0  0
  183.6840  177.8930  139.1420 C   0  0  0  0  0  3  0  0  0  0  0  0
  183.3090  176.8570  138.2710 C   0  0  0  0  0  0  0  0  0  0  0  0
  185.4680  177.0220  137.1760 C   0  0  0  0  0  3  0  0  0  0  0  0
  184.9420  178.4890  139.0260 C   0  0  0  0  0  3  0  0  0  0  0  0
  185.8370  178.0630  138.0330 C   0  0  0  0  0  0  0  0  0  0  0  0
  184.2090  176.4250  137.2910 C   0  0  0  0  0  3  0  0  0  0  0  0
  182.0580  176.2400  138.3600 O   0  0  0  0  0  0  0  0  0  0  0  0
  181.4120  175.9900  139.6010 C   0  0  0  0  0  1  0  0  0  0  0  0
  1  5  1  0  0  0  0
  2 11  1  0  0  0  0
  2 13  1  0  0  0  0
  3 16  1  0  0  0  0
  4  7  1  0  0  0  0
  5  9  2  0  0  0  0
  6  1  1  0  0  0  0
  7  9  1  0  0  0  0
  7 11  2  0  0  0  0
  8  1  2  0  0  0  0
  8  4  1  0  0  0  0
 10  3  2  0  0  0  0
 11 10  1  0  0  0  0
 12  2  2  0  0  0  0
 13 14  2  0  0  0  0
 14  3  1  0  0  0  0
 15  4  2  0  0  0  0
 15 12  1  0  0  0  0
 16 17  1  1  0  0  0
 16 18  1  0  0  0  0
 18 19  1  0  0  0  0
 19 20  1  1  0  0  0
 19 21  1  0  0  0  0
 22 21  1  1  0  0  0
 22 23  1  0  0  0  0
 22 26  1  0  0  0  0
 24 25  1  0  0  0  0
 25 23  1  0  0  0  0
 26 33  1  1  0  0  0
 27 26  1  0  0  0  0
 27 32  1  0  0  0  0
 28 32  2  0  0  0  0
 29 31  1  0  0  0  0
 29 30  2  0  0  0  0
 30 28  1  0  0  0  0
 31 27  2  0  0  0  0
 33 34  1  0  0  0  0
 35 40  1  0  0  0  0
 35 13  1  0  0  0  0
 37 42  1  0  0  0  0
 37 36  2  0  0  0  0
 38 41  2  0  0  0  0
 38 40  1  0  0  0  0
 39 36  1  0  0  0  0
 40 39  2  0  0  0  0
 41 37  1  0  0  0  0
 42 43  1  0  0  0  0
M  END
>  <MODEL>
9

>  <REMARK>
 VINA RESULT:      -8.1      3.250      6.788
  Name = 
  13 active torsions:
  status: ('A' for Active; 'I' for Inactive)
    1  A    between atoms: N_1  and  C_34
    2  A    between atoms: N_1  and  C_35
    3  A    between atoms: C_2  and  C_6
    4  A    between atoms: C_2  and  C_13
    5  A    between atoms: C_3  and  C_4
    6  A    between atoms: C_3  and  C_12
    7  A    between atoms: C_4  and  C_15
    8  A    between atoms: C_4  and  C_22
    9  A    between atoms: C_6  and  C_12
   10  A    between atoms: C_11  and  C_22
   11  A    between atoms: O_14  and  C_22
   12  A    between atoms: C_15  and  C_42
   13  A    between atoms: C_19  and  O_25
                            x       y       z     vdW  Elec       q    Type
                         _______ _______ _______ _____ _____    ______ ____

>  <TORSDO>
F 13

$$$$
