=
 OpenBabel10272401043D

 27 31  0  0  0  0  0  0  0  0999 V2000
  186.3060  178.9210  141.4700 C   0  0  0  0  0  3  0  0  0  0  0  0
  185.6290  178.3600  143.7790 C   0  0  0  0  0  0  0  0  0  0  0  0
  187.6150  176.9830  143.3830 N   0  0  0  0  0  0  0  0  0  0  0  0
  186.8130  179.3190  147.5260 C   0  0  0  0  0  3  0  0  0  0  0  0
  187.7740  178.9500  148.3730 C   0  0  0  0  0  2  0  0  0  0  0  0
  184.7180  179.0530  144.7150 C   0  0  0  0  0  3  0  0  0  0  0  0
  187.9150  176.8060  146.1650 C   0  0  0  0  0  3  0  0  0  0  0  0
  190.0000  177.1450  140.7050 C   0  0  0  0  0  0  0  0  0  0  0  0
  188.3340  176.6410  147.5710 C   0  0  0  0  0  3  0  0  0  0  0  0
  191.1420  176.6720  140.4730 O   0  0  0  0  0  0  0  0  0  0  0  0
  186.9480  177.6150  145.7130 C   0  0  0  0  0  0  0  0  0  0  0  0
  185.3220  178.4110  142.3750 N   0  0  0  0  0  0  0  0  0  0  0  0
  188.2780  177.5740  148.5290 C   0  0  0  0  0  3  0  0  0  0  0  0
  186.0530  178.3480  146.6850 C   0  0  0  0  0  0  0  0  0  0  0  0
  187.5410  178.4380  141.4010 C   0  0  0  0  0  0  0  0  0  0  0  0
  186.7100  177.6990  144.2460 C   0  0  0  0  0  0  0  0  0  0  0  0
  189.0330  176.3650  141.5490 C   0  0  0  0  0  2  0  0  0  0  0  0
  184.9050  179.0530  146.0310 C   0  0  0  0  0  3  0  0  0  0  0  0
  189.6040  178.4220  140.0860 C   0  0  0  0  0  3  0  0  0  0  0  0
  188.4470  179.0090  140.3920 C   0  0  0  0  0  3  0  0  0  0  0  0
  187.9920  177.2520  142.1680 C   0  0  0  0  0  0  0  0  0  0  0  0
  181.3340  177.9340  140.9580 C   0  0  0  0  0  3  0  0  0  0  0  0
  183.9660  178.2340  141.9060 C   0  0  0  0  0  0  0  0  0  0  0  0
  183.7120  177.5620  140.6980 C   0  0  0  0  0  3  0  0  0  0  0  0
  182.4040  177.4100  140.2280 C   0  0  0  0  0  3  0  0  0  0  0  0
  181.5730  178.6120  142.1550 C   0  0  0  0  0  3  0  0  0  0  0  0
  182.8790  178.7650  142.6240 C   0  0  0  0  0  3  0  0  0  0  0  0
  1 12  1  0  0  0  0
  2 16  2  0  0  0  0
  2  6  1  0  0  0  0
  3 16  1  0  0  0  0
  4  5  1  0  0  0  0
  5 13  1  0  0  0  0
  6 18  2  0  0  0  0
  7  9  1  0  0  0  0
  8 17  1  0  0  0  0
  9 13  2  0  0  0  0
 10  8  2  0  0  0  0
 11  7  2  0  0  0  0
 11 14  1  0  0  0  0
 12  2  1  0  0  0  0
 14  4  2  0  0  0  0
 15  1  2  0  0  0  0
 15 21  1  0  0  0  0
 16 11  1  0  0  0  0
 17 21  1  0  0  0  0
 18 14  1  0  0  0  0
 19 20  2  0  0  0  0
 19  8  1  0  0  0  0
 20 15  1  0  0  0  0
 21  3  2  0  0  0  0
 22 26  1  0  0  0  0
 23 12  1  0  0  0  0
 23 27  1  0  0  0  0
 24 23  2  0  0  0  0
 25 24  1  0  0  0  0
 25 22  2  0  0  0  0
 26 27  2  0  0  0  0
M  END
>  <MODEL>
1

>  <REMARK>
 VINA RESULT:      -8.2      0.000      0.000
  Name = 
  1 active torsions:
  status: ('A' for Active; 'I' for Inactive)
    1  A    between atoms: C_9  and  N_15
                            x       y       z     vdW  Elec       q    Type
                         _______ _______ _______ _____ _____    ______ ____

>  <TORSDO>
F 1

$$$$
=
 OpenBabel10272401043D

 27 31  0  0  1  0  0  0  0  0999 V2000
  189.6040  176.5720  140.4260 C   0  0  0  0  0  3  0  0  0  0  0  0
  187.7350  177.8190  141.4540 C   0  0  0  0  0  0  0  0  0  0  0  0
  187.8030  178.6330  139.1460 N   0  0  0  0  0  0  0  0  0  0  0  0
  183.6940  177.6210  141.4590 C   0  0  0  0  0  3  0  0  0  0  0  0
  182.6960  177.9950  140.6600 C   0  0  0  0  0  3  0  0  0  0  0  0
  186.9830  177.5760  142.7040 C   0  0  0  0  0  3  0  0  0  0  0  0
  185.1390  179.4430  139.4650 C   0  0  0  0  0  3  0  0  0  0  0  0
  189.6090  177.3360  136.3270 C   0  0  0  0  0  0  0  0  0  0  0  0
  183.7300  179.8710  139.3570 C   0  0  0  0  0  3  0  0  0  0  0  0
  189.5920  177.5030  135.0810 O   0  0  0  0  0  0  0  0  0  0  0  0
  185.6840  178.7520  140.4750 C   0  0  0  0  0  0  0  0  0  0  0  0
  189.1310  177.4770  141.4290 N   0  0  0  0  0  0  0  0  0  0  0  0
  182.6680  179.2400  139.8710 C   0  0  0  0  0  3  0  0  0  0  0  0
  184.8860  178.4780  141.7280 C   0  0  2  0  0  3  0  0  0  0  0  0
  189.4090  176.7690  139.1270 C   0  0  0  0  0  0  0  0  0  0  0  0
  187.1140  178.3500  140.3790 C   0  0  0  0  0  0  0  0  0  0  0  0
  189.2410  178.4780  137.2310 C   0  0  0  0  0  2  0  0  0  0  0  0
  185.6930  177.8710  142.8340 C   0  0  0  0  0  3  0  0  0  0  0  0
  190.0600  176.0490  136.8820 C   0  0  0  0  0  3  0  0  0  0  0  0
  189.9900  175.7970  138.1900 C   0  0  0  0  0  3  0  0  0  0  0  0
  188.7860  177.9980  138.5780 C   0  0  0  0  0  0  0  0  0  0  0  0
  191.6220  178.4000  144.7580 C   0  0  0  0  0  3  0  0  0  0  0  0
  189.9920  177.7930  142.5470 C   0  0  0  0  0  0  0  0  0  0  0  0
  190.5590  176.7670  143.3220 C   0  0  0  0  0  3  0  0  0  0  0  0
  191.3720  177.0680  144.4180 C   0  0  0  0  0  3  0  0  0  0  0  0
  191.0560  179.4290  144.0030 C   0  0  0  0  0  3  0  0  0  0  0  0
  190.2430  179.1290  142.9080 C   0  0  0  0  0  3  0  0  0  0  0  0
  1 12  1  0  0  0  0
  2  6  1  0  0  0  0
  3 16  1  0  0  0  0
  5  4  2  0  0  0  0
  6 18  2  0  0  0  0
  7 11  2  0  0  0  0
  8 19  1  0  0  0  0
  8 17  1  0  0  0  0
  9  7  1  0  0  0  0
  9 13  2  0  0  0  0
 10  8  2  0  0  0  0
 11 14  1  0  0  0  0
 12  2  1  0  0  0  0
 12 23  1  0  0  0  0
 13  5  1  0  0  0  0
 14  4  1  6  0  0  0
 14 18  1  0  0  0  0
 15  1  2  0  0  0  0
 16 11  1  0  0  0  0
 16  2  2  0  0  0  0
 17 21  1  0  0  0  0
 19 20  2  0  0  0  0
 20 15  1  0  0  0  0
 21 15  1  0  0  0  0
 21  3  2  0  0  0  0
 23 27  2  0  0  0  0
 23 24  1  0  0  0  0
 24 25  2  0  0  0  0
 25 22  1  0  0  0  0
 26 22  2  0  0  0  0
 27 26  1  0  0  0  0
M  END
>  <MODEL>
2

>  <REMARK>
 VINA RESULT:      -7.8      2.947      6.542
  Name = 
  1 active torsions:
  status: ('A' for Active; 'I' for Inactive)
    1  A    between atoms: C_9  and  N_15
                            x       y       z     vdW  Elec       q    Type
                         _______ _______ _______ _____ _____    ______ ____

>  <TORSDO>
F 1

$$$$
=
 OpenBabel10272401043D

 27 31  0  0  1  0  0  0  0  0999 V2000
  188.3740  177.8840  139.3530 C   0  0  0  0  0  3  0  0  0  0  0  0
  190.5860  176.7840  139.3410 C   0  0  0  0  0  0  0  0  0  0  0  0
  189.2680  175.5010  137.7260 N   0  0  0  0  0  0  0  0  0  0  0  0
  193.8640  176.7530  136.9710 C   0  0  0  0  0  3  0  0  0  0  0  0
  194.2470  176.1620  135.8390 C   0  0  0  0  0  3  0  0  0  0  0  0
  191.8980  177.2450  139.8440 C   0  0  0  0  0  3  0  0  0  0  0  0
  191.6860  174.6310  136.6050 C   0  0  0  0  0  3  0  0  0  0  0  0
  186.0740  176.2640  136.2760 C   0  0  0  0  0  0  0  0  0  0  0  0
  192.8050  174.1120  135.7940 C   0  0  0  0  0  3  0  0  0  0  0  0
  185.3840  175.8350  135.3150 O   0  0  0  0  0  0  0  0  0  0  0  0
  191.7670  175.5510  137.5760 C   0  0  0  0  0  0  0  0  0  0  0  0
  189.4080  177.1890  140.0580 N   0  0  0  0  0  0  0  0  0  0  0  0
  193.9160  174.7780  135.4560 C   0  0  0  0  0  3  0  0  0  0  0  0
  193.1160  176.0400  138.0480 C   0  0  2  0  0  3  0  0  0  0  0  0
  187.8020  177.4030  138.2550 C   0  0  0  0  0  0  0  0  0  0  0  0
  190.5160  176.0020  138.2430 C   0  0  0  0  0  0  0  0  0  0  0  0
  186.9840  175.3230  137.0120 C   0  0  0  0  0  2  0  0  0  0  0  0
  193.0460  176.9130  139.2630 C   0  0  0  0  0  3  0  0  0  0  0  0
  185.9230  177.6630  136.7100 C   0  0  0  0  0  3  0  0  0  0  0  0
  186.7120  178.1840  137.6500 C   0  0  0  0  0  3  0  0  0  0  0  0
  188.0910  176.0530  137.7140 C   0  0  0  0  0  0  0  0  0  0  0  0
  189.2710  177.0820  144.3140 C   0  0  0  0  0  3  0  0  0  0  0  0
  189.3750  177.1670  141.5030 C   0  0  0  0  0  0  0  0  0  0  0  0
  190.1070  176.2040  142.2180 C   0  0  0  0  0  3  0  0  0  0  0  0
  190.0580  176.1630  143.6140 C   0  0  0  0  0  3  0  0  0  0  0  0
  188.5310  178.0380  143.6160 C   0  0  0  0  0  3  0  0  0  0  0  0
  188.5790  178.0790  142.2200 C   0  0  0  0  0  3  0  0  0  0  0  0
  1 12  1  0  0  0  0
  2  6  1  0  0  0  0
  2 12  1  0  0  0  0
  3 16  1  0  0  0  0
  5  4  2  0  0  0  0
  7 11  2  0  0  0  0
  8 19  1  0  0  0  0
  8 17  1  0  0  0  0
  9  7  1  0  0  0  0
 10  8  2  0  0  0  0
 11 14  1  0  0  0  0
 11 16  1  0  0  0  0
 12 23  1  0  0  0  0
 13  9  2  0  0  0  0
 13  5  1  0  0  0  0
 14  4  1  6  0  0  0
 14 18  1  0  0  0  0
 15  1  2  0  0  0  0
 16  2  2  0  0  0  0
 17 21  1  0  0  0  0
 18  6  2  0  0  0  0
 19 20  2  0  0  0  0
 20 15  1  0  0  0  0
 21  3  2  0  0  0  0
 21 15  1  0  0  0  0
 23 24  2  0  0  0  0
 23 27  1  0  0  0  0
 24 25  1  0  0  0  0
 25 22  2  0  0  0  0
 26 22  1  0  0  0  0
 27 26  2  0  0  0  0
M  END
>  <MODEL>
3

>  <REMARK>
 VINA RESULT:      -7.6      4.232      8.492
  Name = 
  1 active torsions:
  status: ('A' for Active; 'I' for Inactive)
    1  A    between atoms: C_9  and  N_15
                            x       y       z     vdW  Elec       q    Type
                         _______ _______ _______ _____ _____    ______ ____

>  <TORSDO>
F 1

$$$$
=
 OpenBabel10272401043D

 27 31  0  0  1  0  0  0  0  0999 V2000
  190.2870  178.2370  141.8340 C   0  0  0  0  0  3  0  0  0  0  0  0
  187.8270  178.0210  141.7470 C   0  0  0  0  0  0  0  0  0  0  0  0
  188.4410  177.0470  143.9090 N   0  0  0  0  0  0  0  0  0  0  0  0
  184.6300  179.9430  143.3120 C   0  0  0  0  0  3  0  0  0  0  0  0
  183.9740  179.9650  144.4720 C   0  0  0  0  0  3  0  0  0  0  0  0
  186.8290  178.6780  140.8770 C   0  0  0  0  0  3  0  0  0  0  0  0
  185.8030  177.5010  144.7410 C   0  0  0  0  0  3  0  0  0  0  0  0
  191.5760  177.1710  145.6520 C   0  0  0  0  0  0  0  0  0  0  0  0
  184.5180  177.7150  145.4350 C   0  0  0  0  0  3  0  0  0  0  0  0
  191.9820  176.9140  146.8150 O   0  0  0  0  0  0  0  0  0  0  0  0
  186.1460  177.9780  143.5370 C   0  0  0  0  0  0  0  0  0  0  0  0
  189.1180  177.7220  141.1880 N   0  0  0  0  0  0  0  0  0  0  0  0
  183.7250  178.7880  145.3220 C   0  0  0  0  0  3  0  0  0  0  0  0
  185.1220  178.6840  142.6790 C   0  0  0  0  0  0  0  0  0  0  0  0
  190.5550  178.0240  143.1170 C   0  0  0  0  0  0  0  0  0  0  0  0
  187.5180  177.7130  143.0250 C   0  0  2  0  0  3  0  0  0  0  0  0
  190.4290  176.3890  145.0800 C   0  0  0  0  0  2  0  0  0  0  0  0
  185.6040  178.9820  141.2930 C   0  0  0  0  0  3  0  0  0  0  0  0
  192.2790  178.1830  144.8450 C   0  0  0  0  0  3  0  0  0  0  0  0
  191.8160  178.5600  143.6530 C   0  0  0  0  0  3  0  0  0  0  0  0
  189.7360  177.1400  143.9810 C   0  0  0  0  0  0  0  0  0  0  0  0
  189.5060  176.1430  137.2520 C   0  0  0  0  0  3  0  0  0  0  0  0
  189.2400  177.1700  139.8580 C   0  0  0  0  0  0  0  0  0  0  0  0
  190.4290  176.5380  139.4550 C   0  0  0  0  0  3  0  0  0  0  0  0
  190.5600  176.0240  138.1610 C   0  0  0  0  0  3  0  0  0  0  0  0
  188.3230  176.7770  137.6360 C   0  0  0  0  0  3  0  0  0  0  0  0
  188.1910  177.2910  138.9280 C   0  0  0  0  0  3  0  0  0  0  0  0
  1 15  2  0  0  0  0
  3 21  2  0  0  0  0
  4  5  2  0  0  0  0
  5 13  1  0  0  0  0
  6 18  1  0  0  0  0
  6  2  2  0  0  0  0
  7  9  1  0  0  0  0
  8 10  2  0  0  0  0
 11  7  2  0  0  0  0
 12  2  1  0  0  0  0
 12  1  1  0  0  0  0
 13  9  2  0  0  0  0
 14  4  1  0  0  0  0
 14 11  1  0  0  0  0
 15 20  1  0  0  0  0
 15 21  1  0  0  0  0
 16  2  1  6  0  0  0
 16 11  1  0  0  0  0
 16  3  1  0  0  0  0
 17  8  1  0  0  0  0
 18 14  2  0  0  0  0
 19  8  1  0  0  0  0
 20 19  2  0  0  0  0
 21 17  1  0  0  0  0
 22 26  2  0  0  0  0
 22 25  1  0  0  0  0
 23 12  1  0  0  0  0
 24 23  1  0  0  0  0
 25 24  2  0  0  0  0
 26 27  1  0  0  0  0
 27 23  2  0  0  0  0
M  END
>  <MODEL>
4

>  <REMARK>
 VINA RESULT:      -7.2      2.739      5.188
  Name = 
  1 active torsions:
  status: ('A' for Active; 'I' for Inactive)
    1  A    between atoms: C_9  and  N_15
                            x       y       z     vdW  Elec       q    Type
                         _______ _______ _______ _____ _____    ______ ____

>  <TORSDO>
F 1

$$$$
=
 OpenBabel10272401043D

 27 31  0  0  1  0  0  0  0  0999 V2000
  187.7180  176.9180  143.7070 C   0  0  0  0  0  3  0  0  0  0  0  0
  185.6280  178.1570  143.2640 C   0  0  0  0  0  0  0  0  0  0  0  0
  187.1140  178.8080  141.4300 N   0  0  0  0  0  0  0  0  0  0  0  0
  182.4400  177.7980  140.8000 C   0  0  0  0  0  3  0  0  0  0  0  0
  182.1510  178.0730  139.5290 C   0  0  0  0  0  3  0  0  0  0  0  0
  184.2630  177.9740  143.8020 C   0  0  0  0  0  3  0  0  0  0  0  0
  184.8280  179.5310  139.9770 C   0  0  0  0  0  3  0  0  0  0  0  0
  190.2570  177.3900  140.4340 C   0  0  0  0  0  0  0  0  0  0  0  0
  183.7900  179.8930  138.9910 C   0  0  0  0  0  3  0  0  0  0  0  0
  191.0140  177.4660  139.4320 O   0  0  0  0  0  0  0  0  0  0  0  0
  184.6270  178.9360  141.1600 C   0  0  0  0  0  0  0  0  0  0  0  0
  186.7390  177.8710  144.1310 N   0  0  0  0  0  0  0  0  0  0  0  0
  182.6290  179.2570  138.7920 C   0  0  0  0  0  3  0  0  0  0  0  0
  183.2230  178.7200  141.6750 C   0  0  2  0  0  3  0  0  0  0  0  0
  188.3680  177.0150  142.5530 C   0  0  0  0  0  0  0  0  0  0  0  0
  185.8070  178.5860  141.9960 C   0  0  0  0  0  0  0  0  0  0  0  0
  189.4240  178.5770  140.8240 C   0  0  0  0  0  2  0  0  0  0  0  0
  183.1700  178.2250  143.0870 C   0  0  0  0  0  3  0  0  0  0  0  0
  190.2550  176.1640  141.2500 C   0  0  0  0  0  3  0  0  0  0  0  0
  189.3910  176.0020  142.2530 C   0  0  0  0  0  3  0  0  0  0  0  0
  188.2300  178.1750  141.6400 C   0  0  0  0  0  0  0  0  0  0  0  0
  186.6900  179.0870  148.2120 C   0  0  0  0  0  3  0  0  0  0  0  0
  186.7320  178.3000  145.5110 C   0  0  0  0  0  0  0  0  0  0  0  0
  187.6760  177.7920  146.4210 C   0  0  0  0  0  3  0  0  0  0  0  0
  187.6570  178.1850  147.7610 C   0  0  0  0  0  3  0  0  0  0  0  0
  185.7400  179.5920  147.3220 C   0  0  0  0  0  3  0  0  0  0  0  0
  185.7580  179.1990  145.9820 C   0  0  0  0  0  3  0  0  0  0  0  0
  1 12  1  0  0  0  0
  2  6  1  0  0  0  0
  2 12  1  0  0  0  0
  3 21  2  0  0  0  0
  3 16  1  0  0  0  0
  5  4  2  0  0  0  0
  7 11  2  0  0  0  0
  8 17  1  0  0  0  0
  8 19  1  0  0  0  0
  9  7  1  0  0  0  0
 10  8  2  0  0  0  0
 11 14  1  0  0  0  0
 11 16  1  0  0  0  0
 12 23  1  0  0  0  0
 13  9  2  0  0  0  0
 13  5  1  0  0  0  0
 14  4  1  6  0  0  0
 14 18  1  0  0  0  0
 15  1  2  0  0  0  0
 16  2  2  0  0  0  0
 17 21  1  0  0  0  0
 18  6  2  0  0  0  0
 19 20  2  0  0  0  0
 20 15  1  0  0  0  0
 21 15  1  0  0  0  0
 23 27  2  0  0  0  0
 23 24  1  0  0  0  0
 24 25  2  0  0  0  0
 25 22  1  0  0  0  0
 26 22  2  0  0  0  0
 27 26  1  0  0  0  0
M  END
>  <MODEL>
5

>  <REMARK>
 VINA RESULT:      -7.2      1.291      5.799
  Name = 
  1 active torsions:
  status: ('A' for Active; 'I' for Inactive)
    1  A    between atoms: C_9  and  N_15
                            x       y       z     vdW  Elec       q    Type
                         _______ _______ _______ _____ _____    ______ ____

>  <TORSDO>
F 1

$$$$
=
 OpenBabel10272401043D

 27 31  0  0  0  0  0  0  0  0999 V2000
  188.9840  175.9340  138.3980 C   0  0  0  0  0  3  0  0  0  0  0  0
  188.9940  177.1510  140.5480 C   0  0  0  0  0  0  0  0  0  0  0  0
  187.2420  178.2540  139.2410 N   0  0  0  0  0  0  0  0  0  0  0  0
  186.7680  177.2090  143.9260 C   0  0  0  0  0  3  0  0  0  0  0  0
  185.6170  177.7470  144.3290 C   0  0  0  0  0  2  0  0  0  0  0  0
  189.5820  176.7950  141.8570 C   0  0  0  0  0  3  0  0  0  0  0  0
  186.1700  179.1820  141.6590 C   0  0  0  0  0  3  0  0  0  0  0  0
  185.7110  177.2260  136.1610 C   0  0  0  0  0  0  0  0  0  0  0  0
  185.3740  179.7080  142.7860 C   0  0  0  0  0  3  0  0  0  0  0  0
  184.6960  177.5540  135.4950 O   0  0  0  0  0  0  0  0  0  0  0  0
  187.2020  178.3320  141.7440 C   0  0  0  0  0  0  0  0  0  0  0  0
  189.6850  176.7280  139.3600 N   0  0  0  0  0  0  0  0  0  0  0  0
  185.1300  179.0830  143.9440 C   0  0  0  0  0  3  0  0  0  0  0  0
  187.7630  177.9480  143.0930 C   0  0  0  0  0  0  0  0  0  0  0  0
  187.8330  176.3120  137.8520 C   0  0  0  0  0  0  0  0  0  0  0  0
  187.8440  177.8560  140.4880 C   0  0  0  0  0  0  0  0  0  0  0  0
  186.4210  178.2610  136.9860 C   0  0  0  0  0  2  0  0  0  0  0  0
  189.0290  177.1510  143.0130 C   0  0  0  0  0  3  0  0  0  0  0  0
  186.2300  175.8510  136.0630 C   0  0  0  0  0  3  0  0  0  0  0  0
  187.2360  175.4350  136.8340 C   0  0  0  0  0  3  0  0  0  0  0  0
  187.2170  177.6380  138.0960 C   0  0  0  0  0  0  0  0  0  0  0  0
  193.9260  177.0050  139.0820 C   0  0  0  0  0  3  0  0  0  0  0  0
  191.1230  176.8410  139.2600 C   0  0  0  0  0  0  0  0  0  0  0  0
  191.8020  176.3240  138.1420 C   0  0  0  0  0  3  0  0  0  0  0  0
  193.1940  176.4090  138.0520 C   0  0  0  0  0  3  0  0  0  0  0  0
  193.2660  177.5130  140.2030 C   0  0  0  0  0  3  0  0  0  0  0  0
  191.8740  177.4280  140.2930 C   0  0  0  0  0  3  0  0  0  0  0  0
  1 12  1  0  0  0  0
  2  6  1  0  0  0  0
  3 16  1  0  0  0  0
  4  5  1  0  0  0  0
  6 18  2  0  0  0  0
  7 11  2  0  0  0  0
  7  9  1  0  0  0  0
  8 17  1  0  0  0  0
  9 13  2  0  0  0  0
 10  8  2  0  0  0  0
 11 14  1  0  0  0  0
 12  2  1  0  0  0  0
 13  5  1  0  0  0  0
 14  4  2  0  0  0  0
 15 21  1  0  0  0  0
 15  1  2  0  0  0  0
 16  2  2  0  0  0  0
 16 11  1  0  0  0  0
 17 21  1  0  0  0  0
 18 14  1  0  0  0  0
 19  8  1  0  0  0  0
 19 20  2  0  0  0  0
 20 15  1  0  0  0  0
 21  3  2  0  0  0  0
 22 26  1  0  0  0  0
 23 12  1  0  0  0  0
 23 27  1  0  0  0  0
 24 23  2  0  0  0  0
 25 24  1  0  0  0  0
 25 22  2  0  0  0  0
 26 27  2  0  0  0  0
M  END
>  <MODEL>
6

>  <REMARK>
 VINA RESULT:      -6.9      3.349      6.771
  Name = 
  1 active torsions:
  status: ('A' for Active; 'I' for Inactive)
    1  A    between atoms: C_9  and  N_15
                            x       y       z     vdW  Elec       q    Type
                         _______ _______ _______ _____ _____    ______ ____

>  <TORSDO>
F 1

$$$$
=
 OpenBabel10272401043D

 27 31  0  0  1  0  0  0  0  0999 V2000
  184.4810  179.5390  140.2050 C   0  0  0  0  0  3  0  0  0  0  0  0
  186.4970  178.2040  139.7000 C   0  0  0  0  0  0  0  0  0  0  0  0
  184.7940  177.3210  138.1780 N   0  0  0  0  0  0  0  0  0  0  0  0
  189.3570  178.1290  136.8390 C   0  0  0  0  0  3  0  0  0  0  0  0
  189.4860  177.6630  135.5970 C   0  0  0  0  0  3  0  0  0  0  0  0
  187.9190  178.4360  140.0340 C   0  0  0  0  0  3  0  0  0  0  0  0
  186.8800  176.3450  136.5810 C   0  0  0  0  0  3  0  0  0  0  0  0
  181.5550  178.6440  137.3730 C   0  0  0  0  0  0  0  0  0  0  0  0
  187.7870  175.8200  135.5400 C   0  0  0  0  0  3  0  0  0  0  0  0
  180.6800  178.4370  136.4930 O   0  0  0  0  0  0  0  0  0  0  0  0
  187.2280  177.1040  137.6290 C   0  0  0  0  0  0  0  0  0  0  0  0
  185.5030  178.6380  140.6430 N   0  0  0  0  0  0  0  0  0  0  0  0
  188.9160  176.3950  135.1090 C   0  0  0  0  0  3  0  0  0  0  0  0
  188.6850  177.3630  137.9300 C   0  0  2  0  0  3  0  0  0  0  0  0
  183.6930  179.2870  139.1660 C   0  0  0  0  0  0  0  0  0  0  0  0
  186.1610  177.5970  138.5410 C   0  0  0  0  0  0  0  0  0  0  0  0
  182.4270  177.5100  137.8310 C   0  0  0  0  0  2  0  0  0  0  0  0
  188.9140  178.0590  139.2360 C   0  0  0  0  0  3  0  0  0  0  0  0
  181.6620  179.9770  137.9910 C   0  0  0  0  0  3  0  0  0  0  0  0
  182.6440  180.2660  138.8460 C   0  0  0  0  0  3  0  0  0  0  0  0
  183.7140  178.0020  138.4260 C   0  0  0  0  0  0  0  0  0  0  0  0
  186.0480  178.0380  144.8240 C   0  0  0  0  0  3  0  0  0  0  0  0
  185.6790  178.4170  142.0610 C   0  0  0  0  0  0  0  0  0  0  0  0
  184.7840  178.9790  142.9870 C   0  0  0  0  0  3  0  0  0  0  0  0
  184.9650  178.7880  144.3600 C   0  0  0  0  0  3  0  0  0  0  0  0
  186.9510  177.4820  143.9160 C   0  0  0  0  0  3  0  0  0  0  0  0
  186.7710  177.6730  142.5440 C   0  0  0  0  0  3  0  0  0  0  0  0
  1 12  1  0  0  0  0
  2  6  1  0  0  0  0
  2 12  1  0  0  0  0
  3 21  2  0  0  0  0
  3 16  1  0  0  0  0
  5  4  2  0  0  0  0
  7 11  2  0  0  0  0
  8 17  1  0  0  0  0
  8 19  1  0  0  0  0
  9  7  1  0  0  0  0
 10  8  2  0  0  0  0
 11 14  1  0  0  0  0
 11 16  1  0  0  0  0
 12 23  1  0  0  0  0
 13  9  2  0  0  0  0
 13  5  1  0  0  0  0
 14  4  1  6  0  0  0
 14 18  1  0  0  0  0
 15  1  2  0  0  0  0
 16  2  2  0  0  0  0
 17 21  1  0  0  0  0
 18  6  2  0  0  0  0
 19 20  2  0  0  0  0
 20 15  1  0  0  0  0
 21 15  1  0  0  0  0
 23 27  2  0  0  0  0
 23 24  1  0  0  0  0
 24 25  2  0  0  0  0
 25 22  1  0  0  0  0
 26 22  2  0  0  0  0
 27 26  1  0  0  0  0
M  END
>  <MODEL>
7

>  <REMARK>
 VINA RESULT:      -6.9      3.658      7.715
  Name = 
  1 active torsions:
  status: ('A' for Active; 'I' for Inactive)
    1  A    between atoms: C_9  and  N_15
                            x       y       z     vdW  Elec       q    Type
                         _______ _______ _______ _____ _____    ______ ____

>  <TORSDO>
F 1

$$$$
=
 OpenBabel10272401043D

 27 31  0  0  1  0  0  0  0  0999 V2000
  182.5500  178.7120  140.5270 C   0  0  0  0  0  3  0  0  0  0  0  0
  183.9500  178.4630  138.5070 C   0  0  0  0  0  0  0  0  0  0  0  0
  185.5510  178.9690  140.2890 N   0  0  0  0  0  0  0  0  0  0  0  0
  186.3510  175.6300  136.9010 C   0  0  0  0  0  3  0  0  0  0  0  0
  187.5990  175.1950  137.0710 C   0  0  0  0  0  3  0  0  0  0  0  0
  183.6480  177.8610  137.1900 C   0  0  0  0  0  3  0  0  0  0  0  0
  187.5400  177.8210  138.6810 C   0  0  0  0  0  3  0  0  0  0  0  0
  185.0570  179.0250  143.8440 C   0  0  0  0  0  0  0  0  0  0  0  0
  188.7300  177.1960  138.0710 C   0  0  0  0  0  3  0  0  0  0  0  0
  185.7920  179.0590  144.8650 O   0  0  0  0  0  0  0  0  0  0  0  0
  186.2790  177.7330  138.2360 C   0  0  0  0  0  0  0  0  0  0  0  0
  182.8860  179.1340  139.2020 N   0  0  0  0  0  0  0  0  0  0  0  0
  188.7570  176.0530  137.3760 C   0  0  0  0  0  3  0  0  0  0  0  0
  185.9860  177.0780  136.9060 C   0  0  0  0  0  0  0  0  0  0  0  0
  183.4400  178.6470  141.5110 C   0  0  0  0  0  0  0  0  0  0  0  0
  185.1940  178.3780  139.0240 C   0  0  2  0  0  3  0  0  0  0  0  0
  185.5190  179.6880  142.5780 C   0  0  0  0  0  2  0  0  0  0  0  0
  184.5650  177.2320  136.4620 C   0  0  0  0  0  3  0  0  0  0  0  0
  183.7260  178.4010  143.9280 C   0  0  0  0  0  3  0  0  0  0  0  0
  182.9640  178.2500  142.8440 C   0  0  0  0  0  3  0  0  0  0  0  0
  184.8410  179.1130  141.3690 C   0  0  0  0  0  0  0  0  0  0  0  0
  180.1850  181.7320  137.1770 C   0  0  0  0  0  3  0  0  0  0  0  0
  181.9780  180.0130  138.4980 C   0  0  0  0  0  0  0  0  0  0  0  0
  182.1640  181.4050  138.5320 C   0  0  0  0  0  3  0  0  0  0  0  0
  181.2750  182.2590  137.8730 C   0  0  0  0  0  3  0  0  0  0  0  0
  179.9830  180.3500  137.1430 C   0  0  0  0  0  3  0  0  0  0  0  0
  180.8710  179.4960  137.8020 C   0  0  0  0  0  3  0  0  0  0  0  0
  1 15  2  0  0  0  0
  2 16  1  0  0  0  0
  2 12  1  0  0  0  0
  3 21  2  0  0  0  0
  4 14  1  0  0  0  0
  4  5  2  0  0  0  0
  5 13  1  0  0  0  0
  6  2  2  0  0  0  0
  8 19  1  0  0  0  0
  8 10  2  0  0  0  0
  9  7  1  0  0  0  0
 11  7  2  0  0  0  0
 12  1  1  0  0  0  0
 13  9  2  0  0  0  0
 14 11  1  0  0  0  0
 15 20  1  0  0  0  0
 16 11  1  6  0  0  0
 16  3  1  0  0  0  0
 17  8  1  0  0  0  0
 18 14  2  0  0  0  0
 18  6  1  0  0  0  0
 20 19  2  0  0  0  0
 21 15  1  0  0  0  0
 21 17  1  0  0  0  0
 22 25  1  0  0  0  0
 23 24  1  0  0  0  0
 23 12  1  0  0  0  0
 25 24  2  0  0  0  0
 26 22  2  0  0  0  0
 26 27  1  0  0  0  0
 27 23  2  0  0  0  0
M  END
>  <MODEL>
8

>  <REMARK>
 VINA RESULT:      -6.9      3.607      7.080
  Name = 
  1 active torsions:
  status: ('A' for Active; 'I' for Inactive)
    1  A    between atoms: C_9  and  N_15
                            x       y       z     vdW  Elec       q    Type
                         _______ _______ _______ _____ _____    ______ ____

>  <TORSDO>
F 1

$$$$
=
 OpenBabel10272401043D

 27 31  0  0  0  0  0  0  0  0999 V2000
  187.4360  178.9630  140.4790 C   0  0  0  0  0  3  0  0  0  0  0  0
  187.7640  177.8230  142.6460 C   0  0  0  0  0  0  0  0  0  0  0  0
  189.0350  176.4650  141.0540 N   0  0  0  0  0  0  0  0  0  0  0  0
  190.6670  177.5820  145.4530 C   0  0  0  0  0  3  0  0  0  0  0  0
  191.8070  176.9140  145.6260 C   0  0  0  0  0  2  0  0  0  0  0  0
  187.5310  178.2920  144.0290 C   0  0  0  0  0  3  0  0  0  0  0  0
  190.5040  175.4810  143.2300 C   0  0  0  0  0  3  0  0  0  0  0  0
  189.9470  177.1940  137.6590 C   0  0  0  0  0  0  0  0  0  0  0  0
  191.4640  174.8920  144.1840 C   0  0  0  0  0  3  0  0  0  0  0  0
  190.7410  176.7170  136.8080 O   0  0  0  0  0  0  0  0  0  0  0  0
  189.6250  176.4590  143.4880 C   0  0  0  0  0  0  0  0  0  0  0  0
  186.8790  178.2950  141.6160 N   0  0  0  0  0  0  0  0  0  0  0  0
  192.0340  175.5150  145.2220 C   0  0  0  0  0  3  0  0  0  0  0  0
  189.4310  176.9530  144.9030 C   0  0  0  0  0  0  0  0  0  0  0  0
  188.3820  178.4240  139.7180 C   0  0  0  0  0  0  0  0  0  0  0  0
  188.7790  176.9750  142.3770 C   0  0  0  0  0  0  0  0  0  0  0  0
  189.3220  176.2840  138.6790 C   0  0  0  0  0  2  0  0  0  0  0  0
  188.2830  177.9030  145.0540 C   0  0  0  0  0  3  0  0  0  0  0  0
  189.5860  178.6200  137.5980 C   0  0  0  0  0  3  0  0  0  0  0  0
  188.8360  179.1850  138.5440 C   0  0  0  0  0  3  0  0  0  0  0  0
  188.8750  177.0370  139.8970 C   0  0  0  0  0  0  0  0  0  0  0  0
  182.6780  178.5600  142.2620 C   0  0  0  0  0  3  0  0  0  0  0  0
  185.4530  178.3660  141.8380 C   0  0  0  0  0  0  0  0  0  0  0  0
  184.5630  178.4050  140.7510 C   0  0  0  0  0  3  0  0  0  0  0  0
  183.1840  178.4980  140.9620 C   0  0  0  0  0  3  0  0  0  0  0  0
  183.5510  178.5320  143.3520 C   0  0  0  0  0  3  0  0  0  0  0  0
  184.9290  178.4390  143.1420 C   0  0  0  0  0  3  0  0  0  0  0  0
  1 12  1  0  0  0  0
  2  6  1  0  0  0  0
  3 16  1  0  0  0  0
  4  5  1  0  0  0  0
  6 18  2  0  0  0  0
  7 11  2  0  0  0  0
  7  9  1  0  0  0  0
  8 17  1  0  0  0  0
  9 13  2  0  0  0  0
 10  8  2  0  0  0  0
 11 14  1  0  0  0  0
 12 23  1  0  0  0  0
 12  2  1  0  0  0  0
 13  5  1  0  0  0  0
 14 18  1  0  0  0  0
 14  4  2  0  0  0  0
 15 21  1  0  0  0  0
 15  1  2  0  0  0  0
 16  2  2  0  0  0  0
 16 11  1  0  0  0  0
 17 21  1  0  0  0  0
 19  8  1  0  0  0  0
 19 20  2  0  0  0  0
 20 15  1  0  0  0  0
 21  3  2  0  0  0  0
 22 26  1  0  0  0  0
 23 27  1  0  0  0  0
 24 25  1  0  0  0  0
 24 23  2  0  0  0  0
 25 22  2  0  0  0  0
 27 26  2  0  0  0  0
M  END
>  <MODEL>
9

>  <REMARK>
 VINA RESULT:      -6.8      2.227      3.170
  Name = 
  1 active torsions:
  status: ('A' for Active; 'I' for Inactive)
    1  A    between atoms: C_9  and  N_15
                            x       y       z     vdW  Elec       q    Type
                         _______ _______ _______ _____ _____    ______ ____

>  <TORSDO>
F 1

$$$$
