=
 OpenBabel10272414453D

 37 44  0  0  1  0  0  0  0  0999 V2000
  184.0920  177.9550  141.8530 O   0  0  0  0  0  0  0  0  0  0  0  0
  189.5730  178.0640  141.2650 C   0  0  0  0  0  3  0  0  0  0  0  0
  186.6170  178.0720  137.9610 N   0  0  0  0  0  0  0  0  0  0  0  0
  182.9430  178.2380  137.4390 C   0  0  0  0  0  2  0  0  0  0  0  0
  188.6910  177.4390  139.0480 C   0  0  0  0  0  0  0  0  0  0  0  0
  185.2590  178.4070  138.3980 C   0  0  1  0  0  3  0  0  0  0  0  0
  187.4210  177.8510  139.1150 C   0  0  0  0  0  0  0  0  0  0  0  0
  184.1970  177.4640  137.7960 C   0  0  1  0  0  0  0  0  0  0  0  0
  189.3430  177.2730  137.7140 C   0  0  0  0  0  2  0  0  0  0  0  0
  186.6340  178.1380  140.3080 C   0  0  0  0  0  0  0  0  0  0  0  0
  186.2570  179.2260  142.3810 O   0  0  0  0  0  1  0  0  0  0  0  0
  186.8920  177.1150  135.7090 C   0  0  0  0  0  2  0  0  0  0  0  0
  188.9330  178.6930  136.6400 S   0  0  0  0  0  0  0  0  0  0  0  0
  187.1230  178.6460  141.4640 C   0  0  0  0  0  0  0  0  0  0  0  0
  182.8890  177.2100  138.5580 C   0  0  1  0  0  3  0  0  0  0  0  0
  187.1390  178.3150  136.6110 C   0  0  2  0  0  3  0  0  0  0  0  0
  185.2830  178.3200  139.8620 N   0  0  0  0  0  0  0  0  0  0  0  0
  189.4110  176.9730  140.2640 C   0  0  0  0  0  2  0  0  0  0  0  0
  184.6150  176.3910  136.7720 C   0  0  2  0  0  3  0  0  0  0  0  0
  188.5620  178.7530  141.7950 C   0  0  0  0  0  3  0  0  0  0  0  0
  182.8560  177.8590  139.8690 N   0  0  0  0  0  0  0  0  0  0  0  0
  184.0790  178.0560  140.5970 C   0  0  0  0  0  0  0  0  0  0  0  0
  185.1590  177.0670  135.1710 S   0  0  0  0  0  0  0  0  0  0  0  0
  182.4810  175.3060  136.1260 C   0  0  0  0  0  3  0  0  0  0  0  0
  183.7610  175.1520  136.6700 C   0  0  0  0  0  0  0  0  0  0  0  0
  184.1960  173.8610  137.0560 C   0  0  0  0  0  0  0  0  0  0  0  0
  185.5470  173.6120  137.6350 C   0  0  0  0  0  1  0  0  0  0  0  0
  182.0640  172.9360  136.3570 C   0  0  0  0  0  3  0  0  0  0  0  0
  183.3400  172.7660  136.8960 C   0  0  0  0  0  3  0  0  0  0  0  0
  181.6350  174.2060  135.9710 C   0  0  0  0  0  3  0  0  0  0  0  0
  181.5410  178.0310  140.4900 C   0  0  1  0  0  3  0  0  0  0  0  0
  179.9820  179.9320  140.1380 C   0  0  0  0  0  2  0  0  0  0  0  0
  180.0140  180.7860  142.3520 O   0  0  0  0  0  1  0  0  0  0  0  0
  181.2670  179.4940  140.8100 C   0  0  1  0  0  3  0  0  0  0  0  0
  179.9880  179.6030  141.6160 C   0  0  2  0  0  3  0  0  0  0  0  0
  180.4360  177.4580  139.6100 C   0  0  0  0  0  2  0  0  0  0  0  0
  180.0240  176.0860  140.1080 C   0  0  0  0  0  1  0  0  0  0  0  0
  2 20  2  0  0  0  0
  3  7  1  0  0  0  0
  5  7  2  0  0  0  0
  5 18  1  0  0  0  0
  6  3  1  6  0  0  0
  6 17  1  0  0  0  0
  7 10  1  0  0  0  0
  8  4  1  6  0  0  0
  8  6  1  0  0  0  0
  8 15  1  0  0  0  0
  9  5  1  0  0  0  0
 10 14  2  0  0  0  0
 13  9  1  0  0  0  0
 14 20  1  0  0  0  0
 14 11  1  0  0  0  0
 15  4  1  6  0  0  0
 15 21  1  0  0  0  0
 16 12  1  6  0  0  0
 16 13  1  0  0  0  0
 16  3  1  0  0  0  0
 17 10  1  0  0  0  0
 17 22  1  0  0  0  0
 18  2  1  0  0  0  0
 19 25  1  6  0  0  0
 19  8  1  0  0  0  0
 21 31  1  0  0  0  0
 21 22  1  0  0  0  0
 22  1  2  0  0  0  0
 23 12  1  0  0  0  0
 23 19  1  0  0  0  0
 24 25  1  0  0  0  0
 25 26  2  0  0  0  0
 26 27  1  0  0  0  0
 28 29  2  0  0  0  0
 29 26  1  0  0  0  0
 30 24  2  0  0  0  0
 30 28  1  0  0  0  0
 31 36  1  6  0  0  0
 32 34  1  0  0  0  0
 32 35  1  0  0  0  0
 34 31  1  6  0  0  0
 34 35  1  0  0  0  0
 35 33  1  1  0  0  0
 36 37  1  0  0  0  0
M  END
>  <MODEL>
1

>  <REMARK>
 VINA RESULT:      -6.2      0.000      0.000
  Name = 
  4 active torsions:
  status: ('A' for Active; 'I' for Inactive)
    1  A    between atoms: C_6  and  C_31
    2  A    between atoms: C_11  and  C_26
    3  A    between atoms: C_17  and  C_26
    4  A    between atoms: C_26  and  N_33
                            x       y       z     vdW  Elec       q    Type
                         _______ _______ _______ _____ _____    ______ ____

>  <TORSDO>
F 4

$$$$
=
 OpenBabel10272414453D

 37 44  0  0  1  0  0  0  0  0999 V2000
  183.9760  178.1430  140.6020 O   0  0  0  0  0  0  0  0  0  0  0  0
  189.4860  177.9160  140.5670 C   0  0  0  0  0  3  0  0  0  0  0  0
  186.8500  177.3070  137.0550 N   0  0  0  0  0  0  0  0  0  0  0  0
  183.2550  177.4900  136.1370 C   0  0  0  0  0  2  0  0  0  0  0  0
  188.7750  176.8520  138.4580 C   0  0  0  0  0  0  0  0  0  0  0  0
  185.4800  177.7800  137.2690 C   0  0  1  0  0  3  0  0  0  0  0  0
  187.5310  177.3150  138.3050 C   0  0  0  0  0  0  0  0  0  0  0  0
  184.4230  176.7670  136.7780 C   0  0  1  0  0  0  0  0  0  0  0  0
  189.5360  176.3730  137.2650 C   0  0  0  0  0  2  0  0  0  0  0  0
  186.6560  177.8870  139.3220 C   0  0  0  0  0  0  0  0  0  0  0  0
  186.1550  179.4170  141.0630 O   0  0  0  0  0  1  0  0  0  0  0  0
  187.2730  175.8690  135.1020 C   0  0  0  0  0  2  0  0  0  0  0  0
  189.3090  177.5360  135.8750 S   0  0  0  0  0  0  0  0  0  0  0  0
  187.0660  178.6180  140.3860 C   0  0  0  0  0  0  0  0  0  0  0  0
  183.0390  176.7370  137.4400 C   0  0  1  0  0  3  0  0  0  0  0  0
  187.5060  177.2270  135.7450 C   0  0  2  0  0  3  0  0  0  0  0  0
  185.3640  178.0170  138.7120 N   0  0  0  0  0  0  0  0  0  0  0  0
  189.3530  176.6390  139.8140 C   0  0  0  0  0  2  0  0  0  0  0  0
  184.8700  175.4810  136.0580 C   0  0  2  0  0  3  0  0  0  0  0  0
  188.4720  178.7420  140.8310 C   0  0  0  0  0  3  0  0  0  0  0  0
  182.9240  177.6580  138.5700 N   0  0  0  0  0  0  0  0  0  0  0  0
  184.0850  177.9650  139.3590 C   0  0  0  0  0  0  0  0  0  0  0  0
  185.5970  175.7680  134.4130 S   0  0  0  0  0  0  0  0  0  0  0  0
  182.8160  174.2980  135.3290 C   0  0  0  0  0  3  0  0  0  0  0  0
  183.9580  174.2820  136.1380 C   0  0  0  0  0  0  0  0  0  0  0  0
  184.2150  173.1500  136.9470 C   0  0  0  0  0  0  0  0  0  0  0  0
  185.4130  173.0520  137.8300 C   0  0  0  0  0  1  0  0  0  0  0  0
  182.1850  172.1050  136.1250 C   0  0  0  0  0  3  0  0  0  0  0  0
  183.3230  172.0720  136.9340 C   0  0  0  0  0  3  0  0  0  0  0  0
  181.9330  173.2170  135.3220 C   0  0  0  0  0  3  0  0  0  0  0  0
  181.5700  178.0120  139.0020 C   0  0  1  0  0  3  0  0  0  0  0  0
  179.9820  179.9160  139.1330 C   0  0  0  0  0  2  0  0  0  0  0  0
  181.4570  181.6150  138.3790 O   0  0  0  0  0  1  0  0  0  0  0  0
  181.0810  179.2760  138.3090 C   0  0  1  0  0  3  0  0  0  0  0  0
  181.3870  180.4780  139.1820 C   0  0  2  0  0  3  0  0  0  0  0  0
  180.5990  176.8600  138.7670 C   0  0  0  0  0  2  0  0  0  0  0  0
  180.4470  176.0340  140.0300 C   0  0  0  0  0  1  0  0  0  0  0  0
  2 20  2  0  0  0  0
  3  7  1  0  0  0  0
  5 18  1  0  0  0  0
  6  3  1  1  0  0  0
  6 17  1  0  0  0  0
  7  5  2  0  0  0  0
  7 10  1  0  0  0  0
  8  4  1  6  0  0  0
  8  6  1  0  0  0  0
  8 15  1  0  0  0  0
  9  5  1  0  0  0  0
 10 14  2  0  0  0  0
 13  9  1  0  0  0  0
 14 20  1  0  0  0  0
 14 11  1  0  0  0  0
 15  4  1  6  0  0  0
 15 21  1  0  0  0  0
 16 12  1  1  0  0  0
 16 13  1  0  0  0  0
 16  3  1  0  0  0  0
 17 10  1  0  0  0  0
 17 22  1  0  0  0  0
 18  2  1  0  0  0  0
 19 25  1  6  0  0  0
 19  8  1  0  0  0  0
 21 31  1  0  0  0  0
 21 22  1  0  0  0  0
 22  1  2  0  0  0  0
 23 12  1  0  0  0  0
 23 19  1  0  0  0  0
 24 25  1  0  0  0  0
 25 26  2  0  0  0  0
 26 27  1  0  0  0  0
 28 29  2  0  0  0  0
 29 26  1  0  0  0  0
 30 24  2  0  0  0  0
 30 28  1  0  0  0  0
 31 36  1  6  0  0  0
 32 35  1  0  0  0  0
 34 31  1  1  0  0  0
 34 32  1  0  0  0  0
 34 35  1  0  0  0  0
 35 33  1  6  0  0  0
 36 37  1  0  0  0  0
M  END
>  <MODEL>
2

>  <REMARK>
 VINA RESULT:      -6.1      1.365      1.451
  Name = 
  4 active torsions:
  status: ('A' for Active; 'I' for Inactive)
    1  A    between atoms: C_6  and  C_31
    2  A    between atoms: C_11  and  C_26
    3  A    between atoms: C_17  and  C_26
    4  A    between atoms: C_26  and  N_33
                            x       y       z     vdW  Elec       q    Type
                         _______ _______ _______ _____ _____    ______ ____

>  <TORSDO>
F 4

$$$$
=
 OpenBabel10272414453D

 37 44  0  0  1  0  0  0  0  0999 V2000
  184.0510  178.3420  140.8770 O   0  0  0  0  0  0  0  0  0  0  0  0
  188.0460  177.1860  144.4970 C   0  0  0  0  0  3  0  0  0  0  0  0
  188.5900  177.7290  140.1310 N   0  0  0  0  0  0  0  0  0  0  0  0
  186.6350  178.6990  137.1250 C   0  0  0  0  0  2  0  0  0  0  0  0
  189.0080  176.6880  142.2810 C   0  0  0  0  0  0  0  0  0  0  0  0
  187.4490  178.3790  139.4800 C   0  0  1  0  0  3  0  0  0  0  0  0
  188.2130  177.3780  141.4580 C   0  0  0  0  0  0  0  0  0  0  0  0
  187.0390  177.6770  138.1680 C   0  0  1  0  0  0  0  0  0  0  0  0
  190.3890  176.3250  141.8400 C   0  0  0  0  0  2  0  0  0  0  0  0
  186.8710  177.8840  141.7230 C   0  0  0  0  0  0  0  0  0  0  0  0
  185.2860  179.1110  142.9900 O   0  0  0  0  0  1  0  0  0  0  0  0
  190.2640  176.6450  138.6880 C   0  0  0  0  0  2  0  0  0  0  0  0
  191.1770  177.7560  141.0230 S   0  0  0  0  0  0  0  0  0  0  0  0
  186.4210  178.3140  142.9260 C   0  0  0  0  0  0  0  0  0  0  0  0
  185.5830  177.7570  137.6890 C   0  0  1  0  0  3  0  0  0  0  0  0
  189.9720  177.7930  139.6420 C   0  0  2  0  0  3  0  0  0  0  0  0
  186.3620  178.3480  140.4650 N   0  0  0  0  0  0  0  0  0  0  0  0
  188.4870  176.1210  143.5550 C   0  0  0  0  0  2  0  0  0  0  0  0
  187.8750  176.4970  137.6360 C   0  0  2  0  0  3  0  0  0  0  0  0
  187.1240  178.1070  144.2120 C   0  0  0  0  0  3  0  0  0  0  0  0
  184.7070  178.4480  138.6340 N   0  0  0  0  0  0  0  0  0  0  0  0
  184.9920  178.3930  140.0410 C   0  0  0  0  0  0  0  0  0  0  0  0
  189.5360  176.9680  137.0580 S   0  0  0  0  0  0  0  0  0  0  0  0
  186.5590  174.4060  137.4230 C   0  0  0  0  0  3  0  0  0  0  0  0
  187.1760  175.4800  136.7700 C   0  0  0  0  0  0  0  0  0  0  0  0
  187.0830  175.5760  135.3600 C   0  0  0  0  0  0  0  0  0  0  0  0
  187.7040  176.6920  134.5920 C   0  0  0  0  0  1  0  0  0  0  0  0
  185.7820  173.5280  135.3090 C   0  0  0  0  0  3  0  0  0  0  0  0
  186.3870  174.5960  134.6440 C   0  0  0  0  0  3  0  0  0  0  0  0
  185.8670  173.4340  136.6980 C   0  0  0  0  0  3  0  0  0  0  0  0
  183.4280  178.9380  138.1150 C   0  0  1  0  0  3  0  0  0  0  0  0
  181.1640  178.3240  137.3010 C   0  0  0  0  0  2  0  0  0  0  0  0
  181.8270  176.6880  135.7150 O   0  0  0  0  0  1  0  0  0  0  0  0
  182.5240  177.7870  137.6960 C   0  0  1  0  0  3  0  0  0  0  0  0
  182.1630  177.9390  136.2310 C   0  0  2  0  0  3  0  0  0  0  0  0
  182.7260  179.8300  139.1320 C   0  0  0  0  0  2  0  0  0  0  0  0
  182.4930  181.2110  138.5490 C   0  0  0  0  0  1  0  0  0  0  0  0
  3  7  1  0  0  0  0
  5 18  1  0  0  0  0
  6  3  1  1  0  0  0
  6 17  1  0  0  0  0
  7 10  1  0  0  0  0
  7  5  2  0  0  0  0
  8  4  1  6  0  0  0
  8  6  1  0  0  0  0
  9  5  1  0  0  0  0
 10 14  2  0  0  0  0
 13  9  1  0  0  0  0
 14 11  1  0  0  0  0
 14 20  1  0  0  0  0
 15  4  1  6  0  0  0
 15  8  1  0  0  0  0
 15 21  1  0  0  0  0
 16 12  1  6  0  0  0
 16  3  1  0  0  0  0
 16 13  1  0  0  0  0
 17 10  1  0  0  0  0
 18  2  1  0  0  0  0
 19 25  1  6  0  0  0
 19  8  1  0  0  0  0
 20  2  2  0  0  0  0
 21 22  1  0  0  0  0
 22 17  1  0  0  0  0
 22  1  2  0  0  0  0
 23 19  1  0  0  0  0
 23 12  1  0  0  0  0
 25 24  1  0  0  0  0
 26 25  2  0  0  0  0
 27 26  1  0  0  0  0
 28 30  1  0  0  0  0
 29 28  2  0  0  0  0
 29 26  1  0  0  0  0
 30 24  2  0  0  0  0
 31 21  1  0  0  0  0
 31 36  1  1  0  0  0
 32 34  1  0  0  0  0
 34 31  1  1  0  0  0
 35 33  1  6  0  0  0
 35 32  1  0  0  0  0
 35 34  1  0  0  0  0
 37 36  1  0  0  0  0
M  END
>  <MODEL>
3

>  <REMARK>
 VINA RESULT:      -6.1      2.315      3.791
  Name = 
  4 active torsions:
  status: ('A' for Active; 'I' for Inactive)
    1  A    between atoms: C_6  and  C_31
    2  A    between atoms: C_11  and  C_26
    3  A    between atoms: C_17  and  C_26
    4  A    between atoms: C_26  and  N_33
                            x       y       z     vdW  Elec       q    Type
                         _______ _______ _______ _____ _____    ______ ____

>  <TORSDO>
F 4

$$$$
=
 OpenBabel10272414453D

 37 44  0  0  1  0  0  0  0  0999 V2000
  182.0320  178.8340  142.0320 O   0  0  0  0  0  0  0  0  0  0  0  0
  186.3190  177.6240  145.2830 C   0  0  0  0  0  3  0  0  0  0  0  0
  186.5240  178.4560  140.9330 N   0  0  0  0  0  0  0  0  0  0  0  0
  184.3220  179.5280  138.1400 C   0  0  0  0  0  2  0  0  0  0  0  0
  187.1350  177.3030  142.9770 C   0  0  0  0  0  0  0  0  0  0  0  0
  185.3160  179.0970  140.4070 C   0  0  1  0  0  3  0  0  0  0  0  0
  186.2580  178.0090  142.2580 C   0  0  0  0  0  0  0  0  0  0  0  0
  184.8390  178.4610  139.0840 C   0  0  1  0  0  0  0  0  0  0  0  0
  188.4930  177.0250  142.4190 C   0  0  0  0  0  2  0  0  0  0  0  0
  184.9210  178.4410  142.6480 C   0  0  0  0  0  0  0  0  0  0  0  0
  183.3880  179.5220  144.0990 O   0  0  0  0  0  1  0  0  0  0  0  0
  188.1290  177.5330  139.3100 C   0  0  0  0  0  2  0  0  0  0  0  0
  189.1670  178.5350  141.6420 S   0  0  0  0  0  0  0  0  0  0  0  0
  184.5430  178.7780  143.9040 C   0  0  0  0  0  0  0  0  0  0  0  0
  183.3500  178.5090  138.7140 C   0  0  1  0  0  3  0  0  0  0  0  0
  187.8640  178.6070  140.3540 C   0  0  2  0  0  3  0  0  0  0  0  0
  184.3060  178.9610  141.4610 N   0  0  0  0  0  0  0  0  0  0  0  0
  186.7290  176.6370  144.2450 C   0  0  0  0  0  2  0  0  0  0  0  0
  185.6770  177.3510  138.4210 C   0  0  2  0  0  3  0  0  0  0  0  0
  185.3450  178.5210  145.1220 C   0  0  0  0  0  3  0  0  0  0  0  0
  182.5200  179.1050  139.7610 N   0  0  0  0  0  0  0  0  0  0  0  0
  182.9080  178.9750  141.1380 C   0  0  0  0  0  0  0  0  0  0  0  0
  187.2730  177.9250  137.7580 S   0  0  0  0  0  0  0  0  0  0  0  0
  184.2050  175.3700  138.1850 C   0  0  0  0  0  3  0  0  0  0  0  0
  184.9550  176.3610  137.5410 C   0  0  0  0  0  0  0  0  0  0  0  0
  184.9680  176.4070  136.1270 C   0  0  0  0  0  0  0  0  0  0  0  0
  185.7350  177.4360  135.3670 C   0  0  0  0  0  1  0  0  0  0  0  0
  183.5030  174.4750  136.0520 C   0  0  0  0  0  3  0  0  0  0  0  0
  184.2430  175.4600  135.3960 C   0  0  0  0  0  3  0  0  0  0  0  0
  183.4830  174.4300  137.4460 C   0  0  0  0  0  3  0  0  0  0  0  0
  181.1890  179.5720  139.3650 C   0  0  1  0  0  3  0  0  0  0  0  0
  179.9820  180.8490  137.6100 C   0  0  0  0  0  2  0  0  0  0  0  0
  180.6840  183.0220  138.2550 O   0  0  0  0  0  1  0  0  0  0  0  0
  181.2800  180.7310  138.3820 C   0  0  1  0  0  3  0  0  0  0  0  0
  180.2650  181.7920  138.7600 C   0  0  2  0  0  3  0  0  0  0  0  0
  180.3570  178.4360  138.7810 C   0  0  0  0  0  2  0  0  0  0  0  0
  180.0670  177.3950  139.8450 C   0  0  0  0  0  1  0  0  0  0  0  0
  3  7  1  0  0  0  0
  5 18  1  0  0  0  0
  6  3  1  1  0  0  0
  6 17  1  0  0  0  0
  7 10  1  0  0  0  0
  7  5  2  0  0  0  0
  8  4  1  6  0  0  0
  8  6  1  0  0  0  0
  9  5  1  0  0  0  0
 10 14  2  0  0  0  0
 13  9  1  0  0  0  0
 14 11  1  0  0  0  0
 14 20  1  0  0  0  0
 15  4  1  6  0  0  0
 15  8  1  0  0  0  0
 15 21  1  0  0  0  0
 16 12  1  6  0  0  0
 16  3  1  0  0  0  0
 16 13  1  0  0  0  0
 17 10  1  0  0  0  0
 18  2  1  0  0  0  0
 19 25  1  6  0  0  0
 19  8  1  0  0  0  0
 20  2  2  0  0  0  0
 21 22  1  0  0  0  0
 22 17  1  0  0  0  0
 22  1  2  0  0  0  0
 23 19  1  0  0  0  0
 23 12  1  0  0  0  0
 25 24  1  0  0  0  0
 26 25  2  0  0  0  0
 27 26  1  0  0  0  0
 28 30  1  0  0  0  0
 29 28  2  0  0  0  0
 29 26  1  0  0  0  0
 30 24  2  0  0  0  0
 31 36  1  6  0  0  0
 31 21  1  0  0  0  0
 32 34  1  0  0  0  0
 32 35  1  0  0  0  0
 34 35  1  0  0  0  0
 34 31  1  1  0  0  0
 35 33  1  6  0  0  0
 36 37  1  0  0  0  0
M  END
>  <MODEL>
4

>  <REMARK>
 VINA RESULT:      -6.0      2.257      3.200
  Name = 
  4 active torsions:
  status: ('A' for Active; 'I' for Inactive)
    1  A    between atoms: C_6  and  C_31
    2  A    between atoms: C_11  and  C_26
    3  A    between atoms: C_17  and  C_26
    4  A    between atoms: C_26  and  N_33
                            x       y       z     vdW  Elec       q    Type
                         _______ _______ _______ _____ _____    ______ ____

>  <TORSDO>
F 4

$$$$
=
 OpenBabel10272414453D

 37 44  0  0  1  0  0  0  0  0999 V2000
  187.6110  173.3190  137.0830 O   0  0  0  0  0  0  0  0  0  0  0  0
  183.3720  170.0370  135.7930 C   0  0  0  0  0  3  0  0  0  0  0  0
  183.3410  174.4680  135.6730 N   0  0  0  0  0  0  0  0  0  0  0  0
  185.6600  177.3370  136.1190 C   0  0  0  0  0  2  0  0  0  0  0  0
  182.3910  172.2790  136.1030 C   0  0  0  0  0  0  0  0  0  0  0  0
  184.6820  175.0590  135.7070 C   0  0  1  0  0  3  0  0  0  0  0  0
  183.4520  173.0800  135.9690 C   0  0  0  0  0  0  0  0  0  0  0  0
  184.7810  176.2430  136.6920 C   0  0  1  0  0  0  0  0  0  0  0  0
  181.0210  172.8220  135.8590 C   0  0  0  0  0  2  0  0  0  0  0  0
  184.8620  172.7290  136.0940 C   0  0  0  0  0  0  0  0  0  0  0  0
  186.7750  171.4360  135.5540 O   0  0  0  0  0  1  0  0  0  0  0  0
  181.4240  175.9600  136.0700 C   0  0  0  0  0  2  0  0  0  0  0  0
  181.0220  173.8590  134.3550 S   0  0  0  0  0  0  0  0  0  0  0  0
  185.4050  171.5370  135.7520 C   0  0  0  0  0  0  0  0  0  0  0  0
  186.1290  176.5730  137.3470 C   0  0  1  0  0  3  0  0  0  0  0  0
  182.1690  175.1030  135.0590 C   0  0  2  0  0  3  0  0  0  0  0  0
  185.5850  173.9680  136.0890 N   0  0  0  0  0  0  0  0  0  0  0  0
  182.5330  170.9060  136.6630 C   0  0  0  0  0  2  0  0  0  0  0  0
  183.5200  176.7360  137.4280 C   0  0  2  0  0  3  0  0  0  0  0  0
  184.6270  170.3170  135.4380 C   0  0  0  0  0  3  0  0  0  0  0  0
  187.1820  175.6170  137.0040 N   0  0  0  0  0  0  0  0  0  0  0  0
  186.8390  174.2490  136.7280 C   0  0  0  0  0  0  0  0  0  0  0  0
  182.2930  177.5300  136.3410 S   0  0  0  0  0  0  0  0  0  0  0  0
  184.6360  178.4640  138.8110 C   0  0  0  0  0  3  0  0  0  0  0  0
  183.7090  177.4170  138.7600 C   0  0  0  0  0  0  0  0  0  0  0  0
  182.9840  177.0780  139.9280 C   0  0  0  0  0  0  0  0  0  0  0  0
  181.9740  175.9820  139.9530 C   0  0  0  0  0  1  0  0  0  0  0  0
  184.1400  178.8270  141.1500 C   0  0  0  0  0  3  0  0  0  0  0  0
  183.2090  177.7870  141.1130 C   0  0  0  0  0  3  0  0  0  0  0  0
  184.8530  179.1660  139.9990 C   0  0  0  0  0  3  0  0  0  0  0  0
  188.5650  176.0470  137.2230 C   0  0  1  0  0  3  0  0  0  0  0  0
  190.7620  176.5320  136.1740 C   0  0  0  0  0  2  0  0  0  0  0  0
  190.6280  174.9550  134.4050 O   0  0  0  0  0  1  0  0  0  0  0  0
  189.3030  176.2270  135.9040 C   0  0  1  0  0  3  0  0  0  0  0  0
  190.3470  175.1370  135.7580 C   0  0  2  0  0  3  0  0  0  0  0  0
  188.6200  177.3260  138.0490 C   0  0  0  0  0  2  0  0  0  0  0  0
  189.2340  177.0490  139.4080 C   0  0  0  0  0  1  0  0  0  0  0  0
  2 18  1  0  0  0  0
  3  7  1  0  0  0  0
  5 18  1  0  0  0  0
  6  3  1  1  0  0  0
  6 17  1  0  0  0  0
  6  8  1  0  0  0  0
  7 10  1  0  0  0  0
  7  5  2  0  0  0  0
  8  4  1  6  0  0  0
  8 15  1  0  0  0  0
  8 19  1  0  0  0  0
  9  5  1  0  0  0  0
 11 14  1  0  0  0  0
 12 23  1  0  0  0  0
 13 16  1  0  0  0  0
 13  9  1  0  0  0  0
 14 10  2  0  0  0  0
 15  4  1  6  0  0  0
 16  3  1  0  0  0  0
 16 12  1  1  0  0  0
 17 10  1  0  0  0  0
 17 22  1  0  0  0  0
 19 25  1  1  0  0  0
 20 14  1  0  0  0  0
 20  2  2  0  0  0  0
 21 31  1  0  0  0  0
 21 15  1  0  0  0  0
 22 21  1  0  0  0  0
 22  1  2  0  0  0  0
 23 19  1  0  0  0  0
 24 30  1  0  0  0  0
 25 24  2  0  0  0  0
 25 26  1  0  0  0  0
 26 27  1  0  0  0  0
 26 29  2  0  0  0  0
 29 28  1  0  0  0  0
 30 28  2  0  0  0  0
 31 36  1  6  0  0  0
 34 32  1  0  0  0  0
 34 31  1  1  0  0  0
 35 33  1  6  0  0  0
 35 34  1  0  0  0  0
 35 32  1  0  0  0  0
 36 37  1  0  0  0  0
M  END
>  <MODEL>
5

>  <REMARK>
 VINA RESULT:      -5.7      3.584      7.859
  Name = 
  4 active torsions:
  status: ('A' for Active; 'I' for Inactive)
    1  A    between atoms: C_6  and  C_31
    2  A    between atoms: C_11  and  C_26
    3  A    between atoms: C_17  and  C_26
    4  A    between atoms: C_26  and  N_33
                            x       y       z     vdW  Elec       q    Type
                         _______ _______ _______ _____ _____    ______ ____

>  <TORSDO>
F 4

$$$$
=
 OpenBabel10272414453D

 37 44  0  0  1  0  0  0  0  0999 V2000
  184.5380  178.3920  140.9120 O   0  0  0  0  0  0  0  0  0  0  0  0
  189.9000  177.8400  142.0730 C   0  0  0  0  0  3  0  0  0  0  0  0
  188.0470  177.2840  138.0840 N   0  0  0  0  0  0  0  0  0  0  0  0
  184.7520  177.6520  136.4080 C   0  0  0  0  0  2  0  0  0  0  0  0
  189.5920  176.7580  139.8780 C   0  0  0  0  0  0  0  0  0  0  0  0
  186.6960  177.8430  137.9890 C   0  0  1  0  0  3  0  0  0  0  0  0
  188.4420  177.2890  139.4520 C   0  0  0  0  0  0  0  0  0  0  0  0
  185.7070  176.8810  137.2980 C   0  0  1  0  0  0  0  0  0  0  0  0
  190.5590  176.2000  138.8850 C   0  0  0  0  0  2  0  0  0  0  0  0
  187.4080  177.9410  140.2460 C   0  0  0  0  0  0  0  0  0  0  0  0
  186.6430  179.5490  141.8130 O   0  0  0  0  0  1  0  0  0  0  0  0
  188.7860  175.7670  136.2930 C   0  0  0  0  0  2  0  0  0  0  0  0
  190.7110  177.3320  137.4600 S   0  0  0  0  0  0  0  0  0  0  0  0
  187.6250  178.6780  141.3610 C   0  0  0  0  0  0  0  0  0  0  0  0
  184.2130  176.9510  137.6450 C   0  0  1  0  0  3  0  0  0  0  0  0
  188.9630  177.1270  136.9480 C   0  0  2  0  0  3  0  0  0  0  0  0
  186.2880  178.1290  139.3690 N   0  0  0  0  0  0  0  0  0  0  0  0
  189.8500  176.5510  141.3290 C   0  0  0  0  0  2  0  0  0  0  0  0
  186.2150  175.5490  136.7120 C   0  0  2  0  0  3  0  0  0  0  0  0
  188.9090  178.7310  142.0980 C   0  0  0  0  0  3  0  0  0  0  0  0
  183.9180  177.9110  138.7090 N   0  0  0  0  0  0  0  0  0  0  0  0
  184.8990  178.1720  139.7260 C   0  0  0  0  0  0  0  0  0  0  0  0
  187.2940  175.7450  135.2590 S   0  0  0  0  0  0  0  0  0  0  0  0
  185.2020  173.5020  137.6780 C   0  0  0  0  0  3  0  0  0  0  0  0
  185.2320  174.4100  136.6130 C   0  0  0  0  0  0  0  0  0  0  0  0
  184.3310  174.2380  135.5340 C   0  0  0  0  0  0  0  0  0  0  0  0
  184.2940  175.1650  134.3670 C   0  0  0  0  0  1  0  0  0  0  0  0
  183.4210  172.2630  136.6110 C   0  0  0  0  0  3  0  0  0  0  0  0
  183.4360  173.1630  135.5440 C   0  0  0  0  0  3  0  0  0  0  0  0
  184.3040  172.4330  137.6780 C   0  0  0  0  0  3  0  0  0  0  0  0
  182.5280  178.3560  138.8320 C   0  0  1  0  0  3  0  0  0  0  0  0
  180.7980  179.8590  137.8750 C   0  0  0  0  0  2  0  0  0  0  0  0
  181.8080  181.9240  138.4610 O   0  0  0  0  0  1  0  0  0  0  0  0
  182.2860  179.6400  138.0490 C   0  0  1  0  0  3  0  0  0  0  0  0
  181.5560  180.6360  138.9290 C   0  0  2  0  0  3  0  0  0  0  0  0
  181.5590  177.2660  138.3890 C   0  0  0  0  0  2  0  0  0  0  0  0
  180.8280  176.6930  139.5880 C   0  0  0  0  0  1  0  0  0  0  0  0
  2 20  2  0  0  0  0
  3  7  1  0  0  0  0
  5 18  1  0  0  0  0
  6  3  1  1  0  0  0
  6 17  1  0  0  0  0
  7  5  2  0  0  0  0
  7 10  1  0  0  0  0
  8  4  1  6  0  0  0
  8 15  1  0  0  0  0
  8  6  1  0  0  0  0
  9  5  1  0  0  0  0
 10 14  2  0  0  0  0
 13  9  1  0  0  0  0
 14 11  1  0  0  0  0
 14 20  1  0  0  0  0
 15  4  1  6  0  0  0
 15 21  1  0  0  0  0
 16 12  1  1  0  0  0
 16 13  1  0  0  0  0
 16  3  1  0  0  0  0
 17 22  1  0  0  0  0
 17 10  1  0  0  0  0
 18  2  1  0  0  0  0
 19 25  1  6  0  0  0
 19  8  1  0  0  0  0
 21 31  1  0  0  0  0
 21 22  1  0  0  0  0
 22  1  2  0  0  0  0
 23 12  1  0  0  0  0
 23 19  1  0  0  0  0
 25 24  2  0  0  0  0
 26 29  2  0  0  0  0
 26 25  1  0  0  0  0
 27 26  1  0  0  0  0
 28 30  2  0  0  0  0
 29 28  1  0  0  0  0
 30 24  1  0  0  0  0
 31 36  1  6  0  0  0
 32 34  1  0  0  0  0
 32 35  1  0  0  0  0
 34 31  1  1  0  0  0
 34 35  1  0  0  0  0
 35 33  1  6  0  0  0
 36 37  1  0  0  0  0
M  END
>  <MODEL>
6

>  <REMARK>
 VINA RESULT:      -5.4      1.645      2.095
  Name = 
  4 active torsions:
  status: ('A' for Active; 'I' for Inactive)
    1  A    between atoms: C_6  and  C_31
    2  A    between atoms: C_11  and  C_26
    3  A    between atoms: C_17  and  C_26
    4  A    between atoms: C_26  and  N_33
                            x       y       z     vdW  Elec       q    Type
                         _______ _______ _______ _____ _____    ______ ____

>  <TORSDO>
F 4

$$$$
=
 OpenBabel10272414453D

 37 44  0  0  1  0  0  0  0  0999 V2000
  186.1740  178.0390  141.7970 O   0  0  0  0  0  0  0  0  0  0  0  0
  190.9180  176.7860  139.2800 C   0  0  0  0  0  3  0  0  0  0  0  0
  187.0890  177.7360  137.2570 N   0  0  0  0  0  0  0  0  0  0  0  0
  183.6450  178.8600  138.0810 C   0  0  0  0  0  2  0  0  0  0  0  0
  189.1750  176.5350  137.5520 C   0  0  0  0  0  0  0  0  0  0  0  0
  186.1100  178.3790  138.1390 C   0  0  1  0  0  3  0  0  0  0  0  0
  188.1640  177.2520  138.0540 C   0  0  0  0  0  0  0  0  0  0  0  0
  184.6980  177.7730  137.9940 C   0  0  1  0  0  0  0  0  0  0  0  0
  189.2440  176.2870  136.0810 C   0  0  0  0  0  2  0  0  0  0  0  0
  187.9560  177.6590  139.4380 C   0  0  0  0  0  0  0  0  0  0  0  0
  188.6350  178.6850  141.4660 O   0  0  0  0  0  1  0  0  0  0  0  0
  186.2880  176.8740  135.0960 C   0  0  0  0  0  2  0  0  0  0  0  0
  188.8580  177.8240  135.1720 S   0  0  0  0  0  0  0  0  0  0  0  0
  188.9370  177.9590  140.3220 C   0  0  0  0  0  0  0  0  0  0  0  0
  183.7290  177.8170  139.1840 C   0  0  1  0  0  3  0  0  0  0  0  0
  187.1390  177.9170  135.8020 C   0  0  2  0  0  3  0  0  0  0  0  0
  186.6300  178.2050  139.5000 N   0  0  0  0  0  0  0  0  0  0  0  0
  190.1350  175.8320  138.4470 C   0  0  0  0  0  2  0  0  0  0  0  0
  184.4340  176.6910  136.9300 C   0  0  2  0  0  3  0  0  0  0  0  0
  190.3750  177.6770  140.1110 C   0  0  0  0  0  3  0  0  0  0  0  0
  184.3340  178.3750  140.3930 N   0  0  0  0  0  0  0  0  0  0  0  0
  185.7420  178.2130  140.6260 C   0  0  0  0  0  0  0  0  0  0  0  0
  184.5270  177.2980  135.2170 S   0  0  0  0  0  0  0  0  0  0  0  0
  182.0050  176.2010  137.0430 C   0  0  0  0  0  3  0  0  0  0  0  0
  183.3110  175.7170  137.1880 C   0  0  0  0  0  0  0  0  0  0  0  0
  183.5090  174.3570  137.5280 C   0  0  0  0  0  0  0  0  0  0  0  0
  184.8670  173.7640  137.6930 C   0  0  0  0  0  1  0  0  0  0  0  0
  181.1070  174.0210  137.5770 C   0  0  0  0  0  3  0  0  0  0  0  0
  182.4030  173.5230  137.7210 C   0  0  0  0  0  3  0  0  0  0  0  0
  180.9080  175.3600  137.2370 C   0  0  0  0  0  3  0  0  0  0  0  0
  183.4170  178.8390  141.4380 C   0  0  1  0  0  3  0  0  0  0  0  0
  181.0830  178.8480  142.2850 C   0  0  0  0  0  2  0  0  0  0  0  0
  179.9860  179.1200  140.1990 O   0  0  0  0  0  1  0  0  0  0  0  0
  181.9980  178.3490  141.1860 C   0  0  1  0  0  3  0  0  0  0  0  0
  181.0910  179.5380  140.9380 C   0  0  2  0  0  3  0  0  0  0  0  0
  183.8960  178.4130  142.8210 C   0  0  0  0  0  2  0  0  0  0  0  0
  184.0500  179.6240  143.7210 C   0  0  0  0  0  1  0  0  0  0  0  0
  2 20  2  0  0  0  0
  3  7  1  0  0  0  0
  5  7  2  0  0  0  0
  5 18  1  0  0  0  0
  6  3  1  6  0  0  0
  6 17  1  0  0  0  0
  7 10  1  0  0  0  0
  8  4  1  6  0  0  0
  8  6  1  0  0  0  0
  8 15  1  0  0  0  0
  9  5  1  0  0  0  0
 10 17  1  0  0  0  0
 10 14  2  0  0  0  0
 12 23  1  0  0  0  0
 13 16  1  0  0  0  0
 13  9  1  0  0  0  0
 14 11  1  0  0  0  0
 15  4  1  6  0  0  0
 15 21  1  0  0  0  0
 16 12  1  6  0  0  0
 16  3  1  0  0  0  0
 17 22  1  0  0  0  0
 18  2  1  0  0  0  0
 19 25  1  1  0  0  0
 19  8  1  0  0  0  0
 20 14  1  0  0  0  0
 21 22  1  0  0  0  0
 21 31  1  0  0  0  0
 22  1  2  0  0  0  0
 23 19  1  0  0  0  0
 24 25  2  0  0  0  0
 24 30  1  0  0  0  0
 25 26  1  0  0  0  0
 26 27  1  0  0  0  0
 26 29  2  0  0  0  0
 28 29  1  0  0  0  0
 30 28  2  0  0  0  0
 31 36  1  1  0  0  0
 34 31  1  1  0  0  0
 34 32  1  0  0  0  0
 35 33  1  6  0  0  0
 35 34  1  0  0  0  0
 35 32  1  0  0  0  0
 36 37  1  0  0  0  0
M  END
>  <MODEL>
7

>  <REMARK>
 VINA RESULT:      -5.4      1.467      2.121
  Name = 
  4 active torsions:
  status: ('A' for Active; 'I' for Inactive)
    1  A    between atoms: C_6  and  C_31
    2  A    between atoms: C_11  and  C_26
    3  A    between atoms: C_17  and  C_26
    4  A    between atoms: C_26  and  N_33
                            x       y       z     vdW  Elec       q    Type
                         _______ _______ _______ _____ _____    ______ ____

>  <TORSDO>
F 4

$$$$
=
 OpenBabel10272414453D

 37 44  0  0  1  0  0  0  0  0999 V2000
  185.1310  178.2630  140.4750 O   0  0  0  0  0  0  0  0  0  0  0  0
  190.5760  177.4720  140.1110 C   0  0  0  0  0  3  0  0  0  0  0  0
  187.6590  176.9410  136.8150 N   0  0  0  0  0  0  0  0  0  0  0  0
  184.0450  177.4390  136.1130 C   0  0  0  0  0  2  0  0  0  0  0  0
  189.6210  176.3700  138.1210 C   0  0  0  0  0  0  0  0  0  0  0  0
  186.3600  177.5630  137.0840 C   0  0  1  0  0  3  0  0  0  0  0  0
  188.4210  176.9490  138.0170 C   0  0  0  0  0  0  0  0  0  0  0  0
  185.1780  176.6380  136.7240 C   0  0  1  0  0  0  0  0  0  0  0  0
  190.2470  175.7500  136.9150 C   0  0  0  0  0  2  0  0  0  0  0  0
  187.6780  177.6630  139.0490 C   0  0  0  0  0  0  0  0  0  0  0  0
  187.4510  179.3310  140.7180 O   0  0  0  0  0  1  0  0  0  0  0  0
  187.8040  175.3600  134.9330 C   0  0  0  0  0  2  0  0  0  0  0  0
  190.0420  176.8500  135.4710 S   0  0  0  0  0  0  0  0  0  0  0  0
  188.2300  178.4070  140.0370 C   0  0  0  0  0  0  0  0  0  0  0  0
  183.8450  176.7860  137.4720 C   0  0  1  0  0  3  0  0  0  0  0  0
  188.2130  176.7210  135.4730 C   0  0  2  0  0  3  0  0  0  0  0  0
  186.3670  177.8900  138.5140 N   0  0  0  0  0  0  0  0  0  0  0  0
  190.2660  176.1750  139.4480 C   0  0  0  0  0  2  0  0  0  0  0  0
  185.4450  175.2740  136.0590 C   0  0  2  0  0  3  0  0  0  0  0  0
  189.6690  178.4110  140.3850 C   0  0  0  0  0  3  0  0  0  0  0  0
  183.8990  177.7770  138.5470 N   0  0  0  0  0  0  0  0  0  0  0  0
  185.1360  178.0070  139.2410 C   0  0  0  0  0  0  0  0  0  0  0  0
  186.0820  175.3930  134.3580 S   0  0  0  0  0  0  0  0  0  0  0  0
  183.1900  174.3350  135.6350 C   0  0  0  0  0  3  0  0  0  0  0  0
  184.4270  174.1810  136.2710 C   0  0  0  0  0  0  0  0  0  0  0  0
  184.6700  173.0150  137.0360 C   0  0  0  0  0  0  0  0  0  0  0  0
  185.9640  172.7740  137.7370 C   0  0  0  0  0  1  0  0  0  0  0  0
  182.4410  172.2120  136.5160 C   0  0  0  0  0  3  0  0  0  0  0  0
  183.6720  172.0430  137.1520 C   0  0  0  0  0  3  0  0  0  0  0  0
  182.2000  173.3570  135.7570 C   0  0  0  0  0  3  0  0  0  0  0  0
  182.6190  178.2900  139.0400 C   0  0  1  0  0  3  0  0  0  0  0  0
  180.6340  177.8340  140.4600 C   0  0  0  0  0  2  0  0  0  0  0  0
  180.6770  175.4650  140.3170 O   0  0  0  0  0  1  0  0  0  0  0  0
  182.0440  177.3920  140.1260 C   0  0  1  0  0  3  0  0  0  0  0  0
  180.8570  176.6290  139.5710 C   0  0  2  0  0  3  0  0  0  0  0  0
  182.7570  179.7220  139.5430 C   0  0  0  0  0  2  0  0  0  0  0  0
  182.0280  180.6780  138.6190 C   0  0  0  0  0  1  0  0  0  0  0  0
  2 20  2  0  0  0  0
  3  7  1  0  0  0  0
  5 18  1  0  0  0  0
  6  3  1  1  0  0  0
  6 17  1  0  0  0  0
  7  5  2  0  0  0  0
  7 10  1  0  0  0  0
  8  4  1  6  0  0  0
  8  6  1  0  0  0  0
  8 15  1  0  0  0  0
  9  5  1  0  0  0  0
 10 14  2  0  0  0  0
 13 16  1  0  0  0  0
 13  9  1  0  0  0  0
 14 20  1  0  0  0  0
 14 11  1  0  0  0  0
 15  4  1  6  0  0  0
 15 21  1  0  0  0  0
 16 12  1  1  0  0  0
 16  3  1  0  0  0  0
 17 10  1  0  0  0  0
 17 22  1  0  0  0  0
 18  2  1  0  0  0  0
 19 25  1  6  0  0  0
 19  8  1  0  0  0  0
 21 31  1  0  0  0  0
 21 22  1  0  0  0  0
 22  1  2  0  0  0  0
 23 12  1  0  0  0  0
 23 19  1  0  0  0  0
 24 30  2  0  0  0  0
 24 25  1  0  0  0  0
 25 26  2  0  0  0  0
 26 29  1  0  0  0  0
 26 27  1  0  0  0  0
 28 29  2  0  0  0  0
 30 28  1  0  0  0  0
 31 36  1  1  0  0  0
 34 31  1  6  0  0  0
 34 32  1  0  0  0  0
 35 34  1  0  0  0  0
 35 33  1  1  0  0  0
 35 32  1  0  0  0  0
 37 36  1  0  0  0  0
M  END
>  <MODEL>
8

>  <REMARK>
 VINA RESULT:      -5.4      1.698      2.231
  Name = 
  4 active torsions:
  status: ('A' for Active; 'I' for Inactive)
    1  A    between atoms: C_6  and  C_31
    2  A    between atoms: C_11  and  C_26
    3  A    between atoms: C_17  and  C_26
    4  A    between atoms: C_26  and  N_33
                            x       y       z     vdW  Elec       q    Type
                         _______ _______ _______ _____ _____    ______ ____

>  <TORSDO>
F 4

$$$$
=
 OpenBabel10272414453D

 37 44  0  0  1  0  0  0  0  0999 V2000
  189.5220  177.5150  141.1560 O   0  0  0  0  0  0  0  0  0  0  0  0
  193.7690  175.4440  138.3140 C   0  0  0  0  0  3  0  0  0  0  0  0
  189.9470  176.8700  136.5790 N   0  0  0  0  0  0  0  0  0  0  0  0
  186.7990  178.5400  137.6310 C   0  0  0  0  0  2  0  0  0  0  0  0
  191.8530  175.3810  136.7620 C   0  0  0  0  0  0  0  0  0  0  0  0
  189.1620  177.6940  137.5030 C   0  0  1  0  0  3  0  0  0  0  0  0
  191.0110  176.2650  137.3070 C   0  0  0  0  0  0  0  0  0  0  0  0
  187.6690  177.3030  137.5180 C   0  0  1  0  0  0  0  0  0  0  0  0
  191.7440  175.0590  135.3080 C   0  0  0  0  0  2  0  0  0  0  0  0
  190.9960  176.7620  138.6770 C   0  0  0  0  0  0  0  0  0  0  0  0
  192.0080  177.7640  140.5740 O   0  0  0  0  0  1  0  0  0  0  0  0
  188.8270  176.0420  134.5500 C   0  0  0  0  0  2  0  0  0  0  0  0
  191.5050  176.5940  134.3460 S   0  0  0  0  0  0  0  0  0  0  0  0
  192.0900  176.9490  139.4530 C   0  0  0  0  0  0  0  0  0  0  0  0
  186.8340  177.5470  138.7830 C   0  0  1  0  0  3  0  0  0  0  0  0
  189.8850  176.9740  135.1170 C   0  0  2  0  0  3  0  0  0  0  0  0
  189.7770  177.5040  138.8220 N   0  0  0  0  0  0  0  0  0  0  0  0
  192.7790  174.5820  137.6100 C   0  0  0  0  0  2  0  0  0  0  0  0
  187.1480  176.2260  136.5470 C   0  0  2  0  0  3  0  0  0  0  0  0
  193.4450  176.4440  139.1350 C   0  0  0  0  0  3  0  0  0  0  0  0
  187.6260  178.0620  139.9000 N   0  0  0  0  0  0  0  0  0  0  0  0
  189.0110  177.6980  140.0190 C   0  0  0  0  0  0  0  0  0  0  0  0
  187.1670  176.7330  134.7990 S   0  0  0  0  0  0  0  0  0  0  0  0
  184.7080  176.1380  136.9760 C   0  0  0  0  0  3  0  0  0  0  0  0
  185.9240  175.4470  136.9590 C   0  0  0  0  0  0  0  0  0  0  0  0
  185.9400  174.0700  137.2870 C   0  0  0  0  0  0  0  0  0  0  0  0
  187.1930  173.2610  137.2840 C   0  0  0  0  0  1  0  0  0  0  0  0
  183.5410  174.1300  137.6480 C   0  0  0  0  0  3  0  0  0  0  0  0
  184.7470  173.4260  137.6310 C   0  0  0  0  0  3  0  0  0  0  0  0
  183.5220  175.4860  137.3200 C   0  0  0  0  0  3  0  0  0  0  0  0
  186.8910  178.7070  140.9900 C   0  0  1  0  0  3  0  0  0  0  0  0
  184.6350  179.1040  141.9480 C   0  0  0  0  0  2  0  0  0  0  0  0
  183.3640  178.4920  140.0390 O   0  0  0  0  0  1  0  0  0  0  0  0
  185.4670  178.1770  141.0870 C   0  0  1  0  0  3  0  0  0  0  0  0
  184.5170  179.1660  140.4400 C   0  0  2  0  0  3  0  0  0  0  0  0
  187.6180  178.5400  142.3200 C   0  0  0  0  0  2  0  0  0  0  0  0
  187.0410  177.3690  143.0920 C   0  0  0  0  0  1  0  0  0  0  0  0
  2 20  2  0  0  0  0
  3  7  1  0  0  0  0
  5  7  2  0  0  0  0
  5 18  1  0  0  0  0
  6  3  1  6  0  0  0
  6  8  1  0  0  0  0
  6 17  1  0  0  0  0
  7 10  1  0  0  0  0
  8  4  1  6  0  0  0
  8 15  1  0  0  0  0
  9  5  1  0  0  0  0
 10 17  1  0  0  0  0
 10 14  2  0  0  0  0
 12 23  1  0  0  0  0
 13 16  1  0  0  0  0
 13  9  1  0  0  0  0
 14 11  1  0  0  0  0
 15  4  1  6  0  0  0
 15 21  1  0  0  0  0
 16 12  1  6  0  0  0
 16  3  1  0  0  0  0
 17 22  1  0  0  0  0
 18  2  1  0  0  0  0
 19 25  1  1  0  0  0
 19  8  1  0  0  0  0
 20 14  1  0  0  0  0
 21 22  1  0  0  0  0
 21 31  1  0  0  0  0
 22  1  2  0  0  0  0
 23 19  1  0  0  0  0
 24 30  1  0  0  0  0
 25 24  2  0  0  0  0
 25 26  1  0  0  0  0
 26 29  2  0  0  0  0
 27 26  1  0  0  0  0
 29 28  1  0  0  0  0
 30 28  2  0  0  0  0
 31 36  1  1  0  0  0
 34 31  1  6  0  0  0
 34 32  1  0  0  0  0
 35 33  1  1  0  0  0
 35 34  1  0  0  0  0
 35 32  1  0  0  0  0
 36 37  1  0  0  0  0
M  END
>  <MODEL>
9

>  <REMARK>
 VINA RESULT:      -5.3      2.610      4.445
  Name = 
  4 active torsions:
  status: ('A' for Active; 'I' for Inactive)
    1  A    between atoms: C_6  and  C_31
    2  A    between atoms: C_11  and  C_26
    3  A    between atoms: C_17  and  C_26
    4  A    between atoms: C_26  and  N_33
                            x       y       z     vdW  Elec       q    Type
                         _______ _______ _______ _____ _____    ______ ____

>  <TORSDO>
F 4

$$$$
