=
 OpenBabel10272401593D

 28 30  0  0  1  0  0  0  0  0999 V2000
  185.8580  178.1060  145.0720 C   0  0  0  0  0  0  0  0  0  0  0  0
  189.7660  177.8670  147.8810 F   0  0  0  0  0  0  0  0  0  0  0  0
  189.3450  177.3420  144.2660 C   0  0  0  0  0  0  0  0  0  0  0  0
  187.8280  177.9890  146.5070 C   0  0  0  0  0  0  0  0  0  0  0  0
  188.0070  177.5660  144.1580 N   0  0  0  0  0  0  0  0  0  0  0  0
  185.6660  178.5360  147.4580 C   0  0  0  0  0  3  0  0  0  0  0  0
  189.2030  177.7640  146.6490 C   0  0  0  0  0  0  0  0  0  0  0  0
  187.0360  178.3150  147.6140 C   0  0  0  0  0  3  0  0  0  0  0  0
  189.9800  177.4360  145.5170 C   0  0  0  0  0  0  0  0  0  0  0  0
  185.0810  178.4310  146.1940 C   0  0  0  0  0  3  0  0  0  0  0  0
  187.2360  177.8840  145.2300 C   0  0  0  0  0  0  0  0  0  0  0  0
  191.2590  178.0050  142.8240 C   0  0  0  0  0  2  0  0  0  0  0  0
  189.2400  176.9610  141.8110 C   0  0  0  0  0  2  0  0  0  0  0  0
  191.3340  177.1070  140.4540 C   0  0  0  0  0  0  0  0  0  0  0  0
  190.1390  176.9940  143.0450 C   0  0  2  0  0  3  0  0  0  0  0  0
  190.0400  176.7600  140.5520 C   0  0  0  0  0  3  0  0  0  0  0  0
  191.9830  176.8860  139.2820 F   0  0  0  0  0  0  0  0  0  0  0  0
  192.1330  177.5650  141.6500 C   0  0  0  0  0  2  0  0  0  0  0  0
  191.3640  177.1970  145.5830 O   0  0  0  0  0  0  0  0  0  0  0  0
  191.9610  176.1090  146.2750 C   0  0  0  0  0  1  0  0  0  0  0  0
  185.2650  177.9940  143.7680 N   0  0  0  0  0  2  0  0  0  0  0  0
  184.7470  179.1010  142.9610 C   0  0  1  0  0  3  0  0  0  0  0  0
  185.0570  178.9420  140.4330 S   0  0  0  0  0  0  0  0  0  0  0  0
  185.5710  179.3020  141.7230 C   0  0  0  0  0  3  0  0  0  0  0  0
  183.2750  178.8780  142.6320 C   0  0  0  0  0  2  0  0  0  0  0  0
  181.1070  178.7440  143.8660 C   0  0  0  0  0  3  0  0  0  0  0  0
  180.3370  178.4200  142.6260 C   0  0  0  0  0  1  0  0  0  0  0  0
  182.4300  178.9420  143.8690 C   0  0  0  0  0  3  0  0  0  0  0  0
  1 11  2  0  0  0  0
  1 10  1  0  0  0  0
  3  9  1  0  0  0  0
  4  7  1  0  0  0  0
  4  8  2  0  0  0  0
  5  3  2  0  0  0  0
  5 11  1  0  0  0  0
  6  8  1  0  0  0  0
  7  2  1  0  0  0  0
  9 19  1  0  0  0  0
  9  7  2  0  0  0  0
 10  6  2  0  0  0  0
 11  4  1  0  0  0  0
 12 15  1  0  0  0  0
 13 15  1  0  0  0  0
 14 16  2  0  0  0  0
 14 18  1  0  0  0  0
 15  3  1  1  0  0  0
 16 13  1  0  0  0  0
 17 14  1  0  0  0  0
 18 12  1  0  0  0  0
 19 20  1  0  0  0  0
 21  1  1  0  0  0  0
 22 24  1  6  0  0  0
 22 21  1  0  0  0  0
 23 24  2  0  0  0  0
 25 22  1  0  0  0  0
 25 28  1  0  0  0  0
 26 28  2  0  0  0  0
 27 26  1  0  0  0  0
M  END
>  <MODEL>
1

>  <REMARK>
 VINA RESULT:      -8.6      0.000      0.000
  Name = 
  7 active torsions:
  status: ('A' for Active; 'I' for Inactive)
    1  A    between atoms: C_1  and  N_2
    2  A    between atoms: N_2  and  C_3
    3  A    between atoms: C_3  and  C_7
    4  A    between atoms: C_3  and  C_11
    5  A    between atoms: C_7  and  C_28
    6  A    between atoms: C_10  and  C_13
    7  A    between atoms: O_14  and  C_25
                            x       y       z     vdW  Elec       q    Type
                         _______ _______ _______ _____ _____    ______ ____

>  <TORSDO>
F 7

$$$$
=
 OpenBabel10272401593D

 28 30  0  0  1  0  0  0  0  0999 V2000
  185.3840  178.4060  141.7740 C   0  0  0  0  0  0  0  0  0  0  0  0
  188.5410  178.2800  138.1350 F   0  0  0  0  0  0  0  0  0  0  0  0
  188.9940  177.8050  141.7530 C   0  0  0  0  0  0  0  0  0  0  0  0
  186.9710  178.3450  139.9210 C   0  0  0  0  0  0  0  0  0  0  0  0
  187.7090  177.9730  142.1680 N   0  0  0  0  0  0  0  0  0  0  0  0
  184.6260  178.7860  139.4950 C   0  0  0  0  0  3  0  0  0  0  0  0
  188.2840  178.1760  139.4650 C   0  0  0  0  0  0  0  0  0  0  0  0
  185.9300  178.6190  139.0260 C   0  0  0  0  0  3  0  0  0  0  0  0
  189.3170  177.9010  140.3880 C   0  0  0  0  0  0  0  0  0  0  0  0
  184.3550  178.6810  140.8600 C   0  0  0  0  0  3  0  0  0  0  0  0
  186.6960  178.2380  141.3020 C   0  0  0  0  0  0  0  0  0  0  0  0
  190.2600  176.0120  142.9210 C   0  0  0  0  0  2  0  0  0  0  0  0
  189.7090  178.1250  144.1130 C   0  0  0  0  0  2  0  0  0  0  0  0
  191.4250  176.5980  145.0960 C   0  0  0  0  0  0  0  0  0  0  0  0
  190.0650  177.5150  142.7600 C   0  0  2  0  0  3  0  0  0  0  0  0
  190.6960  177.7230  145.1760 C   0  0  0  0  0  3  0  0  0  0  0  0
  192.2980  176.3120  146.0960 F   0  0  0  0  0  0  0  0  0  0  0  0
  191.4390  175.7380  143.8550 C   0  0  0  0  0  2  0  0  0  0  0  0
  190.6570  177.7190  140.0040 O   0  0  0  0  0  0  0  0  0  0  0  0
  191.1280  176.6390  139.2130 C   0  0  0  0  0  1  0  0  0  0  0  0
  185.1160  178.2970  143.1810 N   0  0  0  0  0  2  0  0  0  0  0  0
  184.8930  179.4140  144.1030 C   0  0  1  0  0  3  0  0  0  0  0  0
  182.4330  178.7350  144.1370 S   0  0  0  0  0  0  0  0  0  0  0  0
  183.4350  179.7600  144.1920 C   0  0  0  0  0  3  0  0  0  0  0  0
  185.4850  179.1020  145.4720 C   0  0  0  0  0  2  0  0  0  0  0  0
  187.0640  177.4190  146.4310 C   0  0  0  0  0  3  0  0  0  0  0  0
  187.3010  178.2340  147.6610 C   0  0  0  0  0  1  0  0  0  0  0  0
  186.2400  177.8060  145.4500 C   0  0  0  0  0  3  0  0  0  0  0  0
  1 21  1  0  0  0  0
  2  7  1  0  0  0  0
  3  5  1  0  0  0  0
  4 11  1  0  0  0  0
  6 10  1  0  0  0  0
  7  4  2  0  0  0  0
  7  9  1  0  0  0  0
  8  6  2  0  0  0  0
  8  4  1  0  0  0  0
  9  3  2  0  0  0  0
 10  1  2  0  0  0  0
 11  1  1  0  0  0  0
 11  5  2  0  0  0  0
 12 18  1  0  0  0  0
 13 16  1  0  0  0  0
 14 16  2  0  0  0  0
 14 17  1  0  0  0  0
 15  3  1  6  0  0  0
 15 12  1  0  0  0  0
 15 13  1  0  0  0  0
 18 14  1  0  0  0  0
 19  9  1  0  0  0  0
 20 19  1  0  0  0  0
 21 22  1  0  0  0  0
 22 24  1  1  0  0  0
 22 25  1  0  0  0  0
 23 24  2  0  0  0  0
 26 27  1  0  0  0  0
 28 25  1  0  0  0  0
 28 26  2  0  0  0  0
M  END
>  <MODEL>
2

>  <REMARK>
 VINA RESULT:      -8.5      2.221      5.360
  Name = 
  7 active torsions:
  status: ('A' for Active; 'I' for Inactive)
    1  A    between atoms: C_1  and  N_2
    2  A    between atoms: N_2  and  C_3
    3  A    between atoms: C_3  and  C_7
    4  A    between atoms: C_3  and  C_11
    5  A    between atoms: C_7  and  C_28
    6  A    between atoms: C_10  and  C_13
    7  A    between atoms: O_14  and  C_25
                            x       y       z     vdW  Elec       q    Type
                         _______ _______ _______ _____ _____    ______ ____

>  <TORSDO>
F 7

$$$$
=
 OpenBabel10272401593D

 28 30  0  0  1  0  0  0  0  0999 V2000
  187.1820  177.7470  144.4820 C   0  0  0  0  0  0  0  0  0  0  0  0
  182.7400  179.2800  145.5500 F   0  0  0  0  0  0  0  0  0  0  0  0
  184.3310  178.5230  142.3230 C   0  0  0  0  0  0  0  0  0  0  0  0
  184.9370  178.5230  145.0380 C   0  0  0  0  0  0  0  0  0  0  0  0
  185.5650  178.1500  142.7590 N   0  0  0  0  0  0  0  0  0  0  0  0
  186.5520  178.1250  146.8010 C   0  0  0  0  0  3  0  0  0  0  0  0
  183.6580  178.9110  144.6190 C   0  0  0  0  0  0  0  0  0  0  0  0
  185.2730  178.5130  146.3970 C   0  0  0  0  0  3  0  0  0  0  0  0
  183.3420  178.9130  143.2420 C   0  0  0  0  0  0  0  0  0  0  0  0
  187.5000  177.7440  145.8490 C   0  0  0  0  0  3  0  0  0  0  0  0
  185.8960  178.1380  144.0770 C   0  0  0  0  0  0  0  0  0  0  0  0
  183.3530  177.2100  140.4510 C   0  0  0  0  0  2  0  0  0  0  0  0
  185.3120  178.6880  140.0440 C   0  0  0  0  0  2  0  0  0  0  0  0
  184.0230  177.8260  138.0840 C   0  0  0  0  0  0  0  0  0  0  0  0
  184.0310  178.5140  140.8550 C   0  0  2  0  0  3  0  0  0  0  0  0
  185.0560  178.5350  138.5680 C   0  0  0  0  0  3  0  0  0  0  0  0
  183.8600  177.7430  136.7390 F   0  0  0  0  0  0  0  0  0  0  0  0
  182.9410  177.2720  138.9800 C   0  0  0  0  0  2  0  0  0  0  0  0
  182.0820  179.2910  142.7480 O   0  0  0  0  0  0  0  0  0  0  0  0
  180.8510  178.7060  143.1500 C   0  0  0  0  0  1  0  0  0  0  0  0
  188.1510  177.3590  143.4950 N   0  0  0  0  0  2  0  0  0  0  0  0
  189.4050  176.6480  143.7540 C   0  0  1  0  0  3  0  0  0  0  0  0
  190.1310  176.9500  141.3260 S   0  0  0  0  0  0  0  0  0  0  0  0
  189.9970  176.1130  142.4840 C   0  0  0  0  0  3  0  0  0  0  0  0
  190.3840  177.5470  144.5010 C   0  0  0  0  0  2  0  0  0  0  0  0
  191.7330  176.4360  146.2870 C   0  0  0  0  0  3  0  0  0  0  0  0
  190.7560  176.8050  147.3560 C   0  0  0  0  0  1  0  0  0  0  0  0
  191.5610  176.7630  145.0010 C   0  0  0  0  0  3  0  0  0  0  0  0
  1 10  1  0  0  0  0
  3  5  2  0  0  0  0
  3  9  1  0  0  0  0
  4  8  2  0  0  0  0
  5 11  1  0  0  0  0
  7  4  1  0  0  0  0
  7  2  1  0  0  0  0
  8  6  1  0  0  0  0
  9  7  2  0  0  0  0
 10  6  2  0  0  0  0
 11  1  2  0  0  0  0
 11  4  1  0  0  0  0
 12 15  1  0  0  0  0
 13 15  1  0  0  0  0
 14 16  2  0  0  0  0
 14 18  1  0  0  0  0
 15  3  1  1  0  0  0
 16 13  1  0  0  0  0
 17 14  1  0  0  0  0
 18 12  1  0  0  0  0
 19 20  1  0  0  0  0
 19  9  1  0  0  0  0
 21 22  1  0  0  0  0
 21  1  1  0  0  0  0
 22 24  1  6  0  0  0
 22 25  1  0  0  0  0
 23 24  2  0  0  0  0
 25 28  1  0  0  0  0
 26 27  1  0  0  0  0
 28 26  2  0  0  0  0
M  END
>  <MODEL>
3

>  <REMARK>
 VINA RESULT:      -8.5      3.466      6.923
  Name = 
  7 active torsions:
  status: ('A' for Active; 'I' for Inactive)
    1  A    between atoms: C_1  and  N_2
    2  A    between atoms: N_2  and  C_3
    3  A    between atoms: C_3  and  C_7
    4  A    between atoms: C_3  and  C_11
    5  A    between atoms: C_7  and  C_28
    6  A    between atoms: C_10  and  C_13
    7  A    between atoms: O_14  and  C_25
                            x       y       z     vdW  Elec       q    Type
                         _______ _______ _______ _____ _____    ______ ____

>  <TORSDO>
F 7

$$$$
=
 OpenBabel10272401593D

 28 30  0  0  1  0  0  0  0  0999 V2000
  187.5770  177.4100  144.0130 C   0  0  0  0  0  0  0  0  0  0  0  0
  183.5080  179.1470  145.9230 F   0  0  0  0  0  0  0  0  0  0  0  0
  184.4610  178.5000  142.4310 C   0  0  0  0  0  0  0  0  0  0  0  0
  185.5230  178.2880  144.9940 C   0  0  0  0  0  0  0  0  0  0  0  0
  185.7220  178.0230  142.6240 N   0  0  0  0  0  0  0  0  0  0  0  0
  187.3840  177.6770  146.4220 C   0  0  0  0  0  3  0  0  0  0  0  0
  184.2230  178.7820  144.8270 C   0  0  0  0  0  0  0  0  0  0  0  0
  186.0860  178.1700  146.2700 C   0  0  0  0  0  3  0  0  0  0  0  0
  183.6770  178.8920  143.5300 C   0  0  0  0  0  0  0  0  0  0  0  0
  188.1240  177.3000  145.3000 C   0  0  0  0  0  3  0  0  0  0  0  0
  186.2720  177.9060  143.8610 C   0  0  0  0  0  0  0  0  0  0  0  0
  183.1600  177.3350  140.6620 C   0  0  0  0  0  2  0  0  0  0  0  0
  185.0390  178.8400  140.0370 C   0  0  0  0  0  2  0  0  0  0  0  0
  183.4220  178.1310  138.2690 C   0  0  0  0  0  0  0  0  0  0  0  0
  183.9140  178.6040  141.0410 C   0  0  2  0  0  3  0  0  0  0  0  0
  184.5310  178.8010  138.6200 C   0  0  0  0  0  3  0  0  0  0  0  0
  183.0290  178.1520  136.9690 F   0  0  0  0  0  0  0  0  0  0  0  0
  182.5030  177.5090  139.2930 C   0  0  0  0  0  2  0  0  0  0  0  0
  182.3810  179.3780  143.2850 O   0  0  0  0  0  0  0  0  0  0  0  0
  181.1860  178.7140  143.6700 C   0  0  0  0  0  1  0  0  0  0  0  0
  188.3320  177.0260  142.8520 N   0  0  0  0  0  2  0  0  0  0  0  0
  189.2490  177.8850  142.1000 C   0  0  1  0  0  3  0  0  0  0  0  0
  191.4940  177.6260  143.2860 S   0  0  0  0  0  0  0  0  0  0  0  0
  190.6530  177.3580  142.1550 C   0  0  0  0  0  3  0  0  0  0  0  0
  188.7650  178.0570  140.6650 C   0  0  0  0  0  2  0  0  0  0  0  0
  189.7400  177.6580  138.4000 C   0  0  0  0  0  3  0  0  0  0  0  0
  188.9180  178.7380  137.7740 C   0  0  0  0  0  1  0  0  0  0  0  0
  189.6770  177.3570  139.7010 C   0  0  0  0  0  3  0  0  0  0  0  0
  1 10  1  0  0  0  0
  3  5  2  0  0  0  0
  3  9  1  0  0  0  0
  4  8  2  0  0  0  0
  5 11  1  0  0  0  0
  7  4  1  0  0  0  0
  7  2  1  0  0  0  0
  8  6  1  0  0  0  0
  9  7  2  0  0  0  0
 10  6  2  0  0  0  0
 11  1  2  0  0  0  0
 11  4  1  0  0  0  0
 12 15  1  0  0  0  0
 13 15  1  0  0  0  0
 14 16  2  0  0  0  0
 14 18  1  0  0  0  0
 15  3  1  1  0  0  0
 16 13  1  0  0  0  0
 17 14  1  0  0  0  0
 18 12  1  0  0  0  0
 19  9  1  0  0  0  0
 19 20  1  0  0  0  0
 21  1  1  0  0  0  0
 22 25  1  6  0  0  0
 22 24  1  0  0  0  0
 22 21  1  0  0  0  0
 24 23  2  0  0  0  0
 26 28  2  0  0  0  0
 27 26  1  0  0  0  0
 28 25  1  0  0  0  0
M  END
>  <MODEL>
4

>  <REMARK>
 VINA RESULT:      -8.4      3.624      6.728
  Name = 
  7 active torsions:
  status: ('A' for Active; 'I' for Inactive)
    1  A    between atoms: C_1  and  N_2
    2  A    between atoms: N_2  and  C_3
    3  A    between atoms: C_3  and  C_7
    4  A    between atoms: C_3  and  C_11
    5  A    between atoms: C_7  and  C_28
    6  A    between atoms: C_10  and  C_13
    7  A    between atoms: O_14  and  C_25
                            x       y       z     vdW  Elec       q    Type
                         _______ _______ _______ _____ _____    ______ ____

>  <TORSDO>
F 7

$$$$
=
 OpenBabel10272401593D

 28 30  0  0  1  0  0  0  0  0999 V2000
  184.5960  178.4280  143.0320 C   0  0  0  0  0  0  0  0  0  0  0  0
  186.4250  178.4120  147.4900 F   0  0  0  0  0  0  0  0  0  0  0  0
  187.9890  177.7570  144.2280 C   0  0  0  0  0  0  0  0  0  0  0  0
  185.5080  178.4240  145.2950 C   0  0  0  0  0  0  0  0  0  0  0  0
  186.9090  177.9320  143.4180 N   0  0  0  0  0  0  0  0  0  0  0  0
  183.1650  178.9280  144.9340 C   0  0  0  0  0  3  0  0  0  0  0  0
  186.6020  178.2510  146.1530 C   0  0  0  0  0  0  0  0  0  0  0  0
  184.2460  178.7590  145.8000 C   0  0  0  0  0  3  0  0  0  0  0  0
  187.8640  177.9130  145.6190 C   0  0  0  0  0  0  0  0  0  0  0  0
  183.3390  178.7630  143.5580 C   0  0  0  0  0  3  0  0  0  0  0  0
  185.6830  178.2580  143.9040 C   0  0  0  0  0  0  0  0  0  0  0  0
  190.2730  178.5810  143.6910 C   0  0  0  0  0  2  0  0  0  0  0  0
  189.1450  176.9640  142.1740 C   0  0  0  0  0  2  0  0  0  0  0  0
  191.6020  177.3440  141.9210 C   0  0  0  0  0  0  0  0  0  0  0  0
  189.3140  177.3980  143.6280 C   0  0  2  0  0  3  0  0  0  0  0  0
  190.4760  176.7400  141.5070 C   0  0  0  0  0  3  0  0  0  0  0  0
  192.7620  177.0820  141.2670 F   0  0  0  0  0  0  0  0  0  0  0  0
  191.6550  178.1580  143.1920 C   0  0  0  0  0  2  0  0  0  0  0  0
  189.0050  177.7220  146.4180 O   0  0  0  0  0  0  0  0  0  0  0  0
  189.1510  176.6880  147.3800 C   0  0  0  0  0  1  0  0  0  0  0  0
  184.7850  178.2550  141.6180 N   0  0  0  0  0  2  0  0  0  0  0  0
  183.8160  178.5930  140.5730 C   0  0  1  0  0  3  0  0  0  0  0  0
  185.1460  178.3210  138.4120 S   0  0  0  0  0  0  0  0  0  0  0  0
  184.4990  179.1720  139.3690 C   0  0  0  0  0  3  0  0  0  0  0  0
  182.9700  177.3770  140.2150 C   0  0  0  0  0  2  0  0  0  0  0  0
  180.5490  176.7680  140.1440 C   0  0  0  0  0  3  0  0  0  0  0  0
  180.8350  175.3840  139.6560 C   0  0  0  0  0  1  0  0  0  0  0  0
  181.5100  177.6610  140.4030 C   0  0  0  0  0  3  0  0  0  0  0  0
  1 10  2  0  0  0  0
  1 11  1  0  0  0  0
  3  9  1  0  0  0  0
  4  8  1  0  0  0  0
  4  7  1  0  0  0  0
  5 11  1  0  0  0  0
  5  3  2  0  0  0  0
  6  8  2  0  0  0  0
  7  2  1  0  0  0  0
  9  7  2  0  0  0  0
  9 19  1  0  0  0  0
 10  6  1  0  0  0  0
 11  4  2  0  0  0  0
 13 15  1  0  0  0  0
 14 18  1  0  0  0  0
 15 12  1  0  0  0  0
 15  3  1  6  0  0  0
 16 14  2  0  0  0  0
 16 13  1  0  0  0  0
 17 14  1  0  0  0  0
 18 12  1  0  0  0  0
 19 20  1  0  0  0  0
 21  1  1  0  0  0  0
 22 24  1  6  0  0  0
 22 21  1  0  0  0  0
 23 24  2  0  0  0  0
 25 28  1  0  0  0  0
 25 22  1  0  0  0  0
 26 28  2  0  0  0  0
 27 26  1  0  0  0  0
M  END
>  <MODEL>
5

>  <REMARK>
 VINA RESULT:      -8.4      1.918      2.613
  Name = 
  7 active torsions:
  status: ('A' for Active; 'I' for Inactive)
    1  A    between atoms: C_1  and  N_2
    2  A    between atoms: N_2  and  C_3
    3  A    between atoms: C_3  and  C_7
    4  A    between atoms: C_3  and  C_11
    5  A    between atoms: C_7  and  C_28
    6  A    between atoms: C_10  and  C_13
    7  A    between atoms: O_14  and  C_25
                            x       y       z     vdW  Elec       q    Type
                         _______ _______ _______ _____ _____    ______ ____

>  <TORSDO>
F 7

$$$$
=
 OpenBabel10272401593D

 28 30  0  0  1  0  0  0  0  0999 V2000
  188.1530  177.0240  143.7910 C   0  0  0  0  0  0  0  0  0  0  0  0
  185.6630  179.2180  140.2970 F   0  0  0  0  0  0  0  0  0  0  0  0
  189.0100  177.6950  140.2970 C   0  0  0  0  0  0  0  0  0  0  0  0
  186.8800  178.1370  142.0320 C   0  0  0  0  0  0  0  0  0  0  0  0
  189.0690  177.2750  141.5900 N   0  0  0  0  0  0  0  0  0  0  0  0
  185.9300  177.8980  144.2490 C   0  0  0  0  0  3  0  0  0  0  0  0
  186.7910  178.5800  140.7060 C   0  0  0  0  0  0  0  0  0  0  0  0
  185.8270  178.3450  142.9300 C   0  0  0  0  0  3  0  0  0  0  0  0
  187.8670  178.3590  139.8190 C   0  0  0  0  0  0  0  0  0  0  0  0
  187.0860  177.2420  144.6760 C   0  0  0  0  0  3  0  0  0  0  0  0
  188.0480  177.4730  142.4650 C   0  0  0  0  0  0  0  0  0  0  0  0
  189.9690  176.1550  138.5960 C   0  0  0  0  0  2  0  0  0  0  0  0
  191.4700  177.3510  140.1790 C   0  0  0  0  0  2  0  0  0  0  0  0
  192.4640  176.2640  138.1600 C   0  0  0  0  0  0  0  0  0  0  0  0
  190.1700  177.4450  139.3830 C   0  0  2  0  0  3  0  0  0  0  0  0
  192.6260  176.9540  139.3010 C   0  0  0  0  0  3  0  0  0  0  0  0
  193.5610  175.9520  137.4240 F   0  0  0  0  0  0  0  0  0  0  0  0
  191.0980  175.9830  137.5810 C   0  0  0  0  0  2  0  0  0  0  0  0
  187.8480  178.7760  138.4770 O   0  0  0  0  0  0  0  0  0  0  0  0
  187.0140  178.2180  137.4720 C   0  0  0  0  0  1  0  0  0  0  0  0
  189.3470  176.3510  144.2220 N   0  0  0  0  0  2  0  0  0  0  0  0
  190.4600  176.9600  144.9540 C   0  0  1  0  0  3  0  0  0  0  0  0
  191.2480  179.2590  144.1750 S   0  0  0  0  0  0  0  0  0  0  0  0
  191.2890  177.8300  144.0550 C   0  0  0  0  0  3  0  0  0  0  0  0
  189.9450  177.7280  146.1660 C   0  0  0  0  0  2  0  0  0  0  0  0
  188.4880  177.1230  148.1040 C   0  0  0  0  0  3  0  0  0  0  0  0
  187.8230  178.4620  148.1160 C   0  0  0  0  0  1  0  0  0  0  0  0
  189.4360  176.7900  147.2210 C   0  0  0  0  0  3  0  0  0  0  0  0
  1 21  1  0  0  0  0
  1 10  1  0  0  0  0
  2  7  1  0  0  0  0
  3  5  2  0  0  0  0
  4 11  1  0  0  0  0
  4  8  2  0  0  0  0
  5 11  1  0  0  0  0
  6 10  2  0  0  0  0
  7  4  1  0  0  0  0
  8  6  1  0  0  0  0
  9  3  1  0  0  0  0
  9  7  2  0  0  0  0
 11  1  2  0  0  0  0
 12 15  1  0  0  0  0
 14 16  2  0  0  0  0
 15 13  1  0  0  0  0
 15  3  1  1  0  0  0
 16 13  1  0  0  0  0
 17 14  1  0  0  0  0
 18 14  1  0  0  0  0
 18 12  1  0  0  0  0
 19  9  1  0  0  0  0
 20 19  1  0  0  0  0
 21 22  1  0  0  0  0
 22 24  1  6  0  0  0
 22 25  1  0  0  0  0
 24 23  2  0  0  0  0
 25 28  1  0  0  0  0
 26 27  1  0  0  0  0
 28 26  2  0  0  0  0
M  END
>  <MODEL>
6

>  <REMARK>
 VINA RESULT:      -8.3      3.460      5.842
  Name = 
  7 active torsions:
  status: ('A' for Active; 'I' for Inactive)
    1  A    between atoms: C_1  and  N_2
    2  A    between atoms: N_2  and  C_3
    3  A    between atoms: C_3  and  C_7
    4  A    between atoms: C_3  and  C_11
    5  A    between atoms: C_7  and  C_28
    6  A    between atoms: C_10  and  C_13
    7  A    between atoms: O_14  and  C_25
                            x       y       z     vdW  Elec       q    Type
                         _______ _______ _______ _____ _____    ______ ____

>  <TORSDO>
F 7

$$$$
=
 OpenBabel10272401593D

 28 30  0  0  1  0  0  0  0  0999 V2000
  188.7720  176.9230  143.4010 C   0  0  0  0  0  0  0  0  0  0  0  0
  188.0050  178.4640  138.9000 F   0  0  0  0  0  0  0  0  0  0  0  0
  185.8670  178.5590  141.8900 C   0  0  0  0  0  0  0  0  0  0  0  0
  188.3980  177.6990  141.1180 C   0  0  0  0  0  0  0  0  0  0  0  0
  186.7020  177.9640  142.7860 N   0  0  0  0  0  0  0  0  0  0  0  0
  190.5010  176.6480  141.7120 C   0  0  0  0  0  3  0  0  0  0  0  0
  187.5610  178.3080  140.1740 C   0  0  0  0  0  0  0  0  0  0  0  0
  189.6770  177.2540  140.7610 C   0  0  0  0  0  3  0  0  0  0  0  0
  186.2750  178.7470  140.5580 C   0  0  0  0  0  0  0  0  0  0  0  0
  190.0500  176.4840  143.0240 C   0  0  0  0  0  3  0  0  0  0  0  0
  187.9440  177.5320  142.4440 C   0  0  0  0  0  0  0  0  0  0  0  0
  184.3220  178.7770  143.8260 C   0  0  0  0  0  2  0  0  0  0  0  0
  183.4190  178.2690  141.5640 C   0  0  0  0  0  2  0  0  0  0  0  0
  181.8430  179.0210  143.3520 C   0  0  0  0  0  0  0  0  0  0  0  0
  184.5100  179.0120  142.3320 C   0  0  2  0  0  3  0  0  0  0  0  0
  182.0490  178.6000  142.0930 C   0  0  0  0  0  3  0  0  0  0  0  0
  180.5760  179.3040  143.7470 F   0  0  0  0  0  0  0  0  0  0  0  0
  182.9840  179.3610  144.2810 C   0  0  0  0  0  2  0  0  0  0  0  0
  185.3820  179.3650  139.6670 O   0  0  0  0  0  0  0  0  0  0  0  0
  184.8390  178.7440  138.5110 C   0  0  0  0  0  1  0  0  0  0  0  0
  188.2990  176.7570  144.7480 N   0  0  0  0  0  2  0  0  0  0  0  0
  188.0990  177.8270  145.7270 C   0  0  1  0  0  3  0  0  0  0  0  0
  186.0690  178.6170  147.0560 S   0  0  0  0  0  0  0  0  0  0  0  0
  186.9100  177.5490  146.5990 C   0  0  0  0  0  3  0  0  0  0  0  0
  189.3660  178.0410  146.5490 C   0  0  0  0  0  2  0  0  0  0  0  0
  190.7830  176.1070  147.2500 C   0  0  0  0  0  3  0  0  0  0  0  0
  191.8440  176.4270  146.2480 C   0  0  0  0  0  1  0  0  0  0  0  0
  189.6720  176.8380  147.3910 C   0  0  0  0  0  3  0  0  0  0  0  0
  1 21  1  0  0  0  0
  2  7  1  0  0  0  0
  3  5  2  0  0  0  0
  4 11  1  0  0  0  0
  6 10  2  0  0  0  0
  7  9  2  0  0  0  0
  7  4  1  0  0  0  0
  8  4  2  0  0  0  0
  8  6  1  0  0  0  0
  9  3  1  0  0  0  0
 10  1  1  0  0  0  0
 11  5  1  0  0  0  0
 11  1  2  0  0  0  0
 12 18  1  0  0  0  0
 13 16  1  0  0  0  0
 13 15  1  0  0  0  0
 14 17  1  0  0  0  0
 14 18  1  0  0  0  0
 15  3  1  6  0  0  0
 15 12  1  0  0  0  0
 16 14  2  0  0  0  0
 19  9  1  0  0  0  0
 20 19  1  0  0  0  0
 21 22  1  0  0  0  0
 22 25  1  1  0  0  0
 22 24  1  0  0  0  0
 24 23  2  0  0  0  0
 25 28  1  0  0  0  0
 26 28  2  0  0  0  0
 27 26  1  0  0  0  0
M  END
>  <MODEL>
7

>  <REMARK>
 VINA RESULT:      -8.3      3.206      7.612
  Name = 
  7 active torsions:
  status: ('A' for Active; 'I' for Inactive)
    1  A    between atoms: C_1  and  N_2
    2  A    between atoms: N_2  and  C_3
    3  A    between atoms: C_3  and  C_7
    4  A    between atoms: C_3  and  C_11
    5  A    between atoms: C_7  and  C_28
    6  A    between atoms: C_10  and  C_13
    7  A    between atoms: O_14  and  C_25
                            x       y       z     vdW  Elec       q    Type
                         _______ _______ _______ _____ _____    ______ ____

>  <TORSDO>
F 7

$$$$
=
 OpenBabel10272401593D

 28 30  0  0  1  0  0  0  0  0999 V2000
  189.8380  177.8650  142.6090 C   0  0  0  0  0  0  0  0  0  0  0  0
  188.1840  177.8360  138.0840 F   0  0  0  0  0  0  0  0  0  0  0  0
  186.5220  178.6330  141.2650 C   0  0  0  0  0  0  0  0  0  0  0  0
  189.0150  177.8460  140.3130 C   0  0  0  0  0  0  0  0  0  0  0  0
  187.5620  178.4390  142.1210 N   0  0  0  0  0  0  0  0  0  0  0  0
  191.3200  177.2600  140.7790 C   0  0  0  0  0  3  0  0  0  0  0  0
  187.9620  178.0390  139.4080 C   0  0  0  0  0  0  0  0  0  0  0  0
  190.2800  177.4490  139.8660 C   0  0  0  0  0  3  0  0  0  0  0  0
  186.6940  178.4390  139.8840 C   0  0  0  0  0  0  0  0  0  0  0  0
  191.0990  177.4660  142.1420 C   0  0  0  0  0  3  0  0  0  0  0  0
  188.7930  178.0540  141.6910 C   0  0  0  0  0  0  0  0  0  0  0  0
  185.2330  179.1690  143.3230 C   0  0  0  0  0  2  0  0  0  0  0  0
  184.1070  178.0570  141.4040 C   0  0  0  0  0  2  0  0  0  0  0  0
  182.7020  179.0710  143.2050 C   0  0  0  0  0  0  0  0  0  0  0  0
  185.1890  179.0560  141.8030 C   0  0  2  0  0  3  0  0  0  0  0  0
  182.7890  178.3820  142.0560 C   0  0  0  0  0  3  0  0  0  0  0  0
  181.4740  179.3260  143.7230 F   0  0  0  0  0  0  0  0  0  0  0  0
  183.9060  179.7230  143.8420 C   0  0  0  0  0  2  0  0  0  0  0  0
  185.5930  178.6510  139.0360 O   0  0  0  0  0  0  0  0  0  0  0  0
  185.1220  177.7140  138.0780 C   0  0  0  0  0  1  0  0  0  0  0  0
  189.6000  178.0780  144.0110 N   0  0  0  0  0  2  0  0  0  0  0  0
  189.2630  177.0440  144.9920 C   0  0  1  0  0  3  0  0  0  0  0  0
  191.6070  176.5390  145.8660 S   0  0  0  0  0  0  0  0  0  0  0  0
  190.2700  177.0030  146.1040 C   0  0  0  0  0  3  0  0  0  0  0  0
  187.8470  177.2510  145.5190 C   0  0  0  0  0  2  0  0  0  0  0  0
  186.7840  178.3890  147.4720 C   0  0  0  0  0  3  0  0  0  0  0  0
  185.4390  178.4120  146.8210 C   0  0  0  0  0  1  0  0  0  0  0  0
  187.8650  177.8590  146.8900 C   0  0  0  0  0  3  0  0  0  0  0  0
  1 21  1  0  0  0  0
  2  7  1  0  0  0  0
  3  5  2  0  0  0  0
  4 11  1  0  0  0  0
  6 10  2  0  0  0  0
  7  9  2  0  0  0  0
  7  4  1  0  0  0  0
  8  4  2  0  0  0  0
  8  6  1  0  0  0  0
  9  3  1  0  0  0  0
 10  1  1  0  0  0  0
 11  5  1  0  0  0  0
 11  1  2  0  0  0  0
 12 18  1  0  0  0  0
 13 15  1  0  0  0  0
 13 16  1  0  0  0  0
 14 17  1  0  0  0  0
 14 18  1  0  0  0  0
 15  3  1  1  0  0  0
 15 12  1  0  0  0  0
 16 14  2  0  0  0  0
 19  9  1  0  0  0  0
 20 19  1  0  0  0  0
 21 22  1  0  0  0  0
 22 25  1  1  0  0  0
 22 24  1  0  0  0  0
 23 24  2  0  0  0  0
 25 28  1  0  0  0  0
 27 26  1  0  0  0  0
 28 26  2  0  0  0  0
M  END
>  <MODEL>
8

>  <REMARK>
 VINA RESULT:      -8.2      3.358      7.271
  Name = 
  7 active torsions:
  status: ('A' for Active; 'I' for Inactive)
    1  A    between atoms: C_1  and  N_2
    2  A    between atoms: N_2  and  C_3
    3  A    between atoms: C_3  and  C_7
    4  A    between atoms: C_3  and  C_11
    5  A    between atoms: C_7  and  C_28
    6  A    between atoms: C_10  and  C_13
    7  A    between atoms: O_14  and  C_25
                            x       y       z     vdW  Elec       q    Type
                         _______ _______ _______ _____ _____    ______ ____

>  <TORSDO>
F 7

$$$$
=
 OpenBabel10272401593D

 28 30  0  0  1  0  0  0  0  0999 V2000
  186.8350  177.7750  144.1850 C   0  0  0  0  0  0  0  0  0  0  0  0
  184.4240  179.2580  140.2850 F   0  0  0  0  0  0  0  0  0  0  0  0
  187.8780  178.0660  140.6890 C   0  0  0  0  0  0  0  0  0  0  0  0
  185.6010  178.5290  142.2190 C   0  0  0  0  0  0  0  0  0  0  0  0
  187.8810  177.8240  142.0280 N   0  0  0  0  0  0  0  0  0  0  0  0
  184.5190  178.4910  144.3880 C   0  0  0  0  0  3  0  0  0  0  0  0
  185.5690  178.7860  140.8430 C   0  0  0  0  0  0  0  0  0  0  0  0
  184.4730  178.7520  143.0170 C   0  0  0  0  0  3  0  0  0  0  0  0
  186.7210  178.5530  140.0590 C   0  0  0  0  0  0  0  0  0  0  0  0
  185.6930  178.0060  144.9680 C   0  0  0  0  0  3  0  0  0  0  0  0
  186.7870  178.0380  142.8060 C   0  0  0  0  0  0  0  0  0  0  0  0
  188.9670  176.5430  139.0520 C   0  0  0  0  0  2  0  0  0  0  0  0
  190.3300  177.6640  140.8060 C   0  0  0  0  0  2  0  0  0  0  0  0
  191.4950  176.6000  138.8670 C   0  0  0  0  0  0  0  0  0  0  0  0
  189.1180  177.8080  139.8880 C   0  0  2  0  0  3  0  0  0  0  0  0
  191.5590  177.2590  140.0360 C   0  0  0  0  0  3  0  0  0  0  0  0
  192.6520  176.2780  138.2350 F   0  0  0  0  0  0  0  0  0  0  0  0
  190.1870  176.3660  138.1490 C   0  0  0  0  0  2  0  0  0  0  0  0
  186.7620  178.7890  138.6740 O   0  0  0  0  0  0  0  0  0  0  0  0
  185.9840  178.0890  137.7140 C   0  0  0  0  0  1  0  0  0  0  0  0
  188.0480  177.2780  144.7730 N   0  0  0  0  0  2  0  0  0  0  0  0
  188.7490  177.8600  145.9190 C   0  0  1  0  0  3  0  0  0  0  0  0
  188.5360  178.0410  148.4570 S   0  0  0  0  0  0  0  0  0  0  0  0
  188.0360  177.5530  147.2030 C   0  0  0  0  0  3  0  0  0  0  0  0
  190.2000  177.3920  145.9520 C   0  0  0  0  0  2  0  0  0  0  0  0
  191.6100  177.2810  143.8930 C   0  0  0  0  0  3  0  0  0  0  0  0
  191.5670  175.7880  143.8550 C   0  0  0  0  0  1  0  0  0  0  0  0
  190.9880  178.0030  144.8320 C   0  0  0  0  0  3  0  0  0  0  0  0
  1 21  1  0  0  0  0
  1 10  1  0  0  0  0
  2  7  1  0  0  0  0
  3  5  2  0  0  0  0
  4 11  1  0  0  0  0
  4  8  2  0  0  0  0
  5 11  1  0  0  0  0
  6 10  2  0  0  0  0
  7  4  1  0  0  0  0
  8  6  1  0  0  0  0
  9  3  1  0  0  0  0
  9  7  2  0  0  0  0
 11  1  2  0  0  0  0
 12 15  1  0  0  0  0
 14 16  2  0  0  0  0
 15  3  1  1  0  0  0
 15 13  1  0  0  0  0
 16 13  1  0  0  0  0
 17 14  1  0  0  0  0
 18 14  1  0  0  0  0
 18 12  1  0  0  0  0
 19  9  1  0  0  0  0
 20 19  1  0  0  0  0
 21 22  1  0  0  0  0
 22 25  1  1  0  0  0
 22 24  1  0  0  0  0
 24 23  2  0  0  0  0
 26 28  2  0  0  0  0
 27 26  1  0  0  0  0
 28 25  1  0  0  0  0
M  END
>  <MODEL>
9

>  <REMARK>
 VINA RESULT:      -8.0      3.373      6.126
  Name = 
  7 active torsions:
  status: ('A' for Active; 'I' for Inactive)
    1  A    between atoms: C_1  and  N_2
    2  A    between atoms: N_2  and  C_3
    3  A    between atoms: C_3  and  C_7
    4  A    between atoms: C_3  and  C_11
    5  A    between atoms: C_7  and  C_28
    6  A    between atoms: C_10  and  C_13
    7  A    between atoms: O_14  and  C_25
                            x       y       z     vdW  Elec       q    Type
                         _______ _______ _______ _____ _____    ______ ____

>  <TORSDO>
F 7

$$$$
