=
 OpenBabel10272415133D

 34 38  0  0  1  0  0  0  0  0999 V2000
  189.1610  177.2270  137.2520 C   0  0  2  0  0  3  0  0  0  0  0  0
  191.1930  173.9460  136.2600 C   0  0  0  0  0  3  0  0  0  0  0  0
  189.0350  174.7470  135.7410 C   0  0  0  0  0  2  0  0  0  0  0  0
  187.1440  178.0680  135.9180 C   0  0  0  0  0  2  0  0  0  0  0  0
  185.8700  176.4190  134.6930 O   0  0  0  0  0  0  0  0  0  0  0  0
  186.3320  177.7500  134.6590 C   0  0  0  0  0  2  0  0  0  0  0  0
  187.8560  175.6690  135.8060 C   0  0  1  0  0  3  0  0  0  0  0  0
  188.3290  177.1080  135.9740 C   0  0  2  0  0  3  0  0  0  0  0  0
  186.9940  175.5800  134.5500 C   0  0  0  0  0  2  0  0  0  0  0  0
  192.4320  173.8820  136.7380 C   0  0  0  0  0  2  0  0  0  0  0  0
  193.1830  174.8310  137.5790 C   0  0  0  0  0  0  0  0  0  0  0  0
  192.7150  175.9960  138.0220 C   0  0  0  0  0  3  0  0  0  0  0  0
  190.1700  174.9830  136.4150 C   0  0  0  0  0  0  0  0  0  0  0  0
  191.4140  176.6420  137.8370 C   0  0  0  0  0  3  0  0  0  0  0  0
  190.3210  176.2580  137.1840 C   0  0  0  0  0  0  0  0  0  0  0  0
  194.5690  174.4780  137.9670 C   0  0  0  0  0  0  0  0  0  0  0  0
  195.2100  175.1770  138.9850 O   0  0  0  0  0  1  0  0  0  0  0  0
  195.2320  173.4980  137.3620 C   0  0  0  0  0  2  0  0  0  0  0  0
  188.3390  176.9400  138.4330 N   0  0  0  0  0  2  0  0  0  0  0  0
  188.2940  178.0880  139.3460 C   0  0  2  0  0  3  0  0  0  0  0  0
  189.0750  179.1470  138.8720 O   0  0  0  0  0  1  0  0  0  0  0  0
  190.3990  177.1520  142.4430 C   0  0  0  0  0  2  0  0  0  0  0  0
  187.6380  177.7130  141.8190 C   0  0  0  0  0  3  0  0  0  0  0  0
  188.8520  177.6850  145.7890 C   0  0  0  0  0  0  0  0  0  0  0  0
  189.7740  177.5490  144.8280 C   0  0  0  0  0  3  0  0  0  0  0  0
  189.3930  177.5010  143.4460 N   0  0  0  0  0  0  0  0  0  0  0  0
  187.0040  177.7300  144.1650 C   0  0  0  0  0  3  0  0  0  0  0  0
  188.0010  177.6170  143.0950 C   0  0  0  0  0  0  0  0  0  0  0  0
  187.4120  177.7630  145.4370 C   0  0  0  0  0  3  0  0  0  0  0  0
  188.6580  177.7050  140.7510 C   0  0  0  0  0  0  0  0  0  0  0  0
  189.9450  177.5000  141.0500 C   0  0  0  0  0  3  0  0  0  0  0  0
  189.2980  177.7480  147.2140 C   0  0  0  0  0  3  0  0  0  0  0  0
  190.5110  176.8660  147.4430 C   0  0  0  0  0  1  0  0  0  0  0  0
  188.1750  177.3410  148.1500 C   0  0  0  0  0  1  0  0  0  0  0  0
  1 19  1  1  0  0  0
  2 13  2  0  0  0  0
  2 10  1  0  0  0  0
  3  7  1  0  0  0  0
  3 13  1  0  0  0  0
  6  5  1  0  0  0  0
  6  4  1  0  0  0  0
  7  9  1  6  0  0  0
  7  8  1  0  0  0  0
  8  4  1  1  0  0  0
  8  1  1  0  0  0  0
  9  5  1  0  0  0  0
 10 11  1  0  0  0  0
 11 16  1  0  0  0  0
 11 12  2  0  0  0  0
 13 15  1  0  0  0  0
 14 12  1  0  0  0  0
 15  1  1  0  0  0  0
 15 14  2  0  0  0  0
 16 17  1  0  0  0  0
 18 16  2  0  0  0  0
 19 20  1  0  0  0  0
 20 21  1  6  0  0  0
 20 30  1  0  0  0  0
 22 26  1  0  0  0  0
 23 28  2  0  0  0  0
 24 32  1  0  0  0  0
 25 24  2  0  0  0  0
 26 25  1  0  0  0  0
 27 29  2  0  0  0  0
 28 26  1  0  0  0  0
 28 27  1  0  0  0  0
 29 24  1  0  0  0  0
 30 31  2  0  0  0  0
 30 23  1  0  0  0  0
 31 22  1  0  0  0  0
 32 33  1  0  0  0  0
 32 34  1  0  0  0  0
M  END
>  <MODEL>
1

>  <REMARK>
 VINA RESULT:      -9.2      0.000      0.000
  Name = 
  5 active torsions:
  status: ('A' for Active; 'I' for Inactive)
    1  A    between atoms: C_1  and  N_9
    2  A    between atoms: C_3  and  C_25
    3  A    between atoms: C_7  and  C_11
    4  A    between atoms: C_8  and  N_9
    5  A    between atoms: C_8  and  C_30
                            x       y       z     vdW  Elec       q    Type
                         _______ _______ _______ _____ _____    ______ ____

>  <TORSDO>
F 5

$$$$
=
 OpenBabel10272415133D

 34 38  0  0  1  0  0  0  0  0999 V2000
  191.2260  176.6560  138.2420 C   0  0  2  0  0  3  0  0  0  0  0  0
  191.6410  173.2170  136.2710 C   0  0  0  0  0  3  0  0  0  0  0  0
  189.8090  174.6420  136.6970 C   0  0  0  0  0  3  0  0  0  0  0  0
  189.2510  178.2410  137.8690 C   0  0  0  0  0  2  0  0  0  0  0  0
  187.1810  177.2580  137.1000 O   0  0  0  0  0  0  0  0  0  0  0  0
  187.9990  178.4010  137.0000 C   0  0  0  0  0  2  0  0  0  0  0  0
  189.0810  175.8100  137.2900 C   0  0  1  0  0  3  0  0  0  0  0  0
  190.0130  177.0120  137.3810 C   0  0  2  0  0  3  0  0  0  0  0  0
  187.8590  176.1990  136.4630 C   0  0  0  0  0  2  0  0  0  0  0  0
  192.8800  172.7370  136.2250 C   0  0  0  0  0  3  0  0  0  0  0  0
  194.1340  173.2710  136.7850 C   0  0  0  0  0  0  0  0  0  0  0  0
  194.2420  174.4090  137.4700 C   0  0  0  0  0  3  0  0  0  0  0  0
  191.1190  174.4350  136.8960 C   0  0  0  0  0  0  0  0  0  0  0  0
  193.2330  175.3960  137.8580 C   0  0  0  0  0  3  0  0  0  0  0  0
  191.9210  175.4480  137.6500 C   0  0  0  0  0  0  0  0  0  0  0  0
  195.3810  172.4990  136.5750 C   0  0  0  0  0  0  0  0  0  0  0  0
  195.9040  172.3480  135.2940 O   0  0  0  0  0  1  0  0  0  0  0  0
  196.0270  171.9330  137.5890 C   0  0  0  0  0  2  0  0  0  0  0  0
  190.8150  176.3680  139.6210 N   0  0  0  0  0  2  0  0  0  0  0  0
  191.3110  177.3880  140.5510 C   0  0  2  0  0  3  0  0  0  0  0  0
  192.7090  177.4430  140.5500 O   0  0  0  0  0  1  0  0  0  0  0  0
  191.0910  177.2380  144.4010 C   0  0  0  0  0  2  0  0  0  0  0  0
  189.3060  177.0270  142.1430 C   0  0  0  0  0  3  0  0  0  0  0  0
  187.7150  177.5820  145.9370 C   0  0  0  0  0  0  0  0  0  0  0  0
  189.0440  177.6230  145.7790 C   0  0  0  0  0  3  0  0  0  0  0  0
  189.6380  177.3840  144.4960 N   0  0  0  0  0  0  0  0  0  0  0  0
  187.3360  177.0400  143.5670 C   0  0  0  0  0  3  0  0  0  0  0  0
  188.7870  177.1150  143.3650 C   0  0  0  0  0  0  0  0  0  0  0  0
  186.8340  177.2640  144.7850 C   0  0  0  0  0  3  0  0  0  0  0  0
  190.7570  177.2090  141.9340 C   0  0  0  0  0  0  0  0  0  0  0  0
  191.5750  177.3620  142.9810 C   0  0  0  0  0  3  0  0  0  0  0  0
  187.1390  177.8550  147.2890 C   0  0  0  0  0  3  0  0  0  0  0  0
  186.0500  178.9080  147.2120 C   0  0  0  0  0  1  0  0  0  0  0  0
  188.2200  178.2940  148.2590 C   0  0  0  0  0  1  0  0  0  0  0  0
  1 19  1  1  0  0  0
  2 13  1  0  0  0  0
  3 13  2  0  0  0  0
  3  7  1  0  0  0  0
  6  5  1  0  0  0  0
  6  4  1  0  0  0  0
  7  9  1  6  0  0  0
  7  8  1  0  0  0  0
  8  4  1  1  0  0  0
  8  1  1  0  0  0  0
  9  5  1  0  0  0  0
 10  2  2  0  0  0  0
 10 11  1  0  0  0  0
 11 12  2  0  0  0  0
 12 14  1  0  0  0  0
 13 15  1  0  0  0  0
 15 14  2  0  0  0  0
 15  1  1  0  0  0  0
 16 11  1  0  0  0  0
 16 18  2  0  0  0  0
 17 16  1  0  0  0  0
 19 20  1  0  0  0  0
 20 21  1  1  0  0  0
 20 30  1  0  0  0  0
 22 26  1  0  0  0  0
 23 28  2  0  0  0  0
 24 32  1  0  0  0  0
 25 24  2  0  0  0  0
 26 25  1  0  0  0  0
 27 29  2  0  0  0  0
 28 27  1  0  0  0  0
 28 26  1  0  0  0  0
 29 24  1  0  0  0  0
 30 23  1  0  0  0  0
 30 31  2  0  0  0  0
 31 22  1  0  0  0  0
 32 34  1  0  0  0  0
 33 32  1  0  0  0  0
M  END
>  <MODEL>
2

>  <REMARK>
 VINA RESULT:      -9.2      1.640      2.384
  Name = 
  5 active torsions:
  status: ('A' for Active; 'I' for Inactive)
    1  A    between atoms: C_1  and  N_9
    2  A    between atoms: C_3  and  C_25
    3  A    between atoms: C_7  and  C_11
    4  A    between atoms: C_8  and  N_9
    5  A    between atoms: C_8  and  C_30
                            x       y       z     vdW  Elec       q    Type
                         _______ _______ _______ _____ _____    ______ ____

>  <TORSDO>
F 5

$$$$
=
 OpenBabel10272415133D

 34 38  0  0  1  0  0  0  0  0999 V2000
  189.2150  176.9890  140.9820 C   0  0  2  0  0  3  0  0  0  0  0  0
  193.1400  177.2860  140.3600 C   0  0  0  0  0  3  0  0  0  0  0  0
  191.7390  177.7650  142.1980 C   0  0  0  0  0  3  0  0  0  0  0  0
  188.1810  176.9230  143.3240 C   0  0  0  0  0  2  0  0  0  0  0  0
  189.4090  178.0080  145.1000 O   0  0  0  0  0  0  0  0  0  0  0  0
  188.5800  176.9080  144.8020 C   0  0  0  0  0  2  0  0  0  0  0  0
  190.4480  177.9180  142.9420 C   0  0  1  0  0  3  0  0  0  0  0  0
  189.4560  176.8540  142.4870 C   0  0  2  0  0  3  0  0  0  0  0  0
  190.6420  177.7940  144.4510 C   0  0  0  0  0  2  0  0  0  0  0  0
  193.5570  176.8670  139.1700 C   0  0  0  0  0  3  0  0  0  0  0  0
  192.8030  176.3050  138.0350 C   0  0  0  0  0  0  0  0  0  0  0  0
  191.4870  176.1010  138.0180 C   0  0  0  0  0  3  0  0  0  0  0  0
  191.7920  177.3270  140.9310 C   0  0  0  0  0  0  0  0  0  0  0  0
  190.4620  176.3590  139.0310 C   0  0  0  0  0  3  0  0  0  0  0  0
  190.5370  176.8740  140.2530 C   0  0  0  0  0  0  0  0  0  0  0  0
  193.5520  175.9280  136.8130 C   0  0  0  0  0  0  0  0  0  0  0  0
  194.4980  176.7960  136.2760 O   0  0  0  0  0  1  0  0  0  0  0  0
  193.3460  174.7660  136.2030 C   0  0  0  0  0  2  0  0  0  0  0  0
  188.5850  178.2780  140.6730 N   0  0  0  0  0  2  0  0  0  0  0  0
  187.5280  178.1280  139.6660 C   0  0  2  0  0  3  0  0  0  0  0  0
  187.8580  178.7900  138.4780 O   0  0  0  0  0  1  0  0  0  0  0  0
  183.7330  178.8020  139.8470 C   0  0  0  0  0  2  0  0  0  0  0  0
  186.0150  178.9140  141.6100 C   0  0  0  0  0  3  0  0  0  0  0  0
  182.1960  179.0380  143.2320 C   0  0  0  0  0  0  0  0  0  0  0  0
  182.3350  178.8300  141.9170 C   0  0  0  0  0  3  0  0  0  0  0  0
  183.6330  178.8320  141.3070 N   0  0  0  0  0  0  0  0  0  0  0  0
  184.6200  179.3060  143.5600 C   0  0  0  0  0  3  0  0  0  0  0  0
  184.7970  179.0450  142.1280 C   0  0  0  0  0  0  0  0  0  0  0  0
  183.3880  179.3000  144.0780 C   0  0  0  0  0  3  0  0  0  0  0  0
  186.1860  178.5460  140.1890 C   0  0  0  0  0  0  0  0  0  0  0  0
  185.1200  178.4410  139.3880 C   0  0  0  0  0  3  0  0  0  0  0  0
  180.8250  179.0100  143.8270 C   0  0  0  0  0  3  0  0  0  0  0  0
  180.1400  177.6860  143.5460 C   0  0  0  0  0  1  0  0  0  0  0  0
  179.9820  180.1550  143.2980 C   0  0  0  0  0  1  0  0  0  0  0  0
  1 19  1  1  0  0  0
  1  8  1  0  0  0  0
  2 13  1  0  0  0  0
  4  6  1  0  0  0  0
  6  5  1  0  0  0  0
  7  3  1  6  0  0  0
  7  9  1  0  0  0  0
  8  7  1  0  0  0  0
  8  4  1  1  0  0  0
  9  5  1  0  0  0  0
 10  2  2  0  0  0  0
 11 10  1  0  0  0  0
 12 11  2  0  0  0  0
 12 14  1  0  0  0  0
 13  3  2  0  0  0  0
 14 15  2  0  0  0  0
 15 13  1  0  0  0  0
 15  1  1  0  0  0  0
 16 11  1  0  0  0  0
 17 16  1  0  0  0  0
 18 16  2  0  0  0  0
 20 21  1  6  0  0  0
 20 30  1  0  0  0  0
 20 19  1  0  0  0  0
 22 26  1  0  0  0  0
 23 28  2  0  0  0  0
 24 32  1  0  0  0  0
 24 29  1  0  0  0  0
 25 24  2  0  0  0  0
 26 25  1  0  0  0  0
 26 28  1  0  0  0  0
 27 29  2  0  0  0  0
 28 27  1  0  0  0  0
 30 23  1  0  0  0  0
 31 22  1  0  0  0  0
 31 30  2  0  0  0  0
 33 32  1  0  0  0  0
 34 32  1  0  0  0  0
M  END
>  <MODEL>
3

>  <REMARK>
 VINA RESULT:      -8.9      3.407      6.198
  Name = 
  5 active torsions:
  status: ('A' for Active; 'I' for Inactive)
    1  A    between atoms: C_1  and  N_9
    2  A    between atoms: C_3  and  C_25
    3  A    between atoms: C_7  and  C_11
    4  A    between atoms: C_8  and  N_9
    5  A    between atoms: C_8  and  C_30
                            x       y       z     vdW  Elec       q    Type
                         _______ _______ _______ _____ _____    ______ ____

>  <TORSDO>
F 5

$$$$
=
 OpenBabel10272415133D

 34 38  0  0  1  0  0  0  0  0999 V2000
  184.5090  178.0470  142.0650 C   0  0  2  0  0  3  0  0  0  0  0  0
  185.2030  178.8810  145.8990 C   0  0  0  0  0  3  0  0  0  0  0  0
  183.3980  179.3050  144.4390 C   0  0  0  0  0  2  0  0  0  0  0  0
  182.1590  178.0350  141.0490 C   0  0  0  0  0  2  0  0  0  0  0  0
  180.5010  179.4490  142.0940 O   0  0  0  0  0  0  0  0  0  0  0  0
  180.6890  178.2140  141.4440 C   0  0  0  0  0  2  0  0  0  0  0  0
  182.6550  179.3260  143.1380 C   0  0  1  0  0  3  0  0  0  0  0  0
  183.0010  178.0860  142.3200 C   0  0  2  0  0  3  0  0  0  0  0  0
  181.1430  179.3680  143.3460 C   0  0  0  0  0  2  0  0  0  0  0  0
  186.3560  178.4250  146.3770 C   0  0  0  0  0  2  0  0  0  0  0  0
  187.4270  177.6550  145.7200 C   0  0  0  0  0  0  0  0  0  0  0  0
  187.4100  177.2530  144.4500 C   0  0  0  0  0  3  0  0  0  0  0  0
  184.6210  178.7680  144.5590 C   0  0  0  0  0  0  0  0  0  0  0  0
  186.4120  177.4420  143.3960 C   0  0  0  0  0  3  0  0  0  0  0  0
  185.2410  178.0700  143.3900 C   0  0  0  0  0  0  0  0  0  0  0  0
  188.6190  177.2890  146.5200 C   0  0  0  0  0  0  0  0  0  0  0  0
  189.8020  176.9250  145.8850 O   0  0  0  0  0  1  0  0  0  0  0  0
  188.5930  177.2960  147.8490 C   0  0  0  0  0  2  0  0  0  0  0  0
  184.9240  179.1920  141.2450 N   0  0  0  0  0  2  0  0  0  0  0  0
  185.2320  178.7820  139.8710 C   0  0  2  0  0  3  0  0  0  0  0  0
  184.4330  177.7070  139.4670 O   0  0  0  0  0  1  0  0  0  0  0  0
  188.9660  178.1970  140.6530 C   0  0  0  0  0  2  0  0  0  0  0  0
  187.2090  178.0590  138.3680 C   0  0  0  0  0  3  0  0  0  0  0  0
  190.9660  176.3070  138.1430 C   0  0  0  0  0  0  0  0  0  0  0  0
  190.5580  176.8180  139.3110 C   0  0  0  0  0  3  0  0  0  0  0  0
  189.2890  177.4790  139.4200 N   0  0  0  0  0  0  0  0  0  0  0  0
  188.9240  177.0390  136.9810 C   0  0  0  0  0  3  0  0  0  0  0  0
  188.4430  177.5740  138.2590 C   0  0  0  0  0  0  0  0  0  0  0  0
  190.1170  176.4390  136.9320 C   0  0  0  0  0  3  0  0  0  0  0  0
  186.6940  178.4980  139.6810 C   0  0  0  0  0  0  0  0  0  0  0  0
  187.4960  178.5090  140.7500 C   0  0  0  0  0  3  0  0  0  0  0  0
  192.2870  175.6120  138.0800 C   0  0  0  0  0  3  0  0  0  0  0  0
  193.3290  176.4870  137.4090 C   0  0  0  0  0  1  0  0  0  0  0  0
  192.1690  174.2890  137.3460 C   0  0  0  0  0  1  0  0  0  0  0  0
  1 19  1  6  0  0  0
  1  8  1  0  0  0  0
  1 15  1  0  0  0  0
  2 10  1  0  0  0  0
  3 13  1  0  0  0  0
  4  6  1  0  0  0  0
  5  9  1  0  0  0  0
  6  5  1  0  0  0  0
  7  9  1  1  0  0  0
  7  3  1  0  0  0  0
  8  4  1  6  0  0  0
  8  7  1  0  0  0  0
 11 10  1  0  0  0  0
 11 16  1  0  0  0  0
 12 11  2  0  0  0  0
 13  2  2  0  0  0  0
 14 12  1  0  0  0  0
 15 14  2  0  0  0  0
 15 13  1  0  0  0  0
 16 18  2  0  0  0  0
 17 16  1  0  0  0  0
 20 21  1  1  0  0  0
 20 19  1  0  0  0  0
 22 31  1  0  0  0  0
 23 30  1  0  0  0  0
 24 25  2  0  0  0  0
 25 26  1  0  0  0  0
 26 22  1  0  0  0  0
 27 28  1  0  0  0  0
 28 23  2  0  0  0  0
 28 26  1  0  0  0  0
 29 27  2  0  0  0  0
 29 24  1  0  0  0  0
 30 20  1  0  0  0  0
 30 31  2  0  0  0  0
 32 24  1  0  0  0  0
 33 32  1  0  0  0  0
 34 32  1  0  0  0  0
M  END
>  <MODEL>
4

>  <REMARK>
 VINA RESULT:      -8.6      3.512      8.539
  Name = 
  5 active torsions:
  status: ('A' for Active; 'I' for Inactive)
    1  A    between atoms: C_1  and  N_9
    2  A    between atoms: C_3  and  C_25
    3  A    between atoms: C_7  and  C_11
    4  A    between atoms: C_8  and  N_9
    5  A    between atoms: C_8  and  C_30
                            x       y       z     vdW  Elec       q    Type
                         _______ _______ _______ _____ _____    ______ ____

>  <TORSDO>
F 5

$$$$
=
 OpenBabel10272415133D

 34 38  0  0  1  0  0  0  0  0999 V2000
  184.3870  177.8940  137.8150 C   0  0  2  0  0  3  0  0  0  0  0  0
  186.4830  174.6860  136.7220 C   0  0  0  0  0  3  0  0  0  0  0  0
  184.1820  175.2090  136.7200 C   0  0  0  0  0  3  0  0  0  0  0  0
  182.0050  178.3440  136.9920 C   0  0  0  0  0  2  0  0  0  0  0  0
  180.6720  176.4230  136.3800 O   0  0  0  0  0  0  0  0  0  0  0  0
  180.9400  177.7670  136.0540 C   0  0  0  0  0  2  0  0  0  0  0  0
  182.9550  176.0260  136.9900 C   0  0  1  0  0  3  0  0  0  0  0  0
  183.2730  177.5090  136.8400 C   0  0  2  0  0  3  0  0  0  0  0  0
  181.8140  175.6710  136.0400 C   0  0  0  0  0  2  0  0  0  0  0  0
  187.8010  174.8030  136.8450 C   0  0  0  0  0  3  0  0  0  0  0  0
  188.6220  175.9310  137.3220 C   0  0  0  0  0  0  0  0  0  0  0  0
  188.1440  177.1060  137.7270 C   0  0  0  0  0  3  0  0  0  0  0  0
  185.4150  175.6430  137.0210 C   0  0  0  0  0  0  0  0  0  0  0  0
  186.7690  177.6010  137.8270 C   0  0  0  0  0  3  0  0  0  0  0  0
  185.6010  177.0290  137.5530 C   0  0  0  0  0  0  0  0  0  0  0  0
  190.0940  175.7620  137.3550 C   0  0  0  0  0  0  0  0  0  0  0  0
  190.6840  174.9630  138.3290 O   0  0  0  0  0  1  0  0  0  0  0  0
  190.8820  176.3610  136.4690 C   0  0  0  0  0  2  0  0  0  0  0  0
  183.9420  177.7230  139.2030 N   0  0  0  0  0  2  0  0  0  0  0  0
  184.0050  178.9870  139.9450 C   0  0  2  0  0  3  0  0  0  0  0  0
  184.4270  180.0390  139.1260 O   0  0  0  0  0  1  0  0  0  0  0  0
  184.9860  178.5190  143.6480 C   0  0  0  0  0  2  0  0  0  0  0  0
  186.3110  178.8030  141.1000 C   0  0  0  0  0  3  0  0  0  0  0  0
  188.4810  177.4530  144.3710 C   0  0  0  0  0  0  0  0  0  0  0  0
  187.1600  177.6330  144.4990 C   0  0  0  0  0  3  0  0  0  0  0  0
  186.3810  178.1480  143.4100 N   0  0  0  0  0  0  0  0  0  0  0  0
  188.4850  178.2850  142.0560 C   0  0  0  0  0  3  0  0  0  0  0  0
  187.0320  178.4570  142.1630 C   0  0  0  0  0  0  0  0  0  0  0  0
  189.1650  177.8080  143.1020 C   0  0  0  0  0  3  0  0  0  0  0  0
  184.8380  178.8710  141.1870 C   0  0  0  0  0  0  0  0  0  0  0  0
  184.2230  178.6840  142.3600 C   0  0  0  0  0  3  0  0  0  0  0  0
  189.2490  176.8970  145.5260 C   0  0  0  0  0  3  0  0  0  0  0  0
  188.8020  177.5310  146.8300 C   0  0  0  0  0  1  0  0  0  0  0  0
  190.7410  177.1020  145.3330 C   0  0  0  0  0  1  0  0  0  0  0  0
  1 19  1  1  0  0  0
  2 10  2  0  0  0  0
  2 13  1  0  0  0  0
  3  7  1  0  0  0  0
  3 13  2  0  0  0  0
  6  5  1  0  0  0  0
  6  4  1  0  0  0  0
  7  9  1  6  0  0  0
  8  7  1  0  0  0  0
  8  4  1  1  0  0  0
  8  1  1  0  0  0  0
  9  5  1  0  0  0  0
 10 11  1  0  0  0  0
 11 16  1  0  0  0  0
 11 12  2  0  0  0  0
 12 14  1  0  0  0  0
 13 15  1  0  0  0  0
 15  1  1  0  0  0  0
 15 14  2  0  0  0  0
 16 17  1  0  0  0  0
 18 16  2  0  0  0  0
 19 20  1  0  0  0  0
 20 21  1  6  0  0  0
 20 30  1  0  0  0  0
 23 30  1  0  0  0  0
 23 28  2  0  0  0  0
 24 25  2  0  0  0  0
 24 32  1  0  0  0  0
 26 22  1  0  0  0  0
 26 25  1  0  0  0  0
 27 28  1  0  0  0  0
 27 29  2  0  0  0  0
 28 26  1  0  0  0  0
 29 24  1  0  0  0  0
 30 31  2  0  0  0  0
 31 22  1  0  0  0  0
 32 33  1  0  0  0  0
 34 32  1  0  0  0  0
M  END
>  <MODEL>
5

>  <REMARK>
 VINA RESULT:      -8.5      3.101      4.394
  Name = 
  5 active torsions:
  status: ('A' for Active; 'I' for Inactive)
    1  A    between atoms: C_1  and  N_9
    2  A    between atoms: C_3  and  C_25
    3  A    between atoms: C_7  and  C_11
    4  A    between atoms: C_8  and  N_9
    5  A    between atoms: C_8  and  C_30
                            x       y       z     vdW  Elec       q    Type
                         _______ _______ _______ _____ _____    ______ ____

>  <TORSDO>
F 5

$$$$
=
 OpenBabel10272415133D

 34 38  0  0  1  0  0  0  0  0999 V2000
  185.6050  177.8860  142.2480 C   0  0  2  0  0  3  0  0  0  0  0  0
  185.1470  178.9180  146.0700 C   0  0  0  0  0  3  0  0  0  0  0  0
  183.8360  179.2190  144.1310 C   0  0  0  0  0  2  0  0  0  0  0  0
  183.6490  177.7550  140.6010 C   0  0  0  0  0  2  0  0  0  0  0  0
  181.7390  179.1670  141.0470 O   0  0  0  0  0  0  0  0  0  0  0  0
  182.1260  177.9080  140.5450 C   0  0  0  0  0  2  0  0  0  0  0  0
  183.5010  179.1560  142.6720 C   0  0  1  0  0  3  0  0  0  0  0  0
  184.0870  177.8910  142.0560 C   0  0  2  0  0  3  0  0  0  0  0  0
  181.9930  179.1630  142.4340 C   0  0  0  0  0  2  0  0  0  0  0  0
  186.1200  178.5200  146.8840 C   0  0  0  0  0  2  0  0  0  0  0  0
  187.3470  177.7530  146.6050 C   0  0  0  0  0  0  0  0  0  0  0  0
  187.7040  177.2910  145.4070 C   0  0  0  0  0  3  0  0  0  0  0  0
  184.9800  178.7250  144.6270 C   0  0  0  0  0  0  0  0  0  0  0  0
  187.0500  177.4000  144.1020 C   0  0  0  0  0  3  0  0  0  0  0  0
  185.9220  177.9920  143.7250 C   0  0  0  0  0  0  0  0  0  0  0  0
  188.2620  177.4600  147.7330 C   0  0  0  0  0  0  0  0  0  0  0  0
  189.2890  176.5340  147.5770 O   0  0  0  0  0  1  0  0  0  0  0  0
  188.1300  178.0630  148.9090 C   0  0  0  0  0  2  0  0  0  0  0  0
  186.2220  179.0020  141.5230 N   0  0  0  0  0  2  0  0  0  0  0  0
  187.6500  178.7630  141.2870 C   0  0  2  0  0  3  0  0  0  0  0  0
  188.4040  179.9210  141.5010 O   0  0  0  0  0  1  0  0  0  0  0  0
  189.2980  176.7320  138.4490 C   0  0  0  0  0  2  0  0  0  0  0  0
  186.9020  178.2880  138.8580 C   0  0  0  0  0  3  0  0  0  0  0  0
  187.1560  175.7930  135.5500 C   0  0  0  0  0  0  0  0  0  0  0  0
  188.1380  175.7660  136.4590 C   0  0  0  0  0  3  0  0  0  0  0  0
  188.1160  176.6480  137.5890 N   0  0  0  0  0  0  0  0  0  0  0  0
  185.9650  177.5980  136.7240 C   0  0  0  0  0  3  0  0  0  0  0  0
  187.0130  177.5600  137.7500 C   0  0  0  0  0  0  0  0  0  0  0  0
  186.0370  176.7580  135.6870 C   0  0  0  0  0  3  0  0  0  0  0  0
  187.9060  178.1660  139.9340 C   0  0  0  0  0  0  0  0  0  0  0  0
  188.9880  177.3990  139.7620 C   0  0  0  0  0  3  0  0  0  0  0  0
  187.2110  174.8430  134.3970 C   0  0  0  0  0  3  0  0  0  0  0  0
  186.0870  173.8280  134.4760 C   0  0  0  0  0  1  0  0  0  0  0  0
  188.5510  174.1320  134.3460 C   0  0  0  0  0  1  0  0  0  0  0  0
  1 19  1  6  0  0  0
  1 15  1  0  0  0  0
  2 10  1  0  0  0  0
  3 13  1  0  0  0  0
  5  9  1  0  0  0  0
  6  4  1  0  0  0  0
  6  5  1  0  0  0  0
  7  9  1  1  0  0  0
  7  3  1  0  0  0  0
  8  4  1  6  0  0  0
  8  1  1  0  0  0  0
  8  7  1  0  0  0  0
 11 10  1  0  0  0  0
 11 16  1  0  0  0  0
 12 11  2  0  0  0  0
 13  2  2  0  0  0  0
 14 12  1  0  0  0  0
 15 14  2  0  0  0  0
 15 13  1  0  0  0  0
 16 18  2  0  0  0  0
 17 16  1  0  0  0  0
 20 21  1  6  0  0  0
 20 19  1  0  0  0  0
 22 31  1  0  0  0  0
 23 30  1  0  0  0  0
 24 29  1  0  0  0  0
 24 25  2  0  0  0  0
 25 26  1  0  0  0  0
 26 28  1  0  0  0  0
 26 22  1  0  0  0  0
 27 28  1  0  0  0  0
 28 23  2  0  0  0  0
 29 27  2  0  0  0  0
 30 20  1  0  0  0  0
 31 30  2  0  0  0  0
 32 33  1  0  0  0  0
 32 24  1  0  0  0  0
 34 32  1  0  0  0  0
M  END
>  <MODEL>
6

>  <REMARK>
 VINA RESULT:      -8.4      3.268      9.082
  Name = 
  5 active torsions:
  status: ('A' for Active; 'I' for Inactive)
    1  A    between atoms: C_1  and  N_9
    2  A    between atoms: C_3  and  C_25
    3  A    between atoms: C_7  and  C_11
    4  A    between atoms: C_8  and  N_9
    5  A    between atoms: C_8  and  C_30
                            x       y       z     vdW  Elec       q    Type
                         _______ _______ _______ _____ _____    ______ ____

>  <TORSDO>
F 5

$$$$
=
 OpenBabel10272415133D

 34 38  0  0  1  0  0  0  0  0999 V2000
  183.8390  178.1660  138.5250 C   0  0  2  0  0  3  0  0  0  0  0  0
  185.7900  175.3740  136.4580 C   0  0  0  0  0  3  0  0  0  0  0  0
  183.5390  175.6420  137.1150 C   0  0  0  0  0  3  0  0  0  0  0  0
  181.2990  178.4620  138.4070 C   0  0  0  0  0  2  0  0  0  0  0  0
  179.9880  176.5060  137.8600 O   0  0  0  0  0  0  0  0  0  0  0  0
  180.0670  177.9030  137.6890 C   0  0  0  0  0  2  0  0  0  0  0  0
  182.3730  176.2800  137.8080 C   0  0  1  0  0  3  0  0  0  0  0  0
  182.5370  177.7960  137.8140 C   0  0  2  0  0  3  0  0  0  0  0  0
  181.0500  175.9330  137.1310 C   0  0  0  0  0  2  0  0  0  0  0  0
  187.0820  175.6130  136.2630 C   0  0  0  0  0  3  0  0  0  0  0  0
  187.9190  176.7500  136.6870 C   0  0  0  0  0  0  0  0  0  0  0  0
  187.4840  177.8040  137.3760 C   0  0  0  0  0  3  0  0  0  0  0  0
  184.7750  176.1630  137.1600 C   0  0  0  0  0  0  0  0  0  0  0  0
  186.1540  178.1310  137.8930 C   0  0  0  0  0  3  0  0  0  0  0  0
  184.9980  177.4780  137.8360 C   0  0  0  0  0  0  0  0  0  0  0  0
  189.3550  176.7380  136.3230 C   0  0  0  0  0  0  0  0  0  0  0  0
  189.7380  176.7140  134.9850 O   0  0  0  0  0  1  0  0  0  0  0  0
  190.3070  176.7480  137.2500 C   0  0  0  0  0  2  0  0  0  0  0  0
  183.7890  177.7670  139.9370 N   0  0  0  0  0  2  0  0  0  0  0  0
  184.2260  178.8560  140.8170 C   0  0  2  0  0  3  0  0  0  0  0  0
  184.7640  179.9200  140.0840 O   0  0  0  0  0  1  0  0  0  0  0  0
  187.4560  177.6920  142.5790 C   0  0  0  0  0  2  0  0  0  0  0  0
  184.7330  178.3250  143.2960 C   0  0  0  0  0  3  0  0  0  0  0  0
  187.5960  178.0180  146.2870 C   0  0  0  0  0  0  0  0  0  0  0  0
  187.9830  177.9360  145.0080 C   0  0  0  0  0  3  0  0  0  0  0  0
  187.0210  177.9840  143.9460 N   0  0  0  0  0  0  0  0  0  0  0  0
  185.2200  178.1920  145.6740 C   0  0  0  0  0  3  0  0  0  0  0  0
  185.6260  178.1400  144.2650 C   0  0  0  0  0  0  0  0  0  0  0  0
  186.1560  178.1360  146.6260 C   0  0  0  0  0  3  0  0  0  0  0  0
  185.1650  178.3770  141.8850 C   0  0  0  0  0  0  0  0  0  0  0  0
  186.4410  178.1370  141.5610 C   0  0  0  0  0  3  0  0  0  0  0  0
  188.6350  177.9800  147.3610 C   0  0  0  0  0  3  0  0  0  0  0  0
  189.6670  176.9050  147.0790 C   0  0  0  0  0  1  0  0  0  0  0  0
  188.0010  177.7490  148.7200 C   0  0  0  0  0  1  0  0  0  0  0  0
  1 19  1  1  0  0  0
  2 13  1  0  0  0  0
  3 13  2  0  0  0  0
  6  5  1  0  0  0  0
  6  4  1  0  0  0  0
  7  3  1  6  0  0  0
  7  8  1  0  0  0  0
  8  4  1  1  0  0  0
  8  1  1  0  0  0  0
  9  7  1  0  0  0  0
  9  5  1  0  0  0  0
 10  2  2  0  0  0  0
 10 11  1  0  0  0  0
 11 12  2  0  0  0  0
 12 14  1  0  0  0  0
 13 15  1  0  0  0  0
 15 14  2  0  0  0  0
 15  1  1  0  0  0  0
 16 11  1  0  0  0  0
 16 18  2  0  0  0  0
 17 16  1  0  0  0  0
 19 20  1  0  0  0  0
 20 21  1  6  0  0  0
 20 30  1  0  0  0  0
 22 26  1  0  0  0  0
 23 28  2  0  0  0  0
 24 29  1  0  0  0  0
 24 32  1  0  0  0  0
 25 24  2  0  0  0  0
 26 28  1  0  0  0  0
 26 25  1  0  0  0  0
 27 29  2  0  0  0  0
 28 27  1  0  0  0  0
 30 23  1  0  0  0  0
 31 30  2  0  0  0  0
 31 22  1  0  0  0  0
 32 34  1  0  0  0  0
 33 32  1  0  0  0  0
M  END
>  <MODEL>
7

>  <REMARK>
 VINA RESULT:      -8.2      3.434      4.811
  Name = 
  5 active torsions:
  status: ('A' for Active; 'I' for Inactive)
    1  A    between atoms: C_1  and  N_9
    2  A    between atoms: C_3  and  C_25
    3  A    between atoms: C_7  and  C_11
    4  A    between atoms: C_8  and  N_9
    5  A    between atoms: C_8  and  C_30
                            x       y       z     vdW  Elec       q    Type
                         _______ _______ _______ _____ _____    ______ ____

>  <TORSDO>
F 5

$$$$
=
 OpenBabel10272415133D

 34 38  0  0  1  0  0  0  0  0999 V2000
  189.3860  177.9360  142.6450 C   0  0  2  0  0  3  0  0  0  0  0  0
  185.4820  177.6650  143.3950 C   0  0  0  0  0  3  0  0  0  0  0  0
  187.4200  177.0810  144.6080 C   0  0  0  0  0  3  0  0  0  0  0  0
  191.1630  177.8660  144.4870 C   0  0  0  0  0  2  0  0  0  0  0  0
  190.6000  176.6730  146.5130 O   0  0  0  0  0  0  0  0  0  0  0  0
  191.2960  177.7910  146.0110 C   0  0  0  0  0  2  0  0  0  0  0  0
  188.8860  176.8880  144.8530 C   0  0  1  0  0  3  0  0  0  0  0  0
  189.6800  177.9800  144.1460 C   0  0  2  0  0  3  0  0  0  0  0  0
  189.2240  176.9220  146.3410 C   0  0  0  0  0  2  0  0  0  0  0  0
  184.6880  178.1540  142.4470 C   0  0  0  0  0  3  0  0  0  0  0  0
  185.0160  178.7850  141.1560 C   0  0  0  0  0  0  0  0  0  0  0  0
  186.2500  178.9930  140.6990 C   0  0  0  0  0  3  0  0  0  0  0  0
  186.9430  177.5940  143.4640 C   0  0  0  0  0  0  0  0  0  0  0  0
  187.5560  178.6780  141.2810 C   0  0  0  0  0  3  0  0  0  0  0  0
  187.8970  178.0900  142.4230 C   0  0  0  0  0  0  0  0  0  0  0  0
  183.9000  179.2320  140.2910 C   0  0  0  0  0  0  0  0  0  0  0  0
  184.1430  180.0890  139.2220 O   0  0  0  0  0  1  0  0  0  0  0  0
  182.6510  178.8340  140.5070 C   0  0  0  0  0  2  0  0  0  0  0  0
  189.8490  176.6700  142.0640 N   0  0  0  0  0  2  0  0  0  0  0  0
  190.9370  176.8880  141.1050 C   0  0  2  0  0  3  0  0  0  0  0  0
  191.6130  178.0860  141.3630 O   0  0  0  0  0  1  0  0  0  0  0  0
  190.3400  175.5610  137.5310 C   0  0  0  0  0  2  0  0  0  0  0  0
  189.5010  177.7940  139.1540 C   0  0  0  0  0  3  0  0  0  0  0  0
  187.4430  176.9520  135.6490 C   0  0  0  0  0  0  0  0  0  0  0  0
  188.4030  176.1120  136.0550 C   0  0  0  0  0  3  0  0  0  0  0  0
  189.1740  176.3920  137.2310 N   0  0  0  0  0  0  0  0  0  0  0  0
  187.8630  178.5090  137.5070 C   0  0  0  0  0  3  0  0  0  0  0  0
  188.8950  177.5840  137.9890 C   0  0  0  0  0  0  0  0  0  0  0  0
  187.1780  178.2040  136.4020 C   0  0  0  0  0  3  0  0  0  0  0  0
  190.4620  176.8050  139.6840 C   0  0  0  0  0  0  0  0  0  0  0  0
  190.8070  175.7410  138.9510 C   0  0  0  0  0  3  0  0  0  0  0  0
  186.6520  176.6110  134.4270 C   0  0  0  0  0  3  0  0  0  0  0  0
  185.3840  177.4390  134.3540 C   0  0  0  0  0  1  0  0  0  0  0  0
  186.3110  175.1320  134.3990 C   0  0  0  0  0  1  0  0  0  0  0  0
  1 19  1  1  0  0  0
  1  8  1  0  0  0  0
  2 13  1  0  0  0  0
  4  6  1  0  0  0  0
  6  5  1  0  0  0  0
  7  3  1  1  0  0  0
  7  9  1  0  0  0  0
  8  4  1  6  0  0  0
  8  7  1  0  0  0  0
  9  5  1  0  0  0  0
 10  2  2  0  0  0  0
 11 10  1  0  0  0  0
 12 11  2  0  0  0  0
 12 14  1  0  0  0  0
 13  3  2  0  0  0  0
 14 15  2  0  0  0  0
 15  1  1  0  0  0  0
 15 13  1  0  0  0  0
 16 18  2  0  0  0  0
 16 11  1  0  0  0  0
 17 16  1  0  0  0  0
 20 21  1  1  0  0  0
 20 19  1  0  0  0  0
 22 31  1  0  0  0  0
 23 30  1  0  0  0  0
 24 25  2  0  0  0  0
 24 29  1  0  0  0  0
 25 26  1  0  0  0  0
 26 22  1  0  0  0  0
 26 28  1  0  0  0  0
 27 28  1  0  0  0  0
 28 23  2  0  0  0  0
 29 27  2  0  0  0  0
 30 20  1  0  0  0  0
 31 30  2  0  0  0  0
 32 24  1  0  0  0  0
 33 32  1  0  0  0  0
 34 32  1  0  0  0  0
M  END
>  <MODEL>
8

>  <REMARK>
 VINA RESULT:      -8.2      2.503      9.141
  Name = 
  5 active torsions:
  status: ('A' for Active; 'I' for Inactive)
    1  A    between atoms: C_1  and  N_9
    2  A    between atoms: C_3  and  C_25
    3  A    between atoms: C_7  and  C_11
    4  A    between atoms: C_8  and  N_9
    5  A    between atoms: C_8  and  C_30
                            x       y       z     vdW  Elec       q    Type
                         _______ _______ _______ _____ _____    ______ ____

>  <TORSDO>
F 5

$$$$
=
 OpenBabel10272415133D

 34 38  0  0  1  0  0  0  0  0999 V2000
  186.0900  177.9210  142.4910 C   0  0  2  0  0  3  0  0  0  0  0  0
  188.0800  177.9730  145.9440 C   0  0  0  0  0  3  0  0  0  0  0  0
  185.9670  178.7770  145.2660 C   0  0  0  0  0  2  0  0  0  0  0  0
  183.5560  178.2480  142.3430 C   0  0  0  0  0  2  0  0  0  0  0  0
  182.5100  179.5430  144.0950 O   0  0  0  0  0  0  0  0  0  0  0  0
  182.3250  178.4420  143.2350 C   0  0  0  0  0  2  0  0  0  0  0  0
  184.8530  179.0890  144.3140 C   0  0  1  0  0  3  0  0  0  0  0  0
  184.7620  178.0060  143.2450 C   0  0  2  0  0  3  0  0  0  0  0  0
  183.5060  179.1870  145.0270 C   0  0  0  0  0  2  0  0  0  0  0  0
  189.2600  177.3630  145.9260 C   0  0  0  0  0  2  0  0  0  0  0  0
  189.9590  176.6640  144.8330 C   0  0  0  0  0  0  0  0  0  0  0  0
  189.4850  176.5100  143.5970 C   0  0  0  0  0  3  0  0  0  0  0  0
  187.0880  178.1500  144.8800 C   0  0  0  0  0  0  0  0  0  0  0  0
  188.2320  176.9570  142.9870 C   0  0  0  0  0  3  0  0  0  0  0  0
  187.2070  177.6480  143.4760 C   0  0  0  0  0  0  0  0  0  0  0  0
  191.2910  176.0790  145.1130 C   0  0  0  0  0  0  0  0  0  0  0  0
  191.9820  175.3990  144.1150 O   0  0  0  0  0  1  0  0  0  0  0  0
  191.8580  176.1830  146.3110 C   0  0  0  0  0  2  0  0  0  0  0  0
  186.3570  179.1700  141.7690 N   0  0  0  0  0  2  0  0  0  0  0  0
  186.2560  178.9810  140.3170 C   0  0  2  0  0  3  0  0  0  0  0  0
  185.1320  178.2200  139.9790 O   0  0  0  0  0  1  0  0  0  0  0  0
  189.9730  178.0380  139.8860 C   0  0  0  0  0  2  0  0  0  0  0  0
  187.4650  177.5250  138.5550 C   0  0  0  0  0  3  0  0  0  0  0  0
  190.7640  175.1820  137.6300 C   0  0  0  0  0  0  0  0  0  0  0  0
  190.8620  176.0770  138.6210 C   0  0  0  0  0  3  0  0  0  0  0  0
  189.7640  176.9430  138.9380 N   0  0  0  0  0  0  0  0  0  0  0  0
  188.4650  175.8670  137.0860 C   0  0  0  0  0  3  0  0  0  0  0  0
  188.5390  176.8300  138.1900 C   0  0  0  0  0  0  0  0  0  0  0  0
  189.5200  175.0890  136.8270 C   0  0  0  0  0  3  0  0  0  0  0  0
  187.5170  178.4130  139.7340 C   0  0  0  0  0  0  0  0  0  0  0  0
  188.6710  178.6060  140.3820 C   0  0  0  0  0  3  0  0  0  0  0  0
  191.9290  174.2880  137.3460 C   0  0  0  0  0  3  0  0  0  0  0  0
  193.2050  175.0930  137.1930 C   0  0  0  0  0  1  0  0  0  0  0  0
  191.6830  173.4600  136.0980 C   0  0  0  0  0  1  0  0  0  0  0  0
  1 19  1  1  0  0  0
  1  8  1  0  0  0  0
  1 15  1  0  0  0  0
  4  6  1  0  0  0  0
  5  9  1  0  0  0  0
  6  5  1  0  0  0  0
  7  9  1  1  0  0  0
  7  3  1  0  0  0  0
  8  4  1  6  0  0  0
  8  7  1  0  0  0  0
 10  2  1  0  0  0  0
 11 16  1  0  0  0  0
 11 10  1  0  0  0  0
 12 11  2  0  0  0  0
 13  3  1  0  0  0  0
 13  2  2  0  0  0  0
 14 15  2  0  0  0  0
 14 12  1  0  0  0  0
 15 13  1  0  0  0  0
 16 18  2  0  0  0  0
 17 16  1  0  0  0  0
 20 21  1  1  0  0  0
 20 19  1  0  0  0  0
 22 31  1  0  0  0  0
 23 30  1  0  0  0  0
 24 25  2  0  0  0  0
 25 26  1  0  0  0  0
 26 22  1  0  0  0  0
 27 28  1  0  0  0  0
 28 23  2  0  0  0  0
 28 26  1  0  0  0  0
 29 27  2  0  0  0  0
 29 24  1  0  0  0  0
 30 20  1  0  0  0  0
 30 31  2  0  0  0  0
 32 24  1  0  0  0  0
 33 32  1  0  0  0  0
 34 32  1  0  0  0  0
M  END
>  <MODEL>
9

>  <REMARK>
 VINA RESULT:      -8.0      2.699      8.031
  Name = 
  5 active torsions:
  status: ('A' for Active; 'I' for Inactive)
    1  A    between atoms: C_1  and  N_9
    2  A    between atoms: C_3  and  C_25
    3  A    between atoms: C_7  and  C_11
    4  A    between atoms: C_8  and  N_9
    5  A    between atoms: C_8  and  C_30
                            x       y       z     vdW  Elec       q    Type
                         _______ _______ _______ _____ _____    ______ ____

>  <TORSDO>
F 5

$$$$
