=
 OpenBabel10272402133D

 32 37  0  0  1  0  0  0  0  0999 V2000
  184.8680  178.8640  143.0270 C   0  0  0  0  0  0  0  0  0  0  0  0
  187.0450  177.8670  143.5060 C   0  0  0  0  0  0  0  0  0  0  0  0
  183.6130  179.2920  143.4870 C   0  0  0  0  0  3  0  0  0  0  0  0
  185.8000  178.3460  143.9460 C   0  0  0  0  0  0  0  0  0  0  0  0
  187.9700  177.3820  144.4510 C   0  0  0  0  0  0  0  0  0  0  0  0
  190.6670  177.1410  140.1330 C   0  0  0  0  0  2  0  0  0  0  0  0
  187.3480  177.7910  142.0180 C   0  0  1  0  0  3  0  0  0  0  0  0
  191.0380  176.6430  142.3250 C   0  0  0  0  0  2  0  0  0  0  0  0
  189.5250  176.7080  142.6000 C   0  0  1  0  0  3  0  0  0  0  0  0
  185.4900  178.3040  145.3200 C   0  0  0  0  0  0  0  0  0  0  0  0
  189.2550  176.9150  144.0170 N   0  0  0  0  0  2  0  0  0  0  0  0
  186.4070  177.8380  146.2080 N   0  0  0  0  0  0  0  0  0  0  0  0
  184.2390  178.7390  145.7650 C   0  0  0  0  0  3  0  0  0  0  0  0
  186.6520  178.9350  141.2780 C   0  0  0  0  0  2  0  0  0  0  0  0
  185.2320  178.9770  141.6400 N   0  0  0  0  0  0  0  0  0  0  0  0
  188.8580  177.8060  141.7660 C   0  0  1  0  0  3  0  0  0  0  0  0
  187.6330  177.3970  145.8150 C   0  0  0  0  0  0  0  0  0  0  0  0
  183.3010  179.2250  144.8490 C   0  0  0  0  0  3  0  0  0  0  0  0
  191.4320  177.4910  141.2630 O   0  0  0  0  0  0  0  0  0  0  0  0
  189.2160  177.6240  140.2870 C   0  0  0  0  0  2  0  0  0  0  0  0
  183.4340  177.1680  139.3910 N   0  0  0  0  0  0  0  0  0  0  0  0
  183.1000  175.7740  139.1470 C   0  0  0  0  0  1  0  0  0  0  0  0
  184.3730  177.9300  138.6460 C   0  0  0  0  0  0  0  0  0  0  0  0
  184.2040  179.0270  140.6010 C   0  0  1  0  0  3  0  0  0  0  0  0
  184.8140  178.9610  139.2770 N   0  0  0  0  0  0  0  0  0  0  0  0
  183.2920  177.7980  140.6900 C   0  0  1  0  0  3  0  0  0  0  0  0
  181.8570  178.2450  140.8940 C   0  0  0  0  0  1  0  0  0  0  0  0
  183.8780  177.4170  136.2740 O   0  0  0  0  0  0  0  0  0  0  0  0
  184.8170  177.6050  137.2810 C   0  0  0  0  0  0  0  0  0  0  0  0
  186.0410  177.4860  137.0150 O   0  0  0  0  0  1  0  0  0  0  0  0
  188.5860  176.8880  146.8450 C   0  0  0  0  0  2  0  0  0  0  0  0
  188.3950  177.6420  148.1470 C   0  0  0  0  0  1  0  0  0  0  0  0
  1  3  2  0  0  0  0
  1  4  1  0  0  0  0
  2  4  2  0  0  0  0
  2  5  1  0  0  0  0
  3 18  1  0  0  0  0
  4 10  1  0  0  0  0
  5 17  2  0  0  0  0
  6 20  1  0  0  0  0
  6 19  1  0  0  0  0
  7 14  1  6  0  0  0
  7  2  1  0  0  0  0
  9  8  1  1  0  0  0
  9 11  1  0  0  0  0
 10 13  1  0  0  0  0
 10 12  2  0  0  0  0
 11  5  1  0  0  0  0
 14 15  1  0  0  0  0
 15  1  1  0  0  0  0
 16 20  1  6  0  0  0
 16  7  1  0  0  0  0
 16  9  1  0  0  0  0
 17 12  1  0  0  0  0
 17 31  1  0  0  0  0
 18 13  2  0  0  0  0
 19  8  1  0  0  0  0
 21 26  1  0  0  0  0
 22 21  1  0  0  0  0
 23 25  2  0  0  0  0
 23 21  1  0  0  0  0
 24 26  1  0  0  0  0
 24 15  1  1  0  0  0
 25 24  1  0  0  0  0
 26 27  1  6  0  0  0
 28 29  2  0  0  0  0
 29 23  1  0  0  0  0
 30 29  1  0  0  0  0
 31 32  1  0  0  0  0
M  END
>  <MODEL>
1

>  <REMARK>
 VINA RESULT:     -10.2      0.000      0.000
  Name = 
  3 active torsions:
  status: ('A' for Active; 'I' for Inactive)
    1  A    between atoms: C_13  and  C_29
    2  A    between atoms: C_15  and  C_19
    3  A    between atoms: C_16  and  N_27
                            x       y       z     vdW  Elec       q    Type
                         _______ _______ _______ _____ _____    ______ ____

>  <TORSDO>
F 3

$$$$
=
 OpenBabel10272402133D

 32 37  0  0  1  0  0  0  0  0999 V2000
  184.5810  178.5320  143.2390 C   0  0  0  0  0  0  0  0  0  0  0  0
  186.9440  177.9260  143.1270 C   0  0  0  0  0  0  0  0  0  0  0  0
  183.4450  178.8070  144.0160 C   0  0  0  0  0  3  0  0  0  0  0  0
  185.8030  178.2510  143.8800 C   0  0  0  0  0  0  0  0  0  0  0  0
  188.1600  177.6780  143.7930 C   0  0  0  0  0  0  0  0  0  0  0  0
  189.5780  177.4360  138.9030 C   0  0  0  0  0  2  0  0  0  0  0  0
  186.8380  177.7540  141.6210 C   0  0  1  0  0  3  0  0  0  0  0  0
  190.6120  177.2110  140.9210 C   0  0  0  0  0  2  0  0  0  0  0  0
  189.2440  177.0730  141.6110 C   0  0  1  0  0  3  0  0  0  0  0  0
  185.8920  178.2950  145.2850 C   0  0  0  0  0  0  0  0  0  0  0  0
  189.3390  177.3710  143.0340 N   0  0  0  0  0  2  0  0  0  0  0  0
  187.0820  178.0590  145.8980 N   0  0  0  0  0  0  0  0  0  0  0  0
  184.7540  178.5760  146.0460 C   0  0  0  0  0  3  0  0  0  0  0  0
  185.7810  178.7040  141.0540 C   0  0  0  0  0  2  0  0  0  0  0  0
  184.5290  178.5650  141.8020 N   0  0  0  0  0  0  0  0  0  0  0  0
  188.1970  177.9730  140.9490 C   0  0  1  0  0  3  0  0  0  0  0  0
  188.2110  177.7730  145.1940 C   0  0  0  0  0  0  0  0  0  0  0  0
  183.5320  178.8250  145.4120 C   0  0  0  0  0  3  0  0  0  0  0  0
  190.5500  178.0040  139.7500 O   0  0  0  0  0  0  0  0  0  0  0  0
  188.1630  177.7060  139.4400 C   0  0  0  0  0  2  0  0  0  0  0  0
  183.0260  178.3200  138.7620 N   0  0  0  0  0  0  0  0  0  0  0  0
  183.4170  178.0910  137.3800 C   0  0  0  0  0  1  0  0  0  0  0  0
  182.6390  179.5720  139.3090 C   0  0  0  0  0  0  0  0  0  0  0  0
  183.2630  178.3600  141.0980 C   0  0  1  0  0  3  0  0  0  0  0  0
  182.7520  179.6290  140.5900 N   0  0  0  0  0  0  0  0  0  0  0  0
  183.4770  177.4840  139.8580 C   0  0  1  0  0  3  0  0  0  0  0  0
  182.6060  176.2460  139.9570 C   0  0  0  0  0  1  0  0  0  0  0  0
  181.0410  180.5570  137.6940 O   0  0  0  0  0  0  0  0  0  0  0  0
  182.1470  180.7120  138.5200 C   0  0  0  0  0  0  0  0  0  0  0  0
  182.7250  181.8300  138.5760 O   0  0  0  0  0  1  0  0  0  0  0  0
  189.4820  177.5150  145.9340 C   0  0  0  0  0  2  0  0  0  0  0  0
  189.1860  177.2540  147.3980 C   0  0  0  0  0  1  0  0  0  0  0  0
  1  4  2  0  0  0  0
  1  3  1  0  0  0  0
  2  5  2  0  0  0  0
  2  4  1  0  0  0  0
  3 18  2  0  0  0  0
  4 10  1  0  0  0  0
  5 17  1  0  0  0  0
  6 20  1  0  0  0  0
  6 19  1  0  0  0  0
  7 14  1  6  0  0  0
  7  2  1  0  0  0  0
  9  8  1  6  0  0  0
  9 11  1  0  0  0  0
 10 12  1  0  0  0  0
 10 13  2  0  0  0  0
 11  5  1  0  0  0  0
 14 15  1  0  0  0  0
 15  1  1  0  0  0  0
 16 20  1  6  0  0  0
 16  9  1  0  0  0  0
 16  7  1  0  0  0  0
 17 12  2  0  0  0  0
 17 31  1  0  0  0  0
 18 13  1  0  0  0  0
 19  8  1  0  0  0  0
 21 23  1  0  0  0  0
 21 26  1  0  0  0  0
 22 21  1  0  0  0  0
 23 25  2  0  0  0  0
 24 15  1  6  0  0  0
 25 24  1  0  0  0  0
 26 27  1  1  0  0  0
 26 24  1  0  0  0  0
 28 29  2  0  0  0  0
 29 30  1  0  0  0  0
 29 23  1  0  0  0  0
 31 32  1  0  0  0  0
M  END
>  <MODEL>
2

>  <REMARK>
 VINA RESULT:      -9.5      1.718      1.974
  Name = 
  3 active torsions:
  status: ('A' for Active; 'I' for Inactive)
    1  A    between atoms: C_13  and  C_29
    2  A    between atoms: C_15  and  C_19
    3  A    between atoms: C_16  and  N_27
                            x       y       z     vdW  Elec       q    Type
                         _______ _______ _______ _____ _____    ______ ____

>  <TORSDO>
F 3

$$$$
=
 OpenBabel10272402133D

 32 37  0  0  1  0  0  0  0  0999 V2000
  189.8910  177.0790  142.6000 C   0  0  0  0  0  0  0  0  0  0  0  0
  187.9290  177.7550  143.8870 C   0  0  0  0  0  0  0  0  0  0  0  0
  191.2280  176.6560  142.5780 C   0  0  0  0  0  3  0  0  0  0  0  0
  189.2520  177.2860  143.8370 C   0  0  0  0  0  0  0  0  0  0  0  0
  187.3060  177.9240  145.1390 C   0  0  0  0  0  0  0  0  0  0  0  0
  183.4930  178.9730  141.9230 C   0  0  0  0  0  2  0  0  0  0  0  0
  187.2170  178.1600  142.6070 C   0  0  1  0  0  3  0  0  0  0  0  0
  183.7540  178.9020  144.1840 C   0  0  0  0  0  2  0  0  0  0  0  0
  185.2830  178.8940  144.0120 C   0  0  1  0  0  3  0  0  0  0  0  0
  189.9380  177.0230  145.0390 C   0  0  0  0  0  0  0  0  0  0  0  0
  185.9450  178.3770  145.2030 N   0  0  0  0  0  2  0  0  0  0  0  0
  189.3060  177.1880  146.2310 N   0  0  0  0  0  0  0  0  0  0  0  0
  191.2680  176.5970  145.0030 C   0  0  0  0  0  3  0  0  0  0  0  0
  187.6850  177.2850  141.4430 C   0  0  0  0  0  2  0  0  0  0  0  0
  189.1490  177.2730  141.3820 N   0  0  0  0  0  0  0  0  0  0  0  0
  185.6970  178.0840  142.7800 C   0  0  1  0  0  3  0  0  0  0  0  0
  188.0150  177.6110  146.3110 C   0  0  0  0  0  0  0  0  0  0  0  0
  191.9130  176.4200  143.7750 C   0  0  0  0  0  3  0  0  0  0  0  0
  183.0830  178.3030  143.0920 O   0  0  0  0  0  0  0  0  0  0  0  0
  184.9330  178.5860  141.5500 C   0  0  0  0  0  2  0  0  0  0  0  0
  189.1860  176.7300  138.0250 N   0  0  0  0  0  0  0  0  0  0  0  0
  188.2720  176.2580  136.9980 C   0  0  0  0  0  1  0  0  0  0  0  0
  190.2630  175.9830  138.5720 C   0  0  0  0  0  0  0  0  0  0  0  0
  189.8420  177.5540  140.1250 C   0  0  1  0  0  3  0  0  0  0  0  0
  190.6530  176.4100  139.7220 N   0  0  0  0  0  0  0  0  0  0  0  0
  188.8300  177.7530  138.9900 C   0  0  1  0  0  3  0  0  0  0  0  0
  189.0180  179.1290  138.3790 C   0  0  0  0  0  1  0  0  0  0  0  0
  192.2570  174.8680  137.6150 O   0  0  0  0  0  1  0  0  0  0  0  0
  190.9010  174.8320  137.9130 C   0  0  0  0  0  0  0  0  0  0  0  0
  190.2270  173.8130  137.6060 O   0  0  0  0  0  0  0  0  0  0  0  0
  187.3880  177.7810  147.6540 C   0  0  0  0  0  2  0  0  0  0  0  0
  188.4450  178.1470  148.6780 C   0  0  0  0  0  1  0  0  0  0  0  0
  1  4  1  0  0  0  0
  2  5  1  0  0  0  0
  3  1  2  0  0  0  0
  3 18  1  0  0  0  0
  4  2  2  0  0  0  0
  4 10  1  0  0  0  0
  5 11  1  0  0  0  0
  5 17  2  0  0  0  0
  6 19  1  0  0  0  0
  7 14  1  6  0  0  0
  7 16  1  0  0  0  0
  7  2  1  0  0  0  0
  9  8  1  1  0  0  0
  9 11  1  0  0  0  0
 10 12  2  0  0  0  0
 12 17  1  0  0  0  0
 13 10  1  0  0  0  0
 15 14  1  0  0  0  0
 15  1  1  0  0  0  0
 16 20  1  6  0  0  0
 16  9  1  0  0  0  0
 17 31  1  0  0  0  0
 18 13  2  0  0  0  0
 19  8  1  0  0  0  0
 20  6  1  0  0  0  0
 21 23  1  0  0  0  0
 21 26  1  0  0  0  0
 22 21  1  0  0  0  0
 23 25  2  0  0  0  0
 24 15  1  1  0  0  0
 25 24  1  0  0  0  0
 26 27  1  6  0  0  0
 26 24  1  0  0  0  0
 28 29  1  0  0  0  0
 29 23  1  0  0  0  0
 30 29  2  0  0  0  0
 31 32  1  0  0  0  0
M  END
>  <MODEL>
3

>  <REMARK>
 VINA RESULT:      -9.4      2.783      5.579
  Name = 
  3 active torsions:
  status: ('A' for Active; 'I' for Inactive)
    1  A    between atoms: C_13  and  C_29
    2  A    between atoms: C_15  and  C_19
    3  A    between atoms: C_16  and  N_27
                            x       y       z     vdW  Elec       q    Type
                         _______ _______ _______ _____ _____    ______ ____

>  <TORSDO>
F 3

$$$$
=
 OpenBabel10272402133D

 32 37  0  0  1  0  0  0  0  0999 V2000
  184.9230  178.3680  143.2840 C   0  0  0  0  0  0  0  0  0  0  0  0
  187.2360  177.8210  143.8440 C   0  0  0  0  0  0  0  0  0  0  0  0
  183.6240  178.6820  143.7110 C   0  0  0  0  0  3  0  0  0  0  0  0
  185.9390  178.1840  144.2420 C   0  0  0  0  0  0  0  0  0  0  0  0
  188.2400  177.6730  144.8220 C   0  0  0  0  0  0  0  0  0  0  0  0
  190.8760  177.0090  140.5110 C   0  0  0  0  0  2  0  0  0  0  0  0
  187.5250  177.5050  142.3860 C   0  0  1  0  0  3  0  0  0  0  0  0
  191.3530  177.0060  142.7380 C   0  0  0  0  0  2  0  0  0  0  0  0
  189.8530  176.8950  143.0630 C   0  0  1  0  0  3  0  0  0  0  0  0
  185.6600  178.3630  145.6110 C   0  0  0  0  0  0  0  0  0  0  0  0
  189.5760  177.3300  144.4270 N   0  0  0  0  0  2  0  0  0  0  0  0
  186.6520  178.2210  146.5300 N   0  0  0  0  0  0  0  0  0  0  0  0
  184.3630  178.6820  146.0220 C   0  0  0  0  0  3  0  0  0  0  0  0
  186.6480  178.3660  141.4750 C   0  0  0  0  0  2  0  0  0  0  0  0
  185.2440  178.2630  141.8860 N   0  0  0  0  0  0  0  0  0  0  0  0
  189.0100  177.6980  142.0690 C   0  0  1  0  0  3  0  0  0  0  0  0
  187.9260  177.9020  146.1730 C   0  0  0  0  0  0  0  0  0  0  0  0
  183.3470  178.8350  145.0740 C   0  0  0  0  0  3  0  0  0  0  0  0
  191.5930  177.6820  141.5190 O   0  0  0  0  0  0  0  0  0  0  0  0
  189.3700  177.2880  140.6360 C   0  0  0  0  0  2  0  0  0  0  0  0
  183.0960  179.5550  139.5890 N   0  0  0  0  0  0  0  0  0  0  0  0
  182.9270  180.7940  138.8460 C   0  0  0  0  0  1  0  0  0  0  0  0
  182.3110  179.1500  140.7000 C   0  0  0  0  0  0  0  0  0  0  0  0
  184.2050  177.9560  140.9030 C   0  0  1  0  0  3  0  0  0  0  0  0
  182.8860  178.2690  141.4420 N   0  0  0  0  0  0  0  0  0  0  0  0
  184.3600  178.8470  139.6650 C   0  0  1  0  0  3  0  0  0  0  0  0
  184.5430  177.9790  138.4350 C   0  0  0  0  0  1  0  0  0  0  0  0
  180.6770  180.1470  142.2720 O   0  0  0  0  0  1  0  0  0  0  0  0
  180.9640  179.6610  141.0030 C   0  0  0  0  0  0  0  0  0  0  0  0
  180.0620  179.6550  140.1240 O   0  0  0  0  0  0  0  0  0  0  0  0
  188.9620  177.7510  147.2360 C   0  0  0  0  0  2  0  0  0  0  0  0
  188.3550  178.0390  148.5960 C   0  0  0  0  0  1  0  0  0  0  0  0
  1  3  2  0  0  0  0
  1  4  1  0  0  0  0
  2  4  2  0  0  0  0
  2  5  1  0  0  0  0
  3 18  1  0  0  0  0
  4 10  1  0  0  0  0
  5 17  2  0  0  0  0
  6 20  1  0  0  0  0
  6 19  1  0  0  0  0
  7 14  1  6  0  0  0
  7  2  1  0  0  0  0
  9  8  1  6  0  0  0
  9 11  1  0  0  0  0
 10 13  1  0  0  0  0
 10 12  2  0  0  0  0
 11  5  1  0  0  0  0
 14 15  1  0  0  0  0
 15  1  1  0  0  0  0
 16 20  1  6  0  0  0
 16  7  1  0  0  0  0
 16  9  1  0  0  0  0
 17 12  1  0  0  0  0
 17 31  1  0  0  0  0
 18 13  2  0  0  0  0
 19  8  1  0  0  0  0
 21 26  1  0  0  0  0
 21 23  1  0  0  0  0
 22 21  1  0  0  0  0
 23 29  1  0  0  0  0
 23 25  2  0  0  0  0
 24 25  1  0  0  0  0
 24 15  1  1  0  0  0
 26 27  1  6  0  0  0
 26 24  1  0  0  0  0
 29 28  1  0  0  0  0
 30 29  2  0  0  0  0
 31 32  1  0  0  0  0
M  END
>  <MODEL>
4

>  <REMARK>
 VINA RESULT:      -9.3      1.919      2.571
  Name = 
  3 active torsions:
  status: ('A' for Active; 'I' for Inactive)
    1  A    between atoms: C_13  and  C_29
    2  A    between atoms: C_15  and  C_19
    3  A    between atoms: C_16  and  N_27
                            x       y       z     vdW  Elec       q    Type
                         _______ _______ _______ _____ _____    ______ ____

>  <TORSDO>
F 3

$$$$
=
 OpenBabel10272402133D

 32 37  0  0  1  0  0  0  0  0999 V2000
  187.0020  178.1100  145.1450 C   0  0  0  0  0  0  0  0  0  0  0  0
  185.6580  178.4880  143.1420 C   0  0  0  0  0  0  0  0  0  0  0  0
  187.0840  178.0420  146.5450 C   0  0  0  0  0  3  0  0  0  0  0  0
  185.7580  178.3680  144.5380 C   0  0  0  0  0  0  0  0  0  0  0  0
  184.3960  178.7170  142.5600 C   0  0  0  0  0  0  0  0  0  0  0  0
  187.3590  178.1710  138.4490 C   0  0  0  0  0  2  0  0  0  0  0  0
  186.9120  178.4630  142.2840 C   0  0  1  0  0  3  0  0  0  0  0  0
  185.1500  178.5760  138.8330 C   0  0  0  0  0  2  0  0  0  0  0  0
  185.4650  178.9250  140.2980 C   0  0  1  0  0  3  0  0  0  0  0  0
  184.6010  178.5080  145.3290 C   0  0  0  0  0  0  0  0  0  0  0  0
  184.2750  178.8150  141.1330 N   0  0  0  0  0  2  0  0  0  0  0  0
  183.3960  178.7190  144.7370 N   0  0  0  0  0  0  0  0  0  0  0  0
  184.6950  178.4320  146.7210 C   0  0  0  0  0  3  0  0  0  0  0  0
  187.9610  177.5400  142.9090 C   0  0  0  0  0  2  0  0  0  0  0  0
  188.1580  177.8880  144.3190 N   0  0  0  0  0  0  0  0  0  0  0  0
  186.5840  178.0380  140.8500 C   0  0  1  0  0  3  0  0  0  0  0  0
  183.2620  178.8090  143.3860 C   0  0  0  0  0  0  0  0  0  0  0  0
  185.9350  178.2060  147.3270 C   0  0  0  0  0  3  0  0  0  0  0  0
  186.0630  177.6410  138.2920 O   0  0  0  0  0  0  0  0  0  0  0  0
  187.8010  178.1000  139.9200 C   0  0  0  0  0  2  0  0  0  0  0  0
  191.4880  177.5280  143.7280 N   0  0  0  0  0  0  0  0  0  0  0  0
  192.3620  177.2880  142.5920 C   0  0  0  0  0  1  0  0  0  0  0  0
  191.1420  176.5680  144.7160 C   0  0  0  0  0  0  0  0  0  0  0  0
  189.5050  178.1040  144.8470 C   0  0  1  0  0  3  0  0  0  0  0  0
  190.0610  176.8530  145.3540 N   0  0  0  0  0  0  0  0  0  0  0  0
  190.4540  178.5460  143.7280 C   0  0  1  0  0  3  0  0  0  0  0  0
  191.0560  179.8940  144.0760 C   0  0  0  0  0  1  0  0  0  0  0  0
  192.3580  175.1130  146.3080 O   0  0  0  0  0  1  0  0  0  0  0  0
  191.9220  175.3560  145.0120 C   0  0  0  0  0  0  0  0  0  0  0  0
  192.2090  174.5370  144.0990 O   0  0  0  0  0  0  0  0  0  0  0  0
  181.9090  179.0540  142.8040 C   0  0  0  0  0  2  0  0  0  0  0  0
  180.8390  178.7600  143.8380 C   0  0  0  0  0  1  0  0  0  0  0  0
  1  3  1  0  0  0  0
  2  4  1  0  0  0  0
  3 18  2  0  0  0  0
  4  1  2  0  0  0  0
  4 10  1  0  0  0  0
  5  2  2  0  0  0  0
  5 17  1  0  0  0  0
  6 20  1  0  0  0  0
  7 14  1  1  0  0  0
  7  2  1  0  0  0  0
  9  8  1  6  0  0  0
  9 16  1  0  0  0  0
  9 11  1  0  0  0  0
 10 13  2  0  0  0  0
 11  5  1  0  0  0  0
 12 10  1  0  0  0  0
 13 18  1  0  0  0  0
 14 15  1  0  0  0  0
 15  1  1  0  0  0  0
 16 20  1  6  0  0  0
 16  7  1  0  0  0  0
 17 12  2  0  0  0  0
 19  6  1  0  0  0  0
 19  8  1  0  0  0  0
 21 23  1  0  0  0  0
 22 21  1  0  0  0  0
 23 29  1  0  0  0  0
 23 25  2  0  0  0  0
 24 15  1  6  0  0  0
 24 25  1  0  0  0  0
 26 21  1  0  0  0  0
 26 27  1  1  0  0  0
 26 24  1  0  0  0  0
 29 28  1  0  0  0  0
 30 29  2  0  0  0  0
 31 17  1  0  0  0  0
 31 32  1  0  0  0  0
M  END
>  <MODEL>
5

>  <REMARK>
 VINA RESULT:      -9.2      2.168      6.574
  Name = 
  3 active torsions:
  status: ('A' for Active; 'I' for Inactive)
    1  A    between atoms: C_13  and  C_29
    2  A    between atoms: C_15  and  C_19
    3  A    between atoms: C_16  and  N_27
                            x       y       z     vdW  Elec       q    Type
                         _______ _______ _______ _____ _____    ______ ____

>  <TORSDO>
F 3

$$$$
=
 OpenBabel10272402133D

 32 37  0  0  1  0  0  0  0  0999 V2000
  184.8540  178.7600  141.8460 C   0  0  0  0  0  0  0  0  0  0  0  0
  186.8640  177.9300  142.9570 C   0  0  0  0  0  0  0  0  0  0  0  0
  183.5080  179.1470  141.9260 C   0  0  0  0  0  3  0  0  0  0  0  0
  185.5300  178.3670  143.0170 C   0  0  0  0  0  0  0  0  0  0  0  0
  187.5240  177.5710  144.1480 C   0  0  0  0  0  0  0  0  0  0  0  0
  191.2680  177.1650  140.7140 C   0  0  0  0  0  2  0  0  0  0  0  0
  187.5490  177.7600  141.6110 C   0  0  1  0  0  3  0  0  0  0  0  0
  191.0680  176.8540  142.9610 C   0  0  0  0  0  2  0  0  0  0  0  0
  189.5350  176.8520  142.8290 C   0  0  1  0  0  3  0  0  0  0  0  0
  184.8720  178.4100  144.2620 C   0  0  0  0  0  0  0  0  0  0  0  0
  188.8950  177.1480  144.1040 N   0  0  0  0  0  2  0  0  0  0  0  0
  185.5390  178.0660  145.3950 N   0  0  0  0  0  0  0  0  0  0  0  0
  183.5330  178.8040  144.3280 C   0  0  0  0  0  3  0  0  0  0  0  0
  187.0310  178.8040  140.6190 C   0  0  0  0  0  2  0  0  0  0  0  0
  185.5650  178.7890  140.5960 N   0  0  0  0  0  0  0  0  0  0  0  0
  189.0710  177.8440  141.7590 C   0  0  1  0  0  3  0  0  0  0  0  0
  186.8410  177.6690  145.3720 C   0  0  0  0  0  0  0  0  0  0  0  0
  182.8510  179.1650  143.1620 C   0  0  0  0  0  3  0  0  0  0  0  0
  191.6960  177.6420  141.9680 O   0  0  0  0  0  0  0  0  0  0  0  0
  189.8110  177.5730  140.4440 C   0  0  0  0  0  2  0  0  0  0  0  0
  185.0090  176.9120  137.8160 N   0  0  0  0  0  0  0  0  0  0  0  0
  185.2020  175.5360  137.3870 C   0  0  0  0  0  1  0  0  0  0  0  0
  185.8030  178.0180  137.4110 C   0  0  0  0  0  0  0  0  0  0  0  0
  184.8450  178.7030  139.3260 C   0  0  1  0  0  3  0  0  0  0  0  0
  185.7340  179.0210  138.2130 N   0  0  0  0  0  0  0  0  0  0  0  0
  184.3770  177.2650  139.0730 C   0  0  1  0  0  3  0  0  0  0  0  0
  182.8680  177.2430  138.9180 C   0  0  0  0  0  1  0  0  0  0  0  0
  186.0360  177.9050  134.9480 O   0  0  0  0  0  0  0  0  0  0  0  0
  186.6310  178.0500  136.1950 C   0  0  0  0  0  0  0  0  0  0  0  0
  187.8790  178.1990  136.2710 O   0  0  0  0  0  1  0  0  0  0  0  0
  187.5080  177.2940  146.6540 C   0  0  0  0  0  2  0  0  0  0  0  0
  187.2200  178.3400  147.7130 C   0  0  0  0  0  1  0  0  0  0  0  0
  1  3  2  0  0  0  0
  1  4  1  0  0  0  0
  2  4  2  0  0  0  0
  2  5  1  0  0  0  0
  3 18  1  0  0  0  0
  4 10  1  0  0  0  0
  5 17  2  0  0  0  0
  6 19  1  0  0  0  0
  7 14  1  6  0  0  0
  7 16  1  0  0  0  0
  7  2  1  0  0  0  0
  9  8  1  1  0  0  0
  9 11  1  0  0  0  0
 10 13  1  0  0  0  0
 10 12  2  0  0  0  0
 11  5  1  0  0  0  0
 15 14  1  0  0  0  0
 15  1  1  0  0  0  0
 16 20  1  6  0  0  0
 16  9  1  0  0  0  0
 17 12  1  0  0  0  0
 17 31  1  0  0  0  0
 18 13  2  0  0  0  0
 19  8  1  0  0  0  0
 20  6  1  0  0  0  0
 21 26  1  0  0  0  0
 22 21  1  0  0  0  0
 23 21  1  0  0  0  0
 23 25  2  0  0  0  0
 24 15  1  1  0  0  0
 25 24  1  0  0  0  0
 26 27  1  6  0  0  0
 26 24  1  0  0  0  0
 28 29  2  0  0  0  0
 29 30  1  0  0  0  0
 29 23  1  0  0  0  0
 31 32  1  0  0  0  0
M  END
>  <MODEL>
6

>  <REMARK>
 VINA RESULT:      -8.8      1.248      1.468
  Name = 
  3 active torsions:
  status: ('A' for Active; 'I' for Inactive)
    1  A    between atoms: C_13  and  C_29
    2  A    between atoms: C_15  and  C_19
    3  A    between atoms: C_16  and  N_27
                            x       y       z     vdW  Elec       q    Type
                         _______ _______ _______ _____ _____    ______ ____

>  <TORSDO>
F 3

$$$$
=
 OpenBabel10272402133D

 32 37  0  0  1  0  0  0  0  0999 V2000
  186.5580  178.4390  139.4200 C   0  0  0  0  0  0  0  0  0  0  0  0
  187.1190  178.0210  141.7590 C   0  0  0  0  0  0  0  0  0  0  0  0
  185.5990  178.7880  138.4560 C   0  0  0  0  0  3  0  0  0  0  0  0
  186.1930  178.4130  140.7790 C   0  0  0  0  0  0  0  0  0  0  0  0
  186.7350  178.0340  143.1140 C   0  0  0  0  0  0  0  0  0  0  0  0
  191.6700  176.7980  143.4380 C   0  0  0  0  0  2  0  0  0  0  0  0
  188.4870  177.5010  141.3480 C   0  0  1  0  0  3  0  0  0  0  0  0
  189.9640  177.1270  144.9120 C   0  0  0  0  0  2  0  0  0  0  0  0
  188.9470  177.0380  143.7610 C   0  0  1  0  0  3  0  0  0  0  0  0
  184.8900  178.7840  141.1680 C   0  0  0  0  0  0  0  0  0  0  0  0
  187.6810  177.6600  144.1270 N   0  0  0  0  0  2  0  0  0  0  0  0
  184.5530  178.7950  142.4850 N   0  0  0  0  0  0  0  0  0  0  0  0
  183.9480  179.1360  140.1990 C   0  0  0  0  0  3  0  0  0  0  0  0
  188.9580  178.2060  140.0740 C   0  0  0  0  0  2  0  0  0  0  0  0
  187.9140  178.1380  139.0470 N   0  0  0  0  0  0  0  0  0  0  0  0
  189.5010  177.6720  142.4830 C   0  0  1  0  0  3  0  0  0  0  0  0
  185.4380  178.4500  143.4590 C   0  0  0  0  0  0  0  0  0  0  0  0
  184.3000  179.1320  138.8460 C   0  0  0  0  0  3  0  0  0  0  0  0
  191.2190  177.6240  144.4870 O   0  0  0  0  0  0  0  0  0  0  0  0
  190.8690  177.0660  142.1540 C   0  0  0  0  0  2  0  0  0  0  0  0
  189.1370  175.5680  137.1860 N   0  0  0  0  0  0  0  0  0  0  0  0
  189.3900  174.1450  137.3460 C   0  0  0  0  0  1  0  0  0  0  0  0
  190.1300  176.5830  137.1830 C   0  0  0  0  0  0  0  0  0  0  0  0
  188.2310  177.6730  137.6970 C   0  0  1  0  0  3  0  0  0  0  0  0
  189.6680  177.7540  137.4550 N   0  0  0  0  0  0  0  0  0  0  0  0
  187.8760  176.1900  137.5440 C   0  0  1  0  0  3  0  0  0  0  0  0
  186.8770  176.0220  136.4150 C   0  0  0  0  0  1  0  0  0  0  0  0
  191.9470  175.9290  135.6340 O   0  0  0  0  0  0  0  0  0  0  0  0
  191.5550  176.3570  136.8960 C   0  0  0  0  0  0  0  0  0  0  0  0
  192.4270  176.5380  137.7860 O   0  0  0  0  0  1  0  0  0  0  0  0
  184.9960  178.4730  144.8840 C   0  0  0  0  0  2  0  0  0  0  0  0
  183.5150  178.7940  144.9620 C   0  0  0  0  0  1  0  0  0  0  0  0
  1  4  1  0  0  0  0
  2  5  1  0  0  0  0
  3 18  1  0  0  0  0
  3  1  2  0  0  0  0
  4 10  1  0  0  0  0
  4  2  2  0  0  0  0
  5 17  2  0  0  0  0
  5 11  1  0  0  0  0
  6 19  1  0  0  0  0
  7 14  1  6  0  0  0
  7  2  1  0  0  0  0
  7 16  1  0  0  0  0
  9 11  1  0  0  0  0
  9  8  1  1  0  0  0
 10 12  2  0  0  0  0
 12 17  1  0  0  0  0
 13 10  1  0  0  0  0
 15  1  1  0  0  0  0
 15 14  1  0  0  0  0
 16 20  1  6  0  0  0
 16  9  1  0  0  0  0
 17 31  1  0  0  0  0
 18 13  2  0  0  0  0
 19  8  1  0  0  0  0
 20  6  1  0  0  0  0
 21 22  1  0  0  0  0
 21 26  1  0  0  0  0
 23 21  1  0  0  0  0
 23 25  2  0  0  0  0
 24 15  1  1  0  0  0
 25 24  1  0  0  0  0
 26 27  1  6  0  0  0
 26 24  1  0  0  0  0
 28 29  2  0  0  0  0
 29 23  1  0  0  0  0
 29 30  1  0  0  0  0
 31 32  1  0  0  0  0
M  END
>  <MODEL>
7

>  <REMARK>
 VINA RESULT:      -8.7      2.639      4.736
  Name = 
  3 active torsions:
  status: ('A' for Active; 'I' for Inactive)
    1  A    between atoms: C_13  and  C_29
    2  A    between atoms: C_15  and  C_19
    3  A    between atoms: C_16  and  N_27
                            x       y       z     vdW  Elec       q    Type
                         _______ _______ _______ _____ _____    ______ ____

>  <TORSDO>
F 3

$$$$
=
 OpenBabel10272402133D

 32 37  0  0  1  0  0  0  0  0999 V2000
  184.5890  178.5440  142.9000 C   0  0  0  0  0  0  0  0  0  0  0  0
  186.9190  178.0340  142.3780 C   0  0  0  0  0  0  0  0  0  0  0  0
  183.5860  178.7380  143.8620 C   0  0  0  0  0  3  0  0  0  0  0  0
  185.9060  178.2790  143.3200 C   0  0  0  0  0  0  0  0  0  0  0  0
  188.2340  177.8010  142.8270 C   0  0  0  0  0  0  0  0  0  0  0  0
  188.8480  177.8480  137.7670 C   0  0  0  0  0  2  0  0  0  0  0  0
  186.5760  177.9310  140.9010 C   0  0  1  0  0  3  0  0  0  0  0  0
  190.2010  177.5660  139.5780 C   0  0  0  0  0  2  0  0  0  0  0  0
  188.9680  177.3430  140.4700 C   0  0  1  0  0  3  0  0  0  0  0  0
  186.2190  178.2580  144.6940 C   0  0  0  0  0  0  0  0  0  0  0  0
  189.2830  177.5760  141.8740 N   0  0  0  0  0  2  0  0  0  0  0  0
  187.4990  178.0390  145.0940 N   0  0  0  0  0  0  0  0  0  0  0  0
  185.2120  178.4590  145.6400 C   0  0  0  0  0  3  0  0  0  0  0  0
  185.4130  178.8670  140.5630 C   0  0  0  0  0  2  0  0  0  0  0  0
  184.3030  178.6440  141.4940 N   0  0  0  0  0  0  0  0  0  0  0  0
  187.8010  178.2330  140.0340 C   0  0  1  0  0  3  0  0  0  0  0  0
  188.5080  177.8300  144.2050 C   0  0  0  0  0  0  0  0  0  0  0  0
  183.8970  178.6910  145.2250 C   0  0  0  0  0  3  0  0  0  0  0  0
  189.9270  178.4110  138.4770 O   0  0  0  0  0  0  0  0  0  0  0  0
  187.5320  178.0380  138.5370 C   0  0  0  0  0  2  0  0  0  0  0  0
  182.3570  178.3720  138.7180 N   0  0  0  0  0  0  0  0  0  0  0  0
  182.5350  178.1400  137.2940 C   0  0  0  0  0  1  0  0  0  0  0  0
  182.0470  179.6240  139.3140 C   0  0  0  0  0  0  0  0  0  0  0  0
  182.9470  178.4260  140.9910 C   0  0  1  0  0  3  0  0  0  0  0  0
  182.3530  179.6880  140.5620 N   0  0  0  0  0  0  0  0  0  0  0  0
  182.9770  177.5450  139.7360 C   0  0  1  0  0  3  0  0  0  0  0  0
  182.1420  176.3010  139.9710 C   0  0  0  0  0  1  0  0  0  0  0  0
  182.1290  181.9500  138.4700 O   0  0  0  0  0  1  0  0  0  0  0  0
  181.4310  180.7560  138.6050 C   0  0  0  0  0  0  0  0  0  0  0  0
  180.2710  180.6600  138.1260 O   0  0  0  0  0  0  0  0  0  0  0  0
  189.8880  177.5840  144.7160 C   0  0  0  0  0  2  0  0  0  0  0  0
  190.7380  178.8270  144.5330 C   0  0  0  0  0  1  0  0  0  0  0  0
  1  4  2  0  0  0  0
  1  3  1  0  0  0  0
  2  5  2  0  0  0  0
  2  4  1  0  0  0  0
  3 18  2  0  0  0  0
  4 10  1  0  0  0  0
  5 17  1  0  0  0  0
  6 19  1  0  0  0  0
  6 20  1  0  0  0  0
  7 14  1  6  0  0  0
  7  2  1  0  0  0  0
  9  8  1  6  0  0  0
  9 11  1  0  0  0  0
 10 12  1  0  0  0  0
 10 13  2  0  0  0  0
 11  5  1  0  0  0  0
 14 15  1  0  0  0  0
 15  1  1  0  0  0  0
 16 20  1  6  0  0  0
 16  9  1  0  0  0  0
 16  7  1  0  0  0  0
 17 31  1  0  0  0  0
 17 12  2  0  0  0  0
 18 13  1  0  0  0  0
 19  8  1  0  0  0  0
 21 23  1  0  0  0  0
 21 26  1  0  0  0  0
 22 21  1  0  0  0  0
 23 25  2  0  0  0  0
 24 15  1  6  0  0  0
 25 24  1  0  0  0  0
 26 27  1  1  0  0  0
 26 24  1  0  0  0  0
 28 29  1  0  0  0  0
 29 23  1  0  0  0  0
 30 29  2  0  0  0  0
 32 31  1  0  0  0  0
M  END
>  <MODEL>
8

>  <REMARK>
 VINA RESULT:      -8.7      2.149      2.675
  Name = 
  3 active torsions:
  status: ('A' for Active; 'I' for Inactive)
    1  A    between atoms: C_13  and  C_29
    2  A    between atoms: C_15  and  C_19
    3  A    between atoms: C_16  and  N_27
                            x       y       z     vdW  Elec       q    Type
                         _______ _______ _______ _____ _____    ______ ____

>  <TORSDO>
F 3

$$$$
=
 OpenBabel10272402133D

 32 37  0  0  1  0  0  0  0  0999 V2000
  189.4010  177.4810  141.8830 C   0  0  0  0  0  0  0  0  0  0  0  0
  187.2210  177.9810  142.8640 C   0  0  0  0  0  0  0  0  0  0  0  0
  190.7460  177.1220  142.0590 C   0  0  0  0  0  3  0  0  0  0  0  0
  188.5590  177.5770  143.0070 C   0  0  0  0  0  0  0  0  0  0  0  0
  186.3940  178.0390  144.0030 C   0  0  0  0  0  0  0  0  0  0  0  0
  183.1040  179.1240  140.2650 C   0  0  0  0  0  2  0  0  0  0  0  0
  186.7050  178.4370  141.5090 C   0  0  1  0  0  3  0  0  0  0  0  0
  182.9970  178.9160  142.5310 C   0  0  0  0  0  2  0  0  0  0  0  0
  184.5310  178.9890  142.6140 C   0  0  1  0  0  3  0  0  0  0  0  0
  189.0540  177.2670  144.2890 C   0  0  0  0  0  0  0  0  0  0  0  0
  185.0190  178.4250  143.8660 N   0  0  0  0  0  2  0  0  0  0  0  0
  188.2280  177.3240  145.3680 N   0  0  0  0  0  0  0  0  0  0  0  0
  190.3940  176.9040  144.4500 C   0  0  0  0  0  3  0  0  0  0  0  0
  187.4050  177.6630  140.3900 C   0  0  0  0  0  2  0  0  0  0  0  0
  188.8580  177.7210  140.5730 N   0  0  0  0  0  0  0  0  0  0  0  0
  185.1840  178.2820  141.4240 C   0  0  1  0  0  3  0  0  0  0  0  0
  186.9200  177.6810  145.2560 C   0  0  0  0  0  0  0  0  0  0  0  0
  191.2390  176.8390  143.3370 C   0  0  0  0  0  3  0  0  0  0  0  0
  182.5470  178.3610  141.3090 O   0  0  0  0  0  0  0  0  0  0  0  0
  184.6040  178.8280  140.1140 C   0  0  0  0  0  2  0  0  0  0  0  0
  189.7410  177.1010  137.3480 N   0  0  0  0  0  0  0  0  0  0  0  0
  189.1970  176.4020  136.1950 C   0  0  0  0  0  1  0  0  0  0  0  0
  190.8100  176.6380  138.1610 C   0  0  0  0  0  0  0  0  0  0  0  0
  189.7290  178.1160  139.4660 C   0  0  1  0  0  3  0  0  0  0  0  0
  190.8370  177.1770  139.3290 N   0  0  0  0  0  0  0  0  0  0  0  0
  188.9700  178.0440  138.1360 C   0  0  1  0  0  3  0  0  0  0  0  0
  188.9820  179.4070  137.4700 C   0  0  0  0  0  1  0  0  0  0  0  0
  191.4800  174.2950  137.7210 O   0  0  0  0  0  1  0  0  0  0  0  0
  191.8100  175.6450  137.7390 C   0  0  0  0  0  0  0  0  0  0  0  0
  192.9690  176.0030  137.4030 O   0  0  0  0  0  0  0  0  0  0  0  0
  186.0740  177.7340  146.4850 C   0  0  0  0  0  2  0  0  0  0  0  0
  186.1330  179.1210  147.0960 C   0  0  0  0  0  1  0  0  0  0  0  0
  1  3  2  0  0  0  0
  1  4  1  0  0  0  0
  2  4  2  0  0  0  0
  2  5  1  0  0  0  0
  3 18  1  0  0  0  0
  4 10  1  0  0  0  0
  5 17  2  0  0  0  0
  6 19  1  0  0  0  0
  7 14  1  6  0  0  0
  7  2  1  0  0  0  0
  9  8  1  6  0  0  0
  9 11  1  0  0  0  0
 10 13  1  0  0  0  0
 10 12  2  0  0  0  0
 11  5  1  0  0  0  0
 14 15  1  0  0  0  0
 15  1  1  0  0  0  0
 16 20  1  6  0  0  0
 16  7  1  0  0  0  0
 16  9  1  0  0  0  0
 17 12  1  0  0  0  0
 17 31  1  0  0  0  0
 18 13  2  0  0  0  0
 19  8  1  0  0  0  0
 20  6  1  0  0  0  0
 21 26  1  0  0  0  0
 21 23  1  0  0  0  0
 22 21  1  0  0  0  0
 23 25  2  0  0  0  0
 24 15  1  1  0  0  0
 25 24  1  0  0  0  0
 26 27  1  6  0  0  0
 26 24  1  0  0  0  0
 28 29  1  0  0  0  0
 29 23  1  0  0  0  0
 30 29  2  0  0  0  0
 31 32  1  0  0  0  0
M  END
>  <MODEL>
9

>  <REMARK>
 VINA RESULT:      -8.6      2.633      5.708
  Name = 
  3 active torsions:
  status: ('A' for Active; 'I' for Inactive)
    1  A    between atoms: C_13  and  C_29
    2  A    between atoms: C_15  and  C_19
    3  A    between atoms: C_16  and  N_27
                            x       y       z     vdW  Elec       q    Type
                         _______ _______ _______ _____ _____    ______ ____

>  <TORSDO>
F 3

$$$$
