=
 OpenBabel10272401413D

 55 58  0  0  1  0  0  0  0  0999 V2000
  180.6590  176.3950  141.1860 C   0  0  0  0  0  2  0  0  0  0  0  0
  180.5690  178.8200  143.7960 C   0  0  0  0  0  1  0  0  0  0  0  0
  182.5450  176.8750  137.3640 C   0  0  2  0  0  3  0  0  0  0  0  0
  184.7820  180.0840  138.5900 O   0  0  0  0  0  1  0  0  0  0  0  0
  182.2280  179.2170  137.0190 O   0  0  0  0  0  1  0  0  0  0  0  0
  184.3750  179.0210  139.4050 C   0  0  2  0  0  0  0  0  0  0  0  0
  183.0940  178.5500  139.0300 O   0  0  0  0  0  0  0  0  0  0  0  0
  182.4740  179.2550  142.2860 C   0  0  0  0  0  2  0  0  0  0  0  0
  180.2750  176.1400  137.3880 F   0  0  0  0  0  0  0  0  0  0  0  0
  183.0570  178.2870  137.6470 C   0  0  1  0  0  3  0  0  0  0  0  0
  184.3080  179.5410  140.8370 C   0  0  0  0  0  2  0  0  0  0  0  0
  181.9010  176.1500  140.3440 C   0  0  0  0  0  2  0  0  0  0  0  0
  185.4110  177.9050  139.3340 C   0  0  0  0  0  1  0  0  0  0  0  0
  180.5440  177.8740  141.5180 C   0  0  0  0  0  2  0  0  0  0  0  0
  181.4270  178.2300  142.7030 C   0  0  2  0  0  3  0  0  0  0  0  0
  181.3150  176.5220  138.2140 C   0  0  1  0  0  3  0  0  0  0  0  0
  183.6480  178.5880  141.7350 N   0  0  0  0  0  0  0  0  0  0  0  0
  181.5640  175.5050  139.1490 O   0  0  0  0  0  0  0  0  0  0  0  0
  183.6860  175.8600  137.4550 C   0  0  0  0  0  2  0  0  0  0  0  0
  185.9590  174.0630  136.0360 C   0  0  1  0  0  3  0  0  0  0  0  0
  183.7430  174.9030  136.2520 C   0  0  2  0  0  0  0  0  0  0  0  0
  183.7240  173.5720  136.7260 O   0  0  0  0  0  0  0  0  0  0  0  0
  186.6120  174.5530  137.1670 O   0  0  0  0  0  1  0  0  0  0  0  0
  184.9850  172.9990  136.4620 C   0  0  0  0  0  2  0  0  0  0  0  0
  185.0370  175.1010  135.4590 C   0  0  1  0  0  3  0  0  0  0  0  0
  184.8870  177.3460  134.3480 C   0  0  0  0  0  1  0  0  0  0  0  0
  185.6100  176.5300  135.4090 C   0  0  2  0  0  3  0  0  0  0  0  0
  187.0350  176.4940  135.1010 N   0  0  0  0  0  2  0  0  0  0  0  0
  187.5360  178.5510  136.5150 C   0  0  0  0  0  1  0  0  0  0  0  0
  187.9730  177.4400  135.6210 C   0  0  0  0  0  0  0  0  0  0  0  0
  189.1920  177.3250  135.3340 O   0  0  0  0  0  0  0  0  0  0  0  0
  182.5240  175.1550  135.3530 C   0  0  0  0  0  2  0  0  0  0  0  0
  182.2790  174.0380  134.3480 C   0  0  0  0  0  2  0  0  0  0  0  0
  180.8240  173.6080  134.3690 C   0  0  0  0  0  2  0  0  0  0  0  0
  180.4140  173.2940  135.7890 C   0  0  0  0  0  1  0  0  0  0  0  0
  184.5080  178.1950  142.8650 C   0  0  1  0  0  3  0  0  0  0  0  0
  186.8060  177.3890  142.6740 C   0  0  0  0  0  3  0  0  0  0  0  0
  185.9510  178.3990  142.5450 C   0  0  0  0  0  3  0  0  0  0  0  0
  188.6750  177.6030  141.0850 C   0  0  0  0  0  3  0  0  0  0  0  0
  190.5530  177.6300  143.1530 C   0  0  0  0  0  0  0  0  0  0  0  0
  189.1900  177.5300  143.4460 C   0  0  0  0  0  3  0  0  0  0  0  0
  190.0370  177.7050  140.7930 C   0  0  0  0  0  3  0  0  0  0  0  0
  188.2440  177.5190  142.4090 C   0  0  0  0  0  0  0  0  0  0  0  0
  191.4650  177.6500  144.1570 F   0  0  0  0  0  0  0  0  0  0  0  0
  190.9770  177.7190  141.8280 C   0  0  0  0  0  3  0  0  0  0  0  0
  184.1280  178.8150  144.2110 C   0  0  0  0  0  2  0  0  0  0  0  0
  185.5680  179.5440  146.1250 C   0  0  0  0  0  3  0  0  0  0  0  0
  187.1940  178.0330  147.1250 C   0  0  0  0  0  0  0  0  0  0  0  0
  185.7980  177.2870  145.2790 C   0  0  0  0  0  3  0  0  0  0  0  0
  186.8000  177.0310  146.2230 C   0  0  0  0  0  3  0  0  0  0  0  0
  186.5720  179.2890  147.0680 C   0  0  0  0  0  3  0  0  0  0  0  0
  185.1770  178.5420  145.2320 C   0  0  0  0  0  0  0  0  0  0  0  0
  188.2580  177.7710  148.1100 C   0  0  0  0  0  0  0  0  0  0  0  0
  188.0740  178.0210  149.3300 O   0  0  0  0  0  1  0  0  0  0  0  0
  189.4760  177.2380  147.7000 O   0  0  0  0  0  0  0  0  0  0  0  0
  1 14  1  0  0  0  0
  3 19  1  1  0  0  0
  3 10  1  0  0  0  0
  3 16  1  0  0  0  0
  4  6  1  0  0  0  0
  6 13  1  6  0  0  0
  6 11  1  0  0  0  0
  7  6  1  0  0  0  0
  8 15  1  0  0  0  0
 10  5  1  6  0  0  0
 10  7  1  0  0  0  0
 11 17  1  0  0  0  0
 12  1  1  0  0  0  0
 14 15  1  0  0  0  0
 15  2  1  1  0  0  0
 16  9  1  6  0  0  0
 16 18  1  0  0  0  0
 17  8  1  0  0  0  0
 17 36  1  0  0  0  0
 18 12  1  0  0  0  0
 20 24  1  0  0  0  0
 20 23  1  1  0  0  0
 21 32  1  6  0  0  0
 21 22  1  0  0  0  0
 21 19  1  0  0  0  0
 24 22  1  0  0  0  0
 25 27  1  1  0  0  0
 25 20  1  0  0  0  0
 25 21  1  0  0  0  0
 27 26  1  6  0  0  0
 28 27  1  0  0  0  0
 28 30  1  0  0  0  0
 30 29  1  0  0  0  0
 31 30  2  0  0  0  0
 33 34  1  0  0  0  0
 33 32  1  0  0  0  0
 34 35  1  0  0  0  0
 36 38  1  6  0  0  0
 36 46  1  0  0  0  0
 38 37  2  0  0  0  0
 39 43  1  0  0  0  0
 40 41  1  0  0  0  0
 40 44  1  0  0  0  0
 42 39  2  0  0  0  0
 42 45  1  0  0  0  0
 43 37  1  0  0  0  0
 43 41  2  0  0  0  0
 45 40  2  0  0  0  0
 46 52  1  0  0  0  0
 47 51  1  0  0  0  0
 48 53  1  0  0  0  0
 49 50  2  0  0  0  0
 50 48  1  0  0  0  0
 51 48  2  0  0  0  0
 52 49  1  0  0  0  0
 52 47  2  0  0  0  0
 53 54  1  0  0  0  0
 55 53  2  0  0  0  0
M  END
>  <MODEL>
1

>  <REMARK>
 VINA RESULT:      -6.4      0.000      0.000
  Name = 
  13 active torsions:
  status: ('A' for Active; 'I' for Inactive)
    1  A    between atoms: C_2  and  C_44
    2  A    between atoms: C_6  and  C_8
    3  A    between atoms: C_6  and  C_46
    4  A    between atoms: C_7  and  C_8
    5  A    between atoms: C_10  and  C_32
    6  A    between atoms: N_11  and  C_38
    7  A    between atoms: C_12  and  C_14
    8  A    between atoms: C_14  and  C_46
    9  A    between atoms: C_28  and  C_49
   10  A    between atoms: C_33  and  C_49
   11  A    between atoms: C_33  and  C_52
   12  A    between atoms: C_38  and  C_53
   13  A    between atoms: N_45  and  C_49
                            x       y       z     vdW  Elec       q    Type
                         _______ _______ _______ _____ _____    ______ ____

>  <TORSDO>
F 13

$$$$
=
 OpenBabel10272401413D

 55 58  0  0  1  0  0  0  0  0999 V2000
  182.8160  176.5890  139.1380 C   0  0  0  0  0  2  0  0  0  0  0  0
  182.2660  179.2860  141.4020 C   0  0  0  0  0  1  0  0  0  0  0  0
  186.0740  176.2480  136.3690 C   0  0  2  0  0  3  0  0  0  0  0  0
  188.3120  179.1130  138.2610 O   0  0  0  0  0  1  0  0  0  0  0  0
  186.4290  178.5490  135.8370 O   0  0  0  0  0  1  0  0  0  0  0  0
  187.4050  178.2500  138.8850 C   0  0  2  0  0  0  0  0  0  0  0  0
  186.2950  177.9820  138.0500 O   0  0  0  0  0  0  0  0  0  0  0  0
  184.6490  179.1760  140.7610 C   0  0  0  0  0  2  0  0  0  0  0  0
  183.8650  175.9530  135.5140 F   0  0  0  0  0  0  0  0  0  0  0  0
  186.7320  177.5650  136.7780 C   0  0  1  0  0  3  0  0  0  0  0  0
  186.9110  178.9430  140.1520 C   0  0  0  0  0  2  0  0  0  0  0  0
  184.2010  176.0190  138.8710 C   0  0  0  0  0  2  0  0  0  0  0  0
  188.1210  176.9620  139.2760 C   0  0  0  0  0  1  0  0  0  0  0  0
  182.9070  178.0930  139.3400 C   0  0  0  0  0  2  0  0  0  0  0  0
  183.3270  178.4200  140.7640 C   0  0  2  0  0  3  0  0  0  0  0  0
  184.5670  176.2330  136.6710 C   0  0  1  0  0  3  0  0  0  0  0  0
  185.7690  178.2430  140.7480 N   0  0  0  0  0  0  0  0  0  0  0  0
  184.2140  175.3080  137.6660 O   0  0  0  0  0  0  0  0  0  0  0  0
  186.8430  175.0590  136.9450 C   0  0  0  0  0  2  0  0  0  0  0  0
  189.2870  173.0220  136.4090 C   0  0  1  0  0  3  0  0  0  0  0  0
  187.1730  173.9840  135.8940 C   0  0  2  0  0  0  0  0  0  0  0  0
  186.9180  172.7090  136.4510 O   0  0  0  0  0  0  0  0  0  0  0  0
  189.6220  173.5910  137.6380 O   0  0  0  0  0  1  0  0  0  0  0  0
  188.1550  172.0530  136.6170 C   0  0  0  0  0  2  0  0  0  0  0  0
  188.6520  174.0390  135.5040 C   0  0  1  0  0  3  0  0  0  0  0  0
  188.7960  176.2610  134.3470 C   0  0  0  0  0  1  0  0  0  0  0  0
  189.3200  175.4270  135.5070 C   0  0  2  0  0  3  0  0  0  0  0  0
  190.7670  175.2920  135.3880 N   0  0  0  0  0  2  0  0  0  0  0  0
  191.2080  176.6750  137.4790 C   0  0  0  0  0  1  0  0  0  0  0  0
  191.6860  175.8700  136.3180 C   0  0  0  0  0  0  0  0  0  0  0  0
  192.9210  175.6840  136.1650 O   0  0  0  0  0  0  0  0  0  0  0  0
  186.2860  174.2010  134.6600 C   0  0  0  0  0  2  0  0  0  0  0  0
  185.3930  173.0090  134.3460 C   0  0  0  0  0  2  0  0  0  0  0  0
  183.9720  173.2700  134.8080 C   0  0  0  0  0  2  0  0  0  0  0  0
  183.5480  172.1830  135.7680 C   0  0  0  0  0  1  0  0  0  0  0  0
  186.0250  177.8370  142.1410 C   0  0  1  0  0  3  0  0  0  0  0  0
  188.1880  176.8380  142.6790 C   0  0  0  0  0  3  0  0  0  0  0  0
  187.4750  177.9420  142.4790 C   0  0  0  0  0  3  0  0  0  0  0  0
  190.3320  175.6670  142.9910 C   0  0  0  0  0  3  0  0  0  0  0  0
  191.5960  178.0100  143.8400 C   0  0  0  0  0  0  0  0  0  0  0  0
  190.2470  178.0340  143.4750 C   0  0  0  0  0  3  0  0  0  0  0  0
  191.6810  175.6440  143.3540 C   0  0  0  0  0  3  0  0  0  0  0  0
  189.6100  176.8600  143.0450 C   0  0  0  0  0  0  0  0  0  0  0  0
  192.2110  179.1480  144.2460 F   0  0  0  0  0  0  0  0  0  0  0  0
  192.3130  176.8160  143.7780 C   0  0  0  0  0  3  0  0  0  0  0  0
  185.1450  178.5250  143.1860 C   0  0  0  0  0  2  0  0  0  0  0  0
  185.4010  179.3550  145.5350 C   0  0  0  0  0  3  0  0  0  0  0  0
  186.9920  178.3290  147.0660 C   0  0  0  0  0  0  0  0  0  0  0  0
  186.7550  177.4880  144.7970 C   0  0  0  0  0  3  0  0  0  0  0  0
  187.3620  177.4250  146.0570 C   0  0  0  0  0  3  0  0  0  0  0  0
  186.0100  179.2940  146.7950 C   0  0  0  0  0  3  0  0  0  0  0  0
  185.7710  178.4490  144.5360 C   0  0  0  0  0  0  0  0  0  0  0  0
  187.6390  178.2750  148.3890 C   0  0  0  0  0  0  0  0  0  0  0  0
  186.9780  177.9540  149.4100 O   0  0  0  0  0  1  0  0  0  0  0  0
  188.9920  178.5720  148.5190 O   0  0  0  0  0  0  0  0  0  0  0  0
  1 14  1  0  0  0  0
  3 16  1  0  0  0  0
  3 10  1  0  0  0  0
  3 19  1  1  0  0  0
  4  6  1  0  0  0  0
  6 13  1  1  0  0  0
  6 11  1  0  0  0  0
  7  6  1  0  0  0  0
  8 15  1  0  0  0  0
 10  5  1  6  0  0  0
 10  7  1  0  0  0  0
 11 17  1  0  0  0  0
 12  1  1  0  0  0  0
 14 15  1  0  0  0  0
 15  2  1  6  0  0  0
 16  9  1  6  0  0  0
 16 18  1  0  0  0  0
 17  8  1  0  0  0  0
 17 36  1  0  0  0  0
 18 12  1  0  0  0  0
 20 24  1  0  0  0  0
 20 23  1  1  0  0  0
 21 32  1  6  0  0  0
 21 22  1  0  0  0  0
 21 19  1  0  0  0  0
 22 24  1  0  0  0  0
 25 27  1  1  0  0  0
 25 21  1  0  0  0  0
 25 20  1  0  0  0  0
 27 26  1  6  0  0  0
 28 27  1  0  0  0  0
 28 30  1  0  0  0  0
 30 29  1  0  0  0  0
 31 30  2  0  0  0  0
 33 32  1  0  0  0  0
 33 34  1  0  0  0  0
 34 35  1  0  0  0  0
 36 38  1  1  0  0  0
 36 46  1  0  0  0  0
 37 43  1  0  0  0  0
 38 37  2  0  0  0  0
 39 43  2  0  0  0  0
 39 42  1  0  0  0  0
 40 44  1  0  0  0  0
 41 40  2  0  0  0  0
 42 45  2  0  0  0  0
 43 41  1  0  0  0  0
 45 40  1  0  0  0  0
 46 52  1  0  0  0  0
 47 51  1  0  0  0  0
 48 53  1  0  0  0  0
 49 50  2  0  0  0  0
 50 48  1  0  0  0  0
 51 48  2  0  0  0  0
 52 49  1  0  0  0  0
 52 47  2  0  0  0  0
 53 55  2  0  0  0  0
 53 54  1  0  0  0  0
M  END
>  <MODEL>
2

>  <REMARK>
 VINA RESULT:      -4.6      2.108      2.950
  Name = 
  13 active torsions:
  status: ('A' for Active; 'I' for Inactive)
    1  A    between atoms: C_2  and  C_44
    2  A    between atoms: C_6  and  C_8
    3  A    between atoms: C_6  and  C_46
    4  A    between atoms: C_7  and  C_8
    5  A    between atoms: C_10  and  C_32
    6  A    between atoms: N_11  and  C_38
    7  A    between atoms: C_12  and  C_14
    8  A    between atoms: C_14  and  C_46
    9  A    between atoms: C_28  and  C_49
   10  A    between atoms: C_33  and  C_49
   11  A    between atoms: C_33  and  C_52
   12  A    between atoms: C_38  and  C_53
   13  A    between atoms: N_45  and  C_49
                            x       y       z     vdW  Elec       q    Type
                         _______ _______ _______ _____ _____    ______ ____

>  <TORSDO>
F 13

$$$$
=
 OpenBabel10272401413D

 55 58  0  0  1  0  0  0  0  0999 V2000
  186.4690  178.4360  135.2570 C   0  0  0  0  0  2  0  0  0  0  0  0
  189.8310  177.6140  134.4060 C   0  0  0  0  0  1  0  0  0  0  0  0
  183.2740  175.6440  135.8850 C   0  0  2  0  0  3  0  0  0  0  0  0
  185.8110  172.4540  136.3200 O   0  0  0  0  0  1  0  0  0  0  0  0
  183.8940  173.9270  134.3460 O   0  0  0  0  0  1  0  0  0  0  0  0
  186.1010  173.7750  136.6790 C   0  0  2  0  0  0  0  0  0  0  0  0
  185.5030  174.6920  135.7830 O   0  0  0  0  0  0  0  0  0  0  0  0
  188.7280  175.6920  135.4970 C   0  0  0  0  0  2  0  0  0  0  0  0
  182.8810  177.4470  134.3710 F   0  0  0  0  0  0  0  0  0  0  0  0
  184.1320  174.4050  135.6350 C   0  0  1  0  0  3  0  0  0  0  0  0
  187.6160  173.9440  136.6170 C   0  0  0  0  0  2  0  0  0  0  0  0
  185.6650  177.6330  136.2680 C   0  0  0  0  0  2  0  0  0  0  0  0
  185.6370  174.0240  138.1100 C   0  0  0  0  0  1  0  0  0  0  0  0
  187.3670  177.5060  134.4560 C   0  0  0  0  0  2  0  0  0  0  0  0
  188.6380  177.1890  135.2280 C   0  0  2  0  0  3  0  0  0  0  0  0
  183.8430  176.8940  135.1950 C   0  0  1  0  0  3  0  0  0  0  0  0
  188.0140  175.3520  136.7220 N   0  0  0  0  0  0  0  0  0  0  0  0
  184.2960  177.8660  136.1010 O   0  0  0  0  0  0  0  0  0  0  0  0
  183.0030  175.8190  137.3800 C   0  0  0  0  0  2  0  0  0  0  0  0
  180.6720  178.0170  137.7560 C   0  0  1  0  0  3  0  0  0  0  0  0
  181.5060  175.7880  137.7320 C   0  0  2  0  0  0  0  0  0  0  0  0
  180.7540  175.9570  136.5460 O   0  0  0  0  0  0  0  0  0  0  0  0
  181.7440  178.7780  137.2920 O   0  0  0  0  0  1  0  0  0  0  0  0
  180.1180  177.2130  136.6110 C   0  0  0  0  0  2  0  0  0  0  0  0
  181.1470  176.9330  138.6830 C   0  0  1  0  0  3  0  0  0  0  0  0
  181.6760  177.2920  141.1090 C   0  0  0  0  0  1  0  0  0  0  0  0
  182.2270  177.3620  139.6930 C   0  0  2  0  0  3  0  0  0  0  0  0
  182.6670  178.7250  139.4150 N   0  0  0  0  0  2  0  0  0  0  0  0
  185.1280  178.0720  139.3820 C   0  0  0  0  0  1  0  0  0  0  0  0
  184.0420  179.0860  139.2560 C   0  0  0  0  0  0  0  0  0  0  0  0
  184.3410  180.2780  138.9870 O   0  0  0  0  0  0  0  0  0  0  0  0
  181.1690  174.4350  138.3760 C   0  0  0  0  0  2  0  0  0  0  0  0
  180.5620  173.4410  137.3970 C   0  0  0  0  0  2  0  0  0  0  0  0
  181.4350  172.2060  137.2780 C   0  0  0  0  0  2  0  0  0  0  0  0
  181.2010  171.5520  135.9350 C   0  0  0  0  0  1  0  0  0  0  0  0
  188.9290  175.5920  137.8520 C   0  0  1  0  0  3  0  0  0  0  0  0
  191.2400  175.3710  137.0910 C   0  0  0  0  0  3  0  0  0  0  0  0
  190.1960  174.8160  137.6980 C   0  0  0  0  0  3  0  0  0  0  0  0
  192.4770  173.4130  136.2550 C   0  0  0  0  0  3  0  0  0  0  0  0
  194.9190  174.4770  137.0970 C   0  0  0  0  0  0  0  0  0  0  0  0
  193.7360  175.1940  137.2980 C   0  0  0  0  0  3  0  0  0  0  0  0
  193.6610  172.6990  136.0520 C   0  0  0  0  0  3  0  0  0  0  0  0
  192.5070  174.6630  136.8740 C   0  0  0  0  0  0  0  0  0  0  0  0
  196.1050  174.9970  137.4990 F   0  0  0  0  0  0  0  0  0  0  0  0
  194.8820  173.2320  136.4720 C   0  0  0  0  0  3  0  0  0  0  0  0
  189.1970  177.0660  138.1630 C   0  0  0  0  0  2  0  0  0  0  0  0
  190.5380  176.8500  140.2660 C   0  0  0  0  0  3  0  0  0  0  0  0
  189.6630  177.6220  142.4030 C   0  0  0  0  0  0  0  0  0  0  0  0
  188.3420  177.8640  140.3760 C   0  0  0  0  0  3  0  0  0  0  0  0
  188.4890  178.0410  141.7570 C   0  0  0  0  0  3  0  0  0  0  0  0
  190.6840  177.0250  141.6480 C   0  0  0  0  0  3  0  0  0  0  0  0
  189.3680  177.2730  139.6280 C   0  0  0  0  0  0  0  0  0  0  0  0
  189.8150  177.7950  143.8580 C   0  0  0  0  0  0  0  0  0  0  0  0
  188.8150  177.7190  144.6190 O   0  0  0  0  0  1  0  0  0  0  0  0
  191.0710  178.0370  144.4060 O   0  0  0  0  0  0  0  0  0  0  0  0
  1 12  1  0  0  0  0
  3 19  1  1  0  0  0
  4  6  1  0  0  0  0
  6 13  1  1  0  0  0
  7  6  1  0  0  0  0
  8 17  1  0  0  0  0
 10  5  1  6  0  0  0
 10  7  1  0  0  0  0
 10  3  1  0  0  0  0
 11  6  1  0  0  0  0
 11 17  1  0  0  0  0
 14 15  1  0  0  0  0
 14  1  1  0  0  0  0
 15  2  1  6  0  0  0
 15  8  1  0  0  0  0
 16  9  1  1  0  0  0
 16  3  1  0  0  0  0
 16 18  1  0  0  0  0
 17 36  1  0  0  0  0
 18 12  1  0  0  0  0
 20 23  1  6  0  0  0
 20 25  1  0  0  0  0
 21 19  1  6  0  0  0
 21 32  1  0  0  0  0
 21 25  1  0  0  0  0
 22 24  1  0  0  0  0
 22 21  1  0  0  0  0
 24 20  1  0  0  0  0
 25 27  1  6  0  0  0
 27 26  1  1  0  0  0
 28 27  1  0  0  0  0
 30 29  1  0  0  0  0
 30 28  1  0  0  0  0
 31 30  2  0  0  0  0
 33 32  1  0  0  0  0
 34 33  1  0  0  0  0
 35 34  1  0  0  0  0
 36 38  1  6  0  0  0
 36 46  1  0  0  0  0
 37 38  2  0  0  0  0
 39 43  1  0  0  0  0
 40 41  1  0  0  0  0
 40 44  1  0  0  0  0
 42 39  2  0  0  0  0
 42 45  1  0  0  0  0
 43 37  1  0  0  0  0
 43 41  2  0  0  0  0
 45 40  2  0  0  0  0
 46 52  1  0  0  0  0
 47 51  1  0  0  0  0
 48 53  1  0  0  0  0
 49 50  2  0  0  0  0
 50 48  1  0  0  0  0
 51 48  2  0  0  0  0
 52 47  2  0  0  0  0
 52 49  1  0  0  0  0
 53 55  2  0  0  0  0
 53 54  1  0  0  0  0
M  END
>  <MODEL>
3

>  <REMARK>
 VINA RESULT:      -4.6      3.113      6.582
  Name = 
  13 active torsions:
  status: ('A' for Active; 'I' for Inactive)
    1  A    between atoms: C_2  and  C_44
    2  A    between atoms: C_6  and  C_8
    3  A    between atoms: C_6  and  C_46
    4  A    between atoms: C_7  and  C_8
    5  A    between atoms: C_10  and  C_32
    6  A    between atoms: N_11  and  C_38
    7  A    between atoms: C_12  and  C_14
    8  A    between atoms: C_14  and  C_46
    9  A    between atoms: C_28  and  C_49
   10  A    between atoms: C_33  and  C_49
   11  A    between atoms: C_33  and  C_52
   12  A    between atoms: C_38  and  C_53
   13  A    between atoms: N_45  and  C_49
                            x       y       z     vdW  Elec       q    Type
                         _______ _______ _______ _____ _____    ______ ____

>  <TORSDO>
F 13

$$$$
=
 OpenBabel10272401413D

 55 58  0  0  1  0  0  0  0  0999 V2000
  185.1880  177.8540  142.6320 C   0  0  0  0  0  2  0  0  0  0  0  0
  188.4940  178.8450  143.5170 C   0  0  0  0  0  1  0  0  0  0  0  0
  183.1920  178.7460  138.9410 C   0  0  2  0  0  3  0  0  0  0  0  0
  186.6680  179.7500  137.0140 O   0  0  0  0  0  1  0  0  0  0  0  0
  184.1370  180.8830  138.4470 O   0  0  0  0  0  1  0  0  0  0  0  0
  186.5530  178.8020  138.0360 C   0  0  2  0  0  0  0  0  0  0  0  0
  185.5770  179.1880  138.9850 O   0  0  0  0  0  0  0  0  0  0  0  0
  188.2320  178.8320  141.0610 C   0  0  0  0  0  2  0  0  0  0  0  0
  182.0390  179.2520  140.9690 F   0  0  0  0  0  0  0  0  0  0  0  0
  184.3690  179.5120  138.3380 C   0  0  1  0  0  3  0  0  0  0  0  0
  187.9080  178.7120  138.7320 C   0  0  0  0  0  2  0  0  0  0  0  0
  184.8280  177.3730  141.2340 C   0  0  0  0  0  2  0  0  0  0  0  0
  186.2210  177.4430  137.4290 C   0  0  0  0  0  1  0  0  0  0  0  0
  186.2300  178.9570  142.5450 C   0  0  0  0  0  2  0  0  0  0  0  0
  187.6220  178.3710  142.3790 C   0  0  2  0  0  3  0  0  0  0  0  0
  183.2260  178.7450  140.4770 C   0  0  1  0  0  3  0  0  0  0  0  0
  187.8320  177.9420  139.9770 N   0  0  0  0  0  0  0  0  0  0  0  0
  183.4490  177.4700  141.0220 O   0  0  0  0  0  0  0  0  0  0  0  0
  183.0740  177.3580  138.3120 C   0  0  0  0  0  2  0  0  0  0  0  0
  180.8320  175.0740  137.9020 C   0  0  1  0  0  3  0  0  0  0  0  0
  181.8160  177.1910  137.4420 C   0  0  2  0  0  0  0  0  0  0  0  0
  180.6740  177.4350  138.2400 O   0  0  0  0  0  0  0  0  0  0  0  0
  181.5840  174.5820  138.9680 O   0  0  0  0  0  1  0  0  0  0  0  0
  179.9830  176.2150  138.3930 C   0  0  0  0  0  2  0  0  0  0  0  0
  181.7140  175.7640  136.8990 C   0  0  1  0  0  3  0  0  0  0  0  0
  183.5710  175.4910  135.2340 C   0  0  0  0  0  1  0  0  0  0  0  0
  183.0390  175.0430  136.5870 C   0  0  2  0  0  3  0  0  0  0  0  0
  182.8370  173.5990  136.5700 N   0  0  0  0  0  2  0  0  0  0  0  0
  185.0710  173.1340  137.7000 C   0  0  0  0  0  1  0  0  0  0  0  0
  183.7860  172.6700  137.1000 C   0  0  0  0  0  0  0  0  0  0  0  0
  183.5270  171.4390  137.0780 O   0  0  0  0  0  0  0  0  0  0  0  0
  181.8690  178.2000  136.2850 C   0  0  0  0  0  2  0  0  0  0  0  0
  180.6100  179.0470  136.1710 C   0  0  0  0  0  2  0  0  0  0  0  0
  180.8920  180.4810  136.5800 C   0  0  0  0  0  2  0  0  0  0  0  0
  180.4210  181.4170  135.4900 C   0  0  0  0  0  1  0  0  0  0  0  0
  188.7560  176.7930  139.9820 C   0  0  1  0  0  3  0  0  0  0  0  0
  189.5780  175.6250  138.0010 C   0  0  0  0  0  3  0  0  0  0  0  0
  188.5480  175.9250  138.7860 C   0  0  0  0  0  3  0  0  0  0  0  0
  189.9090  175.3210  135.5800 C   0  0  0  0  0  3  0  0  0  0  0  0
  188.7190  172.7940  135.6380 C   0  0  0  0  0  0  0  0  0  0  0  0
  188.8480  173.5360  136.8160 C   0  0  0  0  0  3  0  0  0  0  0  0
  189.7820  174.5790  134.4030 C   0  0  0  0  0  3  0  0  0  0  0  0
  189.4480  174.8040  136.7910 C   0  0  0  0  0  0  0  0  0  0  0  0
  188.1470  171.5650  135.6680 F   0  0  0  0  0  0  0  0  0  0  0  0
  189.1870  173.3140  134.4320 C   0  0  0  0  0  3  0  0  0  0  0  0
  190.2310  177.1520  140.1770 C   0  0  0  0  0  2  0  0  0  0  0  0
  190.0990  175.8520  142.3130 C   0  0  0  0  0  3  0  0  0  0  0  0
  191.4100  176.4940  144.2610 C   0  0  0  0  0  0  0  0  0  0  0  0
  191.5750  177.7670  142.1970 C   0  0  0  0  0  3  0  0  0  0  0  0
  191.9570  177.5580  143.5280 C   0  0  0  0  0  3  0  0  0  0  0  0
  190.4780  175.6440  143.6450 C   0  0  0  0  0  3  0  0  0  0  0  0
  190.6500  176.9110  141.5860 C   0  0  0  0  0  0  0  0  0  0  0  0
  191.7990  176.2790  145.6660 C   0  0  0  0  0  0  0  0  0  0  0  0
  191.6410  177.1910  146.5190 O   0  0  0  0  0  1  0  0  0  0  0  0
  192.3390  175.0600  146.0640 O   0  0  0  0  0  0  0  0  0  0  0  0
  3 19  1  6  0  0  0
  3 16  1  0  0  0  0
  4  6  1  0  0  0  0
  6 13  1  6  0  0  0
  6 11  1  0  0  0  0
  6  7  1  0  0  0  0
  8 15  1  0  0  0  0
 10  5  1  1  0  0  0
 10  3  1  0  0  0  0
 10  7  1  0  0  0  0
 11 17  1  0  0  0  0
 12  1  1  0  0  0  0
 14  1  1  0  0  0  0
 15 14  1  0  0  0  0
 15  2  1  1  0  0  0
 16  9  1  1  0  0  0
 16 18  1  0  0  0  0
 17 36  1  0  0  0  0
 17  8  1  0  0  0  0
 18 12  1  0  0  0  0
 20 24  1  0  0  0  0
 20 23  1  1  0  0  0
 21 32  1  6  0  0  0
 21 22  1  0  0  0  0
 21 19  1  0  0  0  0
 22 24  1  0  0  0  0
 25 27  1  1  0  0  0
 25 21  1  0  0  0  0
 25 20  1  0  0  0  0
 27 26  1  6  0  0  0
 28 27  1  0  0  0  0
 28 30  1  0  0  0  0
 30 29  1  0  0  0  0
 31 30  2  0  0  0  0
 33 32  1  0  0  0  0
 33 34  1  0  0  0  0
 35 34  1  0  0  0  0
 36 38  1  6  0  0  0
 36 46  1  0  0  0  0
 37 38  2  0  0  0  0
 39 43  1  0  0  0  0
 40 44  1  0  0  0  0
 40 41  1  0  0  0  0
 42 45  1  0  0  0  0
 42 39  2  0  0  0  0
 43 41  2  0  0  0  0
 43 37  1  0  0  0  0
 45 40  2  0  0  0  0
 46 52  1  0  0  0  0
 47 51  1  0  0  0  0
 48 53  1  0  0  0  0
 49 50  2  0  0  0  0
 50 48  1  0  0  0  0
 51 48  2  0  0  0  0
 52 49  1  0  0  0  0
 52 47  2  0  0  0  0
 53 55  2  0  0  0  0
 53 54  1  0  0  0  0
M  END
>  <MODEL>
4

>  <REMARK>
 VINA RESULT:      -4.6      2.979      5.648
  Name = 
  13 active torsions:
  status: ('A' for Active; 'I' for Inactive)
    1  A    between atoms: C_2  and  C_44
    2  A    between atoms: C_6  and  C_8
    3  A    between atoms: C_6  and  C_46
    4  A    between atoms: C_7  and  C_8
    5  A    between atoms: C_10  and  C_32
    6  A    between atoms: N_11  and  C_38
    7  A    between atoms: C_12  and  C_14
    8  A    between atoms: C_14  and  C_46
    9  A    between atoms: C_28  and  C_49
   10  A    between atoms: C_33  and  C_49
   11  A    between atoms: C_33  and  C_52
   12  A    between atoms: C_38  and  C_53
   13  A    between atoms: N_45  and  C_49
                            x       y       z     vdW  Elec       q    Type
                         _______ _______ _______ _____ _____    ______ ____

>  <TORSDO>
F 13

$$$$
=
 OpenBabel10272401413D

 55 58  0  0  1  0  0  0  0  0999 V2000
  180.2210  176.4330  140.7950 C   0  0  0  0  0  2  0  0  0  0  0  0
  180.0610  178.8140  143.4410 C   0  0  0  0  0  1  0  0  0  0  0  0
  182.3760  176.8970  137.1150 C   0  0  2  0  0  3  0  0  0  0  0  0
  184.6590  179.9840  138.5490 O   0  0  0  0  0  1  0  0  0  0  0  0
  182.1810  179.2550  136.7970 O   0  0  0  0  0  1  0  0  0  0  0  0
  184.1550  178.9260  139.3130 C   0  0  2  0  0  0  0  0  0  0  0  0
  182.8830  178.5180  138.8460 O   0  0  0  0  0  0  0  0  0  0  0  0
  182.0790  179.1920  142.0690 C   0  0  0  0  0  2  0  0  0  0  0  0
  180.0800  176.2600  136.9750 F   0  0  0  0  0  0  0  0  0  0  0  0
  182.9260  178.2790  137.4590 C   0  0  1  0  0  3  0  0  0  0  0  0
  184.0150  179.4230  140.7490 C   0  0  0  0  0  2  0  0  0  0  0  0
  181.5060  176.1490  140.0310 C   0  0  0  0  0  2  0  0  0  0  0  0
  185.1460  177.7670  139.2890 C   0  0  0  0  0  1  0  0  0  0  0  0
  180.1470  177.9100  141.1480 C   0  0  0  0  0  2  0  0  0  0  0  0
  180.9640  178.2070  142.3950 C   0  0  2  0  0  3  0  0  0  0  0  0
  181.0780  176.5820  137.8750 C   0  0  1  0  0  3  0  0  0  0  0  0
  183.2570  178.4840  141.5820 N   0  0  0  0  0  0  0  0  0  0  0  0
  181.2220  175.5390  138.8040 O   0  0  0  0  0  0  0  0  0  0  0  0
  183.4640  175.8320  137.2600 C   0  0  0  0  0  2  0  0  0  0  0  0
  182.1480  173.6810  135.2470 C   0  0  1  0  0  3  0  0  0  0  0  0
  183.8630  175.1870  135.9210 C   0  0  2  0  0  0  0  0  0  0  0  0
  183.1480  175.8200  134.8780 O   0  0  0  0  0  0  0  0  0  0  0  0
  181.1370  173.8870  136.1860 O   0  0  0  0  0  1  0  0  0  0  0  0
  182.2300  174.8880  134.3530 C   0  0  0  0  0  2  0  0  0  0  0  0
  183.4990  173.7000  135.9040 C   0  0  1  0  0  3  0  0  0  0  0  0
  185.0280  172.9020  137.7260 C   0  0  0  0  0  1  0  0  0  0  0  0
  183.5860  172.9470  137.2450 C   0  0  2  0  0  3  0  0  0  0  0  0
  183.0850  171.5860  137.0950 N   0  0  0  0  0  2  0  0  0  0  0  0
  184.8710  170.9690  135.3890 C   0  0  0  0  0  1  0  0  0  0  0  0
  183.6840  170.6240  136.2230 C   0  0  0  0  0  0  0  0  0  0  0  0
  183.2130  169.4590  136.1700 O   0  0  0  0  0  0  0  0  0  0  0  0
  185.3720  175.3690  135.7070 C   0  0  0  0  0  2  0  0  0  0  0  0
  185.9650  176.4910  136.5470 C   0  0  0  0  0  2  0  0  0  0  0  0
  186.2840  177.6960  135.6810 C   0  0  0  0  0  2  0  0  0  0  0  0
  187.7800  177.7950  135.4890 C   0  0  0  0  0  1  0  0  0  0  0  0
  184.0230  178.0350  142.7580 C   0  0  1  0  0  3  0  0  0  0  0  0
  186.2480  178.6430  141.9550 C   0  0  0  0  0  3  0  0  0  0  0  0
  185.4290  177.6920  142.3910 C   0  0  0  0  0  3  0  0  0  0  0  0
  188.0510  178.8100  140.2860 C   0  0  0  0  0  3  0  0  0  0  0  0
  189.8340  177.4290  141.9350 C   0  0  0  0  0  0  0  0  0  0  0  0
  188.5310  177.6830  142.3710 C   0  0  0  0  0  3  0  0  0  0  0  0
  189.3550  178.5570  139.8530 C   0  0  0  0  0  3  0  0  0  0  0  0
  187.6330  178.3790  141.5460 C   0  0  0  0  0  0  0  0  0  0  0  0
  190.7020  176.7640  142.7380 F   0  0  0  0  0  0  0  0  0  0  0  0
  190.2470  177.8670  140.6780 C   0  0  0  0  0  3  0  0  0  0  0  0
  183.9610  178.9730  143.9650 C   0  0  0  0  0  2  0  0  0  0  0  0
  185.5790  177.3540  144.9820 C   0  0  0  0  0  3  0  0  0  0  0  0
  187.0170  178.0070  146.8340 C   0  0  0  0  0  0  0  0  0  0  0  0
  185.4700  179.6080  145.8580 C   0  0  0  0  0  3  0  0  0  0  0  0
  186.4610  179.2950  146.7970 C   0  0  0  0  0  3  0  0  0  0  0  0
  186.5680  177.0390  145.9220 C   0  0  0  0  0  3  0  0  0  0  0  0
  185.0310  178.6400  144.9460 C   0  0  0  0  0  0  0  0  0  0  0  0
  188.0500  177.6700  147.8290 C   0  0  0  0  0  0  0  0  0  0  0  0
  188.6100  176.5420  147.8130 O   0  0  0  0  0  0  0  0  0  0  0  0
  188.4210  178.6000  148.7950 O   0  0  0  0  0  1  0  0  0  0  0  0
  1 14  1  0  0  0  0
  3 19  1  1  0  0  0
  3 10  1  0  0  0  0
  3 16  1  0  0  0  0
  4  6  1  0  0  0  0
  6 13  1  6  0  0  0
  6 11  1  0  0  0  0
  7  6  1  0  0  0  0
  8 15  1  0  0  0  0
 10  5  1  6  0  0  0
 10  7  1  0  0  0  0
 11 17  1  0  0  0  0
 12  1  1  0  0  0  0
 14 15  1  0  0  0  0
 15  2  1  1  0  0  0
 16  9  1  6  0  0  0
 16 18  1  0  0  0  0
 17  8  1  0  0  0  0
 17 36  1  0  0  0  0
 18 12  1  0  0  0  0
 20 25  1  0  0  0  0
 20 23  1  1  0  0  0
 21 32  1  6  0  0  0
 21 19  1  0  0  0  0
 22 21  1  0  0  0  0
 24 22  1  0  0  0  0
 24 20  1  0  0  0  0
 25 21  1  0  0  0  0
 25 27  1  1  0  0  0
 27 26  1  6  0  0  0
 28 27  1  0  0  0  0
 29 30  1  0  0  0  0
 30 28  1  0  0  0  0
 31 30  2  0  0  0  0
 32 33  1  0  0  0  0
 34 33  1  0  0  0  0
 35 34  1  0  0  0  0
 36 38  1  6  0  0  0
 36 46  1  0  0  0  0
 37 38  2  0  0  0  0
 39 43  1  0  0  0  0
 40 41  1  0  0  0  0
 40 44  1  0  0  0  0
 42 39  2  0  0  0  0
 42 45  1  0  0  0  0
 43 37  1  0  0  0  0
 43 41  2  0  0  0  0
 45 40  2  0  0  0  0
 46 52  1  0  0  0  0
 47 51  1  0  0  0  0
 48 53  1  0  0  0  0
 49 50  2  0  0  0  0
 50 48  1  0  0  0  0
 51 48  2  0  0  0  0
 52 47  2  0  0  0  0
 52 49  1  0  0  0  0
 53 55  1  0  0  0  0
 54 53  2  0  0  0  0
M  END
>  <MODEL>
5

>  <REMARK>
 VINA RESULT:      -4.3      1.630      3.334
  Name = 
  13 active torsions:
  status: ('A' for Active; 'I' for Inactive)
    1  A    between atoms: C_2  and  C_44
    2  A    between atoms: C_6  and  C_8
    3  A    between atoms: C_6  and  C_46
    4  A    between atoms: C_7  and  C_8
    5  A    between atoms: C_10  and  C_32
    6  A    between atoms: N_11  and  C_38
    7  A    between atoms: C_12  and  C_14
    8  A    between atoms: C_14  and  C_46
    9  A    between atoms: C_28  and  C_49
   10  A    between atoms: C_33  and  C_49
   11  A    between atoms: C_33  and  C_52
   12  A    between atoms: C_38  and  C_53
   13  A    between atoms: N_45  and  C_49
                            x       y       z     vdW  Elec       q    Type
                         _______ _______ _______ _____ _____    ______ ____

>  <TORSDO>
F 13

$$$$
=
 OpenBabel10272401413D

 55 58  0  0  1  0  0  0  0  0999 V2000
  189.7060  176.7410  140.0180 C   0  0  0  0  0  2  0  0  0  0  0  0
  192.9730  176.4950  138.6160 C   0  0  0  0  0  1  0  0  0  0  0  0
  186.2490  178.3830  138.0810 C   0  0  2  0  0  3  0  0  0  0  0  0
  187.9320  178.1770  134.3500 O   0  0  0  0  0  1  0  0  0  0  0  0
  187.2710  180.0730  136.7390 O   0  0  0  0  0  1  0  0  0  0  0  0
  188.1920  177.2960  135.4050 C   0  0  2  0  0  0  0  0  0  0  0  0
  188.1630  177.9680  136.6510 O   0  0  0  0  0  0  0  0  0  0  0  0
  191.2800  176.6490  136.8240 C   0  0  0  0  0  2  0  0  0  0  0  0
  186.7820  179.1960  140.2620 F   0  0  0  0  0  0  0  0  0  0  0  0
  186.9730  178.7110  136.7770 C   0  0  1  0  0  3  0  0  0  0  0  0
  189.5880  176.7210  135.1890 C   0  0  0  0  0  2  0  0  0  0  0  0
  188.4490  176.4580  139.2100 C   0  0  0  0  0  2  0  0  0  0  0  0
  187.1790  176.1570  135.3730 C   0  0  0  0  0  1  0  0  0  0  0  0
  190.7450  177.4160  139.1370 C   0  0  0  0  0  2  0  0  0  0  0  0
  191.4990  176.3880  138.3090 C   0  0  2  0  0  3  0  0  0  0  0  0
  187.2100  178.3230  139.2800 C   0  0  1  0  0  3  0  0  0  0  0  0
  190.0650  175.9870  136.3650 N   0  0  0  0  0  0  0  0  0  0  0  0
  187.3320  177.0340  139.8240 O   0  0  0  0  0  0  0  0  0  0  0  0
  185.3720  177.1420  137.9140 C   0  0  0  0  0  2  0  0  0  0  0  0
  182.6970  175.3470  138.0780 C   0  0  1  0  0  3  0  0  0  0  0  0
  183.8900  177.3990  138.2340 C   0  0  2  0  0  0  0  0  0  0  0  0
  183.6290  176.9750  139.5580 O   0  0  0  0  0  0  0  0  0  0  0  0
  183.6960  174.3950  137.8750 O   0  0  0  0  0  1  0  0  0  0  0  0
  182.7860  175.8470  139.4940 C   0  0  0  0  0  2  0  0  0  0  0  0
  182.9830  176.5980  137.2970 C   0  0  1  0  0  3  0  0  0  0  0  0
  183.2430  177.6130  135.0170 C   0  0  0  0  0  1  0  0  0  0  0  0
  183.4930  176.3720  135.8610 C   0  0  2  0  0  3  0  0  0  0  0  0
  182.8140  175.2320  135.2570 N   0  0  0  0  0  2  0  0  0  0  0  0
  180.5740  176.4390  135.1620 C   0  0  0  0  0  1  0  0  0  0  0  0
  181.4270  175.2420  134.9080 C   0  0  0  0  0  0  0  0  0  0  0  0
  180.9190  174.2300  134.3620 O   0  0  0  0  0  0  0  0  0  0  0  0
  183.6010  178.9010  138.1010 C   0  0  0  0  0  2  0  0  0  0  0  0
  182.1810  179.2770  138.5000 C   0  0  0  0  0  2  0  0  0  0  0  0
  181.6290  180.3420  137.5710 C   0  0  0  0  0  2  0  0  0  0  0  0
  181.5630  181.6630  138.3040 C   0  0  0  0  0  1  0  0  0  0  0  0
  190.4130  174.5890  136.0500 C   0  0  1  0  0  3  0  0  0  0  0  0
  192.5310  173.4390  136.4420 C   0  0  0  0  0  3  0  0  0  0  0  0
  191.8820  174.4300  135.8400 C   0  0  0  0  0  3  0  0  0  0  0  0
  194.4450  171.9760  135.9310 C   0  0  0  0  0  3  0  0  0  0  0  0
  196.2720  174.0180  136.4750 C   0  0  0  0  0  0  0  0  0  0  0  0
  194.9000  174.2580  136.5870 C   0  0  0  0  0  3  0  0  0  0  0  0
  195.8170  171.7380  135.8170 C   0  0  0  0  0  3  0  0  0  0  0  0
  193.9790  173.2350  136.3110 C   0  0  0  0  0  0  0  0  0  0  0  0
  197.1590  175.0110  136.7330 F   0  0  0  0  0  0  0  0  0  0  0  0
  196.7310  172.7600  136.0890 C   0  0  0  0  0  3  0  0  0  0  0  0
  189.8600  173.5510  137.0280 C   0  0  0  0  0  2  0  0  0  0  0  0
  187.4600  172.9230  137.3690 C   0  0  0  0  0  3  0  0  0  0  0  0
  186.1680  171.8750  135.5920 C   0  0  0  0  0  0  0  0  0  0  0  0
  188.4910  172.4890  135.2220 C   0  0  0  0  0  3  0  0  0  0  0  0
  187.2920  171.9380  134.7540 C   0  0  0  0  0  3  0  0  0  0  0  0
  186.2610  172.3700  136.9020 C   0  0  0  0  0  3  0  0  0  0  0  0
  188.5750  172.9870  136.5280 C   0  0  0  0  0  0  0  0  0  0  0  0
  184.9090  171.2840  135.1070 C   0  0  0  0  0  0  0  0  0  0  0  0
  184.0860  171.9780  134.4550 O   0  0  0  0  0  0  0  0  0  0  0  0
  184.6210  169.9460  135.3600 O   0  0  0  0  0  1  0  0  0  0  0  0
  3 19  1  6  0  0  0
  3 16  1  0  0  0  0
  4  6  1  0  0  0  0
  6 13  1  6  0  0  0
  6  7  1  0  0  0  0
  7 10  1  0  0  0  0
  8 15  1  0  0  0  0
 10  5  1  1  0  0  0
 10  3  1  0  0  0  0
 11  6  1  0  0  0  0
 11 17  1  0  0  0  0
 12 18  1  0  0  0  0
 12  1  1  0  0  0  0
 14  1  1  0  0  0  0
 15  2  1  6  0  0  0
 15 14  1  0  0  0  0
 16 18  1  0  0  0  0
 16  9  1  1  0  0  0
 17  8  1  0  0  0  0
 20 23  1  1  0  0  0
 20 24  1  0  0  0  0
 21 19  1  6  0  0  0
 21 22  1  0  0  0  0
 24 22  1  0  0  0  0
 25 27  1  6  0  0  0
 25 20  1  0  0  0  0
 25 21  1  0  0  0  0
 27 26  1  6  0  0  0
 28 27  1  0  0  0  0
 30 29  1  0  0  0  0
 30 28  1  0  0  0  0
 31 30  2  0  0  0  0
 32 21  1  0  0  0  0
 32 33  1  0  0  0  0
 34 35  1  0  0  0  0
 34 33  1  0  0  0  0
 36 38  1  1  0  0  0
 36 17  1  0  0  0  0
 36 46  1  0  0  0  0
 38 37  2  0  0  0  0
 39 43  1  0  0  0  0
 40 41  1  0  0  0  0
 40 44  1  0  0  0  0
 42 39  2  0  0  0  0
 42 45  1  0  0  0  0
 43 37  1  0  0  0  0
 43 41  2  0  0  0  0
 45 40  2  0  0  0  0
 48 51  2  0  0  0  0
 49 52  1  0  0  0  0
 50 49  2  0  0  0  0
 50 48  1  0  0  0  0
 51 47  1  0  0  0  0
 52 46  1  0  0  0  0
 52 47  2  0  0  0  0
 53 55  1  0  0  0  0
 53 48  1  0  0  0  0
 54 53  2  0  0  0  0
M  END
>  <MODEL>
6

>  <REMARK>
 VINA RESULT:      -4.3      4.247      8.771
  Name = 
  13 active torsions:
  status: ('A' for Active; 'I' for Inactive)
    1  A    between atoms: C_2  and  C_44
    2  A    between atoms: C_6  and  C_8
    3  A    between atoms: C_6  and  C_46
    4  A    between atoms: C_7  and  C_8
    5  A    between atoms: C_10  and  C_32
    6  A    between atoms: N_11  and  C_38
    7  A    between atoms: C_12  and  C_14
    8  A    between atoms: C_14  and  C_46
    9  A    between atoms: C_28  and  C_49
   10  A    between atoms: C_33  and  C_49
   11  A    between atoms: C_33  and  C_52
   12  A    between atoms: C_38  and  C_53
   13  A    between atoms: N_45  and  C_49
                            x       y       z     vdW  Elec       q    Type
                         _______ _______ _______ _____ _____    ______ ____

>  <TORSDO>
F 13

$$$$
=
 OpenBabel10272401413D

 55 58  0  0  1  0  0  0  0  0999 V2000
  183.3070  177.3040  141.5950 C   0  0  0  0  0  2  0  0  0  0  0  0
  185.2470  179.9400  143.0050 C   0  0  0  0  0  1  0  0  0  0  0  0
  182.8590  176.4640  137.4130 C   0  0  2  0  0  3  0  0  0  0  0  0
  186.1040  178.7310  136.3530 O   0  0  0  0  0  1  0  0  0  0  0  0
  182.9880  178.6720  136.5140 O   0  0  0  0  0  1  0  0  0  0  0  0
  185.9610  178.0350  137.5580 C   0  0  2  0  0  0  0  0  0  0  0  0
  184.6150  178.0340  137.9920 O   0  0  0  0  0  0  0  0  0  0  0  0
  186.0610  179.3940  140.7380 C   0  0  0  0  0  2  0  0  0  0  0  0
  180.8700  176.6540  138.7180 F   0  0  0  0  0  0  0  0  0  0  0  0
  183.7680  177.6020  136.9520 C   0  0  1  0  0  3  0  0  0  0  0  0
  186.8140  178.7470  138.6030 C   0  0  0  0  0  2  0  0  0  0  0  0
  183.7860  176.4860  140.4060 C   0  0  0  0  0  2  0  0  0  0  0  0
  186.4830  176.6130  137.3840 C   0  0  0  0  0  1  0  0  0  0  0  0
  183.7560  178.7480  141.4420 C   0  0  0  0  0  2  0  0  0  0  0  0
  185.1970  178.9150  141.8980 C   0  0  2  0  0  3  0  0  0  0  0  0
  182.2470  176.7320  138.7970 C   0  0  1  0  0  3  0  0  0  0  0  0
  186.5400  178.2590  139.9580 N   0  0  0  0  0  0  0  0  0  0  0  0
  182.7080  175.8460  139.7840 O   0  0  0  0  0  0  0  0  0  0  0  0
  183.5760  175.1180  137.2910 C   0  0  0  0  0  2  0  0  0  0  0  0
  183.8940  172.0090  136.4920 C   0  0  1  0  0  3  0  0  0  0  0  0
  182.9100  174.1650  136.2840 C   0  0  2  0  0  0  0  0  0  0  0  0
  181.9770  173.3540  136.9700 O   0  0  0  0  0  0  0  0  0  0  0  0
  184.7360  172.1330  137.5970 O   0  0  0  0  0  1  0  0  0  0  0  0
  182.4660  172.0320  136.9660 C   0  0  0  0  0  2  0  0  0  0  0  0
  183.9480  173.2440  135.6380 C   0  0  1  0  0  3  0  0  0  0  0  0
  185.2950  174.9860  134.4340 C   0  0  0  0  0  1  0  0  0  0  0  0
  185.3560  173.8280  135.4200 C   0  0  2  0  0  3  0  0  0  0  0  0
  186.2550  172.8030  134.9030 N   0  0  0  0  0  2  0  0  0  0  0  0
  187.8710  173.0360  136.8560 C   0  0  0  0  0  1  0  0  0  0  0  0
  187.4540  172.4030  135.5710 C   0  0  0  0  0  0  0  0  0  0  0  0
  188.1630  171.4890  135.0780 O   0  0  0  0  0  0  0  0  0  0  0  0
  182.1910  174.9940  135.2090 C   0  0  0  0  0  2  0  0  0  0  0  0
  180.6870  174.7610  135.1800 C   0  0  0  0  0  2  0  0  0  0  0  0
  179.9970  175.8240  134.3460 C   0  0  0  0  0  2  0  0  0  0  0  0
  180.2810  177.1870  134.9350 C   0  0  0  0  0  1  0  0  0  0  0  0
  187.7490  177.7410  140.6220 C   0  0  1  0  0  3  0  0  0  0  0  0
  189.9420  177.0840  139.7700 C   0  0  0  0  0  3  0  0  0  0  0  0
  188.6200  176.9990  139.6630 C   0  0  0  0  0  3  0  0  0  0  0  0
  192.1860  176.8490  138.7850 C   0  0  0  0  0  3  0  0  0  0  0  0
  191.3440  174.7640  137.1270 C   0  0  0  0  0  0  0  0  0  0  0  0
  190.4430  175.3640  138.0110 C   0  0  0  0  0  3  0  0  0  0  0  0
  193.0870  176.2470  137.9020 C   0  0  0  0  0  3  0  0  0  0  0  0
  190.8640  176.4100  138.8480 C   0  0  0  0  0  0  0  0  0  0  0  0
  190.9360  173.7480  136.3270 F   0  0  0  0  0  0  0  0  0  0  0  0
  192.6660  175.2040  137.0730 C   0  0  0  0  0  3  0  0  0  0  0  0
  188.5390  178.7780  141.4250 C   0  0  0  0  0  2  0  0  0  0  0  0
  188.4320  177.1230  143.3000 C   0  0  0  0  0  3  0  0  0  0  0  0
  190.1510  177.0590  145.0230 C   0  0  0  0  0  0  0  0  0  0  0  0
  190.2940  178.6670  143.2050 C   0  0  0  0  0  3  0  0  0  0  0  0
  190.8180  178.1130  144.3790 C   0  0  0  0  0  3  0  0  0  0  0  0
  188.9550  176.5700  144.4760 C   0  0  0  0  0  3  0  0  0  0  0  0
  189.1030  178.1700  142.6610 C   0  0  0  0  0  0  0  0  0  0  0  0
  190.6920  176.4830  146.2660 C   0  0  0  0  0  0  0  0  0  0  0  0
  190.0880  176.6400  147.3590 O   0  0  0  0  0  1  0  0  0  0  0  0
  191.8760  175.7520  146.2410 O   0  0  0  0  0  0  0  0  0  0  0  0
  3 19  1  1  0  0  0
  3 16  1  0  0  0  0
  4  6  1  0  0  0  0
  6 13  1  6  0  0  0
  6  7  1  0  0  0  0
  6 11  1  0  0  0  0
  8 15  1  0  0  0  0
 10  5  1  1  0  0  0
 10  3  1  0  0  0  0
 10  7  1  0  0  0  0
 11 17  1  0  0  0  0
 12  1  1  0  0  0  0
 14  1  1  0  0  0  0
 14 15  1  0  0  0  0
 15  2  1  1  0  0  0
 16  9  1  6  0  0  0
 16 18  1  0  0  0  0
 17 36  1  0  0  0  0
 17  8  1  0  0  0  0
 18 12  1  0  0  0  0
 20 24  1  0  0  0  0
 20 23  1  1  0  0  0
 21 32  1  6  0  0  0
 21 22  1  0  0  0  0
 21 19  1  0  0  0  0
 24 22  1  0  0  0  0
 25 27  1  1  0  0  0
 25 21  1  0  0  0  0
 25 20  1  0  0  0  0
 27 26  1  6  0  0  0
 28 27  1  0  0  0  0
 28 30  1  0  0  0  0
 30 29  1  0  0  0  0
 31 30  2  0  0  0  0
 33 32  1  0  0  0  0
 34 35  1  0  0  0  0
 34 33  1  0  0  0  0
 36 38  1  6  0  0  0
 36 46  1  0  0  0  0
 38 37  2  0  0  0  0
 39 43  1  0  0  0  0
 40 41  1  0  0  0  0
 41 43  2  0  0  0  0
 42 39  2  0  0  0  0
 43 37  1  0  0  0  0
 44 40  1  0  0  0  0
 45 40  2  0  0  0  0
 45 42  1  0  0  0  0
 46 52  1  0  0  0  0
 47 51  1  0  0  0  0
 48 53  1  0  0  0  0
 49 50  2  0  0  0  0
 50 48  1  0  0  0  0
 51 48  2  0  0  0  0
 52 49  1  0  0  0  0
 52 47  2  0  0  0  0
 53 54  1  0  0  0  0
 55 53  2  0  0  0  0
M  END
>  <MODEL>
7

>  <REMARK>
 VINA RESULT:      -4.3      2.530      3.808
  Name = 
  13 active torsions:
  status: ('A' for Active; 'I' for Inactive)
    1  A    between atoms: C_2  and  C_44
    2  A    between atoms: C_6  and  C_8
    3  A    between atoms: C_6  and  C_46
    4  A    between atoms: C_7  and  C_8
    5  A    between atoms: C_10  and  C_32
    6  A    between atoms: N_11  and  C_38
    7  A    between atoms: C_12  and  C_14
    8  A    between atoms: C_14  and  C_46
    9  A    between atoms: C_28  and  C_49
   10  A    between atoms: C_33  and  C_49
   11  A    between atoms: C_33  and  C_52
   12  A    between atoms: C_38  and  C_53
   13  A    between atoms: N_45  and  C_49
                            x       y       z     vdW  Elec       q    Type
                         _______ _______ _______ _____ _____    ______ ____

>  <TORSDO>
F 13

$$$$
=
 OpenBabel10272401413D

 55 58  0  0  1  0  0  0  0  0999 V2000
  189.9090  176.8490  139.9950 C   0  0  0  0  0  2  0  0  0  0  0  0
  193.1500  176.6050  138.5330 C   0  0  0  0  0  1  0  0  0  0  0  0
  186.4060  178.4480  138.1070 C   0  0  2  0  0  3  0  0  0  0  0  0
  188.0160  178.2070  134.3460 O   0  0  0  0  0  1  0  0  0  0  0  0
  187.3900  180.1280  136.7250 O   0  0  0  0  0  1  0  0  0  0  0  0
  188.3020  177.3410  135.4070 C   0  0  2  0  0  0  0  0  0  0  0  0
  188.2940  178.0260  136.6440 O   0  0  0  0  0  0  0  0  0  0  0  0
  191.4210  176.7280  136.7730 C   0  0  0  0  0  2  0  0  0  0  0  0
  186.9760  179.2900  140.2670 F   0  0  0  0  0  0  0  0  0  0  0  0
  187.1020  178.7640  136.7850 C   0  0  1  0  0  3  0  0  0  0  0  0
  189.6970  176.7700  135.1700 C   0  0  0  0  0  2  0  0  0  0  0  0
  188.6390  176.5490  139.2150 C   0  0  0  0  0  2  0  0  0  0  0  0
  187.2960  176.1950  135.4080 C   0  0  0  0  0  1  0  0  0  0  0  0
  190.9270  177.5190  139.0860 C   0  0  0  0  0  2  0  0  0  0  0  0
  191.6700  176.4860  138.2560 C   0  0  2  0  0  3  0  0  0  0  0  0
  187.3890  178.4070  139.2870 C   0  0  1  0  0  3  0  0  0  0  0  0
  190.2010  176.0530  136.3450 N   0  0  0  0  0  0  0  0  0  0  0  0
  187.5300  177.1260  139.8440 O   0  0  0  0  0  0  0  0  0  0  0  0
  185.5330  177.2000  137.9720 C   0  0  0  0  0  2  0  0  0  0  0  0
  182.8550  175.4130  138.1830 C   0  0  1  0  0  3  0  0  0  0  0  0
  184.0380  177.4770  138.2040 C   0  0  2  0  0  0  0  0  0  0  0  0
  183.7200  177.1730  139.5480 O   0  0  0  0  0  0  0  0  0  0  0  0
  183.8630  174.4520  138.1080 O   0  0  0  0  0  1  0  0  0  0  0  0
  182.8820  176.0390  139.5500 C   0  0  0  0  0  2  0  0  0  0  0  0
  183.1730  176.5910  137.3050 C   0  0  1  0  0  3  0  0  0  0  0  0
  183.7900  177.4820  135.0420 C   0  0  0  0  0  1  0  0  0  0  0  0
  183.7440  176.2400  135.9190 C   0  0  2  0  0  3  0  0  0  0  0  0
  182.9190  175.2250  135.2740 N   0  0  0  0  0  2  0  0  0  0  0  0
  180.7980  176.6160  135.4840 C   0  0  0  0  0  1  0  0  0  0  0  0
  181.5160  175.3840  135.0490 C   0  0  0  0  0  0  0  0  0  0  0  0
  180.8770  174.4750  134.4590 O   0  0  0  0  0  0  0  0  0  0  0  0
  183.7530  178.9600  137.9240 C   0  0  0  0  0  2  0  0  0  0  0  0
  182.9710  179.6410  139.0380 C   0  0  0  0  0  2  0  0  0  0  0  0
  181.4810  179.5920  138.7530 C   0  0  0  0  0  2  0  0  0  0  0  0
  180.7300  179.3660  140.0450 C   0  0  0  0  0  1  0  0  0  0  0  0
  190.5510  174.6540  136.0400 C   0  0  1  0  0  3  0  0  0  0  0  0
  188.8000  172.9920  136.4100 C   0  0  0  0  0  3  0  0  0  0  0  0
  189.3550  173.8810  135.5930 C   0  0  0  0  0  3  0  0  0  0  0  0
  187.8690  170.9500  135.3960 C   0  0  0  0  0  3  0  0  0  0  0  0
  185.2490  171.7970  135.8670 C   0  0  0  0  0  0  0  0  0  0  0  0
  186.3260  172.5950  136.2650 C   0  0  0  0  0  3  0  0  0  0  0  0
  186.7930  170.1520  135.0010 C   0  0  0  0  0  3  0  0  0  0  0  0
  187.6430  172.1710  136.0320 C   0  0  0  0  0  0  0  0  0  0  0  0
  183.9770  172.2050  136.1020 F   0  0  0  0  0  0  0  0  0  0  0  0
  185.4820  170.5750  135.2380 C   0  0  0  0  0  3  0  0  0  0  0  0
  191.7340  174.4780  135.0850 C   0  0  0  0  0  2  0  0  0  0  0  0
  192.3860  172.0630  135.1800 C   0  0  0  0  0  3  0  0  0  0  0  0
  194.3040  171.3270  136.4860 C   0  0  0  0  0  0  0  0  0  0  0  0
  193.7090  173.6820  136.4000 C   0  0  0  0  0  3  0  0  0  0  0  0
  194.5440  172.6580  136.8620 C   0  0  0  0  0  3  0  0  0  0  0  0
  193.2200  171.0370  135.6440 C   0  0  0  0  0  3  0  0  0  0  0  0
  192.6320  173.3870  135.5550 C   0  0  0  0  0  0  0  0  0  0  0  0
  195.1730  170.2450  136.9810 C   0  0  0  0  0  0  0  0  0  0  0  0
  195.8720  169.5690  136.1820 O   0  0  0  0  0  0  0  0  0  0  0  0
  195.2340  169.9640  138.3430 O   0  0  0  0  0  1  0  0  0  0  0  0
  3 19  1  6  0  0  0
  3 16  1  0  0  0  0
  4  6  1  0  0  0  0
  6 13  1  1  0  0  0
  6  7  1  0  0  0  0
  7 10  1  0  0  0  0
  8 15  1  0  0  0  0
 10  5  1  1  0  0  0
 10  3  1  0  0  0  0
 11  6  1  0  0  0  0
 11 17  1  0  0  0  0
 12 18  1  0  0  0  0
 12  1  1  0  0  0  0
 14  1  1  0  0  0  0
 15  2  1  6  0  0  0
 15 14  1  0  0  0  0
 16 18  1  0  0  0  0
 16  9  1  1  0  0  0
 17  8  1  0  0  0  0
 19 21  1  0  0  0  0
 20 23  1  1  0  0  0
 20 24  1  0  0  0  0
 21 32  1  6  0  0  0
 21 22  1  0  0  0  0
 22 24  1  0  0  0  0
 25 27  1  6  0  0  0
 25 20  1  0  0  0  0
 25 21  1  0  0  0  0
 27 26  1  6  0  0  0
 28 27  1  0  0  0  0
 30 28  1  0  0  0  0
 30 29  1  0  0  0  0
 31 30  2  0  0  0  0
 32 33  1  0  0  0  0
 34 33  1  0  0  0  0
 34 35  1  0  0  0  0
 36 46  1  6  0  0  0
 36 17  1  0  0  0  0
 38 36  1  0  0  0  0
 38 37  2  0  0  0  0
 39 43  1  0  0  0  0
 40 44  1  0  0  0  0
 40 41  1  0  0  0  0
 42 45  1  0  0  0  0
 42 39  2  0  0  0  0
 43 41  2  0  0  0  0
 43 37  1  0  0  0  0
 45 40  2  0  0  0  0
 46 52  1  0  0  0  0
 47 52  2  0  0  0  0
 47 51  1  0  0  0  0
 48 50  1  0  0  0  0
 48 53  1  0  0  0  0
 49 50  2  0  0  0  0
 51 48  2  0  0  0  0
 52 49  1  0  0  0  0
 53 55  1  0  0  0  0
 54 53  2  0  0  0  0
M  END
>  <MODEL>
8

>  <REMARK>
 VINA RESULT:      -4.2      4.219      9.181
  Name = 
  13 active torsions:
  status: ('A' for Active; 'I' for Inactive)
    1  A    between atoms: C_2  and  C_44
    2  A    between atoms: C_6  and  C_8
    3  A    between atoms: C_6  and  C_46
    4  A    between atoms: C_7  and  C_8
    5  A    between atoms: C_10  and  C_32
    6  A    between atoms: N_11  and  C_38
    7  A    between atoms: C_12  and  C_14
    8  A    between atoms: C_14  and  C_46
    9  A    between atoms: C_28  and  C_49
   10  A    between atoms: C_33  and  C_49
   11  A    between atoms: C_33  and  C_52
   12  A    between atoms: C_38  and  C_53
   13  A    between atoms: N_45  and  C_49
                            x       y       z     vdW  Elec       q    Type
                         _______ _______ _______ _____ _____    ______ ____

>  <TORSDO>
F 13

$$$$
=
 OpenBabel10272401413D

 55 58  0  0  1  0  0  0  0  0999 V2000
  187.4780  177.7000  142.0210 C   0  0  0  0  0  2  0  0  0  0  0  0
  190.7420  178.0460  140.6330 C   0  0  0  0  0  1  0  0  0  0  0  0
  183.8010  178.8420  140.1300 C   0  0  2  0  0  3  0  0  0  0  0  0
  185.4950  179.0690  136.4050 O   0  0  0  0  0  1  0  0  0  0  0  0
  184.5360  180.7300  138.8670 O   0  0  0  0  0  1  0  0  0  0  0  0
  185.8940  178.1980  137.4250 C   0  0  2  0  0  0  0  0  0  0  0  0
  185.7570  178.8030  138.6970 O   0  0  0  0  0  0  0  0  0  0  0  0
  189.0470  178.0000  138.8370 C   0  0  0  0  0  2  0  0  0  0  0  0
  184.1950  179.6370  142.3460 F   0  0  0  0  0  0  0  0  0  0  0  0
  184.4630  179.3380  138.8460 C   0  0  1  0  0  3  0  0  0  0  0  0
  187.3650  177.8660  137.1940 C   0  0  0  0  0  2  0  0  0  0  0  0
  186.2840  177.2520  141.1930 C   0  0  0  0  0  2  0  0  0  0  0  0
  185.0800  176.9120  137.3380 C   0  0  0  0  0  1  0  0  0  0  0  0
  188.3940  178.5720  141.1760 C   0  0  0  0  0  2  0  0  0  0  0  0
  189.3040  177.7150  140.3110 C   0  0  2  0  0  3  0  0  0  0  0  0
  184.7580  178.8870  141.3320 C   0  0  1  0  0  3  0  0  0  0  0  0
  187.9550  177.1700  138.3420 N   0  0  0  0  0  0  0  0  0  0  0  0
  185.0880  177.6130  141.8220 O   0  0  0  0  0  0  0  0  0  0  0  0
  183.1370  177.4830  139.9050 C   0  0  0  0  0  2  0  0  0  0  0  0
  180.4500  176.0190  138.8830 C   0  0  1  0  0  3  0  0  0  0  0  0
  181.6640  177.4480  140.3480 C   0  0  2  0  0  0  0  0  0  0  0  0
  181.4280  176.2440  141.0520 O   0  0  0  0  0  0  0  0  0  0  0  0
  181.4360  175.4570  138.0730 O   0  0  0  0  0  1  0  0  0  0  0  0
  180.5740  175.4420  140.2670 C   0  0  0  0  0  2  0  0  0  0  0  0
  180.7300  177.4740  139.1360 C   0  0  1  0  0  3  0  0  0  0  0  0
  181.0140  179.7620  138.1470 C   0  0  0  0  0  1  0  0  0  0  0  0
  181.2060  178.2720  137.9080 C   0  0  2  0  0  3  0  0  0  0  0  0
  180.4560  177.8730  136.7230 N   0  0  0  0  0  2  0  0  0  0  0  0
  182.5540  177.6470  135.2990 C   0  0  0  0  0  1  0  0  0  0  0  0
  181.0750  177.5640  135.4720 C   0  0  0  0  0  0  0  0  0  0  0  0
  180.3630  177.1980  134.5020 O   0  0  0  0  0  0  0  0  0  0  0  0
  181.3860  178.6500  141.2620 C   0  0  0  0  0  2  0  0  0  0  0  0
  179.9820  178.6440  141.8500 C   0  0  0  0  0  2  0  0  0  0  0  0
  180.0260  178.3420  143.3360 C   0  0  0  0  0  2  0  0  0  0  0  0
  181.3430  178.8170  143.9070 C   0  0  0  0  0  1  0  0  0  0  0  0
  188.5240  175.8620  137.9710 C   0  0  1  0  0  3  0  0  0  0  0  0
  187.1940  174.2340  136.7280 C   0  0  0  0  0  3  0  0  0  0  0  0
  187.4660  174.8120  137.8940 C   0  0  0  0  0  3  0  0  0  0  0  0
  186.4750  172.0170  135.9330 C   0  0  0  0  0  3  0  0  0  0  0  0
  183.8540  172.4520  136.7990 C   0  0  0  0  0  0  0  0  0  0  0  0
  184.8300  173.4340  136.9960 C   0  0  0  0  0  3  0  0  0  0  0  0
  185.5000  171.0350  135.7390 C   0  0  0  0  0  3  0  0  0  0  0  0
  186.1480  173.2170  136.5640 C   0  0  0  0  0  0  0  0  0  0  0  0
  182.5840  172.6610  137.2250 F   0  0  0  0  0  0  0  0  0  0  0  0
  184.1890  171.2520  136.1730 C   0  0  0  0  0  3  0  0  0  0  0  0
  189.4100  175.8730  136.7240 C   0  0  0  0  0  2  0  0  0  0  0  0
  191.2800  174.2100  136.7820 C   0  0  0  0  0  3  0  0  0  0  0  0
  193.4370  174.7750  137.7610 C   0  0  0  0  0  0  0  0  0  0  0  0
  191.6470  176.4190  137.7030 C   0  0  0  0  0  3  0  0  0  0  0  0
  192.9570  176.0620  138.0470 C   0  0  0  0  0  3  0  0  0  0  0  0
  192.5900  173.8520  137.1280 C   0  0  0  0  0  3  0  0  0  0  0  0
  190.8090  175.4950  137.0660 C   0  0  0  0  0  0  0  0  0  0  0  0
  194.8100  174.3910  138.1340 C   0  0  0  0  0  0  0  0  0  0  0  0
  195.7960  175.0310  137.6840 O   0  0  0  0  0  0  0  0  0  0  0  0
  195.0280  173.3200  138.9940 O   0  0  0  0  0  1  0  0  0  0  0  0
  3 19  1  6  0  0  0
  3 16  1  0  0  0  0
  4  6  1  0  0  0  0
  6 13  1  6  0  0  0
  6  7  1  0  0  0  0
  7 10  1  0  0  0  0
  8 15  1  0  0  0  0
 10  5  1  1  0  0  0
 10  3  1  0  0  0  0
 11  6  1  0  0  0  0
 11 17  1  0  0  0  0
 12 18  1  0  0  0  0
 12  1  1  0  0  0  0
 14  1  1  0  0  0  0
 15  2  1  1  0  0  0
 15 14  1  0  0  0  0
 16 18  1  0  0  0  0
 16  9  1  1  0  0  0
 17  8  1  0  0  0  0
 20 23  1  6  0  0  0
 20 25  1  0  0  0  0
 20 24  1  0  0  0  0
 21 19  1  6  0  0  0
 21 22  1  0  0  0  0
 21 32  1  0  0  0  0
 24 22  1  0  0  0  0
 25 27  1  6  0  0  0
 25 21  1  0  0  0  0
 27 26  1  1  0  0  0
 28 27  1  0  0  0  0
 29 30  1  0  0  0  0
 30 28  1  0  0  0  0
 31 30  2  0  0  0  0
 32 33  1  0  0  0  0
 33 34  1  0  0  0  0
 34 35  1  0  0  0  0
 36 46  1  6  0  0  0
 36 17  1  0  0  0  0
 37 38  2  0  0  0  0
 38 36  1  0  0  0  0
 39 43  1  0  0  0  0
 40 41  1  0  0  0  0
 40 44  1  0  0  0  0
 42 39  2  0  0  0  0
 42 45  1  0  0  0  0
 43 37  1  0  0  0  0
 43 41  2  0  0  0  0
 45 40  2  0  0  0  0
 46 52  1  0  0  0  0
 47 52  2  0  0  0  0
 47 51  1  0  0  0  0
 48 50  1  0  0  0  0
 48 53  1  0  0  0  0
 49 50  2  0  0  0  0
 51 48  2  0  0  0  0
 52 49  1  0  0  0  0
 53 55  1  0  0  0  0
 54 53  2  0  0  0  0
M  END
>  <MODEL>
9

>  <REMARK>
 VINA RESULT:      -4.0      3.310      8.008
  Name = 
  13 active torsions:
  status: ('A' for Active; 'I' for Inactive)
    1  A    between atoms: C_2  and  C_44
    2  A    between atoms: C_6  and  C_8
    3  A    between atoms: C_6  and  C_46
    4  A    between atoms: C_7  and  C_8
    5  A    between atoms: C_10  and  C_32
    6  A    between atoms: N_11  and  C_38
    7  A    between atoms: C_12  and  C_14
    8  A    between atoms: C_14  and  C_46
    9  A    between atoms: C_28  and  C_49
   10  A    between atoms: C_33  and  C_49
   11  A    between atoms: C_33  and  C_52
   12  A    between atoms: C_38  and  C_53
   13  A    between atoms: N_45  and  C_49
                            x       y       z     vdW  Elec       q    Type
                         _______ _______ _______ _____ _____    ______ ____

>  <TORSDO>
F 13

$$$$
