=
 OpenBabel10272413273D

 32 37  0  0  1  0  0  0  0  0999 V2000
  190.5910  177.5640  138.7230 C   0  0  0  0  0  3  0  0  0  0  0  0
  188.2350  177.6050  143.2480 C   0  0  0  0  0  0  0  0  0  0  0  0
  191.8970  176.1310  146.3700 C   0  0  0  0  0  2  0  0  0  0  0  0
  191.2000  176.8980  147.4910 C   0  0  0  0  0  2  0  0  0  0  0  0
  186.0220  178.2310  144.0670 C   0  0  0  0  0  0  0  0  0  0  0  0
  185.6440  178.5070  142.7330 C   0  0  0  0  0  0  0  0  0  0  0  0
  188.6730  177.7480  140.8460 C   0  0  0  0  0  0  0  0  0  0  0  0
  190.3910  176.9230  142.3460 C   0  0  0  0  0  3  0  0  0  0  0  0
  183.7920  178.8910  144.7940 C   0  0  0  0  0  0  0  0  0  0  0  0
  190.8860  177.0590  139.9230 C   0  0  0  0  0  3  0  0  0  0  0  0
  191.5170  176.7140  145.0110 C   0  0  0  0  0  2  0  0  0  0  0  0
  189.5510  177.1170  143.4520 C   0  0  0  0  0  0  0  0  0  0  0  0
  189.9970  176.6530  144.8220 C   0  0  2  0  0  3  0  0  0  0  0  0
  187.8340  177.5080  145.7110 C   0  0  0  0  0  0  0  0  0  0  0  0
  183.4280  179.1520  143.4720 C   0  0  0  0  0  3  0  0  0  0  0  0
  189.9710  177.2510  141.0610 C   0  0  0  0  0  0  0  0  0  0  0  0
  184.3530  178.9620  142.4440 C   0  0  0  0  0  3  0  0  0  0  0  0
  188.2030  177.9850  139.4320 C   0  0  0  0  0  2  0  0  0  0  0  0
  189.3640  178.4170  138.5280 C   0  0  2  0  0  3  0  0  0  0  0  0
  189.6860  176.8580  147.3010 C   0  0  0  0  0  2  0  0  0  0  0  0
  189.3170  177.4520  145.9390 C   0  0  1  0  0  3  0  0  0  0  0  0
  187.0390  177.3780  146.6820 O   0  0  0  0  0  0  0  0  0  0  0  0
  187.8000  177.9080  141.9330 C   0  0  0  0  0  0  0  0  0  0  0  0
  186.5300  178.3430  141.7220 N   0  0  0  0  0  0  0  0  0  0  0  0
  182.8950  179.0780  145.7920 F   0  0  0  0  0  0  0  0  0  0  0  0
  187.3380  177.7780  144.3320 C   0  0  0  0  0  0  0  0  0  0  0  0
  185.0800  178.4360  145.0880 C   0  0  0  0  0  3  0  0  0  0  0  0
  188.9480  178.4860  137.0620 C   0  0  0  0  0  2  0  0  0  0  0  0
  189.0680  177.1360  136.3640 C   0  0  0  0  0  2  0  0  0  0  0  0
  187.4450  176.5160  135.8750 S   0  0  1  0  0  0  0  0  0  0  0  0
  187.1160  175.1580  137.0110 C   0  0  0  0  0  1  0  0  0  0  0  0
  186.4810  177.6050  136.3270 O   0  0  0  0  0  0  0  0  0  0  0  0
  1 10  2  0  0  0  0
  2 12  1  0  0  0  0
  2 26  1  0  0  0  0
  3  4  1  0  0  0  0
  5 26  2  0  0  0  0
  5 27  1  0  0  0  0
  6  5  1  0  0  0  0
  7 16  2  0  0  0  0
  7 23  1  0  0  0  0
  8 12  2  0  0  0  0
  9 27  2  0  0  0  0
  9 25  1  0  0  0  0
 10 16  1  0  0  0  0
 11  3  1  0  0  0  0
 12 13  1  0  0  0  0
 13 11  1  6  0  0  0
 13 21  1  0  0  0  0
 14 21  1  0  0  0  0
 14 22  2  0  0  0  0
 15  9  1  0  0  0  0
 16  8  1  0  0  0  0
 17  6  1  0  0  0  0
 17 15  2  0  0  0  0
 18  7  1  0  0  0  0
 19 28  1  6  0  0  0
 19  1  1  0  0  0  0
 19 18  1  0  0  0  0
 20  4  1  0  0  0  0
 21 20  1  1  0  0  0
 23  2  2  0  0  0  0
 24 23  1  0  0  0  0
 24  6  2  0  0  0  0
 26 14  1  0  0  0  0
 29 28  1  0  0  0  0
 30 32  2  0  0  0  0
 30 29  1  0  0  0  0
 30 31  1  1  0  0  0
M  END
>  <MODEL>
1

>  <REMARK>
 VINA RESULT:     -11.8      0.000      0.000
  Name = 
  3 active torsions:
  status: ('A' for Active; 'I' for Inactive)
    1  A    between atoms: S_1  and  C_10
    2  A    between atoms: C_10  and  C_19
    3  A    between atoms: C_19  and  C_24
                            x       y       z     vdW  Elec       q    Type
                         _______ _______ _______ _____ _____    ______ ____

>  <TORSDO>
F 3

$$$$
=
 OpenBabel10272413273D

 32 37  0  0  1  0  0  0  0  0999 V2000
  190.7230  177.4410  139.9980 C   0  0  0  0  0  3  0  0  0  0  0  0
  187.1630  177.8930  143.6250 C   0  0  0  0  0  0  0  0  0  0  0  0
  189.8550  177.3220  147.8390 C   0  0  0  0  0  2  0  0  0  0  0  0
  188.8150  178.1650  148.5740 C   0  0  0  0  0  2  0  0  0  0  0  0
  184.7720  178.3830  143.6830 C   0  0  0  0  0  0  0  0  0  0  0  0
  184.7780  178.4110  142.2690 C   0  0  0  0  0  0  0  0  0  0  0  0
  188.2670  177.7230  141.4480 C   0  0  0  0  0  0  0  0  0  0  0  0
  189.5280  177.3300  143.4830 C   0  0  0  0  0  3  0  0  0  0  0  0
  182.3890  178.8890  143.6430 C   0  0  0  0  0  0  0  0  0  0  0  0
  190.6910  177.1560  141.3030 C   0  0  0  0  0  3  0  0  0  0  0  0
  189.8460  177.6490  146.3480 C   0  0  0  0  0  2  0  0  0  0  0  0
  188.3930  177.5920  144.2630 C   0  0  0  0  0  0  0  0  0  0  0  0
  188.4530  177.3900  145.7630 C   0  0  2  0  0  3  0  0  0  0  0  0
  186.0740  178.1210  145.8610 C   0  0  0  0  0  0  0  0  0  0  0  0
  182.4070  178.9070  142.2480 C   0  0  0  0  0  3  0  0  0  0  0  0
  189.4770  177.4130  142.0940 C   0  0  0  0  0  0  0  0  0  0  0  0
  183.5990  178.6700  141.5620 C   0  0  0  0  0  3  0  0  0  0  0  0
  188.2100  177.6930  139.9410 C   0  0  0  0  0  2  0  0  0  0  0  0
  189.5530  178.1120  139.3290 C   0  0  2  0  0  3  0  0  0  0  0  0
  187.4270  177.9270  147.9860 C   0  0  0  0  0  2  0  0  0  0  0  0
  187.4290  178.2660  146.4930 C   0  0  1  0  0  3  0  0  0  0  0  0
  185.0430  178.0480  146.5840 O   0  0  0  0  0  0  0  0  0  0  0  0
  187.1080  177.9460  142.2090 C   0  0  0  0  0  0  0  0  0  0  0  0
  185.9280  178.1980  141.5850 N   0  0  0  0  0  0  0  0  0  0  0  0
  181.2320  179.1210  144.3080 F   0  0  0  0  0  0  0  0  0  0  0  0
  185.9820  178.1240  144.3740 C   0  0  0  0  0  0  0  0  0  0  0  0
  183.5630  178.6310  144.3540 C   0  0  0  0  0  3  0  0  0  0  0  0
  189.5750  177.9140  137.8170 C   0  0  0  0  0  2  0  0  0  0  0  0
  188.4260  177.0360  137.3330 C   0  0  0  0  0  2  0  0  0  0  0  0
  187.2170  178.0070  136.4090 S   0  0  1  0  0  0  0  0  0  0  0  0
  185.6360  177.6150  137.1770 C   0  0  0  0  0  1  0  0  0  0  0  0
  187.4830  179.4420  136.8440 O   0  0  0  0  0  0  0  0  0  0  0  0
  1 10  2  0  0  0  0
  2 12  1  0  0  0  0
  2 26  1  0  0  0  0
  3  4  1  0  0  0  0
  5 27  1  0  0  0  0
  5 26  2  0  0  0  0
  6  5  1  0  0  0  0
  7 16  2  0  0  0  0
  7 23  1  0  0  0  0
  8 12  2  0  0  0  0
  9 25  1  0  0  0  0
  9 27  2  0  0  0  0
 10 16  1  0  0  0  0
 11  3  1  0  0  0  0
 12 13  1  0  0  0  0
 13 11  1  1  0  0  0
 13 21  1  0  0  0  0
 14 21  1  0  0  0  0
 14 22  2  0  0  0  0
 15  9  1  0  0  0  0
 16  8  1  0  0  0  0
 17 15  2  0  0  0  0
 17  6  1  0  0  0  0
 18  7  1  0  0  0  0
 19 28  1  6  0  0  0
 19 18  1  0  0  0  0
 19  1  1  0  0  0  0
 20  4  1  0  0  0  0
 21 20  1  1  0  0  0
 23  2  2  0  0  0  0
 24 23  1  0  0  0  0
 24  6  2  0  0  0  0
 26 14  1  0  0  0  0
 29 28  1  0  0  0  0
 30 32  2  0  0  0  0
 30 31  1  1  0  0  0
 30 29  1  0  0  0  0
M  END
>  <MODEL>
2

>  <REMARK>
 VINA RESULT:     -11.7      1.311      1.732
  Name = 
  3 active torsions:
  status: ('A' for Active; 'I' for Inactive)
    1  A    between atoms: S_1  and  C_10
    2  A    between atoms: C_10  and  C_19
    3  A    between atoms: C_19  and  C_24
                            x       y       z     vdW  Elec       q    Type
                         _______ _______ _______ _____ _____    ______ ____

>  <TORSDO>
F 3

$$$$
=
 OpenBabel10272413273D

 32 37  0  0  1  0  0  0  0  0999 V2000
  183.6390  178.7910  145.1910 C   0  0  0  0  0  3  0  0  0  0  0  0
  188.3360  177.7430  143.4960 C   0  0  0  0  0  0  0  0  0  0  0  0
  190.8210  176.7810  147.7660 C   0  0  0  0  0  2  0  0  0  0  0  0
  191.7720  175.8910  146.9690 C   0  0  0  0  0  2  0  0  0  0  0  0
  189.4060  177.5360  141.3110 C   0  0  0  0  0  0  0  0  0  0  0  0
  188.1800  177.9090  140.7130 C   0  0  0  0  0  0  0  0  0  0  0  0
  185.9800  178.3940  143.5840 C   0  0  0  0  0  0  0  0  0  0  0  0
  187.2210  178.0460  145.6390 C   0  0  0  0  0  3  0  0  0  0  0  0
  190.3850  177.3400  139.0880 C   0  0  0  0  0  0  0  0  0  0  0  0
  184.8340  178.6950  145.7790 C   0  0  0  0  0  3  0  0  0  0  0  0
  189.4750  176.8930  147.0530 C   0  0  0  0  0  2  0  0  0  0  0  0
  188.3710  177.7070  144.9130 C   0  0  0  0  0  0  0  0  0  0  0  0
  189.6740  177.4670  145.6450 C   0  0  2  0  0  3  0  0  0  0  0  0
  190.7250  177.0170  143.4320 C   0  0  0  0  0  0  0  0  0  0  0  0
  189.1710  177.7170  138.5110 C   0  0  0  0  0  3  0  0  0  0  0  0
  186.0320  178.3670  144.9890 C   0  0  0  0  0  0  0  0  0  0  0  0
  188.0710  177.9990  139.3220 C   0  0  0  0  0  3  0  0  0  0  0  0
  184.7140  178.8570  142.9060 C   0  0  0  0  0  2  0  0  0  0  0  0
  183.4760  178.4770  143.7270 C   0  0  2  0  0  3  0  0  0  0  0  0
  191.9610  176.4430  145.5590 C   0  0  0  0  0  2  0  0  0  0  0  0
  190.6070  176.5440  144.8520 C   0  0  1  0  0  3  0  0  0  0  0  0
  191.8440  177.0010  142.8500 O   0  0  0  0  0  0  0  0  0  0  0  0
  187.1320  178.1010  142.8380 C   0  0  0  0  0  0  0  0  0  0  0  0
  187.0960  178.1730  141.4820 N   0  0  0  0  0  0  0  0  0  0  0  0
  191.4520  177.0640  138.3010 F   0  0  0  0  0  0  0  0  0  0  0  0
  189.4870  177.4470  142.7230 C   0  0  0  0  0  0  0  0  0  0  0  0
  190.4990  177.2490  140.4780 C   0  0  0  0  0  3  0  0  0  0  0  0
  182.2030  179.0910  143.1540 C   0  0  0  0  0  2  0  0  0  0  0  0
  182.0380  178.7970  141.6670 C   0  0  0  0  0  2  0  0  0  0  0  0
  180.2920  178.6890  141.2200 S   0  0  1  0  0  0  0  0  0  0  0  0
  179.9820  180.1650  140.2380 C   0  0  0  0  0  1  0  0  0  0  0  0
  180.2390  177.5590  140.2000 O   0  0  0  0  0  0  0  0  0  0  0  0
  1 10  2  0  0  0  0
  2 12  2  0  0  0  0
  4  3  1  0  0  0  0
  5 26  2  0  0  0  0
  6  5  1  0  0  0  0
  6 24  2  0  0  0  0
  7 16  1  0  0  0  0
  9 27  2  0  0  0  0
 11  3  1  0  0  0  0
 12  8  1  0  0  0  0
 12 13  1  0  0  0  0
 13 11  1  1  0  0  0
 14 21  1  0  0  0  0
 15  9  1  0  0  0  0
 15 17  2  0  0  0  0
 16  8  2  0  0  0  0
 16 10  1  0  0  0  0
 17  6  1  0  0  0  0
 18  7  1  0  0  0  0
 18 19  1  0  0  0  0
 19 28  1  6  0  0  0
 19  1  1  0  0  0  0
 20  4  1  0  0  0  0
 21 20  1  1  0  0  0
 21 13  1  0  0  0  0
 22 14  2  0  0  0  0
 23  2  1  0  0  0  0
 23  7  2  0  0  0  0
 24 23  1  0  0  0  0
 25  9  1  0  0  0  0
 26 14  1  0  0  0  0
 26  2  1  0  0  0  0
 27  5  1  0  0  0  0
 29 28  1  0  0  0  0
 30 31  1  6  0  0  0
 30 29  1  0  0  0  0
 32 30  2  0  0  0  0
M  END
>  <MODEL>
3

>  <REMARK>
 VINA RESULT:     -11.6      3.317      6.072
  Name = 
  3 active torsions:
  status: ('A' for Active; 'I' for Inactive)
    1  A    between atoms: S_1  and  C_10
    2  A    between atoms: C_10  and  C_19
    3  A    between atoms: C_19  and  C_24
                            x       y       z     vdW  Elec       q    Type
                         _______ _______ _______ _____ _____    ______ ____

>  <TORSDO>
F 3

$$$$
=
 OpenBabel10272413273D

 32 37  0  0  1  0  0  0  0  0999 V2000
  188.7050  177.5570  137.8720 C   0  0  0  0  0  3  0  0  0  0  0  0
  187.8910  177.8800  142.8980 C   0  0  0  0  0  0  0  0  0  0  0  0
  183.0860  179.3630  143.1080 C   0  0  0  0  0  2  0  0  0  0  0  0
  182.9770  178.6940  144.4760 C   0  0  0  0  0  2  0  0  0  0  0  0
  189.1780  177.4030  144.9170 C   0  0  0  0  0  0  0  0  0  0  0  0
  190.2790  177.0690  144.0950 C   0  0  0  0  0  0  0  0  0  0  0  0
  188.9750  177.5820  140.7260 C   0  0  0  0  0  0  0  0  0  0  0  0
  186.6990  178.4120  140.8430 C   0  0  0  0  0  3  0  0  0  0  0  0
  190.5340  176.8870  146.8750 C   0  0  0  0  0  0  0  0  0  0  0  0
  187.7500  178.1170  138.6200 C   0  0  0  0  0  3  0  0  0  0  0  0
  184.2040  178.7210  142.2900 C   0  0  0  0  0  2  0  0  0  0  0  0
  186.7130  178.3190  142.2420 C   0  0  0  0  0  0  0  0  0  0  0  0
  185.5360  178.8400  143.0390 C   0  0  2  0  0  3  0  0  0  0  0  0
  186.7410  178.1350  145.1010 C   0  0  0  0  0  0  0  0  0  0  0  0
  191.6160  176.5680  146.0530 C   0  0  0  0  0  3  0  0  0  0  0  0
  187.8040  178.0310  140.0890 C   0  0  0  0  0  0  0  0  0  0  0  0
  191.4880  176.6570  144.6660 C   0  0  0  0  0  3  0  0  0  0  0  0
  190.1970  177.2860  139.8930 C   0  0  0  0  0  2  0  0  0  0  0  0
  189.8070  176.7510  138.5090 C   0  0  2  0  0  3  0  0  0  0  0  0
  184.3050  178.7910  145.2220 C   0  0  0  0  0  2  0  0  0  0  0  0
  185.4160  178.1370  144.3960 C   0  0  1  0  0  3  0  0  0  0  0  0
  186.7990  178.3570  146.3420 O   0  0  0  0  0  0  0  0  0  0  0  0
  189.0260  177.5230  142.1270 C   0  0  0  0  0  0  0  0  0  0  0  0
  190.1710  177.1350  142.7460 N   0  0  0  0  0  0  0  0  0  0  0  0
  190.6570  176.7980  148.2210 F   0  0  0  0  0  0  0  0  0  0  0  0
  187.9630  177.8110  144.3120 C   0  0  0  0  0  0  0  0  0  0  0  0
  189.3240  177.2990  146.3100 C   0  0  0  0  0  3  0  0  0  0  0  0
  191.0150  176.6180  137.5890 C   0  0  0  0  0  2  0  0  0  0  0  0
  191.6880  175.2540  137.7130 C   0  0  0  0  0  2  0  0  0  0  0  0
  193.4850  175.4200  137.7210 S   0  0  1  0  0  0  0  0  0  0  0  0
  193.8800  176.1640  136.1300 C   0  0  0  0  0  1  0  0  0  0  0  0
  193.7500  176.5400  138.7180 O   0  0  0  0  0  0  0  0  0  0  0  0
  1 19  1  0  0  0  0
  1 10  2  0  0  0  0
  2 26  1  0  0  0  0
  3  4  1  0  0  0  0
  4 20  1  0  0  0  0
  5 27  1  0  0  0  0
  6 17  1  0  0  0  0
  6  5  1  0  0  0  0
  7 23  1  0  0  0  0
  8 12  2  0  0  0  0
  9 25  1  0  0  0  0
 10 16  1  0  0  0  0
 11  3  1  0  0  0  0
 12  2  1  0  0  0  0
 12 13  1  0  0  0  0
 13 11  1  6  0  0  0
 13 21  1  0  0  0  0
 14 22  2  0  0  0  0
 15  9  1  0  0  0  0
 16  7  2  0  0  0  0
 16  8  1  0  0  0  0
 17 15  2  0  0  0  0
 18  7  1  0  0  0  0
 19 28  1  6  0  0  0
 19 18  1  0  0  0  0
 21 14  1  0  0  0  0
 21 20  1  1  0  0  0
 23 24  1  0  0  0  0
 23  2  2  0  0  0  0
 24  6  2  0  0  0  0
 26  5  2  0  0  0  0
 26 14  1  0  0  0  0
 27  9  2  0  0  0  0
 28 29  1  0  0  0  0
 29 30  1  0  0  0  0
 30 31  1  6  0  0  0
 30 32  2  0  0  0  0
M  END
>  <MODEL>
4

>  <REMARK>
 VINA RESULT:     -11.1      2.720      5.305
  Name = 
  3 active torsions:
  status: ('A' for Active; 'I' for Inactive)
    1  A    between atoms: S_1  and  C_10
    2  A    between atoms: C_10  and  C_19
    3  A    between atoms: C_19  and  C_24
                            x       y       z     vdW  Elec       q    Type
                         _______ _______ _______ _____ _____    ______ ____

>  <TORSDO>
F 3

$$$$
=
 OpenBabel10272413273D

 32 37  0  0  1  0  0  0  0  0999 V2000
  182.1120  178.8430  143.3770 C   0  0  0  0  0  3  0  0  0  0  0  0
  187.1540  178.0690  143.3200 C   0  0  0  0  0  0  0  0  0  0  0  0
  188.2150  177.5860  148.2160 C   0  0  0  0  0  2  0  0  0  0  0  0
  189.4170  176.7250  147.8340 C   0  0  0  0  0  2  0  0  0  0  0  0
  188.8680  177.8090  141.6010 C   0  0  0  0  0  0  0  0  0  0  0  0
  187.8750  178.0430  140.6230 C   0  0  0  0  0  0  0  0  0  0  0  0
  184.8580  178.5330  142.6160 C   0  0  0  0  0  0  0  0  0  0  0  0
  185.4050  178.4190  144.9770 C   0  0  0  0  0  3  0  0  0  0  0  0
  190.5080  177.5500  139.8180 C   0  0  0  0  0  0  0  0  0  0  0  0
  183.0630  178.8820  144.3130 C   0  0  0  0  0  3  0  0  0  0  0  0
  187.1590  177.5440  147.1140 C   0  0  0  0  0  2  0  0  0  0  0  0
  186.7420  178.1270  144.6760 C   0  0  0  0  0  0  0  0  0  0  0  0
  187.7590  178.0400  145.7940 C   0  0  2  0  0  3  0  0  0  0  0  0
  189.4780  177.5350  144.0640 C   0  0  0  0  0  0  0  0  0  0  0  0
  189.5200  177.7900  138.8620 C   0  0  0  0  0  3  0  0  0  0  0  0
  184.4660  178.6010  143.9650 C   0  0  0  0  0  0  0  0  0  0  0  0
  188.2060  178.0340  139.2630 C   0  0  0  0  0  3  0  0  0  0  0  0
  183.8480  178.8490  141.5420 C   0  0  0  0  0  2  0  0  0  0  0  0
  182.4360  178.4240  141.9670 C   0  0  2  0  0  3  0  0  0  0  0  0
  190.0100  177.2000  146.5100 C   0  0  0  0  0  2  0  0  0  0  0  0
  188.9450  177.1460  145.4120 C   0  0  1  0  0  3  0  0  0  0  0  0
  190.7230  177.5710  143.8610 O   0  0  0  0  0  0  0  0  0  0  0  0
  186.2010  178.2860  142.2920 C   0  0  0  0  0  0  0  0  0  0  0  0
  186.5910  178.2680  140.9910 N   0  0  0  0  0  0  0  0  0  0  0  0
  191.7830  177.3100  139.4270 F   0  0  0  0  0  0  0  0  0  0  0  0
  188.5050  177.8170  142.9710 C   0  0  0  0  0  0  0  0  0  0  0  0
  190.1840  177.5570  141.1760 C   0  0  0  0  0  3  0  0  0  0  0  0
  181.3770  178.8960  140.9770 C   0  0  0  0  0  2  0  0  0  0  0  0
  181.6150  178.3500  139.5730 C   0  0  0  0  0  2  0  0  0  0  0  0
  181.6910  176.5460  139.5870 S   0  0  1  0  0  0  0  0  0  0  0  0
  179.9840  176.0210  139.8170 C   0  0  0  0  0  1  0  0  0  0  0  0
  181.9900  176.1760  138.1410 O   0  0  0  0  0  0  0  0  0  0  0  0
  1 10  2  0  0  0  0
  2 12  2  0  0  0  0
  4  3  1  0  0  0  0
  5 26  2  0  0  0  0
  6 24  2  0  0  0  0
  6  5  1  0  0  0  0
  7 16  1  0  0  0  0
  9 27  2  0  0  0  0
 11  3  1  0  0  0  0
 12  8  1  0  0  0  0
 12 13  1  0  0  0  0
 13 11  1  1  0  0  0
 14 21  1  0  0  0  0
 15 17  2  0  0  0  0
 15  9  1  0  0  0  0
 16 10  1  0  0  0  0
 16  8  2  0  0  0  0
 17  6  1  0  0  0  0
 18 19  1  0  0  0  0
 18  7  1  0  0  0  0
 19 28  1  6  0  0  0
 19  1  1  0  0  0  0
 20  4  1  0  0  0  0
 21 13  1  0  0  0  0
 21 20  1  1  0  0  0
 22 14  2  0  0  0  0
 23  7  2  0  0  0  0
 23  2  1  0  0  0  0
 24 23  1  0  0  0  0
 25  9  1  0  0  0  0
 26  2  1  0  0  0  0
 26 14  1  0  0  0  0
 27  5  1  0  0  0  0
 29 30  1  0  0  0  0
 29 28  1  0  0  0  0
 30 31  1  6  0  0  0
 32 30  2  0  0  0  0
M  END
>  <MODEL>
5

>  <REMARK>
 VINA RESULT:     -10.8      3.068      5.797
  Name = 
  3 active torsions:
  status: ('A' for Active; 'I' for Inactive)
    1  A    between atoms: S_1  and  C_10
    2  A    between atoms: C_10  and  C_19
    3  A    between atoms: C_19  and  C_24
                            x       y       z     vdW  Elec       q    Type
                         _______ _______ _______ _____ _____    ______ ____

>  <TORSDO>
F 3

$$$$
=
 OpenBabel10272413273D

 32 37  0  0  1  0  0  0  0  0999 V2000
  186.5360  178.0810  147.1080 C   0  0  0  0  0  3  0  0  0  0  0  0
  186.1890  178.2050  142.0200 C   0  0  0  0  0  0  0  0  0  0  0  0
  181.2910  179.1170  141.3060 C   0  0  0  0  0  2  0  0  0  0  0  0
  181.6440  179.7700  139.9720 C   0  0  0  0  0  2  0  0  0  0  0  0
  187.7530  178.0450  140.1520 C   0  0  0  0  0  0  0  0  0  0  0  0
  188.7920  177.8260  141.0850 C   0  0  0  0  0  0  0  0  0  0  0  0
  187.0580  177.9530  144.2930 C   0  0  0  0  0  0  0  0  0  0  0  0
  184.6810  178.2720  143.9300 C   0  0  0  0  0  3  0  0  0  0  0  0
  189.3880  177.8870  138.3520 C   0  0  0  0  0  0  0  0  0  0  0  0
  185.5140  178.0330  146.2500 C   0  0  0  0  0  3  0  0  0  0  0  0
  182.4880  179.1630  142.2530 C   0  0  0  0  0  2  0  0  0  0  0  0
  184.8800  178.3570  142.5450 C   0  0  0  0  0  0  0  0  0  0  0  0
  183.6850  178.4460  141.6200 C   0  0  2  0  0  3  0  0  0  0  0  0
  185.2850  178.5260  139.7140 C   0  0  0  0  0  0  0  0  0  0  0  0
  190.4040  177.6630  139.2830 C   0  0  0  0  0  3  0  0  0  0  0  0
  185.7530  178.0930  144.7990 C   0  0  0  0  0  0  0  0  0  0  0  0
  190.1070  177.6350  140.6460 C   0  0  0  0  0  3  0  0  0  0  0  0
  188.1850  177.6440  145.2460 C   0  0  0  0  0  2  0  0  0  0  0  0
  187.9440  178.2900  146.6160 C   0  0  2  0  0  3  0  0  0  0  0  0
  182.8480  179.0740  139.3420 C   0  0  0  0  0  2  0  0  0  0  0  0
  184.0430  179.1330  140.2970 C   0  0  1  0  0  3  0  0  0  0  0  0
  185.3630  178.3100  138.4730 O   0  0  0  0  0  0  0  0  0  0  0  0
  187.2750  177.9910  142.9060 C   0  0  0  0  0  0  0  0  0  0  0  0
  188.5270  177.8080  142.4130 N   0  0  0  0  0  0  0  0  0  0  0  0
  189.6770  177.9180  137.0290 F   0  0  0  0  0  0  0  0  0  0  0  0
  186.4310  178.2420  140.6240 C   0  0  0  0  0  0  0  0  0  0  0  0
  188.0740  178.0780  138.7840 C   0  0  0  0  0  3  0  0  0  0  0  0
  188.9770  177.8420  147.6450 C   0  0  0  0  0  2  0  0  0  0  0  0
  189.7020  176.5700  147.2200 C   0  0  0  0  0  2  0  0  0  0  0  0
  191.4300  176.9130  146.8280 S   0  0  1  0  0  0  0  0  0  0  0  0
  192.3650  175.7600  147.8460 C   0  0  0  0  0  1  0  0  0  0  0  0
  191.6050  176.3710  145.4160 O   0  0  0  0  0  0  0  0  0  0  0  0
  2 12  2  0  0  0  0
  2 23  1  0  0  0  0
  3 11  1  0  0  0  0
  4  3  1  0  0  0  0
  5 26  2  0  0  0  0
  5  6  1  0  0  0  0
  6 24  2  0  0  0  0
  7 16  1  0  0  0  0
  7 18  1  0  0  0  0
  8 16  2  0  0  0  0
  9 27  2  0  0  0  0
  9 15  1  0  0  0  0
 10  1  2  0  0  0  0
 12  8  1  0  0  0  0
 13 11  1  1  0  0  0
 13 12  1  0  0  0  0
 14 21  1  0  0  0  0
 14 26  1  0  0  0  0
 15 17  2  0  0  0  0
 16 10  1  0  0  0  0
 17  6  1  0  0  0  0
 18 19  1  0  0  0  0
 19  1  1  0  0  0  0
 19 28  1  1  0  0  0
 20  4  1  0  0  0  0
 21 20  1  6  0  0  0
 21 13  1  0  0  0  0
 22 14  2  0  0  0  0
 23  7  2  0  0  0  0
 24 23  1  0  0  0  0
 25  9  1  0  0  0  0
 26  2  1  0  0  0  0
 27  5  1  0  0  0  0
 29 28  1  0  0  0  0
 30 29  1  0  0  0  0
 30 31  1  1  0  0  0
 32 30  2  0  0  0  0
M  END
>  <MODEL>
6

>  <REMARK>
 VINA RESULT:     -10.2      3.399      8.186
  Name = 
  3 active torsions:
  status: ('A' for Active; 'I' for Inactive)
    1  A    between atoms: S_1  and  C_10
    2  A    between atoms: C_10  and  C_19
    3  A    between atoms: C_19  and  C_24
                            x       y       z     vdW  Elec       q    Type
                         _______ _______ _______ _____ _____    ______ ____

>  <TORSDO>
F 3

$$$$
=
 OpenBabel10272413273D

 32 37  0  0  1  0  0  0  0  0999 V2000
  188.2910  177.8880  138.4560 C   0  0  0  0  0  3  0  0  0  0  0  0
  186.6200  178.2030  143.2670 C   0  0  0  0  0  0  0  0  0  0  0  0
  181.7950  179.4900  142.6380 C   0  0  0  0  0  2  0  0  0  0  0  0
  181.4810  178.8240  143.9750 C   0  0  0  0  0  2  0  0  0  0  0  0
  187.5620  177.7880  145.4800 C   0  0  0  0  0  0  0  0  0  0  0  0
  188.7990  177.4960  144.8620 C   0  0  0  0  0  0  0  0  0  0  0  0
  188.0690  177.9380  141.3140 C   0  0  0  0  0  0  0  0  0  0  0  0
  185.7760  178.6760  141.0320 C   0  0  0  0  0  3  0  0  0  0  0  0
  188.5830  177.3380  147.6470 C   0  0  0  0  0  0  0  0  0  0  0  0
  187.2020  178.4120  139.0240 C   0  0  0  0  0  3  0  0  0  0  0  0
  183.0610  178.8900  142.0290 C   0  0  0  0  0  2  0  0  0  0  0  0
  185.5550  178.5900  142.4140 C   0  0  0  0  0  0  0  0  0  0  0  0
  184.2400  179.0670  142.9930 C   0  0  2  0  0  3  0  0  0  0  0  0
  185.1020  178.4220  145.2380 C   0  0  0  0  0  0  0  0  0  0  0  0
  189.8010  177.0590  147.0250 C   0  0  0  0  0  3  0  0  0  0  0  0
  187.0080  178.3360  140.4820 C   0  0  0  0  0  0  0  0  0  0  0  0
  189.9080  177.1360  145.6350 C   0  0  0  0  0  3  0  0  0  0  0  0
  189.4260  177.6880  140.7050 C   0  0  0  0  0  2  0  0  0  0  0  0
  189.2990  177.1300  139.2810 C   0  0  2  0  0  3  0  0  0  0  0  0
  182.6570  178.9790  144.9350 C   0  0  0  0  0  2  0  0  0  0  0  0
  183.9180  178.3670  144.3180 C   0  0  1  0  0  3  0  0  0  0  0  0
  184.9390  178.6530  146.4680 O   0  0  0  0  0  0  0  0  0  0  0  0
  187.8830  177.8880  142.7040 C   0  0  0  0  0  0  0  0  0  0  0  0
  188.9200  177.5510  143.5140 N   0  0  0  0  0  0  0  0  0  0  0  0
  188.4790  177.2610  148.9950 F   0  0  0  0  0  0  0  0  0  0  0  0
  186.4530  178.1430  144.6730 C   0  0  0  0  0  0  0  0  0  0  0  0
  187.4720  177.6980  146.8800 C   0  0  0  0  0  3  0  0  0  0  0  0
  190.6510  177.0420  138.5820 C   0  0  0  0  0  2  0  0  0  0  0  0
  190.5450  176.4160  137.1950 C   0  0  0  0  0  2  0  0  0  0  0  0
  191.9040  175.2640  136.9020 S   0  0  1  0  0  0  0  0  0  0  0  0
  191.5460  174.5390  135.2930 C   0  0  0  0  0  1  0  0  0  0  0  0
  193.1010  176.1660  136.6320 O   0  0  0  0  0  0  0  0  0  0  0  0
  1 10  2  0  0  0  0
  1 19  1  0  0  0  0
  2 26  1  0  0  0  0
  3  4  1  0  0  0  0
  4 20  1  0  0  0  0
  5 27  1  0  0  0  0
  6  5  1  0  0  0  0
  6 17  1  0  0  0  0
  7 23  1  0  0  0  0
  8 12  2  0  0  0  0
  9 25  1  0  0  0  0
 10 16  1  0  0  0  0
 11  3  1  0  0  0  0
 12 13  1  0  0  0  0
 12  2  1  0  0  0  0
 13 11  1  6  0  0  0
 13 21  1  0  0  0  0
 14 22  2  0  0  0  0
 15  9  1  0  0  0  0
 16  8  1  0  0  0  0
 16  7  2  0  0  0  0
 17 15  2  0  0  0  0
 18  7  1  0  0  0  0
 19 28  1  6  0  0  0
 19 18  1  0  0  0  0
 21 20  1  1  0  0  0
 21 14  1  0  0  0  0
 23  2  2  0  0  0  0
 23 24  1  0  0  0  0
 24  6  2  0  0  0  0
 26 14  1  0  0  0  0
 26  5  2  0  0  0  0
 27  9  2  0  0  0  0
 29 28  1  0  0  0  0
 30 31  1  6  0  0  0
 30 29  1  0  0  0  0
 32 30  2  0  0  0  0
M  END
>  <MODEL>
7

>  <REMARK>
 VINA RESULT:     -10.1      2.350      5.248
  Name = 
  3 active torsions:
  status: ('A' for Active; 'I' for Inactive)
    1  A    between atoms: S_1  and  C_10
    2  A    between atoms: C_10  and  C_19
    3  A    between atoms: C_19  and  C_24
                            x       y       z     vdW  Elec       q    Type
                         _______ _______ _______ _____ _____    ______ ____

>  <TORSDO>
F 3

$$$$
=
 OpenBabel10272413273D

 32 37  0  0  1  0  0  0  0  0999 V2000
  187.4410  178.1460  137.6560 C   0  0  0  0  0  3  0  0  0  0  0  0
  187.4710  178.0450  142.7570 C   0  0  0  0  0  0  0  0  0  0  0  0
  182.7480  179.3720  143.8780 C   0  0  0  0  0  2  0  0  0  0  0  0
  182.8780  178.5930  145.1850 C   0  0  0  0  0  2  0  0  0  0  0  0
  189.0830  177.4430  144.4890 C   0  0  0  0  0  0  0  0  0  0  0  0
  190.0370  177.2070  143.4710 C   0  0  0  0  0  0  0  0  0  0  0  0
  188.1820  177.9510  140.4180 C   0  0  0  0  0  0  0  0  0  0  0  0
  185.9460  178.7060  140.9780 C   0  0  0  0  0  3  0  0  0  0  0  0
  190.7530  176.8110  146.1470 C   0  0  0  0  0  0  0  0  0  0  0  0
  186.6160  178.6170  138.5940 C   0  0  0  0  0  3  0  0  0  0  0  0
  183.7230  178.8290  142.8360 C   0  0  0  0  0  2  0  0  0  0  0  0
  186.1940  178.5020  142.3420 C   0  0  0  0  0  0  0  0  0  0  0  0
  185.1590  178.9250  143.3630 C   0  0  2  0  0  3  0  0  0  0  0  0
  186.7010  178.0910  145.1320 C   0  0  0  0  0  0  0  0  0  0  0  0
  191.6880  176.5890  145.1340 C   0  0  0  0  0  3  0  0  0  0  0  0
  186.9160  178.4160  140.0220 C   0  0  0  0  0  0  0  0  0  0  0  0
  191.3290  176.7850  143.7990 C   0  0  0  0  0  3  0  0  0  0  0  0
  189.2520  177.7560  139.3730 C   0  0  0  0  0  2  0  0  0  0  0  0
  188.6450  177.3230  138.0330 C   0  0  2  0  0  3  0  0  0  0  0  0
  184.3100  178.6670  145.7070 C   0  0  0  0  0  2  0  0  0  0  0  0
  185.2770  178.1130  144.6580 C   0  0  1  0  0  3  0  0  0  0  0  0
  186.9620  178.2150  146.3610 O   0  0  0  0  0  0  0  0  0  0  0  0
  188.4670  177.7820  141.7820 C   0  0  0  0  0  0  0  0  0  0  0  0
  189.7050  177.3780  142.1690 N   0  0  0  0  0  0  0  0  0  0  0  0
  191.1010  176.6180  147.4410 F   0  0  0  0  0  0  0  0  0  0  0  0
  187.7790  177.8640  144.1280 C   0  0  0  0  0  0  0  0  0  0  0  0
  189.4610  177.2330  145.8250 C   0  0  0  0  0  3  0  0  0  0  0  0
  189.6850  177.2970  136.9180 C   0  0  0  0  0  2  0  0  0  0  0  0
  189.2560  176.4180  135.7480 C   0  0  0  0  0  2  0  0  0  0  0  0
  190.4760  175.1260  135.4310 S   0  0  1  0  0  0  0  0  0  0  0  0
  191.9900  175.7330  136.1940 C   0  0  0  0  0  1  0  0  0  0  0  0
  190.0480  173.9810  136.3390 O   0  0  0  0  0  0  0  0  0  0  0  0
  1 19  1  0  0  0  0
  1 10  2  0  0  0  0
  2 26  1  0  0  0  0
  3  4  1  0  0  0  0
  4 20  1  0  0  0  0
  5 27  1  0  0  0  0
  6 17  1  0  0  0  0
  6  5  1  0  0  0  0
  7 23  1  0  0  0  0
  8 12  2  0  0  0  0
  9 25  1  0  0  0  0
 10 16  1  0  0  0  0
 11  3  1  0  0  0  0
 12  2  1  0  0  0  0
 12 13  1  0  0  0  0
 13 11  1  6  0  0  0
 13 21  1  0  0  0  0
 14 22  2  0  0  0  0
 15  9  1  0  0  0  0
 16  7  2  0  0  0  0
 16  8  1  0  0  0  0
 17 15  2  0  0  0  0
 18  7  1  0  0  0  0
 19 28  1  6  0  0  0
 19 18  1  0  0  0  0
 21 14  1  0  0  0  0
 21 20  1  1  0  0  0
 23 24  1  0  0  0  0
 23  2  2  0  0  0  0
 24  6  2  0  0  0  0
 26  5  2  0  0  0  0
 26 14  1  0  0  0  0
 27  9  2  0  0  0  0
 29 28  1  0  0  0  0
 30 29  1  0  0  0  0
 30 31  1  1  0  0  0
 30 32  2  0  0  0  0
M  END
>  <MODEL>
8

>  <REMARK>
 VINA RESULT:      -9.8      2.275      5.053
  Name = 
  3 active torsions:
  status: ('A' for Active; 'I' for Inactive)
    1  A    between atoms: S_1  and  C_10
    2  A    between atoms: C_10  and  C_19
    3  A    between atoms: C_19  and  C_24
                            x       y       z     vdW  Elec       q    Type
                         _______ _______ _______ _____ _____    ______ ____

>  <TORSDO>
F 3

$$$$
=
 OpenBabel10272413273D

 32 37  0  0  1  0  0  0  0  0999 V2000
  192.2520  176.9670  141.6910 C   0  0  0  0  0  3  0  0  0  0  0  0
  187.3470  177.9520  142.6920 C   0  0  0  0  0  0  0  0  0  0  0  0
  187.2150  177.7160  147.7170 C   0  0  0  0  0  2  0  0  0  0  0  0
  186.0280  178.6750  147.6950 C   0  0  0  0  0  2  0  0  0  0  0  0
  185.3750  178.5460  141.3800 C   0  0  0  0  0  0  0  0  0  0  0  0
  186.1590  178.4250  140.2100 C   0  0  0  0  0  0  0  0  0  0  0  0
  189.4420  177.5060  141.5110 C   0  0  0  0  0  0  0  0  0  0  0  0
  189.3360  177.2760  143.9230 C   0  0  0  0  0  3  0  0  0  0  0  0
  183.4650  179.1460  139.9920 C   0  0  0  0  0  0  0  0  0  0  0  0
  191.4820  176.8240  142.7730 C   0  0  0  0  0  3  0  0  0  0  0  0
  188.0570  177.8830  146.4550 C   0  0  0  0  0  2  0  0  0  0  0  0
  187.9890  177.6680  143.9240 C   0  0  0  0  0  0  0  0  0  0  0  0
  187.1980  177.6240  145.2130 C   0  0  2  0  0  3  0  0  0  0  0  0
  185.2360  178.4610  143.9270 C   0  0  0  0  0  0  0  0  0  0  0  0
  184.2470  179.0160  138.8430 C   0  0  0  0  0  3  0  0  0  0  0  0
  190.0630  177.2140  142.7380 C   0  0  0  0  0  0  0  0  0  0  0  0
  185.5920  178.6570  138.9520 C   0  0  0  0  0  3  0  0  0  0  0  0
  190.2190  177.3180  140.2320 C   0  0  0  0  0  2  0  0  0  0  0  0
  191.7100  177.6120  140.4420 C   0  0  2  0  0  3  0  0  0  0  0  0
  185.1750  178.4360  146.4520 C   0  0  0  0  0  2  0  0  0  0  0  0
  186.0280  178.6150  145.1930 C   0  0  1  0  0  3  0  0  0  0  0  0
  183.9760  178.5100  143.9580 O   0  0  0  0  0  0  0  0  0  0  0  0
  188.0830  177.8560  141.4840 C   0  0  0  0  0  0  0  0  0  0  0  0
  187.4690  178.0920  140.2950 N   0  0  0  0  0  0  0  0  0  0  0  0
  182.1610  179.4970  139.8860 F   0  0  0  0  0  0  0  0  0  0  0  0
  185.9770  178.3110  142.6420 C   0  0  0  0  0  0  0  0  0  0  0  0
  184.0260  178.9150  141.2500 C   0  0  0  0  0  3  0  0  0  0  0  0
  192.5400  177.2550  139.2140 C   0  0  0  0  0  2  0  0  0  0  0  0
  191.8290  176.2540  138.3090 C   0  0  0  0  0  2  0  0  0  0  0  0
  192.9990  175.0640  137.6200 S   0  0  1  0  0  0  0  0  0  0  0  0
  192.9940  175.3930  135.8500 C   0  0  0  0  0  1  0  0  0  0  0  0
  194.3590  175.5730  138.0780 O   0  0  0  0  0  0  0  0  0  0  0  0
  1 10  2  0  0  0  0
  2 12  2  0  0  0  0
  4  3  1  0  0  0  0
  5 26  2  0  0  0  0
  6 24  2  0  0  0  0
  6  5  1  0  0  0  0
  7 16  1  0  0  0  0
  8 12  1  0  0  0  0
  9 27  2  0  0  0  0
 11  3  1  0  0  0  0
 12 13  1  0  0  0  0
 13 11  1  1  0  0  0
 14 22  2  0  0  0  0
 14 21  1  0  0  0  0
 15 17  2  0  0  0  0
 15  9  1  0  0  0  0
 16 10  1  0  0  0  0
 16  8  2  0  0  0  0
 17  6  1  0  0  0  0
 18 19  1  0  0  0  0
 18  7  1  0  0  0  0
 19 28  1  6  0  0  0
 19  1  1  0  0  0  0
 20  4  1  0  0  0  0
 21 13  1  0  0  0  0
 21 20  1  1  0  0  0
 23  7  2  0  0  0  0
 23  2  1  0  0  0  0
 24 23  1  0  0  0  0
 25  9  1  0  0  0  0
 26  2  1  0  0  0  0
 26 14  1  0  0  0  0
 27  5  1  0  0  0  0
 29 28  1  0  0  0  0
 30 31  1  6  0  0  0
 30 32  2  0  0  0  0
 30 29  1  0  0  0  0
M  END
>  <MODEL>
9

>  <REMARK>
 VINA RESULT:      -9.5      2.887      3.949
  Name = 
  3 active torsions:
  status: ('A' for Active; 'I' for Inactive)
    1  A    between atoms: S_1  and  C_10
    2  A    between atoms: C_10  and  C_19
    3  A    between atoms: C_19  and  C_24
                            x       y       z     vdW  Elec       q    Type
                         _______ _______ _______ _____ _____    ______ ____

>  <TORSDO>
F 3

$$$$
