=
 OpenBabel10272413393D

 32 34  0  0  1  0  0  0  0  0999 V2000
  188.5440  177.4270  147.8150 C   0  0  0  0  0  2  0  0  0  0  0  0
  189.7920  176.7300  147.2840 C   0  0  0  0  0  2  0  0  0  0  0  0
  187.4070  177.2890  146.8090 C   0  0  0  0  0  2  0  0  0  0  0  0
  187.7990  177.9130  145.4700 C   0  0  1  0  0  3  0  0  0  0  0  0
  190.2190  177.3560  145.9610 C   0  0  0  0  0  2  0  0  0  0  0  0
  189.0880  177.2710  144.9340 C   0  0  2  0  0  3  0  0  0  0  0  0
  186.7160  177.7350  144.5130 N   0  0  0  0  0  2  0  0  0  0  0  0
  185.3880  179.4400  145.4060 O   0  0  0  0  0  0  0  0  0  0  0  0
  185.5280  178.5350  144.5410 C   0  0  0  0  0  0  0  0  0  0  0  0
  183.1850  179.0620  143.9410 C   0  0  0  0  0  2  0  0  0  0  0  0
  182.3860  178.7020  141.6020 C   0  0  0  0  0  0  0  0  0  0  0  0
  183.8140  178.5220  141.1070 C   0  0  2  0  0  3  0  0  0  0  0  0
  182.1100  178.8940  142.9050 C   0  0  0  0  0  3  0  0  0  0  0  0
  184.8930  178.7990  142.1630 C   0  0  0  0  0  2  0  0  0  0  0  0
  184.4490  178.3110  143.5360 C   0  0  1  0  0  3  0  0  0  0  0  0
  184.7080  178.4300  138.7410 C   0  0  0  0  0  1  0  0  0  0  0  0
  184.0970  179.3050  139.8260 C   0  0  0  0  0  2  0  0  0  0  0  0
  181.2500  178.5280  140.6410 C   0  0  0  0  0  2  0  0  0  0  0  0
  181.0550  177.0620  140.3020 C   0  0  0  0  0  2  0  0  0  0  0  0
  181.0770  176.8860  138.7990 C   0  0  0  0  0  2  0  0  0  0  0  0
  180.9100  178.2340  138.1290 C   0  0  0  0  0  1  0  0  0  0  0  0
  189.5260  177.8620  143.5870 C   0  0  0  0  0  2  0  0  0  0  0  0
  190.3860  176.9120  142.7590 C   0  0  0  0  0  2  0  0  0  0  0  0
  191.2870  177.6840  141.8100 C   0  0  0  0  0  2  0  0  0  0  0  0
  189.6420  176.9760  139.9770 C   0  0  1  0  0  3  0  0  0  0  0  0
  191.9340  176.9660  139.4530 C   0  0  0  0  0  0  0  0  0  0  0  0
  191.3180  176.3500  138.2630 C   0  0  0  0  0  3  0  0  0  0  0  0
  189.8190  176.4000  138.5650 C   0  0  0  0  0  3  0  0  0  0  0  0
  193.5520  176.9960  139.7040 S   0  0  0  0  0  0  0  0  0  0  0  0
  190.9760  177.3260  140.4330 N   0  0  0  0  0  0  0  0  0  0  0  0
  188.5390  178.6190  138.4570 C   0  0  0  0  0  1  0  0  0  0  0  0
  188.7590  178.2120  139.9010 C   0  0  0  0  0  2  0  0  0  0  0  0
  2  1  1  0  0  0  0
  3  1  1  0  0  0  0
  4  7  1  6  0  0  0
  4  3  1  0  0  0  0
  5  2  1  0  0  0  0
  6 22  1  6  0  0  0
  6  4  1  0  0  0  0
  6  5  1  0  0  0  0
  7  9  1  0  0  0  0
  9  8  2  0  0  0  0
 11 13  2  0  0  0  0
 12 17  1  6  0  0  0
 12 11  1  0  0  0  0
 12 14  1  0  0  0  0
 13 10  1  0  0  0  0
 14 15  1  0  0  0  0
 15 10  1  0  0  0  0
 15  9  1  1  0  0  0
 16 17  1  0  0  0  0
 18 11  1  0  0  0  0
 19 18  1  0  0  0  0
 20 19  1  0  0  0  0
 21 20  1  0  0  0  0
 23 22  1  0  0  0  0
 24 23  1  0  0  0  0
 25 32  1  6  0  0  0
 25 30  1  0  0  0  0
 26 29  2  0  0  0  0
 26 30  1  0  0  0  0
 27 28  2  0  0  0  0
 27 26  1  0  0  0  0
 28 25  1  0  0  0  0
 30 24  1  0  0  0  0
 31 32  1  0  0  0  0
M  END
>  <MODEL>
1

>  <REMARK>
 VINA RESULT:      -7.5      0.000      0.000
  Name = 
  11 active torsions:
  status: ('A' for Active; 'I' for Inactive)
    1  A    between atoms: C_1  and  C_20
    2  A    between atoms: C_2  and  C_12
    3  A    between atoms: C_2  and  C_20
    4  A    between atoms: N_3  and  C_15
    5  A    between atoms: C_6  and  C_16
    6  A    between atoms: C_6  and  C_26
    7  A    between atoms: C_7  and  C_31
    8  A    between atoms: C_14  and  C_28
    9  A    between atoms: C_16  and  C_27
   10  A    between atoms: C_19  and  C_24
   11  A    between atoms: C_27  and  N_32
                            x       y       z     vdW  Elec       q    Type
                         _______ _______ _______ _____ _____    ______ ____

>  <TORSDO>
F 11

$$$$
=
 OpenBabel10272413393D

 32 34  0  0  1  0  0  0  0  0999 V2000
  183.1650  179.5010  144.4340 C   0  0  0  0  0  2  0  0  0  0  0  0
  184.0160  178.7300  145.4370 C   0  0  0  0  0  2  0  0  0  0  0  0
  183.1710  178.7820  143.0900 C   0  0  0  0  0  2  0  0  0  0  0  0
  184.5970  178.6670  142.5530 C   0  0  1  0  0  3  0  0  0  0  0  0
  185.4520  178.6270  144.9350 C   0  0  0  0  0  2  0  0  0  0  0  0
  185.4980  177.9430  143.5670 C   0  0  2  0  0  3  0  0  0  0  0  0
  184.5850  177.9430  141.2890 N   0  0  0  0  0  2  0  0  0  0  0  0
  184.7130  179.8650  139.9640 O   0  0  0  0  0  0  0  0  0  0  0  0
  184.6400  178.6080  140.0220 C   0  0  0  0  0  0  0  0  0  0  0  0
  183.3480  178.0970  137.9750 C   0  0  0  0  0  2  0  0  0  0  0  0
  184.4840  177.0500  136.0120 C   0  0  0  0  0  0  0  0  0  0  0  0
  185.8540  177.3340  136.6110 C   0  0  2  0  0  3  0  0  0  0  0  0
  183.3500  177.3540  136.6690 C   0  0  0  0  0  3  0  0  0  0  0  0
  185.8240  178.1820  137.8910 C   0  0  0  0  0  2  0  0  0  0  0  0
  184.6260  177.8180  138.7580 C   0  0  1  0  0  3  0  0  0  0  0  0
  188.2660  177.4950  135.8640 C   0  0  0  0  0  1  0  0  0  0  0  0
  186.8310  177.9230  135.5950 C   0  0  0  0  0  2  0  0  0  0  0  0
  184.3910  176.2910  134.7240 C   0  0  0  0  0  2  0  0  0  0  0  0
  184.9900  174.9050  134.8740 C   0  0  0  0  0  2  0  0  0  0  0  0
  184.0720  174.0470  135.7180 C   0  0  0  0  0  2  0  0  0  0  0  0
  184.7560  173.7110  137.0260 C   0  0  0  0  0  1  0  0  0  0  0  0
  186.9430  177.7990  143.0750 C   0  0  0  0  0  2  0  0  0  0  0  0
  187.8560  177.0910  144.0730 C   0  0  0  0  0  2  0  0  0  0  0  0
  189.0020  177.9940  144.4940 C   0  0  0  0  0  2  0  0  0  0  0  0
  189.8210  177.5400  146.8790 C   0  0  1  0  0  3  0  0  0  0  0  0
  191.0150  176.5580  145.1080 C   0  0  0  0  0  0  0  0  0  0  0  0
  191.8460  176.2430  146.2840 C   0  0  0  0  0  3  0  0  0  0  0  0
  191.0530  176.8280  147.4550 C   0  0  0  0  0  3  0  0  0  0  0  0
  191.5120  176.2950  143.5700 S   0  0  0  0  0  0  0  0  0  0  0  0
  189.8560  177.2980  145.4470 N   0  0  0  0  0  0  0  0  0  0  0  0
  187.6160  178.0320  147.9380 C   0  0  0  0  0  1  0  0  0  0  0  0
  188.5670  176.9370  147.4950 C   0  0  0  0  0  2  0  0  0  0  0  0
  1  2  1  0  0  0  0
  3  1  1  0  0  0  0
  4  7  1  6  0  0  0
  4  3  1  0  0  0  0
  4  6  1  0  0  0  0
  5  2  1  0  0  0  0
  6 22  1  6  0  0  0
  6  5  1  0  0  0  0
  8  9  2  0  0  0  0
  9  7  1  0  0  0  0
 10 15  1  0  0  0  0
 11 12  1  0  0  0  0
 11 13  2  0  0  0  0
 12 17  1  6  0  0  0
 12 14  1  0  0  0  0
 13 10  1  0  0  0  0
 14 15  1  0  0  0  0
 15  9  1  1  0  0  0
 17 16  1  0  0  0  0
 18 19  1  0  0  0  0
 18 11  1  0  0  0  0
 19 20  1  0  0  0  0
 20 21  1  0  0  0  0
 22 23  1  0  0  0  0
 23 24  1  0  0  0  0
 24 30  1  0  0  0  0
 25 28  1  0  0  0  0
 25 32  1  1  0  0  0
 26 30  1  0  0  0  0
 26 27  1  0  0  0  0
 27 28  2  0  0  0  0
 29 26  2  0  0  0  0
 30 25  1  0  0  0  0
 32 31  1  0  0  0  0
M  END
>  <MODEL>
2

>  <REMARK>
 VINA RESULT:      -7.3      2.793      5.847
  Name = 
  11 active torsions:
  status: ('A' for Active; 'I' for Inactive)
    1  A    between atoms: C_1  and  C_20
    2  A    between atoms: C_2  and  C_12
    3  A    between atoms: C_2  and  C_20
    4  A    between atoms: N_3  and  C_15
    5  A    between atoms: C_6  and  C_16
    6  A    between atoms: C_6  and  C_26
    7  A    between atoms: C_7  and  C_31
    8  A    between atoms: C_14  and  C_28
    9  A    between atoms: C_16  and  C_27
   10  A    between atoms: C_19  and  C_24
   11  A    between atoms: C_27  and  N_32
                            x       y       z     vdW  Elec       q    Type
                         _______ _______ _______ _____ _____    ______ ____

>  <TORSDO>
F 11

$$$$
=
 OpenBabel10272413393D

 32 34  0  0  1  0  0  0  0  0999 V2000
  191.5850  175.1570  137.0800 C   0  0  0  0  0  2  0  0  0  0  0  0
  190.5780  175.3960  135.9600 C   0  0  0  0  0  2  0  0  0  0  0  0
  190.9380  175.4500  138.4290 C   0  0  0  0  0  2  0  0  0  0  0  0
  190.4590  176.9010  138.4870 C   0  0  1  0  0  3  0  0  0  0  0  0
  190.1070  176.8460  135.9810 C   0  0  0  0  0  2  0  0  0  0  0  0
  189.4840  177.1920  137.3350 C   0  0  2  0  0  3  0  0  0  0  0  0
  189.8100  177.1490  139.7670 N   0  0  0  0  0  2  0  0  0  0  0  0
  191.7980  177.6090  140.9060 O   0  0  0  0  0  0  0  0  0  0  0  0
  190.5440  177.4960  140.9460 C   0  0  0  0  0  0  0  0  0  0  0  0
  188.6650  176.7670  142.3820 C   0  0  0  0  0  2  0  0  0  0  0  0
  188.6180  177.4110  144.7950 C   0  0  0  0  0  0  0  0  0  0  0  0
  190.0680  177.8660  144.7370 C   0  0  2  0  0  3  0  0  0  0  0  0
  187.9740  176.9620  143.7020 C   0  0  0  0  0  3  0  0  0  0  0  0
  190.7770  177.5600  143.4090 C   0  0  0  0  0  2  0  0  0  0  0  0
  189.8290  177.7400  142.2310 C   0  0  1  0  0  3  0  0  0  0  0  0
  191.7750  176.1780  145.5400 C   0  0  0  0  0  1  0  0  0  0  0  0
  190.8940  177.3600  145.9190 C   0  0  0  0  0  2  0  0  0  0  0  0
  187.8440  177.5920  146.0650 C   0  0  0  0  0  2  0  0  0  0  0  0
  186.3520  177.5230  145.7990 C   0  0  0  0  0  2  0  0  0  0  0  0
  185.7510  178.9050  145.9390 C   0  0  0  0  0  2  0  0  0  0  0  0
  184.8620  179.1920  144.7470 C   0  0  0  0  0  1  0  0  0  0  0  0
  188.9710  178.6380  137.3480 C   0  0  0  0  0  2  0  0  0  0  0  0
  187.4720  178.7520  137.0860 C   0  0  0  0  0  2  0  0  0  0  0  0
  186.6760  178.0250  138.1560 C   0  0  0  0  0  2  0  0  0  0  0  0
  185.2430  176.9450  136.3260 C   0  0  1  0  0  3  0  0  0  0  0  0
  184.1290  178.0300  138.0900 C   0  0  0  0  0  0  0  0  0  0  0  0
  183.0350  177.6960  137.1610 C   0  0  0  0  0  3  0  0  0  0  0  0
  183.7370  176.9390  136.0310 C   0  0  0  0  0  3  0  0  0  0  0  0
  183.9280  179.0010  139.3920 S   0  0  0  0  0  0  0  0  0  0  0  0
  185.3930  177.5990  137.6150 N   0  0  0  0  0  0  0  0  0  0  0  0
  184.7660  174.6450  137.1660 C   0  0  0  0  0  1  0  0  0  0  0  0
  185.7410  175.5090  136.3920 C   0  0  0  0  0  2  0  0  0  0  0  0
  1  3  1  0  0  0  0
  2  5  1  0  0  0  0
  2  1  1  0  0  0  0
  3  4  1  0  0  0  0
  4  7  1  1  0  0  0
  5  6  1  0  0  0  0
  6 22  1  6  0  0  0
  6  4  1  0  0  0  0
  7  9  1  0  0  0  0
  8  9  2  0  0  0  0
 10 13  1  0  0  0  0
 11 18  1  0  0  0  0
 12 11  1  0  0  0  0
 12 17  1  1  0  0  0
 13 11  2  0  0  0  0
 14 12  1  0  0  0  0
 15  9  1  6  0  0  0
 15 10  1  0  0  0  0
 15 14  1  0  0  0  0
 16 17  1  0  0  0  0
 19 20  1  0  0  0  0
 19 18  1  0  0  0  0
 21 20  1  0  0  0  0
 23 22  1  0  0  0  0
 23 24  1  0  0  0  0
 25 32  1  1  0  0  0
 25 30  1  0  0  0  0
 26 29  2  0  0  0  0
 27 26  1  0  0  0  0
 28 25  1  0  0  0  0
 28 27  2  0  0  0  0
 30 26  1  0  0  0  0
 30 24  1  0  0  0  0
 32 31  1  0  0  0  0
M  END
>  <MODEL>
3

>  <REMARK>
 VINA RESULT:      -7.1      3.159      7.767
  Name = 
  11 active torsions:
  status: ('A' for Active; 'I' for Inactive)
    1  A    between atoms: C_1  and  C_20
    2  A    between atoms: C_2  and  C_12
    3  A    between atoms: C_2  and  C_20
    4  A    between atoms: N_3  and  C_15
    5  A    between atoms: C_6  and  C_16
    6  A    between atoms: C_6  and  C_26
    7  A    between atoms: C_7  and  C_31
    8  A    between atoms: C_14  and  C_28
    9  A    between atoms: C_16  and  C_27
   10  A    between atoms: C_19  and  C_24
   11  A    between atoms: C_27  and  N_32
                            x       y       z     vdW  Elec       q    Type
                         _______ _______ _______ _____ _____    ______ ____

>  <TORSDO>
F 11

$$$$
=
 OpenBabel10272413393D

 32 34  0  0  1  0  0  0  0  0999 V2000
  191.6820  175.6260  137.8130 C   0  0  0  0  0  2  0  0  0  0  0  0
  190.7360  175.6340  136.6180 C   0  0  0  0  0  2  0  0  0  0  0  0
  190.8960  175.8710  139.0960 C   0  0  0  0  0  2  0  0  0  0  0  0
  190.1790  177.2190  139.0340 C   0  0  1  0  0  3  0  0  0  0  0  0
  190.0290  176.9810  136.5180 C   0  0  0  0  0  2  0  0  0  0  0  0
  189.2570  177.2820  137.8050 C   0  0  2  0  0  3  0  0  0  0  0  0
  189.4030  177.4160  140.2510 N   0  0  0  0  0  2  0  0  0  0  0  0
  191.2700  177.7400  141.6190 O   0  0  0  0  0  0  0  0  0  0  0  0
  190.0160  177.6690  141.5190 C   0  0  0  0  0  0  0  0  0  0  0  0
  188.0500  176.8340  142.7700 C   0  0  0  0  0  2  0  0  0  0  0  0
  187.7500  177.4470  145.1730 C   0  0  0  0  0  0  0  0  0  0  0  0
  189.1760  177.9710  145.2520 C   0  0  2  0  0  3  0  0  0  0  0  0
  187.2320  176.9810  144.0220 C   0  0  0  0  0  3  0  0  0  0  0  0
  190.0180  177.7150  143.9940 C   0  0  0  0  0  2  0  0  0  0  0  0
  189.1750  177.8640  142.7350 C   0  0  1  0  0  3  0  0  0  0  0  0
  191.2270  176.8020  146.1650 C   0  0  0  0  0  1  0  0  0  0  0  0
  189.9130  177.4910  146.5020 C   0  0  0  0  0  2  0  0  0  0  0  0
  186.8550  177.5760  146.3670 C   0  0  0  0  0  2  0  0  0  0  0  0
  186.0000  178.8250  146.2640 C   0  0  0  0  0  2  0  0  0  0  0  0
  184.5820  178.4370  145.9070 C   0  0  0  0  0  2  0  0  0  0  0  0
  184.1840  179.1130  144.6110 C   0  0  0  0  0  1  0  0  0  0  0  0
  188.5100  178.6170  137.6950 C   0  0  0  0  0  2  0  0  0  0  0  0
  187.0780  178.4710  137.1900 C   0  0  0  0  0  2  0  0  0  0  0  0
  186.3630  177.3390  137.9050 C   0  0  0  0  0  2  0  0  0  0  0  0
  183.9060  177.7670  137.3160 C   0  0  1  0  0  3  0  0  0  0  0  0
  184.6630  178.4730  139.4270 C   0  0  0  0  0  0  0  0  0  0  0  0
  183.2980  179.0250  139.3620 C   0  0  0  0  0  3  0  0  0  0  0  0
  182.7700  178.5270  138.0150 C   0  0  0  0  0  3  0  0  0  0  0  0
  185.7280  178.8640  140.6080 S   0  0  0  0  0  0  0  0  0  0  0  0
  185.0110  177.7510  138.2580 N   0  0  0  0  0  0  0  0  0  0  0  0
  183.1840  175.5890  138.2950 C   0  0  0  0  0  1  0  0  0  0  0  0
  183.4410  176.3510  137.0100 C   0  0  0  0  0  2  0  0  0  0  0  0
  1  3  1  0  0  0  0
  2  1  1  0  0  0  0
  4  3  1  0  0  0  0
  4  7  1  1  0  0  0
  5  2  1  0  0  0  0
  5  6  1  0  0  0  0
  6 22  1  6  0  0  0
  6  4  1  0  0  0  0
  7  9  1  0  0  0  0
  9  8  2  0  0  0  0
 10 13  1  0  0  0  0
 11 12  1  0  0  0  0
 11 18  1  0  0  0  0
 12 17  1  1  0  0  0
 13 11  2  0  0  0  0
 14 12  1  0  0  0  0
 15  9  1  6  0  0  0
 15 10  1  0  0  0  0
 15 14  1  0  0  0  0
 16 17  1  0  0  0  0
 19 18  1  0  0  0  0
 20 19  1  0  0  0  0
 21 20  1  0  0  0  0
 23 22  1  0  0  0  0
 23 24  1  0  0  0  0
 24 30  1  0  0  0  0
 25 32  1  1  0  0  0
 25 28  1  0  0  0  0
 25 30  1  0  0  0  0
 26 29  2  0  0  0  0
 27 26  1  0  0  0  0
 28 27  2  0  0  0  0
 30 26  1  0  0  0  0
 32 31  1  0  0  0  0
M  END
>  <MODEL>
4

>  <REMARK>
 VINA RESULT:      -7.1      2.660      7.413
  Name = 
  11 active torsions:
  status: ('A' for Active; 'I' for Inactive)
    1  A    between atoms: C_1  and  C_20
    2  A    between atoms: C_2  and  C_12
    3  A    between atoms: C_2  and  C_20
    4  A    between atoms: N_3  and  C_15
    5  A    between atoms: C_6  and  C_16
    6  A    between atoms: C_6  and  C_26
    7  A    between atoms: C_7  and  C_31
    8  A    between atoms: C_14  and  C_28
    9  A    between atoms: C_16  and  C_27
   10  A    between atoms: C_19  and  C_24
   11  A    between atoms: C_27  and  N_32
                            x       y       z     vdW  Elec       q    Type
                         _______ _______ _______ _____ _____    ______ ____

>  <TORSDO>
F 11

$$$$
=
 OpenBabel10272413393D

 32 34  0  0  1  0  0  0  0  0999 V2000
  192.0680  175.3400  136.4120 C   0  0  0  0  0  2  0  0  0  0  0  0
  190.9720  175.7090  135.4190 C   0  0  0  0  0  2  0  0  0  0  0  0
  191.4930  175.2960  137.8240 C   0  0  0  0  0  2  0  0  0  0  0  0
  190.9080  176.6560  138.2050 C   0  0  1  0  0  3  0  0  0  0  0  0
  190.3920  177.0770  135.7630 C   0  0  0  0  0  2  0  0  0  0  0  0
  189.8370  177.0850  137.1890 C   0  0  2  0  0  3  0  0  0  0  0  0
  190.3300  176.5810  139.5400 N   0  0  0  0  0  2  0  0  0  0  0  0
  192.1200  177.6600  140.5860 O   0  0  0  0  0  0  0  0  0  0  0  0
  190.9960  177.1020  140.6950 C   0  0  0  0  0  0  0  0  0  0  0  0
  190.9820  178.0060  142.9990 C   0  0  0  0  0  2  0  0  0  0  0  0
  189.0150  177.6040  144.4840 C   0  0  0  0  0  0  0  0  0  0  0  0
  188.1830  177.1170  143.3070 C   0  0  2  0  0  3  0  0  0  0  0  0
  190.3060  177.9560  144.3390 C   0  0  0  0  0  3  0  0  0  0  0  0
  188.8630  177.2760  141.9400 C   0  0  0  0  0  2  0  0  0  0  0  0
  190.3580  177.0000  142.0390 C   0  0  1  0  0  3  0  0  0  0  0  0
  186.5000  178.4780  141.9960 C   0  0  0  0  0  1  0  0  0  0  0  0
  186.7790  177.7200  143.2860 C   0  0  0  0  0  2  0  0  0  0  0  0
  188.4280  177.5650  145.8620 C   0  0  0  0  0  2  0  0  0  0  0  0
  189.5130  177.3530  146.9020 C   0  0  0  0  0  2  0  0  0  0  0  0
  189.0600  177.9290  148.2260 C   0  0  0  0  0  2  0  0  0  0  0  0
  187.5950  178.3020  148.1410 C   0  0  0  0  0  1  0  0  0  0  0  0
  189.2150  178.4450  137.5270 C   0  0  0  0  0  2  0  0  0  0  0  0
  187.7350  178.5420  137.1650 C   0  0  0  0  0  2  0  0  0  0  0  0
  186.9190  177.5250  137.9430 C   0  0  0  0  0  2  0  0  0  0  0  0
  185.8000  176.6710  135.8010 C   0  0  1  0  0  3  0  0  0  0  0  0
  184.4070  177.4660  137.5200 C   0  0  0  0  0  0  0  0  0  0  0  0
  183.4660  177.2340  136.4090 C   0  0  0  0  0  3  0  0  0  0  0  0
  184.3500  176.6640  135.2980 C   0  0  0  0  0  3  0  0  0  0  0  0
  183.9840  178.2390  138.8990 S   0  0  0  0  0  0  0  0  0  0  0  0
  185.7420  177.1420  137.1740 N   0  0  0  0  0  0  0  0  0  0  0  0
  187.3820  175.1350  134.6350 C   0  0  0  0  0  1  0  0  0  0  0  0
  186.3540  175.2560  135.7420 C   0  0  0  0  0  2  0  0  0  0  0  0
  1  3  1  0  0  0  0
  2  5  1  0  0  0  0
  2  1  1  0  0  0  0
  3  4  1  0  0  0  0
  4  7  1  1  0  0  0
  5  6  1  0  0  0  0
  6 22  1  1  0  0  0
  6  4  1  0  0  0  0
  7  9  1  0  0  0  0
  8  9  2  0  0  0  0
 10 13  1  0  0  0  0
 11 18  1  0  0  0  0
 12 17  1  6  0  0  0
 12 11  1  0  0  0  0
 13 11  2  0  0  0  0
 14 15  1  0  0  0  0
 14 12  1  0  0  0  0
 15  9  1  6  0  0  0
 15 10  1  0  0  0  0
 16 17  1  0  0  0  0
 18 19  1  0  0  0  0
 19 20  1  0  0  0  0
 21 20  1  0  0  0  0
 23 22  1  0  0  0  0
 23 24  1  0  0  0  0
 25 32  1  1  0  0  0
 25 30  1  0  0  0  0
 26 29  2  0  0  0  0
 27 26  1  0  0  0  0
 28 25  1  0  0  0  0
 28 27  2  0  0  0  0
 30 26  1  0  0  0  0
 30 24  1  0  0  0  0
 31 32  1  0  0  0  0
M  END
>  <MODEL>
5

>  <REMARK>
 VINA RESULT:      -7.0      3.419      8.061
  Name = 
  11 active torsions:
  status: ('A' for Active; 'I' for Inactive)
    1  A    between atoms: C_1  and  C_20
    2  A    between atoms: C_2  and  C_12
    3  A    between atoms: C_2  and  C_20
    4  A    between atoms: N_3  and  C_15
    5  A    between atoms: C_6  and  C_16
    6  A    between atoms: C_6  and  C_26
    7  A    between atoms: C_7  and  C_31
    8  A    between atoms: C_14  and  C_28
    9  A    between atoms: C_16  and  C_27
   10  A    between atoms: C_19  and  C_24
   11  A    between atoms: C_27  and  N_32
                            x       y       z     vdW  Elec       q    Type
                         _______ _______ _______ _____ _____    ______ ____

>  <TORSDO>
F 11

$$$$
=
 OpenBabel10272413393D

 32 34  0  0  1  0  0  0  0  0999 V2000
  188.7010  177.1870  136.6660 C   0  0  0  0  0  2  0  0  0  0  0  0
  187.3370  176.8550  136.0720 C   0  0  0  0  0  2  0  0  0  0  0  0
  188.6270  177.1420  138.1880 C   0  0  0  0  0  2  0  0  0  0  0  0
  187.5970  178.1470  138.7030 C   0  0  1  0  0  3  0  0  0  0  0  0
  186.2980  177.8630  136.5500 C   0  0  0  0  0  2  0  0  0  0  0  0
  186.2200  177.8740  138.0780 C   0  0  2  0  0  3  0  0  0  0  0  0
  187.5140  178.0590  140.1540 N   0  0  0  0  0  2  0  0  0  0  0  0
  189.8220  178.2240  140.4900 O   0  0  0  0  0  0  0  0  0  0  0  0
  188.6730  178.0990  140.9940 C   0  0  0  0  0  0  0  0  0  0  0  0
  187.7820  176.7340  142.8560 C   0  0  0  0  0  2  0  0  0  0  0  0
  188.6160  177.1030  145.1810 C   0  0  0  0  0  0  0  0  0  0  0  0
  189.7700  177.9520  144.6690 C   0  0  2  0  0  3  0  0  0  0  0  0
  187.6870  176.5990  144.3490 C   0  0  0  0  0  3  0  0  0  0  0  0
  189.9020  177.9890  143.1400 C   0  0  0  0  0  2  0  0  0  0  0  0
  188.5310  178.0070  142.4750 C   0  0  1  0  0  3  0  0  0  0  0  0
  191.6300  176.2440  144.8350 C   0  0  0  0  0  1  0  0  0  0  0  0
  191.1040  177.5880  145.3180 C   0  0  0  0  0  2  0  0  0  0  0  0
  188.4300  176.9350  146.6580 C   0  0  0  0  0  2  0  0  0  0  0  0
  187.5140  178.0120  147.2100 C   0  0  0  0  0  2  0  0  0  0  0  0
  187.9870  178.4190  148.5880 C   0  0  0  0  0  2  0  0  0  0  0  0
  189.5010  178.4270  148.6210 C   0  0  0  0  0  1  0  0  0  0  0  0
  185.1470  178.8570  138.5640 C   0  0  0  0  0  2  0  0  0  0  0  0
  183.7230  178.3380  138.3850 C   0  0  0  0  0  2  0  0  0  0  0  0
  183.3460  177.3900  139.5100 C   0  0  0  0  0  2  0  0  0  0  0  0
  183.3980  178.1200  141.9660 C   0  0  1  0  0  3  0  0  0  0  0  0
  181.5250  178.7300  140.6850 C   0  0  0  0  0  0  0  0  0  0  0  0
  181.1450  179.1450  142.0470 C   0  0  0  0  0  3  0  0  0  0  0  0
  182.3780  178.8040  142.8860 C   0  0  0  0  0  3  0  0  0  0  0  0
  180.4730  178.7250  139.4290 S   0  0  0  0  0  0  0  0  0  0  0  0
  182.8140  178.1460  140.6360 N   0  0  0  0  0  0  0  0  0  0  0  0
  185.1040  179.2080  143.4260 C   0  0  0  0  0  1  0  0  0  0  0  0
  184.7000  178.9070  141.9960 C   0  0  0  0  0  2  0  0  0  0  0  0
  1  3  1  0  0  0  0
  2  5  1  0  0  0  0
  2  1  1  0  0  0  0
  3  4  1  0  0  0  0
  4  7  1  1  0  0  0
  5  6  1  0  0  0  0
  6 22  1  6  0  0  0
  6  4  1  0  0  0  0
  7  9  1  0  0  0  0
  8  9  2  0  0  0  0
 10 13  1  0  0  0  0
 11 18  1  0  0  0  0
 12 11  1  0  0  0  0
 12 17  1  1  0  0  0
 13 11  2  0  0  0  0
 14 12  1  0  0  0  0
 15  9  1  6  0  0  0
 15 10  1  0  0  0  0
 15 14  1  0  0  0  0
 16 17  1  0  0  0  0
 18 19  1  0  0  0  0
 19 20  1  0  0  0  0
 20 21  1  0  0  0  0
 23 22  1  0  0  0  0
 23 24  1  0  0  0  0
 24 30  1  0  0  0  0
 25 32  1  6  0  0  0
 25 28  1  0  0  0  0
 26 27  1  0  0  0  0
 27 28  2  0  0  0  0
 29 26  2  0  0  0  0
 30 26  1  0  0  0  0
 30 25  1  0  0  0  0
 32 31  1  0  0  0  0
M  END
>  <MODEL>
6

>  <REMARK>
 VINA RESULT:      -6.8      3.192      8.593
  Name = 
  11 active torsions:
  status: ('A' for Active; 'I' for Inactive)
    1  A    between atoms: C_1  and  C_20
    2  A    between atoms: C_2  and  C_12
    3  A    between atoms: C_2  and  C_20
    4  A    between atoms: N_3  and  C_15
    5  A    between atoms: C_6  and  C_16
    6  A    between atoms: C_6  and  C_26
    7  A    between atoms: C_7  and  C_31
    8  A    between atoms: C_14  and  C_28
    9  A    between atoms: C_16  and  C_27
   10  A    between atoms: C_19  and  C_24
   11  A    between atoms: C_27  and  N_32
                            x       y       z     vdW  Elec       q    Type
                         _______ _______ _______ _____ _____    ______ ____

>  <TORSDO>
F 11

$$$$
=
 OpenBabel10272413393D

 32 34  0  0  1  0  0  0  0  0999 V2000
  180.5840  179.4390  139.7220 C   0  0  0  0  0  2  0  0  0  0  0  0
  181.2680  180.1720  138.5740 C   0  0  0  0  0  2  0  0  0  0  0  0
  181.6310  178.9190  140.7000 C   0  0  0  0  0  2  0  0  0  0  0  0
  182.5920  177.9610  139.9960 C   0  0  1  0  0  3  0  0  0  0  0  0
  182.2110  179.2270  137.8370 C   0  0  0  0  0  2  0  0  0  0  0  0
  183.2570  178.6530  138.7950 C   0  0  2  0  0  3  0  0  0  0  0  0
  183.6060  177.5080  140.9370 N   0  0  0  0  0  2  0  0  0  0  0  0
  184.6700  179.5840  141.0880 O   0  0  0  0  0  0  0  0  0  0  0  0
  184.6270  178.3750  141.4430 C   0  0  0  0  0  0  0  0  0  0  0  0
  187.0330  178.3510  142.0230 C   0  0  0  0  0  2  0  0  0  0  0  0
  187.7550  177.6700  144.3150 C   0  0  0  0  0  0  0  0  0  0  0  0
  186.3260  177.7610  144.8290 C   0  0  2  0  0  3  0  0  0  0  0  0
  188.0550  177.8890  143.0210 C   0  0  0  0  0  3  0  0  0  0  0  0
  185.3220  178.3330  143.8180 C   0  0  0  0  0  2  0  0  0  0  0  0
  185.6410  177.8590  142.4060 C   0  0  1  0  0  3  0  0  0  0  0  0
  184.7930  178.5700  146.6730 C   0  0  0  0  0  1  0  0  0  0  0  0
  186.2260  178.4960  146.1650 C   0  0  0  0  0  2  0  0  0  0  0  0
  188.8360  177.1920  145.2360 C   0  0  0  0  0  2  0  0  0  0  0  0
  190.0900  176.8440  144.4570 C   0  0  0  0  0  2  0  0  0  0  0  0
  191.2440  177.6870  144.9550 C   0  0  0  0  0  2  0  0  0  0  0  0
  191.3920  178.9110  144.0760 C   0  0  0  0  0  1  0  0  0  0  0  0
  184.2340  177.7340  138.0510 C   0  0  0  0  0  2  0  0  0  0  0  0
  185.6810  178.2160  138.1040 C   0  0  0  0  0  2  0  0  0  0  0  0
  186.4370  177.8030  136.8540 C   0  0  0  0  0  2  0  0  0  0  0  0
  188.9390  177.5860  137.3630 C   0  0  1  0  0  3  0  0  0  0  0  0
  187.6870  175.6060  137.1760 C   0  0  0  0  0  0  0  0  0  0  0  0
  189.0720  175.1140  137.2880 C   0  0  0  0  0  3  0  0  0  0  0  0
  189.8960  176.3910  137.4660 C   0  0  0  0  0  3  0  0  0  0  0  0
  186.4240  174.6350  136.7960 S   0  0  0  0  0  0  0  0  0  0  0  0
  187.6090  177.0200  137.2210 N   0  0  0  0  0  0  0  0  0  0  0  0
  189.8220  177.6620  139.6950 C   0  0  0  0  0  1  0  0  0  0  0  0
  189.0380  178.4120  138.6360 C   0  0  0  0  0  2  0  0  0  0  0  0
  1  3  1  0  0  0  0
  2  1  1  0  0  0  0
  4  3  1  0  0  0  0
  4  7  1  1  0  0  0
  5  2  1  0  0  0  0
  5  6  1  0  0  0  0
  6 22  1  6  0  0  0
  6  4  1  0  0  0  0
  7  9  1  0  0  0  0
  8  9  2  0  0  0  0
 10 15  1  0  0  0  0
 10 13  1  0  0  0  0
 11 12  1  0  0  0  0
 11 18  1  0  0  0  0
 12 17  1  1  0  0  0
 13 11  2  0  0  0  0
 14 12  1  0  0  0  0
 15  9  1  6  0  0  0
 15 14  1  0  0  0  0
 17 16  1  0  0  0  0
 19 20  1  0  0  0  0
 19 18  1  0  0  0  0
 21 20  1  0  0  0  0
 22 23  1  0  0  0  0
 24 30  1  0  0  0  0
 24 23  1  0  0  0  0
 25 28  1  0  0  0  0
 25 32  1  1  0  0  0
 26 30  1  0  0  0  0
 26 27  1  0  0  0  0
 27 28  2  0  0  0  0
 29 26  2  0  0  0  0
 30 25  1  0  0  0  0
 32 31  1  0  0  0  0
M  END
>  <MODEL>
7

>  <REMARK>
 VINA RESULT:      -6.8      2.497      7.211
  Name = 
  11 active torsions:
  status: ('A' for Active; 'I' for Inactive)
    1  A    between atoms: C_1  and  C_20
    2  A    between atoms: C_2  and  C_12
    3  A    between atoms: C_2  and  C_20
    4  A    between atoms: N_3  and  C_15
    5  A    between atoms: C_6  and  C_16
    6  A    between atoms: C_6  and  C_26
    7  A    between atoms: C_7  and  C_31
    8  A    between atoms: C_14  and  C_28
    9  A    between atoms: C_16  and  C_27
   10  A    between atoms: C_19  and  C_24
   11  A    between atoms: C_27  and  N_32
                            x       y       z     vdW  Elec       q    Type
                         _______ _______ _______ _____ _____    ______ ____

>  <TORSDO>
F 11

$$$$
=
 OpenBabel10272413393D

 32 34  0  0  1  0  0  0  0  0999 V2000
  190.5040  177.0560  147.2660 C   0  0  0  0  0  2  0  0  0  0  0  0
  191.5260  176.5520  146.2530 C   0  0  0  0  0  2  0  0  0  0  0  0
  189.1050  176.9980  146.6610 C   0  0  0  0  0  2  0  0  0  0  0  0
  189.0320  177.8610  145.4020 C   0  0  1  0  0  3  0  0  0  0  0  0
  191.4910  177.4170  144.9990 C   0  0  0  0  0  2  0  0  0  0  0  0
  190.0910  177.4150  144.3810 C   0  0  2  0  0  3  0  0  0  0  0  0
  187.7010  177.7610  144.8180 N   0  0  0  0  0  2  0  0  0  0  0  0
  186.6120  178.7080  146.6570 O   0  0  0  0  0  0  0  0  0  0  0  0
  186.5260  178.2010  145.5070 C   0  0  0  0  0  0  0  0  0  0  0  0
  184.2040  179.0590  145.4890 C   0  0  0  0  0  2  0  0  0  0  0  0
  182.7360  178.6400  143.5130 C   0  0  0  0  0  0  0  0  0  0  0  0
  183.9260  178.1810  142.6830 C   0  0  2  0  0  3  0  0  0  0  0  0
  182.8680  178.9860  144.8060 C   0  0  0  0  0  3  0  0  0  0  0  0
  185.2870  178.3630  143.3700 C   0  0  0  0  0  2  0  0  0  0  0  0
  185.1870  178.0760  144.8630 C   0  0  1  0  0  3  0  0  0  0  0  0
  183.0290  178.0470  140.3200 C   0  0  0  0  0  1  0  0  0  0  0  0
  183.9410  178.7940  141.2830 C   0  0  0  0  0  2  0  0  0  0  0  0
  181.3620  178.5760  142.9190 C   0  0  0  0  0  2  0  0  0  0  0  0
  180.6240  179.8840  143.1330 C   0  0  0  0  0  2  0  0  0  0  0  0
  179.9820  180.3190  141.8330 C   0  0  0  0  0  2  0  0  0  0  0  0
  179.9950  179.1660  140.8530 C   0  0  0  0  0  1  0  0  0  0  0  0
  190.0590  178.2510  143.0950 C   0  0  0  0  0  2  0  0  0  0  0  0
  190.8580  177.6340  141.9500 C   0  0  0  0  0  2  0  0  0  0  0  0
  190.0400  176.5820  141.2220 C   0  0  0  0  0  2  0  0  0  0  0  0
  190.7390  176.7810  138.7650 C   0  0  1  0  0  3  0  0  0  0  0  0
  188.8110  177.9400  139.4500 C   0  0  0  0  0  0  0  0  0  0  0  0
  189.0090  178.4120  138.0680 C   0  0  0  0  0  3  0  0  0  0  0  0
  190.2300  177.6240  137.5880 C   0  0  0  0  0  3  0  0  0  0  0  0
  187.7230  178.6100  140.4740 S   0  0  0  0  0  0  0  0  0  0  0  0
  189.7990  177.0050  139.8500 N   0  0  0  0  0  0  0  0  0  0  0  0
  191.6240  175.1110  137.1370 C   0  0  0  0  0  1  0  0  0  0  0  0
  190.7490  175.3150  138.3580 C   0  0  0  0  0  2  0  0  0  0  0  0
  2  1  1  0  0  0  0
  3  1  1  0  0  0  0
  4  7  1  6  0  0  0
  4  3  1  0  0  0  0
  5  2  1  0  0  0  0
  6 22  1  6  0  0  0
  6  5  1  0  0  0  0
  6  4  1  0  0  0  0
  7  9  1  0  0  0  0
  9  8  2  0  0  0  0
 11 13  2  0  0  0  0
 12 17  1  6  0  0  0
 12 14  1  0  0  0  0
 12 11  1  0  0  0  0
 13 10  1  0  0  0  0
 14 15  1  0  0  0  0
 15 10  1  0  0  0  0
 15  9  1  1  0  0  0
 16 17  1  0  0  0  0
 18 19  1  0  0  0  0
 18 11  1  0  0  0  0
 20 19  1  0  0  0  0
 21 20  1  0  0  0  0
 23 22  1  0  0  0  0
 24 23  1  0  0  0  0
 25 32  1  6  0  0  0
 25 30  1  0  0  0  0
 26 30  1  0  0  0  0
 26 29  2  0  0  0  0
 27 26  1  0  0  0  0
 28 27  2  0  0  0  0
 28 25  1  0  0  0  0
 30 24  1  0  0  0  0
 31 32  1  0  0  0  0
M  END
>  <MODEL>
8

>  <REMARK>
 VINA RESULT:      -6.7      1.764      2.564
  Name = 
  11 active torsions:
  status: ('A' for Active; 'I' for Inactive)
    1  A    between atoms: C_1  and  C_20
    2  A    between atoms: C_2  and  C_12
    3  A    between atoms: C_2  and  C_20
    4  A    between atoms: N_3  and  C_15
    5  A    between atoms: C_6  and  C_16
    6  A    between atoms: C_6  and  C_26
    7  A    between atoms: C_7  and  C_31
    8  A    between atoms: C_14  and  C_28
    9  A    between atoms: C_16  and  C_27
   10  A    between atoms: C_19  and  C_24
   11  A    between atoms: C_27  and  N_32
                            x       y       z     vdW  Elec       q    Type
                         _______ _______ _______ _____ _____    ______ ____

>  <TORSDO>
F 11

$$$$
=
 OpenBabel10272413393D

 32 34  0  0  1  0  0  0  0  0999 V2000
  180.7190  179.1310  141.6200 C   0  0  0  0  0  2  0  0  0  0  0  0
  180.8200  179.6360  140.1850 C   0  0  0  0  0  2  0  0  0  0  0  0
  182.1050  179.1010  142.2560 C   0  0  0  0  0  2  0  0  0  0  0  0
  183.0360  178.1830  141.4650 C   0  0  1  0  0  3  0  0  0  0  0  0
  181.7220  178.7180  139.3680 C   0  0  0  0  0  2  0  0  0  0  0  0
  183.1150  178.6320  139.9960 C   0  0  2  0  0  3  0  0  0  0  0  0
  184.3630  178.2000  142.0650 N   0  0  0  0  0  2  0  0  0  0  0  0
  183.5850  178.5510  144.2420 O   0  0  0  0  0  0  0  0  0  0  0  0
  184.5680  178.3950  143.4680 C   0  0  0  0  0  0  0  0  0  0  0  0
  185.9170  178.0500  145.5140 C   0  0  0  0  0  2  0  0  0  0  0  0
  188.3780  177.6590  145.3330 C   0  0  0  0  0  0  0  0  0  0  0  0
  188.2650  177.4300  143.8330 C   0  0  2  0  0  3  0  0  0  0  0  0
  187.3090  177.9940  146.0780 C   0  0  0  0  0  3  0  0  0  0  0  0
  186.8250  177.3920  143.3030 C   0  0  0  0  0  2  0  0  0  0  0  0
  185.9490  178.4030  144.0310 C   0  0  1  0  0  3  0  0  0  0  0  0
  190.4350  176.5700  142.8550 C   0  0  0  0  0  1  0  0  0  0  0  0
  189.0470  176.2050  143.3630 C   0  0  0  0  0  2  0  0  0  0  0  0
  189.7310  177.6460  145.9760 C   0  0  0  0  0  2  0  0  0  0  0  0
  189.7720  176.6500  147.1200 C   0  0  0  0  0  2  0  0  0  0  0  0
  191.2110  176.3010  147.4320 C   0  0  0  0  0  2  0  0  0  0  0  0
  191.9840  176.1400  146.1400 C   0  0  0  0  0  1  0  0  0  0  0  0
  184.0400  177.7420  139.1570 C   0  0  0  0  0  2  0  0  0  0  0  0
  185.3650  178.4100  138.8010 C   0  0  0  0  0  2  0  0  0  0  0  0
  185.7890  178.0570  137.3860 C   0  0  0  0  0  2  0  0  0  0  0  0
  188.3380  177.7950  137.3570 C   0  0  1  0  0  3  0  0  0  0  0  0
  187.0370  175.8430  137.2000 C   0  0  0  0  0  0  0  0  0  0  0  0
  188.4070  175.3480  136.9760 C   0  0  0  0  0  3  0  0  0  0  0  0
  189.2730  176.5990  137.1300 C   0  0  0  0  0  3  0  0  0  0  0  0
  185.7060  174.9170  136.9720 S   0  0  0  0  0  0  0  0  0  0  0  0
  186.9960  177.2420  137.4200 N   0  0  0  0  0  0  0  0  0  0  0  0
  189.4270  177.4960  139.5810 C   0  0  0  0  0  1  0  0  0  0  0  0
  188.7030  178.4680  138.6710 C   0  0  0  0  0  2  0  0  0  0  0  0
  1  3  1  0  0  0  0
  2  1  1  0  0  0  0
  4  7  1  1  0  0  0
  4  3  1  0  0  0  0
  5  6  1  0  0  0  0
  5  2  1  0  0  0  0
  6 22  1  6  0  0  0
  6  4  1  0  0  0  0
  7  9  1  0  0  0  0
  9  8  2  0  0  0  0
 10 13  1  0  0  0  0
 11 18  1  0  0  0  0
 11 13  2  0  0  0  0
 12 17  1  1  0  0  0
 12 11  1  0  0  0  0
 14 12  1  0  0  0  0
 14 15  1  0  0  0  0
 15  9  1  6  0  0  0
 15 10  1  0  0  0  0
 16 17  1  0  0  0  0
 18 19  1  0  0  0  0
 19 20  1  0  0  0  0
 21 20  1  0  0  0  0
 23 22  1  0  0  0  0
 24 30  1  0  0  0  0
 24 23  1  0  0  0  0
 25 30  1  0  0  0  0
 25 32  1  1  0  0  0
 26 30  1  0  0  0  0
 27 28  2  0  0  0  0
 27 26  1  0  0  0  0
 28 25  1  0  0  0  0
 29 26  2  0  0  0  0
 32 31  1  0  0  0  0
M  END
>  <MODEL>
9

>  <REMARK>
 VINA RESULT:      -6.7      2.288      7.204
  Name = 
  11 active torsions:
  status: ('A' for Active; 'I' for Inactive)
    1  A    between atoms: C_1  and  C_20
    2  A    between atoms: C_2  and  C_12
    3  A    between atoms: C_2  and  C_20
    4  A    between atoms: N_3  and  C_15
    5  A    between atoms: C_6  and  C_16
    6  A    between atoms: C_6  and  C_26
    7  A    between atoms: C_7  and  C_31
    8  A    between atoms: C_14  and  C_28
    9  A    between atoms: C_16  and  C_27
   10  A    between atoms: C_19  and  C_24
   11  A    between atoms: C_27  and  N_32
                            x       y       z     vdW  Elec       q    Type
                         _______ _______ _______ _____ _____    ______ ____

>  <TORSDO>
F 11

$$$$
