=
 OpenBabel10272413563D

 30 33  0  0  1  0  0  0  0  0999 V2000
  186.4620  177.0460  144.4640 C   0  0  0  0  0  2  0  0  0  0  0  0
  186.7860  177.8790  146.8320 C   0  0  0  0  0  0  0  0  0  0  0  0
  190.6910  177.3270  143.7300 C   0  0  0  0  0  3  0  0  0  0  0  0
  186.9240  177.2760  143.0140 C   0  0  2  0  0  3  0  0  0  0  0  0
  191.2030  177.2140  142.4350 C   0  0  0  0  0  3  0  0  0  0  0  0
  187.6140  177.9630  147.8880 C   0  0  0  0  0  3  0  0  0  0  0  0
  185.0670  178.1250  147.1080 Cl  0  0  0  0  0  0  0  0  0  0  0  0
  189.3060  177.3670  143.9500 C   0  0  0  0  0  0  0  0  0  0  0  0
  189.1130  177.8210  147.7660 C   0  0  0  0  0  2  0  0  0  0  0  0
  187.3290  177.8530  145.4220 C   0  0  1  0  0  3  0  0  0  0  0  0
  188.4270  177.2470  142.8450 C   0  0  0  0  0  0  0  0  0  0  0  0
  190.3350  177.1110  141.3480 C   0  0  0  0  0  3  0  0  0  0  0  0
  188.9540  177.1230  141.5540 C   0  0  0  0  0  3  0  0  0  0  0  0
  189.6090  178.1360  146.3550 C   0  0  0  0  0  2  0  0  0  0  0  0
  188.7680  177.3410  145.3610 C   0  0  2  0  0  3  0  0  0  0  0  0
  186.2860  178.5060  142.3380 C   0  0  2  0  0  3  0  0  0  0  0  0
  182.9310  179.6460  143.7740 C   0  0  0  0  0  3  0  0  0  0  0  0
  185.2260  180.2920  144.4590 C   0  0  0  0  0  1  0  0  0  0  0  0
  184.7980  178.6830  142.5490 C   0  0  0  0  0  0  0  0  0  0  0  0
  183.8810  178.0000  141.7320 C   0  0  0  0  0  3  0  0  0  0  0  0
  184.3090  179.5170  143.5760 C   0  0  0  0  0  0  0  0  0  0  0  0
  182.0320  178.9560  142.9590 C   0  0  0  0  0  3  0  0  0  0  0  0
  182.5070  178.1340  141.9360 C   0  0  0  0  0  3  0  0  0  0  0  0
  186.7360  178.7040  140.9170 C   0  0  0  0  0  3  0  0  0  0  0  0
  185.9950  178.3230  139.8720 C   0  0  0  0  0  3  0  0  0  0  0  0
  186.4790  178.5360  138.4790 C   0  0  0  0  0  2  0  0  0  0  0  0
  187.6530  177.7120  138.2290 N   0  0  0  0  0  2  0  0  0  0  0  0
  189.0320  179.5240  137.7100 O   0  0  0  0  0  0  0  0  0  0  0  0
  188.9060  178.2780  137.8460 C   0  0  0  0  0  0  0  0  0  0  0  0
  190.0700  177.3900  137.6040 C   0  0  0  0  0  1  0  0  0  0  0  0
  2  7  1  0  0  0  0
  2  6  2  0  0  0  0
  3  8  1  0  0  0  0
  4 16  1  1  0  0  0
  4  1  1  0  0  0  0
  5  3  2  0  0  0  0
  8 15  1  0  0  0  0
  9  6  1  0  0  0  0
 10  1  1  6  0  0  0
 10  2  1  0  0  0  0
 11  4  1  0  0  0  0
 11  8  2  0  0  0  0
 12 13  2  0  0  0  0
 12  5  1  0  0  0  0
 13 11  1  0  0  0  0
 14  9  1  0  0  0  0
 15 10  1  0  0  0  0
 15 14  1  1  0  0  0
 16 24  1  6  0  0  0
 16 19  1  0  0  0  0
 19 21  2  0  0  0  0
 20 23  2  0  0  0  0
 20 19  1  0  0  0  0
 21 17  1  0  0  0  0
 21 18  1  0  0  0  0
 22 17  2  0  0  0  0
 23 22  1  0  0  0  0
 25 24  2  0  0  0  0
 26 25  1  0  0  0  0
 27 26  1  0  0  0  0
 28 29  2  0  0  0  0
 29 27  1  0  0  0  0
 30 29  1  0  0  0  0
M  END
>  <MODEL>
1

>  <REMARK>
 VINA RESULT:      -9.0      0.000      0.000
  Name = 
  5 active torsions:
  status: ('A' for Active; 'I' for Inactive)
    1  A    between atoms: C_4  and  C_13
    2  A    between atoms: N_7  and  C_16
    3  A    between atoms: C_8  and  C_13
    4  A    between atoms: C_13  and  C_27
    5  A    between atoms: C_16  and  C_30
                            x       y       z     vdW  Elec       q    Type
                         _______ _______ _______ _____ _____    ______ ____

>  <TORSDO>
F 5

$$$$
=
 OpenBabel10272413563D

 30 33  0  0  1  0  0  0  0  0999 V2000
  186.1460  177.2260  142.6660 C   0  0  0  0  0  2  0  0  0  0  0  0
  184.0820  178.4950  141.9300 C   0  0  0  0  0  0  0  0  0  0  0  0
  185.5680  178.5350  146.7230 C   0  0  0  0  0  3  0  0  0  0  0  0
  187.3870  177.3320  143.5680 C   0  0  2  0  0  3  0  0  0  0  0  0
  186.5670  178.3560  147.6830 C   0  0  0  0  0  3  0  0  0  0  0  0
  182.8770  178.9760  142.2810 C   0  0  0  0  0  3  0  0  0  0  0  0
  184.4280  178.3000  140.2170 Cl  0  0  0  0  0  0  0  0  0  0  0  0
  185.8090  178.2280  145.3750 C   0  0  0  0  0  0  0  0  0  0  0  0
  182.4860  179.2350  143.7170 C   0  0  0  0  0  2  0  0  0  0  0  0
  185.1990  178.3870  142.9430 C   0  0  1  0  0  3  0  0  0  0  0  0
  187.0660  177.6910  145.0030 C   0  0  0  0  0  0  0  0  0  0  0  0
  187.8090  177.8400  147.3100 C   0  0  0  0  0  3  0  0  0  0  0  0
  188.0540  177.5050  145.9770 C   0  0  0  0  0  3  0  0  0  0  0  0
  183.7020  179.4360  144.6190 C   0  0  0  0  0  2  0  0  0  0  0  0
  184.6770  178.2880  144.3770 C   0  0  2  0  0  3  0  0  0  0  0  0
  188.5140  178.2100  142.9870 C   0  0  2  0  0  3  0  0  0  0  0  0
  190.0840  176.5680  139.9130 C   0  0  0  0  0  3  0  0  0  0  0  0
  190.1480  175.8350  142.2820 C   0  0  0  0  0  1  0  0  0  0  0  0
  188.9090  177.9220  141.5560 C   0  0  0  0  0  0  0  0  0  0  0  0
  188.5010  178.7820  140.5220 C   0  0  0  0  0  3  0  0  0  0  0  0
  189.7050  176.8020  141.2390 C   0  0  0  0  0  0  0  0  0  0  0  0
  189.6780  177.4350  138.8970 C   0  0  0  0  0  3  0  0  0  0  0  0
  188.8830  178.5410  139.2020 C   0  0  0  0  0  3  0  0  0  0  0  0
  189.6770  178.3830  143.9260 C   0  0  0  0  0  3  0  0  0  0  0  0
  190.9340  178.5050  143.4910 C   0  0  0  0  0  3  0  0  0  0  0  0
  192.0590  178.6730  144.4550 C   0  0  0  0  0  2  0  0  0  0  0  0
  191.6920  178.1160  145.7490 N   0  0  0  0  0  2  0  0  0  0  0  0
  192.0560  175.9030  145.0970 O   0  0  0  0  0  0  0  0  0  0  0  0
  191.7140  176.7120  146.0000 C   0  0  0  0  0  0  0  0  0  0  0  0
  191.3290  176.2000  147.3400 C   0  0  0  0  0  1  0  0  0  0  0  0
  1  4  1  0  0  0  0
  2  6  2  0  0  0  0
  2 10  1  0  0  0  0
  3  5  1  0  0  0  0
  4 16  1  6  0  0  0
  4 11  1  0  0  0  0
  6  9  1  0  0  0  0
  7  2  1  0  0  0  0
  8  3  2  0  0  0  0
  9 14  1  0  0  0  0
 10  1  1  6  0  0  0
 10 15  1  0  0  0  0
 11  8  1  0  0  0  0
 11 13  2  0  0  0  0
 12  5  2  0  0  0  0
 13 12  1  0  0  0  0
 15 14  1  1  0  0  0
 15  8  1  0  0  0  0
 16 24  1  1  0  0  0
 17 21  1  0  0  0  0
 19 16  1  0  0  0  0
 20 19  1  0  0  0  0
 21 19  2  0  0  0  0
 21 18  1  0  0  0  0
 22 23  1  0  0  0  0
 22 17  2  0  0  0  0
 23 20  2  0  0  0  0
 25 24  2  0  0  0  0
 25 26  1  0  0  0  0
 26 27  1  0  0  0  0
 27 29  1  0  0  0  0
 28 29  2  0  0  0  0
 29 30  1  0  0  0  0
M  END
>  <MODEL>
2

>  <REMARK>
 VINA RESULT:      -8.6      2.869      6.397
  Name = 
  5 active torsions:
  status: ('A' for Active; 'I' for Inactive)
    1  A    between atoms: C_4  and  C_13
    2  A    between atoms: N_7  and  C_16
    3  A    between atoms: C_8  and  C_13
    4  A    between atoms: C_13  and  C_27
    5  A    between atoms: C_16  and  C_30
                            x       y       z     vdW  Elec       q    Type
                         _______ _______ _______ _____ _____    ______ ____

>  <TORSDO>
F 5

$$$$
=
 OpenBabel10272413563D

 30 33  0  0  1  0  0  0  0  0999 V2000
  186.6600  176.9720  145.0920 C   0  0  0  0  0  2  0  0  0  0  0  0
  186.9470  178.1000  147.3400 C   0  0  0  0  0  0  0  0  0  0  0  0
  190.9270  176.7790  144.5860 C   0  0  0  0  0  3  0  0  0  0  0  0
  187.2100  176.9530  143.6560 C   0  0  2  0  0  3  0  0  0  0  0  0
  191.4880  176.4410  143.3510 C   0  0  0  0  0  3  0  0  0  0  0  0
  187.7270  178.2610  148.4230 C   0  0  0  0  0  3  0  0  0  0  0  0
  185.2470  178.5300  147.4740 Cl  0  0  0  0  0  0  0  0  0  0  0  0
  189.5430  176.9700  144.7130 C   0  0  0  0  0  0  0  0  0  0  0  0
  189.2100  177.9750  148.4130 C   0  0  0  0  0  2  0  0  0  0  0  0
  187.5520  177.8280  145.9820 C   0  0  1  0  0  3  0  0  0  0  0  0
  188.7110  176.7710  143.5840 C   0  0  0  0  0  0  0  0  0  0  0  0
  190.6670  176.2600  142.2380 C   0  0  0  0  0  3  0  0  0  0  0  0
  189.2850  176.4200  142.3560 C   0  0  0  0  0  3  0  0  0  0  0  0
  189.8010  178.0420  147.0050 C   0  0  0  0  0  2  0  0  0  0  0  0
  188.9380  177.1900  146.0790 C   0  0  2  0  0  3  0  0  0  0  0  0
  186.7240  178.1260  142.7810 C   0  0  2  0  0  3  0  0  0  0  0  0
  183.0280  178.7310  142.0130 C   0  0  0  0  0  3  0  0  0  0  0  0
  184.7860  177.7460  140.5650 C   0  0  0  0  0  1  0  0  0  0  0  0
  185.2680  178.5090  142.9330 C   0  0  0  0  0  0  0  0  0  0  0  0
  184.8020  179.0540  144.1410 C   0  0  0  0  0  3  0  0  0  0  0  0
  184.3640  178.3440  141.8630 C   0  0  0  0  0  0  0  0  0  0  0  0
  182.5800  179.2770  143.2170 C   0  0  0  0  0  3  0  0  0  0  0  0
  183.4670  179.4360  144.2820 C   0  0  0  0  0  3  0  0  0  0  0  0
  187.1930  178.0380  141.3540 C   0  0  0  0  0  3  0  0  0  0  0  0
  188.2010  178.7790  140.8860 C   0  0  0  0  0  3  0  0  0  0  0  0
  188.6340  178.6630  139.4640 C   0  0  0  0  0  2  0  0  0  0  0  0
  187.8220  177.6690  138.7770 N   0  0  0  0  0  2  0  0  0  0  0  0
  187.1730  179.1230  137.0680 O   0  0  0  0  0  0  0  0  0  0  0  0
  187.1140  177.9720  137.5760 C   0  0  0  0  0  0  0  0  0  0  0  0
  186.3010  176.9180  136.9170 C   0  0  0  0  0  1  0  0  0  0  0  0
  2  7  1  0  0  0  0
  2  6  2  0  0  0  0
  3  8  1  0  0  0  0
  4 16  1  1  0  0  0
  4  1  1  0  0  0  0
  5  3  2  0  0  0  0
  8 15  1  0  0  0  0
  9  6  1  0  0  0  0
 10  1  1  6  0  0  0
 10 15  1  0  0  0  0
 10  2  1  0  0  0  0
 11  4  1  0  0  0  0
 11  8  2  0  0  0  0
 12 13  2  0  0  0  0
 12  5  1  0  0  0  0
 13 11  1  0  0  0  0
 14  9  1  0  0  0  0
 15 14  1  1  0  0  0
 16 24  1  6  0  0  0
 16 19  1  0  0  0  0
 17 22  1  0  0  0  0
 18 21  1  0  0  0  0
 19 20  2  0  0  0  0
 20 23  1  0  0  0  0
 21 17  2  0  0  0  0
 21 19  1  0  0  0  0
 22 23  2  0  0  0  0
 25 24  2  0  0  0  0
 26 25  1  0  0  0  0
 27 26  1  0  0  0  0
 28 29  2  0  0  0  0
 29 27  1  0  0  0  0
 30 29  1  0  0  0  0
M  END
>  <MODEL>
3

>  <REMARK>
 VINA RESULT:      -8.4      1.086      1.767
  Name = 
  5 active torsions:
  status: ('A' for Active; 'I' for Inactive)
    1  A    between atoms: C_4  and  C_13
    2  A    between atoms: N_7  and  C_16
    3  A    between atoms: C_8  and  C_13
    4  A    between atoms: C_13  and  C_27
    5  A    between atoms: C_16  and  C_30
                            x       y       z     vdW  Elec       q    Type
                         _______ _______ _______ _____ _____    ______ ____

>  <TORSDO>
F 5

$$$$
=
 OpenBabel10272413563D

 30 33  0  0  1  0  0  0  0  0999 V2000
  186.6220  179.3470  142.1990 C   0  0  0  0  0  2  0  0  0  0  0  0
  184.4190  178.9950  143.3960 C   0  0  0  0  0  0  0  0  0  0  0  0
  184.8660  178.0730  138.4840 C   0  0  0  0  0  3  0  0  0  0  0  0
  187.5520  178.7240  141.1440 C   0  0  2  0  0  3  0  0  0  0  0  0
  185.6650  177.8000  137.3710 C   0  0  0  0  0  3  0  0  0  0  0  0
  183.0790  178.9750  143.2960 C   0  0  0  0  0  3  0  0  0  0  0  0
  185.1270  179.1640  144.9970 Cl  0  0  0  0  0  0  0  0  0  0  0  0
  185.4490  178.3600  139.7280 C   0  0  0  0  0  0  0  0  0  0  0  0
  182.3590  178.7830  141.9820 C   0  0  0  0  0  2  0  0  0  0  0  0
  185.2900  178.6080  142.2230 C   0  0  1  0  0  3  0  0  0  0  0  0
  186.8610  178.4130  139.8340 C   0  0  0  0  0  0  0  0  0  0  0  0
  187.0550  177.8400  137.4820 C   0  0  0  0  0  3  0  0  0  0  0  0
  187.6490  178.1500  138.7070 C   0  0  0  0  0  3  0  0  0  0  0  0
  183.2320  178.0810  140.9430 C   0  0  0  0  0  2  0  0  0  0  0  0
  184.5790  178.7960  140.8820 C   0  0  2  0  0  3  0  0  0  0  0  0
  188.3800  177.5310  141.6620 C   0  0  2  0  0  3  0  0  0  0  0  0
  188.9140  177.2890  145.4390 C   0  0  0  0  0  3  0  0  0  0  0  0
  187.1250  176.2840  144.0440 C   0  0  0  0  0  1  0  0  0  0  0  0
  188.9810  177.6890  143.0410 C   0  0  0  0  0  0  0  0  0  0  0  0
  190.1590  178.4330  143.2200 C   0  0  0  0  0  3  0  0  0  0  0  0
  188.3600  177.1090  144.1680 C   0  0  0  0  0  0  0  0  0  0  0  0
  190.0810  178.0370  145.6030 C   0  0  0  0  0  3  0  0  0  0  0  0
  190.7050  178.6070  144.4930 C   0  0  0  0  0  3  0  0  0  0  0  0
  189.3290  176.9750  140.6350 C   0  0  0  0  0  3  0  0  0  0  0  0
  190.5430  177.4930  140.4290 C   0  0  0  0  0  3  0  0  0  0  0  0
  191.4520  176.9130  139.3990 C   0  0  0  0  0  2  0  0  0  0  0  0
  190.8560  175.7140  138.8290 N   0  0  0  0  0  2  0  0  0  0  0  0
  190.3940  176.7110  136.7680 O   0  0  0  0  0  0  0  0  0  0  0  0
  190.3440  175.6850  137.4970 C   0  0  0  0  0  0  0  0  0  0  0  0
  189.7470  174.4340  136.9670 C   0  0  0  0  0  1  0  0  0  0  0  0
  2  7  1  0  0  0  0
  3  8  1  0  0  0  0
  4 16  1  1  0  0  0
  4  1  1  0  0  0  0
  5 12  1  0  0  0  0
  5  3  2  0  0  0  0
  6  2  2  0  0  0  0
  8 11  2  0  0  0  0
  8 15  1  0  0  0  0
  9  6  1  0  0  0  0
 10  1  1  6  0  0  0
 10  2  1  0  0  0  0
 11  4  1  0  0  0  0
 12 13  2  0  0  0  0
 13 11  1  0  0  0  0
 14  9  1  0  0  0  0
 15 14  1  1  0  0  0
 15 10  1  0  0  0  0
 16 24  1  6  0  0  0
 16 19  1  0  0  0  0
 17 22  1  0  0  0  0
 18 21  1  0  0  0  0
 19 20  2  0  0  0  0
 19 21  1  0  0  0  0
 20 23  1  0  0  0  0
 21 17  2  0  0  0  0
 23 22  2  0  0  0  0
 25 24  2  0  0  0  0
 26 25  1  0  0  0  0
 27 26  1  0  0  0  0
 28 29  2  0  0  0  0
 29 27  1  0  0  0  0
 30 29  1  0  0  0  0
M  END
>  <MODEL>
4

>  <REMARK>
 VINA RESULT:      -8.2      1.660      5.455
  Name = 
  5 active torsions:
  status: ('A' for Active; 'I' for Inactive)
    1  A    between atoms: C_4  and  C_13
    2  A    between atoms: N_7  and  C_16
    3  A    between atoms: C_8  and  C_13
    4  A    between atoms: C_13  and  C_27
    5  A    between atoms: C_16  and  C_30
                            x       y       z     vdW  Elec       q    Type
                         _______ _______ _______ _____ _____    ______ ____

>  <TORSDO>
F 5

$$$$
=
 OpenBabel10272413563D

 30 33  0  0  1  0  0  0  0  0999 V2000
  184.9740  179.2780  143.3960 C   0  0  0  0  0  2  0  0  0  0  0  0
  182.5870  178.7240  142.7570 C   0  0  0  0  0  0  0  0  0  0  0  0
  186.2940  178.4580  139.3850 C   0  0  0  0  0  3  0  0  0  0  0  0
  186.4280  178.8170  143.2010 C   0  0  2  0  0  3  0  0  0  0  0  0
  187.6540  178.3490  139.0860 C   0  0  0  0  0  3  0  0  0  0  0  0
  181.6690  178.6880  141.7770 C   0  0  0  0  0  3  0  0  0  0  0  0
  182.0220  178.6990  144.4220 Cl  0  0  0  0  0  0  0  0  0  0  0  0
  185.8620  178.5930  140.7130 C   0  0  0  0  0  0  0  0  0  0  0  0
  182.0360  178.6520  140.3120 C   0  0  0  0  0  2  0  0  0  0  0  0
  184.0530  178.5120  142.4550 C   0  0  1  0  0  3  0  0  0  0  0  0
  186.8270  178.6640  141.7490 C   0  0  0  0  0  0  0  0  0  0  0  0
  188.6000  178.4050  140.1100 C   0  0  0  0  0  3  0  0  0  0  0  0
  188.1870  178.5660  141.4340 C   0  0  0  0  0  3  0  0  0  0  0  0
  183.4460  178.1100  140.0840 C   0  0  0  0  0  2  0  0  0  0  0  0
  184.4050  178.8560  141.0070 C   0  0  2  0  0  3  0  0  0  0  0  0
  186.8170  177.5860  144.0440 C   0  0  2  0  0  3  0  0  0  0  0  0
  186.7260  178.4010  147.7780 C   0  0  0  0  0  3  0  0  0  0  0  0
  184.8380  178.0720  146.2020 C   0  0  0  0  0  1  0  0  0  0  0  0
  187.2540  177.8650  145.4650 C   0  0  0  0  0  0  0  0  0  0  0  0
  188.6200  177.8960  145.7930 C   0  0  0  0  0  3  0  0  0  0  0  0
  186.3030  178.1170  146.4750 C   0  0  0  0  0  0  0  0  0  0  0  0
  188.0870  178.4350  148.0880 C   0  0  0  0  0  3  0  0  0  0  0  0
  189.0340  178.1800  147.0950 C   0  0  0  0  0  3  0  0  0  0  0  0
  187.6980  176.6150  143.3070 C   0  0  0  0  0  3  0  0  0  0  0  0
  188.9560  176.3640  143.6800 C   0  0  0  0  0  3  0  0  0  0  0  0
  189.7960  175.3950  142.9210 C   0  0  0  0  0  2  0  0  0  0  0  0
  190.4360  176.0660  141.7990 N   0  0  0  0  0  2  0  0  0  0  0  0
  191.9560  177.2320  143.1350 O   0  0  0  0  0  0  0  0  0  0  0  0
  191.5180  176.9780  141.9810 C   0  0  0  0  0  0  0  0  0  0  0  0
  192.1330  177.6340  140.8000 C   0  0  0  0  0  1  0  0  0  0  0  0
  2  7  1  0  0  0  0
  3  8  1  0  0  0  0
  4  1  1  0  0  0  0
  4 16  1  1  0  0  0
  5  3  2  0  0  0  0
  5 12  1  0  0  0  0
  6  2  2  0  0  0  0
  8 15  1  0  0  0  0
  8 11  2  0  0  0  0
  9  6  1  0  0  0  0
 10  2  1  0  0  0  0
 10  1  1  1  0  0  0
 11  4  1  0  0  0  0
 12 13  2  0  0  0  0
 13 11  1  0  0  0  0
 14  9  1  0  0  0  0
 15 14  1  6  0  0  0
 15 10  1  0  0  0  0
 16 24  1  6  0  0  0
 16 19  1  0  0  0  0
 17 22  1  0  0  0  0
 18 21  1  0  0  0  0
 19 20  2  0  0  0  0
 19 21  1  0  0  0  0
 20 23  1  0  0  0  0
 21 17  2  0  0  0  0
 23 22  2  0  0  0  0
 24 25  2  0  0  0  0
 26 25  1  0  0  0  0
 27 29  1  0  0  0  0
 27 26  1  0  0  0  0
 29 28  2  0  0  0  0
 30 29  1  0  0  0  0
M  END
>  <MODEL>
5

>  <REMARK>
 VINA RESULT:      -8.2      2.029      5.518
  Name = 
  5 active torsions:
  status: ('A' for Active; 'I' for Inactive)
    1  A    between atoms: C_4  and  C_13
    2  A    between atoms: N_7  and  C_16
    3  A    between atoms: C_8  and  C_13
    4  A    between atoms: C_13  and  C_27
    5  A    between atoms: C_16  and  C_30
                            x       y       z     vdW  Elec       q    Type
                         _______ _______ _______ _____ _____    ______ ____

>  <TORSDO>
F 5

$$$$
=
 OpenBabel10272413563D

 30 33  0  0  1  0  0  0  0  0999 V2000
  187.5630  176.5250  143.0480 C   0  0  0  0  0  2  0  0  0  0  0  0
  185.7000  177.9600  143.9860 C   0  0  0  0  0  0  0  0  0  0  0  0
  189.9220  177.1810  146.5840 C   0  0  0  0  0  3  0  0  0  0  0  0
  189.0930  176.4440  142.9130 C   0  0  2  0  0  3  0  0  0  0  0  0
  191.2700  176.8180  146.6240 C   0  0  0  0  0  3  0  0  0  0  0  0
  185.0840  178.4170  145.0900 C   0  0  0  0  0  3  0  0  0  0  0  0
  184.8270  178.0330  142.4620 Cl  0  0  0  0  0  0  0  0  0  0  0  0
  189.1920  177.0880  145.3900 C   0  0  0  0  0  0  0  0  0  0  0  0
  185.7520  178.4530  146.4450 C   0  0  0  0  0  2  0  0  0  0  0  0
  187.1810  177.6550  143.9940 C   0  0  1  0  0  3  0  0  0  0  0  0
  189.8260  176.5780  144.2300 C   0  0  0  0  0  0  0  0  0  0  0  0
  191.8960  176.3300  145.4760 C   0  0  0  0  0  3  0  0  0  0  0  0
  191.1740  176.2060  144.2870 C   0  0  0  0  0  3  0  0  0  0  0  0
  187.2760  178.4680  146.3360 C   0  0  0  0  0  2  0  0  0  0  0  0
  187.7030  177.3430  145.3970 C   0  0  2  0  0  3  0  0  0  0  0  0
  189.6780  177.3680  141.8260 C   0  0  2  0  0  3  0  0  0  0  0  0
  187.2100  178.4660  139.1200 C   0  0  0  0  0  3  0  0  0  0  0  0
  187.6600  179.4880  141.3360 C   0  0  0  0  0  1  0  0  0  0  0  0
  188.9070  177.4360  140.5260 C   0  0  0  0  0  0  0  0  0  0  0  0
  189.1370  176.4880  139.5150 C   0  0  0  0  0  3  0  0  0  0  0  0
  187.9340  178.4360  140.3170 C   0  0  0  0  0  0  0  0  0  0  0  0
  187.4450  177.5130  138.1270 C   0  0  0  0  0  3  0  0  0  0  0  0
  188.4110  176.5260  138.3240 C   0  0  0  0  0  3  0  0  0  0  0  0
  191.1650  177.2170  141.6540 C   0  0  0  0  0  3  0  0  0  0  0  0
  191.7730  177.4180  140.4820 C   0  0  0  0  0  3  0  0  0  0  0  0
  193.2500  177.2550  140.3540 C   0  0  0  0  0  2  0  0  0  0  0  0
  193.6280  177.2500  138.9490 N   0  0  0  0  0  2  0  0  0  0  0  0
  192.3270  175.3830  138.4230 O   0  0  0  0  0  0  0  0  0  0  0  0
  193.1250  176.2770  138.0340 C   0  0  0  0  0  0  0  0  0  0  0  0
  193.5460  176.3200  136.6110 C   0  0  0  0  0  1  0  0  0  0  0  0
  2 10  1  0  0  0  0
  2  6  2  0  0  0  0
  3  5  1  0  0  0  0
  4 16  1  6  0  0  0
  4  1  1  0  0  0  0
  4 11  1  0  0  0  0
  6  9  1  0  0  0  0
  7  2  1  0  0  0  0
  8 15  1  0  0  0  0
  8  3  2  0  0  0  0
 10  1  1  6  0  0  0
 10 15  1  0  0  0  0
 11 13  2  0  0  0  0
 11  8  1  0  0  0  0
 12  5  2  0  0  0  0
 13 12  1  0  0  0  0
 14  9  1  0  0  0  0
 15 14  1  1  0  0  0
 16 24  1  6  0  0  0
 17 21  1  0  0  0  0
 19 16  1  0  0  0  0
 20 19  1  0  0  0  0
 21 19  2  0  0  0  0
 21 18  1  0  0  0  0
 22 23  1  0  0  0  0
 22 17  2  0  0  0  0
 23 20  2  0  0  0  0
 25 24  2  0  0  0  0
 26 25  1  0  0  0  0
 27 26  1  0  0  0  0
 29 28  2  0  0  0  0
 29 27  1  0  0  0  0
 30 29  1  0  0  0  0
M  END
>  <MODEL>
6

>  <REMARK>
 VINA RESULT:      -7.9      2.403      4.509
  Name = 
  5 active torsions:
  status: ('A' for Active; 'I' for Inactive)
    1  A    between atoms: C_4  and  C_13
    2  A    between atoms: N_7  and  C_16
    3  A    between atoms: C_8  and  C_13
    4  A    between atoms: C_13  and  C_27
    5  A    between atoms: C_16  and  C_30
                            x       y       z     vdW  Elec       q    Type
                         _______ _______ _______ _____ _____    ______ ____

>  <TORSDO>
F 5

$$$$
=
 OpenBabel10272413563D

 30 33  0  0  1  0  0  0  0  0999 V2000
  189.1970  178.6320  144.1240 C   0  0  0  0  0  2  0  0  0  0  0  0
  191.0640  177.3210  145.2220 C   0  0  0  0  0  0  0  0  0  0  0  0
  186.5800  177.7750  147.4280 C   0  0  0  0  0  3  0  0  0  0  0  0
  187.6830  178.6060  143.8500 C   0  0  2  0  0  3  0  0  0  0  0  0
  185.2110  178.0420  147.3460 C   0  0  0  0  0  3  0  0  0  0  0  0
  191.6090  176.8980  146.3760 C   0  0  0  0  0  3  0  0  0  0  0  0
  192.0740  177.3260  143.7830 Cl  0  0  0  0  0  0  0  0  0  0  0  0
  187.4070  177.9320  146.3060 C   0  0  0  0  0  0  0  0  0  0  0  0
  190.8250  176.8010  147.6640 C   0  0  0  0  0  2  0  0  0  0  0  0
  189.5710  177.5210  145.0970 C   0  0  1  0  0  3  0  0  0  0  0  0
  186.8460  178.4080  145.0950 C   0  0  0  0  0  0  0  0  0  0  0  0
  184.6590  178.4970  146.1490 C   0  0  0  0  0  3  0  0  0  0  0  0
  185.4740  178.6840  145.0310 C   0  0  0  0  0  3  0  0  0  0  0  0
  189.3220  176.6800  147.4170 C   0  0  0  0  0  2  0  0  0  0  0  0
  188.9030  177.7820  146.4470 C   0  0  2  0  0  3  0  0  0  0  0  0
  187.2660  177.6540  142.7110 C   0  0  2  0  0  3  0  0  0  0  0  0
  190.1230  176.5390  140.4300 C   0  0  0  0  0  3  0  0  0  0  0  0
  189.3870  175.5820  142.5970 C   0  0  0  0  0  1  0  0  0  0  0  0
  188.2170  177.5650  141.5380 C   0  0  0  0  0  0  0  0  0  0  0  0
  188.1100  178.4690  140.4680 C   0  0  0  0  0  3  0  0  0  0  0  0
  189.2350  176.5890  141.5090 C   0  0  0  0  0  0  0  0  0  0  0  0
  190.0090  177.4490  139.3770 C   0  0  0  0  0  3  0  0  0  0  0  0
  189.0000  178.4120  139.3950 C   0  0  0  0  0  3  0  0  0  0  0  0
  185.8190  177.7900  142.3230 C   0  0  0  0  0  3  0  0  0  0  0  0
  185.3380  178.8830  141.7260 C   0  0  0  0  0  3  0  0  0  0  0  0
  183.8960  178.9780  141.3600 C   0  0  0  0  0  2  0  0  0  0  0  0
  183.0700  178.7940  142.5440 N   0  0  0  0  0  2  0  0  0  0  0  0
  181.0590  179.1710  141.4150 O   0  0  0  0  0  0  0  0  0  0  0  0
  181.6480  178.9060  142.4970 C   0  0  0  0  0  0  0  0  0  0  0  0
  180.8540  178.7080  143.7370 C   0  0  0  0  0  1  0  0  0  0  0  0
  2  6  2  0  0  0  0
  4 16  1  6  0  0  0
  4  1  1  0  0  0  0
  4 11  1  0  0  0  0
  5  3  1  0  0  0  0
  6  9  1  0  0  0  0
  7  2  1  0  0  0  0
  8 15  1  0  0  0  0
  8  3  2  0  0  0  0
 10  1  1  6  0  0  0
 10  2  1  0  0  0  0
 10 15  1  0  0  0  0
 11  8  1  0  0  0  0
 12  5  2  0  0  0  0
 13 11  2  0  0  0  0
 13 12  1  0  0  0  0
 14  9  1  0  0  0  0
 15 14  1  1  0  0  0
 16 24  1  6  0  0  0
 17 21  1  0  0  0  0
 19 16  1  0  0  0  0
 20 19  1  0  0  0  0
 21 19  2  0  0  0  0
 21 18  1  0  0  0  0
 22 23  1  0  0  0  0
 22 17  2  0  0  0  0
 23 20  2  0  0  0  0
 25 24  2  0  0  0  0
 26 25  1  0  0  0  0
 26 27  1  0  0  0  0
 28 29  2  0  0  0  0
 29 27  1  0  0  0  0
 29 30  1  0  0  0  0
M  END
>  <MODEL>
7

>  <REMARK>
 VINA RESULT:      -7.8      2.789      5.709
  Name = 
  5 active torsions:
  status: ('A' for Active; 'I' for Inactive)
    1  A    between atoms: C_4  and  C_13
    2  A    between atoms: N_7  and  C_16
    3  A    between atoms: C_8  and  C_13
    4  A    between atoms: C_13  and  C_27
    5  A    between atoms: C_16  and  C_30
                            x       y       z     vdW  Elec       q    Type
                         _______ _______ _______ _____ _____    ______ ____

>  <TORSDO>
F 5

$$$$
=
 OpenBabel10272413563D

 30 33  0  0  1  0  0  0  0  0999 V2000
  185.0050  179.3360  141.8030 C   0  0  0  0  0  2  0  0  0  0  0  0
  182.7510  178.6230  140.8980 C   0  0  0  0  0  0  0  0  0  0  0  0
  186.9340  177.9940  138.2000 C   0  0  0  0  0  3  0  0  0  0  0  0
  186.4770  178.8980  141.8990 C   0  0  2  0  0  3  0  0  0  0  0  0
  188.3250  177.8870  138.1290 C   0  0  0  0  0  3  0  0  0  0  0  0
  181.9940  178.4190  139.8060 C   0  0  0  0  0  3  0  0  0  0  0  0
  181.9360  178.8180  142.4440 Cl  0  0  0  0  0  0  0  0  0  0  0  0
  186.3030  178.3040  139.4140 C   0  0  0  0  0  0  0  0  0  0  0  0
  182.5830  178.1870  138.4340 C   0  0  0  0  0  2  0  0  0  0  0  0
  184.2470  178.4160  140.8550 C   0  0  1  0  0  3  0  0  0  0  0  0
  187.0950  178.5520  140.5620 C   0  0  0  0  0  0  0  0  0  0  0  0
  189.1020  178.1170  139.2660 C   0  0  0  0  0  3  0  0  0  0  0  0
  188.4890  178.4520  140.4740 C   0  0  0  0  0  3  0  0  0  0  0  0
  184.0170  177.6610  138.5030 C   0  0  0  0  0  2  0  0  0  0  0  0
  184.8150  178.5610  139.4420 C   0  0  2  0  0  3  0  0  0  0  0  0
  186.7420  177.8120  142.9610 C   0  0  2  0  0  3  0  0  0  0  0  0
  186.3190  178.2560  146.7340 C   0  0  0  0  0  3  0  0  0  0  0  0
  188.3960  177.9110  145.4230 C   0  0  0  0  0  1  0  0  0  0  0  0
  186.1190  178.0450  144.3200 C   0  0  0  0  0  0  0  0  0  0  0  0
  184.7310  178.2250  144.4420 C   0  0  0  0  0  3  0  0  0  0  0  0
  186.9160  178.0670  145.4840 C   0  0  0  0  0  0  0  0  0  0  0  0
  184.9370  178.4260  146.8410 C   0  0  0  0  0  3  0  0  0  0  0  0
  184.1440  178.4130  145.6930 C   0  0  0  0  0  3  0  0  0  0  0  0
  188.1770  177.3640  143.0090 C   0  0  0  0  0  3  0  0  0  0  0  0
  188.5250  176.0750  142.9710 C   0  0  0  0  0  3  0  0  0  0  0  0
  189.9600  175.6730  143.0230 C   0  0  0  0  0  2  0  0  0  0  0  0
  190.6590  176.1760  141.8500 N   0  0  0  0  0  2  0  0  0  0  0  0
  191.9750  177.6790  143.0620 O   0  0  0  0  0  0  0  0  0  0  0  0
  191.6620  177.1870  141.9450 C   0  0  0  0  0  0  0  0  0  0  0  0
  192.3440  177.6630  140.7150 C   0  0  0  0  0  1  0  0  0  0  0  0
  1  4  1  0  0  0  0
  2  7  1  0  0  0  0
  3  8  1  0  0  0  0
  4 16  1  1  0  0  0
  5  3  2  0  0  0  0
  5 12  1  0  0  0  0
  6  2  2  0  0  0  0
  8 15  1  0  0  0  0
  8 11  2  0  0  0  0
  9 14  1  0  0  0  0
  9  6  1  0  0  0  0
 10  2  1  0  0  0  0
 10  1  1  1  0  0  0
 11  4  1  0  0  0  0
 12 13  2  0  0  0  0
 13 11  1  0  0  0  0
 15 14  1  6  0  0  0
 15 10  1  0  0  0  0
 16 24  1  1  0  0  0
 16 19  1  0  0  0  0
 17 22  1  0  0  0  0
 18 21  1  0  0  0  0
 19 20  2  0  0  0  0
 19 21  1  0  0  0  0
 20 23  1  0  0  0  0
 21 17  2  0  0  0  0
 23 22  2  0  0  0  0
 25 24  2  0  0  0  0
 25 26  1  0  0  0  0
 27 29  1  0  0  0  0
 27 26  1  0  0  0  0
 29 28  2  0  0  0  0
 30 29  1  0  0  0  0
M  END
>  <MODEL>
8

>  <REMARK>
 VINA RESULT:      -7.8      2.294      5.506
  Name = 
  5 active torsions:
  status: ('A' for Active; 'I' for Inactive)
    1  A    between atoms: C_4  and  C_13
    2  A    between atoms: N_7  and  C_16
    3  A    between atoms: C_8  and  C_13
    4  A    between atoms: C_13  and  C_27
    5  A    between atoms: C_16  and  C_30
                            x       y       z     vdW  Elec       q    Type
                         _______ _______ _______ _____ _____    ______ ____

>  <TORSDO>
F 5

$$$$
=
 OpenBabel10272413563D

 30 33  0  0  1  0  0  0  0  0999 V2000
  186.4730  176.6500  143.2860 C   0  0  0  0  0  2  0  0  0  0  0  0
  184.6250  178.3720  143.1090 C   0  0  0  0  0  0  0  0  0  0  0  0
  187.5970  178.1770  147.1470 C   0  0  0  0  0  3  0  0  0  0  0  0
  187.9340  176.4680  143.7300 C   0  0  2  0  0  3  0  0  0  0  0  0
  188.7920  177.7820  147.7540 C   0  0  0  0  0  3  0  0  0  0  0  0
  183.7480  179.1480  143.7690 C   0  0  0  0  0  3  0  0  0  0  0  0
  184.3240  178.0480  141.4070 Cl  0  0  0  0  0  0  0  0  0  0  0  0
  187.2970  177.7810  145.8350 C   0  0  0  0  0  0  0  0  0  0  0  0
  183.9290  179.5370  145.2170 C   0  0  0  0  0  2  0  0  0  0  0  0
  185.9610  178.0180  143.7200 C   0  0  1  0  0  3  0  0  0  0  0  0
  188.2010  176.9370  145.1440 C   0  0  0  0  0  0  0  0  0  0  0  0
  189.6860  176.9620  147.0650 C   0  0  0  0  0  3  0  0  0  0  0  0
  189.3890  176.5380  145.7690 C   0  0  0  0  0  3  0  0  0  0  0  0
  185.3900  179.4550  145.6590 C   0  0  0  0  0  2  0  0  0  0  0  0
  185.9410  178.0930  145.2470 C   0  0  2  0  0  3  0  0  0  0  0  0
  188.9690  177.0200  142.7290 C   0  0  2  0  0  3  0  0  0  0  0  0
  192.3500  178.0180  144.2090 C   0  0  0  0  0  3  0  0  0  0  0  0
  191.6050  175.8100  143.3570 C   0  0  0  0  0  1  0  0  0  0  0  0
  190.0920  177.8430  143.3210 C   0  0  0  0  0  0  0  0  0  0  0  0
  189.9070  179.2100  143.5840 C   0  0  0  0  0  3  0  0  0  0  0  0
  191.3320  177.2480  143.6350 C   0  0  0  0  0  0  0  0  0  0  0  0
  192.1480  179.3740  144.4710 C   0  0  0  0  0  3  0  0  0  0  0  0
  190.9270  179.9710  144.1560 C   0  0  0  0  0  3  0  0  0  0  0  0
  188.3460  177.6220  141.4990 C   0  0  0  0  0  3  0  0  0  0  0  0
  189.0320  177.8120  140.3690 C   0  0  0  0  0  3  0  0  0  0  0  0
  188.3770  178.4130  139.1730 C   0  0  0  0  0  2  0  0  0  0  0  0
  186.9510  178.1200  139.1870 N   0  0  0  0  0  2  0  0  0  0  0  0
  186.7260  178.2340  136.8650 O   0  0  0  0  0  0  0  0  0  0  0  0
  186.1840  178.0460  137.9870 C   0  0  0  0  0  0  0  0  0  0  0  0
  184.7320  177.7430  138.0610 C   0  0  0  0  0  1  0  0  0  0  0  0
  1  4  1  0  0  0  0
  2 10  1  0  0  0  0
  2  6  2  0  0  0  0
  3  5  1  0  0  0  0
  4 16  1  6  0  0  0
  4 11  1  0  0  0  0
  6  9  1  0  0  0  0
  7  2  1  0  0  0  0
  8  3  2  0  0  0  0
  9 14  1  0  0  0  0
 10  1  1  1  0  0  0
 10 15  1  0  0  0  0
 11 13  2  0  0  0  0
 11  8  1  0  0  0  0
 12  5  2  0  0  0  0
 13 12  1  0  0  0  0
 15 14  1  6  0  0  0
 15  8  1  0  0  0  0
 16 24  1  6  0  0  0
 16 19  1  0  0  0  0
 17 22  1  0  0  0  0
 18 21  1  0  0  0  0
 19 20  2  0  0  0  0
 19 21  1  0  0  0  0
 20 23  1  0  0  0  0
 21 17  2  0  0  0  0
 23 22  2  0  0  0  0
 25 24  2  0  0  0  0
 26 27  1  0  0  0  0
 26 25  1  0  0  0  0
 28 29  2  0  0  0  0
 29 30  1  0  0  0  0
 29 27  1  0  0  0  0
M  END
>  <MODEL>
9

>  <REMARK>
 VINA RESULT:      -7.7      1.765      5.213
  Name = 
  5 active torsions:
  status: ('A' for Active; 'I' for Inactive)
    1  A    between atoms: C_4  and  C_13
    2  A    between atoms: N_7  and  C_16
    3  A    between atoms: C_8  and  C_13
    4  A    between atoms: C_13  and  C_27
    5  A    between atoms: C_16  and  C_30
                            x       y       z     vdW  Elec       q    Type
                         _______ _______ _______ _____ _____    ______ ____

>  <TORSDO>
F 5

$$$$
