=
 OpenBabel10262423483D

 34 37  0  0  1  0  0  0  0  0999 V2000
  182.2860  175.6580  137.1190 C   0  0  0  0  0  0  0  0  0  0  0  0
  184.5400  174.6700  136.5100 C   0  0  0  0  0  0  0  0  0  0  0  0
  187.7840  176.2200  134.3460 O   0  0  0  0  0  0  0  0  0  0  0  0
  184.3560  176.8190  137.6830 C   0  0  0  0  0  0  0  0  0  0  0  0
  185.6340  177.5100  135.2210 O   0  0  0  0  0  1  0  0  0  0  0  0
  180.1660  176.6290  137.7590 O   0  0  0  0  0  1  0  0  0  0  0  0
  184.0470  173.7230  135.8390 O   0  0  0  0  0  0  0  0  0  0  0  0
  186.4520  175.5830  137.6890 O   0  0  0  0  0  0  0  0  0  0  0  0
  189.5240  174.7770  135.0870 C   0  0  0  0  0  2  0  0  0  0  0  0
  188.2530  174.9720  134.7510 C   0  0  0  0  0  0  0  0  0  0  0  0
  183.6920  175.7230  137.0980 C   0  0  0  0  0  0  0  0  0  0  0  0
  188.3690  177.4510  134.7520 C   0  0  0  0  0  2  0  0  0  0  0  0
  186.3670  177.7290  136.3930 C   0  0  2  0  0  3  0  0  0  0  0  0
  181.6100  174.5850  136.5470 O   0  0  0  0  0  1  0  0  0  0  0  0
  186.8170  173.6680  136.2700 C   0  0  0  0  0  2  0  0  0  0  0  0
  183.6070  177.8400  138.3140 C   0  0  0  0  0  0  0  0  0  0  0  0
  181.5530  176.6800  137.7330 C   0  0  0  0  0  0  0  0  0  0  0  0
  185.9610  174.7680  136.7060 N   0  0  0  0  0  0  0  0  0  0  0  0
  187.9000  177.8610  136.1600 C   0  0  1  0  0  3  0  0  0  0  0  0
  185.8660  176.8710  137.5760 C   0  0  1  0  0  3  0  0  0  0  0  0
  182.2120  177.7550  138.3280 C   0  0  0  0  0  3  0  0  0  0  0  0
  187.2810  173.8500  134.8330 C   0  0  0  0  0  2  0  0  0  0  0  0
  188.8090  177.3530  137.2960 C   0  0  0  0  0  3  0  0  0  0  0  0
  188.7880  178.3140  138.4710 C   0  0  0  0  0  1  0  0  0  0  0  0
  190.2540  177.2210  136.8390 C   0  0  0  0  0  1  0  0  0  0  0  0
  183.3710  180.2850  138.8270 C   0  0  0  0  0  1  0  0  0  0  0  0
  184.2260  179.0340  138.9910 C   0  0  1  0  0  3  0  0  0  0  0  0
  186.4950  178.4910  141.9990 C   0  0  0  0  0  0  0  0  0  0  0  0
  185.5730  178.2720  143.0240 C   0  0  0  0  0  3  0  0  0  0  0  0
  184.6790  178.7560  140.4050 C   0  0  0  0  0  0  0  0  0  0  0  0
  184.2030  178.3040  142.7490 C   0  0  0  0  0  3  0  0  0  0  0  0
  186.0510  178.7380  140.6970 C   0  0  0  0  0  3  0  0  0  0  0  0
  183.7590  178.5500  141.4470 C   0  0  0  0  0  3  0  0  0  0  0  0
  187.8230  178.4670  142.2670 F   0  0  0  0  0  0  0  0  0  0  0  0
  1 17  1  0  0  0  0
  2 18  1  0  0  0  0
  2 11  1  0  0  0  0
  3 10  1  0  0  0  0
  3 12  1  0  0  0  0
  4 16  2  0  0  0  0
  7  2  2  0  0  0  0
 10 22  1  0  0  0  0
 10  9  2  0  0  0  0
 11  1  2  0  0  0  0
 11  4  1  0  0  0  0
 12 19  1  0  0  0  0
 13  5  1  6  0  0  0
 13 20  1  0  0  0  0
 14  1  1  0  0  0  0
 15 18  1  0  0  0  0
 16 21  1  0  0  0  0
 16 27  1  0  0  0  0
 17  6  1  0  0  0  0
 17 21  2  0  0  0  0
 18  8  1  0  0  0  0
 19 13  1  0  0  0  0
 19 23  1  1  0  0  0
 20  4  1  6  0  0  0
 20  8  1  0  0  0  0
 22 15  1  0  0  0  0
 23 24  1  0  0  0  0
 25 23  1  0  0  0  0
 27 26  1  1  0  0  0
 27 30  1  0  0  0  0
 28 34  1  0  0  0  0
 28 29  1  0  0  0  0
 30 32  1  0  0  0  0
 30 33  2  0  0  0  0
 31 29  2  0  0  0  0
 32 28  2  0  0  0  0
 33 31  1  0  0  0  0
M  END
>  <MODEL>
1

>  <REMARK>
 VINA RESULT:      -6.2      0.000      0.000
  Name = 
  3 active torsions:
  status: ('A' for Active; 'I' for Inactive)
    1  A    between atoms: C_12  and  C_28
    2  A    between atoms: C_13  and  C_29
    3  A    between atoms: C_21  and  C_28
                            x       y       z     vdW  Elec       q    Type
                         _______ _______ _______ _____ _____    ______ ____

>  <TORSDO>
F 3

$$$$
=
 OpenBabel10262423483D

 34 37  0  0  1  0  0  0  0  0999 V2000
  188.3530  177.6300  139.6950 C   0  0  0  0  0  0  0  0  0  0  0  0
  189.7170  176.4730  141.4920 C   0  0  0  0  0  0  0  0  0  0  0  0
  191.3130  177.8520  145.1190 O   0  0  0  0  0  0  0  0  0  0  0  0
  187.6240  177.6420  142.0230 C   0  0  0  0  0  0  0  0  0  0  0  0
  189.5890  179.0820  143.5170 O   0  0  0  0  0  1  0  0  0  0  0  0
  186.9920  178.7180  138.0180 O   0  0  0  0  0  1  0  0  0  0  0  0
  190.6800  176.2110  140.7210 O   0  0  0  0  0  0  0  0  0  0  0  0
  188.5580  176.0150  143.5730 O   0  0  0  0  0  0  0  0  0  0  0  0
  191.6660  175.7860  146.2470 C   0  0  0  0  0  2  0  0  0  0  0  0
  191.6570  176.5010  145.1260 C   0  0  0  0  0  0  0  0  0  0  0  0
  188.5600  177.2680  141.0400 C   0  0  0  0  0  0  0  0  0  0  0  0
  190.4510  178.4500  146.0790 C   0  0  0  0  0  2  0  0  0  0  0  0
  188.5950  178.4280  144.2540 C   0  0  2  0  0  3  0  0  0  0  0  0
  189.2650  177.2730  138.7080 O   0  0  0  0  0  1  0  0  0  0  0  0
  190.7750  175.1060  143.2970 C   0  0  0  0  0  2  0  0  0  0  0  0
  186.4620  178.3590  141.6520 C   0  0  0  0  0  0  0  0  0  0  0  0
  187.2080  178.3530  139.3400 C   0  0  0  0  0  0  0  0  0  0  0  0
  189.7240  176.0190  142.8570 N   0  0  0  0  0  0  0  0  0  0  0  0
  188.9700  178.1910  145.7440 C   0  0  1  0  0  3  0  0  0  0  0  0
  187.9270  177.2820  143.4630 C   0  0  1  0  0  3  0  0  0  0  0  0
  186.2720  178.7060  140.3120 C   0  0  0  0  0  3  0  0  0  0  0  0
  191.9870  175.8550  143.8280 C   0  0  0  0  0  2  0  0  0  0  0  0
  188.3930  176.9210  146.3990 C   0  0  0  0  0  3  0  0  0  0  0  0
  186.8770  176.9870  146.4520 C   0  0  0  0  0  1  0  0  0  0  0  0
  188.8930  176.7510  147.8260 C   0  0  0  0  0  1  0  0  0  0  0  0
  185.6530  180.1660  143.1940 C   0  0  0  0  0  1  0  0  0  0  0  0
  185.3910  178.7760  142.6250 C   0  0  1  0  0  3  0  0  0  0  0  0
  181.5950  178.8840  142.3710 C   0  0  0  0  0  0  0  0  0  0  0  0
  181.3640  178.2030  141.1740 C   0  0  0  0  0  3  0  0  0  0  0  0
  183.9890  178.5580  142.1070 C   0  0  0  0  0  0  0  0  0  0  0  0
  182.4400  177.7070  140.4350 C   0  0  0  0  0  3  0  0  0  0  0  0
  182.9010  179.0660  142.8320 C   0  0  0  0  0  3  0  0  0  0  0  0
  183.7460  177.8870  140.8960 C   0  0  0  0  0  3  0  0  0  0  0  0
  180.5510  179.3710  143.0850 F   0  0  0  0  0  0  0  0  0  0  0  0
  1 11  1  0  0  0  0
  2 18  1  0  0  0  0
  3 10  1  0  0  0  0
  3 12  1  0  0  0  0
  6 17  1  0  0  0  0
  7  2  2  0  0  0  0
 10  9  2  0  0  0  0
 11  2  1  0  0  0  0
 11  4  2  0  0  0  0
 13  5  1  6  0  0  0
 13 19  1  0  0  0  0
 14  1  1  0  0  0  0
 15 22  1  0  0  0  0
 16  4  1  0  0  0  0
 16 27  1  0  0  0  0
 17  1  2  0  0  0  0
 17 21  1  0  0  0  0
 18 15  1  0  0  0  0
 18  8  1  0  0  0  0
 19 12  1  0  0  0  0
 19 23  1  6  0  0  0
 20  4  1  6  0  0  0
 20  8  1  0  0  0  0
 20 13  1  0  0  0  0
 21 16  2  0  0  0  0
 22 10  1  0  0  0  0
 23 24  1  0  0  0  0
 23 25  1  0  0  0  0
 27 26  1  6  0  0  0
 28 32  1  0  0  0  0
 28 34  1  0  0  0  0
 29 28  2  0  0  0  0
 30 27  1  0  0  0  0
 30 32  2  0  0  0  0
 31 33  2  0  0  0  0
 31 29  1  0  0  0  0
 33 30  1  0  0  0  0
M  END
>  <MODEL>
2

>  <REMARK>
 VINA RESULT:      -6.1      4.507      7.591
  Name = 
  3 active torsions:
  status: ('A' for Active; 'I' for Inactive)
    1  A    between atoms: C_12  and  C_28
    2  A    between atoms: C_13  and  C_29
    3  A    between atoms: C_21  and  C_28
                            x       y       z     vdW  Elec       q    Type
                         _______ _______ _______ _____ _____    ______ ____

>  <TORSDO>
F 3

$$$$
=
 OpenBabel10262423483D

 34 37  0  0  1  0  0  0  0  0999 V2000
  186.9710  174.9830  136.3280 C   0  0  0  0  0  0  0  0  0  0  0  0
  189.0410  173.5800  135.9110 C   0  0  0  0  0  0  0  0  0  0  0  0
  192.8120  174.5470  134.3460 O   0  0  0  0  0  0  0  0  0  0  0  0
  189.1300  175.6260  137.2650 C   0  0  0  0  0  0  0  0  0  0  0  0
  190.8660  176.2030  135.0690 O   0  0  0  0  0  1  0  0  0  0  0  0
  185.0230  176.3400  136.7890 O   0  0  0  0  0  1  0  0  0  0  0  0
  188.4680  172.8130  135.0890 O   0  0  0  0  0  0  0  0  0  0  0  0
  190.9070  173.9700  137.4110 O   0  0  0  0  0  0  0  0  0  0  0  0
  194.0950  172.7120  135.1500 C   0  0  0  0  0  2  0  0  0  0  0  0
  192.9530  173.2010  134.6770 C   0  0  0  0  0  0  0  0  0  0  0  0
  188.3490  174.7450  136.4910 C   0  0  0  0  0  0  0  0  0  0  0  0
  193.5710  175.5900  134.9470 C   0  0  0  0  0  2  0  0  0  0  0  0
  191.4500  176.1720  136.3410 C   0  0  2  0  0  3  0  0  0  0  0  0
  186.1810  174.1270  135.5670 O   0  0  0  0  0  1  0  0  0  0  0  0
  191.0760  172.1310  135.8600 C   0  0  0  0  0  2  0  0  0  0  0  0
  188.5210  176.7350  137.8970 C   0  0  0  0  0  0  0  0  0  0  0  0
  186.3800  176.0920  136.9450 C   0  0  0  0  0  0  0  0  0  0  0  0
  190.4080  173.3530  136.2950 N   0  0  0  0  0  0  0  0  0  0  0  0
  192.9950  175.9870  136.3180 C   0  0  1  0  0  3  0  0  0  0  0  0
  190.6180  175.3590  137.3560 C   0  0  1  0  0  3  0  0  0  0  0  0
  187.1510  176.9530  137.7250 C   0  0  0  0  0  3  0  0  0  0  0  0
  191.7720  172.3120  134.5200 C   0  0  0  0  0  2  0  0  0  0  0  0
  193.6060  175.2130  137.5020 C   0  0  0  0  0  3  0  0  0  0  0  0
  193.5170  176.0280  138.7800 C   0  0  0  0  0  1  0  0  0  0  0  0
  195.0740  174.8940  137.2640 C   0  0  0  0  0  1  0  0  0  0  0  0
  189.0360  179.1550  138.3210 C   0  0  0  0  0  1  0  0  0  0  0  0
  189.2650  177.7150  138.7660 C   0  0  1  0  0  3  0  0  0  0  0  0
  189.8130  176.3740  142.2860 C   0  0  0  0  0  0  0  0  0  0  0  0
  188.7910  177.0040  143.0000 C   0  0  0  0  0  3  0  0  0  0  0  0
  189.0780  177.4700  140.2450 C   0  0  0  0  0  0  0  0  0  0  0  0
  187.9170  177.8750  142.3450 C   0  0  0  0  0  3  0  0  0  0  0  0
  189.9600  176.6110  140.9170 C   0  0  0  0  0  3  0  0  0  0  0  0
  188.0620  178.1110  140.9750 C   0  0  0  0  0  3  0  0  0  0  0  0
  190.6650  175.5350  142.9220 F   0  0  0  0  0  0  0  0  0  0  0  0
  1 11  2  0  0  0  0
  1 17  1  0  0  0  0
  2 18  1  0  0  0  0
  2 11  1  0  0  0  0
  3 10  1  0  0  0  0
  3 12  1  0  0  0  0
  4 16  2  0  0  0  0
  6 17  1  0  0  0  0
  7  2  2  0  0  0  0
 10  9  2  0  0  0  0
 11  4  1  0  0  0  0
 12 19  1  0  0  0  0
 13  5  1  6  0  0  0
 13 20  1  0  0  0  0
 14  1  1  0  0  0  0
 15 18  1  0  0  0  0
 16 27  1  0  0  0  0
 17 21  2  0  0  0  0
 18  8  1  0  0  0  0
 19 13  1  0  0  0  0
 19 23  1  1  0  0  0
 20  4  1  6  0  0  0
 20  8  1  0  0  0  0
 21 16  1  0  0  0  0
 22 10  1  0  0  0  0
 22 15  1  0  0  0  0
 23 24  1  0  0  0  0
 25 23  1  0  0  0  0
 27 26  1  6  0  0  0
 27 30  1  0  0  0  0
 28 34  1  0  0  0  0
 28 29  1  0  0  0  0
 30 32  1  0  0  0  0
 30 33  2  0  0  0  0
 31 29  2  0  0  0  0
 32 28  2  0  0  0  0
 33 31  1  0  0  0  0
M  END
>  <MODEL>
3

>  <REMARK>
 VINA RESULT:      -6.1      3.138      4.873
  Name = 
  3 active torsions:
  status: ('A' for Active; 'I' for Inactive)
    1  A    between atoms: C_12  and  C_28
    2  A    between atoms: C_13  and  C_29
    3  A    between atoms: C_21  and  C_28
                            x       y       z     vdW  Elec       q    Type
                         _______ _______ _______ _____ _____    ______ ____

>  <TORSDO>
F 3

$$$$
=
 OpenBabel10262423483D

 34 37  0  0  1  0  0  0  0  0999 V2000
  188.2000  176.9030  138.3380 C   0  0  0  0  0  0  0  0  0  0  0  0
  189.2630  175.1560  136.8400 C   0  0  0  0  0  0  0  0  0  0  0  0
  192.8960  175.1040  134.7400 O   0  0  0  0  0  0  0  0  0  0  0  0
  190.4520  176.0760  138.7810 C   0  0  0  0  0  0  0  0  0  0  0  0
  192.0870  176.8520  136.5680 O   0  0  0  0  0  1  0  0  0  0  0  0
  187.2210  178.5410  139.8230 O   0  0  0  0  0  1  0  0  0  0  0  0
  188.3290  175.1800  135.9930 O   0  0  0  0  0  0  0  0  0  0  0  0
  191.1760  173.9860  137.7650 O   0  0  0  0  0  0  0  0  0  0  0  0
  193.1500  172.7660  134.3780 C   0  0  0  0  0  2  0  0  0  0  0  0
  192.3720  173.8390  134.4800 C   0  0  0  0  0  0  0  0  0  0  0  0
  189.2850  176.0740  137.9930 C   0  0  0  0  0  0  0  0  0  0  0  0
  194.1120  175.3220  135.4450 C   0  0  0  0  0  2  0  0  0  0  0  0
  192.6650  175.9880  137.5040 C   0  0  2  0  0  3  0  0  0  0  0  0
  187.0380  176.9170  137.5740 O   0  0  0  0  0  1  0  0  0  0  0  0
  190.3000  173.2140  135.6560 C   0  0  0  0  0  2  0  0  0  0  0  0
  190.5210  176.8930  139.9340 C   0  0  0  0  0  0  0  0  0  0  0  0
  188.2830  177.7180  139.4730 C   0  0  0  0  0  0  0  0  0  0  0  0
  190.3600  174.2370  136.6960 N   0  0  0  0  0  0  0  0  0  0  0  0
  193.9070  175.2200  136.9670 C   0  0  1  0  0  3  0  0  0  0  0  0
  191.6120  175.2140  138.3290 C   0  0  1  0  0  3  0  0  0  0  0  0
  189.4320  177.7060  140.2620 C   0  0  0  0  0  3  0  0  0  0  0  0
  190.8970  173.7040  134.3460 C   0  0  0  0  0  2  0  0  0  0  0  0
  194.1350  173.8070  137.5360 C   0  0  0  0  0  3  0  0  0  0  0  0
  194.9360  173.8690  138.8250 C   0  0  0  0  0  1  0  0  0  0  0  0
  194.9050  172.9290  136.5620 C   0  0  0  0  0  1  0  0  0  0  0  0
  192.8440  177.7820  140.2720 C   0  0  0  0  0  1  0  0  0  0  0  0
  191.7120  176.9410  140.8540 C   0  0  1  0  0  3  0  0  0  0  0  0
  191.1360  178.9110  144.0590 C   0  0  0  0  0  0  0  0  0  0  0  0
  190.6770  177.9210  144.9310 C   0  0  0  0  0  3  0  0  0  0  0  0
  191.3550  177.2640  142.2850 C   0  0  0  0  0  0  0  0  0  0  0  0
  190.5440  176.6040  144.4830 C   0  0  0  0  0  3  0  0  0  0  0  0
  191.4680  178.5850  142.7420 C   0  0  0  0  0  3  0  0  0  0  0  0
  190.8770  176.2780  143.1660 C   0  0  0  0  0  3  0  0  0  0  0  0
  191.2590  180.1890  144.4910 F   0  0  0  0  0  0  0  0  0  0  0  0
  1 17  1  0  0  0  0
  2 11  1  0  0  0  0
  3 12  1  0  0  0  0
  4 16  2  0  0  0  0
  7  2  2  0  0  0  0
  9 10  2  0  0  0  0
 10  3  1  0  0  0  0
 11  1  2  0  0  0  0
 11  4  1  0  0  0  0
 12 19  1  0  0  0  0
 13  5  1  6  0  0  0
 13 20  1  0  0  0  0
 14  1  1  0  0  0  0
 15 18  1  0  0  0  0
 16 21  1  0  0  0  0
 16 27  1  0  0  0  0
 17  6  1  0  0  0  0
 17 21  2  0  0  0  0
 18  2  1  0  0  0  0
 18  8  1  0  0  0  0
 19 13  1  0  0  0  0
 19 23  1  6  0  0  0
 20  8  1  6  0  0  0
 20  4  1  0  0  0  0
 22 10  1  0  0  0  0
 22 15  1  0  0  0  0
 23 24  1  0  0  0  0
 25 23  1  0  0  0  0
 27 26  1  6  0  0  0
 27 30  1  0  0  0  0
 28 34  1  0  0  0  0
 28 29  1  0  0  0  0
 30 32  1  0  0  0  0
 30 33  2  0  0  0  0
 31 29  2  0  0  0  0
 32 28  2  0  0  0  0
 33 31  1  0  0  0  0
M  END
>  <MODEL>
4

>  <REMARK>
 VINA RESULT:      -6.0      4.121      6.201
  Name = 
  3 active torsions:
  status: ('A' for Active; 'I' for Inactive)
    1  A    between atoms: C_12  and  C_28
    2  A    between atoms: C_13  and  C_29
    3  A    between atoms: C_21  and  C_28
                            x       y       z     vdW  Elec       q    Type
                         _______ _______ _______ _____ _____    ______ ____

>  <TORSDO>
F 3

$$$$
=
 OpenBabel10262423483D

 34 37  0  0  1  0  0  0  0  0999 V2000
  184.6430  178.6990  144.8460 C   0  0  0  0  0  0  0  0  0  0  0  0
  182.7950  178.4860  143.1230 C   0  0  0  0  0  0  0  0  0  0  0  0
  182.2680  180.2460  139.3510 O   0  0  0  0  0  0  0  0  0  0  0  0
  185.1430  178.0610  142.5450 C   0  0  0  0  0  0  0  0  0  0  0  0
  184.4370  180.2760  140.8810 O   0  0  0  0  0  1  0  0  0  0  0  0
  186.4420  178.8480  146.4550 O   0  0  0  0  0  1  0  0  0  0  0  0
  181.9030  178.9420  143.8890 O   0  0  0  0  0  0  0  0  0  0  0  0
  183.3500  177.2370  141.1200 O   0  0  0  0  0  0  0  0  0  0  0  0
  180.6760  178.7550  138.3990 C   0  0  0  0  0  2  0  0  0  0  0  0
  181.1630  179.4020  139.4530 C   0  0  0  0  0  0  0  0  0  0  0  0
  184.2100  178.4310  143.5330 C   0  0  0  0  0  0  0  0  0  0  0  0
  183.2820  180.0990  138.3640 C   0  0  0  0  0  2  0  0  0  0  0  0
  184.7890  179.0880  140.2300 C   0  0  2  0  0  3  0  0  0  0  0  0
  183.7400  179.0660  145.8370 O   0  0  0  0  0  1  0  0  0  0  0  0
  181.0570  177.9210  141.4180 C   0  0  0  0  0  2  0  0  0  0  0  0
  186.5110  177.9340  142.8810 C   0  0  0  0  0  0  0  0  0  0  0  0
  186.0010  178.5850  145.1650 C   0  0  0  0  0  0  0  0  0  0  0  0
  182.4620  178.0220  141.8040 N   0  0  0  0  0  0  0  0  0  0  0  0
  184.2960  179.0100  138.7570 C   0  0  1  0  0  3  0  0  0  0  0  0
  184.6330  177.8460  141.1350 C   0  0  1  0  0  3  0  0  0  0  0  0
  186.9210  178.2010  144.1900 C   0  0  0  0  0  3  0  0  0  0  0  0
  180.5490  179.2100  140.7930 C   0  0  0  0  0  2  0  0  0  0  0  0
  183.9430  177.6060  138.2300 C   0  0  0  0  0  3  0  0  0  0  0  0
  185.2020  176.8300  137.8830 C   0  0  0  0  0  1  0  0  0  0  0  0
  183.0900  177.6780  136.9730 C   0  0  0  0  0  1  0  0  0  0  0  0
  187.6560  178.4650  140.7110 C   0  0  0  0  0  1  0  0  0  0  0  0
  187.5770  177.5170  141.9020 C   0  0  1  0  0  3  0  0  0  0  0  0
  190.9920  178.0000  143.5120 C   0  0  0  0  0  0  0  0  0  0  0  0
  191.3710  176.6850  143.7920 C   0  0  0  0  0  3  0  0  0  0  0  0
  188.9040  177.2060  142.5540 C   0  0  0  0  0  0  0  0  0  0  0  0
  190.5170  175.6280  143.4650 C   0  0  0  0  0  3  0  0  0  0  0  0
  189.7620  178.2600  142.9010 C   0  0  0  0  0  3  0  0  0  0  0  0
  189.2880  175.8880  142.8540 C   0  0  0  0  0  3  0  0  0  0  0  0
  191.8180  179.0250  143.8340 F   0  0  0  0  0  0  0  0  0  0  0  0
  1 17  1  0  0  0  0
  1 14  1  0  0  0  0
  2 11  1  0  0  0  0
  2  7  2  0  0  0  0
  3 10  1  0  0  0  0
  4 16  2  0  0  0  0
  4 11  1  0  0  0  0
  8 18  1  0  0  0  0
  9 10  2  0  0  0  0
 10 22  1  0  0  0  0
 11  1  2  0  0  0  0
 12 19  1  0  0  0  0
 12  3  1  0  0  0  0
 13  5  1  1  0  0  0
 13 20  1  0  0  0  0
 15 18  1  0  0  0  0
 16 21  1  0  0  0  0
 17  6  1  0  0  0  0
 18  2  1  0  0  0  0
 19 23  1  1  0  0  0
 19 13  1  0  0  0  0
 20  8  1  1  0  0  0
 20  4  1  0  0  0  0
 21 17  2  0  0  0  0
 22 15  1  0  0  0  0
 24 23  1  0  0  0  0
 25 23  1  0  0  0  0
 27 26  1  6  0  0  0
 27 30  1  0  0  0  0
 27 16  1  0  0  0  0
 28 29  1  0  0  0  0
 28 34  1  0  0  0  0
 30 33  2  0  0  0  0
 30 32  1  0  0  0  0
 31 29  2  0  0  0  0
 32 28  2  0  0  0  0
 33 31  1  0  0  0  0
M  END
>  <MODEL>
5

>  <REMARK>
 VINA RESULT:      -5.4      3.950      7.117
  Name = 
  3 active torsions:
  status: ('A' for Active; 'I' for Inactive)
    1  A    between atoms: C_12  and  C_28
    2  A    between atoms: C_13  and  C_29
    3  A    between atoms: C_21  and  C_28
                            x       y       z     vdW  Elec       q    Type
                         _______ _______ _______ _____ _____    ______ ____

>  <TORSDO>
F 3

$$$$
=
 OpenBabel10262423483D

 34 37  0  0  1  0  0  0  0  0999 V2000
  182.4780  173.2080  136.8170 C   0  0  0  0  0  0  0  0  0  0  0  0
  185.0020  172.9740  136.7950 C   0  0  0  0  0  0  0  0  0  0  0  0
  187.9680  174.8410  134.4880 O   0  0  0  0  0  0  0  0  0  0  0  0
  183.9190  175.1580  137.0850 C   0  0  0  0  0  0  0  0  0  0  0  0
  185.3920  175.4620  134.6550 O   0  0  0  0  0  1  0  0  0  0  0  0
  180.0770  173.4860  136.8840 O   0  0  0  0  0  1  0  0  0  0  0  0
  184.9790  171.7530  136.4780 O   0  0  0  0  0  0  0  0  0  0  0  0
  186.2490  174.8410  137.7130 O   0  0  0  0  0  0  0  0  0  0  0  0
  189.8830  174.4420  135.8430 C   0  0  0  0  0  2  0  0  0  0  0  0
  188.7110  174.0440  135.3570 C   0  0  0  0  0  0  0  0  0  0  0  0
  183.7660  173.7720  136.8880 C   0  0  0  0  0  0  0  0  0  0  0  0
  188.0430  176.2610  134.4640 C   0  0  0  0  0  2  0  0  0  0  0  0
  185.7640  176.2870  135.7220 C   0  0  2  0  0  3  0  0  0  0  0  0
  182.3040  171.8420  136.6220 O   0  0  0  0  0  1  0  0  0  0  0  0
  187.4770  172.8510  137.1240 C   0  0  0  0  0  2  0  0  0  0  0  0
  182.7760  175.9770  137.2380 C   0  0  0  0  0  0  0  0  0  0  0  0
  181.3530  174.0290  136.9540 C   0  0  0  0  0  0  0  0  0  0  0  0
  186.2500  173.6390  137.0580 N   0  0  0  0  0  0  0  0  0  0  0  0
  187.1910  176.8890  135.5830 C   0  0  1  0  0  3  0  0  0  0  0  0
  185.3250  175.7210  137.0910 C   0  0  1  0  0  3  0  0  0  0  0  0
  181.5060  175.3980  137.1680 C   0  0  0  0  0  3  0  0  0  0  0  0
  188.1450  172.7310  135.7630 C   0  0  0  0  0  2  0  0  0  0  0  0
  187.9610  177.1300  136.8950 C   0  0  0  0  0  3  0  0  0  0  0  0
  187.2610  178.1760  137.7440 C   0  0  0  0  0  1  0  0  0  0  0  0
  189.3750  177.6270  136.6320 C   0  0  0  0  0  1  0  0  0  0  0  0
  182.0420  178.2410  136.4410 C   0  0  0  0  0  1  0  0  0  0  0  0
  182.8380  177.4620  137.4820 C   0  0  1  0  0  3  0  0  0  0  0  0
  183.3300  178.0450  141.2110 C   0  0  0  0  0  0  0  0  0  0  0  0
  182.0960  178.5790  141.5870 C   0  0  0  0  0  3  0  0  0  0  0  0
  182.5570  177.8490  138.9140 C   0  0  0  0  0  0  0  0  0  0  0  0
  181.0930  178.7600  140.6310 C   0  0  0  0  0  3  0  0  0  0  0  0
  183.5620  177.6880  139.8800 C   0  0  0  0  0  3  0  0  0  0  0  0
  181.3240  178.4020  139.3010 C   0  0  0  0  0  3  0  0  0  0  0  0
  184.3050  177.8750  142.1370 F   0  0  0  0  0  0  0  0  0  0  0  0
  1 11  2  0  0  0  0
  1 17  1  0  0  0  0
  2 11  1  0  0  0  0
  2 18  1  0  0  0  0
  3 10  1  0  0  0  0
  4 16  2  0  0  0  0
  6 17  1  0  0  0  0
  7  2  2  0  0  0  0
 10 22  1  0  0  0  0
 10  9  2  0  0  0  0
 11  4  1  0  0  0  0
 12  3  1  0  0  0  0
 12 19  1  0  0  0  0
 13  5  1  6  0  0  0
 13 20  1  0  0  0  0
 14  1  1  0  0  0  0
 16 27  1  0  0  0  0
 17 21  2  0  0  0  0
 18 15  1  0  0  0  0
 18  8  1  0  0  0  0
 19 13  1  0  0  0  0
 19 23  1  1  0  0  0
 20  4  1  6  0  0  0
 20  8  1  0  0  0  0
 21 16  1  0  0  0  0
 22 15  1  0  0  0  0
 23 24  1  0  0  0  0
 25 23  1  0  0  0  0
 27 26  1  6  0  0  0
 27 30  1  0  0  0  0
 28 29  1  0  0  0  0
 28 34  1  0  0  0  0
 30 33  2  0  0  0  0
 30 32  1  0  0  0  0
 31 29  2  0  0  0  0
 32 28  2  0  0  0  0
 33 31  1  0  0  0  0
M  END
>  <MODEL>
6

>  <REMARK>
 VINA RESULT:      -5.2      1.797      2.337
  Name = 
  3 active torsions:
  status: ('A' for Active; 'I' for Inactive)
    1  A    between atoms: C_12  and  C_28
    2  A    between atoms: C_13  and  C_29
    3  A    between atoms: C_21  and  C_28
                            x       y       z     vdW  Elec       q    Type
                         _______ _______ _______ _____ _____    ______ ____

>  <TORSDO>
F 3

$$$$
=
 OpenBabel10262423483D

 34 37  0  0  1  0  0  0  0  0999 V2000
  183.5770  178.9910  144.1860 C   0  0  0  0  0  0  0  0  0  0  0  0
  181.9910  178.3400  142.3180 C   0  0  0  0  0  0  0  0  0  0  0  0
  181.7370  179.5520  138.3090 O   0  0  0  0  0  0  0  0  0  0  0  0
  184.4250  178.1520  142.0580 C   0  0  0  0  0  0  0  0  0  0  0  0
  183.6840  180.0430  140.0470 O   0  0  0  0  0  1  0  0  0  0  0  0
  185.1350  179.5610  145.9450 O   0  0  0  0  0  1  0  0  0  0  0  0
  180.9660  178.7660  142.9150 O   0  0  0  0  0  0  0  0  0  0  0  0
  182.9270  176.9400  140.5710 O   0  0  0  0  0  0  0  0  0  0  0  0
  180.4540  177.7670  137.4000 C   0  0  0  0  0  2  0  0  0  0  0  0
  180.7310  178.5930  138.4040 C   0  0  0  0  0  0  0  0  0  0  0  0
  183.3420  178.5150  142.8810 C   0  0  0  0  0  0  0  0  0  0  0  0
  182.8750  179.4190  137.4660 C   0  0  0  0  0  2  0  0  0  0  0  0
  184.2460  178.8410  139.6020 C   0  0  2  0  0  3  0  0  0  0  0  0
  182.5220  179.3560  145.0160 O   0  0  0  0  0  1  0  0  0  0  0  0
  180.5520  177.3560  140.5270 C   0  0  0  0  0  2  0  0  0  0  0  0
  185.7470  178.2420  142.5540 C   0  0  0  0  0  0  0  0  0  0  0  0
  184.8890  179.0910  144.6620 C   0  0  0  0  0  0  0  0  0  0  0  0
  181.8780  177.6810  141.0440 N   0  0  0  0  0  0  0  0  0  0  0  0
  183.9500  178.5240  138.1080 C   0  0  1  0  0  3  0  0  0  0  0  0
  184.1200  177.7060  140.6430 C   0  0  1  0  0  3  0  0  0  0  0  0
  185.9600  178.7140  143.8520 C   0  0  0  0  0  3  0  0  0  0  0  0
  179.9820  178.4860  139.6830 C   0  0  0  0  0  2  0  0  0  0  0  0
  183.8260  177.0330  137.7390 C   0  0  0  0  0  3  0  0  0  0  0  0
  185.1940  176.3760  137.6920 C   0  0  0  0  0  1  0  0  0  0  0  0
  183.1820  176.8470  136.3740 C   0  0  0  0  0  1  0  0  0  0  0  0
  187.2140  178.8020  140.5950 C   0  0  0  0  0  1  0  0  0  0  0  0
  186.9660  177.8500  141.7600 C   0  0  1  0  0  3  0  0  0  0  0  0
  190.4020  178.2090  143.3590 C   0  0  0  0  0  0  0  0  0  0  0  0
  190.4430  177.1040  144.2120 C   0  0  0  0  0  3  0  0  0  0  0  0
  188.1770  177.5680  142.6180 C   0  0  0  0  0  0  0  0  0  0  0  0
  189.3510  176.2350  144.2810 C   0  0  0  0  0  3  0  0  0  0  0  0
  189.2720  178.4430  142.5700 C   0  0  0  0  0  3  0  0  0  0  0  0
  188.2220  176.4680  143.4920 C   0  0  0  0  0  3  0  0  0  0  0  0
  191.4580  179.0550  143.2970 F   0  0  0  0  0  0  0  0  0  0  0  0
  1 17  1  0  0  0  0
  1 14  1  0  0  0  0
  2 11  1  0  0  0  0
  2  7  2  0  0  0  0
  3 10  1  0  0  0  0
  4 16  2  0  0  0  0
  4 11  1  0  0  0  0
  8 18  1  0  0  0  0
  9 10  2  0  0  0  0
 10 22  1  0  0  0  0
 11  1  2  0  0  0  0
 12 19  1  0  0  0  0
 12  3  1  0  0  0  0
 13  5  1  1  0  0  0
 13 20  1  0  0  0  0
 15 18  1  0  0  0  0
 16 21  1  0  0  0  0
 17  6  1  0  0  0  0
 18  2  1  0  0  0  0
 19 23  1  1  0  0  0
 19 13  1  0  0  0  0
 20  8  1  1  0  0  0
 20  4  1  0  0  0  0
 21 17  2  0  0  0  0
 22 15  1  0  0  0  0
 24 23  1  0  0  0  0
 25 23  1  0  0  0  0
 27 26  1  6  0  0  0
 27 16  1  0  0  0  0
 27 30  1  0  0  0  0
 28 29  1  0  0  0  0
 29 31  2  0  0  0  0
 30 33  2  0  0  0  0
 32 30  1  0  0  0  0
 32 28  2  0  0  0  0
 33 31  1  0  0  0  0
 34 28  1  0  0  0  0
M  END
>  <MODEL>
7

>  <REMARK>
 VINA RESULT:      -5.0      3.553      6.591
  Name = 
  3 active torsions:
  status: ('A' for Active; 'I' for Inactive)
    1  A    between atoms: C_12  and  C_28
    2  A    between atoms: C_13  and  C_29
    3  A    between atoms: C_21  and  C_28
                            x       y       z     vdW  Elec       q    Type
                         _______ _______ _______ _____ _____    ______ ____

>  <TORSDO>
F 3

$$$$
=
 OpenBabel10262423483D

 34 37  0  0  1  0  0  0  0  0999 V2000
  183.0490  178.5230  138.7000 C   0  0  0  0  0  0  0  0  0  0  0  0
  181.8740  176.2940  138.4170 C   0  0  0  0  0  0  0  0  0  0  0  0
  181.3570  173.8040  135.0800 O   0  0  0  0  0  0  0  0  0  0  0  0
  184.2220  176.5980  137.7680 C   0  0  0  0  0  0  0  0  0  0  0  0
  182.9320  175.9300  135.3070 O   0  0  0  0  0  1  0  0  0  0  0  0
  184.2310  180.6140  138.9810 O   0  0  0  0  0  1  0  0  0  0  0  0
  180.7420  176.7460  138.7400 O   0  0  0  0  0  0  0  0  0  0  0  0
  183.3150  174.3660  138.1150 O   0  0  0  0  0  0  0  0  0  0  0  0
  180.8330  171.7470  136.1550 C   0  0  0  0  0  2  0  0  0  0  0  0
  180.7580  173.0730  136.1040 C   0  0  0  0  0  0  0  0  0  0  0  0
  183.0500  177.1750  138.2940 C   0  0  0  0  0  0  0  0  0  0  0  0
  182.4990  173.3580  134.3580 C   0  0  0  0  0  2  0  0  0  0  0  0
  183.9030  175.0350  135.7700 C   0  0  2  0  0  3  0  0  0  0  0  0
  181.9020  179.1130  139.2210 O   0  0  0  0  0  1  0  0  0  0  0  0
  180.9520  173.9720  138.3890 C   0  0  0  0  0  2  0  0  0  0  0  0
  185.4040  177.3690  137.6730 C   0  0  0  0  0  0  0  0  0  0  0  0
  184.2190  179.2830  138.5870 C   0  0  0  0  0  0  0  0  0  0  0  0
  182.0530  174.8950  138.1340 N   0  0  0  0  0  0  0  0  0  0  0  0
  183.7980  173.6150  135.1440 C   0  0  1  0  0  3  0  0  0  0  0  0
  184.1520  175.1630  137.2890 C   0  0  1  0  0  3  0  0  0  0  0  0
  185.3840  178.7050  138.0830 C   0  0  0  0  0  3  0  0  0  0  0  0
  180.0480  173.8200  137.1760 C   0  0  0  0  0  2  0  0  0  0  0  0
  184.2290  172.4400  136.0430 C   0  0  0  0  0  3  0  0  0  0  0  0
  185.7130  172.5210  136.3560 C   0  0  0  0  0  1  0  0  0  0  0  0
  183.9760  171.0990  135.3700 C   0  0  0  0  0  1  0  0  0  0  0  0
  186.9850  177.2920  135.7240 C   0  0  0  0  0  1  0  0  0  0  0  0
  186.7120  176.8340  137.1520 C   0  0  1  0  0  3  0  0  0  0  0  0
  188.7480  178.0430  140.1320 C   0  0  0  0  0  0  0  0  0  0  0  0
  189.9670  177.3920  139.9360 C   0  0  0  0  0  3  0  0  0  0  0  0
  187.8650  177.0240  138.1100 C   0  0  0  0  0  0  0  0  0  0  0  0
  190.1380  176.5470  138.8360 C   0  0  0  0  0  3  0  0  0  0  0  0
  187.7000  177.8560  139.2280 C   0  0  0  0  0  3  0  0  0  0  0  0
  189.0910  176.3610  137.9300 C   0  0  0  0  0  3  0  0  0  0  0  0
  188.5800  178.8570  141.2030 F   0  0  0  0  0  0  0  0  0  0  0  0
  1 14  1  0  0  0  0
  2  7  2  0  0  0  0
  3 10  1  0  0  0  0
  4 11  1  0  0  0  0
  8 18  1  0  0  0  0
 10  9  2  0  0  0  0
 10 22  1  0  0  0  0
 11  2  1  0  0  0  0
 11  1  2  0  0  0  0
 12  3  1  0  0  0  0
 12 19  1  0  0  0  0
 13  5  1  1  0  0  0
 13 20  1  0  0  0  0
 16  4  2  0  0  0  0
 16 21  1  0  0  0  0
 17  1  1  0  0  0  0
 17  6  1  0  0  0  0
 18 15  1  0  0  0  0
 18  2  1  0  0  0  0
 19 13  1  0  0  0  0
 19 23  1  1  0  0  0
 20  4  1  1  0  0  0
 20  8  1  0  0  0  0
 21 17  2  0  0  0  0
 22 15  1  0  0  0  0
 23 24  1  0  0  0  0
 25 23  1  0  0  0  0
 27 26  1  6  0  0  0
 27 16  1  0  0  0  0
 27 30  1  0  0  0  0
 28 34  1  0  0  0  0
 29 28  1  0  0  0  0
 30 32  1  0  0  0  0
 31 29  2  0  0  0  0
 32 28  2  0  0  0  0
 33 30  2  0  0  0  0
 33 31  1  0  0  0  0
M  END
>  <MODEL>
8

>  <REMARK>
 VINA RESULT:      -4.9      2.342      5.337
  Name = 
  3 active torsions:
  status: ('A' for Active; 'I' for Inactive)
    1  A    between atoms: C_12  and  C_28
    2  A    between atoms: C_13  and  C_29
    3  A    between atoms: C_21  and  C_28
                            x       y       z     vdW  Elec       q    Type
                         _______ _______ _______ _____ _____    ______ ____

>  <TORSDO>
F 3

$$$$
=
 OpenBabel10262423483D

 34 37  0  0  1  0  0  0  0  0999 V2000
  186.0310  175.6340  135.5330 C   0  0  0  0  0  0  0  0  0  0  0  0
  187.8980  173.9200  135.4720 C   0  0  0  0  0  0  0  0  0  0  0  0
  191.9300  174.2080  134.3470 O   0  0  0  0  0  0  0  0  0  0  0  0
  188.1370  176.0330  136.6980 C   0  0  0  0  0  0  0  0  0  0  0  0
  190.1880  176.1790  134.7120 O   0  0  0  0  0  1  0  0  0  0  0  0
  184.2720  177.2890  135.6570 O   0  0  0  0  0  1  0  0  0  0  0  0
  187.3160  173.1800  134.6330 O   0  0  0  0  0  0  0  0  0  0  0  0
  189.6120  174.1560  137.1720 O   0  0  0  0  0  0  0  0  0  0  0  0
  192.8150  172.2780  135.4200 C   0  0  0  0  0  2  0  0  0  0  0  0
  191.8240  172.8870  134.7760 C   0  0  0  0  0  0  0  0  0  0  0  0
  187.3280  175.2150  135.8870 C   0  0  0  0  0  0  0  0  0  0  0  0
  192.7620  175.1760  134.9750 C   0  0  0  0  0  2  0  0  0  0  0  0
  190.6060  176.1660  136.0470 C   0  0  2  0  0  3  0  0  0  0  0  0
  185.2160  174.8420  134.7320 O   0  0  0  0  0  1  0  0  0  0  0  0
  189.6810  172.1940  135.7720 C   0  0  0  0  0  2  0  0  0  0  0  0
  187.6340  177.2660  137.1780 C   0  0  0  0  0  0  0  0  0  0  0  0
  185.5480  176.8620  136.0000 C   0  0  0  0  0  0  0  0  0  0  0  0
  189.1600  173.5310  136.0420 N   0  0  0  0  0  0  0  0  0  0  0  0
  192.0960  175.7600  136.2350 C   0  0  1  0  0  3  0  0  0  0  0  0
  189.5460  175.5640  136.9960 C   0  0  1  0  0  3  0  0  0  0  0  0
  186.3430  177.6630  136.8190 C   0  0  0  0  0  3  0  0  0  0  0  0
  190.5480  172.1670  134.5240 C   0  0  0  0  0  2  0  0  0  0  0  0
  192.4390  175.0030  137.5320 C   0  0  0  0  0  3  0  0  0  0  0  0
  192.1700  175.8720  138.7480 C   0  0  0  0  0  1  0  0  0  0  0  0
  193.9050  174.6000  137.5740 C   0  0  0  0  0  1  0  0  0  0  0  0
  188.6750  179.5380  137.4030 C   0  0  0  0  0  1  0  0  0  0  0  0
  188.4110  178.1940  138.0730 C   0  0  1  0  0  3  0  0  0  0  0  0
  185.9880  178.7710  140.9510 C   0  0  0  0  0  0  0  0  0  0  0  0
  186.7680  178.4380  142.0600 C   0  0  0  0  0  3  0  0  0  0  0  0
  187.8570  178.2830  139.4750 C   0  0  0  0  0  0  0  0  0  0  0  0
  188.0890  178.0180  141.8830 C   0  0  0  0  0  3  0  0  0  0  0  0
  186.5270  178.6880  139.6640 C   0  0  0  0  0  3  0  0  0  0  0  0
  188.6290  177.9360  140.5970 C   0  0  0  0  0  3  0  0  0  0  0  0
  184.7050  179.1730  141.1220 F   0  0  0  0  0  0  0  0  0  0  0  0
  1 11  2  0  0  0  0
  1 17  1  0  0  0  0
  2 11  1  0  0  0  0
  2 18  1  0  0  0  0
  3 10  1  0  0  0  0
  3 12  1  0  0  0  0
  4 16  2  0  0  0  0
  6 17  1  0  0  0  0
  7  2  2  0  0  0  0
 10  9  2  0  0  0  0
 11  4  1  0  0  0  0
 12 19  1  0  0  0  0
 13  5  1  6  0  0  0
 13 19  1  0  0  0  0
 13 20  1  0  0  0  0
 14  1  1  0  0  0  0
 15 18  1  0  0  0  0
 16 27  1  0  0  0  0
 17 21  2  0  0  0  0
 18  8  1  0  0  0  0
 19 23  1  1  0  0  0
 20  4  1  6  0  0  0
 20  8  1  0  0  0  0
 21 16  1  0  0  0  0
 22 10  1  0  0  0  0
 22 15  1  0  0  0  0
 23 25  1  0  0  0  0
 23 24  1  0  0  0  0
 27 26  1  6  0  0  0
 27 30  1  0  0  0  0
 28 34  1  0  0  0  0
 28 29  1  0  0  0  0
 30 32  1  0  0  0  0
 30 33  2  0  0  0  0
 31 29  2  0  0  0  0
 32 28  2  0  0  0  0
 33 31  1  0  0  0  0
M  END
>  <MODEL>
9

>  <REMARK>
 VINA RESULT:      -4.8      2.503      4.029
  Name = 
  3 active torsions:
  status: ('A' for Active; 'I' for Inactive)
    1  A    between atoms: C_12  and  C_28
    2  A    between atoms: C_13  and  C_29
    3  A    between atoms: C_21  and  C_28
                            x       y       z     vdW  Elec       q    Type
                         _______ _______ _______ _____ _____    ______ ____

>  <TORSDO>
F 3

$$$$
