=
 OpenBabel10272400073D

 34 37  0  0  1  0  0  0  0  0999 V2000
  186.3120  176.6380  136.3630 C   0  0  0  0  0  0  0  0  0  0  0  0
  188.5710  176.8680  137.2550 C   0  0  0  0  0  0  0  0  0  0  0  0
  186.6670  177.8780  138.4480 C   0  0  0  0  0  0  0  0  0  0  0  0
  187.3490  178.4010  140.7330 C   0  0  0  0  0  0  0  0  0  0  0  0
  188.1850  175.6450  135.1960 C   0  0  0  0  0  3  0  0  0  0  0  0
  189.0570  176.1210  136.1780 C   0  0  0  0  0  3  0  0  0  0  0  0
  189.0590  178.5530  139.0450 C   0  0  0  0  0  2  0  0  0  0  0  0
  187.1840  177.1320  137.3620 C   0  0  0  0  0  0  0  0  0  0  0  0
  187.0630  178.3690  142.0030 C   0  0  0  0  0  3  0  0  0  0  0  0
  186.8160  175.9030  135.2890 C   0  0  0  0  0  3  0  0  0  0  0  0
  185.2710  178.1220  138.5150 C   0  0  0  0  0  0  0  0  0  0  0  0
  184.9430  176.8830  136.4480 C   0  0  0  0  0  3  0  0  0  0  0  0
  189.5320  177.2890  138.3310 C   0  0  0  0  0  2  0  0  0  0  0  0
  187.6300  178.3970  139.4580 C   0  0  0  0  0  0  0  0  0  0  0  0
  184.4290  177.6210  137.5120 C   0  0  0  0  0  3  0  0  0  0  0  0
  184.6160  180.3030  139.1980 O   0  0  0  0  0  1  0  0  0  0  0  0
  184.6690  178.9660  139.6000 C   0  0  1  0  0  3  0  0  0  0  0  0
  183.5500  178.8970  142.2220 O   0  0  0  0  0  1  0  0  0  0  0  0
  181.5300  178.0830  141.5150 O   0  0  0  0  0  0  0  0  0  0  0  0
  183.3320  178.4930  139.9310 N   0  0  0  0  0  2  0  0  0  0  0  0
  182.8270  178.5090  141.2660 C   0  0  0  0  0  0  0  0  0  0  0  0
  187.3870  177.1440  142.7940 C   0  0  0  0  0  2  0  0  0  0  0  0
  188.5780  177.3520  143.7370 C   0  0  1  0  0  3  0  0  0  0  0  0
  190.2120  176.0380  141.5270 O   0  0  0  0  0  1  0  0  0  0  0  0
  189.8190  177.9290  143.0180 C   0  0  2  0  0  3  0  0  0  0  0  0
  190.7880  176.8450  142.5080 C   0  0  1  0  0  3  0  0  0  0  0  0
  191.5400  176.7760  144.9490 C   0  0  0  0  0  2  0  0  0  0  0  0
  191.7730  178.2620  144.6870 C   0  0  0  0  0  2  0  0  0  0  0  0
  190.5880  178.8990  143.9410 C   0  0  0  0  0  2  0  0  0  0  0  0
  191.3770  175.9930  143.6400 C   0  0  0  0  0  2  0  0  0  0  0  0
  188.1690  178.2060  144.9420 C   0  0  0  0  0  2  0  0  0  0  0  0
  187.4730  177.3790  146.0120 C   0  0  0  0  0  3  0  0  0  0  0  0
  188.3720  177.2890  147.2260 C   0  0  0  0  0  1  0  0  0  0  0  0
  186.1640  178.0280  146.4190 C   0  0  0  0  0  1  0  0  0  0  0  0
  1 12  2  0  0  0  0
  1  8  1  0  0  0  0
  2  8  1  0  0  0  0
  2 13  1  0  0  0  0
  3 11  1  0  0  0  0
  3 14  1  0  0  0  0
  4  9  2  0  0  0  0
  5 10  2  0  0  0  0
  5  6  1  0  0  0  0
  6  2  2  0  0  0  0
  7 14  1  0  0  0  0
  8  3  2  0  0  0  0
  9 22  1  0  0  0  0
 10  1  1  0  0  0  0
 11 17  1  0  0  0  0
 12 15  1  0  0  0  0
 13  7  1  0  0  0  0
 14  4  2  0  0  0  0
 15 11  2  0  0  0  0
 17 16  1  6  0  0  0
 17 20  1  0  0  0  0
 20 21  1  0  0  0  0
 21 19  2  0  0  0  0
 21 18  1  0  0  0  0
 23 22  1  6  0  0  0
 23 31  1  0  0  0  0
 25 23  1  1  0  0  0
 25 29  1  0  0  0  0
 26 24  1  6  0  0  0
 26 25  1  0  0  0  0
 26 30  1  0  0  0  0
 28 27  1  0  0  0  0
 29 28  1  0  0  0  0
 30 27  1  0  0  0  0
 31 32  1  0  0  0  0
 32 34  1  0  0  0  0
 32 33  1  0  0  0  0
M  END
>  <MODEL>
1

>  <REMARK>
 VINA RESULT:      -8.8      0.000      0.000
  Name = 
  7 active torsions:
  status: ('A' for Active; 'I' for Inactive)
    1  A    between atoms: C_3  and  C_13
    2  A    between atoms: C_3  and  C_17
    3  A    between atoms: C_3  and  C_29
    4  A    between atoms: C_7  and  C_17
    5  A    between atoms: C_18  and  C_29
    6  A    between atoms: C_21  and  C_28
    7  A    between atoms: N_23  and  C_28
                            x       y       z     vdW  Elec       q    Type
                         _______ _______ _______ _____ _____    ______ ____

>  <TORSDO>
F 7

$$$$
=
 OpenBabel10272400073D

 34 37  0  0  1  0  0  0  0  0999 V2000
  185.9040  178.7880  145.7670 C   0  0  0  0  0  0  0  0  0  0  0  0
  187.9640  177.5330  145.4000 C   0  0  0  0  0  0  0  0  0  0  0  0
  186.3760  177.8630  143.5460 C   0  0  0  0  0  0  0  0  0  0  0  0
  187.5100  177.3950  141.4360 C   0  0  0  0  0  0  0  0  0  0  0  0
  187.4690  178.4650  147.5850 C   0  0  0  0  0  3  0  0  0  0  0  0
  188.3160  177.7490  146.7360 C   0  0  0  0  0  3  0  0  0  0  0  0
  188.2370  176.1230  143.3470 C   0  0  0  0  0  2  0  0  0  0  0  0
  186.7490  178.0590  144.8980 C   0  0  0  0  0  0  0  0  0  0  0  0
  187.7440  177.7550  140.2060 C   0  0  0  0  0  3  0  0  0  0  0  0
  186.2670  178.9840  147.1010 C   0  0  0  0  0  3  0  0  0  0  0  0
  185.1480  178.4030  143.0840 C   0  0  0  0  0  0  0  0  0  0  0  0
  184.7040  179.3170  145.2940 C   0  0  0  0  0  3  0  0  0  0  0  0
  188.9420  176.8300  144.5020 C   0  0  0  0  0  2  0  0  0  0  0  0
  187.2880  177.0670  142.6800 C   0  0  0  0  0  0  0  0  0  0  0  0
  184.3290  179.1230  143.9670 C   0  0  0  0  0  3  0  0  0  0  0  0
  183.3690  177.6370  141.7060 O   0  0  0  0  0  1  0  0  0  0  0  0
  184.6600  178.1700  141.6840 C   0  0  1  0  0  3  0  0  0  0  0  0
  184.3740  178.3760  138.8550 O   0  0  0  0  0  1  0  0  0  0  0  0
  184.4810  180.6630  138.8460 O   0  0  0  0  0  0  0  0  0  0  0  0
  184.6730  179.4130  140.9270 N   0  0  0  0  0  2  0  0  0  0  0  0
  184.4990  179.4440  139.5100 C   0  0  0  0  0  0  0  0  0  0  0  0
  188.8450  178.7250  139.9260 C   0  0  0  0  0  2  0  0  0  0  0  0
  189.9710  178.1080  139.0880 C   0  0  1  0  0  3  0  0  0  0  0  0
  191.2330  177.4000  141.7680 O   0  0  0  0  0  1  0  0  0  0  0  0
  190.3910  176.7050  139.5860 C   0  0  2  0  0  3  0  0  0  0  0  0
  191.5640  176.7380  140.5850 C   0  0  1  0  0  3  0  0  0  0  0  0
  192.9760  177.0270  138.4750 C   0  0  0  0  0  2  0  0  0  0  0  0
  192.2710  175.7270  138.0950 C   0  0  0  0  0  2  0  0  0  0  0  0
  190.7650  175.7890  138.4010 C   0  0  0  0  0  2  0  0  0  0  0  0
  192.8470  177.3180  139.9770 C   0  0  0  0  0  2  0  0  0  0  0  0
  189.5930  178.0950  137.6030 C   0  0  0  0  0  2  0  0  0  0  0  0
  188.0930  177.9440  137.4010 C   0  0  0  0  0  3  0  0  0  0  0  0
  187.5840  179.1200  136.5960 C   0  0  0  0  0  1  0  0  0  0  0  0
  187.7830  176.6650  136.6480 C   0  0  0  0  0  1  0  0  0  0  0  0
  1 10  2  0  0  0  0
  2  6  1  0  0  0  0
  3  8  1  0  0  0  0
  4 14  2  0  0  0  0
  6  5  2  0  0  0  0
  7 13  1  0  0  0  0
  8  2  2  0  0  0  0
  8  1  1  0  0  0  0
  9  4  2  0  0  0  0
 10  5  1  0  0  0  0
 11  3  2  0  0  0  0
 11 15  1  0  0  0  0
 12  1  1  0  0  0  0
 13  2  1  0  0  0  0
 14  7  1  0  0  0  0
 14  3  1  0  0  0  0
 15 12  2  0  0  0  0
 17 16  1  1  0  0  0
 17 11  1  0  0  0  0
 18 21  1  0  0  0  0
 19 21  2  0  0  0  0
 20 17  1  0  0  0  0
 21 20  1  0  0  0  0
 22  9  1  0  0  0  0
 23 31  1  6  0  0  0
 23 22  1  0  0  0  0
 25 23  1  6  0  0  0
 25 26  1  0  0  0  0
 26 24  1  1  0  0  0
 27 30  1  0  0  0  0
 28 29  1  0  0  0  0
 28 27  1  0  0  0  0
 29 25  1  0  0  0  0
 30 26  1  0  0  0  0
 32 31  1  0  0  0  0
 33 32  1  0  0  0  0
 34 32  1  0  0  0  0
M  END
>  <MODEL>
2

>  <REMARK>
 VINA RESULT:      -7.9      1.760      6.694
  Name = 
  7 active torsions:
  status: ('A' for Active; 'I' for Inactive)
    1  A    between atoms: C_3  and  C_13
    2  A    between atoms: C_3  and  C_17
    3  A    between atoms: C_3  and  C_29
    4  A    between atoms: C_7  and  C_17
    5  A    between atoms: C_18  and  C_29
    6  A    between atoms: C_21  and  C_28
    7  A    between atoms: N_23  and  C_28
                            x       y       z     vdW  Elec       q    Type
                         _______ _______ _______ _____ _____    ______ ____

>  <TORSDO>
F 7

$$$$
=
 OpenBabel10272400073D

 34 37  0  0  1  0  0  0  0  0999 V2000
  186.8080  177.8680  145.4220 C   0  0  0  0  0  0  0  0  0  0  0  0
  185.6760  178.4730  143.3460 C   0  0  0  0  0  0  0  0  0  0  0  0
  188.1280  178.2310  143.3880 C   0  0  0  0  0  0  0  0  0  0  0  0
  188.9440  178.0120  141.0980 C   0  0  0  0  0  0  0  0  0  0  0  0
  184.3990  178.1030  145.3750 C   0  0  0  0  0  3  0  0  0  0  0  0
  184.4510  178.4170  144.0150 C   0  0  0  0  0  3  0  0  0  0  0  0
  186.9860  179.3780  141.4100 C   0  0  0  0  0  2  0  0  0  0  0  0
  186.8750  178.1910  144.0460 C   0  0  0  0  0  0  0  0  0  0  0  0
  189.7240  177.3900  140.2600 C   0  0  0  0  0  3  0  0  0  0  0  0
  185.5750  177.8280  146.0760 C   0  0  0  0  0  3  0  0  0  0  0  0
  189.3050  177.9460  144.1280 C   0  0  0  0  0  0  0  0  0  0  0  0
  187.9740  177.5850  146.1310 C   0  0  0  0  0  3  0  0  0  0  0  0
  185.6790  178.7330  141.8660 C   0  0  0  0  0  2  0  0  0  0  0  0
  188.1470  178.6020  141.9470 C   0  0  0  0  0  0  0  0  0  0  0  0
  189.2100  177.6270  145.4900 C   0  0  0  0  0  3  0  0  0  0  0  0
  191.2230  179.3010  143.7520 O   0  0  0  0  0  1  0  0  0  0  0  0
  190.6680  178.0420  143.5080 C   0  0  1  0  0  3  0  0  0  0  0  0
  190.5070  175.2690  142.8610 O   0  0  0  0  0  0  0  0  0  0  0  0
  192.3070  174.6950  144.1560 O   0  0  0  0  0  1  0  0  0  0  0  0
  191.5420  177.0030  144.0360 N   0  0  0  0  0  2  0  0  0  0  0  0
  191.4190  175.6340  143.6490 C   0  0  0  0  0  0  0  0  0  0  0  0
  189.2400  176.1390  139.6030 C   0  0  0  0  0  2  0  0  0  0  0  0
  189.0540  176.3050  138.0900 C   0  0  1  0  0  3  0  0  0  0  0  0
  191.6550  174.7200  138.0910 O   0  0  0  0  0  1  0  0  0  0  0  0
  189.3650  175.0120  137.3000 C   0  0  2  0  0  3  0  0  0  0  0  0
  190.8590  174.8540  136.9540 C   0  0  1  0  0  3  0  0  0  0  0  0
  190.3090  176.5220  135.0980 C   0  0  0  0  0  2  0  0  0  0  0  0
  189.2770  175.4530  134.7480 C   0  0  0  0  0  2  0  0  0  0  0  0
  188.5360  174.9490  135.9990 C   0  0  0  0  0  2  0  0  0  0  0  0
  191.3820  175.9780  136.0500 C   0  0  0  0  0  2  0  0  0  0  0  0
  187.6530  176.8420  137.7750 C   0  0  0  0  0  2  0  0  0  0  0  0
  187.6950  178.2810  137.2870 C   0  0  0  0  0  3  0  0  0  0  0  0
  189.1310  178.7590  137.2870 C   0  0  0  0  0  1  0  0  0  0  0  0
  187.1470  178.3810  135.8760 C   0  0  0  0  0  1  0  0  0  0  0  0
  1 10  1  0  0  0  0
  1 12  1  0  0  0  0
  2  6  2  0  0  0  0
  2  8  1  0  0  0  0
  3  8  1  0  0  0  0
  3 11  2  0  0  0  0
  4 14  2  0  0  0  0
  5 10  2  0  0  0  0
  6  5  1  0  0  0  0
  7 13  1  0  0  0  0
  7 14  1  0  0  0  0
  8  1  2  0  0  0  0
  9  4  2  0  0  0  0
 11 15  1  0  0  0  0
 13  2  1  0  0  0  0
 14  3  1  0  0  0  0
 15 12  2  0  0  0  0
 17 16  1  1  0  0  0
 17 20  1  0  0  0  0
 17 11  1  0  0  0  0
 18 21  2  0  0  0  0
 21 20  1  0  0  0  0
 21 19  1  0  0  0  0
 22  9  1  0  0  0  0
 23 31  1  1  0  0  0
 23 22  1  0  0  0  0
 25 23  1  6  0  0  0
 26 25  1  0  0  0  0
 26 24  1  1  0  0  0
 27 30  1  0  0  0  0
 28 27  1  0  0  0  0
 28 29  1  0  0  0  0
 29 25  1  0  0  0  0
 30 26  1  0  0  0  0
 32 33  1  0  0  0  0
 32 31  1  0  0  0  0
 34 32  1  0  0  0  0
M  END
>  <MODEL>
3

>  <REMARK>
 VINA RESULT:      -7.9      3.389      7.971
  Name = 
  7 active torsions:
  status: ('A' for Active; 'I' for Inactive)
    1  A    between atoms: C_3  and  C_13
    2  A    between atoms: C_3  and  C_17
    3  A    between atoms: C_3  and  C_29
    4  A    between atoms: C_7  and  C_17
    5  A    between atoms: C_18  and  C_29
    6  A    between atoms: C_21  and  C_28
    7  A    between atoms: N_23  and  C_28
                            x       y       z     vdW  Elec       q    Type
                         _______ _______ _______ _____ _____    ______ ____

>  <TORSDO>
F 7

$$$$
=
 OpenBabel10272400073D

 34 37  0  0  1  0  0  0  0  0999 V2000
  188.7030  174.6930  136.2100 C   0  0  0  0  0  0  0  0  0  0  0  0
  190.7260  175.0720  137.5210 C   0  0  0  0  0  0  0  0  0  0  0  0
  188.7650  176.5310  137.8310 C   0  0  0  0  0  0  0  0  0  0  0  0
  189.0020  177.7430  139.9370 C   0  0  0  0  0  0  0  0  0  0  0  0
  190.6310  173.2590  135.9110 C   0  0  0  0  0  3  0  0  0  0  0  0
  191.3260  173.9820  136.8840 C   0  0  0  0  0  3  0  0  0  0  0  0
  191.0410  177.2240  138.7660 C   0  0  0  0  0  2  0  0  0  0  0  0
  189.3980  175.4370  137.1920 C   0  0  0  0  0  0  0  0  0  0  0  0
  188.4460  178.1510  141.0420 C   0  0  0  0  0  3  0  0  0  0  0  0
  189.3230  173.6140  135.5760 C   0  0  0  0  0  3  0  0  0  0  0  0
  187.4350  176.8660  137.4690 C   0  0  0  0  0  0  0  0  0  0  0  0
  187.3950  175.0320  135.8720 C   0  0  0  0  0  3  0  0  0  0  0  0
  191.4800  175.7690  138.6190 C   0  0  0  0  0  2  0  0  0  0  0  0
  189.5480  177.2980  138.8380 C   0  0  0  0  0  0  0  0  0  0  0  0
  186.7690  176.1110  136.4930 C   0  0  0  0  0  3  0  0  0  0  0  0
  187.0430  179.2070  137.3250 O   0  0  0  0  0  1  0  0  0  0  0  0
  186.7340  178.0560  138.0550 C   0  0  1  0  0  3  0  0  0  0  0  0
  184.8350  179.7240  139.3750 O   0  0  0  0  0  1  0  0  0  0  0  0
  183.0290  178.5060  138.6690 O   0  0  0  0  0  0  0  0  0  0  0  0
  185.2930  177.8450  138.0650 N   0  0  0  0  0  2  0  0  0  0  0  0
  184.3960  178.7370  138.7290 C   0  0  0  0  0  0  0  0  0  0  0  0
  188.4200  177.2410  142.2270 C   0  0  0  0  0  2  0  0  0  0  0  0
  187.8220  177.9120  143.4690 C   0  0  1  0  0  3  0  0  0  0  0  0
  185.0580  177.9220  142.1870 O   0  0  0  0  0  1  0  0  0  0  0  0
  186.5470  177.2000  143.9800 C   0  0  2  0  0  3  0  0  0  0  0  0
  185.2440  177.9120  143.5690 C   0  0  1  0  0  3  0  0  0  0  0  0
  185.8260  179.4740  145.5070 C   0  0  0  0  0  2  0  0  0  0  0  0
  185.8230  178.1560  146.2770 C   0  0  0  0  0  2  0  0  0  0  0  0
  186.5790  177.0530  145.5170 C   0  0  0  0  0  2  0  0  0  0  0  0
  185.1350  179.3310  144.1440 C   0  0  0  0  0  2  0  0  0  0  0  0
  188.8780  178.0490  144.5700 C   0  0  0  0  0  2  0  0  0  0  0  0
  190.2850  177.8400  144.0340 C   0  0  0  0  0  3  0  0  0  0  0  0
  191.0120  179.1680  144.0290 C   0  0  0  0  0  1  0  0  0  0  0  0
  191.0510  176.8670  144.9100 C   0  0  0  0  0  1  0  0  0  0  0  0
  1  8  1  0  0  0  0
  2 13  1  0  0  0  0
  3 14  1  0  0  0  0
  4  9  2  0  0  0  0
  5  6  1  0  0  0  0
  6  2  2  0  0  0  0
  7 14  1  0  0  0  0
  8  2  1  0  0  0  0
  8  3  2  0  0  0  0
  9 22  1  0  0  0  0
 10  5  2  0  0  0  0
 10  1  1  0  0  0  0
 11  3  1  0  0  0  0
 11 17  1  0  0  0  0
 12  1  2  0  0  0  0
 12 15  1  0  0  0  0
 13  7  1  0  0  0  0
 14  4  2  0  0  0  0
 15 11  2  0  0  0  0
 17 16  1  6  0  0  0
 17 20  1  0  0  0  0
 19 21  2  0  0  0  0
 20 21  1  0  0  0  0
 21 18  1  0  0  0  0
 23 22  1  6  0  0  0
 23 31  1  0  0  0  0
 25 23  1  1  0  0  0
 25 29  1  0  0  0  0
 26 24  1  6  0  0  0
 26 25  1  0  0  0  0
 26 30  1  0  0  0  0
 27 28  1  0  0  0  0
 29 28  1  0  0  0  0
 30 27  1  0  0  0  0
 32 31  1  0  0  0  0
 32 34  1  0  0  0  0
 33 32  1  0  0  0  0
M  END
>  <MODEL>
4

>  <REMARK>
 VINA RESULT:      -7.9      1.753      3.682
  Name = 
  7 active torsions:
  status: ('A' for Active; 'I' for Inactive)
    1  A    between atoms: C_3  and  C_13
    2  A    between atoms: C_3  and  C_17
    3  A    between atoms: C_3  and  C_29
    4  A    between atoms: C_7  and  C_17
    5  A    between atoms: C_18  and  C_29
    6  A    between atoms: C_21  and  C_28
    7  A    between atoms: N_23  and  C_28
                            x       y       z     vdW  Elec       q    Type
                         _______ _______ _______ _____ _____    ______ ____

>  <TORSDO>
F 7

$$$$
=
 OpenBabel10272400073D

 34 37  0  0  1  0  0  0  0  0999 V2000
  187.7390  177.5730  145.3280 C   0  0  0  0  0  0  0  0  0  0  0  0
  185.5240  178.5660  145.5820 C   0  0  0  0  0  0  0  0  0  0  0  0
  186.5350  178.3630  143.3440 C   0  0  0  0  0  0  0  0  0  0  0  0
  184.7900  178.6260  141.6580 C   0  0  0  0  0  0  0  0  0  0  0  0
  186.7400  177.7710  147.5250 C   0  0  0  0  0  3  0  0  0  0  0  0
  185.6030  178.3540  146.9620 C   0  0  0  0  0  3  0  0  0  0  0  0
  184.4990  179.8660  143.7010 C   0  0  0  0  0  2  0  0  0  0  0  0
  186.5960  178.1700  144.7460 C   0  0  0  0  0  0  0  0  0  0  0  0
  184.2550  178.2010  140.5490 C   0  0  0  0  0  3  0  0  0  0  0  0
  187.8050  177.3810  146.7100 C   0  0  0  0  0  3  0  0  0  0  0  0
  187.6330  177.9560  142.5430 C   0  0  0  0  0  0  0  0  0  0  0  0
  188.8050  177.1740  144.5250 C   0  0  0  0  0  3  0  0  0  0  0  0
  184.2500  179.1200  145.0100 C   0  0  0  0  0  2  0  0  0  0  0  0
  185.3220  179.0190  142.7840 C   0  0  0  0  0  0  0  0  0  0  0  0
  188.7530  177.3660  143.1460 C   0  0  0  0  0  3  0  0  0  0  0  0
  188.0110  179.5250  140.7970 O   0  0  0  0  0  1  0  0  0  0  0  0
  187.6610  178.1980  141.0630 C   0  0  1  0  0  3  0  0  0  0  0  0
  187.7600  177.6470  138.2670 O   0  0  0  0  0  0  0  0  0  0  0  0
  189.5630  176.2450  138.4410 O   0  0  0  0  0  1  0  0  0  0  0  0
  188.6050  177.2970  140.4170 N   0  0  0  0  0  2  0  0  0  0  0  0
  188.6130  177.0860  139.0040 C   0  0  0  0  0  0  0  0  0  0  0  0
  183.2470  177.1000  140.5990 C   0  0  0  0  0  2  0  0  0  0  0  0
  182.0650  177.3440  139.6530 C   0  0  1  0  0  3  0  0  0  0  0  0
  184.1160  176.7930  137.4700 O   0  0  0  0  0  1  0  0  0  0  0  0
  181.9730  176.2920  138.5230 C   0  0  2  0  0  3  0  0  0  0  0  0
  182.7420  176.6950  137.2500 C   0  0  1  0  0  3  0  0  0  0  0  0
  180.6900  178.1570  136.8200 C   0  0  0  0  0  2  0  0  0  0  0  0
  179.9820  176.8100  136.9480 C   0  0  0  0  0  2  0  0  0  0  0  0
  180.5010  176.0080  138.1540 C   0  0  0  0  0  2  0  0  0  0  0  0
  182.2000  177.9790  136.6090 C   0  0  0  0  0  2  0  0  0  0  0  0
  180.7550  177.4480  140.4420 C   0  0  0  0  0  2  0  0  0  0  0  0
  180.4360  178.8850  140.8230 C   0  0  0  0  0  3  0  0  0  0  0  0
  180.9570  179.1510  142.2190 C   0  0  0  0  0  1  0  0  0  0  0  0
  181.1010  179.8510  139.8610 C   0  0  0  0  0  1  0  0  0  0  0  0
  1 10  2  0  0  0  0
  2  6  1  0  0  0  0
  3  8  1  0  0  0  0
  4 14  2  0  0  0  0
  6  5  2  0  0  0  0
  7 13  1  0  0  0  0
  8  1  1  0  0  0  0
  8  2  2  0  0  0  0
  9 22  1  0  0  0  0
  9  4  2  0  0  0  0
 10  5  1  0  0  0  0
 11 15  1  0  0  0  0
 11  3  2  0  0  0  0
 12  1  1  0  0  0  0
 13  2  1  0  0  0  0
 14  3  1  0  0  0  0
 14  7  1  0  0  0  0
 15 12  2  0  0  0  0
 17 16  1  1  0  0  0
 17 11  1  0  0  0  0
 18 21  2  0  0  0  0
 19 21  1  0  0  0  0
 20 17  1  0  0  0  0
 21 20  1  0  0  0  0
 23 31  1  1  0  0  0
 23 22  1  0  0  0  0
 25 23  1  1  0  0  0
 26 24  1  1  0  0  0
 26 25  1  0  0  0  0
 27 28  1  0  0  0  0
 28 29  1  0  0  0  0
 29 25  1  0  0  0  0
 30 27  1  0  0  0  0
 30 26  1  0  0  0  0
 31 32  1  0  0  0  0
 32 33  1  0  0  0  0
 34 32  1  0  0  0  0
M  END
>  <MODEL>
5

>  <REMARK>
 VINA RESULT:      -7.7      2.655      8.534
  Name = 
  7 active torsions:
  status: ('A' for Active; 'I' for Inactive)
    1  A    between atoms: C_3  and  C_13
    2  A    between atoms: C_3  and  C_17
    3  A    between atoms: C_3  and  C_29
    4  A    between atoms: C_7  and  C_17
    5  A    between atoms: C_18  and  C_29
    6  A    between atoms: C_21  and  C_28
    7  A    between atoms: N_23  and  C_28
                            x       y       z     vdW  Elec       q    Type
                         _______ _______ _______ _____ _____    ______ ____

>  <TORSDO>
F 7

$$$$
=
 OpenBabel10272400073D

 34 37  0  0  1  0  0  0  0  0999 V2000
  185.6690  179.1370  145.8890 C   0  0  0  0  0  0  0  0  0  0  0  0
  187.6240  177.6770  145.8380 C   0  0  0  0  0  0  0  0  0  0  0  0
  186.2590  177.9810  143.8080 C   0  0  0  0  0  0  0  0  0  0  0  0
  187.5400  177.2290  141.8710 C   0  0  0  0  0  0  0  0  0  0  0  0
  187.0140  178.8380  147.8790 C   0  0  0  0  0  3  0  0  0  0  0  0
  187.8650  177.9780  147.1810 C   0  0  0  0  0  3  0  0  0  0  0  0
  187.9540  176.0720  143.9410 C   0  0  0  0  0  2  0  0  0  0  0  0
  186.5190  178.2610  145.1720 C   0  0  0  0  0  0  0  0  0  0  0  0
  187.9230  177.4570  140.6470 C   0  0  0  0  0  3  0  0  0  0  0  0
  185.9200  179.4160  147.2330 C   0  0  0  0  0  3  0  0  0  0  0  0
  185.1390  178.5840  143.1810 C   0  0  0  0  0  0  0  0  0  0  0  0
  184.5770  179.7250  145.2540 C   0  0  0  0  0  3  0  0  0  0  0  0
  188.6110  176.8130  145.1040 C   0  0  0  0  0  2  0  0  0  0  0  0
  187.1680  177.0330  143.1070 C   0  0  0  0  0  0  0  0  0  0  0  0
  184.3140  179.4490  143.9140 C   0  0  0  0  0  3  0  0  0  0  0  0
  183.5140  177.6560  141.7140 O   0  0  0  0  0  1  0  0  0  0  0  0
  184.7680  178.2720  141.7610 C   0  0  1  0  0  3  0  0  0  0  0  0
  184.3530  178.3790  138.9420 O   0  0  0  0  0  1  0  0  0  0  0  0
  184.4760  180.6630  138.8460 O   0  0  0  0  0  0  0  0  0  0  0  0
  184.7550  179.4870  140.9590 N   0  0  0  0  0  2  0  0  0  0  0  0
  184.5170  179.4690  139.5510 C   0  0  0  0  0  0  0  0  0  0  0  0
  189.1350  178.2970  140.4070 C   0  0  0  0  0  2  0  0  0  0  0  0
  190.3690  177.4590  140.0500 C   0  0  1  0  0  3  0  0  0  0  0  0
  188.9170  178.9380  137.8180 O   0  0  0  0  0  1  0  0  0  0  0  0
  190.8740  177.7160  138.6110 C   0  0  2  0  0  3  0  0  0  0  0  0
  189.7370  177.8360  137.5780 C   0  0  1  0  0  3  0  0  0  0  0  0
  189.7280  175.2840  137.7190 C   0  0  0  0  0  2  0  0  0  0  0  0
  191.1940  175.4810  137.3390 C   0  0  0  0  0  2  0  0  0  0  0  0
  191.8470  176.6040  138.1630 C   0  0  0  0  0  2  0  0  0  0  0  0
  188.9040  176.5520  137.4570 C   0  0  0  0  0  2  0  0  0  0  0  0
  191.4780  177.6630  141.0880 C   0  0  0  0  0  2  0  0  0  0  0  0
  190.9610  177.4990  142.5080 C   0  0  0  0  0  3  0  0  0  0  0  0
  191.6060  176.2770  143.1280 C   0  0  0  0  0  1  0  0  0  0  0  0
  191.3100  178.7140  143.3460 C   0  0  0  0  0  1  0  0  0  0  0  0
  1 10  2  0  0  0  0
  2  6  1  0  0  0  0
  3  8  1  0  0  0  0
  4 14  2  0  0  0  0
  6  5  2  0  0  0  0
  7 13  1  0  0  0  0
  8  2  2  0  0  0  0
  8  1  1  0  0  0  0
  9  4  2  0  0  0  0
 10  5  1  0  0  0  0
 11  3  2  0  0  0  0
 11 15  1  0  0  0  0
 12  1  1  0  0  0  0
 13  2  1  0  0  0  0
 14  3  1  0  0  0  0
 14  7  1  0  0  0  0
 15 12  2  0  0  0  0
 17 16  1  1  0  0  0
 17 11  1  0  0  0  0
 18 21  1  0  0  0  0
 19 21  2  0  0  0  0
 20 17  1  0  0  0  0
 21 20  1  0  0  0  0
 22  9  1  0  0  0  0
 23 22  1  1  0  0  0
 23 31  1  0  0  0  0
 25 23  1  1  0  0  0
 26 24  1  1  0  0  0
 26 25  1  0  0  0  0
 28 27  1  0  0  0  0
 28 29  1  0  0  0  0
 29 25  1  0  0  0  0
 30 26  1  0  0  0  0
 30 27  1  0  0  0  0
 31 32  1  0  0  0  0
 32 33  1  0  0  0  0
 32 34  1  0  0  0  0
M  END
>  <MODEL>
6

>  <REMARK>
 VINA RESULT:      -7.4      1.920      6.536
  Name = 
  7 active torsions:
  status: ('A' for Active; 'I' for Inactive)
    1  A    between atoms: C_3  and  C_13
    2  A    between atoms: C_3  and  C_17
    3  A    between atoms: C_3  and  C_29
    4  A    between atoms: C_7  and  C_17
    5  A    between atoms: C_18  and  C_29
    6  A    between atoms: C_21  and  C_28
    7  A    between atoms: N_23  and  C_28
                            x       y       z     vdW  Elec       q    Type
                         _______ _______ _______ _____ _____    ______ ____

>  <TORSDO>
F 7

$$$$
=
 OpenBabel10272400073D

 34 37  0  0  1  0  0  0  0  0999 V2000
  188.1830  177.3580  144.5900 C   0  0  0  0  0  0  0  0  0  0  0  0
  185.9880  178.2710  145.1390 C   0  0  0  0  0  0  0  0  0  0  0  0
  186.7970  178.3220  142.8120 C   0  0  0  0  0  0  0  0  0  0  0  0
  184.9050  178.7200  141.3210 C   0  0  0  0  0  0  0  0  0  0  0  0
  187.3820  177.3060  146.8740 C   0  0  0  0  0  3  0  0  0  0  0  0
  186.1920  177.9210  146.4760 C   0  0  0  0  0  3  0  0  0  0  0  0
  184.7830  179.7370  143.5010 C   0  0  0  0  0  2  0  0  0  0  0  0
  186.9850  177.9860  144.1750 C   0  0  0  0  0  0  0  0  0  0  0  0
  184.2800  178.4000  140.2250 C   0  0  0  0  0  3  0  0  0  0  0  0
  188.3740  177.0250  145.9330 C   0  0  0  0  0  3  0  0  0  0  0  0
  187.8240  178.0230  141.8800 C   0  0  0  0  0  0  0  0  0  0  0  0
  189.1780  177.0660  143.6600 C   0  0  0  0  0  3  0  0  0  0  0  0
  184.6600  178.8550  144.7410 C   0  0  0  0  0  2  0  0  0  0  0  0
  185.5310  179.0060  142.4310 C   0  0  0  0  0  0  0  0  0  0  0  0
  189.0000  177.3980  142.3180 C   0  0  0  0  0  3  0  0  0  0  0  0
  188.6340  179.4300  140.1440 O   0  0  0  0  0  1  0  0  0  0  0  0
  187.7180  178.4170  140.4360 C   0  0  1  0  0  3  0  0  0  0  0  0
  187.1520  178.3070  137.6440 O   0  0  0  0  0  1  0  0  0  0  0  0
  187.9560  176.1770  137.3980 O   0  0  0  0  0  0  0  0  0  0  0  0
  187.9560  177.2670  139.5750 N   0  0  0  0  0  2  0  0  0  0  0  0
  187.6700  177.2900  138.1760 C   0  0  0  0  0  0  0  0  0  0  0  0
  183.2930  177.2790  140.2480 C   0  0  0  0  0  2  0  0  0  0  0  0
  182.6930  176.9970  138.8660 C   0  0  1  0  0  3  0  0  0  0  0  0
  180.1000  176.6250  140.4190 O   0  0  0  0  0  1  0  0  0  0  0  0
  181.3480  177.7250  138.6350 C   0  0  2  0  0  3  0  0  0  0  0  0
  180.1220  176.8880  139.0500 C   0  0  1  0  0  3  0  0  0  0  0  0
  180.5180  175.7240  136.8090 C   0  0  0  0  0  2  0  0  0  0  0  0
  180.3870  177.1560  136.2960 C   0  0  0  0  0  2  0  0  0  0  0  0
  181.1950  178.1430  137.1560 C   0  0  0  0  0  2  0  0  0  0  0  0
  179.9870  175.5900  138.2430 C   0  0  0  0  0  2  0  0  0  0  0  0
  183.7080  177.3130  137.7620 C   0  0  0  0  0  2  0  0  0  0  0  0
  184.3250  176.0510  137.1820 C   0  0  0  0  0  3  0  0  0  0  0  0
  183.7000  174.8460  137.8500 C   0  0  0  0  0  1  0  0  0  0  0  0
  184.0680  175.9700  135.6890 C   0  0  0  0  0  1  0  0  0  0  0  0
  1 10  2  0  0  0  0
  2  6  1  0  0  0  0
  3  8  1  0  0  0  0
  4 14  2  0  0  0  0
  6  5  2  0  0  0  0
  7 13  1  0  0  0  0
  8  1  1  0  0  0  0
  8  2  2  0  0  0  0
  9 22  1  0  0  0  0
  9  4  2  0  0  0  0
 10  5  1  0  0  0  0
 11 15  1  0  0  0  0
 11  3  2  0  0  0  0
 12  1  1  0  0  0  0
 13  2  1  0  0  0  0
 14  3  1  0  0  0  0
 14  7  1  0  0  0  0
 15 12  2  0  0  0  0
 17 16  1  6  0  0  0
 17 11  1  0  0  0  0
 18 21  1  0  0  0  0
 19 21  2  0  0  0  0
 20 17  1  0  0  0  0
 21 20  1  0  0  0  0
 23 31  1  6  0  0  0
 23 22  1  0  0  0  0
 25 23  1  6  0  0  0
 25 26  1  0  0  0  0
 26 24  1  1  0  0  0
 27 30  1  0  0  0  0
 28 27  1  0  0  0  0
 28 29  1  0  0  0  0
 29 25  1  0  0  0  0
 30 26  1  0  0  0  0
 32 31  1  0  0  0  0
 32 33  1  0  0  0  0
 34 32  1  0  0  0  0
M  END
>  <MODEL>
7

>  <REMARK>
 VINA RESULT:      -7.3      2.597      8.613
  Name = 
  7 active torsions:
  status: ('A' for Active; 'I' for Inactive)
    1  A    between atoms: C_3  and  C_13
    2  A    between atoms: C_3  and  C_17
    3  A    between atoms: C_3  and  C_29
    4  A    between atoms: C_7  and  C_17
    5  A    between atoms: C_18  and  C_29
    6  A    between atoms: C_21  and  C_28
    7  A    between atoms: N_23  and  C_28
                            x       y       z     vdW  Elec       q    Type
                         _______ _______ _______ _____ _____    ______ ____

>  <TORSDO>
F 7

$$$$
=
 OpenBabel10272400073D

 34 37  0  0  1  0  0  0  0  0999 V2000
  188.6130  177.2460  143.9230 C   0  0  0  0  0  0  0  0  0  0  0  0
  186.4770  178.2010  144.6180 C   0  0  0  0  0  0  0  0  0  0  0  0
  187.1290  178.2380  142.2420 C   0  0  0  0  0  0  0  0  0  0  0  0
  185.1490  178.6730  140.8820 C   0  0  0  0  0  0  0  0  0  0  0  0
  187.9660  177.2080  146.2560 C   0  0  0  0  0  3  0  0  0  0  0  0
  186.7640  177.8450  145.9390 C   0  0  0  0  0  3  0  0  0  0  0  0
  185.1930  179.6900  143.0640 C   0  0  0  0  0  2  0  0  0  0  0  0
  187.4020  177.8970  143.5890 C   0  0  0  0  0  0  0  0  0  0  0  0
  184.4450  178.3660  139.8300 C   0  0  0  0  0  3  0  0  0  0  0  0
  188.8870  176.9080  145.2500 C   0  0  0  0  0  3  0  0  0  0  0  0
  188.0850  177.9200  141.2430 C   0  0  0  0  0  0  0  0  0  0  0  0
  189.5370  176.9360  142.9280 C   0  0  0  0  0  3  0  0  0  0  0  0
  185.1370  178.8090  144.3100 C   0  0  0  0  0  2  0  0  0  0  0  0
  185.8530  178.9460  141.9470 C   0  0  0  0  0  0  0  0  0  0  0  0
  189.2760  177.2730  141.6010 C   0  0  0  0  0  3  0  0  0  0  0  0
  188.9210  179.1650  139.3980 O   0  0  0  0  0  1  0  0  0  0  0  0
  187.8890  178.3170  139.8090 C   0  0  1  0  0  3  0  0  0  0  0  0
  186.6660  178.1950  137.2370 O   0  0  0  0  0  1  0  0  0  0  0  0
  187.2560  176.0120  136.8790 O   0  0  0  0  0  0  0  0  0  0  0  0
  187.8440  177.1390  138.9550 N   0  0  0  0  0  2  0  0  0  0  0  0
  187.2330  177.1560  137.6640 C   0  0  0  0  0  0  0  0  0  0  0  0
  183.4410  177.2640  139.9200 C   0  0  0  0  0  2  0  0  0  0  0  0
  182.5300  177.1980  138.6880 C   0  0  1  0  0  3  0  0  0  0  0  0
  184.2360  174.8540  137.7520 O   0  0  0  0  0  1  0  0  0  0  0  0
  182.0560  175.7610  138.3680 C   0  0  2  0  0  3  0  0  0  0  0  0
  182.9270  175.0520  137.3120 C   0  0  1  0  0  3  0  0  0  0  0  0
  181.5750  176.4650  135.6670 C   0  0  0  0  0  2  0  0  0  0  0  0
  180.4130  175.7630  136.3650 C   0  0  0  0  0  2  0  0  0  0  0  0
  180.5870  175.7590  137.8930 C   0  0  0  0  0  2  0  0  0  0  0  0
  182.9090  175.7620  135.9520 C   0  0  0  0  0  2  0  0  0  0  0  0
  181.3520  178.1660  138.8350 C   0  0  0  0  0  2  0  0  0  0  0  0
  181.6870  179.5500  138.3030 C   0  0  0  0  0  3  0  0  0  0  0  0
  181.0220  179.7350  136.9570 C   0  0  0  0  0  1  0  0  0  0  0  0
  181.1800  180.6220  139.2500 C   0  0  0  0  0  1  0  0  0  0  0  0
  1 10  2  0  0  0  0
  2  6  1  0  0  0  0
  3  8  1  0  0  0  0
  4 14  2  0  0  0  0
  6  5  2  0  0  0  0
  7 13  1  0  0  0  0
  8  1  1  0  0  0  0
  8  2  2  0  0  0  0
  9 22  1  0  0  0  0
  9  4  2  0  0  0  0
 10  5  1  0  0  0  0
 11 15  1  0  0  0  0
 11  3  2  0  0  0  0
 12  1  1  0  0  0  0
 13  2  1  0  0  0  0
 14  3  1  0  0  0  0
 14  7  1  0  0  0  0
 15 12  2  0  0  0  0
 17 16  1  6  0  0  0
 17 11  1  0  0  0  0
 18 21  1  0  0  0  0
 19 21  2  0  0  0  0
 20 17  1  0  0  0  0
 21 20  1  0  0  0  0
 23 31  1  1  0  0  0
 23 22  1  0  0  0  0
 25 23  1  6  0  0  0
 26 24  1  1  0  0  0
 26 25  1  0  0  0  0
 27 30  1  0  0  0  0
 27 28  1  0  0  0  0
 28 29  1  0  0  0  0
 29 25  1  0  0  0  0
 30 26  1  0  0  0  0
 32 31  1  0  0  0  0
 32 34  1  0  0  0  0
 33 32  1  0  0  0  0
M  END
>  <MODEL>
8

>  <REMARK>
 VINA RESULT:      -7.2      2.838      8.296
  Name = 
  7 active torsions:
  status: ('A' for Active; 'I' for Inactive)
    1  A    between atoms: C_3  and  C_13
    2  A    between atoms: C_3  and  C_17
    3  A    between atoms: C_3  and  C_29
    4  A    between atoms: C_7  and  C_17
    5  A    between atoms: C_18  and  C_29
    6  A    between atoms: C_21  and  C_28
    7  A    between atoms: N_23  and  C_28
                            x       y       z     vdW  Elec       q    Type
                         _______ _______ _______ _____ _____    ______ ____

>  <TORSDO>
F 7

$$$$
=
 OpenBabel10272400073D

 34 37  0  0  1  0  0  0  0  0999 V2000
  187.0360  178.6000  146.7860 C   0  0  0  0  0  0  0  0  0  0  0  0
  188.8580  177.3270  145.7780 C   0  0  0  0  0  0  0  0  0  0  0  0
  186.7790  177.7140  144.5140 C   0  0  0  0  0  0  0  0  0  0  0  0
  187.1940  177.2730  142.1490 C   0  0  0  0  0  0  0  0  0  0  0  0
  189.0830  178.2210  148.0220 C   0  0  0  0  0  3  0  0  0  0  0  0
  189.6110  177.5120  146.9410 C   0  0  0  0  0  3  0  0  0  0  0  0
  188.4550  175.9550  143.7210 C   0  0  0  0  0  2  0  0  0  0  0  0
  187.5570  177.8780  145.6860 C   0  0  0  0  0  0  0  0  0  0  0  0
  187.0400  177.6550  140.9130 C   0  0  0  0  0  3  0  0  0  0  0  0
  187.7990  178.7650  147.9440 C   0  0  0  0  0  3  0  0  0  0  0  0
  185.4780  178.2780  144.4650 C   0  0  0  0  0  0  0  0  0  0  0  0
  185.7590  179.1530  146.7170 C   0  0  0  0  0  3  0  0  0  0  0  0
  189.4960  176.6290  144.6100 C   0  0  0  0  0  2  0  0  0  0  0  0
  187.3620  176.9230  143.3960 C   0  0  0  0  0  0  0  0  0  0  0  0
  184.9870  178.9900  145.5690 C   0  0  0  0  0  3  0  0  0  0  0  0
  183.2380  178.1240  143.6830 O   0  0  0  0  0  1  0  0  0  0  0  0
  184.5760  178.0790  143.2830 C   0  0  1  0  0  3  0  0  0  0  0  0
  183.6150  178.0080  140.5990 O   0  0  0  0  0  1  0  0  0  0  0  0
  184.5340  180.0310  140.0440 O   0  0  0  0  0  0  0  0  0  0  0  0
  184.8270  179.0980  142.2730 N   0  0  0  0  0  2  0  0  0  0  0  0
  184.2930  179.0090  140.9510 C   0  0  0  0  0  0  0  0  0  0  0  0
  188.0180  178.6160  140.3200 C   0  0  0  0  0  2  0  0  0  0  0  0
  188.7090  178.0540  139.0720 C   0  0  1  0  0  3  0  0  0  0  0  0
  185.8720  178.0060  137.9620 O   0  0  0  0  0  1  0  0  0  0  0  0
  188.2020  178.7020  137.7620 C   0  0  2  0  0  3  0  0  0  0  0  0
  187.0000  177.9650  137.1420 C   0  0  1  0  0  3  0  0  0  0  0  0
  188.7910  176.3450  136.3070 C   0  0  0  0  0  2  0  0  0  0  0  0
  189.3540  177.6290  135.7040 C   0  0  0  0  0  2  0  0  0  0  0  0
  189.3350  178.7870  136.7160 C   0  0  0  0  0  2  0  0  0  0  0  0
  187.3290  176.5210  136.7400 C   0  0  0  0  0  2  0  0  0  0  0  0
  190.2320  178.1570  139.2060 C   0  0  0  0  0  2  0  0  0  0  0  0
  190.8290  176.9150  139.8480 C   0  0  0  0  0  3  0  0  0  0  0  0
  191.7430  176.2360  138.8500 C   0  0  0  0  0  1  0  0  0  0  0  0
  191.6360  177.2860  141.0770 C   0  0  0  0  0  1  0  0  0  0  0  0
  1 10  2  0  0  0  0
  2  6  1  0  0  0  0
  3  8  1  0  0  0  0
  4 14  2  0  0  0  0
  6  5  2  0  0  0  0
  7 13  1  0  0  0  0
  8  2  2  0  0  0  0
  8  1  1  0  0  0  0
  9  4  2  0  0  0  0
 10  5  1  0  0  0  0
 11  3  2  0  0  0  0
 11 15  1  0  0  0  0
 12  1  1  0  0  0  0
 13  2  1  0  0  0  0
 14  7  1  0  0  0  0
 14  3  1  0  0  0  0
 15 12  2  0  0  0  0
 17 16  1  1  0  0  0
 17 11  1  0  0  0  0
 18 21  1  0  0  0  0
 19 21  2  0  0  0  0
 20 17  1  0  0  0  0
 21 20  1  0  0  0  0
 22  9  1  0  0  0  0
 23 31  1  1  0  0  0
 23 22  1  0  0  0  0
 25 23  1  1  0  0  0
 26 25  1  0  0  0  0
 26 24  1  1  0  0  0
 27 30  1  0  0  0  0
 28 27  1  0  0  0  0
 28 29  1  0  0  0  0
 29 25  1  0  0  0  0
 30 26  1  0  0  0  0
 31 32  1  0  0  0  0
 32 34  1  0  0  0  0
 33 32  1  0  0  0  0
M  END
>  <MODEL>
9

>  <REMARK>
 VINA RESULT:      -6.9      1.933      7.246
  Name = 
  7 active torsions:
  status: ('A' for Active; 'I' for Inactive)
    1  A    between atoms: C_3  and  C_13
    2  A    between atoms: C_3  and  C_17
    3  A    between atoms: C_3  and  C_29
    4  A    between atoms: C_7  and  C_17
    5  A    between atoms: C_18  and  C_29
    6  A    between atoms: C_21  and  C_28
    7  A    between atoms: N_23  and  C_28
                            x       y       z     vdW  Elec       q    Type
                         _______ _______ _______ _____ _____    ______ ____

>  <TORSDO>
F 7

$$$$
