=
 OpenBabel10272415193D

 34 37  0  0  0  0  0  0  0  0999 V2000
  187.8290  177.8800  143.4810 C   0  0  0  0  0  0  0  0  0  0  0  0
  184.5850  178.3940  145.2350 C   0  0  0  0  0  3  0  0  0  0  0  0
  186.7210  177.6330  146.0600 C   0  0  0  0  0  3  0  0  0  0  0  0
  189.2390  177.2810  141.5860 C   0  0  0  0  0  0  0  0  0  0  0  0
  188.3780  178.0650  142.1630 N   0  0  0  0  0  0  0  0  0  0  0  0
  190.6070  176.2990  143.4020 C   0  0  0  0  0  2  0  0  0  0  0  0
  190.9640  177.6820  145.4270 C   0  0  0  0  0  1  0  0  0  0  0  0
  189.6540  176.0080  142.2550 C   0  0  0  0  0  2  0  0  0  0  0  0
  189.7140  177.6360  140.2800 N   0  0  0  0  0  2  0  0  0  0  0  0
  188.0630  177.3290  145.8430 C   0  0  0  0  0  3  0  0  0  0  0  0
  188.6330  177.4420  144.5650 C   0  0  0  0  0  0  0  0  0  0  0  0
  190.0460  177.2050  144.4060 N   0  0  0  0  0  0  0  0  0  0  0  0
  183.7810  178.8480  144.1830 C   0  0  0  0  0  0  0  0  0  0  0  0
  184.3220  178.9880  142.9020 C   0  0  0  0  0  3  0  0  0  0  0  0
  185.9260  178.0750  145.0070 C   0  0  0  0  0  0  0  0  0  0  0  0
  185.6620  178.6700  142.6670 C   0  0  0  0  0  3  0  0  0  0  0  0
  186.4790  178.2130  143.7110 C   0  0  0  0  0  0  0  0  0  0  0  0
  193.0560  176.6790  138.9390 C   0  0  0  0  0  3  0  0  0  0  0  0
  190.3800  175.9920  138.5380 C   0  0  0  0  0  3  0  0  0  0  0  0
  192.7270  175.6970  137.9980 C   0  0  0  0  0  0  0  0  0  0  0  0
  191.3760  175.3590  137.7880 C   0  0  0  0  0  0  0  0  0  0  0  0
  190.7090  176.9750  139.4830 C   0  0  0  0  0  0  0  0  0  0  0  0
  192.0520  177.3110  139.6780 C   0  0  0  0  0  3  0  0  0  0  0  0
  190.9750  174.3090  136.8040 C   0  0  0  0  0  2  0  0  0  0  0  0
  189.9930  173.4910  137.3630 O   0  0  0  0  0  1  0  0  0  0  0  0
  193.8250  175.0540  137.2140 C   0  0  0  0  0  2  0  0  0  0  0  0
  194.3600  173.8440  137.9630 C   0  0  0  0  0  2  0  0  0  0  0  0
  195.7500  174.1060  138.4390 C   0  0  0  0  0  0  0  0  0  0  0  0
  196.8380  174.3490  137.4510 C   0  0  0  0  0  1  0  0  0  0  0  0
  195.9950  174.1460  139.6340 O   0  0  0  0  0  0  0  0  0  0  0  0
  182.3510  179.2010  144.4290 C   0  0  0  0  0  2  0  0  0  0  0  0
  180.1810  178.0100  144.1260 C   0  0  0  0  0  1  0  0  0  0  0  0
  181.0430  179.4910  142.3480 C   0  0  0  0  0  1  0  0  0  0  0  0
  181.4350  178.5090  143.4320 C   0  0  0  0  0  3  0  0  0  0  0  0
  1 17  2  0  0  0  0
  1 11  1  0  0  0  0
  4  5  2  0  0  0  0
  4  8  1  0  0  0  0
  5  1  1  0  0  0  0
  6 12  1  0  0  0  0
  8  6  1  0  0  0  0
  9  4  1  0  0  0  0
 10  3  1  0  0  0  0
 11 10  2  0  0  0  0
 12 11  1  0  0  0  0
 12  7  1  0  0  0  0
 13 31  1  0  0  0  0
 13  2  2  0  0  0  0
 14 13  1  0  0  0  0
 15  2  1  0  0  0  0
 15  3  2  0  0  0  0
 16 14  2  0  0  0  0
 16 17  1  0  0  0  0
 17 15  1  0  0  0  0
 18 23  1  0  0  0  0
 19 22  1  0  0  0  0
 20 18  2  0  0  0  0
 21 20  1  0  0  0  0
 21 19  2  0  0  0  0
 22 23  2  0  0  0  0
 22  9  1  0  0  0  0
 24 25  1  0  0  0  0
 24 21  1  0  0  0  0
 26 27  1  0  0  0  0
 26 20  1  0  0  0  0
 27 28  1  0  0  0  0
 28 30  2  0  0  0  0
 29 28  1  0  0  0  0
 33 34  1  0  0  0  0
 34 32  1  0  0  0  0
 34 31  1  0  0  0  0
M  END
>  <MODEL>
1

>  <REMARK>
 VINA RESULT:      -9.2      0.000      0.000
  Name = 
  7 active torsions:
  status: ('A' for Active; 'I' for Inactive)
    1  A    between atoms: C_7  and  C_11
    2  A    between atoms: C_7  and  C_14
    3  A    between atoms: C_14  and  C_16
    4  A    between atoms: N_18  and  C_30
    5  A    between atoms: C_23  and  C_24
    6  A    between atoms: C_23  and  C_25
    7  A    between atoms: C_26  and  C_28
                            x       y       z     vdW  Elec       q    Type
                         _______ _______ _______ _____ _____    ______ ____

>  <TORSDO>
F 7

$$$$
=
 OpenBabel10272415193D

 34 37  0  0  0  0  0  0  0  0999 V2000
  191.5840  176.6550  138.0860 C   0  0  0  0  0  0  0  0  0  0  0  0
  193.3780  174.9800  135.2850 C   0  0  0  0  0  3  0  0  0  0  0  0
  191.2330  176.0860  135.3490 C   0  0  0  0  0  3  0  0  0  0  0  0
  190.9190  176.9560  140.4110 C   0  0  0  0  0  0  0  0  0  0  0  0
  191.8160  176.9760  139.4700 N   0  0  0  0  0  0  0  0  0  0  0  0
  188.7630  177.5120  139.3250 C   0  0  0  0  0  2  0  0  0  0  0  0
  188.8400  179.0230  137.3620 C   0  0  0  0  0  1  0  0  0  0  0  0
  189.5360  176.4670  140.1130 C   0  0  0  0  0  2  0  0  0  0  0  0
  191.3130  177.3420  141.7350 N   0  0  0  0  0  2  0  0  0  0  0  0
  190.2560  176.7910  136.0480 C   0  0  0  0  0  3  0  0  0  0  0  0
  190.4110  177.0820  137.4120 C   0  0  0  0  0  0  0  0  0  0  0  0
  189.4170  177.8920  138.0710 N   0  0  0  0  0  0  0  0  0  0  0  0
  194.5520  174.5710  135.9270 C   0  0  0  0  0  0  0  0  0  0  0  0
  194.7440  174.8590  137.2810 C   0  0  0  0  0  3  0  0  0  0  0  0
  192.3940  175.6730  135.9970 C   0  0  0  0  0  0  0  0  0  0  0  0
  193.7650  175.5510  137.9980 C   0  0  0  0  0  3  0  0  0  0  0  0
  192.5820  175.9670  137.3680 C   0  0  0  0  0  0  0  0  0  0  0  0
  188.3470  178.0640  143.8720 C   0  0  0  0  0  3  0  0  0  0  0  0
  190.9540  177.1140  144.1840 C   0  0  0  0  0  3  0  0  0  0  0  0
  188.8060  177.7060  145.1450 C   0  0  0  0  0  0  0  0  0  0  0  0
  190.1240  177.2380  145.3030 C   0  0  0  0  0  0  0  0  0  0  0  0
  190.4940  177.4690  142.9070 C   0  0  0  0  0  0  0  0  0  0  0  0
  189.1860  177.9420  142.7610 C   0  0  0  0  0  3  0  0  0  0  0  0
  190.6560  176.8330  146.6380 C   0  0  0  0  0  2  0  0  0  0  0  0
  192.0510  176.8030  146.6000 O   0  0  0  0  0  1  0  0  0  0  0  0
  187.8860  177.8650  146.3120 C   0  0  0  0  0  2  0  0  0  0  0  0
  186.4670  177.4980  145.9100 C   0  0  0  0  0  2  0  0  0  0  0  0
  185.5730  178.6880  146.0310 C   0  0  0  0  0  0  0  0  0  0  0  0
  184.8230  179.1760  144.8400 C   0  0  0  0  0  1  0  0  0  0  0  0
  185.4360  179.2480  147.1060 O   0  0  0  0  0  0  0  0  0  0  0  0
  195.6090  173.8420  135.1650 C   0  0  0  0  0  2  0  0  0  0  0  0
  197.8990  172.9400  135.5650 C   0  0  0  0  0  1  0  0  0  0  0  0
  197.5890  175.3110  134.9500 C   0  0  0  0  0  1  0  0  0  0  0  0
  196.9930  174.1470  135.7140 C   0  0  0  0  0  3  0  0  0  0  0  0
  1  5  1  0  0  0  0
  2 13  2  0  0  0  0
  2 15  1  0  0  0  0
  3 15  2  0  0  0  0
  3 10  1  0  0  0  0
  4  9  1  0  0  0  0
  5  4  2  0  0  0  0
  6  8  1  0  0  0  0
  7 12  1  0  0  0  0
  8  4  1  0  0  0  0
  9 22  1  0  0  0  0
 10 11  2  0  0  0  0
 11 12  1  0  0  0  0
 11  1  1  0  0  0  0
 12  6  1  0  0  0  0
 13 14  1  0  0  0  0
 14 16  2  0  0  0  0
 15 17  1  0  0  0  0
 17 16  1  0  0  0  0
 17  1  2  0  0  0  0
 18 20  1  0  0  0  0
 19 21  1  0  0  0  0
 20 21  2  0  0  0  0
 20 26  1  0  0  0  0
 21 24  1  0  0  0  0
 22 19  2  0  0  0  0
 23 22  1  0  0  0  0
 23 18  2  0  0  0  0
 25 24  1  0  0  0  0
 27 28  1  0  0  0  0
 27 26  1  0  0  0  0
 28 30  2  0  0  0  0
 29 28  1  0  0  0  0
 31 34  1  0  0  0  0
 31 13  1  0  0  0  0
 32 34  1  0  0  0  0
 33 34  1  0  0  0  0
M  END
>  <MODEL>
2

>  <REMARK>
 VINA RESULT:      -8.2      3.065     10.903
  Name = 
  7 active torsions:
  status: ('A' for Active; 'I' for Inactive)
    1  A    between atoms: C_7  and  C_11
    2  A    between atoms: C_7  and  C_14
    3  A    between atoms: C_14  and  C_16
    4  A    between atoms: N_18  and  C_30
    5  A    between atoms: C_23  and  C_24
    6  A    between atoms: C_23  and  C_25
    7  A    between atoms: C_26  and  C_28
                            x       y       z     vdW  Elec       q    Type
                         _______ _______ _______ _____ _____    ______ ____

>  <TORSDO>
F 7

$$$$
=
 OpenBabel10272415193D

 34 37  0  0  0  0  0  0  0  0999 V2000
  191.2570  176.3640  137.2810 C   0  0  0  0  0  0  0  0  0  0  0  0
  194.0060  174.6570  135.4390 C   0  0  0  0  0  3  0  0  0  0  0  0
  191.8210  175.3710  134.7050 C   0  0  0  0  0  3  0  0  0  0  0  0
  189.8910  176.8610  139.2360 C   0  0  0  0  0  0  0  0  0  0  0  0
  191.0190  176.9070  138.5930 N   0  0  0  0  0  0  0  0  0  0  0  0
  188.1100  176.8800  137.5150 C   0  0  0  0  0  2  0  0  0  0  0  0
  188.5830  178.0960  135.4090 C   0  0  0  0  0  1  0  0  0  0  0  0
  188.7340  176.1030  138.6630 C   0  0  0  0  0  2  0  0  0  0  0  0
  189.8150  177.4890  140.5240 N   0  0  0  0  0  2  0  0  0  0  0  0
  190.5980  175.9860  134.9660 C   0  0  0  0  0  3  0  0  0  0  0  0
  190.2970  176.4830  136.2440 C   0  0  0  0  0  0  0  0  0  0  0  0
  189.0570  177.1910  136.4430 N   0  0  0  0  0  0  0  0  0  0  0  0
  194.9750  174.5500  136.4440 C   0  0  0  0  0  0  0  0  0  0  0  0
  194.7130  175.0510  137.7220 C   0  0  0  0  0  3  0  0  0  0  0  0
  192.7750  175.2600  135.7120 C   0  0  0  0  0  0  0  0  0  0  0  0
  193.4840  175.6540  138.0020 C   0  0  0  0  0  3  0  0  0  0  0  0
  192.5030  175.7680  137.0050 C   0  0  0  0  0  0  0  0  0  0  0  0
  187.6120  177.1430  143.5090 C   0  0  0  0  0  3  0  0  0  0  0  0
  187.5500  178.3880  141.0110 C   0  0  0  0  0  3  0  0  0  0  0  0
  186.4940  177.8990  143.1410 C   0  0  0  0  0  0  0  0  0  0  0  0
  186.4580  178.5170  141.8760 C   0  0  0  0  0  0  0  0  0  0  0  0
  188.6720  177.6320  141.3810 C   0  0  0  0  0  0  0  0  0  0  0  0
  188.6950  177.0140  142.6350 C   0  0  0  0  0  3  0  0  0  0  0  0
  185.2930  179.3440  141.4420 C   0  0  0  0  0  2  0  0  0  0  0  0
  185.2800  179.4440  140.0500 O   0  0  0  0  0  1  0  0  0  0  0  0
  185.3480  178.0010  144.0940 C   0  0  0  0  0  2  0  0  0  0  0  0
  185.6170  179.0960  145.1150 C   0  0  0  0  0  2  0  0  0  0  0  0
  185.6570  178.5190  146.4910 C   0  0  0  0  0  0  0  0  0  0  0  0
  186.9590  178.1000  147.0810 C   0  0  0  0  0  1  0  0  0  0  0  0
  184.6320  178.4110  147.1440 O   0  0  0  0  0  0  0  0  0  0  0  0
  196.2950  173.9180  136.1500 C   0  0  0  0  0  2  0  0  0  0  0  0
  198.7380  174.1790  136.5780 C   0  0  0  0  0  1  0  0  0  0  0  0
  197.5670  175.7480  135.0740 C   0  0  0  0  0  1  0  0  0  0  0  0
  197.4330  174.9110  136.3280 C   0  0  0  0  0  3  0  0  0  0  0  0
  1  5  1  0  0  0  0
  2 15  2  0  0  0  0
  2 13  1  0  0  0  0
  3 10  2  0  0  0  0
  3 15  1  0  0  0  0
  4  9  1  0  0  0  0
  5  4  2  0  0  0  0
  6  8  1  0  0  0  0
  7 12  1  0  0  0  0
  8  4  1  0  0  0  0
  9 22  1  0  0  0  0
 10 11  1  0  0  0  0
 11 12  1  0  0  0  0
 11  1  2  0  0  0  0
 12  6  1  0  0  0  0
 13 14  2  0  0  0  0
 14 16  1  0  0  0  0
 15 17  1  0  0  0  0
 17  1  1  0  0  0  0
 17 16  2  0  0  0  0
 19 22  2  0  0  0  0
 19 21  1  0  0  0  0
 20 18  1  0  0  0  0
 20 26  1  0  0  0  0
 21 20  2  0  0  0  0
 22 23  1  0  0  0  0
 23 18  2  0  0  0  0
 24 21  1  0  0  0  0
 25 24  1  0  0  0  0
 26 27  1  0  0  0  0
 27 28  1  0  0  0  0
 28 29  1  0  0  0  0
 28 30  2  0  0  0  0
 31 34  1  0  0  0  0
 31 13  1  0  0  0  0
 33 34  1  0  0  0  0
 34 32  1  0  0  0  0
M  END
>  <MODEL>
3

>  <REMARK>
 VINA RESULT:      -7.7      3.265     11.042
  Name = 
  7 active torsions:
  status: ('A' for Active; 'I' for Inactive)
    1  A    between atoms: C_7  and  C_11
    2  A    between atoms: C_7  and  C_14
    3  A    between atoms: C_14  and  C_16
    4  A    between atoms: N_18  and  C_30
    5  A    between atoms: C_23  and  C_24
    6  A    between atoms: C_23  and  C_25
    7  A    between atoms: C_26  and  C_28
                            x       y       z     vdW  Elec       q    Type
                         _______ _______ _______ _____ _____    ______ ____

>  <TORSDO>
F 7

$$$$
=
 OpenBabel10272415193D

 34 37  0  0  0  0  0  0  0  0999 V2000
  187.3800  178.0420  142.8850 C   0  0  0  0  0  0  0  0  0  0  0  0
  184.3370  178.5170  144.9790 C   0  0  0  0  0  3  0  0  0  0  0  0
  186.6290  178.0830  145.6010 C   0  0  0  0  0  3  0  0  0  0  0  0
  188.6060  177.2990  140.9150 C   0  0  0  0  0  0  0  0  0  0  0  0
  187.7410  178.0790  141.4920 N   0  0  0  0  0  0  0  0  0  0  0  0
  190.2840  176.7240  142.6440 C   0  0  0  0  0  2  0  0  0  0  0  0
  190.7320  178.4190  144.3950 C   0  0  0  0  0  1  0  0  0  0  0  0
  189.2350  176.1810  141.6870 C   0  0  0  0  0  2  0  0  0  0  0  0
  188.8770  177.4970  139.5200 N   0  0  0  0  0  2  0  0  0  0  0  0
  187.9590  177.8720  145.2460 C   0  0  0  0  0  3  0  0  0  0  0  0
  188.3530  177.8450  143.8990 C   0  0  0  0  0  0  0  0  0  0  0  0
  189.7530  177.7150  143.5830 N   0  0  0  0  0  0  0  0  0  0  0  0
  183.3680  178.7360  143.9940 C   0  0  0  0  0  0  0  0  0  0  0  0
  183.7300  178.7320  142.6440 C   0  0  0  0  0  3  0  0  0  0  0  0
  185.6680  178.2900  144.6150 C   0  0  0  0  0  0  0  0  0  0  0  0
  185.0580  178.5050  142.2740 C   0  0  0  0  0  3  0  0  0  0  0  0
  186.0410  178.2830  143.2490 C   0  0  0  0  0  0  0  0  0  0  0  0
  190.2640  175.1900  136.9440 C   0  0  0  0  0  3  0  0  0  0  0  0
  191.2070  177.0990  138.7500 C   0  0  0  0  0  3  0  0  0  0  0  0
  191.6340  175.4730  137.0010 C   0  0  0  0  0  0  0  0  0  0  0  0
  192.1100  176.4280  137.9200 C   0  0  0  0  0  0  0  0  0  0  0  0
  189.8330  176.8180  138.6920 C   0  0  0  0  0  0  0  0  0  0  0  0
  189.3710  175.8620  137.7830 C   0  0  0  0  0  3  0  0  0  0  0  0
  193.5600  176.7730  138.0100 C   0  0  0  0  0  2  0  0  0  0  0  0
  194.2020  175.8860  138.8750 O   0  0  0  0  0  1  0  0  0  0  0  0
  192.5610  174.7240  136.1000 C   0  0  0  0  0  2  0  0  0  0  0  0
  192.8820  173.3630  136.6980 C   0  0  0  0  0  2  0  0  0  0  0  0
  194.3080  173.0080  136.4340 C   0  0  0  0  0  0  0  0  0  0  0  0
  194.7570  172.7330  135.0410 C   0  0  0  0  0  1  0  0  0  0  0  0
  195.1120  172.9660  137.3510 O   0  0  0  0  0  0  0  0  0  0  0  0
  181.9480  178.9910  144.3820 C   0  0  0  0  0  2  0  0  0  0  0  0
  180.1490  177.7510  143.1810 C   0  0  0  0  0  1  0  0  0  0  0  0
  180.1630  180.2190  143.1850 C   0  0  0  0  0  1  0  0  0  0  0  0
  181.0350  178.9820  143.1660 C   0  0  0  0  0  3  0  0  0  0  0  0
  1 17  2  0  0  0  0
  1 11  1  0  0  0  0
  4  5  2  0  0  0  0
  4  8  1  0  0  0  0
  5  1  1  0  0  0  0
  6 12  1  0  0  0  0
  8  6  1  0  0  0  0
  9  4  1  0  0  0  0
 10  3  1  0  0  0  0
 11 10  2  0  0  0  0
 12 11  1  0  0  0  0
 12  7  1  0  0  0  0
 13 31  1  0  0  0  0
 13  2  2  0  0  0  0
 14 13  1  0  0  0  0
 15  2  1  0  0  0  0
 15  3  2  0  0  0  0
 16 14  2  0  0  0  0
 16 17  1  0  0  0  0
 17 15  1  0  0  0  0
 18 20  2  0  0  0  0
 18 23  1  0  0  0  0
 20 21  1  0  0  0  0
 21 24  1  0  0  0  0
 21 19  2  0  0  0  0
 22 19  1  0  0  0  0
 22  9  1  0  0  0  0
 23 22  2  0  0  0  0
 24 25  1  0  0  0  0
 26 27  1  0  0  0  0
 26 20  1  0  0  0  0
 28 27  1  0  0  0  0
 28 30  2  0  0  0  0
 29 28  1  0  0  0  0
 34 32  1  0  0  0  0
 34 33  1  0  0  0  0
 34 31  1  0  0  0  0
M  END
>  <MODEL>
4

>  <REMARK>
 VINA RESULT:      -7.6      1.500      1.907
  Name = 
  7 active torsions:
  status: ('A' for Active; 'I' for Inactive)
    1  A    between atoms: C_7  and  C_11
    2  A    between atoms: C_7  and  C_14
    3  A    between atoms: C_14  and  C_16
    4  A    between atoms: N_18  and  C_30
    5  A    between atoms: C_23  and  C_24
    6  A    between atoms: C_23  and  C_25
    7  A    between atoms: C_26  and  C_28
                            x       y       z     vdW  Elec       q    Type
                         _______ _______ _______ _____ _____    ______ ____

>  <TORSDO>
F 7

$$$$
=
 OpenBabel10272415193D

 34 37  0  0  0  0  0  0  0  0999 V2000
  187.7400  177.6030  141.1780 C   0  0  0  0  0  0  0  0  0  0  0  0
  186.3030  178.6100  144.4630 C   0  0  0  0  0  3  0  0  0  0  0  0
  185.6170  179.1410  142.2110 C   0  0  0  0  0  3  0  0  0  0  0  0
  189.5450  177.0240  139.6470 C   0  0  0  0  0  0  0  0  0  0  0  0
  188.8030  176.7680  140.6830 N   0  0  0  0  0  0  0  0  0  0  0  0
  188.1330  178.3360  138.0910 C   0  0  0  0  0  2  0  0  0  0  0  0
  185.6970  177.8780  138.1120 C   0  0  0  0  0  1  0  0  0  0  0  0
  189.4000  178.3310  138.9300 C   0  0  0  0  0  2  0  0  0  0  0  0
  190.5380  176.0620  139.2650 N   0  0  0  0  0  2  0  0  0  0  0  0
  185.7860  179.0160  140.8330 C   0  0  0  0  0  3  0  0  0  0  0  0
  186.8390  178.2570  140.3000 C   0  0  0  0  0  0  0  0  0  0  0  0
  186.9200  178.0820  138.8710 N   0  0  0  0  0  0  0  0  0  0  0  0
  187.1690  177.9540  145.3450 C   0  0  0  0  0  0  0  0  0  0  0  0
  188.2170  177.1760  144.8460 C   0  0  0  0  0  3  0  0  0  0  0  0
  186.4880  178.4940  143.0820 C   0  0  0  0  0  0  0  0  0  0  0  0
  188.4080  177.0560  143.4670 C   0  0  0  0  0  3  0  0  0  0  0  0
  187.5490  177.7090  142.5700 C   0  0  0  0  0  0  0  0  0  0  0  0
  193.6200  176.5660  137.2330 C   0  0  0  0  0  3  0  0  0  0  0  0
  191.0080  175.6550  136.8590 C   0  0  0  0  0  3  0  0  0  0  0  0
  193.2140  176.1310  135.9670 C   0  0  0  0  0  0  0  0  0  0  0  0
  191.8930  175.6820  135.7760 C   0  0  0  0  0  0  0  0  0  0  0  0
  191.4150  176.0890  138.1290 C   0  0  0  0  0  0  0  0  0  0  0  0
  192.7260  176.5410  138.3070 C   0  0  0  0  0  3  0  0  0  0  0  0
  191.4160  175.1960  134.4470 C   0  0  0  0  0  2  0  0  0  0  0  0
  191.0770  173.8450  134.5340 O   0  0  0  0  0  1  0  0  0  0  0  0
  194.1920  176.1870  134.8380 C   0  0  0  0  0  2  0  0  0  0  0  0
  195.4570  175.4300  135.2090 C   0  0  0  0  0  2  0  0  0  0  0  0
  196.6170  176.3680  135.2790 C   0  0  0  0  0  0  0  0  0  0  0  0
  196.6890  177.5280  134.3460 C   0  0  0  0  0  1  0  0  0  0  0  0
  197.4940  176.2030  136.1110 O   0  0  0  0  0  0  0  0  0  0  0  0
  186.9640  178.0680  146.8200 C   0  0  0  0  0  2  0  0  0  0  0  0
  188.2540  178.5540  148.8980 C   0  0  0  0  0  1  0  0  0  0  0  0
  188.3940  176.3260  147.8440 C   0  0  0  0  0  1  0  0  0  0  0  0
  188.2580  177.8100  147.5760 C   0  0  0  0  0  3  0  0  0  0  0  0
  1 17  1  0  0  0  0
  2 13  1  0  0  0  0
  3 15  1  0  0  0  0
  4  5  2  0  0  0  0
  5  1  1  0  0  0  0
  6 12  1  0  0  0  0
  6  8  1  0  0  0  0
  7 12  1  0  0  0  0
  8  4  1  0  0  0  0
  9  4  1  0  0  0  0
 10  3  2  0  0  0  0
 11 10  1  0  0  0  0
 11  1  2  0  0  0  0
 12 11  1  0  0  0  0
 13 31  1  0  0  0  0
 14 13  2  0  0  0  0
 15  2  2  0  0  0  0
 16 14  1  0  0  0  0
 17 15  1  0  0  0  0
 17 16  2  0  0  0  0
 18 23  1  0  0  0  0
 19 22  1  0  0  0  0
 20 18  2  0  0  0  0
 21 20  1  0  0  0  0
 21 19  2  0  0  0  0
 22 23  2  0  0  0  0
 22  9  1  0  0  0  0
 24 25  1  0  0  0  0
 24 21  1  0  0  0  0
 26 27  1  0  0  0  0
 26 20  1  0  0  0  0
 27 28  1  0  0  0  0
 28 30  2  0  0  0  0
 29 28  1  0  0  0  0
 31 34  1  0  0  0  0
 34 33  1  0  0  0  0
 34 32  1  0  0  0  0
M  END
>  <MODEL>
5

>  <REMARK>
 VINA RESULT:      -7.2      2.530      4.573
  Name = 
  7 active torsions:
  status: ('A' for Active; 'I' for Inactive)
    1  A    between atoms: C_7  and  C_11
    2  A    between atoms: C_7  and  C_14
    3  A    between atoms: C_14  and  C_16
    4  A    between atoms: N_18  and  C_30
    5  A    between atoms: C_23  and  C_24
    6  A    between atoms: C_23  and  C_25
    7  A    between atoms: C_26  and  C_28
                            x       y       z     vdW  Elec       q    Type
                         _______ _______ _______ _____ _____    ______ ____

>  <TORSDO>
F 7

$$$$
=
 OpenBabel10272415193D

 34 37  0  0  0  0  0  0  0  0999 V2000
  188.4810  178.3010  140.8930 C   0  0  0  0  0  0  0  0  0  0  0  0
  191.3210  177.2250  143.0480 C   0  0  0  0  0  3  0  0  0  0  0  0
  191.0990  177.2880  140.6460 C   0  0  0  0  0  3  0  0  0  0  0  0
  186.1280  178.5800  140.3260 C   0  0  0  0  0  0  0  0  0  0  0  0
  187.1670  178.8660  141.0530 N   0  0  0  0  0  0  0  0  0  0  0  0
  186.9940  178.0010  138.0780 C   0  0  0  0  0  2  0  0  0  0  0  0
  189.0750  179.1270  137.3410 C   0  0  0  0  0  1  0  0  0  0  0  0
  186.2170  177.5050  139.2870 C   0  0  0  0  0  2  0  0  0  0  0  0
  184.8980  179.2670  140.5960 N   0  0  0  0  0  2  0  0  0  0  0  0
  190.3520  177.5830  139.5080 C   0  0  0  0  0  3  0  0  0  0  0  0
  189.0450  178.0850  139.6100 C   0  0  0  0  0  0  0  0  0  0  0  0
  188.3450  178.4610  138.4070 N   0  0  0  0  0  0  0  0  0  0  0  0
  190.7900  177.4530  144.3230 C   0  0  0  0  0  0  0  0  0  0  0  0
  189.4980  177.9680  144.4590 C   0  0  0  0  0  3  0  0  0  0  0  0
  190.5600  177.5080  141.9110 C   0  0  0  0  0  0  0  0  0  0  0  0
  188.7320  178.2520  143.3260 C   0  0  0  0  0  3  0  0  0  0  0  0
  189.2500  178.0280  142.0420 C   0  0  0  0  0  0  0  0  0  0  0  0
  182.1600  180.0920  138.2070 C   0  0  0  0  0  3  0  0  0  0  0  0
  182.7420  178.1310  140.1060 C   0  0  0  0  0  3  0  0  0  0  0  0
  181.2540  179.0490  138.4230 C   0  0  0  0  0  0  0  0  0  0  0  0
  181.5430  178.0660  139.3890 C   0  0  0  0  0  0  0  0  0  0  0  0
  183.6520  179.1760  139.8880 C   0  0  0  0  0  0  0  0  0  0  0  0
  183.3530  180.1520  138.9330 C   0  0  0  0  0  3  0  0  0  0  0  0
  180.6140  176.9260  139.6470 C   0  0  0  0  0  2  0  0  0  0  0  0
  181.3490  175.7690  139.9090 O   0  0  0  0  0  1  0  0  0  0  0  0
  179.9820  179.0260  137.6390 C   0  0  0  0  0  2  0  0  0  0  0  0
  180.2880  179.0290  136.1500 C   0  0  0  0  0  2  0  0  0  0  0  0
  180.8430  177.7060  135.7350 C   0  0  0  0  0  0  0  0  0  0  0  0
  182.1660  177.6380  135.0550 C   0  0  0  0  0  1  0  0  0  0  0  0
  180.2280  176.6790  135.9720 O   0  0  0  0  0  0  0  0  0  0  0  0
  191.6070  177.1630  145.5390 C   0  0  0  0  0  2  0  0  0  0  0  0
  191.7530  175.4980  147.3900 C   0  0  0  0  0  1  0  0  0  0  0  0
  190.0500  177.2840  147.4600 C   0  0  0  0  0  1  0  0  0  0  0  0
  190.8170  176.3470  146.5510 C   0  0  0  0  0  3  0  0  0  0  0  0
  1  5  1  0  0  0  0
  1 17  1  0  0  0  0
  2 13  1  0  0  0  0
  3 15  1  0  0  0  0
  4  9  1  0  0  0  0
  4  5  2  0  0  0  0
  6 12  1  0  0  0  0
  6  8  1  0  0  0  0
  7 12  1  0  0  0  0
  8  4  1  0  0  0  0
 10 11  1  0  0  0  0
 10  3  2  0  0  0  0
 11  1  2  0  0  0  0
 12 11  1  0  0  0  0
 13 14  2  0  0  0  0
 13 31  1  0  0  0  0
 15 17  1  0  0  0  0
 15  2  2  0  0  0  0
 16 14  1  0  0  0  0
 17 16  2  0  0  0  0
 18 20  2  0  0  0  0
 18 23  1  0  0  0  0
 20 21  1  0  0  0  0
 21 24  1  0  0  0  0
 21 19  2  0  0  0  0
 22 19  1  0  0  0  0
 22  9  1  0  0  0  0
 23 22  2  0  0  0  0
 24 25  1  0  0  0  0
 26 20  1  0  0  0  0
 27 26  1  0  0  0  0
 28 30  2  0  0  0  0
 28 27  1  0  0  0  0
 29 28  1  0  0  0  0
 31 34  1  0  0  0  0
 34 32  1  0  0  0  0
 34 33  1  0  0  0  0
M  END
>  <MODEL>
6

>  <REMARK>
 VINA RESULT:      -6.8      4.493      9.332
  Name = 
  7 active torsions:
  status: ('A' for Active; 'I' for Inactive)
    1  A    between atoms: C_7  and  C_11
    2  A    between atoms: C_7  and  C_14
    3  A    between atoms: C_14  and  C_16
    4  A    between atoms: N_18  and  C_30
    5  A    between atoms: C_23  and  C_24
    6  A    between atoms: C_23  and  C_25
    7  A    between atoms: C_26  and  C_28
                            x       y       z     vdW  Elec       q    Type
                         _______ _______ _______ _____ _____    ______ ____

>  <TORSDO>
F 7

$$$$
=
 OpenBabel10272415193D

 34 37  0  0  0  0  0  0  0  0999 V2000
  186.3880  178.0230  144.5460 C   0  0  0  0  0  0  0  0  0  0  0  0
  189.5390  177.6760  146.5010 C   0  0  0  0  0  3  0  0  0  0  0  0
  187.3550  178.4690  147.1550 C   0  0  0  0  0  3  0  0  0  0  0  0
  185.0760  178.4650  142.5420 C   0  0  0  0  0  0  0  0  0  0  0  0
  185.9120  177.7350  143.2190 N   0  0  0  0  0  0  0  0  0  0  0  0
  183.6060  179.5610  144.2060 C   0  0  0  0  0  2  0  0  0  0  0  0
  183.1530  178.3250  146.3060 C   0  0  0  0  0  1  0  0  0  0  0  0
  184.6170  179.7790  143.0920 C   0  0  0  0  0  2  0  0  0  0  0  0
  184.6740  178.0110  141.2410 N   0  0  0  0  0  2  0  0  0  0  0  0
  186.0240  178.7410  146.8460 C   0  0  0  0  0  3  0  0  0  0  0  0
  185.5250  178.5290  145.5510 C   0  0  0  0  0  0  0  0  0  0  0  0
  184.1200  178.7380  145.3020 N   0  0  0  0  0  0  0  0  0  0  0  0
  190.4000  177.1550  145.5290 C   0  0  0  0  0  0  0  0  0  0  0  0
  189.9290  176.9160  144.2350 C   0  0  0  0  0  3  0  0  0  0  0  0
  188.2090  177.9620  146.1800 C   0  0  0  0  0  0  0  0  0  0  0  0
  188.6010  177.2000  143.9070 C   0  0  0  0  0  3  0  0  0  0  0  0
  187.7260  177.7230  144.8710 C   0  0  0  0  0  0  0  0  0  0  0  0
  183.2600  180.1790  138.5630 C   0  0  0  0  0  3  0  0  0  0  0  0
  182.3740  178.1970  140.3170 C   0  0  0  0  0  3  0  0  0  0  0  0
  181.9210  179.7750  138.5310 C   0  0  0  0  0  0  0  0  0  0  0  0
  181.4720  178.7830  139.4240 C   0  0  0  0  0  0  0  0  0  0  0  0
  183.7180  178.6000  140.3470 C   0  0  0  0  0  0  0  0  0  0  0  0
  184.1520  179.5920  139.4640 C   0  0  0  0  0  3  0  0  0  0  0  0
  180.0560  178.3090  139.4200 C   0  0  0  0  0  2  0  0  0  0  0  0
  179.9830  177.0400  139.9970 O   0  0  0  0  0  1  0  0  0  0  0  0
  180.9920  180.4370  137.5650 C   0  0  0  0  0  2  0  0  0  0  0  0
  180.5610  181.7920  138.1020 C   0  0  0  0  0  2  0  0  0  0  0  0
  180.7500  182.8430  137.0580 C   0  0  0  0  0  0  0  0  0  0  0  0
  181.4540  184.1100  137.4020 C   0  0  0  0  0  1  0  0  0  0  0  0
  180.3510  182.6600  135.9200 O   0  0  0  0  0  0  0  0  0  0  0  0
  191.8180  176.8380  145.8750 C   0  0  0  0  0  2  0  0  0  0  0  0
  192.6290  174.4970  145.5860 C   0  0  0  0  0  1  0  0  0  0  0  0
  192.7340  175.5820  147.8010 C   0  0  0  0  0  1  0  0  0  0  0  0
  191.9320  175.4670  146.5220 C   0  0  0  0  0  3  0  0  0  0  0  0
  1 17  2  0  0  0  0
  1 11  1  0  0  0  0
  4  8  1  0  0  0  0
  4  5  2  0  0  0  0
  5  1  1  0  0  0  0
  6 12  1  0  0  0  0
  8  6  1  0  0  0  0
  9  4  1  0  0  0  0
 10  3  1  0  0  0  0
 11 10  2  0  0  0  0
 12 11  1  0  0  0  0
 12  7  1  0  0  0  0
 13 31  1  0  0  0  0
 13  2  2  0  0  0  0
 14 13  1  0  0  0  0
 15  2  1  0  0  0  0
 15  3  2  0  0  0  0
 16 14  2  0  0  0  0
 16 17  1  0  0  0  0
 17 15  1  0  0  0  0
 18 23  1  0  0  0  0
 19 22  1  0  0  0  0
 20 18  2  0  0  0  0
 20 21  1  0  0  0  0
 21 19  2  0  0  0  0
 22  9  1  0  0  0  0
 23 22  2  0  0  0  0
 24 21  1  0  0  0  0
 24 25  1  0  0  0  0
 26 27  1  0  0  0  0
 26 20  1  0  0  0  0
 28 29  1  0  0  0  0
 28 27  1  0  0  0  0
 30 28  2  0  0  0  0
 31 34  1  0  0  0  0
 32 34  1  0  0  0  0
 34 33  1  0  0  0  0
M  END
>  <MODEL>
7

>  <REMARK>
 VINA RESULT:      -6.8      5.520      9.721
  Name = 
  7 active torsions:
  status: ('A' for Active; 'I' for Inactive)
    1  A    between atoms: C_7  and  C_11
    2  A    between atoms: C_7  and  C_14
    3  A    between atoms: C_14  and  C_16
    4  A    between atoms: N_18  and  C_30
    5  A    between atoms: C_23  and  C_24
    6  A    between atoms: C_23  and  C_25
    7  A    between atoms: C_26  and  C_28
                            x       y       z     vdW  Elec       q    Type
                         _______ _______ _______ _____ _____    ______ ____

>  <TORSDO>
F 7

$$$$
=
 OpenBabel10272415193D

 34 37  0  0  0  0  0  0  0  0999 V2000
  187.0750  178.4010  140.7510 C   0  0  0  0  0  0  0  0  0  0  0  0
  185.9330  178.3630  137.2070 C   0  0  0  0  0  3  0  0  0  0  0  0
  184.6870  178.5590  139.2650 C   0  0  0  0  0  3  0  0  0  0  0  0
  188.5140  177.7590  142.6090 C   0  0  0  0  0  0  0  0  0  0  0  0
  188.3170  178.3690  141.4790 N   0  0  0  0  0  0  0  0  0  0  0  0
  186.3450  177.7950  143.8050 C   0  0  0  0  0  2  0  0  0  0  0  0
  184.8540  179.7300  143.3890 C   0  0  0  0  0  1  0  0  0  0  0  0
  187.4290  176.9150  143.2030 C   0  0  0  0  0  2  0  0  0  0  0  0
  189.8080  177.8610  143.2220 N   0  0  0  0  0  2  0  0  0  0  0  0
  184.6520  178.6340  140.6560 C   0  0  0  0  0  3  0  0  0  0  0  0
  185.8300  178.5540  141.4140 C   0  0  0  0  0  0  0  0  0  0  0  0
  185.7550  178.7270  142.8430 N   0  0  0  0  0  0  0  0  0  0  0  0
  187.1540  178.2350  136.5350 C   0  0  0  0  0  0  0  0  0  0  0  0
  188.3460  178.1690  137.2590 C   0  0  0  0  0  3  0  0  0  0  0  0
  185.9040  178.4210  138.6030 C   0  0  0  0  0  0  0  0  0  0  0  0
  188.3240  178.2260  138.6560 C   0  0  0  0  0  3  0  0  0  0  0  0
  187.1090  178.3530  139.3440 C   0  0  0  0  0  0  0  0  0  0  0  0
  191.7860  175.9450  145.7320 C   0  0  0  0  0  3  0  0  0  0  0  0
  189.6240  177.7100  145.6960 C   0  0  0  0  0  3  0  0  0  0  0  0
  191.1750  176.3150  146.9350 C   0  0  0  0  0  0  0  0  0  0  0  0
  190.0770  177.1970  146.9150 C   0  0  0  0  0  0  0  0  0  0  0  0
  190.2380  177.3420  144.4900 C   0  0  0  0  0  0  0  0  0  0  0  0
  191.3210  176.4590  144.5180 C   0  0  0  0  0  3  0  0  0  0  0  0
  189.3990  177.6300  148.1730 C   0  0  0  0  0  2  0  0  0  0  0  0
  188.0610  177.2340  148.1470 O   0  0  0  0  0  1  0  0  0  0  0  0
  191.6880  175.7330  148.2120 C   0  0  0  0  0  2  0  0  0  0  0  0
  193.1580  176.0790  148.3880 C   0  0  0  0  0  2  0  0  0  0  0  0
  193.3230  177.0890  149.4750 C   0  0  0  0  0  0  0  0  0  0  0  0
  194.3600  176.8850  150.5250 C   0  0  0  0  0  1  0  0  0  0  0  0
  192.6290  178.0920  149.4940 O   0  0  0  0  0  0  0  0  0  0  0  0
  187.1860  178.1850  135.0430 C   0  0  0  0  0  2  0  0  0  0  0  0
  188.5080  176.0930  134.7380 C   0  0  0  0  0  1  0  0  0  0  0  0
  186.1090  175.9720  135.3080 C   0  0  0  0  0  1  0  0  0  0  0  0
  187.1560  176.7510  134.5390 C   0  0  0  0  0  3  0  0  0  0  0  0
  1 11  1  0  0  0  0
  1  5  1  0  0  0  0
  2 15  1  0  0  0  0
  3 10  1  0  0  0  0
  4  8  1  0  0  0  0
  4  9  1  0  0  0  0
  5  4  2  0  0  0  0
  8  6  1  0  0  0  0
  9 22  1  0  0  0  0
 10 11  2  0  0  0  0
 11 12  1  0  0  0  0
 12  7  1  0  0  0  0
 12  6  1  0  0  0  0
 13  2  2  0  0  0  0
 13 14  1  0  0  0  0
 14 16  2  0  0  0  0
 15  3  2  0  0  0  0
 15 17  1  0  0  0  0
 16 17  1  0  0  0  0
 17  1  2  0  0  0  0
 18 20  1  0  0  0  0
 19 21  1  0  0  0  0
 20 26  1  0  0  0  0
 21 20  2  0  0  0  0
 21 24  1  0  0  0  0
 22 23  1  0  0  0  0
 22 19  2  0  0  0  0
 23 18  2  0  0  0  0
 25 24  1  0  0  0  0
 26 27  1  0  0  0  0
 27 28  1  0  0  0  0
 28 30  2  0  0  0  0
 28 29  1  0  0  0  0
 31 13  1  0  0  0  0
 34 32  1  0  0  0  0
 34 31  1  0  0  0  0
 34 33  1  0  0  0  0
M  END
>  <MODEL>
8

>  <REMARK>
 VINA RESULT:      -6.6      4.542      8.149
  Name = 
  7 active torsions:
  status: ('A' for Active; 'I' for Inactive)
    1  A    between atoms: C_7  and  C_11
    2  A    between atoms: C_7  and  C_14
    3  A    between atoms: C_14  and  C_16
    4  A    between atoms: N_18  and  C_30
    5  A    between atoms: C_23  and  C_24
    6  A    between atoms: C_23  and  C_25
    7  A    between atoms: C_26  and  C_28
                            x       y       z     vdW  Elec       q    Type
                         _______ _______ _______ _____ _____    ______ ____

>  <TORSDO>
F 7

$$$$
=
 OpenBabel10272415193D

 34 37  0  0  0  0  0  0  0  0999 V2000
  190.4110  176.3990  138.4350 C   0  0  0  0  0  0  0  0  0  0  0  0
  188.4380  178.4300  140.8540 C   0  0  0  0  0  3  0  0  0  0  0  0
  188.3750  178.3470  138.4430 C   0  0  0  0  0  3  0  0  0  0  0  0
  192.4040  175.2510  137.6320 C   0  0  0  0  0  0  0  0  0  0  0  0
  191.4150  175.3680  138.4670 N   0  0  0  0  0  0  0  0  0  0  0  0
  191.6070  176.1760  135.4770 C   0  0  0  0  0  2  0  0  0  0  0  0
  189.1900  175.9550  134.9760 C   0  0  0  0  0  1  0  0  0  0  0  0
  192.6320  176.3030  136.5920 C   0  0  0  0  0  2  0  0  0  0  0  0
  193.2960  174.1380  137.7850 N   0  0  0  0  0  2  0  0  0  0  0  0
  188.8320  177.8160  137.2380 C   0  0  0  0  0  3  0  0  0  0  0  0
  189.8470  176.8480  137.2130 C   0  0  0  0  0  0  0  0  0  0  0  0
  190.2240  176.2630  135.9510 N   0  0  0  0  0  0  0  0  0  0  0  0
  188.9660  177.9830  142.0700 C   0  0  0  0  0  0  0  0  0  0  0  0
  189.9660  177.0070  142.0810 C   0  0  0  0  0  3  0  0  0  0  0  0
  188.9120  177.9050  139.6480 C   0  0  0  0  0  0  0  0  0  0  0  0
  190.4450  176.4790  140.8790 C   0  0  0  0  0  3  0  0  0  0  0  0
  189.9260  176.9180  139.6520 C   0  0  0  0  0  0  0  0  0  0  0  0
  195.2900  172.2850  135.2400 C   0  0  0  0  0  3  0  0  0  0  0  0
  195.6200  174.4570  136.9630 C   0  0  0  0  0  3  0  0  0  0  0  0
  196.5030  172.9820  135.2500 C   0  0  0  0  0  0  0  0  0  0  0  0
  196.6730  174.0700  136.1280 C   0  0  0  0  0  0  0  0  0  0  0  0
  194.4020  173.7600  136.9510 C   0  0  0  0  0  0  0  0  0  0  0  0
  194.2460  172.6750  136.0830 C   0  0  0  0  0  3  0  0  0  0  0  0
  197.9440  174.8520  136.1670 C   0  0  0  0  0  2  0  0  0  0  0  0
  197.6780  176.1630  136.5660 O   0  0  0  0  0  1  0  0  0  0  0  0
  197.6020  172.5260  134.3470 C   0  0  0  0  0  2  0  0  0  0  0  0
  198.1280  171.1760  134.8060 C   0  0  0  0  0  2  0  0  0  0  0  0
  199.0490  171.3500  135.9690 C   0  0  0  0  0  0  0  0  0  0  0  0
  198.7250  170.7070  137.2730 C   0  0  0  0  0  1  0  0  0  0  0  0
  200.0770  171.9970  135.8490 O   0  0  0  0  0  0  0  0  0  0  0  0
  188.4510  178.5340  143.3590 C   0  0  0  0  0  2  0  0  0  0  0  0
  189.0520  177.6750  145.6220 C   0  0  0  0  0  1  0  0  0  0  0  0
  186.7560  177.3950  144.7580 C   0  0  0  0  0  1  0  0  0  0  0  0
  188.2210  177.4280  144.3770 C   0  0  0  0  0  3  0  0  0  0  0  0
  1  5  1  0  0  0  0
  1 17  1  0  0  0  0
  2 13  1  0  0  0  0
  3 15  1  0  0  0  0
  4  9  1  0  0  0  0
  4  5  2  0  0  0  0
  6 12  1  0  0  0  0
  6  8  1  0  0  0  0
  7 12  1  0  0  0  0
  8  4  1  0  0  0  0
 10  3  2  0  0  0  0
 11 10  1  0  0  0  0
 11  1  2  0  0  0  0
 12 11  1  0  0  0  0
 13 14  2  0  0  0  0
 13 31  1  0  0  0  0
 15 17  1  0  0  0  0
 15  2  2  0  0  0  0
 16 14  1  0  0  0  0
 17 16  2  0  0  0  0
 18 20  2  0  0  0  0
 18 23  1  0  0  0  0
 20 21  1  0  0  0  0
 21 24  1  0  0  0  0
 21 19  2  0  0  0  0
 22 19  1  0  0  0  0
 22  9  1  0  0  0  0
 23 22  2  0  0  0  0
 24 25  1  0  0  0  0
 26 27  1  0  0  0  0
 26 20  1  0  0  0  0
 27 28  1  0  0  0  0
 28 29  1  0  0  0  0
 30 28  2  0  0  0  0
 31 34  1  0  0  0  0
 34 33  1  0  0  0  0
 34 32  1  0  0  0  0
M  END
>  <MODEL>
9

>  <REMARK>
 VINA RESULT:      -6.5      3.342      6.591
  Name = 
  7 active torsions:
  status: ('A' for Active; 'I' for Inactive)
    1  A    between atoms: C_7  and  C_11
    2  A    between atoms: C_7  and  C_14
    3  A    between atoms: C_14  and  C_16
    4  A    between atoms: N_18  and  C_30
    5  A    between atoms: C_23  and  C_24
    6  A    between atoms: C_23  and  C_25
    7  A    between atoms: C_26  and  C_28
                            x       y       z     vdW  Elec       q    Type
                         _______ _______ _______ _____ _____    ______ ____

>  <TORSDO>
F 7

$$$$
