=
 OpenBabel10272400473D

 25 28  0  0  1  0  0  0  0  0999 V2000
  187.3800  177.7770  145.7600 C   0  0  0  0  0  0  0  0  0  0  0  0
  188.7240  177.3520  145.5330 C   0  0  2  0  0  3  0  0  0  0  0  0
  187.8360  178.1560  148.1190 C   0  0  0  0  0  3  0  0  0  0  0  0
  186.2320  178.0440  144.8810 C   0  0  0  0  0  0  0  0  0  0  0  0
  183.8270  178.8260  143.6970 C   0  0  0  0  0  3  0  0  0  0  0  0
  189.1700  177.8130  147.9090 C   0  0  0  0  0  3  0  0  0  0  0  0
  185.1700  178.4750  145.6600 C   0  0  0  0  0  0  0  0  0  0  0  0
  183.9570  178.8670  145.0910 C   0  0  0  0  0  3  0  0  0  0  0  0
  191.4130  176.6880  145.2940 C   0  0  0  0  0  3  0  0  0  0  0  0
  190.9290  177.1080  146.4850 N   0  0  0  0  0  0  0  0  0  0  0  0
  189.2550  176.8450  144.3170 C   0  0  0  0  0  0  0  0  0  0  0  0
  184.9080  178.4190  142.8980 C   0  0  0  0  0  3  0  0  0  0  0  0
  186.9600  178.1290  147.0420 C   0  0  0  0  0  0  0  0  0  0  0  0
  185.5270  178.5480  147.1020 C   0  0  0  0  0  3  0  0  0  0  0  0
  190.5790  176.5480  144.2360 N   0  0  0  0  0  0  0  0  0  0  0  0
  186.1210  178.0410  143.4880 C   0  0  0  0  0  3  0  0  0  0  0  0
  189.6200  177.4260  146.6390 C   0  0  0  0  0  0  0  0  0  0  0  0
  188.4170  176.4600  143.1450 C   0  0  0  0  0  2  0  0  0  0  0  0
  189.1490  176.7270  141.8340 C   0  0  0  0  0  2  0  0  0  0  0  0
  188.9140  178.1480  141.3380 C   0  0  0  0  0  2  0  0  0  0  0  0
  188.2050  178.1610  140.0160 C   0  0  0  0  0  0  0  0  0  0  0  0
  187.0590  178.5750  139.9500 O   0  0  0  0  0  0  0  0  0  0  0  0
  188.8850  177.6860  138.7690 C   0  0  1  0  0  3  0  0  0  0  0  0
  188.1610  176.6420  138.1950 O   0  0  0  0  0  1  0  0  0  0  0  0
  189.0510  178.8130  137.7660 C   0  0  0  0  0  1  0  0  0  0  0  0
  1 13  1  0  0  0  0
  2 11  1  1  0  0  0
  2  1  1  0  0  0  0
  2 17  1  0  0  0  0
  4  7  1  0  0  0  0
  4  1  2  0  0  0  0
  5  8  2  0  0  0  0
  6  3  1  0  0  0  0
  7 14  2  0  0  0  0
  8  7  1  0  0  0  0
  9 10  2  0  0  0  0
 10 17  1  0  0  0  0
 12 16  2  0  0  0  0
 12  5  1  0  0  0  0
 13 14  1  0  0  0  0
 13  3  2  0  0  0  0
 15 11  2  0  0  0  0
 15  9  1  0  0  0  0
 16  4  1  0  0  0  0
 17  6  2  0  0  0  0
 18 11  1  0  0  0  0
 19 18  1  0  0  0  0
 20 19  1  0  0  0  0
 21 20  1  0  0  0  0
 22 21  2  0  0  0  0
 23 25  1  6  0  0  0
 23 21  1  0  0  0  0
 24 23  1  0  0  0  0
M  END
>  <MODEL>
1

>  <REMARK>
 VINA RESULT:     -10.5      0.000      0.000
  Name = 
  5 active torsions:
  status: ('A' for Active; 'I' for Inactive)
    1  A    between atoms: C_2  and  C_21
    2  A    between atoms: C_6  and  C_15
    3  A    between atoms: C_6  and  C_23
    4  A    between atoms: C_15  and  C_21
    5  A    between atoms: C_16  and  C_23
                            x       y       z     vdW  Elec       q    Type
                         _______ _______ _______ _____ _____    ______ ____

>  <TORSDO>
F 5

$$$$
=
 OpenBabel10272400473D

 25 28  0  0  1  0  0  0  0  0999 V2000
  185.8740  178.4300  144.6000 C   0  0  0  0  0  0  0  0  0  0  0  0
  185.5920  178.5420  143.2050 C   0  0  0  0  0  0  0  0  0  0  0  0
  183.5590  178.9140  145.1690 C   0  0  0  0  0  3  0  0  0  0  0  0
  187.0550  178.0150  145.3720 C   0  0  0  0  0  0  0  0  0  0  0  0
  188.9060  177.1910  147.2930 C   0  0  0  0  0  3  0  0  0  0  0  0
  183.2430  178.9600  143.8120 C   0  0  0  0  0  3  0  0  0  0  0  0
  186.7420  178.0670  146.7210 C   0  0  0  0  0  0  0  0  0  0  0  0
  187.6520  177.6640  147.6990 C   0  0  0  0  0  3  0  0  0  0  0  0
  184.7900  178.6790  140.5470 C   0  0  0  0  0  3  0  0  0  0  0  0
  183.8730  178.8150  141.5310 N   0  0  0  0  0  0  0  0  0  0  0  0
  186.5330  178.4690  142.1450 C   0  0  1  0  0  3  0  0  0  0  0  0
  189.2220  177.1070  145.9270 C   0  0  0  0  0  3  0  0  0  0  0  0
  184.8720  178.6540  145.5420 C   0  0  0  0  0  0  0  0  0  0  0  0
  185.3370  178.4960  146.9530 C   0  0  0  0  0  3  0  0  0  0  0  0
  186.0990  178.5230  140.8570 N   0  0  0  0  0  0  0  0  0  0  0  0
  188.2890  177.5040  144.9590 C   0  0  0  0  0  3  0  0  0  0  0  0
  184.2330  178.7680  142.8380 C   0  0  0  0  0  0  0  0  0  0  0  0
  188.0100  178.4950  142.3460 C   0  0  0  0  0  2  0  0  0  0  0  0
  188.7450  178.0250  141.0950 C   0  0  0  0  0  2  0  0  0  0  0  0
  189.6580  176.8420  141.3910 C   0  0  0  0  0  2  0  0  0  0  0  0
  191.0970  177.2600  141.4700 C   0  0  0  0  0  0  0  0  0  0  0  0
  191.6930  177.5620  140.4480 O   0  0  0  0  0  0  0  0  0  0  0  0
  191.8130  177.3270  142.7830 C   0  0  1  0  0  3  0  0  0  0  0  0
  191.4270  178.4690  143.4840 O   0  0  0  0  0  1  0  0  0  0  0  0
  191.5480  176.0910  143.6220 C   0  0  0  0  0  1  0  0  0  0  0  0
  1  4  1  0  0  0  0
  1 13  1  0  0  0  0
  2  1  2  0  0  0  0
  3 13  1  0  0  0  0
  4  7  1  0  0  0  0
  5  8  1  0  0  0  0
  6  3  2  0  0  0  0
  7 14  1  0  0  0  0
  7  8  2  0  0  0  0
  9 15  2  0  0  0  0
  9 10  1  0  0  0  0
 10 17  2  0  0  0  0
 11 18  1  1  0  0  0
 11  2  1  0  0  0  0
 12  5  2  0  0  0  0
 13 14  2  0  0  0  0
 15 11  1  0  0  0  0
 16  4  2  0  0  0  0
 16 12  1  0  0  0  0
 17  2  1  0  0  0  0
 17  6  1  0  0  0  0
 19 20  1  0  0  0  0
 19 18  1  0  0  0  0
 20 21  1  0  0  0  0
 21 23  1  0  0  0  0
 22 21  2  0  0  0  0
 23 24  1  0  0  0  0
 23 25  1  1  0  0  0
M  END
>  <MODEL>
2

>  <REMARK>
 VINA RESULT:      -9.8      2.626      4.958
  Name = 
  5 active torsions:
  status: ('A' for Active; 'I' for Inactive)
    1  A    between atoms: C_2  and  C_21
    2  A    between atoms: C_6  and  C_15
    3  A    between atoms: C_6  and  C_23
    4  A    between atoms: C_15  and  C_21
    5  A    between atoms: C_16  and  C_23
                            x       y       z     vdW  Elec       q    Type
                         _______ _______ _______ _____ _____    ______ ____

>  <TORSDO>
F 5

$$$$
=
 OpenBabel10272400473D

 25 28  0  0  1  0  0  0  0  0999 V2000
  187.5320  177.8120  145.2970 C   0  0  0  0  0  0  0  0  0  0  0  0
  186.1710  178.1580  145.0420 C   0  0  2  0  0  3  0  0  0  0  0  0
  187.2990  178.3850  147.6490 C   0  0  0  0  0  3  0  0  0  0  0  0
  188.5960  177.1920  144.4930 C   0  0  0  0  0  0  0  0  0  0  0  0
  190.8850  175.9420  143.4980 C   0  0  0  0  0  3  0  0  0  0  0  0
  185.9480  178.6620  147.4410 C   0  0  0  0  0  3  0  0  0  0  0  0
  189.7280  177.0620  145.2820 C   0  0  0  0  0  0  0  0  0  0  0  0
  190.8850  176.4440  144.8050 C   0  0  0  0  0  3  0  0  0  0  0  0
  183.4680  178.7630  144.8000 C   0  0  0  0  0  3  0  0  0  0  0  0
  184.0620  178.8180  146.0140 N   0  0  0  0  0  0  0  0  0  0  0  0
  185.5280  178.1750  143.7750 C   0  0  0  0  0  0  0  0  0  0  0  0
  189.7330  176.0430  142.7010 C   0  0  0  0  0  3  0  0  0  0  0  0
  188.0710  177.9680  146.5730 C   0  0  0  0  0  0  0  0  0  0  0  0
  189.5050  177.5600  146.6650 C   0  0  0  0  0  3  0  0  0  0  0  0
  184.2000  178.4590  143.7020 N   0  0  0  0  0  0  0  0  0  0  0  0
  188.5770  176.6560  143.2020 C   0  0  0  0  0  3  0  0  0  0  0  0
  185.3820  178.5440  146.1630 C   0  0  0  0  0  0  0  0  0  0  0  0
  186.2510  178.0530  142.4780 C   0  0  0  0  0  2  0  0  0  0  0  0
  185.9570  179.2410  141.5690 C   0  0  0  0  0  2  0  0  0  0  0  0
  185.5580  178.7930  140.1690 C   0  0  0  0  0  2  0  0  0  0  0  0
  184.2180  179.3410  139.7740 C   0  0  0  0  0  0  0  0  0  0  0  0
  184.1570  180.2960  139.0160 O   0  0  0  0  0  0  0  0  0  0  0  0
  182.9500  178.7300  140.2850 C   0  0  1  0  0  3  0  0  0  0  0  0
  181.8500  179.3050  139.6510 O   0  0  0  0  0  1  0  0  0  0  0  0
  182.9380  177.2260  140.0790 C   0  0  0  0  0  1  0  0  0  0  0  0
  1 13  1  0  0  0  0
  2 11  1  6  0  0  0
  2  1  1  0  0  0  0
  2 17  1  0  0  0  0
  4  7  1  0  0  0  0
  4  1  2  0  0  0  0
  5  8  2  0  0  0  0
  6  3  1  0  0  0  0
  7 14  2  0  0  0  0
  8  7  1  0  0  0  0
  9 10  2  0  0  0  0
 10 17  1  0  0  0  0
 12 16  2  0  0  0  0
 12  5  1  0  0  0  0
 13 14  1  0  0  0  0
 13  3  2  0  0  0  0
 15 11  2  0  0  0  0
 15  9  1  0  0  0  0
 16  4  1  0  0  0  0
 17  6  2  0  0  0  0
 18 11  1  0  0  0  0
 19 18  1  0  0  0  0
 20 19  1  0  0  0  0
 21 20  1  0  0  0  0
 21 23  1  0  0  0  0
 22 21  2  0  0  0  0
 23 25  1  6  0  0  0
 24 23  1  0  0  0  0
M  END
>  <MODEL>
3

>  <REMARK>
 VINA RESULT:      -9.6      2.784      4.957
  Name = 
  5 active torsions:
  status: ('A' for Active; 'I' for Inactive)
    1  A    between atoms: C_2  and  C_21
    2  A    between atoms: C_6  and  C_15
    3  A    between atoms: C_6  and  C_23
    4  A    between atoms: C_15  and  C_21
    5  A    between atoms: C_16  and  C_23
                            x       y       z     vdW  Elec       q    Type
                         _______ _______ _______ _____ _____    ______ ____

>  <TORSDO>
F 5

$$$$
=
 OpenBabel10272400473D

 25 28  0  0  1  0  0  0  0  0999 V2000
  187.7290  177.8530  145.4280 C   0  0  0  0  0  0  0  0  0  0  0  0
  186.8150  178.0340  144.3470 C   0  0  0  0  0  0  0  0  0  0  0  0
  185.9890  178.3230  147.0600 C   0  0  0  0  0  3  0  0  0  0  0  0
  189.1240  177.3930  145.5190 C   0  0  0  0  0  0  0  0  0  0  0  0
  191.6460  176.4660  146.2760 C   0  0  0  0  0  3  0  0  0  0  0  0
  185.0600  178.4360  146.0260 C   0  0  0  0  0  3  0  0  0  0  0  0
  189.4990  177.3810  146.8530 C   0  0  0  0  0  0  0  0  0  0  0  0
  190.7560  176.9270  147.2550 C   0  0  0  0  0  3  0  0  0  0  0  0
  184.8380  178.3040  142.4110 C   0  0  0  0  0  3  0  0  0  0  0  0
  184.5120  178.3980  143.7200 N   0  0  0  0  0  0  0  0  0  0  0  0
  187.1280  178.0070  142.9620 C   0  0  1  0  0  3  0  0  0  0  0  0
  191.2630  176.4460  144.9250 C   0  0  0  0  0  3  0  0  0  0  0  0
  187.3100  178.0370  146.7450 C   0  0  0  0  0  0  0  0  0  0  0  0
  188.3920  177.8080  147.7490 C   0  0  0  0  0  3  0  0  0  0  0  0
  186.1300  178.1260  142.0470 N   0  0  0  0  0  0  0  0  0  0  0  0
  189.9920  176.8960  144.5430 C   0  0  0  0  0  3  0  0  0  0  0  0
  185.4540  178.2860  144.6890 C   0  0  0  0  0  0  0  0  0  0  0  0
  188.5200  178.0130  142.4290 C   0  0  0  0  0  2  0  0  0  0  0  0
  188.5980  177.2980  141.0840 C   0  0  0  0  0  2  0  0  0  0  0  0
  189.4420  178.0760  140.0820 C   0  0  0  0  0  2  0  0  0  0  0  0
  188.6440  178.4650  138.8730 C   0  0  0  0  0  0  0  0  0  0  0  0
  189.0660  179.3350  138.1270 O   0  0  0  0  0  0  0  0  0  0  0  0
  187.3420  177.7970  138.5560 C   0  0  1  0  0  3  0  0  0  0  0  0
  186.2940  178.7100  138.6700 O   0  0  0  0  0  1  0  0  0  0  0  0
  187.3530  177.1930  137.1640 C   0  0  0  0  0  1  0  0  0  0  0  0
  1  4  1  0  0  0  0
  1 13  1  0  0  0  0
  2 17  1  0  0  0  0
  2  1  2  0  0  0  0
  4  7  1  0  0  0  0
  5  8  1  0  0  0  0
  6  3  2  0  0  0  0
  7  8  2  0  0  0  0
  7 14  1  0  0  0  0
  9 10  1  0  0  0  0
 10 17  2  0  0  0  0
 11 18  1  1  0  0  0
 11  2  1  0  0  0  0
 12  5  2  0  0  0  0
 13  3  1  0  0  0  0
 13 14  2  0  0  0  0
 15  9  2  0  0  0  0
 15 11  1  0  0  0  0
 16 12  1  0  0  0  0
 16  4  2  0  0  0  0
 17  6  1  0  0  0  0
 19 18  1  0  0  0  0
 20 19  1  0  0  0  0
 21 20  1  0  0  0  0
 22 21  2  0  0  0  0
 23 25  1  6  0  0  0
 23 24  1  0  0  0  0
 23 21  1  0  0  0  0
M  END
>  <MODEL>
4

>  <REMARK>
 VINA RESULT:      -9.4      2.002      4.281
  Name = 
  5 active torsions:
  status: ('A' for Active; 'I' for Inactive)
    1  A    between atoms: C_2  and  C_21
    2  A    between atoms: C_6  and  C_15
    3  A    between atoms: C_6  and  C_23
    4  A    between atoms: C_15  and  C_21
    5  A    between atoms: C_16  and  C_23
                            x       y       z     vdW  Elec       q    Type
                         _______ _______ _______ _____ _____    ______ ____

>  <TORSDO>
F 5

$$$$
=
 OpenBabel10272400473D

 25 28  0  0  1  0  0  0  0  0999 V2000
  185.4110  178.5400  143.5960 C   0  0  0  0  0  0  0  0  0  0  0  0
  185.3300  178.6180  142.1740 C   0  0  0  0  0  0  0  0  0  0  0  0
  183.0250  178.9590  143.8150 C   0  0  0  0  0  3  0  0  0  0  0  0
  186.4800  178.1770  144.5390 C   0  0  0  0  0  0  0  0  0  0  0  0
  188.0580  177.4470  146.7240 C   0  0  0  0  0  3  0  0  0  0  0  0
  182.9070  178.9700  142.4260 C   0  0  0  0  0  3  0  0  0  0  0  0
  185.9730  178.2420  145.8280 C   0  0  0  0  0  0  0  0  0  0  0  0
  186.7440  177.8870  146.9350 C   0  0  0  0  0  3  0  0  0  0  0  0
  184.9170  178.6820  139.4250 C   0  0  0  0  0  3  0  0  0  0  0  0
  183.8640  178.8050  140.2640 N   0  0  0  0  0  0  0  0  0  0  0  0
  186.4170  178.5570  141.2610 C   0  0  1  0  0  3  0  0  0  0  0  0
  188.5690  177.3490  145.4200 C   0  0  0  0  0  3  0  0  0  0  0  0
  184.2770  178.7480  144.3800 C   0  0  0  0  0  0  0  0  0  0  0  0
  184.5380  178.6300  145.8450 C   0  0  0  0  0  3  0  0  0  0  0  0
  186.1710  178.5740  139.9240 N   0  0  0  0  0  0  0  0  0  0  0  0
  187.7750  177.6990  144.3200 C   0  0  0  0  0  3  0  0  0  0  0  0
  184.0330  178.7930  141.6100 C   0  0  0  0  0  0  0  0  0  0  0  0
  187.8470  178.6330  141.6730 C   0  0  0  0  0  2  0  0  0  0  0  0
  188.6740  177.5430  140.9990 C   0  0  0  0  0  2  0  0  0  0  0  0
  190.1620  177.7120  141.2790 C   0  0  0  0  0  2  0  0  0  0  0  0
  190.6400  176.7470  142.3240 C   0  0  0  0  0  0  0  0  0  0  0  0
  190.1550  175.6280  142.3790 O   0  0  0  0  0  0  0  0  0  0  0  0
  191.7140  177.1280  143.2950 C   0  0  1  0  0  3  0  0  0  0  0  0
  191.5750  178.4650  143.6660 O   0  0  0  0  0  1  0  0  0  0  0  0
  191.6840  176.2440  144.5290 C   0  0  0  0  0  1  0  0  0  0  0  0
  1 13  1  0  0  0  0
  1  4  1  0  0  0  0
  2  1  2  0  0  0  0
  3 13  1  0  0  0  0
  4  7  1  0  0  0  0
  5  8  1  0  0  0  0
  6  3  2  0  0  0  0
  7 14  1  0  0  0  0
  7  8  2  0  0  0  0
  9 15  2  0  0  0  0
  9 10  1  0  0  0  0
 10 17  2  0  0  0  0
 11 18  1  1  0  0  0
 11  2  1  0  0  0  0
 12  5  2  0  0  0  0
 13 14  2  0  0  0  0
 15 11  1  0  0  0  0
 16  4  2  0  0  0  0
 16 12  1  0  0  0  0
 17  2  1  0  0  0  0
 17  6  1  0  0  0  0
 19 20  1  0  0  0  0
 19 18  1  0  0  0  0
 20 21  1  0  0  0  0
 21 22  2  0  0  0  0
 21 23  1  0  0  0  0
 23 24  1  0  0  0  0
 23 25  1  1  0  0  0
M  END
>  <MODEL>
5

>  <REMARK>
 VINA RESULT:      -9.3      2.868      5.307
  Name = 
  5 active torsions:
  status: ('A' for Active; 'I' for Inactive)
    1  A    between atoms: C_2  and  C_21
    2  A    between atoms: C_6  and  C_15
    3  A    between atoms: C_6  and  C_23
    4  A    between atoms: C_15  and  C_21
    5  A    between atoms: C_16  and  C_23
                            x       y       z     vdW  Elec       q    Type
                         _______ _______ _______ _____ _____    ______ ____

>  <TORSDO>
F 5

$$$$
=
 OpenBabel10272400473D

 25 28  0  0  1  0  0  0  0  0999 V2000
  185.9360  178.4200  144.4510 C   0  0  0  0  0  0  0  0  0  0  0  0
  185.6210  178.5470  143.0650 C   0  0  0  0  0  0  0  0  0  0  0  0
  183.6460  178.9440  145.0810 C   0  0  0  0  0  3  0  0  0  0  0  0
  187.1280  177.9780  145.1900 C   0  0  0  0  0  0  0  0  0  0  0  0
  189.0120  177.1070  147.0580 C   0  0  0  0  0  3  0  0  0  0  0  0
  183.2960  179.0050  143.7330 C   0  0  0  0  0  3  0  0  0  0  0  0
  186.8500  178.0270  146.5470 C   0  0  0  0  0  0  0  0  0  0  0  0
  187.7770  177.6010  147.4990 C   0  0  0  0  0  3  0  0  0  0  0  0
  184.7550  178.7160  140.4280 C   0  0  0  0  0  3  0  0  0  0  0  0
  183.8660  178.8630  141.4370 N   0  0  0  0  0  0  0  0  0  0  0  0
  186.5340  178.4630  141.9800 C   0  0  1  0  0  3  0  0  0  0  0  0
  189.2910  177.0260  145.6840 C   0  0  0  0  0  3  0  0  0  0  0  0
  184.9620  178.6570  145.4200 C   0  0  0  0  0  0  0  0  0  0  0  0
  185.4600  178.4810  146.8170 C   0  0  0  0  0  3  0  0  0  0  0  0
  186.0680  178.5340  140.7050 N   0  0  0  0  0  0  0  0  0  0  0  0
  188.3420  177.4470  144.7430 C   0  0  0  0  0  3  0  0  0  0  0  0
  184.2580  178.8010  142.7330 C   0  0  0  0  0  0  0  0  0  0  0  0
  188.0150  178.4600  142.1440 C   0  0  0  0  0  2  0  0  0  0  0  0
  188.6570  177.3350  141.3380 C   0  0  0  0  0  2  0  0  0  0  0  0
  189.8530  177.8310  140.5360 C   0  0  0  0  0  2  0  0  0  0  0  0
  189.4940  178.0690  139.0990 C   0  0  0  0  0  0  0  0  0  0  0  0
  188.9040  179.0920  138.7870 O   0  0  0  0  0  0  0  0  0  0  0  0
  189.8580  177.0800  138.0360 C   0  0  1  0  0  3  0  0  0  0  0  0
  189.6670  177.6400  136.7730 O   0  0  0  0  0  1  0  0  0  0  0  0
  191.2940  176.6130  138.1820 C   0  0  0  0  0  1  0  0  0  0  0  0
  1  4  1  0  0  0  0
  1 13  1  0  0  0  0
  2  1  2  0  0  0  0
  3 13  1  0  0  0  0
  4  7  1  0  0  0  0
  5  8  1  0  0  0  0
  6  3  2  0  0  0  0
  7 14  1  0  0  0  0
  7  8  2  0  0  0  0
  9 15  2  0  0  0  0
  9 10  1  0  0  0  0
 10 17  2  0  0  0  0
 11 18  1  1  0  0  0
 11  2  1  0  0  0  0
 12  5  2  0  0  0  0
 13 14  2  0  0  0  0
 15 11  1  0  0  0  0
 16  4  2  0  0  0  0
 16 12  1  0  0  0  0
 17  2  1  0  0  0  0
 17  6  1  0  0  0  0
 19 18  1  0  0  0  0
 20 19  1  0  0  0  0
 21 20  1  0  0  0  0
 22 21  2  0  0  0  0
 23 25  1  1  0  0  0
 23 21  1  0  0  0  0
 24 23  1  0  0  0  0
M  END
>  <MODEL>
6

>  <REMARK>
 VINA RESULT:      -9.2      2.309      4.444
  Name = 
  5 active torsions:
  status: ('A' for Active; 'I' for Inactive)
    1  A    between atoms: C_2  and  C_21
    2  A    between atoms: C_6  and  C_15
    3  A    between atoms: C_6  and  C_23
    4  A    between atoms: C_15  and  C_21
    5  A    between atoms: C_16  and  C_23
                            x       y       z     vdW  Elec       q    Type
                         _______ _______ _______ _____ _____    ______ ____

>  <TORSDO>
F 5

$$$$
=
 OpenBabel10272400473D

 25 28  0  0  1  0  0  0  0  0999 V2000
  186.1590  178.5290  142.6530 C   0  0  0  0  0  0  0  0  0  0  0  0
  187.1490  178.3260  141.6450 C   0  0  0  0  0  0  0  0  0  0  0  0
  184.4690  179.0350  140.9790 C   0  0  0  0  0  3  0  0  0  0  0  0
  186.1340  178.3360  144.1120 C   0  0  0  0  0  0  0  0  0  0  0  0
  185.4910  178.0180  146.8100 C   0  0  0  0  0  3  0  0  0  0  0  0
  185.3980  178.7740  139.9730 C   0  0  0  0  0  3  0  0  0  0  0  0
  184.8720  178.6660  144.5790 C   0  0  2  0  0  3  0  0  0  0  0  0
  184.5290  178.5200  145.9240 C   0  0  0  0  0  3  0  0  0  0  0  0
  188.8740  177.8540  139.5160 C   0  0  0  0  0  3  0  0  0  0  0  0
  187.5800  178.1640  139.2740 N   0  0  0  0  0  0  0  0  0  0  0  0
  188.5280  178.0620  141.8560 C   0  0  0  0  0  0  0  0  0  0  0  0
  186.7640  177.6530  146.3400 C   0  0  0  0  0  3  0  0  0  0  0  0
  184.8650  178.9120  142.3050 C   0  0  0  0  0  0  0  0  0  0  0  0
  183.9600  179.0810  143.4810 C   0  0  0  0  0  3  0  0  0  0  0  0
  189.3350  177.8200  140.7890 N   0  0  0  0  0  0  0  0  0  0  0  0
  187.0850  177.7970  144.9830 C   0  0  0  0  0  3  0  0  0  0  0  0
  186.7160  178.4150  140.2900 C   0  0  0  0  0  0  0  0  0  0  0  0
  189.2010  178.1880  143.1800 C   0  0  0  0  0  2  0  0  0  0  0  0
  190.7180  178.1200  143.0350 C   0  0  0  0  0  2  0  0  0  0  0  0
  191.4170  178.2410  144.3840 C   0  0  0  0  0  2  0  0  0  0  0  0
  191.5070  176.9150  145.0800 C   0  0  0  0  0  0  0  0  0  0  0  0
  191.7090  175.9040  144.4270 O   0  0  0  0  0  0  0  0  0  0  0  0
  191.3660  176.8110  146.5670 C   0  0  1  0  0  3  0  0  0  0  0  0
  190.0290  176.6180  146.9110 O   0  0  0  0  0  1  0  0  0  0  0  0
  192.2130  175.6820  147.1260 C   0  0  0  0  0  1  0  0  0  0  0  0
  1  4  2  0  0  0  0
  2 11  1  0  0  0  0
  2  1  1  0  0  0  0
  3 13  1  0  0  0  0
  4  7  1  0  0  0  0
  4 16  1  0  0  0  0
  6 17  1  0  0  0  0
  6  3  2  0  0  0  0
  7 14  1  6  0  0  0
  7  8  1  0  0  0  0
  8  5  2  0  0  0  0
  9 15  1  0  0  0  0
 10  9  2  0  0  0  0
 10 17  1  0  0  0  0
 11 18  1  0  0  0  0
 12  5  1  0  0  0  0
 13  1  1  0  0  0  0
 13 14  2  0  0  0  0
 15 11  2  0  0  0  0
 16 12  2  0  0  0  0
 17  2  2  0  0  0  0
 19 18  1  0  0  0  0
 19 20  1  0  0  0  0
 20 21  1  0  0  0  0
 21 23  1  0  0  0  0
 22 21  2  0  0  0  0
 23 24  1  0  0  0  0
 23 25  1  6  0  0  0
M  END
>  <MODEL>
7

>  <REMARK>
 VINA RESULT:      -9.1      2.859      5.639
  Name = 
  5 active torsions:
  status: ('A' for Active; 'I' for Inactive)
    1  A    between atoms: C_2  and  C_21
    2  A    between atoms: C_6  and  C_15
    3  A    between atoms: C_6  and  C_23
    4  A    between atoms: C_15  and  C_21
    5  A    between atoms: C_16  and  C_23
                            x       y       z     vdW  Elec       q    Type
                         _______ _______ _______ _____ _____    ______ ____

>  <TORSDO>
F 5

$$$$
=
 OpenBabel10272400473D

 25 28  0  0  1  0  0  0  0  0999 V2000
  189.3020  177.4000  144.6990 C   0  0  0  0  0  0  0  0  0  0  0  0
  188.9750  177.5430  143.3160 C   0  0  0  0  0  0  0  0  0  0  0  0
  191.6200  176.8990  144.1620 C   0  0  0  0  0  3  0  0  0  0  0  0
  188.5660  177.6360  145.9500 C   0  0  0  0  0  0  0  0  0  0  0  0
  187.7150  178.0520  148.5770 C   0  0  0  0  0  3  0  0  0  0  0  0
  191.3430  177.1010  142.8100 C   0  0  0  0  0  3  0  0  0  0  0  0
  189.4070  177.3600  147.0160 C   0  0  0  0  0  0  0  0  0  0  0  0
  189.0030  177.5550  148.3370 C   0  0  0  0  0  3  0  0  0  0  0  0
  188.5960  177.8990  140.5850 C   0  0  0  0  0  3  0  0  0  0  0  0
  189.8320  177.6220  141.0600 N   0  0  0  0  0  0  0  0  0  0  0  0
  187.6830  177.7700  142.7730 C   0  0  0  0  0  0  0  0  0  0  0  0
  186.8660  178.3630  147.5020 C   0  0  0  0  0  3  0  0  0  0  0  0
  190.5930  177.0480  145.0850 C   0  0  0  0  0  0  0  0  0  0  0  0
  190.7610  176.9410  146.5660 C   0  0  0  0  0  3  0  0  0  0  0  0
  187.5420  177.9560  141.4330 N   0  0  0  0  0  0  0  0  0  0  0  0
  187.2950  178.1710  146.1820 C   0  0  0  0  0  3  0  0  0  0  0  0
  190.0480  177.4280  142.3850 C   0  0  1  0  0  3  0  0  0  0  0  0
  186.4230  177.6620  143.5620 C   0  0  0  0  0  2  0  0  0  0  0  0
  185.5150  178.8630  143.3190 C   0  0  0  0  0  2  0  0  0  0  0  0
  184.1310  178.4350  142.8490 C   0  0  0  0  0  2  0  0  0  0  0  0
  183.0580  178.9190  143.7800 C   0  0  0  0  0  0  0  0  0  0  0  0
  183.3260  179.1250  144.9530 O   0  0  0  0  0  0  0  0  0  0  0  0
  181.6640  179.1660  143.2930 C   0  0  1  0  0  3  0  0  0  0  0  0
  181.5610  178.8370  141.9420 O   0  0  0  0  0  1  0  0  0  0  0  0
  180.6480  178.3760  144.0970 C   0  0  0  0  0  1  0  0  0  0  0  0
  1 13  1  0  0  0  0
  1  4  1  0  0  0  0
  2  1  2  0  0  0  0
  3 13  1  0  0  0  0
  4 16  2  0  0  0  0
  4  7  1  0  0  0  0
  6  3  2  0  0  0  0
  7  8  2  0  0  0  0
  8  5  1  0  0  0  0
  9 10  2  0  0  0  0
  9 15  1  0  0  0  0
 10 17  1  0  0  0  0
 11  2  1  0  0  0  0
 11 18  1  0  0  0  0
 12  5  2  0  0  0  0
 13 14  2  0  0  0  0
 14  7  1  0  0  0  0
 15 11  2  0  0  0  0
 16 12  1  0  0  0  0
 17  6  1  6  0  0  0
 17  2  1  0  0  0  0
 19 18  1  0  0  0  0
 20 19  1  0  0  0  0
 20 21  1  0  0  0  0
 21 22  2  0  0  0  0
 23 21  1  0  0  0  0
 23 25  1  1  0  0  0
 24 23  1  0  0  0  0
M  END
>  <MODEL>
8

>  <REMARK>
 VINA RESULT:      -9.1      2.622      5.459
  Name = 
  5 active torsions:
  status: ('A' for Active; 'I' for Inactive)
    1  A    between atoms: C_2  and  C_21
    2  A    between atoms: C_6  and  C_15
    3  A    between atoms: C_6  and  C_23
    4  A    between atoms: C_15  and  C_21
    5  A    between atoms: C_16  and  C_23
                            x       y       z     vdW  Elec       q    Type
                         _______ _______ _______ _____ _____    ______ ____

>  <TORSDO>
F 5

$$$$
=
 OpenBabel10272400473D

 25 28  0  0  1  0  0  0  0  0999 V2000
  189.1710  177.4600  145.2320 C   0  0  0  0  0  0  0  0  0  0  0  0
  189.7810  177.3490  143.9460 C   0  0  0  0  0  0  0  0  0  0  0  0
  191.2780  176.9660  146.3410 C   0  0  0  0  0  3  0  0  0  0  0  0
  187.8390  177.8780  145.6970 C   0  0  0  0  0  0  0  0  0  0  0  0
  185.5820  178.7060  147.1160 C   0  0  0  0  0  3  0  0  0  0  0  0
  191.9120  176.9210  145.1010 C   0  0  0  0  0  3  0  0  0  0  0  0
  187.8180  177.8230  147.0820 C   0  0  0  0  0  0  0  0  0  0  0  0
  186.7000  178.2270  147.8120 C   0  0  0  0  0  3  0  0  0  0  0  0
  191.2000  177.2130  141.5590 C   0  0  0  0  0  3  0  0  0  0  0  0
  191.8520  177.0720  142.7360 N   0  0  0  0  0  0  0  0  0  0  0  0
  189.1230  177.4270  142.6900 C   0  0  1  0  0  3  0  0  0  0  0  0
  185.6060  178.7930  145.7150 C   0  0  0  0  0  3  0  0  0  0  0  0
  189.9150  177.2310  146.3880 C   0  0  0  0  0  0  0  0  0  0  0  0
  189.1230  177.3880  147.6450 C   0  0  0  0  0  3  0  0  0  0  0  0
  189.8550  177.3730  141.5460 N   0  0  0  0  0  0  0  0  0  0  0  0
  186.7430  178.3940  145.0000 C   0  0  0  0  0  3  0  0  0  0  0  0
  191.1870  177.1180  143.9170 C   0  0  0  0  0  0  0  0  0  0  0  0
  187.6410  177.4060  142.5290 C   0  0  0  0  0  2  0  0  0  0  0  0
  187.2100  178.1940  141.2970 C   0  0  0  0  0  2  0  0  0  0  0  0
  186.1310  179.2160  141.6320 C   0  0  0  0  0  2  0  0  0  0  0  0
  184.9790  179.1380  140.6750 C   0  0  0  0  0  0  0  0  0  0  0  0
  185.1550  179.4040  139.4960 O   0  0  0  0  0  0  0  0  0  0  0  0
  183.6160  178.7250  141.1360 C   0  0  1  0  0  3  0  0  0  0  0  0
  183.1510  177.6580  140.3680 O   0  0  0  0  0  1  0  0  0  0  0  0
  183.6210  178.3420  142.6050 C   0  0  0  0  0  1  0  0  0  0  0  0
  1  4  1  0  0  0  0
  1 13  1  0  0  0  0
  2  1  2  0  0  0  0
  3 13  1  0  0  0  0
  4  7  1  0  0  0  0
  5  8  1  0  0  0  0
  6  3  2  0  0  0  0
  7 14  1  0  0  0  0
  7  8  2  0  0  0  0
  9 10  1  0  0  0  0
 10 17  2  0  0  0  0
 11 18  1  6  0  0  0
 11  2  1  0  0  0  0
 12  5  2  0  0  0  0
 13 14  2  0  0  0  0
 15  9  2  0  0  0  0
 15 11  1  0  0  0  0
 16  4  2  0  0  0  0
 16 12  1  0  0  0  0
 17  2  1  0  0  0  0
 17  6  1  0  0  0  0
 19 20  1  0  0  0  0
 19 18  1  0  0  0  0
 21 23  1  0  0  0  0
 21 20  1  0  0  0  0
 22 21  2  0  0  0  0
 23 25  1  1  0  0  0
 24 23  1  0  0  0  0
M  END
>  <MODEL>
9

>  <REMARK>
 VINA RESULT:      -9.0      1.889      3.583
  Name = 
  5 active torsions:
  status: ('A' for Active; 'I' for Inactive)
    1  A    between atoms: C_2  and  C_21
    2  A    between atoms: C_6  and  C_15
    3  A    between atoms: C_6  and  C_23
    4  A    between atoms: C_15  and  C_21
    5  A    between atoms: C_16  and  C_23
                            x       y       z     vdW  Elec       q    Type
                         _______ _______ _______ _____ _____    ______ ____

>  <TORSDO>
F 5

$$$$
