=
 OpenBabel10272401553D

 28 31  0  0  1  0  0  0  0  0999 V2000
  190.6190  176.6880  144.5460 C   0  0  0  0  0  0  0  0  0  0  0  0
  185.8650  177.9430  143.2480 C   0  0  0  0  0  2  0  0  0  0  0  0
  188.6010  177.6780  148.8180 F   0  0  0  0  0  0  0  0  0  0  0  0
  185.0530  178.9390  145.3910 C   0  0  0  0  0  0  0  0  0  0  0  0
  187.2700  177.8960  145.4080 C   0  0  0  0  0  0  0  0  0  0  0  0
  183.7080  179.1680  143.2710 C   0  0  2  0  0  3  0  0  0  0  0  0
  186.0140  178.2660  144.7150 C   0  0  0  0  0  0  0  0  0  0  0  0
  186.1190  178.3720  147.5910 C   0  0  0  0  0  2  0  0  0  0  0  0
  183.6940  179.1990  144.7960 C   0  0  0  0  0  2  0  0  0  0  0  0
  189.6260  177.1930  146.7090 C   0  0  0  0  0  0  0  0  0  0  0  0
  188.3510  177.4700  144.6990 N   0  0  0  0  0  0  0  0  0  0  0  0
  185.2940  179.3930  146.8060 C   0  0  0  0  0  2  0  0  0  0  0  0
  191.8830  176.4260  146.5680 N   0  0  0  0  0  0  0  0  0  0  0  0
  188.5240  177.6190  147.4640 C   0  0  0  0  0  0  0  0  0  0  0  0
  190.8290  176.8340  147.3220 C   0  0  0  0  0  3  0  0  0  0  0  0
  182.4100  179.1840  142.7990 F   0  0  0  0  0  0  0  0  0  0  0  0
  184.4080  177.9040  142.8010 C   0  0  0  0  0  2  0  0  0  0  0  0
  187.3420  177.9820  146.8110 C   0  0  0  0  0  0  0  0  0  0  0  0
  191.8050  176.3490  145.2140 C   0  0  0  0  0  3  0  0  0  0  0  0
  189.5200  177.1210  145.3040 C   0  0  0  0  0  0  0  0  0  0  0  0
  190.5440  176.6290  143.0440 C   0  0  2  0  0  3  0  0  0  0  0  0
  190.8080  175.3440  142.5650 O   0  0  0  0  0  1  0  0  0  0  0  0
  191.4400  177.6700  142.3670 C   0  0  0  0  0  2  0  0  0  0  0  0
  190.3080  177.5610  140.0780 N   0  0  0  0  0  0  0  0  0  0  0  0
  192.6200  177.3230  140.3290 O   0  0  0  0  0  0  0  0  0  0  0  0
  191.5000  177.5120  140.8770 C   0  0  0  0  0  0  0  0  0  0  0  0
  189.0160  177.8680  140.6700 C   0  0  0  0  0  1  0  0  0  0  0  0
  190.3710  177.3340  138.6440 C   0  0  0  0  0  1  0  0  0  0  0  0
  1 19  2  0  0  0  0
  1 20  1  0  0  0  0
  2  7  1  0  0  0  0
  4 12  1  0  0  0  0
  5 18  1  0  0  0  0
  6 16  1  1  0  0  0
  6  9  1  0  0  0  0
  7  4  2  0  0  0  0
  7  5  1  0  0  0  0
  9  4  1  0  0  0  0
 10 15  1  0  0  0  0
 10 14  1  0  0  0  0
 11 20  1  0  0  0  0
 11  5  2  0  0  0  0
 12  8  1  0  0  0  0
 13 15  2  0  0  0  0
 14  3  1  0  0  0  0
 17  2  1  0  0  0  0
 17  6  1  0  0  0  0
 18 14  2  0  0  0  0
 18  8  1  0  0  0  0
 19 13  1  0  0  0  0
 20 10  2  0  0  0  0
 21 22  1  6  0  0  0
 21  1  1  0  0  0  0
 23 21  1  0  0  0  0
 24 27  1  0  0  0  0
 24 26  1  0  0  0  0
 25 26  2  0  0  0  0
 26 23  1  0  0  0  0
 28 24  1  0  0  0  0
M  END
>  <MODEL>
1

>  <REMARK>
 VINA RESULT:     -10.5      0.000      0.000
  Name = 
  3 active torsions:
  status: ('A' for Active; 'I' for Inactive)
    1  A    between atoms: C_1  and  C_2
    2  A    between atoms: C_2  and  C_3
    3  A    between atoms: C_3  and  C_11
                            x       y       z     vdW  Elec       q    Type
                         _______ _______ _______ _____ _____    ______ ____

>  <TORSDO>
F 3

$$$$
=
 OpenBabel10272401553D

 28 31  0  0  1  0  0  0  0  0999 V2000
  184.7340  178.7280  144.3010 C   0  0  0  0  0  0  0  0  0  0  0  0
  188.0030  178.1860  140.4440 C   0  0  0  0  0  2  0  0  0  0  0  0
  188.6730  177.0210  146.5090 F   0  0  0  0  0  0  0  0  0  0  0  0
  189.7880  176.8270  141.5440 C   0  0  0  0  0  0  0  0  0  0  0  0
  187.9700  177.6510  142.9640 C   0  0  0  0  0  0  0  0  0  0  0  0
  189.7850  177.1710  139.0470 C   0  0  2  0  0  3  0  0  0  0  0  0
  188.6460  177.5460  141.6500 C   0  0  0  0  0  0  0  0  0  0  0  0
  190.0850  176.8180  144.0360 C   0  0  0  0  0  2  0  0  0  0  0  0
  190.6090  176.8160  140.2810 C   0  0  0  0  0  2  0  0  0  0  0  0
  186.7040  177.8570  145.4330 C   0  0  0  0  0  0  0  0  0  0  0  0
  186.6970  178.1260  143.0510 N   0  0  0  0  0  0  0  0  0  0  0  0
  190.3190  176.0620  142.7270 C   0  0  0  0  0  2  0  0  0  0  0  0
  184.7560  178.4440  146.6830 N   0  0  0  0  0  0  0  0  0  0  0  0
  188.0180  177.3750  145.3720 C   0  0  0  0  0  0  0  0  0  0  0  0
  186.0300  177.9740  146.6510 C   0  0  0  0  0  3  0  0  0  0  0  0
  190.6290  177.3660  137.9710 F   0  0  0  0  0  0  0  0  0  0  0  0
  188.9980  178.4420  139.3170 C   0  0  0  0  0  2  0  0  0  0  0  0
  188.6530  177.2610  144.1320 C   0  0  0  0  0  0  0  0  0  0  0  0
  184.1030  178.8150  145.5500 C   0  0  0  0  0  3  0  0  0  0  0  0
  186.0480  178.2370  144.2430 C   0  0  0  0  0  0  0  0  0  0  0  0
  183.9990  179.1130  143.0450 C   0  0  2  0  0  3  0  0  0  0  0  0
  182.6340  179.2920  143.2810 O   0  0  0  0  0  1  0  0  0  0  0  0
  184.2410  178.1300  141.8960 C   0  0  0  0  0  2  0  0  0  0  0  0
  182.9700  178.3400  139.6880 N   0  0  0  0  0  0  0  0  0  0  0  0
  184.8580  179.6370  140.1590 O   0  0  0  0  0  0  0  0  0  0  0  0
  184.0480  178.7500  140.5440 C   0  0  0  0  0  0  0  0  0  0  0  0
  181.9690  177.3880  140.1390 C   0  0  0  0  0  1  0  0  0  0  0  0
  182.8370  178.8960  138.3510 C   0  0  0  0  0  1  0  0  0  0  0  0
  1 19  1  0  0  0  0
  2  7  1  0  0  0  0
  4  7  2  0  0  0  0
  4 12  1  0  0  0  0
  5 11  2  0  0  0  0
  5 18  1  0  0  0  0
  6 16  1  6  0  0  0
  6 17  1  0  0  0  0
  6  9  1  0  0  0  0
  7  5  1  0  0  0  0
  8 18  1  0  0  0  0
  9  4  1  0  0  0  0
 10 15  2  0  0  0  0
 11 20  1  0  0  0  0
 12  8  1  0  0  0  0
 14 10  1  0  0  0  0
 14  3  1  0  0  0  0
 15 13  1  0  0  0  0
 17  2  1  0  0  0  0
 18 14  2  0  0  0  0
 19 13  2  0  0  0  0
 20  1  2  0  0  0  0
 20 10  1  0  0  0  0
 21 22  1  1  0  0  0
 21  1  1  0  0  0  0
 23 21  1  0  0  0  0
 24 27  1  0  0  0  0
 24 26  1  0  0  0  0
 25 26  2  0  0  0  0
 26 23  1  0  0  0  0
 28 24  1  0  0  0  0
M  END
>  <MODEL>
2

>  <REMARK>
 VINA RESULT:     -10.1      3.712      6.346
  Name = 
  3 active torsions:
  status: ('A' for Active; 'I' for Inactive)
    1  A    between atoms: C_1  and  C_2
    2  A    between atoms: C_2  and  C_3
    3  A    between atoms: C_3  and  C_11
                            x       y       z     vdW  Elec       q    Type
                         _______ _______ _______ _____ _____    ______ ____

>  <TORSDO>
F 3

$$$$
=
 OpenBabel10272401553D

 28 31  0  0  1  0  0  0  0  0999 V2000
  189.6620  177.5830  141.3830 C   0  0  0  0  0  0  0  0  0  0  0  0
  184.7550  178.5180  142.3310 C   0  0  0  0  0  2  0  0  0  0  0  0
  189.3520  176.7940  146.1360 F   0  0  0  0  0  0  0  0  0  0  0  0
  184.7810  178.6160  144.8280 C   0  0  0  0  0  0  0  0  0  0  0  0
  186.8560  177.9500  143.7100 C   0  0  0  0  0  0  0  0  0  0  0  0
  182.7470  179.3490  143.5310 C   0  0  2  0  0  3  0  0  0  0  0  0
  185.4310  178.3490  143.6700 C   0  0  0  0  0  0  0  0  0  0  0  0
  186.5870  177.5020  146.1680 C   0  0  0  0  0  2  0  0  0  0  0  0
  183.2960  178.8660  144.8690 C   0  0  0  0  0  2  0  0  0  0  0  0
  189.5320  177.1910  143.7810 C   0  0  0  0  0  0  0  0  0  0  0  0
  187.6040  177.9420  142.5710 N   0  0  0  0  0  0  0  0  0  0  0  0
  185.5220  178.6000  146.1380 C   0  0  0  0  0  2  0  0  0  0  0  0
  191.5840  176.8400  142.6120 N   0  0  0  0  0  0  0  0  0  0  0  0
  188.7820  177.1810  144.9650 C   0  0  0  0  0  0  0  0  0  0  0  0
  190.8790  176.8210  143.7730 C   0  0  0  0  0  3  0  0  0  0  0  0
  181.3670  179.3390  143.5690 F   0  0  0  0  0  0  0  0  0  0  0  0
  183.2360  178.4270  142.4260 C   0  0  0  0  0  2  0  0  0  0  0  0
  187.4400  177.5710  144.9330 C   0  0  0  0  0  0  0  0  0  0  0  0
  191.0130  177.2110  141.4350 C   0  0  0  0  0  3  0  0  0  0  0  0
  188.9160  177.5780  142.5720 C   0  0  0  0  0  0  0  0  0  0  0  0
  189.0390  178.0200  140.0840 C   0  0  2  0  0  3  0  0  0  0  0  0
  187.8970  177.2730  139.7840 O   0  0  0  0  0  1  0  0  0  0  0  0
  190.0340  178.0090  138.9200 C   0  0  0  0  0  2  0  0  0  0  0  0
  189.2370  177.2790  136.6040 N   0  0  0  0  0  0  0  0  0  0  0  0
  188.9940  179.4770  137.3610 O   0  0  0  0  0  0  0  0  0  0  0  0
  189.3910  178.3040  137.5970 C   0  0  0  0  0  0  0  0  0  0  0  0
  189.6010  175.8990  136.8810 C   0  0  0  0  0  1  0  0  0  0  0  0
  188.6790  177.5930  135.2990 C   0  0  0  0  0  1  0  0  0  0  0  0
  1 19  2  0  0  0  0
  1 20  1  0  0  0  0
  2 17  1  0  0  0  0
  2  7  1  0  0  0  0
  4  9  1  0  0  0  0
  4 12  1  0  0  0  0
  5 18  1  0  0  0  0
  6 16  1  1  0  0  0
  6  9  1  0  0  0  0
  7  5  1  0  0  0  0
  7  4  2  0  0  0  0
 10 14  1  0  0  0  0
 11 20  1  0  0  0  0
 11  5  2  0  0  0  0
 12  8  1  0  0  0  0
 13 15  2  0  0  0  0
 14  3  1  0  0  0  0
 15 10  1  0  0  0  0
 17  6  1  0  0  0  0
 18 14  2  0  0  0  0
 18  8  1  0  0  0  0
 19 13  1  0  0  0  0
 20 10  2  0  0  0  0
 21 22  1  6  0  0  0
 21  1  1  0  0  0  0
 23 21  1  0  0  0  0
 24 27  1  0  0  0  0
 24 26  1  0  0  0  0
 25 26  2  0  0  0  0
 26 23  1  0  0  0  0
 28 24  1  0  0  0  0
M  END
>  <MODEL>
3

>  <REMARK>
 VINA RESULT:     -10.0      2.109      2.977
  Name = 
  3 active torsions:
  status: ('A' for Active; 'I' for Inactive)
    1  A    between atoms: C_1  and  C_2
    2  A    between atoms: C_2  and  C_3
    3  A    between atoms: C_3  and  C_11
                            x       y       z     vdW  Elec       q    Type
                         _______ _______ _______ _____ _____    ______ ____

>  <TORSDO>
F 3

$$$$
=
 OpenBabel10272401553D

 28 31  0  0  1  0  0  0  0  0999 V2000
  188.9460  177.0570  143.7990 C   0  0  0  0  0  0  0  0  0  0  0  0
  184.5120  177.7540  141.4090 C   0  0  0  0  0  2  0  0  0  0  0  0
  186.0490  178.5000  147.3810 F   0  0  0  0  0  0  0  0  0  0  0  0
  183.2320  178.9850  143.1670 C   0  0  0  0  0  0  0  0  0  0  0  0
  185.4410  178.1240  143.7840 C   0  0  0  0  0  0  0  0  0  0  0  0
  182.3440  178.8060  140.8150 C   0  0  2  0  0  3  0  0  0  0  0  0
  184.3400  178.2950  142.8080 C   0  0  0  0  0  0  0  0  0  0  0  0
  183.8450  178.8230  145.5950 C   0  0  0  0  0  2  0  0  0  0  0  0
  182.0140  179.0550  142.2830 C   0  0  0  0  0  2  0  0  0  0  0  0
  187.5070  177.7940  145.6180 C   0  0  0  0  0  0  0  0  0  0  0  0
  186.6630  177.6820  143.3770 N   0  0  0  0  0  0  0  0  0  0  0  0
  183.1560  179.6560  144.5130 C   0  0  0  0  0  2  0  0  0  0  0  0
  189.7760  177.1840  146.0450 N   0  0  0  0  0  0  0  0  0  0  0  0
  186.2560  178.2410  146.0640 C   0  0  0  0  0  0  0  0  0  0  0  0
  188.5720  177.6180  146.5040 C   0  0  0  0  0  3  0  0  0  0  0  0
  181.1720  178.6570  140.1000 F   0  0  0  0  0  0  0  0  0  0  0  0
  183.1810  177.5430  140.6950 C   0  0  0  0  0  2  0  0  0  0  0  0
  185.2190  178.4160  145.1420 C   0  0  0  0  0  0  0  0  0  0  0  0
  189.9820  176.9080  144.7310 C   0  0  0  0  0  3  0  0  0  0  0  0
  187.6960  177.5120  144.2480 C   0  0  0  0  0  0  0  0  0  0  0  0
  189.1840  176.7770  142.3390 C   0  0  2  0  0  3  0  0  0  0  0  0
  190.1370  175.7710  142.1560 O   0  0  0  0  0  1  0  0  0  0  0  0
  189.5470  178.0370  141.5480 C   0  0  0  0  0  2  0  0  0  0  0  0
  189.4600  177.7150  139.0140 N   0  0  0  0  0  0  0  0  0  0  0  0
  187.6580  178.5980  140.2130 O   0  0  0  0  0  0  0  0  0  0  0  0
  188.8300  178.1320  140.2350 C   0  0  0  0  0  0  0  0  0  0  0  0
  190.7730  177.0900  139.0190 C   0  0  0  0  0  1  0  0  0  0  0  0
  188.7820  177.8800  137.7390 C   0  0  0  0  0  1  0  0  0  0  0  0
  1 20  2  0  0  0  0
  1 19  1  0  0  0  0
  2  7  1  0  0  0  0
  4 12  1  0  0  0  0
  5 18  1  0  0  0  0
  6 16  1  6  0  0  0
  6  9  1  0  0  0  0
  7  4  2  0  0  0  0
  7  5  1  0  0  0  0
  9  4  1  0  0  0  0
 10 14  1  0  0  0  0
 10 15  2  0  0  0  0
 11  5  2  0  0  0  0
 11 20  1  0  0  0  0
 12  8  1  0  0  0  0
 13 15  1  0  0  0  0
 14  3  1  0  0  0  0
 17  6  1  0  0  0  0
 17  2  1  0  0  0  0
 18  8  1  0  0  0  0
 18 14  2  0  0  0  0
 19 13  2  0  0  0  0
 20 10  1  0  0  0  0
 21 22  1  1  0  0  0
 21  1  1  0  0  0  0
 23 21  1  0  0  0  0
 24 27  1  0  0  0  0
 24 26  1  0  0  0  0
 25 26  2  0  0  0  0
 26 23  1  0  0  0  0
 28 24  1  0  0  0  0
M  END
>  <MODEL>
4

>  <REMARK>
 VINA RESULT:      -9.9      1.826      2.604
  Name = 
  3 active torsions:
  status: ('A' for Active; 'I' for Inactive)
    1  A    between atoms: C_1  and  C_2
    2  A    between atoms: C_2  and  C_3
    3  A    between atoms: C_3  and  C_11
                            x       y       z     vdW  Elec       q    Type
                         _______ _______ _______ _____ _____    ______ ____

>  <TORSDO>
F 3

$$$$
=
 OpenBabel10272401553D

 28 31  0  0  1  0  0  0  0  0999 V2000
  183.4190  178.6550  141.1290 C   0  0  0  0  0  0  0  0  0  0  0  0
  188.2610  177.8290  142.4440 C   0  0  0  0  0  2  0  0  0  0  0  0
  183.2580  178.9780  145.9420 F   0  0  0  0  0  0  0  0  0  0  0  0
  188.0140  177.4820  144.9070 C   0  0  0  0  0  0  0  0  0  0  0  0
  186.0170  178.1710  143.6650 C   0  0  0  0  0  0  0  0  0  0  0  0
  190.1900  176.9640  143.7450 C   0  0  2  0  0  3  0  0  0  0  0  0
  187.4590  177.8360  143.7240 C   0  0  0  0  0  0  0  0  0  0  0  0
  186.0410  178.3830  146.1690 C   0  0  0  0  0  2  0  0  0  0  0  0
  189.4990  177.2890  145.0650 C   0  0  0  0  0  2  0  0  0  0  0  0
  183.3120  178.8110  143.5550 C   0  0  0  0  0  0  0  0  0  0  0  0
  185.3770  178.2630  142.4670 N   0  0  0  0  0  0  0  0  0  0  0  0
  187.1560  177.3370  146.1360 C   0  0  0  0  0  2  0  0  0  0  0  0
  181.3590  179.1930  142.2340 N   0  0  0  0  0  0  0  0  0  0  0  0
  183.9500  178.7330  144.8000 C   0  0  0  0  0  0  0  0  0  0  0  0
  181.9540  179.1250  143.4540 C   0  0  0  0  0  3  0  0  0  0  0  0
  191.5590  177.0260  143.9150 F   0  0  0  0  0  0  0  0  0  0  0  0
  189.7590  177.9710  142.6910 C   0  0  0  0  0  2  0  0  0  0  0  0
  185.3080  178.4030  144.8580 C   0  0  0  0  0  0  0  0  0  0  0  0
  182.0520  178.9650  141.0880 C   0  0  0  0  0  3  0  0  0  0  0  0
  184.0530  178.5710  142.3780 C   0  0  0  0  0  0  0  0  0  0  0  0
  184.1780  178.3750  139.8590 C   0  0  2  0  0  3  0  0  0  0  0  0
  184.9030  179.4920  139.4360 O   0  0  0  0  0  1  0  0  0  0  0  0
  183.2800  177.8380  138.7410 C   0  0  0  0  0  2  0  0  0  0  0  0
  184.0760  175.6440  137.6990 N   0  0  0  0  0  0  0  0  0  0  0  0
  182.5330  175.6940  139.4550 O   0  0  0  0  0  0  0  0  0  0  0  0
  183.2710  176.3410  138.6630 C   0  0  0  0  0  0  0  0  0  0  0  0
  185.0040  176.3560  136.8370 C   0  0  0  0  0  1  0  0  0  0  0  0
  184.0040  174.1970  137.5850 C   0  0  0  0  0  1  0  0  0  0  0  0
  1 20  1  0  0  0  0
  2 17  1  0  0  0  0
  2  7  1  0  0  0  0
  4  9  1  0  0  0  0
  4 12  1  0  0  0  0
  5  7  1  0  0  0  0
  5 18  1  0  0  0  0
  6 16  1  1  0  0  0
  6  9  1  0  0  0  0
  7  4  2  0  0  0  0
 10 14  1  0  0  0  0
 11  5  2  0  0  0  0
 12  8  1  0  0  0  0
 13 15  2  0  0  0  0
 14 18  2  0  0  0  0
 14  3  1  0  0  0  0
 15 10  1  0  0  0  0
 17  6  1  0  0  0  0
 18  8  1  0  0  0  0
 19  1  2  0  0  0  0
 19 13  1  0  0  0  0
 20 11  1  0  0  0  0
 20 10  2  0  0  0  0
 21 22  1  6  0  0  0
 21  1  1  0  0  0  0
 23 21  1  0  0  0  0
 24 26  1  0  0  0  0
 26 23  1  0  0  0  0
 26 25  2  0  0  0  0
 27 24  1  0  0  0  0
 28 24  1  0  0  0  0
M  END
>  <MODEL>
5

>  <REMARK>
 VINA RESULT:      -9.7      4.040      6.948
  Name = 
  3 active torsions:
  status: ('A' for Active; 'I' for Inactive)
    1  A    between atoms: C_1  and  C_2
    2  A    between atoms: C_2  and  C_3
    3  A    between atoms: C_3  and  C_11
                            x       y       z     vdW  Elec       q    Type
                         _______ _______ _______ _____ _____    ______ ____

>  <TORSDO>
F 3

$$$$
=
 OpenBabel10272401553D

 28 31  0  0  1  0  0  0  0  0999 V2000
  187.0980  178.4130  140.1400 C   0  0  0  0  0  0  0  0  0  0  0  0
  190.2070  177.5590  144.0720 C   0  0  0  0  0  2  0  0  0  0  0  0
  184.1390  178.8770  143.9260 F   0  0  0  0  0  0  0  0  0  0  0  0
  188.5460  177.2860  145.9190 C   0  0  0  0  0  0  0  0  0  0  0  0
  187.6860  177.9670  143.7280 C   0  0  0  0  0  0  0  0  0  0  0  0
  190.9730  176.7060  146.2730 C   0  0  2  0  0  3  0  0  0  0  0  0
  188.8060  177.6140  144.6310 C   0  0  0  0  0  0  0  0  0  0  0  0
  186.2340  178.2500  145.7600 C   0  0  0  0  0  2  0  0  0  0  0  0
  189.6460  177.0780  146.9260 C   0  0  0  0  0  2  0  0  0  0  0  0
  185.5860  178.6400  142.0330 C   0  0  0  0  0  0  0  0  0  0  0  0
  187.8780  178.0330  142.3820 N   0  0  0  0  0  0  0  0  0  0  0  0
  187.1250  177.1890  146.4080 C   0  0  0  0  0  2  0  0  0  0  0  0
  184.7990  179.0110  139.8090 N   0  0  0  0  0  0  0  0  0  0  0  0
  185.3640  178.5900  143.4160 C   0  0  0  0  0  0  0  0  0  0  0  0
  184.5580  178.9700  141.1460 C   0  0  0  0  0  3  0  0  0  0  0  0
  191.9800  176.7540  147.2170 F   0  0  0  0  0  0  0  0  0  0  0  0
  191.2750  177.6880  145.1530 C   0  0  0  0  0  2  0  0  0  0  0  0
  186.4160  178.2430  144.2690 C   0  0  0  0  0  0  0  0  0  0  0  0
  186.0270  178.7410  139.2960 C   0  0  0  0  0  3  0  0  0  0  0  0
  186.8710  178.3560  141.5240 C   0  0  0  0  0  0  0  0  0  0  0  0
  188.4510  178.0860  139.5680 C   0  0  2  0  0  3  0  0  0  0  0  0
  188.9820  179.1640  138.8530 O   0  0  0  0  0  1  0  0  0  0  0  0
  188.4420  176.8090  138.7230 C   0  0  0  0  0  2  0  0  0  0  0  0
  190.2660  176.5240  136.9560 N   0  0  0  0  0  0  0  0  0  0  0  0
  190.5720  175.8460  139.1720 O   0  0  0  0  0  0  0  0  0  0  0  0
  189.8150  176.3690  138.3100 C   0  0  0  0  0  0  0  0  0  0  0  0
  189.4520  177.2060  135.9630 C   0  0  0  0  0  1  0  0  0  0  0  0
  191.5710  176.0280  136.5510 C   0  0  0  0  0  1  0  0  0  0  0  0
  1 20  1  0  0  0  0
  2  7  1  0  0  0  0
  2 17  1  0  0  0  0
  4 12  1  0  0  0  0
  4  9  1  0  0  0  0
  5 18  1  0  0  0  0
  5  7  1  0  0  0  0
  6  9  1  0  0  0  0
  6 16  1  1  0  0  0
  7  4  2  0  0  0  0
  8 12  1  0  0  0  0
 10 14  1  0  0  0  0
 11  5  2  0  0  0  0
 13 15  2  0  0  0  0
 14  3  1  0  0  0  0
 14 18  2  0  0  0  0
 15 10  1  0  0  0  0
 17  6  1  0  0  0  0
 18  8  1  0  0  0  0
 19 13  1  0  0  0  0
 19  1  2  0  0  0  0
 20 10  2  0  0  0  0
 20 11  1  0  0  0  0
 21 22  1  6  0  0  0
 21  1  1  0  0  0  0
 23 21  1  0  0  0  0
 24 26  1  0  0  0  0
 26 23  1  0  0  0  0
 26 25  2  0  0  0  0
 27 24  1  0  0  0  0
 28 24  1  0  0  0  0
M  END
>  <MODEL>
6

>  <REMARK>
 VINA RESULT:      -9.7      2.362      5.718
  Name = 
  3 active torsions:
  status: ('A' for Active; 'I' for Inactive)
    1  A    between atoms: C_1  and  C_2
    2  A    between atoms: C_2  and  C_3
    3  A    between atoms: C_3  and  C_11
                            x       y       z     vdW  Elec       q    Type
                         _______ _______ _______ _____ _____    ______ ____

>  <TORSDO>
F 3

$$$$
=
 OpenBabel10272401553D

 28 31  0  0  1  0  0  0  0  0999 V2000
  183.6890  178.6200  142.1260 C   0  0  0  0  0  0  0  0  0  0  0  0
  188.6900  177.7060  142.2560 C   0  0  0  0  0  2  0  0  0  0  0  0
  184.6130  178.5640  146.8630 F   0  0  0  0  0  0  0  0  0  0  0  0
  188.9940  177.1660  144.6770 C   0  0  0  0  0  0  0  0  0  0  0  0
  186.7810  177.9460  143.9710 C   0  0  0  0  0  0  0  0  0  0  0  0
  190.8480  176.7480  143.0210 C   0  0  2  0  0  3  0  0  0  0  0  0
  188.1940  177.6110  143.6790 C   0  0  0  0  0  0  0  0  0  0  0  0
  187.3670  177.9600  146.4150 C   0  0  0  0  0  2  0  0  0  0  0  0
  190.4740  176.9660  144.4840 C   0  0  0  0  0  2  0  0  0  0  0  0
  184.1300  178.5850  144.5180 C   0  0  0  0  0  0  0  0  0  0  0  0
  185.8910  178.1290  142.9570 N   0  0  0  0  0  0  0  0  0  0  0  0
  188.4310  176.9230  146.0530 C   0  0  0  0  0  2  0  0  0  0  0  0
  181.9370  179.0650  143.7020 N   0  0  0  0  0  0  0  0  0  0  0  0
  185.0280  178.4110  145.5790 C   0  0  0  0  0  0  0  0  0  0  0  0
  182.7890  178.9030  144.7490 C   0  0  0  0  0  3  0  0  0  0  0  0
  192.2210  176.7990  142.8840 F   0  0  0  0  0  0  0  0  0  0  0  0
  190.2070  177.8330  142.1720 C   0  0  0  0  0  2  0  0  0  0  0  0
  186.3600  178.0810  145.3070 C   0  0  0  0  0  0  0  0  0  0  0  0
  182.3530  178.9290  142.4160 C   0  0  0  0  0  3  0  0  0  0  0  0
  184.5860  178.4400  143.1910 C   0  0  0  0  0  0  0  0  0  0  0  0
  184.1410  178.4430  140.7010 C   0  0  2  0  0  3  0  0  0  0  0  0
  184.7840  179.5860  140.2180 O   0  0  0  0  0  1  0  0  0  0  0  0
  183.0040  178.0100  139.7710 C   0  0  0  0  0  2  0  0  0  0  0  0
  182.6910  175.7290  138.6600 N   0  0  0  0  0  0  0  0  0  0  0  0
  184.4370  177.1670  138.0670 O   0  0  0  0  0  0  0  0  0  0  0  0
  183.4210  176.9590  138.7850 C   0  0  0  0  0  0  0  0  0  0  0  0
  181.4660  175.5000  139.4070 C   0  0  0  0  0  1  0  0  0  0  0  0
  183.1470  174.6890  137.7530 C   0  0  0  0  0  1  0  0  0  0  0  0
  1 19  2  0  0  0  0
  1 20  1  0  0  0  0
  2  7  1  0  0  0  0
  4 12  1  0  0  0  0
  5 18  1  0  0  0  0
  6 16  1  1  0  0  0
  6  9  1  0  0  0  0
  7  5  1  0  0  0  0
  7  4  2  0  0  0  0
  9  4  1  0  0  0  0
 10 15  1  0  0  0  0
 10 14  1  0  0  0  0
 11 20  1  0  0  0  0
 11  5  2  0  0  0  0
 12  8  1  0  0  0  0
 13 15  2  0  0  0  0
 14  3  1  0  0  0  0
 17  2  1  0  0  0  0
 17  6  1  0  0  0  0
 18 14  2  0  0  0  0
 18  8  1  0  0  0  0
 19 13  1  0  0  0  0
 20 10  2  0  0  0  0
 21 22  1  6  0  0  0
 21  1  1  0  0  0  0
 23 21  1  0  0  0  0
 24 26  1  0  0  0  0
 24 27  1  0  0  0  0
 25 26  2  0  0  0  0
 26 23  1  0  0  0  0
 28 24  1  0  0  0  0
M  END
>  <MODEL>
7

>  <REMARK>
 VINA RESULT:      -9.6      3.908      6.776
  Name = 
  3 active torsions:
  status: ('A' for Active; 'I' for Inactive)
    1  A    between atoms: C_1  and  C_2
    2  A    between atoms: C_2  and  C_3
    3  A    between atoms: C_3  and  C_11
                            x       y       z     vdW  Elec       q    Type
                         _______ _______ _______ _____ _____    ______ ____

>  <TORSDO>
F 3

$$$$
=
 OpenBabel10272401553D

 28 31  0  0  1  0  0  0  0  0999 V2000
  184.4940  178.4750  140.9540 C   0  0  0  0  0  0  0  0  0  0  0  0
  188.8740  177.8770  143.4660 C   0  0  0  0  0  2  0  0  0  0  0  0
  183.1250  178.9520  145.5590 F   0  0  0  0  0  0  0  0  0  0  0  0
  188.0290  177.6030  145.8020 C   0  0  0  0  0  0  0  0  0  0  0  0
  186.3880  178.1750  144.0750 C   0  0  0  0  0  0  0  0  0  0  0  0
  190.4410  177.1300  145.2400 C   0  0  2  0  0  3  0  0  0  0  0  0
  187.7780  177.8960  144.5040 C   0  0  0  0  0  0  0  0  0  0  0  0
  185.7780  178.4700  146.4950 C   0  0  0  0  0  2  0  0  0  0  0  0
  189.4330  177.4720  146.3330 C   0  0  0  0  0  2  0  0  0  0  0  0
  183.7790  178.7070  143.2690 C   0  0  0  0  0  0  0  0  0  0  0  0
  186.0650  178.2020  142.7530 N   0  0  0  0  0  0  0  0  0  0  0  0
  186.8960  177.4670  146.7850 C   0  0  0  0  0  2  0  0  0  0  0  0
  182.2090  178.9720  141.4890 N   0  0  0  0  0  0  0  0  0  0  0  0
  184.0880  178.6950  144.6350 C   0  0  0  0  0  0  0  0  0  0  0  0
  182.4820  178.9670  142.8200 C   0  0  0  0  0  3  0  0  0  0  0  0
  191.7210  177.2490  145.7430 F   0  0  0  0  0  0  0  0  0  0  0  0
  190.2580  178.0850  144.0720 C   0  0  0  0  0  2  0  0  0  0  0  0
  185.3960  178.4190  145.0430 C   0  0  0  0  0  0  0  0  0  0  0  0
  183.1720  178.7320  140.5610 C   0  0  0  0  0  3  0  0  0  0  0  0
  184.7980  178.4570  142.3240 C   0  0  0  0  0  0  0  0  0  0  0  0
  185.5540  178.1820  139.9260 C   0  0  2  0  0  3  0  0  0  0  0  0
  186.7380  178.8740  140.1950 O   0  0  0  0  0  1  0  0  0  0  0  0
  185.0730  178.4370  138.4940 C   0  0  0  0  0  2  0  0  0  0  0  0
  186.0160  176.7410  136.8310 N   0  0  0  0  0  0  0  0  0  0  0  0
  186.9950  178.8400  137.1490 O   0  0  0  0  0  0  0  0  0  0  0  0
  186.0790  178.0310  137.4580 C   0  0  0  0  0  0  0  0  0  0  0  0
  184.9200  175.8240  137.0990 C   0  0  0  0  0  1  0  0  0  0  0  0
  187.0370  176.3320  135.8810 C   0  0  0  0  0  1  0  0  0  0  0  0
  1 20  1  0  0  0  0
  2 17  1  0  0  0  0
  2  7  1  0  0  0  0
  4  9  1  0  0  0  0
  4 12  1  0  0  0  0
  5  7  1  0  0  0  0
  5 18  1  0  0  0  0
  6 16  1  1  0  0  0
  6  9  1  0  0  0  0
  7  4  2  0  0  0  0
  8 12  1  0  0  0  0
 10 14  1  0  0  0  0
 11  5  2  0  0  0  0
 13 15  2  0  0  0  0
 14 18  2  0  0  0  0
 14  3  1  0  0  0  0
 15 10  1  0  0  0  0
 17  6  1  0  0  0  0
 18  8  1  0  0  0  0
 19  1  2  0  0  0  0
 19 13  1  0  0  0  0
 20 11  1  0  0  0  0
 20 10  2  0  0  0  0
 21 22  1  1  0  0  0
 21  1  1  0  0  0  0
 23 21  1  0  0  0  0
 24 27  1  0  0  0  0
 24 26  1  0  0  0  0
 25 26  2  0  0  0  0
 26 23  1  0  0  0  0
 28 24  1  0  0  0  0
M  END
>  <MODEL>
8

>  <REMARK>
 VINA RESULT:      -9.3      3.398      6.271
  Name = 
  3 active torsions:
  status: ('A' for Active; 'I' for Inactive)
    1  A    between atoms: C_1  and  C_2
    2  A    between atoms: C_2  and  C_3
    3  A    between atoms: C_3  and  C_11
                            x       y       z     vdW  Elec       q    Type
                         _______ _______ _______ _____ _____    ______ ____

>  <TORSDO>
F 3

$$$$
=
 OpenBabel10272401553D

 28 31  0  0  1  0  0  0  0  0999 V2000
  183.8440  178.6110  142.1680 C   0  0  0  0  0  0  0  0  0  0  0  0
  188.8320  177.7860  142.7100 C   0  0  0  0  0  2  0  0  0  0  0  0
  184.3720  178.5450  146.9660 F   0  0  0  0  0  0  0  0  0  0  0  0
  188.9440  177.2370  145.1450 C   0  0  0  0  0  0  0  0  0  0  0  0
  186.7840  177.9810  144.2610 C   0  0  0  0  0  0  0  0  0  0  0  0
  190.9360  176.8610  143.6480 C   0  0  2  0  0  3  0  0  0  0  0  0
  188.2220  177.6730  144.0860 C   0  0  0  0  0  0  0  0  0  0  0  0
  187.1640  177.9920  146.7450 C   0  0  0  0  0  2  0  0  0  0  0  0
  190.4390  177.0640  145.0750 C   0  0  0  0  0  2  0  0  0  0  0  0
  184.0850  178.5700  144.5890 C   0  0  0  0  0  0  0  0  0  0  0  0
  185.9780  178.1550  143.1780 N   0  0  0  0  0  0  0  0  0  0  0  0
  188.2730  176.9760  146.4680 C   0  0  0  0  0  2  0  0  0  0  0  0
  181.9600  179.0150  143.5950 N   0  0  0  0  0  0  0  0  0  0  0  0
  184.8950  178.4060  145.7200 C   0  0  0  0  0  0  0  0  0  0  0  0
  182.7240  178.8620  144.7080 C   0  0  0  0  0  3  0  0  0  0  0  0
  192.3150  176.9380  143.6260 F   0  0  0  0  0  0  0  0  0  0  0  0
  190.3490  177.9400  142.7530 C   0  0  0  0  0  2  0  0  0  0  0  0
  186.2500  178.1020  145.5580 C   0  0  0  0  0  0  0  0  0  0  0  0
  182.4830  178.8940  142.3470 C   0  0  0  0  0  3  0  0  0  0  0  0
  184.6520  178.4410  143.3030 C   0  0  0  0  0  0  0  0  0  0  0  0
  184.4160  178.4500  140.7850 C   0  0  2  0  0  3  0  0  0  0  0  0
  185.4130  179.3950  140.5260 O   0  0  0  0  0  1  0  0  0  0  0  0
  183.3400  178.4640  139.6960 C   0  0  0  0  0  2  0  0  0  0  0  0
  181.7540  180.3080  138.9080 N   0  0  0  0  0  0  0  0  0  0  0  0
  184.0780  180.5640  138.8530 O   0  0  0  0  0  0  0  0  0  0  0  0
  183.0900  179.8330  139.1350 C   0  0  0  0  0  0  0  0  0  0  0  0
  180.5970  179.5250  139.3080 C   0  0  0  0  0  1  0  0  0  0  0  0
  181.5270  181.6070  138.2970 C   0  0  0  0  0  1  0  0  0  0  0  0
  1 19  2  0  0  0  0
  1 20  1  0  0  0  0
  2 17  1  0  0  0  0
  2  7  1  0  0  0  0
  4 12  1  0  0  0  0
  5 18  1  0  0  0  0
  6 16  1  1  0  0  0
  6  9  1  0  0  0  0
  7  5  1  0  0  0  0
  7  4  2  0  0  0  0
  9  4  1  0  0  0  0
 10 15  1  0  0  0  0
 10 14  1  0  0  0  0
 11 20  1  0  0  0  0
 11  5  2  0  0  0  0
 12  8  1  0  0  0  0
 13 15  2  0  0  0  0
 14  3  1  0  0  0  0
 17  6  1  0  0  0  0
 18 14  2  0  0  0  0
 18  8  1  0  0  0  0
 19 13  1  0  0  0  0
 20 10  2  0  0  0  0
 21 22  1  6  0  0  0
 21  1  1  0  0  0  0
 23 21  1  0  0  0  0
 24 26  1  0  0  0  0
 24 27  1  0  0  0  0
 25 26  2  0  0  0  0
 26 23  1  0  0  0  0
 28 24  1  0  0  0  0
M  END
>  <MODEL>
9

>  <REMARK>
 VINA RESULT:      -9.2      3.994      6.944
  Name = 
  3 active torsions:
  status: ('A' for Active; 'I' for Inactive)
    1  A    between atoms: C_1  and  C_2
    2  A    between atoms: C_2  and  C_3
    3  A    between atoms: C_3  and  C_11
                            x       y       z     vdW  Elec       q    Type
                         _______ _______ _______ _____ _____    ______ ____

>  <TORSDO>
F 3

$$$$
