=
 OpenBabel10272400563D

 25 25  0  0  1  0  0  0  0  0999 V2000
  188.9390  177.5170  145.5510 C   0  0  0  0  0  0  0  0  0  0  0  0
  187.6180  177.7380  145.4470 C   0  0  0  0  0  3  0  0  0  0  0  0
  189.0350  178.1660  143.1130 C   0  0  0  0  0  2  0  0  0  0  0  0
  190.1090  176.0620  143.9520 C   0  0  0  0  0  3  0  0  0  0  0  0
  190.6560  176.2720  140.3160 O   0  0  0  0  0  1  0  0  0  0  0  0
  190.1860  176.6160  141.5760 C   0  0  0  0  0  0  0  0  0  0  0  0
  190.3200  175.6640  142.6920 C   0  0  0  0  0  3  0  0  0  0  0  0
  189.7990  177.5050  144.2860 C   0  0  2  0  0  0  0  0  0  0  0  0
  189.6230  177.8100  141.7720 C   0  0  0  0  0  3  0  0  0  0  0  0
  191.1490  178.2340  144.4700 C   0  0  0  0  0  2  0  0  0  0  0  0
  191.0750  179.7230  144.1540 C   0  0  0  0  0  1  0  0  0  0  0  0
  189.4900  178.3740  147.7170 O   0  0  0  0  0  0  0  0  0  0  0  0
  189.5890  177.4270  146.8890 C   0  0  0  0  0  0  0  0  0  0  0  0
  190.3110  176.2820  147.2300 O   0  0  0  0  0  0  0  0  0  0  0  0
  191.6950  176.3300  147.5460 C   0  0  0  0  0  1  0  0  0  0  0  0
  186.7740  177.8420  146.5500 O   0  0  0  0  0  0  0  0  0  0  0  0
  185.8630  178.9240  146.6630 C   0  0  0  0  0  2  0  0  0  0  0  0
  184.0080  178.9100  144.9980 C   0  0  0  0  0  3  0  0  0  0  0  0
  184.5070  178.5130  146.1750 C   0  0  0  0  0  3  0  0  0  0  0  0
  184.7420  179.8110  144.0520 C   0  0  0  0  0  2  0  0  0  0  0  0
  185.2820  179.0150  142.8790 C   0  0  0  0  0  2  0  0  0  0  0  0
  184.1870  178.1310  142.3230 C   0  0  0  0  0  2  0  0  0  0  0  0
  183.6450  178.7430  141.0480 C   0  0  0  0  0  2  0  0  0  0  0  0
  184.6590  179.4550  140.4070 O   0  0  0  0  0  0  0  0  0  0  0  0
  184.2910  179.4520  139.0620 C   0  0  0  0  0  1  0  0  0  0  0  0
  1 13  1  0  0  0  0
  2  1  2  0  0  0  0
  2 16  1  0  0  0  0
  3  8  1  0  0  0  0
  4  8  1  0  0  0  0
  5  6  1  0  0  0  0
  6  9  2  0  0  0  0
  6  7  1  0  0  0  0
  7  4  2  0  0  0  0
  8 10  1  1  0  0  0
  8  1  1  0  0  0  0
  9  3  1  0  0  0  0
 11 10  1  0  0  0  0
 13 14  1  0  0  0  0
 13 12  2  0  0  0  0
 14 15  1  0  0  0  0
 16 17  1  0  0  0  0
 18 19  2  0  0  0  0
 19 17  1  0  0  0  0
 20 18  1  0  0  0  0
 21 20  1  0  0  0  0
 22 21  1  0  0  0  0
 23 22  1  0  0  0  0
 24 23  1  0  0  0  0
 25 24  1  0  0  0  0
M  END
>  <MODEL>
1

>  <REMARK>
 VINA RESULT:      -6.8      0.000      0.000
  Name = 
  12 active torsions:
  status: ('A' for Active; 'I' for Inactive)
    1  A    between atoms: C_1  and  C_18
    2  A    between atoms: C_1  and  C_24
    3  A    between atoms: C_2  and  O_7
    4  A    between atoms: C_2  and  C_25
    5  A    between atoms: C_3  and  O_16
    6  A    between atoms: C_6  and  C_15
    7  A    between atoms: C_6  and  C_21
    8  A    between atoms: O_13  and  C_24
    9  A    between atoms: O_16  and  C_23
   10  A    between atoms: C_17  and  C_18
   11  A    between atoms: C_20  and  C_23
   12  A    between atoms: C_21  and  C_25
                            x       y       z     vdW  Elec       q    Type
                         _______ _______ _______ _____ _____    ______ ____

>  <TORSDO>
F 12

$$$$
=
 OpenBabel10272400563D

 25 25  0  0  1  0  0  0  0  0999 V2000
  189.3610  177.3390  143.0080 C   0  0  0  0  0  0  0  0  0  0  0  0
  188.1110  177.3270  143.5020 C   0  0  0  0  0  3  0  0  0  0  0  0
  191.2050  175.9090  143.9740 C   0  0  0  0  0  2  0  0  0  0  0  0
  190.0290  177.6390  145.3550 C   0  0  0  0  0  3  0  0  0  0  0  0
  192.5370  175.9730  147.4750 O   0  0  0  0  0  1  0  0  0  0  0  0
  191.7680  176.2480  146.3520 C   0  0  0  0  0  0  0  0  0  0  0  0
  190.6220  177.1670  146.4570 C   0  0  0  0  0  3  0  0  0  0  0  0
  190.5480  177.3120  143.9720 C   0  0  2  0  0  0  0  0  0  0  0  0
  192.0770  175.6860  145.1820 C   0  0  0  0  0  3  0  0  0  0  0  0
  191.6270  178.3620  143.6270 C   0  0  0  0  0  2  0  0  0  0  0  0
  191.2460  179.7760  144.0480 C   0  0  0  0  0  1  0  0  0  0  0  0
  190.1440  176.2080  141.0490 O   0  0  0  0  0  0  0  0  0  0  0  0
  189.5980  177.2340  141.5410 C   0  0  0  0  0  0  0  0  0  0  0  0
  189.2060  178.2790  140.7010 O   0  0  0  0  0  0  0  0  0  0  0  0
  188.5070  178.0480  139.4870 C   0  0  0  0  0  1  0  0  0  0  0  0
  186.9750  177.2710  142.6970 O   0  0  0  0  0  0  0  0  0  0  0  0
  186.2230  178.4440  142.4270 C   0  0  0  0  0  2  0  0  0  0  0  0
  183.9560  178.5870  143.4530 C   0  0  0  0  0  3  0  0  0  0  0  0
  184.7560  178.1410  142.4770 C   0  0  0  0  0  3  0  0  0  0  0  0
  184.4390  179.4200  144.6000 C   0  0  0  0  0  2  0  0  0  0  0  0
  184.6450  178.5560  145.8300 C   0  0  0  0  0  2  0  0  0  0  0  0
  185.6870  179.1920  146.7240 C   0  0  0  0  0  2  0  0  0  0  0  0
  186.7360  178.1610  147.0850 C   0  0  0  0  0  2  0  0  0  0  0  0
  187.5760  178.6780  148.0720 O   0  0  0  0  0  0  0  0  0  0  0  0
  187.9950  177.5610  148.7930 C   0  0  0  0  0  1  0  0  0  0  0  0
  1  2  2  0  0  0  0
  1  8  1  0  0  0  0
  3  9  1  0  0  0  0
  4  7  2  0  0  0  0
  6  7  1  0  0  0  0
  6  5  1  0  0  0  0
  8 10  1  6  0  0  0
  8  3  1  0  0  0  0
  8  4  1  0  0  0  0
  9  6  2  0  0  0  0
 10 11  1  0  0  0  0
 12 13  2  0  0  0  0
 13  1  1  0  0  0  0
 14 13  1  0  0  0  0
 15 14  1  0  0  0  0
 16  2  1  0  0  0  0
 17 19  1  0  0  0  0
 17 16  1  0  0  0  0
 18 20  1  0  0  0  0
 19 18  2  0  0  0  0
 20 21  1  0  0  0  0
 21 22  1  0  0  0  0
 22 23  1  0  0  0  0
 23 24  1  0  0  0  0
 24 25  1  0  0  0  0
M  END
>  <MODEL>
2

>  <REMARK>
 VINA RESULT:      -6.7      1.609      5.136
  Name = 
  12 active torsions:
  status: ('A' for Active; 'I' for Inactive)
    1  A    between atoms: C_1  and  C_18
    2  A    between atoms: C_1  and  C_24
    3  A    between atoms: C_2  and  O_7
    4  A    between atoms: C_2  and  C_25
    5  A    between atoms: C_3  and  O_16
    6  A    between atoms: C_6  and  C_15
    7  A    between atoms: C_6  and  C_21
    8  A    between atoms: O_13  and  C_24
    9  A    between atoms: O_16  and  C_23
   10  A    between atoms: C_17  and  C_18
   11  A    between atoms: C_20  and  C_23
   12  A    between atoms: C_21  and  C_25
                            x       y       z     vdW  Elec       q    Type
                         _______ _______ _______ _____ _____    ______ ____

>  <TORSDO>
F 12

$$$$
=
 OpenBabel10272400563D

 25 25  0  0  1  0  0  0  0  0999 V2000
  188.3640  177.5750  144.6540 C   0  0  0  0  0  0  0  0  0  0  0  0
  187.3190  177.9090  145.4300 C   0  0  0  0  0  3  0  0  0  0  0  0
  190.5950  176.3930  144.6920 C   0  0  0  0  0  2  0  0  0  0  0  0
  189.6410  177.4560  146.7520 C   0  0  0  0  0  3  0  0  0  0  0  0
  192.8720  175.9220  147.6300 O   0  0  0  0  0  1  0  0  0  0  0  0
  191.7770  176.2800  146.8560 C   0  0  0  0  0  0  0  0  0  0  0  0
  190.5920  176.8790  147.4940 C   0  0  0  0  0  3  0  0  0  0  0  0
  189.7730  177.5810  145.2500 C   0  0  2  0  0  0  0  0  0  0  0  0
  191.8050  176.0870  145.5350 C   0  0  0  0  0  3  0  0  0  0  0  0
  190.5420  178.8900  144.9640 C   0  0  0  0  0  2  0  0  0  0  0  0
  191.3020  178.8650  143.6440 C   0  0  0  0  0  1  0  0  0  0  0  0
  187.9370  175.8390  143.0620 O   0  0  0  0  0  0  0  0  0  0  0  0
  188.1500  177.0660  143.2700 C   0  0  0  0  0  0  0  0  0  0  0  0
  188.1780  177.9560  142.1940 O   0  0  0  0  0  0  0  0  0  0  0  0
  188.8660  177.6570  140.9880 C   0  0  0  0  0  1  0  0  0  0  0  0
  185.9980  177.8560  144.9910 O   0  0  0  0  0  0  0  0  0  0  0  0
  185.2440  179.0460  144.8240 C   0  0  0  0  0  2  0  0  0  0  0  0
  183.7140  178.7030  142.8860 C   0  0  0  0  0  3  0  0  0  0  0  0
  183.9130  178.7340  144.2090 C   0  0  0  0  0  3  0  0  0  0  0  0
  184.7900  178.9850  141.8830 C   0  0  0  0  0  2  0  0  0  0  0  0
  184.2230  178.9450  140.4760 C   0  0  0  0  0  2  0  0  0  0  0  0
  185.3140  178.5560  139.5030 C   0  0  0  0  0  2  0  0  0  0  0  0
  184.6870  178.0700  138.2130 C   0  0  0  0  0  2  0  0  0  0  0  0
  185.6770  177.9220  137.2420 O   0  0  0  0  0  0  0  0  0  0  0  0
  186.8760  178.0200  137.9470 C   0  0  0  0  0  1  0  0  0  0  0  0
  1  8  1  0  0  0  0
  1  2  2  0  0  0  0
  3  8  1  0  0  0  0
  3  9  1  0  0  0  0
  4  7  2  0  0  0  0
  6  7  1  0  0  0  0
  6  5  1  0  0  0  0
  8 10  1  6  0  0  0
  8  4  1  0  0  0  0
  9  6  2  0  0  0  0
 11 10  1  0  0  0  0
 12 13  2  0  0  0  0
 13  1  1  0  0  0  0
 14 13  1  0  0  0  0
 15 14  1  0  0  0  0
 16  2  1  0  0  0  0
 17 16  1  0  0  0  0
 18 19  2  0  0  0  0
 19 17  1  0  0  0  0
 20 18  1  0  0  0  0
 21 20  1  0  0  0  0
 22 21  1  0  0  0  0
 23 22  1  0  0  0  0
 24 25  1  0  0  0  0
 24 23  1  0  0  0  0
M  END
>  <MODEL>
3

>  <REMARK>
 VINA RESULT:      -6.3      1.844      3.792
  Name = 
  12 active torsions:
  status: ('A' for Active; 'I' for Inactive)
    1  A    between atoms: C_1  and  C_18
    2  A    between atoms: C_1  and  C_24
    3  A    between atoms: C_2  and  O_7
    4  A    between atoms: C_2  and  C_25
    5  A    between atoms: C_3  and  O_16
    6  A    between atoms: C_6  and  C_15
    7  A    between atoms: C_6  and  C_21
    8  A    between atoms: O_13  and  C_24
    9  A    between atoms: O_16  and  C_23
   10  A    between atoms: C_17  and  C_18
   11  A    between atoms: C_20  and  C_23
   12  A    between atoms: C_21  and  C_25
                            x       y       z     vdW  Elec       q    Type
                         _______ _______ _______ _____ _____    ______ ____

>  <TORSDO>
F 12

$$$$
=
 OpenBabel10272400563D

 25 25  0  0  1  0  0  0  0  0999 V2000
  188.9320  177.9640  141.2130 C   0  0  0  0  0  0  0  0  0  0  0  0
  187.7690  178.2730  141.8120 C   0  0  0  0  0  3  0  0  0  0  0  0
  190.1590  176.1090  142.4080 C   0  0  0  0  0  2  0  0  0  0  0  0
  190.0610  178.4310  143.3460 C   0  0  0  0  0  3  0  0  0  0  0  0
  191.9840  176.3220  145.6730 O   0  0  0  0  0  1  0  0  0  0  0  0
  191.2150  176.6620  144.5680 C   0  0  0  0  0  0  0  0  0  0  0  0
  190.5880  177.9930  144.4950 C   0  0  0  0  0  3  0  0  0  0  0  0
  190.1500  177.6210  142.0720 C   0  0  2  0  0  0  0  0  0  0  0  0
  191.0560  175.7860  143.5740 C   0  0  0  0  0  3  0  0  0  0  0  0
  191.4880  177.9830  141.3900 C   0  0  0  0  0  2  0  0  0  0  0  0
  191.9460  176.9430  140.3740 C   0  0  0  0  0  1  0  0  0  0  0  0
  188.8780  176.6810  139.1930 O   0  0  0  0  0  0  0  0  0  0  0  0
  189.0060  177.8150  139.7320 C   0  0  0  0  0  0  0  0  0  0  0  0
  189.2130  178.9420  138.9330 O   0  0  0  0  0  0  0  0  0  0  0  0
  188.9420  178.9370  137.5400 C   0  0  0  0  0  1  0  0  0  0  0  0
  186.5940  178.5230  141.1080 O   0  0  0  0  0  0  0  0  0  0  0  0
  185.5340  179.2520  141.7070 C   0  0  0  0  0  2  0  0  0  0  0  0
  184.4030  178.2940  143.7100 C   0  0  0  0  0  3  0  0  0  0  0  0
  184.5780  178.3170  142.3840 C   0  0  0  0  0  3  0  0  0  0  0  0
  185.1450  179.1860  144.6570 C   0  0  0  0  0  2  0  0  0  0  0  0
  185.6630  178.3870  145.8380 C   0  0  0  0  0  2  0  0  0  0  0  0
  186.9400  177.6770  145.4450 C   0  0  0  0  0  2  0  0  0  0  0  0
  187.7190  177.3170  146.6930 C   0  0  0  0  0  2  0  0  0  0  0  0
  187.1960  178.0100  147.7850 O   0  0  0  0  0  0  0  0  0  0  0  0
  188.2970  178.2570  148.6030 C   0  0  0  0  0  1  0  0  0  0  0  0
  1  2  2  0  0  0  0
  1  8  1  0  0  0  0
  3  9  1  0  0  0  0
  4  7  2  0  0  0  0
  6  5  1  0  0  0  0
  7  6  1  0  0  0  0
  8 10  1  6  0  0  0
  8  3  1  0  0  0  0
  8  4  1  0  0  0  0
  9  6  2  0  0  0  0
 11 10  1  0  0  0  0
 12 13  2  0  0  0  0
 13  1  1  0  0  0  0
 14 13  1  0  0  0  0
 15 14  1  0  0  0  0
 16 17  1  0  0  0  0
 16  2  1  0  0  0  0
 17 19  1  0  0  0  0
 18 20  1  0  0  0  0
 19 18  2  0  0  0  0
 20 21  1  0  0  0  0
 22 21  1  0  0  0  0
 22 23  1  0  0  0  0
 23 24  1  0  0  0  0
 24 25  1  0  0  0  0
M  END
>  <MODEL>
4

>  <REMARK>
 VINA RESULT:      -6.3      1.819      5.589
  Name = 
  12 active torsions:
  status: ('A' for Active; 'I' for Inactive)
    1  A    between atoms: C_1  and  C_18
    2  A    between atoms: C_1  and  C_24
    3  A    between atoms: C_2  and  O_7
    4  A    between atoms: C_2  and  C_25
    5  A    between atoms: C_3  and  O_16
    6  A    between atoms: C_6  and  C_15
    7  A    between atoms: C_6  and  C_21
    8  A    between atoms: O_13  and  C_24
    9  A    between atoms: O_16  and  C_23
   10  A    between atoms: C_17  and  C_18
   11  A    between atoms: C_20  and  C_23
   12  A    between atoms: C_21  and  C_25
                            x       y       z     vdW  Elec       q    Type
                         _______ _______ _______ _____ _____    ______ ____

>  <TORSDO>
F 12

$$$$
=
 OpenBabel10272400563D

 25 25  0  0  1  0  0  0  0  0999 V2000
  189.5240  177.3590  143.3090 C   0  0  0  0  0  0  0  0  0  0  0  0
  188.2480  177.5890  143.6630 C   0  0  0  0  0  3  0  0  0  0  0  0
  191.3130  176.0040  144.4670 C   0  0  0  0  0  2  0  0  0  0  0  0
  189.9590  177.7150  145.7020 C   0  0  0  0  0  3  0  0  0  0  0  0
  192.3080  176.1610  148.0760 O   0  0  0  0  0  1  0  0  0  0  0  0
  191.6390  176.3950  146.8820 C   0  0  0  0  0  0  0  0  0  0  0  0
  190.4600  177.2780  146.8630 C   0  0  0  0  0  3  0  0  0  0  0  0
  190.6160  177.3850  144.3800 C   0  0  2  0  0  0  0  0  0  0  0  0
  192.0740  175.8260  145.7550 C   0  0  0  0  0  3  0  0  0  0  0  0
  191.6900  178.4640  144.1190 C   0  0  0  0  0  2  0  0  0  0  0  0
  191.1310  179.8820  144.1280 C   0  0  0  0  0  1  0  0  0  0  0  0
  190.2100  175.7540  141.6710 O   0  0  0  0  0  0  0  0  0  0  0  0
  189.8620  176.9420  141.9190 C   0  0  0  0  0  0  0  0  0  0  0  0
  189.7870  177.8730  140.8810 O   0  0  0  0  0  0  0  0  0  0  0  0
  190.1870  177.5560  139.5550 C   0  0  0  0  0  1  0  0  0  0  0  0
  187.1840  177.5090  142.7680 O   0  0  0  0  0  0  0  0  0  0  0  0
  185.8500  177.6950  143.2140 C   0  0  0  0  0  2  0  0  0  0  0  0
  184.9330  179.0080  145.1230 C   0  0  0  0  0  3  0  0  0  0  0  0
  185.8380  178.1480  144.6420 C   0  0  0  0  0  3  0  0  0  0  0  0
  183.8460  179.6150  144.2890 C   0  0  0  0  0  2  0  0  0  0  0  0
  182.6050  178.7430  144.3240 C   0  0  0  0  0  2  0  0  0  0  0  0
  181.6570  179.1720  143.2260 C   0  0  0  0  0  2  0  0  0  0  0  0
  182.1880  178.6950  141.8900 C   0  0  0  0  0  2  0  0  0  0  0  0
  181.3790  179.1880  140.8650 O   0  0  0  0  0  0  0  0  0  0  0  0
  180.2560  179.6920  141.5190 C   0  0  0  0  0  1  0  0  0  0  0  0
  1  2  2  0  0  0  0
  1  8  1  0  0  0  0
  3  9  1  0  0  0  0
  4  7  2  0  0  0  0
  6  5  1  0  0  0  0
  7  6  1  0  0  0  0
  8 10  1  6  0  0  0
  8  3  1  0  0  0  0
  8  4  1  0  0  0  0
  9  6  2  0  0  0  0
 10 11  1  0  0  0  0
 12 13  2  0  0  0  0
 13  1  1  0  0  0  0
 14 13  1  0  0  0  0
 15 14  1  0  0  0  0
 16 17  1  0  0  0  0
 16  2  1  0  0  0  0
 17 19  1  0  0  0  0
 19 18  2  0  0  0  0
 20 21  1  0  0  0  0
 20 18  1  0  0  0  0
 22 21  1  0  0  0  0
 23 22  1  0  0  0  0
 24 25  1  0  0  0  0
 24 23  1  0  0  0  0
M  END
>  <MODEL>
5

>  <REMARK>
 VINA RESULT:      -6.0      1.868      4.168
  Name = 
  12 active torsions:
  status: ('A' for Active; 'I' for Inactive)
    1  A    between atoms: C_1  and  C_18
    2  A    between atoms: C_1  and  C_24
    3  A    between atoms: C_2  and  O_7
    4  A    between atoms: C_2  and  C_25
    5  A    between atoms: C_3  and  O_16
    6  A    between atoms: C_6  and  C_15
    7  A    between atoms: C_6  and  C_21
    8  A    between atoms: O_13  and  C_24
    9  A    between atoms: O_16  and  C_23
   10  A    between atoms: C_17  and  C_18
   11  A    between atoms: C_20  and  C_23
   12  A    between atoms: C_21  and  C_25
                            x       y       z     vdW  Elec       q    Type
                         _______ _______ _______ _____ _____    ______ ____

>  <TORSDO>
F 12

$$$$
=
 OpenBabel10272400563D

 25 25  0  0  1  0  0  0  0  0999 V2000
  189.5860  177.4800  141.2350 C   0  0  0  0  0  0  0  0  0  0  0  0
  188.5320  178.0970  140.6740 C   0  0  0  0  0  3  0  0  0  0  0  0
  188.0420  176.9030  143.1480 C   0  0  0  0  0  2  0  0  0  0  0  0
  190.1830  178.1520  143.5230 C   0  0  0  0  0  3  0  0  0  0  0  0
  188.4990  177.7370  146.7720 O   0  0  0  0  0  1  0  0  0  0  0  0
  188.7010  177.6660  145.4000 C   0  0  0  0  0  0  0  0  0  0  0  0
  189.8190  178.4020  144.7850 C   0  0  0  0  0  3  0  0  0  0  0  0
  189.5170  177.0660  142.7060 C   0  0  2  0  0  0  0  0  0  0  0  0
  187.8860  176.9250  144.6460 C   0  0  0  0  0  3  0  0  0  0  0  0
  190.2680  175.7480  142.9960 C   0  0  0  0  0  2  0  0  0  0  0  0
  191.5930  175.9580  143.7200 C   0  0  0  0  0  1  0  0  0  0  0  0
  191.8620  177.6650  140.5160 O   0  0  0  0  0  0  0  0  0  0  0  0
  190.7540  177.0700  140.4050 C   0  0  0  0  0  0  0  0  0  0  0  0
  190.6230  176.0140  139.5010 O   0  0  0  0  0  0  0  0  0  0  0  0
  191.2300  176.0420  138.2180 C   0  0  0  0  0  1  0  0  0  0  0  0
  188.4780  178.4380  139.3250 O   0  0  0  0  0  0  0  0  0  0  0  0
  187.8140  177.6000  138.3930 C   0  0  0  0  0  2  0  0  0  0  0  0
  185.5830  178.6030  137.9190 C   0  0  0  0  0  3  0  0  0  0  0  0
  186.8580  178.4010  137.5640 C   0  0  0  0  0  3  0  0  0  0  0  0
  184.9760  178.0440  139.1690 C   0  0  0  0  0  2  0  0  0  0  0  0
  184.6550  179.1620  140.1440 C   0  0  0  0  0  2  0  0  0  0  0  0
  185.2180  178.8190  141.5060 C   0  0  0  0  0  2  0  0  0  0  0  0
  184.0880  178.7310  142.5100 C   0  0  0  0  0  2  0  0  0  0  0  0
  184.4590  179.3800  143.6870 O   0  0  0  0  0  0  0  0  0  0  0  0
  183.3930  179.1620  144.5580 C   0  0  0  0  0  1  0  0  0  0  0  0
  1  8  1  0  0  0  0
  2  1  2  0  0  0  0
  3  9  1  0  0  0  0
  4  7  2  0  0  0  0
  6  5  1  0  0  0  0
  7  6  1  0  0  0  0
  8 10  1  1  0  0  0
  8  3  1  0  0  0  0
  8  4  1  0  0  0  0
  9  6  2  0  0  0  0
 10 11  1  0  0  0  0
 13 12  2  0  0  0  0
 13  1  1  0  0  0  0
 14 13  1  0  0  0  0
 15 14  1  0  0  0  0
 16  2  1  0  0  0  0
 17 16  1  0  0  0  0
 18 20  1  0  0  0  0
 19 18  2  0  0  0  0
 19 17  1  0  0  0  0
 20 21  1  0  0  0  0
 21 22  1  0  0  0  0
 22 23  1  0  0  0  0
 23 24  1  0  0  0  0
 24 25  1  0  0  0  0
M  END
>  <MODEL>
6

>  <REMARK>
 VINA RESULT:      -6.0      1.901      5.510
  Name = 
  12 active torsions:
  status: ('A' for Active; 'I' for Inactive)
    1  A    between atoms: C_1  and  C_18
    2  A    between atoms: C_1  and  C_24
    3  A    between atoms: C_2  and  O_7
    4  A    between atoms: C_2  and  C_25
    5  A    between atoms: C_3  and  O_16
    6  A    between atoms: C_6  and  C_15
    7  A    between atoms: C_6  and  C_21
    8  A    between atoms: O_13  and  C_24
    9  A    between atoms: O_16  and  C_23
   10  A    between atoms: C_17  and  C_18
   11  A    between atoms: C_20  and  C_23
   12  A    between atoms: C_21  and  C_25
                            x       y       z     vdW  Elec       q    Type
                         _______ _______ _______ _____ _____    ______ ____

>  <TORSDO>
F 12

$$$$
=
 OpenBabel10272400563D

 25 25  0  0  1  0  0  0  0  0999 V2000
  188.5680  177.3920  145.6160 C   0  0  0  0  0  0  0  0  0  0  0  0
  187.3860  177.6370  145.0260 C   0  0  0  0  0  3  0  0  0  0  0  0
  189.8710  178.6200  143.8360 C   0  0  0  0  0  2  0  0  0  0  0  0
  189.8430  176.1160  143.9450 C   0  0  0  0  0  3  0  0  0  0  0  0
  191.9180  177.1260  141.0760 O   0  0  0  0  0  1  0  0  0  0  0  0
  191.0760  177.2520  142.1720 C   0  0  0  0  0  0  0  0  0  0  0  0
  190.4470  176.0540  142.7540 C   0  0  0  0  0  3  0  0  0  0  0  0
  189.8420  177.3840  144.7700 C   0  0  2  0  0  0  0  0  0  0  0  0
  190.8460  178.4570  142.6990 C   0  0  0  0  0  3  0  0  0  0  0  0
  191.1310  177.3790  145.6220 C   0  0  0  0  0  2  0  0  0  0  0  0
  191.7600  175.9970  145.7500 C   0  0  0  0  0  1  0  0  0  0  0  0
  188.7550  176.1370  147.6460 O   0  0  0  0  0  0  0  0  0  0  0  0
  188.6650  177.2710  147.0980 C   0  0  0  0  0  0  0  0  0  0  0  0
  188.6620  178.4230  147.8880 O   0  0  0  0  0  0  0  0  0  0  0  0
  187.5700  178.7550  148.7310 C   0  0  0  0  0  1  0  0  0  0  0  0
  186.1900  177.7390  145.7310 O   0  0  0  0  0  0  0  0  0  0  0  0
  185.4030  178.9170  145.6540 C   0  0  0  0  0  2  0  0  0  0  0  0
  184.1540  178.9520  143.4980 C   0  0  0  0  0  3  0  0  0  0  0  0
  184.1900  178.6770  144.8070 C   0  0  0  0  0  3  0  0  0  0  0  0
  185.3090  179.5360  142.7440 C   0  0  0  0  0  2  0  0  0  0  0  0
  185.6840  178.6400  141.5780 C   0  0  0  0  0  2  0  0  0  0  0  0
  187.1910  178.5920  141.4440 C   0  0  0  0  0  2  0  0  0  0  0  0
  187.5600  178.4190  139.9850 C   0  0  0  0  0  2  0  0  0  0  0  0
  188.9470  178.4640  139.8480 O   0  0  0  0  0  0  0  0  0  0  0  0
  189.1800  178.0840  138.5280 C   0  0  0  0  0  1  0  0  0  0  0  0
  1 13  1  0  0  0  0
  2  1  2  0  0  0  0
  2 16  1  0  0  0  0
  3  8  1  0  0  0  0
  4  8  1  0  0  0  0
  5  6  1  0  0  0  0
  6  9  2  0  0  0  0
  6  7  1  0  0  0  0
  7  4  2  0  0  0  0
  8  1  1  0  0  0  0
  8 10  1  1  0  0  0
  9  3  1  0  0  0  0
 10 11  1  0  0  0  0
 13 12  2  0  0  0  0
 13 14  1  0  0  0  0
 14 15  1  0  0  0  0
 17 16  1  0  0  0  0
 18 19  2  0  0  0  0
 19 17  1  0  0  0  0
 20 18  1  0  0  0  0
 21 20  1  0  0  0  0
 22 21  1  0  0  0  0
 23 22  1  0  0  0  0
 24 23  1  0  0  0  0
 25 24  1  0  0  0  0
M  END
>  <MODEL>
7

>  <REMARK>
 VINA RESULT:      -5.9      1.611      2.449
  Name = 
  12 active torsions:
  status: ('A' for Active; 'I' for Inactive)
    1  A    between atoms: C_1  and  C_18
    2  A    between atoms: C_1  and  C_24
    3  A    between atoms: C_2  and  O_7
    4  A    between atoms: C_2  and  C_25
    5  A    between atoms: C_3  and  O_16
    6  A    between atoms: C_6  and  C_15
    7  A    between atoms: C_6  and  C_21
    8  A    between atoms: O_13  and  C_24
    9  A    between atoms: O_16  and  C_23
   10  A    between atoms: C_17  and  C_18
   11  A    between atoms: C_20  and  C_23
   12  A    between atoms: C_21  and  C_25
                            x       y       z     vdW  Elec       q    Type
                         _______ _______ _______ _____ _____    ______ ____

>  <TORSDO>
F 12

$$$$
=
 OpenBabel10272400563D

 25 25  0  0  1  0  0  0  0  0999 V2000
  189.6910  177.5320  144.3740 C   0  0  0  0  0  0  0  0  0  0  0  0
  188.4200  177.5060  144.8110 C   0  0  0  0  0  3  0  0  0  0  0  0
  191.2900  177.6200  142.4210 C   0  0  0  0  0  2  0  0  0  0  0  0
  188.8420  177.1920  142.0910 C   0  0  0  0  0  3  0  0  0  0  0  0
  190.4730  177.2020  138.7890 O   0  0  0  0  0  1  0  0  0  0  0  0
  190.3360  177.3200  140.1650 C   0  0  0  0  0  0  0  0  0  0  0  0
  188.9920  177.3330  140.7700 C   0  0  0  0  0  3  0  0  0  0  0  0
  190.0240  176.9420  143.0020 C   0  0  2  0  0  0  0  0  0  0  0  0
  191.4220  177.4100  140.9360 C   0  0  0  0  0  3  0  0  0  0  0  0
  190.2570  175.4160  143.0440 C   0  0  0  0  0  2  0  0  0  0  0  0
  191.5790  175.0280  143.6950 C   0  0  0  0  0  1  0  0  0  0  0  0
  190.8570  179.5070  145.0600 O   0  0  0  0  0  0  0  0  0  0  0  0
  190.7430  178.2530  145.1440 C   0  0  0  0  0  0  0  0  0  0  0  0
  191.6080  177.5330  145.9710 O   0  0  0  0  0  0  0  0  0  0  0  0
  191.1320  176.7280  147.0400 C   0  0  0  0  0  1  0  0  0  0  0  0
  188.0160  178.0880  146.0100 O   0  0  0  0  0  0  0  0  0  0  0  0
  186.7740  177.7390  146.6000 C   0  0  0  0  0  2  0  0  0  0  0  0
  185.0940  179.1550  145.4230 C   0  0  0  0  0  3  0  0  0  0  0  0
  185.8190  178.8910  146.5170 C   0  0  0  0  0  3  0  0  0  0  0  0
  185.1660  178.3400  144.1680 C   0  0  0  0  0  2  0  0  0  0  0  0
  183.8800  178.4780  143.3750 C   0  0  0  0  0  2  0  0  0  0  0  0
  184.1790  179.1210  142.0380 C   0  0  0  0  0  2  0  0  0  0  0  0
  185.6470  178.9410  141.7110 C   0  0  0  0  0  2  0  0  0  0  0  0
  185.8150  178.9190  140.3260 O   0  0  0  0  0  0  0  0  0  0  0  0
  184.5420  179.1680  139.8160 C   0  0  0  0  0  1  0  0  0  0  0  0
  1  2  2  0  0  0  0
  1 13  1  0  0  0  0
  2 16  1  0  0  0  0
  3  8  1  0  0  0  0
  4  8  1  0  0  0  0
  5  6  1  0  0  0  0
  6  7  1  0  0  0  0
  6  9  2  0  0  0  0
  7  4  2  0  0  0  0
  8 10  1  1  0  0  0
  8  1  1  0  0  0  0
  9  3  1  0  0  0  0
 10 11  1  0  0  0  0
 12 13  2  0  0  0  0
 13 14  1  0  0  0  0
 14 15  1  0  0  0  0
 16 17  1  0  0  0  0
 18 19  2  0  0  0  0
 19 17  1  0  0  0  0
 20 18  1  0  0  0  0
 21 20  1  0  0  0  0
 22 21  1  0  0  0  0
 23 22  1  0  0  0  0
 24 23  1  0  0  0  0
 25 24  1  0  0  0  0
M  END
>  <MODEL>
8

>  <REMARK>
 VINA RESULT:      -5.8      1.410      2.095
  Name = 
  12 active torsions:
  status: ('A' for Active; 'I' for Inactive)
    1  A    between atoms: C_1  and  C_18
    2  A    between atoms: C_1  and  C_24
    3  A    between atoms: C_2  and  O_7
    4  A    between atoms: C_2  and  C_25
    5  A    between atoms: C_3  and  O_16
    6  A    between atoms: C_6  and  C_15
    7  A    between atoms: C_6  and  C_21
    8  A    between atoms: O_13  and  C_24
    9  A    between atoms: O_16  and  C_23
   10  A    between atoms: C_17  and  C_18
   11  A    between atoms: C_20  and  C_23
   12  A    between atoms: C_21  and  C_25
                            x       y       z     vdW  Elec       q    Type
                         _______ _______ _______ _____ _____    ______ ____

>  <TORSDO>
F 12

$$$$
=
 OpenBabel10272400563D

 25 25  0  0  1  0  0  0  0  0999 V2000
  186.0560  178.6080  141.0910 C   0  0  0  0  0  0  0  0  0  0  0  0
  187.3970  178.6740  141.1360 C   0  0  0  0  0  3  0  0  0  0  0  0
  185.0430  179.9150  143.0000 C   0  0  0  0  0  2  0  0  0  0  0  0
  186.0680  177.6560  143.3570 C   0  0  0  0  0  3  0  0  0  0  0  0
  184.8580  178.9060  146.6030 O   0  0  0  0  0  1  0  0  0  0  0  0
  185.1500  178.8990  145.2460 C   0  0  0  0  0  0  0  0  0  0  0  0
  185.9840  177.8230  144.6810 C   0  0  0  0  0  3  0  0  0  0  0  0
  185.2660  178.5050  142.3970 C   0  0  2  0  0  0  0  0  0  0  0  0
  184.6680  179.8620  144.4570 C   0  0  0  0  0  3  0  0  0  0  0  0
  183.8920  177.8220  142.2170 C   0  0  0  0  0  2  0  0  0  0  0  0
  182.7210  178.7910  142.3250 C   0  0  0  0  0  1  0  0  0  0  0  0
  185.3810  177.8800  138.9120 O   0  0  0  0  0  0  0  0  0  0  0  0
  185.3310  178.7760  139.8000 C   0  0  0  0  0  0  0  0  0  0  0  0
  184.5830  179.9340  139.5730 O   0  0  0  0  0  0  0  0  0  0  0  0
  183.3540  179.9090  138.8630 C   0  0  0  0  0  1  0  0  0  0  0  0
  188.1890  178.8470  140.0030 O   0  0  0  0  0  0  0  0  0  0  0  0
  188.7460  177.7270  139.3340 C   0  0  0  0  0  2  0  0  0  0  0  0
  190.8010  177.2220  140.6510 C   0  0  0  0  0  3  0  0  0  0  0  0
  190.2310  177.6890  139.5340 C   0  0  0  0  0  3  0  0  0  0  0  0
  190.0220  176.6990  141.8190 C   0  0  0  0  0  2  0  0  0  0  0  0
  190.3760  177.4690  143.0770 C   0  0  0  0  0  2  0  0  0  0  0  0
  189.6510  176.8650  144.2590 C   0  0  0  0  0  2  0  0  0  0  0  0
  189.6060  177.8720  145.3900 C   0  0  0  0  0  2  0  0  0  0  0  0
  189.0220  177.2850  146.5120 O   0  0  0  0  0  0  0  0  0  0  0  0
  190.1010  176.9060  147.3090 C   0  0  0  0  0  1  0  0  0  0  0  0
  1  2  2  0  0  0  0
  1  8  1  0  0  0  0
  3  9  1  0  0  0  0
  4  7  2  0  0  0  0
  6  5  1  0  0  0  0
  7  6  1  0  0  0  0
  8 10  1  6  0  0  0
  8  3  1  0  0  0  0
  8  4  1  0  0  0  0
  9  6  2  0  0  0  0
 10 11  1  0  0  0  0
 12 13  2  0  0  0  0
 13  1  1  0  0  0  0
 14 13  1  0  0  0  0
 15 14  1  0  0  0  0
 16  2  1  0  0  0  0
 17 19  1  0  0  0  0
 17 16  1  0  0  0  0
 18 20  1  0  0  0  0
 19 18  2  0  0  0  0
 20 21  1  0  0  0  0
 21 22  1  0  0  0  0
 22 23  1  0  0  0  0
 23 24  1  0  0  0  0
 24 25  1  0  0  0  0
M  END
>  <MODEL>
9

>  <REMARK>
 VINA RESULT:      -5.7      1.658      7.601
  Name = 
  12 active torsions:
  status: ('A' for Active; 'I' for Inactive)
    1  A    between atoms: C_1  and  C_18
    2  A    between atoms: C_1  and  C_24
    3  A    between atoms: C_2  and  O_7
    4  A    between atoms: C_2  and  C_25
    5  A    between atoms: C_3  and  O_16
    6  A    between atoms: C_6  and  C_15
    7  A    between atoms: C_6  and  C_21
    8  A    between atoms: O_13  and  C_24
    9  A    between atoms: O_16  and  C_23
   10  A    between atoms: C_17  and  C_18
   11  A    between atoms: C_20  and  C_23
   12  A    between atoms: C_21  and  C_25
                            x       y       z     vdW  Elec       q    Type
                         _______ _______ _______ _____ _____    ______ ____

>  <TORSDO>
F 12

$$$$
