=
 OpenBabel10272415323D

 34 37  0  0  1  0  0  0  0  0999 V2000
  191.1250  177.1150  140.5550 C   0  0  0  0  0  0  0  0  0  0  0  0
  192.2150  177.6150  140.9360 O   0  0  0  0  0  0  0  0  0  0  0  0
  190.8230  176.8530  138.0050 C   0  0  1  0  0  3  0  0  0  0  0  0
  189.5040  176.6210  138.7140 C   0  0  1  0  0  3  0  0  0  0  0  0
  190.4830  177.6340  139.2900 C   0  0  1  0  0  3  0  0  0  0  0  0
  193.2290  176.0720  138.1220 C   0  0  2  0  0  3  0  0  0  0  0  0
  192.5840  173.7600  136.5890 C   0  0  2  0  0  0  0  0  0  0  0  0
  192.4240  172.7630  135.5090 C   0  0  0  0  0  2  0  0  0  0  0  0
  191.4300  174.5230  137.1860 C   0  0  0  0  0  0  0  0  0  0  0  0
  190.2140  173.9730  137.1730 C   0  0  0  0  0  2  0  0  0  0  0  0
  193.4720  176.8650  136.9980 O   0  0  0  0  0  1  0  0  0  0  0  0
  192.7800  174.1020  135.2400 O   0  0  0  0  0  0  0  0  0  0  0  0
  193.8140  173.7790  137.3010 O   0  0  0  0  0  0  0  0  0  0  0  0
  194.1410  174.8830  138.0890 C   0  0  0  0  0  0  0  0  0  0  0  0
  191.7470  175.6340  138.1760 C   0  0  2  0  0  3  0  0  0  0  0  0
  195.2180  174.8950  138.7400 O   0  0  0  0  0  0  0  0  0  0  0  0
  187.6120  176.6410  137.2620 O   0  0  0  0  0  0  0  0  0  0  0  0
  188.4120  177.3110  137.9670 C   0  0  0  0  0  0  0  0  0  0  0  0
  188.2440  178.6860  138.0760 O   0  0  0  0  0  1  0  0  0  0  0  0
  190.5260  176.1340  141.3520 O   0  0  0  0  0  0  0  0  0  0  0  0
  189.9960  176.4000  142.6450 C   0  0  2  0  0  3  0  0  0  0  0  0
  189.6060  177.8690  142.7310 C   0  0  0  0  0  2  0  0  0  0  0  0
  185.3410  178.3740  142.6100 C   0  0  0  0  0  0  0  0  0  0  0  0
  186.1270  178.7360  141.5030 C   0  0  0  0  0  3  0  0  0  0  0  0
  187.5130  178.5670  141.5400 C   0  0  0  0  0  3  0  0  0  0  0  0
  187.3440  177.6730  143.7830 C   0  0  0  0  0  3  0  0  0  0  0  0
  188.1240  178.0340  142.6800 C   0  0  0  0  0  0  0  0  0  0  0  0
  185.9580  177.8420  143.7470 C   0  0  0  0  0  3  0  0  0  0  0  0
  183.8800  178.5400  142.6100 C   0  0  0  0  0  3  0  0  0  0  0  0
  181.7160  178.9960  143.6350 C   0  0  0  0  0  1  0  0  0  0  0  0
  183.1920  178.8430  143.7050 C   0  0  0  0  0  3  0  0  0  0  0  0
  191.0410  176.0740  143.7020 C   0  0  0  0  0  2  0  0  0  0  0  0
  191.8090  176.9250  145.8570 N   0  0  0  0  0  1  0  0  0  0  0  0
  191.3890  177.3070  144.5210 C   0  0  0  0  0  2  0  0  0  0  0  0
  1  2  2  0  0  0  0
  1 20  1  0  0  0  0
  3 15  1  1  0  0  0
  3  4  1  0  0  0  0
  3  5  1  0  0  0  0
  4 18  1  6  0  0  0
  4  5  1  0  0  0  0
  5  1  1  1  0  0  0
  6 11  1  6  0  0  0
  6 15  1  0  0  0  0
  7  8  1  6  0  0  0
  7  9  1  0  0  0  0
  7 13  1  0  0  0  0
 10  9  2  0  0  0  0
 12  8  1  0  0  0  0
 12  7  1  0  0  0  0
 13 14  1  0  0  0  0
 14  6  1  0  0  0  0
 14 16  2  0  0  0  0
 15  9  1  6  0  0  0
 17 18  2  0  0  0  0
 18 19  1  0  0  0  0
 20 21  1  0  0  0  0
 21 22  1  6  0  0  0
 21 32  1  0  0  0  0
 23 29  1  0  0  0  0
 23 28  1  0  0  0  0
 24 25  1  0  0  0  0
 24 23  2  0  0  0  0
 25 27  2  0  0  0  0
 27 22  1  0  0  0  0
 27 26  1  0  0  0  0
 28 26  2  0  0  0  0
 29 31  2  0  0  0  0
 30 31  1  0  0  0  0
 32 34  1  0  0  0  0
 34 33  1  0  0  0  0
M  END
>  <MODEL>
1

>  <REMARK>
 VINA RESULT:      -8.0      0.000      0.000
  Name = 
  10 active torsions:
  status: ('A' for Active; 'I' for Inactive)
    1  A    between atoms: C_1  and  O_8
    2  A    between atoms: C_1  and  C_34
    3  A    between atoms: C_5  and  C_32
    4  A    between atoms: C_6  and  C_18
    5  A    between atoms: C_6  and  C_28
    6  A    between atoms: C_7  and  C_11
    7  A    between atoms: O_8  and  C_18
    8  A    between atoms: C_12  and  C_20
    9  A    between atoms: C_18  and  C_30
   10  A    between atoms: C_30  and  C_31
                            x       y       z     vdW  Elec       q    Type
                         _______ _______ _______ _____ _____    ______ ____

>  <TORSDO>
F 10

$$$$
=
 OpenBabel10272415323D

 34 37  0  0  1  0  0  0  0  0999 V2000
  190.6430  177.3350  139.8560 C   0  0  0  0  0  0  0  0  0  0  0  0
  191.8090  177.4980  140.3030 O   0  0  0  0  0  0  0  0  0  0  0  0
  191.0430  176.8160  137.3600 C   0  0  1  0  0  3  0  0  0  0  0  0
  189.5870  176.5860  137.7150 C   0  0  1  0  0  3  0  0  0  0  0  0
  190.3530  177.6970  138.4180 C   0  0  1  0  0  3  0  0  0  0  0  0
  193.3990  176.0960  137.9450 C   0  0  2  0  0  3  0  0  0  0  0  0
  192.9130  173.5110  136.8530 C   0  0  2  0  0  0  0  0  0  0  0  0
  192.8740  172.3100  135.9920 C   0  0  0  0  0  2  0  0  0  0  0  0
  191.7070  174.3710  137.1250 C   0  0  0  0  0  0  0  0  0  0  0  0
  190.4920  173.8200  137.0700 C   0  0  0  0  0  2  0  0  0  0  0  0
  193.7980  176.6410  136.7220 O   0  0  0  0  0  1  0  0  0  0  0  0
  193.2870  173.5670  135.5000 O   0  0  0  0  0  0  0  0  0  0  0  0
  194.0430  173.6880  137.6990 O   0  0  0  0  0  0  0  0  0  0  0  0
  194.2860  174.9340  138.2770 C   0  0  0  0  0  0  0  0  0  0  0  0
  191.9150  175.6660  137.8970 C   0  0  2  0  0  3  0  0  0  0  0  0
  195.2710  175.0910  139.0450 O   0  0  0  0  0  0  0  0  0  0  0  0
  187.8530  178.0150  136.9150 O   0  0  0  0  0  1  0  0  0  0  0  0
  188.7210  177.1460  136.6360 C   0  0  0  0  0  0  0  0  0  0  0  0
  188.8920  176.7450  135.3170 O   0  0  0  0  0  0  0  0  0  0  0  0
  189.6520  176.8760  140.7290 O   0  0  0  0  0  0  0  0  0  0  0  0
  188.8640  177.7420  141.5350 C   0  0  2  0  0  3  0  0  0  0  0  0
  188.2110  176.9320  142.6470 C   0  0  0  0  0  2  0  0  0  0  0  0
  190.6670  176.8210  146.1710 C   0  0  0  0  0  0  0  0  0  0  0  0
  191.2190  176.5180  144.9150 C   0  0  0  0  0  3  0  0  0  0  0  0
  190.4220  176.5590  143.7680 C   0  0  0  0  0  3  0  0  0  0  0  0
  188.5180  177.2060  145.1140 C   0  0  0  0  0  3  0  0  0  0  0  0
  189.0700  176.9050  143.8650 C   0  0  0  0  0  0  0  0  0  0  0  0
  189.3130  177.1650  146.2610 C   0  0  0  0  0  3  0  0  0  0  0  0
  191.4720  176.7860  147.4000 C   0  0  0  0  0  3  0  0  0  0  0  0
  193.1270  175.8430  148.9210 C   0  0  0  0  0  1  0  0  0  0  0  0
  192.3450  175.8180  147.6590 C   0  0  0  0  0  3  0  0  0  0  0  0
  187.7980  178.4080  140.6780 C   0  0  0  0  0  2  0  0  0  0  0  0
  185.5030  179.2400  140.6620 N   0  0  0  0  0  1  0  0  0  0  0  0
  186.5880  178.7920  141.5160 C   0  0  0  0  0  2  0  0  0  0  0  0
  1  2  2  0  0  0  0
  1 20  1  0  0  0  0
  3  4  1  0  0  0  0
  3 15  1  1  0  0  0
  3  5  1  0  0  0  0
  4 18  1  6  0  0  0
  4  5  1  0  0  0  0
  5  1  1  1  0  0  0
  6 11  1  6  0  0  0
  6 14  1  0  0  0  0
  7  8  1  1  0  0  0
  7  9  1  0  0  0  0
  7 13  1  0  0  0  0
 10  9  2  0  0  0  0
 12  8  1  0  0  0  0
 12  7  1  0  0  0  0
 13 14  1  0  0  0  0
 14 16  2  0  0  0  0
 15  9  1  6  0  0  0
 15  6  1  0  0  0  0
 18 17  1  0  0  0  0
 19 18  2  0  0  0  0
 20 21  1  0  0  0  0
 21 32  1  6  0  0  0
 21 22  1  0  0  0  0
 22 27  1  0  0  0  0
 23 28  1  0  0  0  0
 23 29  1  0  0  0  0
 24 23  2  0  0  0  0
 25 27  2  0  0  0  0
 25 24  1  0  0  0  0
 26 28  2  0  0  0  0
 27 26  1  0  0  0  0
 29 31  2  0  0  0  0
 31 30  1  0  0  0  0
 32 34  1  0  0  0  0
 33 34  1  0  0  0  0
M  END
>  <MODEL>
2

>  <REMARK>
 VINA RESULT:      -7.3      2.154      4.375
  Name = 
  10 active torsions:
  status: ('A' for Active; 'I' for Inactive)
    1  A    between atoms: C_1  and  O_8
    2  A    between atoms: C_1  and  C_34
    3  A    between atoms: C_5  and  C_32
    4  A    between atoms: C_6  and  C_18
    5  A    between atoms: C_6  and  C_28
    6  A    between atoms: C_7  and  C_11
    7  A    between atoms: O_8  and  C_18
    8  A    between atoms: C_12  and  C_20
    9  A    between atoms: C_18  and  C_30
   10  A    between atoms: C_30  and  C_31
                            x       y       z     vdW  Elec       q    Type
                         _______ _______ _______ _____ _____    ______ ____

>  <TORSDO>
F 10

$$$$
=
 OpenBabel10272415323D

 34 37  0  0  1  0  0  0  0  0999 V2000
  184.5160  178.6470  141.0120 C   0  0  0  0  0  0  0  0  0  0  0  0
  183.8300  177.6390  141.3250 O   0  0  0  0  0  0  0  0  0  0  0  0
  184.5270  179.0670  138.4660 C   0  0  1  0  0  3  0  0  0  0  0  0
  183.1200  178.7560  138.9380 C   0  0  1  0  0  3  0  0  0  0  0  0
  184.0590  179.5160  139.8640 C   0  0  1  0  0  3  0  0  0  0  0  0
  186.8730  178.1310  138.2910 C   0  0  2  0  0  3  0  0  0  0  0  0
  185.9550  176.0740  136.5480 C   0  0  2  0  0  0  0  0  0  0  0  0
  185.6460  175.2320  135.3730 C   0  0  0  0  0  2  0  0  0  0  0  0
  184.9050  176.8250  137.3240 C   0  0  0  0  0  0  0  0  0  0  0  0
  183.6550  176.3570  137.3440 C   0  0  0  0  0  2  0  0  0  0  0  0
  187.0880  179.0430  137.2540 O   0  0  0  0  0  1  0  0  0  0  0  0
  186.0750  176.5700  135.2380 O   0  0  0  0  0  0  0  0  0  0  0  0
  187.2320  175.9280  137.1540 O   0  0  0  0  0  0  0  0  0  0  0  0
  187.6940  176.9020  138.0400 C   0  0  0  0  0  0  0  0  0  0  0  0
  185.3720  177.7810  138.4120 C   0  0  2  0  0  3  0  0  0  0  0  0
  188.8130  176.7660  138.5980 O   0  0  0  0  0  0  0  0  0  0  0  0
  182.2140  180.9240  138.5290 O   0  0  0  0  0  1  0  0  0  0  0  0
  182.1600  179.6910  138.2820 C   0  0  0  0  0  0  0  0  0  0  0  0
  181.2300  179.2150  137.3650 O   0  0  0  0  0  0  0  0  0  0  0  0
  185.7040  178.8870  141.7080 O   0  0  0  0  0  0  0  0  0  0  0  0
  185.7620  179.0310  143.1210 C   0  0  2  0  0  3  0  0  0  0  0  0
  185.8490  177.6510  143.7600 C   0  0  0  0  0  2  0  0  0  0  0  0
  189.6070  177.1640  145.7850 C   0  0  0  0  0  0  0  0  0  0  0  0
  188.4660  177.5620  146.5010 C   0  0  0  0  0  3  0  0  0  0  0  0
  187.2420  177.7160  145.8430 C   0  0  0  0  0  3  0  0  0  0  0  0
  188.2840  177.0750  143.7550 C   0  0  0  0  0  3  0  0  0  0  0  0
  187.1490  177.4710  144.4690 C   0  0  0  0  0  0  0  0  0  0  0  0
  189.5070  176.9210  144.4110 C   0  0  0  0  0  3  0  0  0  0  0  0
  190.9120  176.9940  146.4410 C   0  0  0  0  0  3  0  0  0  0  0  0
  192.5320  175.8490  147.8570 C   0  0  0  0  0  1  0  0  0  0  0  0
  191.1920  175.9590  147.2240 C   0  0  0  0  0  3  0  0  0  0  0  0
  184.5180  179.7560  143.6130 C   0  0  0  0  0  2  0  0  0  0  0  0
  182.3760  178.7640  144.2360 N   0  0  0  0  0  1  0  0  0  0  0  0
  183.7650  178.9160  144.6320 C   0  0  0  0  0  2  0  0  0  0  0  0
  1  2  2  0  0  0  0
  1 20  1  0  0  0  0
  3 15  1  1  0  0  0
  3  4  1  0  0  0  0
  3  5  1  0  0  0  0
  4 18  1  6  0  0  0
  4  5  1  0  0  0  0
  5  1  1  1  0  0  0
  6 11  1  6  0  0  0
  6 15  1  0  0  0  0
  7  8  1  6  0  0  0
  7 13  1  0  0  0  0
  7  9  1  0  0  0  0
  9 10  2  0  0  0  0
 12  8  1  0  0  0  0
 12  7  1  0  0  0  0
 13 14  1  0  0  0  0
 14  6  1  0  0  0  0
 14 16  2  0  0  0  0
 15  9  1  6  0  0  0
 18 17  1  0  0  0  0
 19 18  2  0  0  0  0
 20 21  1  0  0  0  0
 21 32  1  1  0  0  0
 21 22  1  0  0  0  0
 22 27  1  0  0  0  0
 23 29  1  0  0  0  0
 23 24  1  0  0  0  0
 25 24  2  0  0  0  0
 26 28  1  0  0  0  0
 26 27  2  0  0  0  0
 27 25  1  0  0  0  0
 28 23  2  0  0  0  0
 29 31  2  0  0  0  0
 31 30  1  0  0  0  0
 32 34  1  0  0  0  0
 33 34  1  0  0  0  0
M  END
>  <MODEL>
3

>  <REMARK>
 VINA RESULT:      -7.3      4.042      6.856
  Name = 
  10 active torsions:
  status: ('A' for Active; 'I' for Inactive)
    1  A    between atoms: C_1  and  O_8
    2  A    between atoms: C_1  and  C_34
    3  A    between atoms: C_5  and  C_32
    4  A    between atoms: C_6  and  C_18
    5  A    between atoms: C_6  and  C_28
    6  A    between atoms: C_7  and  C_11
    7  A    between atoms: O_8  and  C_18
    8  A    between atoms: C_12  and  C_20
    9  A    between atoms: C_18  and  C_30
   10  A    between atoms: C_30  and  C_31
                            x       y       z     vdW  Elec       q    Type
                         _______ _______ _______ _____ _____    ______ ____

>  <TORSDO>
F 10

$$$$
=
 OpenBabel10272415323D

 34 37  0  0  1  0  0  0  0  0999 V2000
  185.2280  178.8000  140.3090 C   0  0  0  0  0  0  0  0  0  0  0  0
  186.4340  178.8230  139.9520 O   0  0  0  0  0  0  0  0  0  0  0  0
  183.5230  178.5100  138.3930 C   0  0  1  0  0  3  0  0  0  0  0  0
  182.8060  178.8660  139.6810 C   0  0  1  0  0  3  0  0  0  0  0  0
  184.1890  179.4450  139.4210 C   0  0  1  0  0  3  0  0  0  0  0  0
  185.0110  176.7780  137.3000 C   0  0  2  0  0  3  0  0  0  0  0  0
  182.9610  174.8170  137.5470 C   0  0  2  0  0  0  0  0  0  0  0  0
  181.8540  173.8700  137.2950 C   0  0  0  0  0  2  0  0  0  0  0  0
  182.8040  176.0700  138.3680 C   0  0  0  0  0  0  0  0  0  0  0  0
  181.8700  176.1080  139.3210 C   0  0  0  0  0  2  0  0  0  0  0  0
  184.5430  177.2480  136.0700 O   0  0  0  0  0  1  0  0  0  0  0  0
  182.1990  174.8780  136.3680 O   0  0  0  0  0  0  0  0  0  0  0  0
  184.2860  174.3800  137.2720 O   0  0  0  0  0  0  0  0  0  0  0  0
  185.3180  175.3150  137.1810 C   0  0  0  0  0  0  0  0  0  0  0  0
  183.9760  177.0400  138.4180 C   0  0  2  0  0  3  0  0  0  0  0  0
  186.4960  174.9330  136.9610 O   0  0  0  0  0  0  0  0  0  0  0  0
  182.0040  180.8610  138.6500 O   0  0  0  0  0  0  0  0  0  0  0  0
  181.7490  179.8790  139.3960 C   0  0  0  0  0  0  0  0  0  0  0  0
  180.4690  179.7260  139.9140 O   0  0  0  0  0  1  0  0  0  0  0  0
  184.9070  178.2250  141.5420 O   0  0  0  0  0  0  0  0  0  0  0  0
  185.5790  178.5540  142.7510 C   0  0  2  0  0  3  0  0  0  0  0  0
  185.6620  177.3120  143.6290 C   0  0  0  0  0  2  0  0  0  0  0  0
  189.3230  177.2040  145.8740 C   0  0  0  0  0  0  0  0  0  0  0  0
  189.3280  176.9100  144.5010 C   0  0  0  0  0  3  0  0  0  0  0  0
  188.1380  176.9500  143.7690 C   0  0  0  0  0  3  0  0  0  0  0  0
  186.9290  177.5790  145.7690 C   0  0  0  0  0  3  0  0  0  0  0  0
  186.9370  177.2870  144.4020 C   0  0  0  0  0  0  0  0  0  0  0  0
  188.1180  177.5390  146.5020 C   0  0  0  0  0  3  0  0  0  0  0  0
  190.5540  177.1700  146.6780 C   0  0  0  0  0  3  0  0  0  0  0  0
  192.3950  176.0730  147.8390 C   0  0  0  0  0  1  0  0  0  0  0  0
  191.1530  176.0360  147.0250 C   0  0  0  0  0  3  0  0  0  0  0  0
  184.8200  179.6560  143.4750 C   0  0  0  0  0  2  0  0  0  0  0  0
  183.6360  179.1320  145.5450 N   0  0  0  0  0  1  0  0  0  0  0  0
  183.5400  179.1180  144.0960 C   0  0  0  0  0  2  0  0  0  0  0  0
  1 20  1  0  0  0  0
  2  1  2  0  0  0  0
  3 15  1  1  0  0  0
  3  5  1  0  0  0  0
  3  4  1  0  0  0  0
  4 18  1  6  0  0  0
  5  4  1  0  0  0  0
  5  1  1  1  0  0  0
  6 11  1  6  0  0  0
  6 15  1  0  0  0  0
  7  8  1  1  0  0  0
  7  9  1  0  0  0  0
  9 10  2  0  0  0  0
 12  8  1  0  0  0  0
 12  7  1  0  0  0  0
 13  7  1  0  0  0  0
 14 13  1  0  0  0  0
 14  6  1  0  0  0  0
 15  9  1  6  0  0  0
 16 14  2  0  0  0  0
 17 18  2  0  0  0  0
 18 19  1  0  0  0  0
 20 21  1  0  0  0  0
 21 32  1  1  0  0  0
 21 22  1  0  0  0  0
 22 27  1  0  0  0  0
 23 28  1  0  0  0  0
 23 29  1  0  0  0  0
 24 23  2  0  0  0  0
 25 27  2  0  0  0  0
 25 24  1  0  0  0  0
 26 28  2  0  0  0  0
 27 26  1  0  0  0  0
 29 31  2  0  0  0  0
 31 30  1  0  0  0  0
 32 34  1  0  0  0  0
 34 33  1  0  0  0  0
M  END
>  <MODEL>
4

>  <REMARK>
 VINA RESULT:      -7.2      5.050      7.604
  Name = 
  10 active torsions:
  status: ('A' for Active; 'I' for Inactive)
    1  A    between atoms: C_1  and  O_8
    2  A    between atoms: C_1  and  C_34
    3  A    between atoms: C_5  and  C_32
    4  A    between atoms: C_6  and  C_18
    5  A    between atoms: C_6  and  C_28
    6  A    between atoms: C_7  and  C_11
    7  A    between atoms: O_8  and  C_18
    8  A    between atoms: C_12  and  C_20
    9  A    between atoms: C_18  and  C_30
   10  A    between atoms: C_30  and  C_31
                            x       y       z     vdW  Elec       q    Type
                         _______ _______ _______ _____ _____    ______ ____

>  <TORSDO>
F 10

$$$$
=
 OpenBabel10272415323D

 34 37  0  0  1  0  0  0  0  0999 V2000
  189.5160  178.2580  145.2980 C   0  0  0  0  0  0  0  0  0  0  0  0
  190.3040  179.1650  144.9250 O   0  0  0  0  0  0  0  0  0  0  0  0
  190.2730  176.3180  143.7730 C   0  0  1  0  0  3  0  0  0  0  0  0
  191.3960  176.7150  144.7100 C   0  0  1  0  0  3  0  0  0  0  0  0
  189.9580  176.8160  145.1970 C   0  0  1  0  0  3  0  0  0  0  0  0
  188.6420  177.4850  142.2270 C   0  0  2  0  0  3  0  0  0  0  0  0
  190.4990  177.2970  140.0760 C   0  0  2  0  0  0  0  0  0  0  0  0
  191.2250  176.9130  138.8470 C   0  0  0  0  0  2  0  0  0  0  0  0
  191.0390  177.0570  141.4620 C   0  0  0  0  0  0  0  0  0  0  0  0
  192.3600  177.0030  141.6430 C   0  0  0  0  0  2  0  0  0  0  0  0
  188.0830  176.2290  141.9770 O   0  0  0  0  0  1  0  0  0  0  0  0
  190.2310  176.0870  139.4140 O   0  0  0  0  0  0  0  0  0  0  0  0
  189.4060  178.1970  139.9500 O   0  0  0  0  0  0  0  0  0  0  0  0
  188.5000  178.3370  141.0010 C   0  0  0  0  0  0  0  0  0  0  0  0
  190.1250  177.3530  142.6430 C   0  0  2  0  0  3  0  0  0  0  0  0
  187.5430  179.1490  140.9050 O   0  0  0  0  0  0  0  0  0  0  0  0
  192.3570  174.5450  144.4710 O   0  0  0  0  0  0  0  0  0  0  0  0
  192.0490  175.4860  145.2490 C   0  0  0  0  0  0  0  0  0  0  0  0
  192.3580  175.3880  146.6000 O   0  0  0  0  0  1  0  0  0  0  0  0
  188.2400  178.6210  145.7410 O   0  0  0  0  0  0  0  0  0  0  0  0
  187.3030  177.6880  146.2600 C   0  0  2  0  0  3  0  0  0  0  0  0
  185.9750  178.3940  146.4970 C   0  0  0  0  0  2  0  0  0  0  0  0
  183.6300  178.5570  142.9000 C   0  0  0  0  0  0  0  0  0  0  0  0
  184.9560  178.0960  142.8590 C   0  0  0  0  0  3  0  0  0  0  0  0
  185.7180  178.0370  144.0290 C   0  0  0  0  0  3  0  0  0  0  0  0
  183.8400  178.8970  145.2930 C   0  0  0  0  0  3  0  0  0  0  0  0
  185.1600  178.4370  145.2490 C   0  0  0  0  0  0  0  0  0  0  0  0
  183.0790  178.9560  144.1230 C   0  0  0  0  0  3  0  0  0  0  0  0
  182.7990  178.6350  141.6910 C   0  0  0  0  0  3  0  0  0  0  0  0
  180.7000  178.8600  140.4720 C   0  0  0  0  0  1  0  0  0  0  0  0
  181.4800  178.7890  141.7340 C   0  0  0  0  0  3  0  0  0  0  0  0
  187.8270  177.1090  147.5660 C   0  0  0  0  0  2  0  0  0  0  0  0
  189.4540  178.4140  148.8350 N   0  0  0  0  0  1  0  0  0  0  0  0
  188.0370  178.2030  148.6010 C   0  0  0  0  0  2  0  0  0  0  0  0
  1 20  1  0  0  0  0
  2  1  2  0  0  0  0
  3 15  1  6  0  0  0
  3  4  1  0  0  0  0
  3  5  1  0  0  0  0
  4  5  1  0  0  0  0
  4 18  1  1  0  0  0
  5  1  1  6  0  0  0
  6 11  1  6  0  0  0
  6 15  1  0  0  0  0
  7  8  1  6  0  0  0
  7  9  1  0  0  0  0
  8 12  1  0  0  0  0
  9 10  2  0  0  0  0
 12  7  1  0  0  0  0
 13  7  1  0  0  0  0
 13 14  1  0  0  0  0
 14  6  1  0  0  0  0
 15  9  1  6  0  0  0
 16 14  2  0  0  0  0
 17 18  2  0  0  0  0
 18 19  1  0  0  0  0
 20 21  1  0  0  0  0
 21 22  1  1  0  0  0
 21 32  1  0  0  0  0
 23 28  1  0  0  0  0
 24 23  2  0  0  0  0
 24 25  1  0  0  0  0
 25 27  2  0  0  0  0
 27 26  1  0  0  0  0
 27 22  1  0  0  0  0
 28 26  2  0  0  0  0
 29 31  2  0  0  0  0
 29 23  1  0  0  0  0
 30 31  1  0  0  0  0
 32 34  1  0  0  0  0
 34 33  1  0  0  0  0
M  END
>  <MODEL>
5

>  <REMARK>
 VINA RESULT:      -7.1      2.748      5.638
  Name = 
  10 active torsions:
  status: ('A' for Active; 'I' for Inactive)
    1  A    between atoms: C_1  and  O_8
    2  A    between atoms: C_1  and  C_34
    3  A    between atoms: C_5  and  C_32
    4  A    between atoms: C_6  and  C_18
    5  A    between atoms: C_6  and  C_28
    6  A    between atoms: C_7  and  C_11
    7  A    between atoms: O_8  and  C_18
    8  A    between atoms: C_12  and  C_20
    9  A    between atoms: C_18  and  C_30
   10  A    between atoms: C_30  and  C_31
                            x       y       z     vdW  Elec       q    Type
                         _______ _______ _______ _____ _____    ______ ____

>  <TORSDO>
F 10

$$$$
=
 OpenBabel10272415323D

 34 37  0  0  1  0  0  0  0  0999 V2000
  186.2040  178.2380  142.5640 C   0  0  0  0  0  0  0  0  0  0  0  0
  186.2610  177.1340  143.1660 O   0  0  0  0  0  0  0  0  0  0  0  0
  183.9560  179.1620  141.6950 C   0  0  1  0  0  3  0  0  0  0  0  0
  183.7340  178.3450  142.9530 C   0  0  1  0  0  3  0  0  0  0  0  0
  185.0210  179.1450  142.8090 C   0  0  1  0  0  3  0  0  0  0  0  0
  185.0470  178.9740  139.4180 C   0  0  2  0  0  3  0  0  0  0  0  0
  182.8160  177.5020  138.4360 C   0  0  2  0  0  0  0  0  0  0  0  0
  181.5720  177.0780  137.7580 C   0  0  0  0  0  2  0  0  0  0  0  0
  182.9340  177.6390  139.9320 C   0  0  0  0  0  0  0  0  0  0  0  0
  182.1510  176.8930  140.7150 C   0  0  0  0  0  2  0  0  0  0  0  0
  184.4800  180.2150  139.1170 O   0  0  0  0  0  1  0  0  0  0  0  0
  181.9130  178.4390  137.9060 O   0  0  0  0  0  0  0  0  0  0  0  0
  184.0240  177.4800  137.6870 O   0  0  0  0  0  0  0  0  0  0  0  0
  185.1440  178.1620  138.1610 C   0  0  0  0  0  0  0  0  0  0  0  0
  184.2160  178.2360  140.4920 C   0  0  2  0  0  3  0  0  0  0  0  0
  186.2230  178.1270  137.5140 O   0  0  0  0  0  0  0  0  0  0  0  0
  181.6790  179.4800  143.3730 O   0  0  0  0  0  0  0  0  0  0  0  0
  182.7690  179.0570  143.8410 C   0  0  0  0  0  0  0  0  0  0  0  0
  183.0450  179.2210  145.1930 O   0  0  0  0  0  1  0  0  0  0  0  0
  187.2140  178.5530  141.6500 O   0  0  0  0  0  0  0  0  0  0  0  0
  188.3920  177.7730  141.4950 C   0  0  2  0  0  3  0  0  0  0  0  0
  189.5700  178.5220  142.1040 C   0  0  0  0  0  2  0  0  0  0  0  0
  190.6950  176.8720  145.9090 C   0  0  0  0  0  0  0  0  0  0  0  0
  189.4870  177.5760  145.7730 C   0  0  0  0  0  3  0  0  0  0  0  0
  189.1180  178.1090  144.5350 C   0  0  0  0  0  3  0  0  0  0  0  0
  191.1530  177.2390  143.5550 C   0  0  0  0  0  3  0  0  0  0  0  0
  189.9500  177.9390  143.4230 C   0  0  0  0  0  0  0  0  0  0  0  0
  191.5230  176.7070  144.7930 C   0  0  0  0  0  3  0  0  0  0  0  0
  191.1180  176.3000  147.1950 C   0  0  0  0  0  3  0  0  0  0  0  0
  192.7410  175.4140  148.7830 C   0  0  0  0  0  1  0  0  0  0  0  0
  192.3820  175.9890  147.4610 C   0  0  0  0  0  3  0  0  0  0  0  0
  188.6440  177.5170  140.0160 C   0  0  0  0  0  2  0  0  0  0  0  0
  190.5420  176.1590  139.2970 N   0  0  0  0  0  1  0  0  0  0  0  0
  190.1350  177.4890  139.7150 C   0  0  0  0  0  2  0  0  0  0  0  0
  1  2  2  0  0  0  0
  3 15  1  6  0  0  0
  3  5  1  0  0  0  0
  3  4  1  0  0  0  0
  4 18  1  1  0  0  0
  5  1  1  6  0  0  0
  5  4  1  0  0  0  0
  6 11  1  6  0  0  0
  6 15  1  0  0  0  0
  7  8  1  6  0  0  0
  7  9  1  0  0  0  0
  8 12  1  0  0  0  0
  9 10  2  0  0  0  0
 12  7  1  0  0  0  0
 13 14  1  0  0  0  0
 13  7  1  0  0  0  0
 14  6  1  0  0  0  0
 15  9  1  6  0  0  0
 16 14  2  0  0  0  0
 17 18  2  0  0  0  0
 18 19  1  0  0  0  0
 20  1  1  0  0  0  0
 21 32  1  6  0  0  0
 21 20  1  0  0  0  0
 21 22  1  0  0  0  0
 22 27  1  0  0  0  0
 23 29  1  0  0  0  0
 24 23  1  0  0  0  0
 25 24  2  0  0  0  0
 26 28  1  0  0  0  0
 27 26  2  0  0  0  0
 27 25  1  0  0  0  0
 28 23  2  0  0  0  0
 29 31  2  0  0  0  0
 31 30  1  0  0  0  0
 33 34  1  0  0  0  0
 34 32  1  0  0  0  0
M  END
>  <MODEL>
6

>  <REMARK>
 VINA RESULT:      -7.1      4.082      7.990
  Name = 
  10 active torsions:
  status: ('A' for Active; 'I' for Inactive)
    1  A    between atoms: C_1  and  O_8
    2  A    between atoms: C_1  and  C_34
    3  A    between atoms: C_5  and  C_32
    4  A    between atoms: C_6  and  C_18
    5  A    between atoms: C_6  and  C_28
    6  A    between atoms: C_7  and  C_11
    7  A    between atoms: O_8  and  C_18
    8  A    between atoms: C_12  and  C_20
    9  A    between atoms: C_18  and  C_30
   10  A    between atoms: C_30  and  C_31
                            x       y       z     vdW  Elec       q    Type
                         _______ _______ _______ _____ _____    ______ ____

>  <TORSDO>
F 10

$$$$
=
 OpenBabel10272415323D

 34 37  0  0  1  0  0  0  0  0999 V2000
  187.8680  177.5380  142.9630 C   0  0  0  0  0  0  0  0  0  0  0  0
  187.6060  176.3110  142.8660 O   0  0  0  0  0  0  0  0  0  0  0  0
  190.4000  177.6660  143.4440 C   0  0  1  0  0  3  0  0  0  0  0  0
  190.1490  176.8760  142.1750 C   0  0  1  0  0  3  0  0  0  0  0  0
  189.2240  178.0350  142.5200 C   0  0  1  0  0  3  0  0  0  0  0  0
  189.2920  177.6740  145.7210 C   0  0  2  0  0  3  0  0  0  0  0  0
  191.3740  176.0410  146.7740 C   0  0  2  0  0  0  0  0  0  0  0  0
  192.5700  175.5310  147.4770 C   0  0  0  0  0  2  0  0  0  0  0  0
  191.2720  176.1270  145.2740 C   0  0  0  0  0  0  0  0  0  0  0  0
  191.9820  175.2800  144.5260 C   0  0  0  0  0  2  0  0  0  0  0  0
  189.9730  178.8680  145.9740 O   0  0  0  0  0  1  0  0  0  0  0  0
  192.3590  176.9110  147.2710 O   0  0  0  0  0  0  0  0  0  0  0  0
  190.1670  176.1630  147.5170 O   0  0  0  0  0  0  0  0  0  0  0  0
  189.1170  176.9280  147.0090 C   0  0  0  0  0  0  0  0  0  0  0  0
  190.0520  176.8190  144.6820 C   0  0  2  0  0  3  0  0  0  0  0  0
  188.0380  177.0210  147.6500 O   0  0  0  0  0  0  0  0  0  0  0  0
  192.3670  177.2950  141.4060 O   0  0  0  0  0  1  0  0  0  0  0  0
  191.1370  177.2840  141.1340 C   0  0  0  0  0  0  0  0  0  0  0  0
  190.7150  177.6120  139.8510 O   0  0  0  0  0  0  0  0  0  0  0  0
  186.9090  178.3830  143.5300 O   0  0  0  0  0  0  0  0  0  0  0  0
  185.6150  177.9400  143.9180 C   0  0  2  0  0  3  0  0  0  0  0  0
  184.5920  179.0060  143.5480 C   0  0  0  0  0  2  0  0  0  0  0  0
  183.3580  178.5550  139.4570 C   0  0  0  0  0  0  0  0  0  0  0  0
  182.4370  178.3540  140.4990 C   0  0  0  0  0  3  0  0  0  0  0  0
  182.8360  178.5060  141.8300 C   0  0  0  0  0  3  0  0  0  0  0  0
  185.0750  179.0600  141.0940 C   0  0  0  0  0  3  0  0  0  0  0  0
  184.1560  178.8610  142.1290 C   0  0  0  0  0  0  0  0  0  0  0  0
  184.6760  178.9080  139.7640 C   0  0  0  0  0  3  0  0  0  0  0  0
  182.9760  178.4020  138.0460 C   0  0  0  0  0  3  0  0  0  0  0  0
  181.3970  178.1120  136.2120 C   0  0  0  0  0  1  0  0  0  0  0  0
  181.7140  178.2630  137.6550 C   0  0  0  0  0  3  0  0  0  0  0  0
  185.5890  177.6890  145.4180 C   0  0  0  0  0  2  0  0  0  0  0  0
  185.6070  179.3210  147.2340 N   0  0  0  0  0  1  0  0  0  0  0  0
  184.8180  178.7840  146.1400 C   0  0  0  0  0  2  0  0  0  0  0  0
  1 20  1  0  0  0  0
  2  1  2  0  0  0  0
  3 15  1  1  0  0  0
  4 18  1  6  0  0  0
  4  5  1  0  0  0  0
  4  3  1  0  0  0  0
  5  1  1  1  0  0  0
  5  3  1  0  0  0  0
  6 11  1  1  0  0  0
  6 14  1  0  0  0  0
  7 12  1  0  0  0  0
  7  8  1  1  0  0  0
  7 13  1  0  0  0  0
  9  7  1  0  0  0  0
 10  9  2  0  0  0  0
 12  8  1  0  0  0  0
 14 13  1  0  0  0  0
 14 16  2  0  0  0  0
 15  9  1  1  0  0  0
 15  6  1  0  0  0  0
 18 17  1  0  0  0  0
 19 18  2  0  0  0  0
 20 21  1  0  0  0  0
 21 22  1  1  0  0  0
 21 32  1  0  0  0  0
 23 28  2  0  0  0  0
 23 24  1  0  0  0  0
 24 25  2  0  0  0  0
 25 27  1  0  0  0  0
 26 27  2  0  0  0  0
 27 22  1  0  0  0  0
 28 26  1  0  0  0  0
 29 23  1  0  0  0  0
 30 31  1  0  0  0  0
 31 29  2  0  0  0  0
 32 34  1  0  0  0  0
 34 33  1  0  0  0  0
M  END
>  <MODEL>
7

>  <REMARK>
 VINA RESULT:      -6.7      3.580      7.100
  Name = 
  10 active torsions:
  status: ('A' for Active; 'I' for Inactive)
    1  A    between atoms: C_1  and  O_8
    2  A    between atoms: C_1  and  C_34
    3  A    between atoms: C_5  and  C_32
    4  A    between atoms: C_6  and  C_18
    5  A    between atoms: C_6  and  C_28
    6  A    between atoms: C_7  and  C_11
    7  A    between atoms: O_8  and  C_18
    8  A    between atoms: C_12  and  C_20
    9  A    between atoms: C_18  and  C_30
   10  A    between atoms: C_30  and  C_31
                            x       y       z     vdW  Elec       q    Type
                         _______ _______ _______ _____ _____    ______ ____

>  <TORSDO>
F 10

$$$$
=
 OpenBabel10272415323D

 34 37  0  0  1  0  0  0  0  0999 V2000
  187.8160  178.4390  140.7360 C   0  0  0  0  0  0  0  0  0  0  0  0
  188.4350  179.5350  140.7240 O   0  0  0  0  0  0  0  0  0  0  0  0
  189.5130  176.5480  140.2840 C   0  0  1  0  0  3  0  0  0  0  0  0
  190.0140  177.4440  141.3990 C   0  0  1  0  0  3  0  0  0  0  0  0
  188.5180  177.2070  141.2590 C   0  0  1  0  0  3  0  0  0  0  0  0
  188.3970  177.0990  138.0790 C   0  0  2  0  0  3  0  0  0  0  0  0
  190.8250  176.5740  136.6850 C   0  0  2  0  0  0  0  0  0  0  0  0
  191.9000  175.9710  135.8690 C   0  0  0  0  0  2  0  0  0  0  0  0
  190.9240  176.7540  138.1770 C   0  0  0  0  0  0  0  0  0  0  0  0
  192.1290  176.8920  138.7350 C   0  0  0  0  0  2  0  0  0  0  0  0
  187.9750  175.7670  138.0360 O   0  0  0  0  0  1  0  0  0  0  0  0
  190.8040  175.2130  136.3340 O   0  0  0  0  0  0  0  0  0  0  0  0
  189.7970  177.2880  136.0100 O   0  0  0  0  0  0  0  0  0  0  0  0
  188.6110  177.5910  136.6790 C   0  0  0  0  0  0  0  0  0  0  0  0
  189.6870  177.2390  138.9200 C   0  0  2  0  0  3  0  0  0  0  0  0
  187.7070  178.2420  136.0950 O   0  0  0  0  0  0  0  0  0  0  0  0
  189.9050  175.6510  142.9670 O   0  0  0  0  0  0  0  0  0  0  0  0
  190.5800  176.6030  142.4950 C   0  0  0  0  0  0  0  0  0  0  0  0
  191.8640  176.8350  142.9700 O   0  0  0  0  0  1  0  0  0  0  0  0
  186.5200  178.3980  140.2140 O   0  0  0  0  0  0  0  0  0  0  0  0
  185.4110  179.0330  140.8360 C   0  0  2  0  0  3  0  0  0  0  0  0
  184.7130  178.0350  141.7500 C   0  0  0  0  0  2  0  0  0  0  0  0
  186.1940  178.2770  145.7760 C   0  0  0  0  0  0  0  0  0  0  0  0
  186.7710  177.3780  144.8640 C   0  0  0  0  0  3  0  0  0  0  0  0
  186.2940  177.3030  143.5530 C   0  0  0  0  0  3  0  0  0  0  0  0
  184.6620  179.0210  144.0490 C   0  0  0  0  0  3  0  0  0  0  0  0
  185.2390  178.1250  143.1430 C   0  0  0  0  0  0  0  0  0  0  0  0
  185.1390  179.0960  145.3600 C   0  0  0  0  0  3  0  0  0  0  0  0
  186.6670  178.3830  147.1640 C   0  0  0  0  0  3  0  0  0  0  0  0
  188.2580  178.0450  148.9790 C   0  0  0  0  0  1  0  0  0  0  0  0
  187.8410  177.9040  147.5600 C   0  0  0  0  0  3  0  0  0  0  0  0
  184.4440  179.5320  139.7720 C   0  0  0  0  0  2  0  0  0  0  0  0
  182.5180  178.9180  138.4030 N   0  0  0  0  0  1  0  0  0  0  0  0
  183.3110  178.5390  139.5580 C   0  0  0  0  0  2  0  0  0  0  0  0
  2  1  2  0  0  0  0
  3 15  1  6  0  0  0
  3  5  1  0  0  0  0
  3  4  1  0  0  0  0
  4 18  1  1  0  0  0
  5  1  1  6  0  0  0
  5  4  1  0  0  0  0
  6 11  1  6  0  0  0
  6 15  1  0  0  0  0
  7  8  1  6  0  0  0
  7  9  1  0  0  0  0
  8 12  1  0  0  0  0
  9 10  2  0  0  0  0
 12  7  1  0  0  0  0
 13 14  1  0  0  0  0
 13  7  1  0  0  0  0
 14  6  1  0  0  0  0
 15  9  1  6  0  0  0
 16 14  2  0  0  0  0
 18 17  2  0  0  0  0
 18 19  1  0  0  0  0
 20  1  1  0  0  0  0
 20 21  1  0  0  0  0
 21 32  1  6  0  0  0
 21 22  1  0  0  0  0
 22 27  1  0  0  0  0
 23 29  1  0  0  0  0
 24 23  2  0  0  0  0
 25 24  1  0  0  0  0
 26 28  2  0  0  0  0
 27 25  2  0  0  0  0
 27 26  1  0  0  0  0
 28 23  1  0  0  0  0
 29 31  2  0  0  0  0
 31 30  1  0  0  0  0
 33 34  1  0  0  0  0
 34 32  1  0  0  0  0
M  END
>  <MODEL>
8

>  <REMARK>
 VINA RESULT:      -6.6      2.940      5.411
  Name = 
  10 active torsions:
  status: ('A' for Active; 'I' for Inactive)
    1  A    between atoms: C_1  and  O_8
    2  A    between atoms: C_1  and  C_34
    3  A    between atoms: C_5  and  C_32
    4  A    between atoms: C_6  and  C_18
    5  A    between atoms: C_6  and  C_28
    6  A    between atoms: C_7  and  C_11
    7  A    between atoms: O_8  and  C_18
    8  A    between atoms: C_12  and  C_20
    9  A    between atoms: C_18  and  C_30
   10  A    between atoms: C_30  and  C_31
                            x       y       z     vdW  Elec       q    Type
                         _______ _______ _______ _____ _____    ______ ____

>  <TORSDO>
F 10

$$$$
=
 OpenBabel10272415323D

 34 37  0  0  1  0  0  0  0  0999 V2000
  185.4030  178.8140  139.9730 C   0  0  0  0  0  0  0  0  0  0  0  0
  185.1030  178.3040  141.0830 O   0  0  0  0  0  0  0  0  0  0  0  0
  183.6160  178.4120  138.1540 C   0  0  1  0  0  3  0  0  0  0  0  0
  182.9530  178.7940  139.4630 C   0  0  1  0  0  3  0  0  0  0  0  0
  184.3050  179.4000  139.1150 C   0  0  1  0  0  3  0  0  0  0  0  0
  185.1440  176.6980  137.0860 C   0  0  2  0  0  3  0  0  0  0  0  0
  183.1520  174.6860  137.3950 C   0  0  2  0  0  0  0  0  0  0  0  0
  182.0700  173.7030  137.1740 C   0  0  0  0  0  2  0  0  0  0  0  0
  182.9660  175.9520  138.1890 C   0  0  0  0  0  0  0  0  0  0  0  0
  182.0400  175.9860  139.1500 C   0  0  0  0  0  2  0  0  0  0  0  0
  184.6510  177.1270  135.8500 O   0  0  0  0  0  1  0  0  0  0  0  0
  182.3770  174.6990  136.2220 O   0  0  0  0  0  0  0  0  0  0  0  0
  184.4860  174.2810  137.1170 O   0  0  0  0  0  0  0  0  0  0  0  0
  185.4900  175.2420  136.9960 C   0  0  0  0  0  0  0  0  0  0  0  0
  184.1110  176.9550  138.2070 C   0  0  2  0  0  3  0  0  0  0  0  0
  186.6770  174.8880  136.7730 O   0  0  0  0  0  0  0  0  0  0  0  0
  180.6820  179.5120  139.5710 O   0  0  0  0  0  1  0  0  0  0  0  0
  181.8550  179.7690  139.1950 C   0  0  0  0  0  0  0  0  0  0  0  0
  182.1260  180.9800  138.5710 O   0  0  0  0  0  0  0  0  0  0  0  0
  186.7360  178.7670  139.5550 O   0  0  0  0  0  0  0  0  0  0  0  0
  187.6850  177.8500  140.0830 C   0  0  2  0  0  3  0  0  0  0  0  0
  188.7170  178.6150  140.9000 C   0  0  0  0  0  2  0  0  0  0  0  0
  188.5390  177.5360  145.0560 C   0  0  0  0  0  0  0  0  0  0  0  0
  187.4230  177.3400  144.2260 C   0  0  0  0  0  3  0  0  0  0  0  0
  187.4810  177.6850  142.8730 C   0  0  0  0  0  3  0  0  0  0  0  0
  189.7680  178.4240  143.1630 C   0  0  0  0  0  3  0  0  0  0  0  0
  188.6560  178.2270  142.3390 C   0  0  0  0  0  0  0  0  0  0  0  0
  189.7100  178.0790  144.5150 C   0  0  0  0  0  3  0  0  0  0  0  0
  188.5150  177.1880  146.4830 C   0  0  0  0  0  3  0  0  0  0  0  0
  188.2210  177.6520  148.8580 C   0  0  0  0  0  1  0  0  0  0  0  0
  188.2280  178.0710  147.4330 C   0  0  0  0  0  3  0  0  0  0  0  0
  188.3670  177.1070  138.9440 C   0  0  0  0  0  2  0  0  0  0  0  0
  190.5580  176.0440  139.1220 N   0  0  0  0  0  1  0  0  0  0  0  0
  189.8730  177.3170  138.9820 C   0  0  0  0  0  2  0  0  0  0  0  0
  1  2  2  0  0  0  0
  3 15  1  1  0  0  0
  3  5  1  0  0  0  0
  3  4  1  0  0  0  0
  4 18  1  6  0  0  0
  5  4  1  0  0  0  0
  5  1  1  1  0  0  0
  6 11  1  6  0  0  0
  6 15  1  0  0  0  0
  7  8  1  1  0  0  0
  7  9  1  0  0  0  0
  9 10  2  0  0  0  0
 12  8  1  0  0  0  0
 12  7  1  0  0  0  0
 13  7  1  0  0  0  0
 14  6  1  0  0  0  0
 14 13  1  0  0  0  0
 15  9  1  6  0  0  0
 16 14  2  0  0  0  0
 18 17  1  0  0  0  0
 19 18  2  0  0  0  0
 20  1  1  0  0  0  0
 20 21  1  0  0  0  0
 21 32  1  6  0  0  0
 21 22  1  0  0  0  0
 22 27  1  0  0  0  0
 23 29  1  0  0  0  0
 24 23  2  0  0  0  0
 25 24  1  0  0  0  0
 26 28  2  0  0  0  0
 27 25  2  0  0  0  0
 27 26  1  0  0  0  0
 28 23  1  0  0  0  0
 29 31  2  0  0  0  0
 31 30  1  0  0  0  0
 32 34  1  0  0  0  0
 34 33  1  0  0  0  0
M  END
>  <MODEL>
9

>  <REMARK>
 VINA RESULT:      -6.5      4.041      6.965
  Name = 
  10 active torsions:
  status: ('A' for Active; 'I' for Inactive)
    1  A    between atoms: C_1  and  O_8
    2  A    between atoms: C_1  and  C_34
    3  A    between atoms: C_5  and  C_32
    4  A    between atoms: C_6  and  C_18
    5  A    between atoms: C_6  and  C_28
    6  A    between atoms: C_7  and  C_11
    7  A    between atoms: O_8  and  C_18
    8  A    between atoms: C_12  and  C_20
    9  A    between atoms: C_18  and  C_30
   10  A    between atoms: C_30  and  C_31
                            x       y       z     vdW  Elec       q    Type
                         _______ _______ _______ _____ _____    ______ ____

>  <TORSDO>
F 10

$$$$
