=
 OpenBabel10262423533D

 34 39  0  0  1  0  0  0  0  0999 V2000
  185.5320  178.0160  143.4080 C   0  0  0  0  0  0  0  0  0  0  0  0
  185.7880  178.8570  141.1430 C   0  0  0  0  0  0  0  0  0  0  0  0
  187.7570  177.9040  142.4070 C   0  0  0  0  0  0  0  0  0  0  0  0
  189.9800  177.4980  141.5090 C   0  0  0  0  0  0  0  0  0  0  0  0
  183.5900  178.7340  142.1580 C   0  0  0  0  0  3  0  0  0  0  0  0
  184.4080  179.0710  141.0840 C   0  0  0  0  0  3  0  0  0  0  0  0
  188.3330  177.7200  139.9450 N   0  0  0  0  0  2  0  0  0  0  0  0
  186.3730  178.2450  142.2850 C   0  0  0  0  0  0  0  0  0  0  0  0
  190.6820  177.3130  140.2170 C   0  0  0  0  0  2  0  0  0  0  0  0
  184.1540  178.2290  143.3240 C   0  0  0  0  0  3  0  0  0  0  0  0
  188.2760  177.5830  143.7010 C   0  0  0  0  0  0  0  0  0  0  0  0
  186.0540  177.6230  144.5930 N   0  0  0  0  0  0  0  0  0  0  0  0
  186.5260  179.4050  140.1500 F   0  0  0  0  0  0  0  0  0  0  0  0
  190.5090  177.2770  142.7700 C   0  0  0  0  0  3  0  0  0  0  0  0
  189.6690  177.3290  143.8910 C   0  0  0  0  0  0  0  0  0  0  0  0
  189.5520  177.4680  139.1820 C   0  0  1  0  0  3  0  0  0  0  0  0
  188.6570  177.7840  141.3210 C   0  0  0  0  0  0  0  0  0  0  0  0
  187.3820  177.4310  144.7640 C   0  0  0  0  0  3  0  0  0  0  0  0
  190.3240  177.4230  147.6360 C   0  0  0  0  0  0  0  0  0  0  0  0
  191.4870  176.6530  147.7290 C   0  0  0  0  0  3  0  0  0  0  0  0
  190.2780  177.0800  145.2260 C   0  0  0  0  0  0  0  0  0  0  0  0
  192.0530  176.1040  146.5770 C   0  0  0  0  0  3  0  0  0  0  0  0
  189.7270  177.6380  146.3910 C   0  0  0  0  0  3  0  0  0  0  0  0
  191.4550  176.3190  145.3320 C   0  0  0  0  0  3  0  0  0  0  0  0
  189.7780  177.9610  148.7520 F   0  0  0  0  0  0  0  0  0  0  0  0
  189.3890  176.1890  138.3780 C   0  0  0  0  0  2  0  0  0  0  0  0
  188.6080  176.4640  137.1040 C   0  0  0  0  0  2  0  0  0  0  0  0
  186.8990  178.6690  137.1230 O   0  0  0  0  0  1  0  0  0  0  0  0
  187.1810  176.3470  137.3670 N   0  0  0  0  0  0  0  0  0  0  0  0
  186.4980  177.4240  136.6330 C   0  0  1  0  0  3  0  0  0  0  0  0
  184.5080  175.9430  136.3060 C   0  0  0  0  0  2  0  0  0  0  0  0
  185.2770  174.8360  137.0130 C   0  0  0  0  0  2  0  0  0  0  0  0
  186.7730  175.0570  136.8050 C   0  0  0  0  0  2  0  0  0  0  0  0
  184.9830  177.3020  136.8020 C   0  0  0  0  0  2  0  0  0  0  0  0
  1 12  1  0  0  0  0
  2  8  1  0  0  0  0
  3 11  1  0  0  0  0
  4 14  2  0  0  0  0
  5 10  2  0  0  0  0
  6  2  2  0  0  0  0
  6  5  1  0  0  0  0
  7 17  1  0  0  0  0
  8  3  1  0  0  0  0
  8  1  2  0  0  0  0
  9  4  1  0  0  0  0
 10  1  1  0  0  0  0
 11 15  2  0  0  0  0
 11 18  1  0  0  0  0
 12 18  2  0  0  0  0
 13  2  1  0  0  0  0
 14 15  1  0  0  0  0
 15 21  1  0  0  0  0
 16 26  1  1  0  0  0
 16  7  1  0  0  0  0
 16  9  1  0  0  0  0
 17  4  1  0  0  0  0
 17  3  2  0  0  0  0
 19 20  1  0  0  0  0
 19 25  1  0  0  0  0
 21 24  2  0  0  0  0
 21 23  1  0  0  0  0
 22 20  2  0  0  0  0
 23 19  2  0  0  0  0
 24 22  1  0  0  0  0
 27 29  1  0  0  0  0
 27 26  1  0  0  0  0
 30 34  1  0  0  0  0
 30 28  1  1  0  0  0
 30 29  1  0  0  0  0
 31 34  1  0  0  0  0
 31 32  1  0  0  0  0
 33 32  1  0  0  0  0
 33 29  1  0  0  0  0
M  END
>  <MODEL>
1

>  <REMARK>
 VINA RESULT:      -9.9      0.000      0.000
  Name = 
  4 active torsions:
  status: ('A' for Active; 'I' for Inactive)
    1  A    between atoms: C_3  and  N_13
    2  A    between atoms: C_3  and  C_17
    3  A    between atoms: C_12  and  C_28
    4  A    between atoms: C_17  and  C_29
                            x       y       z     vdW  Elec       q    Type
                         _______ _______ _______ _____ _____    ______ ____

>  <TORSDO>
F 4

$$$$
=
 OpenBabel10262423533D

 34 39  0  0  1  0  0  0  0  0999 V2000
  190.0440  177.1230  146.8080 C   0  0  0  0  0  0  0  0  0  0  0  0
  191.4820  175.8050  145.3600 C   0  0  0  0  0  0  0  0  0  0  0  0
  189.3740  176.8790  144.4720 C   0  0  0  0  0  0  0  0  0  0  0  0
  188.6650  176.9440  142.1470 C   0  0  0  0  0  0  0  0  0  0  0  0
  192.1520  176.2790  147.6410 C   0  0  0  0  0  3  0  0  0  0  0  0
  192.3910  175.6710  146.4120 C   0  0  0  0  0  3  0  0  0  0  0  0
  190.8800  176.4990  142.4670 N   0  0  0  0  0  2  0  0  0  0  0  0
  190.3190  176.6070  145.5120 C   0  0  0  0  0  0  0  0  0  0  0  0
  189.2070  176.8060  140.7750 C   0  0  0  0  0  2  0  0  0  0  0  0
  190.9700  176.9840  147.8440 C   0  0  0  0  0  3  0  0  0  0  0  0
  188.1030  177.4340  144.8230 C   0  0  0  0  0  0  0  0  0  0  0  0
  188.8610  177.7240  147.0760 N   0  0  0  0  0  0  0  0  0  0  0  0
  191.6870  175.0140  144.2810 F   0  0  0  0  0  0  0  0  0  0  0  0
  187.4000  177.3940  142.4880 C   0  0  0  0  0  3  0  0  0  0  0  0
  187.0910  177.6340  143.8350 C   0  0  0  0  0  0  0  0  0  0  0  0
  190.6980  176.5060  141.0190 C   0  0  1  0  0  3  0  0  0  0  0  0
  189.6260  176.7090  143.0890 C   0  0  0  0  0  0  0  0  0  0  0  0
  187.8980  177.8630  146.1370 C   0  0  0  0  0  3  0  0  0  0  0  0
  183.4990  178.8220  143.4540 C   0  0  0  0  0  0  0  0  0  0  0  0
  183.1630  179.1080  144.7790 C   0  0  0  0  0  3  0  0  0  0  0  0
  185.7220  178.1210  144.1560 C   0  0  0  0  0  0  0  0  0  0  0  0
  184.1030  178.9120  145.7940 C   0  0  0  0  0  3  0  0  0  0  0  0
  184.7720  178.3360  143.1440 C   0  0  0  0  0  3  0  0  0  0  0  0
  185.3760  178.4250  145.4840 C   0  0  0  0  0  3  0  0  0  0  0  0
  182.5910  179.0180  142.4680 F   0  0  0  0  0  0  0  0  0  0  0  0
  191.5650  177.5930  140.4070 C   0  0  0  0  0  2  0  0  0  0  0  0
  191.6050  177.4470  138.8950 C   0  0  0  0  0  2  0  0  0  0  0  0
  189.8190  175.6760  137.6860 O   0  0  0  0  0  1  0  0  0  0  0  0
  191.9720  176.0830  138.5420 N   0  0  0  0  0  0  0  0  0  0  0  0
  191.1790  175.6920  137.3660 C   0  0  1  0  0  3  0  0  0  0  0  0
  193.0690  174.2630  136.5630 C   0  0  0  0  0  2  0  0  0  0  0  0
  193.8770  174.7450  137.7590 C   0  0  0  0  0  2  0  0  0  0  0  0
  193.3860  176.1320  138.1660 C   0  0  0  0  0  2  0  0  0  0  0  0
  191.5830  174.2950  136.8950 C   0  0  0  0  0  2  0  0  0  0  0  0
  1 12  1  0  0  0  0
  1 10  2  0  0  0  0
  2  8  2  0  0  0  0
  2  6  1  0  0  0  0
  3 11  1  0  0  0  0
  3  8  1  0  0  0  0
  4 14  2  0  0  0  0
  4 17  1  0  0  0  0
  5 10  1  0  0  0  0
  6  5  2  0  0  0  0
  7 17  1  0  0  0  0
  8  1  1  0  0  0  0
  9 16  1  0  0  0  0
  9  4  1  0  0  0  0
 11 18  1  0  0  0  0
 13  2  1  0  0  0  0
 14 15  1  0  0  0  0
 15 21  1  0  0  0  0
 15 11  2  0  0  0  0
 16 26  1  6  0  0  0
 16  7  1  0  0  0  0
 17  3  2  0  0  0  0
 18 12  2  0  0  0  0
 19 20  1  0  0  0  0
 20 22  2  0  0  0  0
 21 24  2  0  0  0  0
 23 19  2  0  0  0  0
 23 21  1  0  0  0  0
 24 22  1  0  0  0  0
 25 19  1  0  0  0  0
 27 26  1  0  0  0  0
 29 27  1  0  0  0  0
 30 28  1  1  0  0  0
 30 29  1  0  0  0  0
 31 34  1  0  0  0  0
 31 32  1  0  0  0  0
 32 33  1  0  0  0  0
 33 29  1  0  0  0  0
 34 30  1  0  0  0  0
M  END
>  <MODEL>
2

>  <REMARK>
 VINA RESULT:      -9.9      3.064      6.168
  Name = 
  4 active torsions:
  status: ('A' for Active; 'I' for Inactive)
    1  A    between atoms: C_3  and  N_13
    2  A    between atoms: C_3  and  C_17
    3  A    between atoms: C_12  and  C_28
    4  A    between atoms: C_17  and  C_29
                            x       y       z     vdW  Elec       q    Type
                         _______ _______ _______ _____ _____    ______ ____

>  <TORSDO>
F 4

$$$$
=
 OpenBabel10262423533D

 34 39  0  0  1  0  0  0  0  0999 V2000
  185.6200  178.0090  143.1600 C   0  0  0  0  0  0  0  0  0  0  0  0
  186.0020  178.8050  140.8960 C   0  0  0  0  0  0  0  0  0  0  0  0
  187.9010  177.8920  142.2930 C   0  0  0  0  0  0  0  0  0  0  0  0
  190.1740  177.4840  141.5340 C   0  0  0  0  0  0  0  0  0  0  0  0
  183.7500  178.6870  141.7850 C   0  0  0  0  0  3  0  0  0  0  0  0
  184.6270  179.0080  140.7540 C   0  0  0  0  0  3  0  0  0  0  0  0
  188.6210  177.6620  139.8720 N   0  0  0  0  0  2  0  0  0  0  0  0
  186.5240  178.2210  142.0830 C   0  0  0  0  0  0  0  0  0  0  0  0
  190.9520  177.2780  140.2890 C   0  0  0  0  0  2  0  0  0  0  0  0
  184.2480  178.2100  142.9920 C   0  0  0  0  0  3  0  0  0  0  0  0
  188.3460  177.6020  143.6210 C   0  0  0  0  0  0  0  0  0  0  0  0
  186.0750  177.6440  144.3820 N   0  0  0  0  0  0  0  0  0  0  0  0
  186.7940  179.3380  139.9360 F   0  0  0  0  0  0  0  0  0  0  0  0
  190.6310  177.2930  142.8280 C   0  0  0  0  0  3  0  0  0  0  0  0
  189.7260  177.3620  143.8970 C   0  0  0  0  0  0  0  0  0  0  0  0
  189.8830  177.4030  139.1870 C   0  0  1  0  0  3  0  0  0  0  0  0
  188.8630  177.7570  141.2630 C   0  0  0  0  0  0  0  0  0  0  0  0
  187.3920  177.4660  144.6340 C   0  0  0  0  0  3  0  0  0  0  0  0
  190.1380  177.5040  147.6750 C   0  0  0  0  0  0  0  0  0  0  0  0
  191.3200  176.7810  147.8480 C   0  0  0  0  0  3  0  0  0  0  0  0
  190.2580  177.1450  145.2700 C   0  0  0  0  0  0  0  0  0  0  0  0
  191.9800  176.2470  146.7390 C   0  0  0  0  0  3  0  0  0  0  0  0
  189.6130  177.6890  146.3920 C   0  0  0  0  0  3  0  0  0  0  0  0
  191.4540  176.4310  145.4570 C   0  0  0  0  0  3  0  0  0  0  0  0
  189.5010  178.0290  148.7490 F   0  0  0  0  0  0  0  0  0  0  0  0
  189.7750  176.1070  138.4030 C   0  0  0  0  0  2  0  0  0  0  0  0
  191.1510  175.4920  138.2080 C   0  0  0  0  0  2  0  0  0  0  0  0
  193.7400  176.5300  138.2960 O   0  0  0  0  0  1  0  0  0  0  0  0
  191.7960  176.0880  137.0470 N   0  0  0  0  0  0  0  0  0  0  0  0
  193.2440  175.8640  137.1710 C   0  0  1  0  0  3  0  0  0  0  0  0
  193.4390  175.7130  134.6820 C   0  0  0  0  0  2  0  0  0  0  0  0
  191.9280  175.8810  134.6030 C   0  0  0  0  0  2  0  0  0  0  0  0
  191.2990  175.3450  135.8860 C   0  0  0  0  0  2  0  0  0  0  0  0
  193.9720  176.3940  135.9350 C   0  0  0  0  0  2  0  0  0  0  0  0
  1 12  1  0  0  0  0
  2  8  1  0  0  0  0
  3 11  1  0  0  0  0
  4 14  2  0  0  0  0
  5 10  2  0  0  0  0
  6  2  2  0  0  0  0
  6  5  1  0  0  0  0
  7 17  1  0  0  0  0
  8  3  1  0  0  0  0
  8  1  2  0  0  0  0
  9  4  1  0  0  0  0
 10  1  1  0  0  0  0
 11 15  2  0  0  0  0
 11 18  1  0  0  0  0
 12 18  2  0  0  0  0
 13  2  1  0  0  0  0
 14 15  1  0  0  0  0
 15 21  1  0  0  0  0
 16 26  1  1  0  0  0
 16  7  1  0  0  0  0
 16  9  1  0  0  0  0
 17  4  1  0  0  0  0
 17  3  2  0  0  0  0
 19 20  1  0  0  0  0
 19 25  1  0  0  0  0
 21 24  2  0  0  0  0
 21 23  1  0  0  0  0
 22 20  2  0  0  0  0
 23 19  2  0  0  0  0
 24 22  1  0  0  0  0
 27 26  1  0  0  0  0
 29 30  1  0  0  0  0
 29 27  1  0  0  0  0
 30 28  1  1  0  0  0
 31 34  1  0  0  0  0
 32 31  1  0  0  0  0
 32 33  1  0  0  0  0
 33 29  1  0  0  0  0
 34 30  1  0  0  0  0
M  END
>  <MODEL>
3

>  <REMARK>
 VINA RESULT:      -9.8      2.303      3.300
  Name = 
  4 active torsions:
  status: ('A' for Active; 'I' for Inactive)
    1  A    between atoms: C_3  and  N_13
    2  A    between atoms: C_3  and  C_17
    3  A    between atoms: C_12  and  C_28
    4  A    between atoms: C_17  and  C_29
                            x       y       z     vdW  Elec       q    Type
                         _______ _______ _______ _____ _____    ______ ____

>  <TORSDO>
F 4

$$$$
=
 OpenBabel10262423533D

 34 39  0  0  1  0  0  0  0  0999 V2000
  183.5610  178.5400  141.9170 C   0  0  0  0  0  0  0  0  0  0  0  0
  184.0950  179.3650  139.6940 C   0  0  0  0  0  0  0  0  0  0  0  0
  185.9060  178.5080  141.2340 C   0  0  0  0  0  0  0  0  0  0  0  0
  188.2460  178.1840  140.6570 C   0  0  0  0  0  0  0  0  0  0  0  0
  181.7840  179.1630  140.4000 C   0  0  0  0  0  3  0  0  0  0  0  0
  182.7290  179.5210  139.4430 C   0  0  0  0  0  3  0  0  0  0  0  0
  186.8250  178.3200  138.8780 N   0  0  0  0  0  2  0  0  0  0  0  0
  184.5400  178.7910  140.9160 C   0  0  0  0  0  0  0  0  0  0  0  0
  189.1270  178.0140  139.4780 C   0  0  0  0  0  2  0  0  0  0  0  0
  182.2010  178.6950  141.6410 C   0  0  0  0  0  3  0  0  0  0  0  0
  186.2540  178.2240  142.5930 C   0  0  0  0  0  0  0  0  0  0  0  0
  183.9300  178.1820  143.1690 N   0  0  0  0  0  0  0  0  0  0  0  0
  184.9410  179.9310  138.8030 F   0  0  0  0  0  0  0  0  0  0  0  0
  188.6050  178.0000  141.9830 C   0  0  0  0  0  3  0  0  0  0  0  0
  187.6160  178.0300  142.9760 C   0  0  0  0  0  0  0  0  0  0  0  0
  188.1460  178.1100  138.2950 C   0  0  1  0  0  3  0  0  0  0  0  0
  186.9520  178.4130  140.2840 C   0  0  0  0  0  0  0  0  0  0  0  0
  185.2280  178.0480  143.5250 C   0  0  0  0  0  3  0  0  0  0  0  0
  189.7610  177.2870  146.0270 C   0  0  0  0  0  0  0  0  0  0  0  0
  188.8160  177.3660  147.0520 C   0  0  0  0  0  3  0  0  0  0  0  0
  188.0440  177.8220  144.3870 C   0  0  0  0  0  0  0  0  0  0  0  0
  187.4850  177.6630  146.7510 C   0  0  0  0  0  3  0  0  0  0  0  0
  189.3760  177.5090  144.7020 C   0  0  0  0  0  3  0  0  0  0  0  0
  187.1000  177.8860  145.4260 C   0  0  0  0  0  3  0  0  0  0  0  0
  191.0510  176.9930  146.3170 F   0  0  0  0  0  0  0  0  0  0  0  0
  188.1460  176.8170  137.4980 C   0  0  0  0  0  2  0  0  0  0  0  0
  186.7700  176.5640  136.9030 C   0  0  0  0  0  2  0  0  0  0  0  0
  184.1070  176.4050  137.7200 O   0  0  0  0  0  1  0  0  0  0  0  0
  186.1990  175.3560  137.4820 N   0  0  0  0  0  0  0  0  0  0  0  0
  184.7700  175.3230  137.1350 C   0  0  1  0  0  3  0  0  0  0  0  0
  184.8450  172.8240  137.0510 C   0  0  0  0  0  2  0  0  0  0  0  0
  186.3360  172.9080  137.3460 C   0  0  0  0  0  2  0  0  0  0  0  0
  186.8740  174.2360  136.8220 C   0  0  0  0  0  2  0  0  0  0  0  0
  184.1300  174.0300  137.6440 C   0  0  0  0  0  2  0  0  0  0  0  0
  1 12  1  0  0  0  0
  2  8  1  0  0  0  0
  3 11  1  0  0  0  0
  4 14  2  0  0  0  0
  5 10  2  0  0  0  0
  6  2  2  0  0  0  0
  6  5  1  0  0  0  0
  7 17  1  0  0  0  0
  8  3  1  0  0  0  0
  8  1  2  0  0  0  0
  9  4  1  0  0  0  0
 10  1  1  0  0  0  0
 11 15  2  0  0  0  0
 11 18  1  0  0  0  0
 12 18  2  0  0  0  0
 13  2  1  0  0  0  0
 14 15  1  0  0  0  0
 15 21  1  0  0  0  0
 16 26  1  1  0  0  0
 16  7  1  0  0  0  0
 16  9  1  0  0  0  0
 17  4  1  0  0  0  0
 17  3  2  0  0  0  0
 19 25  1  0  0  0  0
 19 20  1  0  0  0  0
 21 23  1  0  0  0  0
 21 24  2  0  0  0  0
 22 20  2  0  0  0  0
 23 19  2  0  0  0  0
 24 22  1  0  0  0  0
 27 29  1  0  0  0  0
 27 26  1  0  0  0  0
 30 29  1  0  0  0  0
 30 34  1  0  0  0  0
 30 28  1  1  0  0  0
 31 32  1  0  0  0  0
 31 34  1  0  0  0  0
 33 32  1  0  0  0  0
 33 29  1  0  0  0  0
M  END
>  <MODEL>
4

>  <REMARK>
 VINA RESULT:      -9.6      1.594      2.573
  Name = 
  4 active torsions:
  status: ('A' for Active; 'I' for Inactive)
    1  A    between atoms: C_3  and  N_13
    2  A    between atoms: C_3  and  C_17
    3  A    between atoms: C_12  and  C_28
    4  A    between atoms: C_17  and  C_29
                            x       y       z     vdW  Elec       q    Type
                         _______ _______ _______ _____ _____    ______ ____

>  <TORSDO>
F 4

$$$$
=
 OpenBabel10262423533D

 34 39  0  0  1  0  0  0  0  0999 V2000
  187.6930  178.4470  139.3720 C   0  0  0  0  0  0  0  0  0  0  0  0
  185.8560  178.0100  137.8420 C   0  0  0  0  0  0  0  0  0  0  0  0
  185.4340  178.4170  140.3010 C   0  0  0  0  0  0  0  0  0  0  0  0
  183.2610  178.6550  141.3650 C   0  0  0  0  0  0  0  0  0  0  0  0
  188.1140  178.2610  136.9970 C   0  0  0  0  0  3  0  0  0  0  0  0
  186.7620  178.0130  136.7790 C   0  0  0  0  0  3  0  0  0  0  0  0
  183.2670  178.9670  139.1040 N   0  0  0  0  0  2  0  0  0  0  0  0
  186.2930  178.3090  139.1620 C   0  0  0  0  0  0  0  0  0  0  0  0
  181.8490  178.9710  141.0400 C   0  0  0  0  0  2  0  0  0  0  0  0
  188.5800  178.4550  138.2930 C   0  0  0  0  0  3  0  0  0  0  0  0
  186.0170  178.4150  141.6070 C   0  0  0  0  0  0  0  0  0  0  0  0
  188.1980  178.5340  140.6250 N   0  0  0  0  0  0  0  0  0  0  0  0
  184.6110  177.5540  137.5720 F   0  0  0  0  0  0  0  0  0  0  0  0
  183.8090  178.5590  142.6330 C   0  0  0  0  0  3  0  0  0  0  0  0
  185.1980  178.4240  142.7770 C   0  0  0  0  0  0  0  0  0  0  0  0
  181.8820  179.1760  139.5140 C   0  0  1  0  0  3  0  0  0  0  0  0
  184.0320  178.6040  140.2370 C   0  0  0  0  0  0  0  0  0  0  0  0
  187.4080  178.4950  141.7210 C   0  0  0  0  0  3  0  0  0  0  0  0
  187.4060  177.4980  145.7310 C   0  0  0  0  0  0  0  0  0  0  0  0
  186.7240  178.1100  146.7850 C   0  0  0  0  0  3  0  0  0  0  0  0
  185.7450  178.3300  144.1570 C   0  0  0  0  0  0  0  0  0  0  0  0
  185.5500  178.8240  146.5330 C   0  0  0  0  0  3  0  0  0  0  0  0
  186.9160  177.6040  144.4260 C   0  0  0  0  0  3  0  0  0  0  0  0
  185.0620  178.9310  145.2290 C   0  0  0  0  0  3  0  0  0  0  0  0
  188.5410  176.7990  145.9740 F   0  0  0  0  0  0  0  0  0  0  0  0
  181.4580  180.5910  139.1590 C   0  0  0  0  0  2  0  0  0  0  0  0
  180.6930  180.5980  137.8460 C   0  0  0  0  0  2  0  0  0  0  0  0
  180.6610  180.4830  135.0580 O   0  0  0  0  0  1  0  0  0  0  0  0
  181.1600  181.6960  137.0110 N   0  0  0  0  0  0  0  0  0  0  0  0
  180.3940  181.6640  135.7560 C   0  0  1  0  0  3  0  0  0  0  0  0
  180.5310  184.1570  135.6050 C   0  0  0  0  0  2  0  0  0  0  0  0
  181.2630  184.1480  136.9390 C   0  0  0  0  0  2  0  0  0  0  0  0
  180.8280  182.9230  137.7380 C   0  0  0  0  0  2  0  0  0  0  0  0
  180.7810  182.8480  134.8680 C   0  0  0  0  0  2  0  0  0  0  0  0
  1 12  1  0  0  0  0
  2  8  1  0  0  0  0
  3 11  1  0  0  0  0
  4 14  2  0  0  0  0
  5 10  2  0  0  0  0
  6  5  1  0  0  0  0
  6  2  2  0  0  0  0
  7 16  1  0  0  0  0
  7 17  1  0  0  0  0
  8  1  2  0  0  0  0
  8  3  1  0  0  0  0
  9  4  1  0  0  0  0
 10  1  1  0  0  0  0
 11 18  1  0  0  0  0
 11 15  2  0  0  0  0
 12 18  2  0  0  0  0
 13  2  1  0  0  0  0
 14 15  1  0  0  0  0
 15 21  1  0  0  0  0
 16 26  1  1  0  0  0
 16  9  1  0  0  0  0
 17  3  2  0  0  0  0
 17  4  1  0  0  0  0
 19 25  1  0  0  0  0
 19 20  1  0  0  0  0
 21 23  1  0  0  0  0
 21 24  2  0  0  0  0
 22 20  2  0  0  0  0
 23 19  2  0  0  0  0
 24 22  1  0  0  0  0
 27 26  1  0  0  0  0
 29 33  1  0  0  0  0
 29 27  1  0  0  0  0
 30 28  1  6  0  0  0
 30 29  1  0  0  0  0
 31 32  1  0  0  0  0
 32 33  1  0  0  0  0
 34 31  1  0  0  0  0
 34 30  1  0  0  0  0
M  END
>  <MODEL>
5

>  <REMARK>
 VINA RESULT:      -9.6      3.883      6.380
  Name = 
  4 active torsions:
  status: ('A' for Active; 'I' for Inactive)
    1  A    between atoms: C_3  and  N_13
    2  A    between atoms: C_3  and  C_17
    3  A    between atoms: C_12  and  C_28
    4  A    between atoms: C_17  and  C_29
                            x       y       z     vdW  Elec       q    Type
                         _______ _______ _______ _____ _____    ______ ____

>  <TORSDO>
F 4

$$$$
=
 OpenBabel10262423533D

 34 39  0  0  1  0  0  0  0  0999 V2000
  185.6890  178.0240  143.1020 C   0  0  0  0  0  0  0  0  0  0  0  0
  186.1040  178.7220  140.8120 C   0  0  0  0  0  0  0  0  0  0  0  0
  187.9650  177.7910  142.2450 C   0  0  0  0  0  0  0  0  0  0  0  0
  190.2230  177.2710  141.5070 C   0  0  0  0  0  0  0  0  0  0  0  0
  183.8470  178.7210  141.6980 C   0  0  0  0  0  3  0  0  0  0  0  0
  184.7370  178.9710  140.6580 C   0  0  0  0  0  3  0  0  0  0  0  0
  188.6790  177.4460  139.8360 N   0  0  0  0  0  2  0  0  0  0  0  0
  186.6020  178.1630  142.0200 C   0  0  0  0  0  0  0  0  0  0  0  0
  190.9930  176.9910  140.2730 C   0  0  0  0  0  2  0  0  0  0  0  0
  184.3260  178.2700  142.9230 C   0  0  0  0  0  3  0  0  0  0  0  0
  188.3970  177.5330  143.5840 C   0  0  0  0  0  0  0  0  0  0  0  0
  186.1290  177.6870  144.3370 N   0  0  0  0  0  0  0  0  0  0  0  0
  186.9150  179.1900  139.8350 F   0  0  0  0  0  0  0  0  0  0  0  0
  190.6700  177.1110  142.8080 C   0  0  0  0  0  3  0  0  0  0  0  0
  189.7680  177.2520  143.8720 C   0  0  0  0  0  0  0  0  0  0  0  0
  189.9310  177.1160  139.1640 C   0  0  1  0  0  3  0  0  0  0  0  0
  188.9220  177.5820  141.2230 C   0  0  0  0  0  0  0  0  0  0  0  0
  187.4380  177.4700  144.5990 C   0  0  0  0  0  3  0  0  0  0  0  0
  190.1690  177.5020  147.6450 C   0  0  0  0  0  0  0  0  0  0  0  0
  191.3340  176.7580  147.8460 C   0  0  0  0  0  3  0  0  0  0  0  0
  190.2900  177.0660  145.2530 C   0  0  0  0  0  0  0  0  0  0  0  0
  191.9850  176.1740  146.7570 C   0  0  0  0  0  3  0  0  0  0  0  0
  189.6540  177.6590  146.3560 C   0  0  0  0  0  3  0  0  0  0  0  0
  191.4680  176.3300  145.4680 C   0  0  0  0  0  3  0  0  0  0  0  0
  189.5410  178.0740  148.7000 F   0  0  0  0  0  0  0  0  0  0  0  0
  189.7760  175.7970  138.4270 C   0  0  0  0  0  2  0  0  0  0  0  0
  189.4610  176.0460  136.9610 C   0  0  0  0  0  2  0  0  0  0  0  0
  190.2190  173.5310  136.0210 O   0  0  0  0  0  1  0  0  0  0  0  0
  188.4960  175.0620  136.4910 N   0  0  0  0  0  0  0  0  0  0  0  0
  189.0490  173.7260  136.7600 C   0  0  1  0  0  3  0  0  0  0  0  0
  186.7380  172.8410  137.1280 C   0  0  0  0  0  2  0  0  0  0  0  0
  186.2160  174.2530  136.9080 C   0  0  0  0  0  2  0  0  0  0  0  0
  187.2970  175.2530  137.3090 C   0  0  0  0  0  2  0  0  0  0  0  0
  188.0410  172.6460  136.3640 C   0  0  0  0  0  2  0  0  0  0  0  0
  1 12  1  0  0  0  0
  2  8  1  0  0  0  0
  3 11  1  0  0  0  0
  4 14  2  0  0  0  0
  5 10  2  0  0  0  0
  6  2  2  0  0  0  0
  6  5  1  0  0  0  0
  7 17  1  0  0  0  0
  8  3  1  0  0  0  0
  8  1  2  0  0  0  0
  9  4  1  0  0  0  0
 10  1  1  0  0  0  0
 11 15  2  0  0  0  0
 11 18  1  0  0  0  0
 12 18  2  0  0  0  0
 13  2  1  0  0  0  0
 14 15  1  0  0  0  0
 15 21  1  0  0  0  0
 16 26  1  1  0  0  0
 16  7  1  0  0  0  0
 16  9  1  0  0  0  0
 17  4  1  0  0  0  0
 17  3  2  0  0  0  0
 19 20  1  0  0  0  0
 19 25  1  0  0  0  0
 21 24  2  0  0  0  0
 21 23  1  0  0  0  0
 22 20  2  0  0  0  0
 23 19  2  0  0  0  0
 24 22  1  0  0  0  0
 27 26  1  0  0  0  0
 29 30  1  0  0  0  0
 29 27  1  0  0  0  0
 29 33  1  0  0  0  0
 30 28  1  6  0  0  0
 32 31  1  0  0  0  0
 32 33  1  0  0  0  0
 34 30  1  0  0  0  0
 34 31  1  0  0  0  0
M  END
>  <MODEL>
6

>  <REMARK>
 VINA RESULT:      -9.6      1.440      1.843
  Name = 
  4 active torsions:
  status: ('A' for Active; 'I' for Inactive)
    1  A    between atoms: C_3  and  N_13
    2  A    between atoms: C_3  and  C_17
    3  A    between atoms: C_12  and  C_28
    4  A    between atoms: C_17  and  C_29
                            x       y       z     vdW  Elec       q    Type
                         _______ _______ _______ _____ _____    ______ ____

>  <TORSDO>
F 4

$$$$
=
 OpenBabel10262423533D

 34 39  0  0  1  0  0  0  0  0999 V2000
  183.1450  178.6480  141.8340 C   0  0  0  0  0  0  0  0  0  0  0  0
  183.8840  179.4250  139.6530 C   0  0  0  0  0  0  0  0  0  0  0  0
  185.5420  178.5920  141.3690 C   0  0  0  0  0  0  0  0  0  0  0  0
  187.9230  178.2450  141.0150 C   0  0  0  0  0  0  0  0  0  0  0  0
  181.5170  179.2480  140.1480 C   0  0  0  0  0  3  0  0  0  0  0  0
  182.5490  179.5820  139.2750 C   0  0  0  0  0  3  0  0  0  0  0  0
  186.6700  178.3510  139.1110 N   0  0  0  0  0  2  0  0  0  0  0  0
  184.2130  178.8740  140.9220 C   0  0  0  0  0  0  0  0  0  0  0  0
  188.9060  178.0460  139.9240 C   0  0  0  0  0  2  0  0  0  0  0  0
  181.8170  178.8040  141.4310 C   0  0  0  0  0  3  0  0  0  0  0  0
  185.7630  178.3340  142.7590 C   0  0  0  0  0  0  0  0  0  0  0  0
  183.3950  178.3150  143.1210 N   0  0  0  0  0  0  0  0  0  0  0  0
  184.8120  179.9690  138.8310 F   0  0  0  0  0  0  0  0  0  0  0  0
  188.1580  178.0860  142.3710 C   0  0  0  0  0  3  0  0  0  0  0  0
  187.0820  178.1410  143.2690 C   0  0  0  0  0  0  0  0  0  0  0  0
  188.0380  178.1220  138.6550 C   0  0  1  0  0  3  0  0  0  0  0  0
  186.6690  178.4720  140.5200 C   0  0  0  0  0  0  0  0  0  0  0  0
  184.6540  178.1820  143.5970 C   0  0  0  0  0  3  0  0  0  0  0  0
  188.8020  177.1190  146.5030 C   0  0  0  0  0  0  0  0  0  0  0  0
  187.8840  177.5700  147.4550 C   0  0  0  0  0  3  0  0  0  0  0  0
  187.3790  177.9610  144.7170 C   0  0  0  0  0  0  0  0  0  0  0  0
  186.7110  178.2070  147.0450 C   0  0  0  0  0  3  0  0  0  0  0  0
  188.5480  177.3100  145.1420 C   0  0  0  0  0  3  0  0  0  0  0  0
  186.4580  178.3980  145.6840 C   0  0  0  0  0  3  0  0  0  0  0  0
  189.9370  176.4960  146.9000 F   0  0  0  0  0  0  0  0  0  0  0  0
  188.1020  176.8130  137.8880 C   0  0  0  0  0  2  0  0  0  0  0  0
  189.5350  176.3090  137.8230 C   0  0  0  0  0  2  0  0  0  0  0  0
  191.3100  174.1580  137.7490 O   0  0  0  0  0  1  0  0  0  0  0  0
  189.7120  175.4790  136.6400 N   0  0  0  0  0  0  0  0  0  0  0  0
  190.0790  174.1280  137.0880 C   0  0  1  0  0  3  0  0  0  0  0  0
  188.8810  173.1470  135.1250 C   0  0  0  0  0  2  0  0  0  0  0  0
  188.4670  174.5580  134.7340 C   0  0  0  0  0  2  0  0  0  0  0  0
  188.4010  175.4230  135.9890 C   0  0  0  0  0  2  0  0  0  0  0  0
  190.1960  173.1850  135.8900 C   0  0  0  0  0  2  0  0  0  0  0  0
  1 12  1  0  0  0  0
  2  8  1  0  0  0  0
  3 11  1  0  0  0  0
  4 14  2  0  0  0  0
  5 10  2  0  0  0  0
  6  2  2  0  0  0  0
  6  5  1  0  0  0  0
  7 17  1  0  0  0  0
  8  3  1  0  0  0  0
  8  1  2  0  0  0  0
  9  4  1  0  0  0  0
 10  1  1  0  0  0  0
 11 15  2  0  0  0  0
 11 18  1  0  0  0  0
 12 18  2  0  0  0  0
 13  2  1  0  0  0  0
 14 15  1  0  0  0  0
 15 21  1  0  0  0  0
 16 26  1  1  0  0  0
 16  7  1  0  0  0  0
 16  9  1  0  0  0  0
 17  4  1  0  0  0  0
 17  3  2  0  0  0  0
 19 25  1  0  0  0  0
 19 20  1  0  0  0  0
 21 23  1  0  0  0  0
 21 24  2  0  0  0  0
 22 20  2  0  0  0  0
 23 19  2  0  0  0  0
 24 22  1  0  0  0  0
 27 26  1  0  0  0  0
 29 30  1  0  0  0  0
 29 27  1  0  0  0  0
 30 28  1  6  0  0  0
 31 34  1  0  0  0  0
 32 31  1  0  0  0  0
 32 33  1  0  0  0  0
 33 29  1  0  0  0  0
 34 30  1  0  0  0  0
M  END
>  <MODEL>
7

>  <REMARK>
 VINA RESULT:      -9.5      2.300      3.368
  Name = 
  4 active torsions:
  status: ('A' for Active; 'I' for Inactive)
    1  A    between atoms: C_3  and  N_13
    2  A    between atoms: C_3  and  C_17
    3  A    between atoms: C_12  and  C_28
    4  A    between atoms: C_17  and  C_29
                            x       y       z     vdW  Elec       q    Type
                         _______ _______ _______ _____ _____    ______ ____

>  <TORSDO>
F 4

$$$$
=
 OpenBabel10262423533D

 34 39  0  0  1  0  0  0  0  0999 V2000
  186.9200  178.6020  147.3260 C   0  0  0  0  0  0  0  0  0  0  0  0
  188.8660  177.2520  146.7820 C   0  0  0  0  0  0  0  0  0  0  0  0
  187.1610  177.8500  145.0150 C   0  0  0  0  0  0  0  0  0  0  0  0
  187.3410  177.3950  142.6330 C   0  0  0  0  0  0  0  0  0  0  0  0
  188.6300  178.2180  148.9930 C   0  0  0  0  0  3  0  0  0  0  0  0
  189.3370  177.4360  148.0840 C   0  0  0  0  0  3  0  0  0  0  0  0
  189.3120  177.3220  143.7810 N   0  0  0  0  0  2  0  0  0  0  0  0
  187.6780  177.9020  146.3470 C   0  0  0  0  0  0  0  0  0  0  0  0
  188.3530  177.0860  141.5940 C   0  0  0  0  0  2  0  0  0  0  0  0
  187.4140  178.7800  148.6200 C   0  0  0  0  0  3  0  0  0  0  0  0
  185.8170  178.2800  144.7790 C   0  0  0  0  0  0  0  0  0  0  0  0
  185.6860  179.0750  147.0350 N   0  0  0  0  0  0  0  0  0  0  0  0
  189.4970  176.3140  146.0390 F   0  0  0  0  0  0  0  0  0  0  0  0
  186.0130  177.7220  142.4130 C   0  0  0  0  0  3  0  0  0  0  0  0
  185.2230  178.1580  143.4860 C   0  0  0  0  0  0  0  0  0  0  0  0
  189.6680  177.0410  142.3930 C   0  0  1  0  0  3  0  0  0  0  0  0
  187.9080  177.4670  143.8750 C   0  0  0  0  0  0  0  0  0  0  0  0
  185.1220  178.9090  145.8170 C   0  0  0  0  0  3  0  0  0  0  0  0
  181.9890  178.9160  141.6340 C   0  0  0  0  0  0  0  0  0  0  0  0
  181.1340  179.2280  142.6940 C   0  0  0  0  0  3  0  0  0  0  0  0
  183.8030  178.5050  143.2050 C   0  0  0  0  0  0  0  0  0  0  0  0
  181.6080  179.1890  144.0070 C   0  0  0  0  0  3  0  0  0  0  0  0
  183.3170  178.5610  141.8890 C   0  0  0  0  0  3  0  0  0  0  0  0
  182.9350  178.8330  144.2610 C   0  0  0  0  0  3  0  0  0  0  0  0
  181.5320  178.9590  140.3600 F   0  0  0  0  0  0  0  0  0  0  0  0
  190.6290  178.1070  141.8940 C   0  0  0  0  0  2  0  0  0  0  0  0
  191.9080  177.4660  141.3810 C   0  0  0  0  0  2  0  0  0  0  0  0
  194.2690  177.1420  139.9300 O   0  0  0  0  0  1  0  0  0  0  0  0
  191.9530  177.5540  139.9280 N   0  0  0  0  0  0  0  0  0  0  0  0
  193.0380  176.6790  139.4570 C   0  0  1  0  0  3  0  0  0  0  0  0
  191.7440  176.1920  137.3720 C   0  0  0  0  0  2  0  0  0  0  0  0
  190.6190  177.0530  137.9280 C   0  0  0  0  0  2  0  0  0  0  0  0
  190.6740  177.0220  139.4530 C   0  0  0  0  0  2  0  0  0  0  0  0
  193.0810  176.6640  137.9280 C   0  0  0  0  0  2  0  0  0  0  0  0
  1 10  2  0  0  0  0
  2  6  1  0  0  0  0
  3  8  1  0  0  0  0
  4 17  1  0  0  0  0
  6  5  2  0  0  0  0
  7 17  1  0  0  0  0
  8  2  2  0  0  0  0
  8  1  1  0  0  0  0
  9 16  1  0  0  0  0
  9  4  1  0  0  0  0
 10  5  1  0  0  0  0
 11  3  1  0  0  0  0
 11 18  1  0  0  0  0
 12  1  1  0  0  0  0
 13  2  1  0  0  0  0
 14  4  2  0  0  0  0
 14 15  1  0  0  0  0
 15 11  2  0  0  0  0
 16 26  1  6  0  0  0
 16  7  1  0  0  0  0
 17  3  2  0  0  0  0
 18 12  2  0  0  0  0
 19 23  2  0  0  0  0
 19 20  1  0  0  0  0
 20 22  2  0  0  0  0
 21 15  1  0  0  0  0
 21 24  2  0  0  0  0
 22 24  1  0  0  0  0
 23 21  1  0  0  0  0
 25 19  1  0  0  0  0
 27 26  1  0  0  0  0
 29 27  1  0  0  0  0
 30 29  1  0  0  0  0
 30 28  1  1  0  0  0
 31 34  1  0  0  0  0
 31 32  1  0  0  0  0
 32 33  1  0  0  0  0
 33 29  1  0  0  0  0
 34 30  1  0  0  0  0
M  END
>  <MODEL>
8

>  <REMARK>
 VINA RESULT:      -9.2      3.206      6.685
  Name = 
  4 active torsions:
  status: ('A' for Active; 'I' for Inactive)
    1  A    between atoms: C_3  and  N_13
    2  A    between atoms: C_3  and  C_17
    3  A    between atoms: C_12  and  C_28
    4  A    between atoms: C_17  and  C_29
                            x       y       z     vdW  Elec       q    Type
                         _______ _______ _______ _____ _____    ______ ____

>  <TORSDO>
F 4

$$$$
=
 OpenBabel10262423533D

 34 39  0  0  1  0  0  0  0  0999 V2000
  189.1830  176.9190  145.3320 C   0  0  0  0  0  0  0  0  0  0  0  0
  187.2050  178.2980  145.6330 C   0  0  0  0  0  0  0  0  0  0  0  0
  188.1150  177.8140  143.3260 C   0  0  0  0  0  0  0  0  0  0  0  0
  187.0700  178.4160  141.2140 C   0  0  0  0  0  0  0  0  0  0  0  0
  188.2260  177.1960  147.5360 C   0  0  0  0  0  3  0  0  0  0  0  0
  187.2490  178.0330  147.0040 C   0  0  0  0  0  3  0  0  0  0  0  0
  185.6710  178.4150  143.0170 N   0  0  0  0  0  2  0  0  0  0  0  0
  188.1300  177.6780  144.7500 C   0  0  0  0  0  0  0  0  0  0  0  0
  185.7520  178.7890  140.6480 C   0  0  0  0  0  2  0  0  0  0  0  0
  189.2030  176.6590  146.7040 C   0  0  0  0  0  3  0  0  0  0  0  0
  189.2640  177.4000  142.5810 C   0  0  0  0  0  0  0  0  0  0  0  0
  190.2090  176.4660  144.5730 N   0  0  0  0  0  0  0  0  0  0  0  0
  186.3630  179.2800  145.2360 F   0  0  0  0  0  0  0  0  0  0  0  0
  188.2130  178.1050  140.4960 C   0  0  0  0  0  3  0  0  0  0  0  0
  189.3360  177.6030  141.1690 C   0  0  0  0  0  0  0  0  0  0  0  0
  184.8300  178.7820  141.8820 C   0  0  1  0  0  3  0  0  0  0  0  0
  187.0060  178.2660  142.5710 C   0  0  0  0  0  0  0  0  0  0  0  0
  190.2810  176.7090  143.2450 C   0  0  0  0  0  3  0  0  0  0  0  0
  191.5780  176.2130  138.4300 C   0  0  0  0  0  0  0  0  0  0  0  0
  192.8390  176.6130  138.8790 C   0  0  0  0  0  3  0  0  0  0  0  0
  190.5410  177.2770  140.3580 C   0  0  0  0  0  0  0  0  0  0  0  0
  192.9580  177.3370  140.0680 C   0  0  0  0  0  3  0  0  0  0  0  0
  190.4370  176.5390  139.1680 C   0  0  0  0  0  3  0  0  0  0  0  0
  191.8170  177.6630  140.8050 C   0  0  0  0  0  3  0  0  0  0  0  0
  191.4620  175.5060  137.2810 F   0  0  0  0  0  0  0  0  0  0  0  0
  183.7290  177.7480  141.7160 C   0  0  0  0  0  2  0  0  0  0  0  0
  182.4380  178.4190  141.2750 C   0  0  0  0  0  2  0  0  0  0  0  0
  182.0030  179.9990  139.0170 O   0  0  0  0  0  1  0  0  0  0  0  0
  182.0050  177.8630  140.0010 N   0  0  0  0  0  0  0  0  0  0  0  0
  182.5460  178.7140  138.9300 C   0  0  1  0  0  3  0  0  0  0  0  0
  182.7460  176.7170  137.4380 C   0  0  0  0  0  2  0  0  0  0  0  0
  182.2450  175.8640  138.5940 C   0  0  0  0  0  2  0  0  0  0  0  0
  182.6230  176.5380  139.9100 C   0  0  0  0  0  2  0  0  0  0  0  0
  182.1950  178.1310  137.5610 C   0  0  0  0  0  2  0  0  0  0  0  0
  1 10  2  0  0  0  0
  2  6  1  0  0  0  0
  3  8  1  0  0  0  0
  4 17  1  0  0  0  0
  6  5  2  0  0  0  0
  8  1  1  0  0  0  0
  8  2  2  0  0  0  0
  9  4  1  0  0  0  0
  9 16  1  0  0  0  0
 10  5  1  0  0  0  0
 11 18  1  0  0  0  0
 11  3  1  0  0  0  0
 12  1  1  0  0  0  0
 13  2  1  0  0  0  0
 14 15  1  0  0  0  0
 14  4  2  0  0  0  0
 15 11  2  0  0  0  0
 16 26  1  6  0  0  0
 16  7  1  0  0  0  0
 17  7  1  0  0  0  0
 17  3  2  0  0  0  0
 18 12  2  0  0  0  0
 19 20  2  0  0  0  0
 19 23  1  0  0  0  0
 20 22  1  0  0  0  0
 21 24  1  0  0  0  0
 21 15  1  0  0  0  0
 22 24  2  0  0  0  0
 23 21  2  0  0  0  0
 25 19  1  0  0  0  0
 27 26  1  0  0  0  0
 29 27  1  0  0  0  0
 30 28  1  6  0  0  0
 30 29  1  0  0  0  0
 31 34  1  0  0  0  0
 31 32  1  0  0  0  0
 32 33  1  0  0  0  0
 33 29  1  0  0  0  0
 34 30  1  0  0  0  0
M  END
>  <MODEL>
9

>  <REMARK>
 VINA RESULT:      -9.2      2.706      5.570
  Name = 
  4 active torsions:
  status: ('A' for Active; 'I' for Inactive)
    1  A    between atoms: C_3  and  N_13
    2  A    between atoms: C_3  and  C_17
    3  A    between atoms: C_12  and  C_28
    4  A    between atoms: C_17  and  C_29
                            x       y       z     vdW  Elec       q    Type
                         _______ _______ _______ _____ _____    ______ ____

>  <TORSDO>
F 4

$$$$
