=
 OpenBabel10272413363D

 32 37  0  0  1  0  0  0  0  0999 V2000
  187.7830  178.2750  136.8740 C   0  0  1  0  0  3  0  0  0  0  0  0
  187.9930  177.9570  142.0330 C   0  0  0  0  0  0  0  0  0  0  0  0
  183.4660  179.0100  143.4910 C   0  0  0  0  0  3  0  0  0  0  0  0
  183.8390  178.7940  144.8180 C   0  0  0  0  0  3  0  0  0  0  0  0
  189.7060  177.3110  143.7370 C   0  0  0  0  0  0  0  0  0  0  0  0
  189.9900  177.1020  145.0890 C   0  0  0  0  0  0  0  0  0  0  0  0
  188.6100  178.4110  139.6860 C   0  0  2  0  0  3  0  0  0  0  0  0
  186.2790  178.4930  140.3630 N   0  0  0  0  0  2  0  0  0  0  0  0
  189.4720  177.0140  147.4430 C   0  0  1  0  0  3  0  0  0  0  0  0
  186.8170  178.7280  137.9770 C   0  0  0  0  0  2  0  0  0  0  0  0
  184.4030  178.8500  142.4680 C   0  0  0  0  0  3  0  0  0  0  0  0
  186.6600  178.3100  141.7360 C   0  0  0  0  0  0  0  0  0  0  0  0
  185.7220  178.4750  142.7620 C   0  0  0  0  0  0  0  0  0  0  0  0
  187.4190  177.8660  144.4110 C   0  0  0  0  0  0  0  0  0  0  0  0
  191.2310  176.4890  147.3450 S   0  0  0  0  0  0  0  0  0  0  0  0
  189.2430  178.5220  137.2790 C   0  0  0  0  0  2  0  0  0  0  0  0
  187.1760  178.0620  139.3000 C   0  0  1  0  0  3  0  0  0  0  0  0
  191.2500  176.6940  145.5880 N   0  0  0  0  0  2  0  0  0  0  0  0
  189.5710  177.8840  138.6310 C   0  0  0  0  0  2  0  0  0  0  0  0
  185.1480  178.4170  145.1240 C   0  0  0  0  0  3  0  0  0  0  0  0
  186.1020  178.2530  144.1050 C   0  0  0  0  0  0  0  0  0  0  0  0
  187.7700  177.6440  145.7110 N   0  0  0  0  0  0  0  0  0  0  0  0
  188.9050  177.8640  140.9700 O   0  0  0  0  0  0  0  0  0  0  0  0
  191.0160  177.0500  142.5810 Cl  0  0  0  0  0  0  0  0  0  0  0  0
  189.3750  178.2830  148.2680 C   0  0  0  0  0  1  0  0  0  0  0  0
  188.3860  177.7060  143.3710 C   0  0  0  0  0  0  0  0  0  0  0  0
  189.0290  177.2770  146.0470 C   0  0  0  0  0  0  0  0  0  0  0  0
  187.5830  176.9220  136.5820 O   0  0  0  0  0  0  0  0  0  0  0  0
  186.3630  176.8770  135.9040 C   0  0  0  0  0  2  0  0  0  0  0  0
  185.6400  175.6290  136.2610 C   0  0  0  0  0  0  0  0  0  0  0  0
  186.2010  174.7370  137.1660 O   0  0  0  0  0  1  0  0  0  0  0  0
  184.5030  175.3990  135.7750 O   0  0  0  0  0  0  0  0  0  0  0  0
  1 28  1  1  0  0  0
  1 16  1  0  0  0  0
  1 10  1  0  0  0  0
  2 26  1  0  0  0  0
  3  4  1  0  0  0  0
  4 20  2  0  0  0  0
  5  6  1  0  0  0  0
  6 18  1  0  0  0  0
  6 27  2  0  0  0  0
  7 19  1  6  0  0  0
  7 23  1  0  0  0  0
  8 12  1  0  0  0  0
  9 25  1  1  0  0  0
 11 13  1  0  0  0  0
 11  3  2  0  0  0  0
 12  2  2  0  0  0  0
 12 13  1  0  0  0  0
 13 21  2  0  0  0  0
 14 22  2  0  0  0  0
 15  9  1  0  0  0  0
 16 19  1  0  0  0  0
 17 10  1  6  0  0  0
 17  7  1  0  0  0  0
 17  8  1  0  0  0  0
 18 15  1  0  0  0  0
 21 14  1  0  0  0  0
 21 20  1  0  0  0  0
 22 27  1  0  0  0  0
 23  2  1  0  0  0  0
 24  5  1  0  0  0  0
 26  5  2  0  0  0  0
 26 14  1  0  0  0  0
 27  9  1  0  0  0  0
 29 30  1  0  0  0  0
 29 28  1  0  0  0  0
 30 31  1  0  0  0  0
 32 30  2  0  0  0  0
M  END
>  <MODEL>
1

>  <REMARK>
 VINA RESULT:     -10.3      0.000      0.000
  Name = 
  3 active torsions:
  status: ('A' for Active; 'I' for Inactive)
    1  A    between atoms: C_1  and  C_10
    2  A    between atoms: C_2  and  O_24
    3  A    between atoms: C_10  and  O_24
                            x       y       z     vdW  Elec       q    Type
                         _______ _______ _______ _____ _____    ______ ____

>  <TORSDO>
F 3

$$$$
=
 OpenBabel10272413363D

 32 37  0  0  1  0  0  0  0  0999 V2000
  182.6510  179.1960  138.8420 C   0  0  1  0  0  3  0  0  0  0  0  0
  186.3160  178.2600  142.3710 C   0  0  0  0  0  0  0  0  0  0  0  0
  190.3760  177.6290  139.7540 C   0  0  0  0  0  3  0  0  0  0  0  0
  191.1130  177.4660  140.9280 C   0  0  0  0  0  3  0  0  0  0  0  0
  186.4520  178.2080  144.8680 C   0  0  0  0  0  0  0  0  0  0  0  0
  187.2660  178.0460  145.9920 C   0  0  0  0  0  0  0  0  0  0  0  0
  184.1470  178.2760  141.1930 C   0  0  2  0  0  3  0  0  0  0  0  0
  186.2140  178.4090  139.9260 N   0  0  0  0  0  2  0  0  0  0  0  0
  189.3500  177.6610  147.1440 C   0  0  1  0  0  3  0  0  0  0  0  0
  184.0830  178.6570  138.7260 C   0  0  0  0  0  2  0  0  0  0  0  0
  189.0030  177.8720  139.8200 C   0  0  0  0  0  3  0  0  0  0  0  0
  186.9760  178.2030  141.1250 C   0  0  0  0  0  0  0  0  0  0  0  0
  188.3520  177.9540  141.0600 C   0  0  0  0  0  0  0  0  0  0  0  0
  188.4550  177.8820  143.4990 C   0  0  0  0  0  0  0  0  0  0  0  0
  188.1230  177.9070  148.4920 S   0  0  0  0  0  0  0  0  0  0  0  0
  181.9450  178.6320  140.0840 C   0  0  0  0  0  2  0  0  0  0  0  0
  184.8560  178.9290  140.0120 C   0  0  1  0  0  3  0  0  0  0  0  0
  186.8080  178.1200  147.3290 N   0  0  0  0  0  2  0  0  0  0  0  0
  182.7580  178.8750  141.3570 C   0  0  0  0  0  2  0  0  0  0  0  0
  190.4770  177.5480  142.1690 C   0  0  0  0  0  3  0  0  0  0  0  0
  189.0950  177.7920  142.2500 C   0  0  0  0  0  0  0  0  0  0  0  0
  189.1870  177.7340  144.6420 N   0  0  0  0  0  0  0  0  0  0  0  0
  184.9260  178.4520  142.3750 O   0  0  0  0  0  0  0  0  0  0  0  0
  184.7360  178.5200  145.1450 Cl  0  0  0  0  0  0  0  0  0  0  0  0
  189.9360  176.2670  147.2520 C   0  0  0  0  0  1  0  0  0  0  0  0
  187.0490  178.1240  143.5760 C   0  0  0  0  0  0  0  0  0  0  0  0
  188.6080  177.8070  145.8630 C   0  0  0  0  0  0  0  0  0  0  0  0
  182.6620  180.5930  138.8850 O   0  0  0  0  0  0  0  0  0  0  0  0
  181.3190  180.9660  138.7940 C   0  0  0  0  0  2  0  0  0  0  0  0
  181.1230  181.8380  137.6060 C   0  0  0  0  0  0  0  0  0  0  0  0
  181.3980  183.1970  137.6900 O   0  0  0  0  0  1  0  0  0  0  0  0
  180.7460  181.3390  136.5140 O   0  0  0  0  0  0  0  0  0  0  0  0
  1 28  1  1  0  0  0
  1 16  1  0  0  0  0
  2 23  1  0  0  0  0
  2 26  1  0  0  0  0
  3 11  2  0  0  0  0
  3  4  1  0  0  0  0
  4 20  2  0  0  0  0
  5 24  1  0  0  0  0
  5  6  1  0  0  0  0
  6 18  1  0  0  0  0
  7 19  1  1  0  0  0
  7 23  1  0  0  0  0
  8 17  1  0  0  0  0
  8 12  1  0  0  0  0
  9 25  1  1  0  0  0
  9 15  1  0  0  0  0
 10  1  1  0  0  0  0
 11 13  1  0  0  0  0
 12  2  2  0  0  0  0
 13 12  1  0  0  0  0
 13 21  2  0  0  0  0
 14 26  1  0  0  0  0
 14 22  2  0  0  0  0
 16 19  1  0  0  0  0
 17 10  1  6  0  0  0
 17  7  1  0  0  0  0
 18 15  1  0  0  0  0
 20 21  1  0  0  0  0
 21 14  1  0  0  0  0
 22 27  1  0  0  0  0
 26  5  2  0  0  0  0
 27  6  2  0  0  0  0
 27  9  1  0  0  0  0
 29 28  1  0  0  0  0
 30 31  1  0  0  0  0
 30 29  1  0  0  0  0
 32 30  2  0  0  0  0
M  END
>  <MODEL>
2

>  <REMARK>
 VINA RESULT:      -9.2      3.497      5.152
  Name = 
  3 active torsions:
  status: ('A' for Active; 'I' for Inactive)
    1  A    between atoms: C_1  and  C_10
    2  A    between atoms: C_2  and  O_24
    3  A    between atoms: C_10  and  O_24
                            x       y       z     vdW  Elec       q    Type
                         _______ _______ _______ _____ _____    ______ ____

>  <TORSDO>
F 3

$$$$
=
 OpenBabel10272413363D

 32 37  0  0  1  0  0  0  0  0999 V2000
  194.0090  175.6700  136.6010 C   0  0  1  0  0  3  0  0  0  0  0  0
  189.8710  177.2050  139.3000 C   0  0  0  0  0  0  0  0  0  0  0  0
  191.4330  177.3720  143.9110 C   0  0  0  0  0  3  0  0  0  0  0  0
  190.1840  177.8370  144.3220 C   0  0  0  0  0  3  0  0  0  0  0  0
  187.5360  177.9330  138.7740 C   0  0  0  0  0  0  0  0  0  0  0  0
  186.3210  178.4130  139.2690 C   0  0  0  0  0  0  0  0  0  0  0  0
  191.2870  176.0850  137.6170 C   0  0  2  0  0  3  0  0  0  0  0  0
  192.1880  176.5910  139.8140 N   0  0  0  0  0  2  0  0  0  0  0  0
  184.8080  179.1690  140.9890 C   0  0  1  0  0  3  0  0  0  0  0  0
  193.7030  175.6830  138.1050 C   0  0  0  0  0  2  0  0  0  0  0  0
  191.6690  177.1040  142.5610 C   0  0  0  0  0  3  0  0  0  0  0  0
  190.8950  177.0340  140.2550 C   0  0  0  0  0  0  0  0  0  0  0  0
  190.6570  177.2980  141.6090 C   0  0  0  0  0  0  0  0  0  0  0  0
  188.3730  177.9800  141.0750 C   0  0  0  0  0  0  0  0  0  0  0  0
  183.8440  179.3300  139.4310 S   0  0  0  0  0  0  0  0  0  0  0  0
  192.7690  175.2730  135.7870 C   0  0  0  0  0  2  0  0  0  0  0  0
  192.5030  176.5790  138.3930 C   0  0  1  0  0  3  0  0  0  0  0  0
  185.1890  178.6990  138.4710 N   0  0  0  0  0  2  0  0  0  0  0  0
  191.5650  176.1550  136.1220 C   0  0  0  0  0  2  0  0  0  0  0  0
  189.1690  178.0370  143.3840 C   0  0  0  0  0  3  0  0  0  0  0  0
  189.3920  177.7720  142.0210 C   0  0  0  0  0  0  0  0  0  0  0  0
  187.1590  178.4480  141.4850 N   0  0  0  0  0  0  0  0  0  0  0  0
  190.1480  176.8680  137.9660 O   0  0  0  0  0  0  0  0  0  0  0  0
  187.6550  177.6620  137.0330 Cl  0  0  0  0  0  0  0  0  0  0  0  0
  184.1130  178.1810  141.9060 C   0  0  0  0  0  1  0  0  0  0  0  0
  188.6030  177.7030  139.6920 C   0  0  0  0  0  0  0  0  0  0  0  0
  186.1500  178.6550  140.6060 C   0  0  0  0  0  0  0  0  0  0  0  0
  194.4760  176.9230  136.1920 O   0  0  0  0  0  0  0  0  0  0  0  0
  195.0420  176.7010  134.9340 C   0  0  0  0  0  2  0  0  0  0  0  0
  196.3640  176.0410  135.0910 C   0  0  0  0  0  0  0  0  0  0  0  0
  196.6550  174.8890  134.3720 O   0  0  0  0  0  0  0  0  0  0  0  0
  197.2350  176.5480  135.8460 O   0  0  0  0  0  1  0  0  0  0  0  0
  1 28  1  6  0  0  0
  1 10  1  0  0  0  0
  2 26  2  0  0  0  0
  2 12  1  0  0  0  0
  3  4  1  0  0  0  0
  5  6  2  0  0  0  0
  5 26  1  0  0  0  0
  6 27  1  0  0  0  0
  7 19  1  6  0  0  0
  7 23  1  0  0  0  0
  7 17  1  0  0  0  0
  8 12  1  0  0  0  0
  9 25  1  1  0  0  0
 11  3  2  0  0  0  0
 12 13  2  0  0  0  0
 13 21  1  0  0  0  0
 13 11  1  0  0  0  0
 14 22  1  0  0  0  0
 14 21  2  0  0  0  0
 15  9  1  0  0  0  0
 16 19  1  0  0  0  0
 16  1  1  0  0  0  0
 17 10  1  1  0  0  0
 17  8  1  0  0  0  0
 18  6  1  0  0  0  0
 18 15  1  0  0  0  0
 20  4  2  0  0  0  0
 21 20  1  0  0  0  0
 23  2  1  0  0  0  0
 24  5  1  0  0  0  0
 26 14  1  0  0  0  0
 27  9  1  0  0  0  0
 27 22  2  0  0  0  0
 29 30  1  0  0  0  0
 29 28  1  0  0  0  0
 30 32  1  0  0  0  0
 31 30  2  0  0  0  0
M  END
>  <MODEL>
3

>  <REMARK>
 VINA RESULT:      -8.5      4.648      7.022
  Name = 
  3 active torsions:
  status: ('A' for Active; 'I' for Inactive)
    1  A    between atoms: C_1  and  C_10
    2  A    between atoms: C_2  and  O_24
    3  A    between atoms: C_10  and  O_24
                            x       y       z     vdW  Elec       q    Type
                         _______ _______ _______ _____ _____    ______ ____

>  <TORSDO>
F 3

$$$$
=
 OpenBabel10272413363D

 32 37  0  0  1  0  0  0  0  0999 V2000
  192.1140  176.7790  138.1370 C   0  0  1  0  0  3  0  0  0  0  0  0
  189.0770  177.6670  142.2300 C   0  0  0  0  0  0  0  0  0  0  0  0
  184.7370  178.7460  140.2990 C   0  0  0  0  0  3  0  0  0  0  0  0
  184.1920  178.8640  141.5780 C   0  0  0  0  0  3  0  0  0  0  0  0
  189.3090  177.5370  144.7170 C   0  0  0  0  0  0  0  0  0  0  0  0
  188.6810  177.6630  145.9590 C   0  0  0  0  0  0  0  0  0  0  0  0
  191.0460  177.6080  140.7420 C   0  0  2  0  0  3  0  0  0  0  0  0
  188.8130  177.6990  139.7930 N   0  0  0  0  0  2  0  0  0  0  0  0
  186.8190  178.0860  147.4330 C   0  0  1  0  0  3  0  0  0  0  0  0
  190.7230  177.4120  138.2730 C   0  0  0  0  0  2  0  0  0  0  0  0
  186.0840  178.4130  140.1410 C   0  0  0  0  0  3  0  0  0  0  0  0
  188.2500  177.8600  141.1040 C   0  0  0  0  0  0  0  0  0  0  0  0
  186.9000  178.1980  141.2620 C   0  0  0  0  0  0  0  0  0  0  0  0
  187.1570  178.0900  143.6890 C   0  0  0  0  0  0  0  0  0  0  0  0
  188.2070  177.6630  148.5620 S   0  0  0  0  0  0  0  0  0  0  0  0
  193.0320  177.2020  139.2940 C   0  0  0  0  0  2  0  0  0  0  0  0
  190.1270  177.0920  139.6400 C   0  0  1  0  0  3  0  0  0  0  0  0
  189.3210  177.4590  147.2040 N   0  0  0  0  0  2  0  0  0  0  0  0
  192.3970  176.9130  140.6550 C   0  0  0  0  0  2  0  0  0  0  0  0
  184.9930  178.6490  142.7020 C   0  0  0  0  0  3  0  0  0  0  0  0
  186.3510  178.3140  142.5580 C   0  0  0  0  0  0  0  0  0  0  0  0
  186.6120  178.1950  144.9350 N   0  0  0  0  0  0  0  0  0  0  0  0
  190.4360  177.3900  142.0120 O   0  0  0  0  0  0  0  0  0  0  0  0
  191.0200  177.1000  144.7120 Cl  0  0  0  0  0  0  0  0  0  0  0  0
  186.3570  179.5020  147.7190 C   0  0  0  0  0  1  0  0  0  0  0  0
  188.5380  177.7560  143.5380 C   0  0  0  0  0  0  0  0  0  0  0  0
  187.3550  177.9940  146.0480 C   0  0  0  0  0  0  0  0  0  0  0  0
  192.0080  175.3850  138.0890 O   0  0  0  0  0  0  0  0  0  0  0  0
  191.9440  175.0780  136.7280 C   0  0  0  0  0  2  0  0  0  0  0  0
  190.7810  174.1880  136.4720 C   0  0  0  0  0  0  0  0  0  0  0  0
  190.4480  173.8380  135.1700 O   0  0  0  0  0  0  0  0  0  0  0  0
  190.1230  173.7200  137.4370 O   0  0  0  0  0  1  0  0  0  0  0  0
  1 28  1  1  0  0  0
  1 10  1  0  0  0  0
  1 16  1  0  0  0  0
  2 26  1  0  0  0  0
  3  4  1  0  0  0  0
  4 20  2  0  0  0  0
  5  6  1  0  0  0  0
  6 27  2  0  0  0  0
  6 18  1  0  0  0  0
  7 19  1  1  0  0  0
  7 23  1  0  0  0  0
  8 12  1  0  0  0  0
  9 25  1  1  0  0  0
  9 15  1  0  0  0  0
 11  3  2  0  0  0  0
 11 13  1  0  0  0  0
 12 13  1  0  0  0  0
 12  2  2  0  0  0  0
 13 21  2  0  0  0  0
 14 22  2  0  0  0  0
 16 19  1  0  0  0  0
 17 10  1  6  0  0  0
 17  8  1  0  0  0  0
 17  7  1  0  0  0  0
 18 15  1  0  0  0  0
 21 20  1  0  0  0  0
 21 14  1  0  0  0  0
 22 27  1  0  0  0  0
 23  2  1  0  0  0  0
 24  5  1  0  0  0  0
 26 14  1  0  0  0  0
 26  5  2  0  0  0  0
 27  9  1  0  0  0  0
 29 28  1  0  0  0  0
 30 29  1  0  0  0  0
 30 32  1  0  0  0  0
 31 30  2  0  0  0  0
M  END
>  <MODEL>
4

>  <REMARK>
 VINA RESULT:      -8.2      2.556      3.304
  Name = 
  3 active torsions:
  status: ('A' for Active; 'I' for Inactive)
    1  A    between atoms: C_1  and  C_10
    2  A    between atoms: C_2  and  O_24
    3  A    between atoms: C_10  and  O_24
                            x       y       z     vdW  Elec       q    Type
                         _______ _______ _______ _____ _____    ______ ____

>  <TORSDO>
F 3

$$$$
=
 OpenBabel10272413363D

 32 37  0  0  1  0  0  0  0  0999 V2000
  191.3140  176.2440  147.4710 C   0  0  1  0  0  3  0  0  0  0  0  0
  188.7410  177.4610  143.1510 C   0  0  0  0  0  0  0  0  0  0  0  0
  184.3190  178.7780  144.7120 C   0  0  0  0  0  3  0  0  0  0  0  0
  183.9390  179.0720  143.4020 C   0  0  0  0  0  3  0  0  0  0  0  0
  189.2770  177.6300  140.7140 C   0  0  0  0  0  0  0  0  0  0  0  0
  188.8190  177.9600  139.4360 C   0  0  0  0  0  0  0  0  0  0  0  0
  190.2600  176.3280  144.7340 C   0  0  2  0  0  3  0  0  0  0  0  0
  188.2370  177.3960  145.5500 N   0  0  0  0  0  2  0  0  0  0  0  0
  187.1940  178.7300  137.8270 C   0  0  1  0  0  3  0  0  0  0  0  0
  189.8250  176.4820  147.1880 C   0  0  0  0  0  2  0  0  0  0  0  0
  185.6080  178.3110  144.9770 C   0  0  0  0  0  3  0  0  0  0  0  0
  187.8230  177.6660  144.2020 C   0  0  0  0  0  0  0  0  0  0  0  0
  186.5290  178.1310  143.9350 C   0  0  0  0  0  0  0  0  0  0  0  0
  187.0670  178.2630  141.5560 C   0  0  0  0  0  0  0  0  0  0  0  0
  188.7060  178.4130  136.8300 S   0  0  0  0  0  0  0  0  0  0  0  0
  191.9820  175.4770  146.3200 C   0  0  0  0  0  2  0  0  0  0  0  0
  189.6470  177.1760  145.8420 C   0  0  1  0  0  3  0  0  0  0  0  0
  189.6000  177.8750  138.2590 N   0  0  0  0  0  2  0  0  0  0  0  0
  191.7540  176.1670  144.9730 C   0  0  0  0  0  2  0  0  0  0  0  0
  184.8480  178.9000  142.3550 C   0  0  0  0  0  3  0  0  0  0  0  0
  186.1480  178.4300  142.6080 C   0  0  0  0  0  0  0  0  0  0  0  0
  186.6900  178.5650  140.2790 N   0  0  0  0  0  0  0  0  0  0  0  0
  190.0040  176.9370  143.4700 O   0  0  0  0  0  0  0  0  0  0  0  0
  190.9430  177.0640  140.8590 Cl  0  0  0  0  0  0  0  0  0  0  0  0
  186.0800  177.8210  137.3470 C   0  0  0  0  0  1  0  0  0  0  0  0
  188.3850  177.7780  141.8160 C   0  0  0  0  0  0  0  0  0  0  0  0
  187.5410  178.4120  139.2390 C   0  0  0  0  0  0  0  0  0  0  0  0
  191.9670  177.4620  147.6840 O   0  0  0  0  0  0  0  0  0  0  0  0
  192.0370  177.5930  149.0730 C   0  0  0  0  0  2  0  0  0  0  0  0
  193.1810  176.7970  149.5910 C   0  0  0  0  0  0  0  0  0  0  0  0
  193.1070  175.4110  149.6180 O   0  0  0  0  0  0  0  0  0  0  0  0
  194.2320  177.3780  149.9690 O   0  0  0  0  0  1  0  0  0  0  0  0
  1 28  1  6  0  0  0
  2 23  1  0  0  0  0
  2 12  1  0  0  0  0
  3 11  2  0  0  0  0
  4  3  1  0  0  0  0
  5 24  1  0  0  0  0
  5 26  1  0  0  0  0
  6  5  2  0  0  0  0
  7 19  1  1  0  0  0
  7 17  1  0  0  0  0
  8 17  1  0  0  0  0
  9 25  1  6  0  0  0
  9 27  1  0  0  0  0
 10  1  1  0  0  0  0
 12  8  1  0  0  0  0
 13 12  2  0  0  0  0
 13 11  1  0  0  0  0
 14 26  1  0  0  0  0
 14 21  2  0  0  0  0
 15  9  1  0  0  0  0
 15 18  1  0  0  0  0
 16  1  1  0  0  0  0
 17 10  1  1  0  0  0
 18  6  1  0  0  0  0
 19 16  1  0  0  0  0
 20 21  1  0  0  0  0
 20  4  2  0  0  0  0
 21 13  1  0  0  0  0
 22 14  1  0  0  0  0
 23  7  1  0  0  0  0
 26  2  2  0  0  0  0
 27  6  1  0  0  0  0
 27 22  2  0  0  0  0
 28 29  1  0  0  0  0
 29 30  1  0  0  0  0
 30 31  2  0  0  0  0
 30 32  1  0  0  0  0
M  END
>  <MODEL>
5

>  <REMARK>
 VINA RESULT:      -8.1      3.801      8.230
  Name = 
  3 active torsions:
  status: ('A' for Active; 'I' for Inactive)
    1  A    between atoms: C_1  and  C_10
    2  A    between atoms: C_2  and  O_24
    3  A    between atoms: C_10  and  O_24
                            x       y       z     vdW  Elec       q    Type
                         _______ _______ _______ _____ _____    ______ ____

>  <TORSDO>
F 3

$$$$
=
 OpenBabel10272413363D

 32 37  0  0  1  0  0  0  0  0999 V2000
  191.4240  177.2020  145.0260 C   0  0  1  0  0  3  0  0  0  0  0  0
  187.4340  178.1440  141.8720 C   0  0  0  0  0  0  0  0  0  0  0  0
  189.3800  178.0540  137.4070 C   0  0  0  0  0  3  0  0  0  0  0  0
  188.1190  178.2710  136.8490 C   0  0  0  0  0  3  0  0  0  0  0  0
  184.9660  178.4620  142.1230 C   0  0  0  0  0  0  0  0  0  0  0  0
  183.7410  178.6640  141.4810 C   0  0  0  0  0  0  0  0  0  0  0  0
  188.9530  178.2200  143.8170 C   0  0  2  0  0  3  0  0  0  0  0  0
  189.8370  177.7330  141.6090 N   0  0  0  0  0  2  0  0  0  0  0  0
  182.2970  178.9580  139.5720 C   0  0  1  0  0  3  0  0  0  0  0  0
  191.3490  177.5730  143.5400 C   0  0  0  0  0  2  0  0  0  0  0  0
  189.5230  177.9630  138.7930 C   0  0  0  0  0  3  0  0  0  0  0  0
  188.5510  177.9930  141.0240 C   0  0  0  0  0  0  0  0  0  0  0  0
  188.4080  178.0890  139.6350 C   0  0  0  0  0  0  0  0  0  0  0  0
  186.0030  178.4230  139.9060 C   0  0  0  0  0  0  0  0  0  0  0  0
  181.1570  178.9930  141.0140 S   0  0  0  0  0  0  0  0  0  0  0  0
  190.3780  177.9720  145.8450 C   0  0  0  0  0  2  0  0  0  0  0  0
  189.9310  177.3690  143.0150 C   0  0  1  0  0  3  0  0  0  0  0  0
  182.4990  178.7880  142.1470 N   0  0  0  0  0  2  0  0  0  0  0  0
  188.9690  177.7900  145.2760 C   0  0  0  0  0  2  0  0  0  0  0  0
  187.0000  178.3950  137.6760 C   0  0  0  0  0  3  0  0  0  0  0  0
  187.1300  178.3060  139.0720 C   0  0  0  0  0  0  0  0  0  0  0  0
  184.7730  178.6230  139.3490 N   0  0  0  0  0  0  0  0  0  0  0  0
  187.6460  178.0980  143.2590 O   0  0  0  0  0  0  0  0  0  0  0  0
  184.9530  178.3620  143.8860 Cl  0  0  0  0  0  0  0  0  0  0  0  0
  182.2240  180.2880  138.8460 C   0  0  0  0  0  1  0  0  0  0  0  0
  186.1410  178.3380  141.3250 C   0  0  0  0  0  0  0  0  0  0  0  0
  183.6650  178.7470  140.1170 C   0  0  0  0  0  0  0  0  0  0  0  0
  191.2490  175.8240  145.1900 O   0  0  0  0  0  0  0  0  0  0  0  0
  192.3570  175.4070  145.9330 C   0  0  0  0  0  2  0  0  0  0  0  0
  192.0640  175.5430  147.3830 C   0  0  0  0  0  0  0  0  0  0  0  0
  192.9810  176.1630  148.2220 O   0  0  0  0  0  1  0  0  0  0  0  0
  190.9680  175.1310  147.8460 O   0  0  0  0  0  0  0  0  0  0  0  0
  1 28  1  6  0  0  0
  1 16  1  0  0  0  0
  2 23  1  0  0  0  0
  3 11  1  0  0  0  0
  4  3  2  0  0  0  0
  4 20  1  0  0  0  0
  5 24  1  0  0  0  0
  6  5  1  0  0  0  0
  6 18  1  0  0  0  0
  7 19  1  1  0  0  0
  8 17  1  0  0  0  0
  9 25  1  1  0  0  0
  9 27  1  0  0  0  0
  9 15  1  0  0  0  0
 10  1  1  0  0  0  0
 11 13  2  0  0  0  0
 12  8  1  0  0  0  0
 12  2  2  0  0  0  0
 13 12  1  0  0  0  0
 14 26  1  0  0  0  0
 15 18  1  0  0  0  0
 17 10  1  1  0  0  0
 17  7  1  0  0  0  0
 19 16  1  0  0  0  0
 20 21  2  0  0  0  0
 21 13  1  0  0  0  0
 21 14  1  0  0  0  0
 22 14  2  0  0  0  0
 22 27  1  0  0  0  0
 23  7  1  0  0  0  0
 26  2  1  0  0  0  0
 26  5  2  0  0  0  0
 27  6  2  0  0  0  0
 28 29  1  0  0  0  0
 29 30  1  0  0  0  0
 30 32  2  0  0  0  0
 30 31  1  0  0  0  0
M  END
>  <MODEL>
6

>  <REMARK>
 VINA RESULT:      -8.0      3.847      8.174
  Name = 
  3 active torsions:
  status: ('A' for Active; 'I' for Inactive)
    1  A    between atoms: C_1  and  C_10
    2  A    between atoms: C_2  and  O_24
    3  A    between atoms: C_10  and  O_24
                            x       y       z     vdW  Elec       q    Type
                         _______ _______ _______ _____ _____    ______ ____

>  <TORSDO>
F 3

$$$$
=
 OpenBabel10272413363D

 32 37  0  0  1  0  0  0  0  0999 V2000
  182.2050  179.0710  141.4210 C   0  0  1  0  0  3  0  0  0  0  0  0
  187.2580  177.9810  141.2120 C   0  0  0  0  0  0  0  0  0  0  0  0
  188.5920  177.5520  145.8780 C   0  0  0  0  0  3  0  0  0  0  0  0
  189.8900  177.2280  145.4810 C   0  0  0  0  0  3  0  0  0  0  0  0
  188.9400  177.5400  139.4150 C   0  0  0  0  0  0  0  0  0  0  0  0
  190.2590  177.1960  139.1060 C   0  0  0  0  0  0  0  0  0  0  0  0
  185.0480  178.9590  140.7040 C   0  0  2  0  0  3  0  0  0  0  0  0
  185.5920  178.3120  142.9810 N   0  0  0  0  0  2  0  0  0  0  0  0
  192.5370  176.5910  139.6180 C   0  0  1  0  0  3  0  0  0  0  0  0
  183.3060  179.0670  142.4900 C   0  0  0  0  0  2  0  0  0  0  0  0
  187.6130  177.8140  144.9170 C   0  0  0  0  0  3  0  0  0  0  0  0
  186.9400  178.0140  142.5860 C   0  0  0  0  0  0  0  0  0  0  0  0
  187.9230  177.7560  143.5500 C   0  0  0  0  0  0  0  0  0  0  0  0
  189.5560  177.3550  141.7770 C   0  0  0  0  0  0  0  0  0  0  0  0
  192.4630  176.5720  137.7810 S   0  0  0  0  0  0  0  0  0  0  0  0
  182.7290  179.6240  140.0870 C   0  0  0  0  0  2  0  0  0  0  0  0
  184.5300  178.3120  141.9850 C   0  0  1  0  0  3  0  0  0  0  0  0
  190.7630  177.0580  137.7910 N   0  0  0  0  0  2  0  0  0  0  0  0
  183.9830  178.8830  139.6200 C   0  0  0  0  0  2  0  0  0  0  0  0
  190.2100  177.1640  144.1230 C   0  0  0  0  0  3  0  0  0  0  0  0
  189.2360  177.4260  143.1450 C   0  0  0  0  0  0  0  0  0  0  0  0
  190.8250  177.0250  141.4000 N   0  0  0  0  0  0  0  0  0  0  0  0
  186.2480  178.3070  140.2930 O   0  0  0  0  0  0  0  0  0  0  0  0
  187.8380  177.8260  138.0660 Cl  0  0  0  0  0  0  0  0  0  0  0  0
  193.5400  177.6360  140.0660 C   0  0  0  0  0  1  0  0  0  0  0  0
  188.5630  177.6280  140.7870 C   0  0  0  0  0  0  0  0  0  0  0  0
  191.1750  176.9520  140.0940 C   0  0  0  0  0  0  0  0  0  0  0  0
  181.6980  177.7800  141.2430 O   0  0  0  0  0  0  0  0  0  0  0  0
  180.6810  177.9210  140.2960 C   0  0  0  0  0  2  0  0  0  0  0  0
  180.5350  176.6560  139.5300 C   0  0  0  0  0  0  0  0  0  0  0  0
  179.9820  176.6750  138.2560 O   0  0  0  0  0  0  0  0  0  0  0  0
  180.9480  175.5720  140.0190 O   0  0  0  0  0  1  0  0  0  0  0  0
  1 28  1  6  0  0  0
  1 10  1  0  0  0  0
  2 12  1  0  0  0  0
  4  3  1  0  0  0  0
  5 26  1  0  0  0  0
  6  5  2  0  0  0  0
  6 27  1  0  0  0  0
  7 19  1  6  0  0  0
  7 17  1  0  0  0  0
  9 25  1  6  0  0  0
  9 27  1  0  0  0  0
 11  3  2  0  0  0  0
 12  8  1  0  0  0  0
 12 13  2  0  0  0  0
 13 11  1  0  0  0  0
 14 21  2  0  0  0  0
 15 18  1  0  0  0  0
 15  9  1  0  0  0  0
 16  1  1  0  0  0  0
 17 10  1  1  0  0  0
 17  8  1  0  0  0  0
 18  6  1  0  0  0  0
 19 16  1  0  0  0  0
 20  4  2  0  0  0  0
 21 13  1  0  0  0  0
 21 20  1  0  0  0  0
 22 14  1  0  0  0  0
 23  7  1  0  0  0  0
 23  2  1  0  0  0  0
 24  5  1  0  0  0  0
 26  2  2  0  0  0  0
 26 14  1  0  0  0  0
 27 22  2  0  0  0  0
 29 28  1  0  0  0  0
 30 32  1  0  0  0  0
 30 29  1  0  0  0  0
 31 30  2  0  0  0  0
M  END
>  <MODEL>
7

>  <REMARK>
 VINA RESULT:      -7.4      3.577      5.747
  Name = 
  3 active torsions:
  status: ('A' for Active; 'I' for Inactive)
    1  A    between atoms: C_1  and  C_10
    2  A    between atoms: C_2  and  O_24
    3  A    between atoms: C_10  and  O_24
                            x       y       z     vdW  Elec       q    Type
                         _______ _______ _______ _____ _____    ______ ____

>  <TORSDO>
F 3

$$$$
