=
 OpenBabel10272413203D

 32 34  0  0  1  0  0  0  0  0999 V2000
  188.8830  178.2680  143.2030 O   0  0  0  0  0  0  0  0  0  0  0  0
  190.1430  177.8950  142.7290 C   0  0  0  0  0  2  0  0  0  0  0  0
  190.0310  176.7320  141.7500 C   0  0  2  0  0  3  0  0  0  0  0  0
  190.4920  175.5460  142.3270 O   0  0  0  0  0  1  0  0  0  0  0  0
  190.7100  177.0170  140.4040 C   0  0  2  0  0  3  0  0  0  0  0  0
  191.9830  177.5540  140.6040 O   0  0  0  0  0  1  0  0  0  0  0  0
  189.8880  177.8770  139.4330 C   0  0  0  0  0  2  0  0  0  0  0  0
  188.5590  177.2440  139.0300 C   0  0  2  0  0  3  0  0  0  0  0  0
  188.4940  177.1280  137.5120 C   0  0  1  0  0  3  0  0  0  0  0  0
  189.7390  176.4440  136.9850 C   0  0  0  0  0  2  0  0  0  0  0  0
  188.4500  175.6630  137.1190 C   0  0  2  0  0  3  0  0  0  0  0  0
  187.8490  175.5480  135.8670 O   0  0  0  0  0  1  0  0  0  0  0  0
  187.4110  178.1090  139.5280 C   0  0  0  0  0  2  0  0  0  0  0  0
  186.3620  178.2810  138.4430 C   0  0  0  0  0  2  0  0  0  0  0  0
  185.0210  179.5880  139.9230 O   0  0  0  0  0  1  0  0  0  0  0  0
  184.9940  178.4890  139.0630 C   0  0  0  0  0  2  0  0  0  0  0  0
  188.7040  177.5400  144.3850 C   0  0  2  0  0  3  0  0  0  0  0  0
  187.2210  177.4550  144.7440 C   0  0  1  0  0  3  0  0  0  0  0  0
  186.9180  178.1120  146.1280 C   0  0  0  0  0  2  0  0  0  0  0  0
  183.0020  178.9770  143.9140 C   0  0  0  0  0  0  0  0  0  0  0  0
  186.3560  178.0120  143.5900 C   0  0  0  0  0  2  0  0  0  0  0  0
  183.4090  179.1640  145.2310 O   0  0  0  0  0  0  0  0  0  0  0  0
  184.7950  178.9010  145.2300 C   0  0  1  0  0  3  0  0  0  0  0  0
  185.4110  178.2330  146.4350 C   0  0  0  0  0  2  0  0  0  0  0  0
  183.8760  178.3790  143.1660 N   0  0  0  0  0  0  0  0  0  0  0  0
  181.6980  179.4620  143.3900 C   0  0  0  0  0  1  0  0  0  0  0  0
  184.9280  177.9590  144.0740 C   0  0  1  0  0  3  0  0  0  0  0  0
  189.4860  178.1870  145.5260 C   0  0  0  0  0  2  0  0  0  0  0  0
  190.2500  177.1720  146.3160 C   0  0  0  0  0  0  0  0  0  0  0  0
  189.9510  176.9510  147.5970 C   0  0  0  0  0  2  0  0  0  0  0  0
  192.2710  175.7830  146.6790 C   0  0  0  0  0  1  0  0  0  0  0  0
  191.3370  176.3920  145.6490 C   0  0  0  0  0  2  0  0  0  0  0  0
  1 17  1  0  0  0  0
  2  1  1  0  0  0  0
  3  4  1  1  0  0  0
  3  2  1  0  0  0  0
  5  6  1  1  0  0  0
  5  3  1  0  0  0  0
  7  5  1  0  0  0  0
  8  7  1  6  0  0  0
  8 13  1  0  0  0  0
  9  8  1  1  0  0  0
 10 11  1  0  0  0  0
 10  9  1  0  0  0  0
 11 12  1  6  0  0  0
 11  9  1  0  0  0  0
 14 16  1  0  0  0  0
 14 13  1  0  0  0  0
 16 15  1  0  0  0  0
 17 28  1  1  0  0  0
 18 17  1  6  0  0  0
 18 19  1  0  0  0  0
 19 24  1  0  0  0  0
 20 22  1  0  0  0  0
 21 18  1  0  0  0  0
 23 22  1  0  0  0  0
 23 24  1  1  0  0  0
 25 20  2  0  0  0  0
 25 27  1  0  0  0  0
 26 20  1  0  0  0  0
 27 21  1  6  0  0  0
 27 23  1  0  0  0  0
 28 29  1  0  0  0  0
 29 30  2  0  0  0  0
 32 29  1  0  0  0  0
 32 31  1  0  0  0  0
M  END
>  <MODEL>
1

>  <REMARK>
 VINA RESULT:      -7.5      0.000      0.000
  Name = 
  14 active torsions:
  status: ('A' for Active; 'I' for Inactive)
    1  A    between atoms: C_1  and  C_4
    2  A    between atoms: C_1  and  O_5
    3  A    between atoms: C_2  and  C_14
    4  A    between atoms: C_3  and  C_20
    5  A    between atoms: C_4  and  C_24
    6  A    between atoms: O_5  and  C_14
    7  A    between atoms: C_13  and  C_29
    8  A    between atoms: C_13  and  C_30
    9  A    between atoms: C_14  and  C_30
   10  A    between atoms: C_15  and  C_20
   11  A    between atoms: C_15  and  C_26
   12  A    between atoms: C_16  and  C_20
   13  A    between atoms: C_16  and  C_24
   14  A    between atoms: C_19  and  C_26
                            x       y       z     vdW  Elec       q    Type
                         _______ _______ _______ _____ _____    ______ ____

>  <TORSDO>
F 14

$$$$
=
 OpenBabel10272413203D

 32 34  0  0  1  0  0  0  0  0999 V2000
  189.1880  177.5870  142.5250 O   0  0  0  0  0  0  0  0  0  0  0  0
  190.5100  177.9610  142.2710 C   0  0  0  0  0  2  0  0  0  0  0  0
  191.1120  177.1040  141.1630 C   0  0  2  0  0  3  0  0  0  0  0  0
  192.2820  177.6810  140.6630 O   0  0  0  0  0  1  0  0  0  0  0  0
  190.1100  176.7810  140.0470 C   0  0  2  0  0  3  0  0  0  0  0  0
  190.6450  175.8370  139.1700 O   0  0  0  0  0  1  0  0  0  0  0  0
  189.5680  178.0020  139.2900 C   0  0  0  0  0  2  0  0  0  0  0  0
  188.1800  177.7860  138.6930 C   0  0  2  0  0  3  0  0  0  0  0  0
  188.0930  178.4930  137.3470 C   0  0  1  0  0  3  0  0  0  0  0  0
  189.2620  178.0960  136.4690 C   0  0  0  0  0  2  0  0  0  0  0  0
  187.9050  177.4650  136.2470 C   0  0  2  0  0  3  0  0  0  0  0  0
  187.2870  178.0740  135.1570 O   0  0  0  0  0  1  0  0  0  0  0  0
  187.1260  178.3470  139.6370 C   0  0  0  0  0  2  0  0  0  0  0  0
  185.7580  178.3340  138.9770 C   0  0  0  0  0  2  0  0  0  0  0  0
  184.2980  180.2170  139.1060 O   0  0  0  0  0  1  0  0  0  0  0  0
  184.7630  179.1100  139.8170 C   0  0  0  0  0  2  0  0  0  0  0  0
  189.2090  177.0060  143.7980 C   0  0  2  0  0  3  0  0  0  0  0  0
  187.8210  177.0570  144.4340 C   0  0  1  0  0  3  0  0  0  0  0  0
  187.8440  177.7580  145.8290 C   0  0  0  0  0  2  0  0  0  0  0  0
  183.6610  178.9290  144.3700 C   0  0  0  0  0  0  0  0  0  0  0  0
  186.8000  177.6690  143.4470 C   0  0  0  0  0  2  0  0  0  0  0  0
  184.3270  179.1000  145.5800 O   0  0  0  0  0  0  0  0  0  0  0  0
  185.6610  178.7170  145.3240 C   0  0  1  0  0  3  0  0  0  0  0  0
  186.4380  178.0150  146.4120 C   0  0  0  0  0  2  0  0  0  0  0  0
  184.3240  178.2460  143.4900 N   0  0  0  0  0  0  0  0  0  0  0  0
  182.3260  179.5180  144.0870 C   0  0  0  0  0  1  0  0  0  0  0  0
  185.4910  177.7490  144.1950 C   0  0  1  0  0  3  0  0  0  0  0  0
  190.2220  177.7220  144.6880 C   0  0  0  0  0  2  0  0  0  0  0  0
  191.1300  176.7550  145.3800 C   0  0  0  0  0  0  0  0  0  0  0  0
  191.8140  175.8510  144.6760 C   0  0  0  0  0  2  0  0  0  0  0  0
  192.1490  175.6910  147.3730 C   0  0  0  0  0  1  0  0  0  0  0  0
  191.2800  176.8270  146.8660 C   0  0  0  0  0  2  0  0  0  0  0  0
  1 17  1  0  0  0  0
  2  1  1  0  0  0  0
  3  4  1  6  0  0  0
  3  2  1  0  0  0  0
  5  6  1  6  0  0  0
  5  3  1  0  0  0  0
  7  5  1  0  0  0  0
  8  7  1  1  0  0  0
  8 13  1  0  0  0  0
  9  8  1  1  0  0  0
 10  9  1  0  0  0  0
 11 12  1  6  0  0  0
 11 10  1  0  0  0  0
 11  9  1  0  0  0  0
 14 13  1  0  0  0  0
 14 16  1  0  0  0  0
 15 16  1  0  0  0  0
 17 28  1  1  0  0  0
 18 17  1  6  0  0  0
 18 19  1  0  0  0  0
 19 24  1  0  0  0  0
 20 22  1  0  0  0  0
 21 18  1  0  0  0  0
 23 22  1  0  0  0  0
 23 24  1  1  0  0  0
 25 27  1  0  0  0  0
 25 20  2  0  0  0  0
 26 20  1  0  0  0  0
 27 21  1  6  0  0  0
 27 23  1  0  0  0  0
 28 29  1  0  0  0  0
 29 32  1  0  0  0  0
 30 29  2  0  0  0  0
 32 31  1  0  0  0  0
M  END
>  <MODEL>
2

>  <REMARK>
 VINA RESULT:      -7.4      1.162      1.462
  Name = 
  14 active torsions:
  status: ('A' for Active; 'I' for Inactive)
    1  A    between atoms: C_1  and  C_4
    2  A    between atoms: C_1  and  O_5
    3  A    between atoms: C_2  and  C_14
    4  A    between atoms: C_3  and  C_20
    5  A    between atoms: C_4  and  C_24
    6  A    between atoms: O_5  and  C_14
    7  A    between atoms: C_13  and  C_29
    8  A    between atoms: C_13  and  C_30
    9  A    between atoms: C_14  and  C_30
   10  A    between atoms: C_15  and  C_20
   11  A    between atoms: C_15  and  C_26
   12  A    between atoms: C_16  and  C_20
   13  A    between atoms: C_16  and  C_24
   14  A    between atoms: C_19  and  C_26
                            x       y       z     vdW  Elec       q    Type
                         _______ _______ _______ _____ _____    ______ ____

>  <TORSDO>
F 14

$$$$
=
 OpenBabel10272413203D

 32 34  0  0  1  0  0  0  0  0999 V2000
  188.6830  177.3430  140.9320 O   0  0  0  0  0  0  0  0  0  0  0  0
  189.9740  177.7910  141.2220 C   0  0  0  0  0  2  0  0  0  0  0  0
  190.5850  176.9830  142.3610 C   0  0  2  0  0  3  0  0  0  0  0  0
  190.1110  175.6680  142.3530 O   0  0  0  0  0  1  0  0  0  0  0  0
  190.4030  177.6490  143.7310 C   0  0  2  0  0  3  0  0  0  0  0  0
  191.6420  177.9760  144.2830 O   0  0  0  0  0  1  0  0  0  0  0  0
  189.5390  176.8600  144.7250 C   0  0  0  0  0  2  0  0  0  0  0  0
  188.5890  177.7340  145.5400 C   0  0  2  0  0  3  0  0  0  0  0  0
  188.5030  177.1960  146.9630 C   0  0  1  0  0  3  0  0  0  0  0  0
  189.8910  177.0230  147.5440 C   0  0  0  0  0  2  0  0  0  0  0  0
  189.0590  178.2270  147.9270 C   0  0  2  0  0  3  0  0  0  0  0  0
  188.5000  178.0180  149.1870 O   0  0  0  0  0  1  0  0  0  0  0  0
  187.2090  177.7200  144.9010 C   0  0  0  0  0  2  0  0  0  0  0  0
  186.1290  177.6310  145.9650 C   0  0  0  0  0  2  0  0  0  0  0  0
  184.1810  178.9760  146.2680 O   0  0  0  0  0  1  0  0  0  0  0  0
  185.5760  179.0100  146.2680 C   0  0  0  0  0  2  0  0  0  0  0  0
  188.2920  178.0590  139.7960 C   0  0  2  0  0  3  0  0  0  0  0  0
  186.9260  178.7080  140.0140 C   0  0  1  0  0  3  0  0  0  0  0  0
  185.8860  178.2510  138.9420 C   0  0  0  0  0  2  0  0  0  0  0  0
  183.1450  178.8750  142.5600 C   0  0  0  0  0  0  0  0  0  0  0  0
  186.4540  178.4900  141.4700 C   0  0  0  0  0  2  0  0  0  0  0  0
  182.9000  178.5820  141.2220 O   0  0  0  0  0  0  0  0  0  0  0  0
  184.1660  178.3000  140.6680 C   0  0  1  0  0  3  0  0  0  0  0  0
  184.4460  178.7180  139.2440 C   0  0  0  0  0  2  0  0  0  0  0  0
  184.3940  179.0770  142.8400 N   0  0  0  0  0  0  0  0  0  0  0  0
  182.0780  178.9050  143.5940 C   0  0  0  0  0  1  0  0  0  0  0  0
  185.0730  179.0920  141.5570 C   0  0  1  0  0  3  0  0  0  0  0  0
  188.2480  177.1360  138.5800 C   0  0  0  0  0  2  0  0  0  0  0  0
  189.2030  177.5780  137.5160 C   0  0  0  0  0  0  0  0  0  0  0  0
  189.1230  178.8090  137.0080 C   0  0  0  0  0  2  0  0  0  0  0  0
  190.7790  175.7900  138.1960 C   0  0  0  0  0  1  0  0  0  0  0  0
  190.2620  176.6340  137.0460 C   0  0  0  0  0  2  0  0  0  0  0  0
  1  2  1  0  0  0  0
  2  3  1  0  0  0  0
  3  4  1  1  0  0  0
  3  5  1  0  0  0  0
  5  6  1  1  0  0  0
  5  7  1  0  0  0  0
  8  7  1  6  0  0  0
  9  8  1  6  0  0  0
  9 10  1  0  0  0  0
  9 11  1  0  0  0  0
 10 11  1  0  0  0  0
 11 12  1  1  0  0  0
 13  8  1  0  0  0  0
 13 14  1  0  0  0  0
 14 16  1  0  0  0  0
 16 15  1  0  0  0  0
 17 28  1  6  0  0  0
 17  1  1  0  0  0  0
 18 17  1  6  0  0  0
 18 21  1  0  0  0  0
 19 24  1  0  0  0  0
 19 18  1  0  0  0  0
 20 25  2  0  0  0  0
 20 26  1  0  0  0  0
 22 20  1  0  0  0  0
 23 24  1  6  0  0  0
 23 22  1  0  0  0  0
 23 27  1  0  0  0  0
 27 21  1  1  0  0  0
 27 25  1  0  0  0  0
 29 28  1  0  0  0  0
 30 29  2  0  0  0  0
 32 29  1  0  0  0  0
 32 31  1  0  0  0  0
M  END
>  <MODEL>
3

>  <REMARK>
 VINA RESULT:      -7.3      1.772      6.604
  Name = 
  14 active torsions:
  status: ('A' for Active; 'I' for Inactive)
    1  A    between atoms: C_1  and  C_4
    2  A    between atoms: C_1  and  O_5
    3  A    between atoms: C_2  and  C_14
    4  A    between atoms: C_3  and  C_20
    5  A    between atoms: C_4  and  C_24
    6  A    between atoms: O_5  and  C_14
    7  A    between atoms: C_13  and  C_29
    8  A    between atoms: C_13  and  C_30
    9  A    between atoms: C_14  and  C_30
   10  A    between atoms: C_15  and  C_20
   11  A    between atoms: C_15  and  C_26
   12  A    between atoms: C_16  and  C_20
   13  A    between atoms: C_16  and  C_24
   14  A    between atoms: C_19  and  C_26
                            x       y       z     vdW  Elec       q    Type
                         _______ _______ _______ _____ _____    ______ ____

>  <TORSDO>
F 14

$$$$
=
 OpenBabel10272413203D

 32 34  0  0  1  0  0  0  0  0999 V2000
  188.7120  177.0450  140.8730 O   0  0  0  0  0  0  0  0  0  0  0  0
  190.0890  176.8690  140.7190 C   0  0  0  0  0  2  0  0  0  0  0  0
  190.8400  177.3640  141.9490 C   0  0  2  0  0  3  0  0  0  0  0  0
  192.2120  177.4490  141.6980 O   0  0  0  0  0  1  0  0  0  0  0  0
  190.5370  176.5380  143.2060 C   0  0  2  0  0  3  0  0  0  0  0  0
  190.4100  175.1870  142.8830 O   0  0  0  0  0  1  0  0  0  0  0  0
  189.3390  177.0300  144.0310 C   0  0  0  0  0  2  0  0  0  0  0  0
  189.5320  176.8860  145.5380 C   0  0  2  0  0  3  0  0  0  0  0  0
  188.7450  177.9770  146.2550 C   0  0  1  0  0  3  0  0  0  0  0  0
  187.2780  177.8910  145.8890 C   0  0  0  0  0  2  0  0  0  0  0  0
  187.7570  177.3390  147.2140 C   0  0  2  0  0  3  0  0  0  0  0  0
  187.4570  178.2480  148.2270 O   0  0  0  0  0  1  0  0  0  0  0  0
  191.0100  177.0130  145.8770 C   0  0  0  0  0  2  0  0  0  0  0  0
  191.2410  176.7640  147.3570 C   0  0  0  0  0  2  0  0  0  0  0  0
  193.1680  176.1120  148.6060 O   0  0  0  0  0  1  0  0  0  0  0  0
  192.3360  175.7330  147.5510 C   0  0  0  0  0  2  0  0  0  0  0  0
  188.3570  178.0110  139.9250 C   0  0  2  0  0  3  0  0  0  0  0  0
  187.0770  178.7320  140.3460 C   0  0  1  0  0  3  0  0  0  0  0  0
  185.9070  178.4760  139.3440 C   0  0  0  0  0  2  0  0  0  0  0  0
  183.5770  178.8960  143.2660 C   0  0  0  0  0  0  0  0  0  0  0  0
  186.7260  178.3890  141.8130 C   0  0  0  0  0  2  0  0  0  0  0  0
  183.1840  178.7730  141.9380 O   0  0  0  0  0  0  0  0  0  0  0  0
  184.3650  178.4610  141.2310 C   0  0  1  0  0  3  0  0  0  0  0  0
  184.5460  179.0120  139.8380 C   0  0  0  0  0  2  0  0  0  0  0  0
  184.8600  178.9730  143.4380 N   0  0  0  0  0  0  0  0  0  0  0  0
  182.6170  178.8910  144.4010 C   0  0  0  0  0  1  0  0  0  0  0  0
  185.4150  179.0790  142.1010 C   0  0  1  0  0  3  0  0  0  0  0  0
  188.1690  177.3620  138.5550 C   0  0  0  0  0  2  0  0  0  0  0  0
  189.1020  177.9400  137.5380 C   0  0  0  0  0  0  0  0  0  0  0  0
  188.9710  179.2090  137.1470 C   0  0  0  0  0  2  0  0  0  0  0  0
  189.6440  175.7640  136.4810 C   0  0  0  0  0  1  0  0  0  0  0  0
  190.1960  177.0870  136.9810 C   0  0  0  0  0  2  0  0  0  0  0  0
  2  1  1  0  0  0  0
  2  3  1  0  0  0  0
  3  4  1  6  0  0  0
  3  5  1  0  0  0  0
  5  6  1  6  0  0  0
  5  7  1  0  0  0  0
  8  7  1  6  0  0  0
  8 13  1  0  0  0  0
  9  8  1  6  0  0  0
  9 11  1  0  0  0  0
 10  9  1  0  0  0  0
 10 11  1  0  0  0  0
 11 12  1  1  0  0  0
 13 14  1  0  0  0  0
 14 16  1  0  0  0  0
 16 15  1  0  0  0  0
 17 28  1  6  0  0  0
 17  1  1  0  0  0  0
 18 17  1  6  0  0  0
 18 21  1  0  0  0  0
 19 24  1  0  0  0  0
 19 18  1  0  0  0  0
 20 25  2  0  0  0  0
 20 26  1  0  0  0  0
 22 20  1  0  0  0  0
 23 24  1  6  0  0  0
 23 22  1  0  0  0  0
 23 27  1  0  0  0  0
 27 21  1  1  0  0  0
 27 25  1  0  0  0  0
 29 28  1  0  0  0  0
 30 29  2  0  0  0  0
 31 32  1  0  0  0  0
 32 29  1  0  0  0  0
M  END
>  <MODEL>
4

>  <REMARK>
 VINA RESULT:      -7.2      2.012      7.052
  Name = 
  14 active torsions:
  status: ('A' for Active; 'I' for Inactive)
    1  A    between atoms: C_1  and  C_4
    2  A    between atoms: C_1  and  O_5
    3  A    between atoms: C_2  and  C_14
    4  A    between atoms: C_3  and  C_20
    5  A    between atoms: C_4  and  C_24
    6  A    between atoms: O_5  and  C_14
    7  A    between atoms: C_13  and  C_29
    8  A    between atoms: C_13  and  C_30
    9  A    between atoms: C_14  and  C_30
   10  A    between atoms: C_15  and  C_20
   11  A    between atoms: C_15  and  C_26
   12  A    between atoms: C_16  and  C_20
   13  A    between atoms: C_16  and  C_24
   14  A    between atoms: C_19  and  C_26
                            x       y       z     vdW  Elec       q    Type
                         _______ _______ _______ _____ _____    ______ ____

>  <TORSDO>
F 14

$$$$
=
 OpenBabel10272413203D

 32 34  0  0  1  0  0  0  0  0999 V2000
  190.8210  176.4370  140.7770 O   0  0  0  0  0  0  0  0  0  0  0  0
  191.5360  177.3870  141.5120 C   0  0  0  0  0  2  0  0  0  0  0  0
  191.3940  177.1330  143.0080 C   0  0  2  0  0  3  0  0  0  0  0  0
  191.3830  175.7640  143.2850 O   0  0  0  0  0  1  0  0  0  0  0  0
  190.1870  177.8530  143.6230 C   0  0  2  0  0  3  0  0  0  0  0  0
  190.5490  179.1270  144.0610 O   0  0  0  0  0  1  0  0  0  0  0  0
  189.4590  177.0700  144.7260 C   0  0  0  0  0  2  0  0  0  0  0  0
  188.4210  177.8950  145.4800 C   0  0  2  0  0  3  0  0  0  0  0  0
  188.2090  177.2970  146.8650 C   0  0  1  0  0  3  0  0  0  0  0  0
  189.5370  176.8930  147.4710 C   0  0  0  0  0  2  0  0  0  0  0  0
  188.8730  178.1810  147.9040 C   0  0  2  0  0  3  0  0  0  0  0  0
  188.2460  177.9850  149.1340 O   0  0  0  0  0  1  0  0  0  0  0  0
  187.1080  177.8890  144.7120 C   0  0  0  0  0  2  0  0  0  0  0  0
  185.9680  178.3580  145.5990 C   0  0  0  0  0  2  0  0  0  0  0  0
  183.7210  179.1610  145.5740 O   0  0  0  0  0  1  0  0  0  0  0  0
  184.7600  178.7160  144.7560 C   0  0  0  0  0  2  0  0  0  0  0  0
  190.8540  176.8940  139.4550 C   0  0  2  0  0  3  0  0  0  0  0  0
  189.7070  177.8680  139.1940 C   0  0  1  0  0  3  0  0  0  0  0  0
  189.2320  177.8260  137.7070 C   0  0  0  0  0  2  0  0  0  0  0  0
  185.2880  178.8140  139.8190 C   0  0  0  0  0  0  0  0  0  0  0  0
  188.5680  177.6430  140.2160 C   0  0  0  0  0  2  0  0  0  0  0  0
  185.6540  178.7360  138.4790 O   0  0  0  0  0  0  0  0  0  0  0  0
  186.9480  178.1740  138.4810 C   0  0  1  0  0  3  0  0  0  0  0  0
  187.9450  178.6380  137.4480 C   0  0  0  0  0  2  0  0  0  0  0  0
  186.2680  178.6350  140.6490 N   0  0  0  0  0  0  0  0  0  0  0  0
  183.8880  179.0330  140.2670 C   0  0  0  0  0  1  0  0  0  0  0  0
  187.4610  178.5910  139.8240 C   0  0  1  0  0  3  0  0  0  0  0  0
  190.7730  175.7140  138.4880 C   0  0  0  0  0  2  0  0  0  0  0  0
  192.0910  175.4460  137.8320 C   0  0  0  0  0  0  0  0  0  0  0  0
  192.3340  174.2620  137.2680 C   0  0  0  0  0  2  0  0  0  0  0  0
  193.8420  176.5370  136.4600 C   0  0  0  0  0  1  0  0  0  0  0  0
  193.1230  176.5270  137.7960 C   0  0  0  0  0  2  0  0  0  0  0  0
  1  2  1  0  0  0  0
  2  3  1  0  0  0  0
  3  4  1  6  0  0  0
  3  5  1  0  0  0  0
  5  6  1  1  0  0  0
  5  7  1  0  0  0  0
  7  8  1  0  0  0  0
  8 13  1  6  0  0  0
  9  8  1  6  0  0  0
  9 10  1  0  0  0  0
  9 11  1  0  0  0  0
 10 11  1  0  0  0  0
 11 12  1  1  0  0  0
 13 14  1  0  0  0  0
 16 15  1  0  0  0  0
 16 14  1  0  0  0  0
 17 28  1  6  0  0  0
 17  1  1  0  0  0  0
 18 17  1  6  0  0  0
 18 21  1  0  0  0  0
 19 18  1  0  0  0  0
 20 26  1  0  0  0  0
 20 25  2  0  0  0  0
 22 23  1  0  0  0  0
 22 20  1  0  0  0  0
 23 24  1  6  0  0  0
 23 27  1  0  0  0  0
 24 19  1  0  0  0  0
 27 21  1  1  0  0  0
 27 25  1  0  0  0  0
 29 28  1  0  0  0  0
 30 29  2  0  0  0  0
 31 32  1  0  0  0  0
 32 29  1  0  0  0  0
M  END
>  <MODEL>
5

>  <REMARK>
 VINA RESULT:      -7.1      2.069      7.110
  Name = 
  14 active torsions:
  status: ('A' for Active; 'I' for Inactive)
    1  A    between atoms: C_1  and  C_4
    2  A    between atoms: C_1  and  O_5
    3  A    between atoms: C_2  and  C_14
    4  A    between atoms: C_3  and  C_20
    5  A    between atoms: C_4  and  C_24
    6  A    between atoms: O_5  and  C_14
    7  A    between atoms: C_13  and  C_29
    8  A    between atoms: C_13  and  C_30
    9  A    between atoms: C_14  and  C_30
   10  A    between atoms: C_15  and  C_20
   11  A    between atoms: C_15  and  C_26
   12  A    between atoms: C_16  and  C_20
   13  A    between atoms: C_16  and  C_24
   14  A    between atoms: C_19  and  C_26
                            x       y       z     vdW  Elec       q    Type
                         _______ _______ _______ _____ _____    ______ ____

>  <TORSDO>
F 14

$$$$
=
 OpenBabel10272413203D

 32 34  0  0  1  0  0  0  0  0999 V2000
  188.2460  176.4710  143.4380 O   0  0  0  0  0  0  0  0  0  0  0  0
  189.4850  177.0920  143.2610 C   0  0  0  0  0  2  0  0  0  0  0  0
  190.4440  176.1820  142.5030 C   0  0  2  0  0  3  0  0  0  0  0  0
  191.6020  175.9420  143.2480 O   0  0  0  0  0  1  0  0  0  0  0  0
  190.7660  176.6960  141.0940 C   0  0  2  0  0  3  0  0  0  0  0  0
  191.8430  177.5820  141.1310 O   0  0  0  0  0  1  0  0  0  0  0  0
  189.5740  177.2980  140.3360 C   0  0  0  0  0  2  0  0  0  0  0  0
  189.7130  177.2250  138.8180 C   0  0  2  0  0  3  0  0  0  0  0  0
  188.3350  177.0400  138.1930 C   0  0  1  0  0  3  0  0  0  0  0  0
  187.3690  178.0710  138.7400 C   0  0  0  0  0  2  0  0  0  0  0  0
  187.9850  178.2670  137.3720 C   0  0  2  0  0  3  0  0  0  0  0  0
  187.0580  177.9090  136.3940 O   0  0  0  0  0  1  0  0  0  0  0  0
  190.6080  176.0530  138.4430 C   0  0  0  0  0  2  0  0  0  0  0  0
  191.6770  176.4930  137.4590 C   0  0  0  0  0  2  0  0  0  0  0  0
  194.0360  176.6940  137.1580 O   0  0  0  0  0  1  0  0  0  0  0  0
  193.0560  176.1790  138.0070 C   0  0  0  0  0  2  0  0  0  0  0  0
  187.6280  177.1720  144.4790 C   0  0  2  0  0  3  0  0  0  0  0  0
  186.5640  178.1210  143.9310 C   0  0  1  0  0  3  0  0  0  0  0  0
  186.4660  178.0490  142.3740 C   0  0  0  0  0  2  0  0  0  0  0  0
  182.1130  178.9910  143.4490 C   0  0  0  0  0  0  0  0  0  0  0  0
  185.2150  177.8890  144.6510 C   0  0  0  0  0  2  0  0  0  0  0  0
  182.7940  178.9010  142.2390 O   0  0  0  0  0  0  0  0  0  0  0  0
  184.0560  178.3640  142.5650 C   0  0  1  0  0  3  0  0  0  0  0  0
  185.2680  178.8330  141.7970 C   0  0  0  0  0  2  0  0  0  0  0  0
  182.8640  178.8430  144.4950 N   0  0  0  0  0  0  0  0  0  0  0  0
  180.6420  179.1900  143.5410 C   0  0  0  0  0  1  0  0  0  0  0  0
  184.2220  178.8100  143.9840 C   0  0  1  0  0  3  0  0  0  0  0  0
  188.6690  177.9530  145.2800 C   0  0  0  0  0  2  0  0  0  0  0  0
  188.7320  177.4920  146.7010 C   0  0  0  0  0  0  0  0  0  0  0  0
  189.7650  176.7640  147.1290 C   0  0  0  0  0  2  0  0  0  0  0  0
  188.1860  178.1020  149.0410 C   0  0  0  0  0  1  0  0  0  0  0  0
  187.6370  177.8760  147.6440 C   0  0  0  0  0  2  0  0  0  0  0  0
  1 17  1  0  0  0  0
  2  1  1  0  0  0  0
  3  4  1  1  0  0  0
  3  2  1  0  0  0  0
  5  6  1  1  0  0  0
  5  3  1  0  0  0  0
  7  5  1  0  0  0  0
  8 13  1  1  0  0  0
  8  7  1  0  0  0  0
  9 10  1  0  0  0  0
  9  8  1  1  0  0  0
 11 12  1  6  0  0  0
 11  9  1  0  0  0  0
 11 10  1  0  0  0  0
 14 16  1  0  0  0  0
 14 13  1  0  0  0  0
 15 16  1  0  0  0  0
 17 28  1  6  0  0  0
 18 17  1  1  0  0  0
 18 21  1  0  0  0  0
 19 18  1  0  0  0  0
 20 26  1  0  0  0  0
 20 25  2  0  0  0  0
 22 23  1  0  0  0  0
 22 20  1  0  0  0  0
 23 24  1  6  0  0  0
 23 27  1  0  0  0  0
 24 19  1  0  0  0  0
 27 25  1  0  0  0  0
 27 21  1  1  0  0  0
 28 29  1  0  0  0  0
 29 30  2  0  0  0  0
 29 32  1  0  0  0  0
 32 31  1  0  0  0  0
M  END
>  <MODEL>
6

>  <REMARK>
 VINA RESULT:      -7.1      1.724      3.402
  Name = 
  14 active torsions:
  status: ('A' for Active; 'I' for Inactive)
    1  A    between atoms: C_1  and  C_4
    2  A    between atoms: C_1  and  O_5
    3  A    between atoms: C_2  and  C_14
    4  A    between atoms: C_3  and  C_20
    5  A    between atoms: C_4  and  C_24
    6  A    between atoms: O_5  and  C_14
    7  A    between atoms: C_13  and  C_29
    8  A    between atoms: C_13  and  C_30
    9  A    between atoms: C_14  and  C_30
   10  A    between atoms: C_15  and  C_20
   11  A    between atoms: C_15  and  C_26
   12  A    between atoms: C_16  and  C_20
   13  A    between atoms: C_16  and  C_24
   14  A    between atoms: C_19  and  C_26
                            x       y       z     vdW  Elec       q    Type
                         _______ _______ _______ _____ _____    ______ ____

>  <TORSDO>
F 14

$$$$
=
 OpenBabel10272413203D

 32 34  0  0  1  0  0  0  0  0999 V2000
  188.6040  177.2920  141.1040 O   0  0  0  0  0  0  0  0  0  0  0  0
  188.3180  178.2850  140.1630 C   0  0  0  0  0  2  0  0  0  0  0  0
  186.9020  178.1270  139.6230 C   0  0  2  0  0  3  0  0  0  0  0  0
  186.7600  178.7740  138.3920 O   0  0  0  0  0  1  0  0  0  0  0  0
  185.8270  178.5640  140.6270 C   0  0  2  0  0  3  0  0  0  0  0  0
  185.0020  179.5400  140.0660 O   0  0  0  0  0  1  0  0  0  0  0  0
  186.3620  179.0060  141.9970 C   0  0  0  0  0  2  0  0  0  0  0  0
  185.8250  178.1780  143.1610 C   0  0  2  0  0  3  0  0  0  0  0  0
  185.1630  179.1020  144.1750 C   0  0  1  0  0  3  0  0  0  0  0  0
  183.8010  179.5400  143.6760 C   0  0  0  0  0  2  0  0  0  0  0  0
  183.9060  178.4440  144.7140 C   0  0  2  0  0  3  0  0  0  0  0  0
  183.6210  178.9720  145.9710 O   0  0  0  0  0  1  0  0  0  0  0  0
  186.9690  177.4250  143.8220 C   0  0  0  0  0  2  0  0  0  0  0  0
  187.4700  178.1800  145.0410 C   0  0  0  0  0  2  0  0  0  0  0  0
  187.0340  178.0360  147.3830 O   0  0  0  0  0  1  0  0  0  0  0  0
  187.4190  177.2900  146.2680 C   0  0  0  0  0  2  0  0  0  0  0  0
  189.9200  176.8990  140.8360 C   0  0  2  0  0  3  0  0  0  0  0  0
  190.8220  177.1920  142.0340 C   0  0  1  0  0  3  0  0  0  0  0  0
  190.4280  178.5230  142.7490 C   0  0  0  0  0  2  0  0  0  0  0  0
  191.9680  176.0820  146.3070 C   0  0  0  0  0  0  0  0  0  0  0  0
  190.8720  175.9690  142.9790 C   0  0  0  0  0  2  0  0  0  0  0  0
  191.5600  177.4050  146.1690 O   0  0  0  0  0  0  0  0  0  0  0  0
  190.9930  177.4830  144.8800 C   0  0  1  0  0  3  0  0  0  0  0  0
  191.1750  178.7510  144.0800 C   0  0  0  0  0  2  0  0  0  0  0  0
  191.9790  175.4100  145.1990 N   0  0  0  0  0  0  0  0  0  0  0  0
  192.3140  175.4710  147.6170 C   0  0  0  0  0  1  0  0  0  0  0  0
  191.7150  176.3880  144.1600 C   0  0  1  0  0  3  0  0  0  0  0  0
  190.4430  177.6190  139.5940 C   0  0  0  0  0  2  0  0  0  0  0  0
  191.0210  176.6600  138.6030 C   0  0  0  0  0  0  0  0  0  0  0  0
  192.3440  176.5410  138.4730 C   0  0  0  0  0  2  0  0  0  0  0  0
  189.2650  176.6870  136.8540 C   0  0  0  0  0  1  0  0  0  0  0  0
  190.1020  175.8190  137.7760 C   0  0  0  0  0  2  0  0  0  0  0  0
  2  1  1  0  0  0  0
  3  4  1  6  0  0  0
  3  2  1  0  0  0  0
  3  5  1  0  0  0  0
  5  6  1  6  0  0  0
  5  7  1  0  0  0  0
  8  7  1  6  0  0  0
  8 13  1  0  0  0  0
  9  8  1  6  0  0  0
  9 11  1  0  0  0  0
 10  9  1  0  0  0  0
 10 11  1  0  0  0  0
 11 12  1  1  0  0  0
 13 14  1  0  0  0  0
 14 16  1  0  0  0  0
 16 15  1  0  0  0  0
 17 28  1  6  0  0  0
 17  1  1  0  0  0  0
 18 17  1  6  0  0  0
 18 19  1  0  0  0  0
 18 21  1  0  0  0  0
 19 24  1  0  0  0  0
 20 26  1  0  0  0  0
 22 20  1  0  0  0  0
 23 24  1  6  0  0  0
 23 22  1  0  0  0  0
 25 20  2  0  0  0  0
 27 21  1  6  0  0  0
 27 23  1  0  0  0  0
 27 25  1  0  0  0  0
 29 28  1  0  0  0  0
 30 29  2  0  0  0  0
 31 32  1  0  0  0  0
 32 29  1  0  0  0  0
M  END
>  <MODEL>
7

>  <REMARK>
 VINA RESULT:      -7.1      2.286      7.303
  Name = 
  14 active torsions:
  status: ('A' for Active; 'I' for Inactive)
    1  A    between atoms: C_1  and  C_4
    2  A    between atoms: C_1  and  O_5
    3  A    between atoms: C_2  and  C_14
    4  A    between atoms: C_3  and  C_20
    5  A    between atoms: C_4  and  C_24
    6  A    between atoms: O_5  and  C_14
    7  A    between atoms: C_13  and  C_29
    8  A    between atoms: C_13  and  C_30
    9  A    between atoms: C_14  and  C_30
   10  A    between atoms: C_15  and  C_20
   11  A    between atoms: C_15  and  C_26
   12  A    between atoms: C_16  and  C_20
   13  A    between atoms: C_16  and  C_24
   14  A    between atoms: C_19  and  C_26
                            x       y       z     vdW  Elec       q    Type
                         _______ _______ _______ _____ _____    ______ ____

>  <TORSDO>
F 14

$$$$
=
 OpenBabel10272413203D

 32 34  0  0  1  0  0  0  0  0999 V2000
  186.8210  177.1170  144.3810 O   0  0  0  0  0  0  0  0  0  0  0  0
  187.0310  178.2020  145.2360 C   0  0  0  0  0  2  0  0  0  0  0  0
  186.7380  177.8180  146.6810 C   0  0  2  0  0  3  0  0  0  0  0  0
  186.0750  178.8510  147.3490 O   0  0  0  0  0  1  0  0  0  0  0  0
  187.9870  177.3520  147.4400 C   0  0  2  0  0  3  0  0  0  0  0  0
  187.8590  177.6240  148.8030 O   0  0  0  0  0  1  0  0  0  0  0  0
  189.3170  177.8840  146.8870 C   0  0  0  0  0  2  0  0  0  0  0  0
  190.1840  176.8100  146.2370 C   0  0  2  0  0  3  0  0  0  0  0  0
  191.5930  176.8830  146.8100 C   0  0  1  0  0  3  0  0  0  0  0  0
  191.5400  177.1070  148.3080 C   0  0  0  0  0  2  0  0  0  0  0  0
  191.8110  175.7220  147.7630 C   0  0  2  0  0  3  0  0  0  0  0  0
  193.1770  175.4540  147.8470 O   0  0  0  0  0  1  0  0  0  0  0  0
  190.2290  177.0330  144.7320 C   0  0  0  0  0  2  0  0  0  0  0  0
  191.6470  177.3380  144.2810 C   0  0  0  0  0  2  0  0  0  0  0  0
  190.8640  179.5850  144.1020 O   0  0  0  0  0  1  0  0  0  0  0  0
  191.6790  178.6320  143.4910 C   0  0  0  0  0  2  0  0  0  0  0  0
  186.3650  177.6760  143.1820 C   0  0  2  0  0  3  0  0  0  0  0  0
  187.5340  177.9460  142.2360 C   0  0  1  0  0  3  0  0  0  0  0  0
  188.5910  176.7980  142.2740 C   0  0  0  0  0  2  0  0  0  0  0  0
  188.9740  178.1500  137.9130 C   0  0  0  0  0  0  0  0  0  0  0  0
  187.0130  178.2650  140.8160 C   0  0  0  0  0  2  0  0  0  0  0  0
  189.6890  177.2460  138.6930 O   0  0  0  0  0  0  0  0  0  0  0  0
  188.9430  177.1150  139.8830 C   0  0  1  0  0  3  0  0  0  0  0  0
  189.6790  176.9280  141.1870 C   0  0  0  0  0  2  0  0  0  0  0  0
  188.0500  178.7930  138.5560 N   0  0  0  0  0  0  0  0  0  0  0  0
  189.2110  178.3310  136.4570 C   0  0  0  0  0  1  0  0  0  0  0  0
  188.2370  178.4330  139.9490 C   0  0  1  0  0  3  0  0  0  0  0  0
  185.6020  178.9700  143.4600 C   0  0  0  0  0  2  0  0  0  0  0  0
  184.1270  178.7890  143.2900 C   0  0  0  0  0  0  0  0  0  0  0  0
  183.6250  178.4100  142.1140 C   0  0  0  0  0  2  0  0  0  0  0  0
  181.7710  178.8230  144.0610 C   0  0  0  0  0  1  0  0  0  0  0  0
  183.2230  179.0130  144.4600 C   0  0  0  0  0  2  0  0  0  0  0  0
  1  2  1  0  0  0  0
  2  3  1  0  0  0  0
  3  4  1  1  0  0  0
  3  5  1  0  0  0  0
  5  6  1  1  0  0  0
  7  5  1  0  0  0  0
  8 13  1  6  0  0  0
  8  7  1  0  0  0  0
  9  8  1  6  0  0  0
  9 11  1  0  0  0  0
  9 10  1  0  0  0  0
 11 12  1  1  0  0  0
 11 10  1  0  0  0  0
 14 13  1  0  0  0  0
 16 15  1  0  0  0  0
 16 14  1  0  0  0  0
 17 28  1  1  0  0  0
 17  1  1  0  0  0  0
 18 19  1  0  0  0  0
 18 17  1  1  0  0  0
 20 25  2  0  0  0  0
 20 22  1  0  0  0  0
 21 18  1  0  0  0  0
 22 23  1  0  0  0  0
 23 27  1  0  0  0  0
 23 24  1  1  0  0  0
 24 19  1  0  0  0  0
 25 27  1  0  0  0  0
 26 20  1  0  0  0  0
 27 21  1  6  0  0  0
 29 28  1  0  0  0  0
 29 32  1  0  0  0  0
 30 29  2  0  0  0  0
 31 32  1  0  0  0  0
M  END
>  <MODEL>
8

>  <REMARK>
 VINA RESULT:      -7.0      2.423      7.740
  Name = 
  14 active torsions:
  status: ('A' for Active; 'I' for Inactive)
    1  A    between atoms: C_1  and  C_4
    2  A    between atoms: C_1  and  O_5
    3  A    between atoms: C_2  and  C_14
    4  A    between atoms: C_3  and  C_20
    5  A    between atoms: C_4  and  C_24
    6  A    between atoms: O_5  and  C_14
    7  A    between atoms: C_13  and  C_29
    8  A    between atoms: C_13  and  C_30
    9  A    between atoms: C_14  and  C_30
   10  A    between atoms: C_15  and  C_20
   11  A    between atoms: C_15  and  C_26
   12  A    between atoms: C_16  and  C_20
   13  A    between atoms: C_16  and  C_24
   14  A    between atoms: C_19  and  C_26
                            x       y       z     vdW  Elec       q    Type
                         _______ _______ _______ _____ _____    ______ ____

>  <TORSDO>
F 14

$$$$
=
 OpenBabel10272413203D

 32 34  0  0  1  0  0  0  0  0999 V2000
  188.2550  177.0820  142.2230 O   0  0  0  0  0  0  0  0  0  0  0  0
  188.2120  177.6900  140.9650 C   0  0  0  0  0  2  0  0  0  0  0  0
  189.2190  177.0470  140.0190 C   0  0  2  0  0  3  0  0  0  0  0  0
  190.2200  176.3800  140.7300 O   0  0  0  0  0  1  0  0  0  0  0  0
  189.8010  178.0390  139.0030 C   0  0  2  0  0  3  0  0  0  0  0  0
  188.9820  179.1630  138.8940 O   0  0  0  0  0  1  0  0  0  0  0  0
  190.1180  177.4430  137.6240 C   0  0  0  0  0  2  0  0  0  0  0  0
  188.9060  176.8270  136.9300 C   0  0  2  0  0  3  0  0  0  0  0  0
  189.3190  175.5260  136.2530 C   0  0  1  0  0  3  0  0  0  0  0  0
  190.3270  174.7860  137.1080 C   0  0  0  0  0  2  0  0  0  0  0  0
  188.8780  174.3510  137.1060 C   0  0  2  0  0  3  0  0  0  0  0  0
  188.7360  173.2280  136.2920 O   0  0  0  0  0  1  0  0  0  0  0  0
  188.3660  177.7980  135.8910 C   0  0  0  0  0  2  0  0  0  0  0  0
  186.8760  178.0160  136.0890 C   0  0  0  0  0  2  0  0  0  0  0  0
  185.0690  177.0140  137.2840 O   0  0  0  0  0  1  0  0  0  0  0  0
  186.4170  177.3630  137.3790 C   0  0  0  0  0  2  0  0  0  0  0  0
  187.6040  177.9730  143.0840 C   0  0  2  0  0  3  0  0  0  0  0  0
  188.3910  178.1340  144.3840 C   0  0  1  0  0  3  0  0  0  0  0  0
  187.5020  177.8660  145.6400 C   0  0  0  0  0  2  0  0  0  0  0  0
  191.5670  176.3990  147.1600 C   0  0  0  0  0  0  0  0  0  0  0  0
  189.6790  177.2800  144.3410 C   0  0  0  0  0  2  0  0  0  0  0  0
  190.3310  176.5730  147.7730 O   0  0  0  0  0  0  0  0  0  0  0  0
  189.4310  176.8410  146.7210 C   0  0  1  0  0  3  0  0  0  0  0  0
  188.3010  177.8130  146.9590 C   0  0  0  0  0  2  0  0  0  0  0  0
  191.6070  176.7860  145.9230 N   0  0  0  0  0  0  0  0  0  0  0  0
  192.7320  175.7770  147.8420 C   0  0  0  0  0  1  0  0  0  0  0  0
  190.3350  177.4440  145.6910 C   0  0  1  0  0  3  0  0  0  0  0  0
  186.1900  177.4810  143.3810 C   0  0  0  0  0  2  0  0  0  0  0  0
  185.1570  178.4750  142.9520 C   0  0  0  0  0  0  0  0  0  0  0  0
  184.6770  178.4530  141.7080 C   0  0  0  0  0  2  0  0  0  0  0  0
  183.9470  178.7880  145.0930 C   0  0  0  0  0  1  0  0  0  0  0  0
  184.6530  179.4780  143.9400 C   0  0  0  0  0  2  0  0  0  0  0  0
  1 17  1  0  0  0  0
  2  1  1  0  0  0  0
  3  4  1  1  0  0  0
  3  2  1  0  0  0  0
  5  6  1  6  0  0  0
  5  3  1  0  0  0  0
  7  5  1  0  0  0  0
  8 13  1  6  0  0  0
  8  7  1  0  0  0  0
  9  8  1  1  0  0  0
  9 11  1  0  0  0  0
  9 10  1  0  0  0  0
 11 12  1  6  0  0  0
 11 10  1  0  0  0  0
 13 14  1  0  0  0  0
 14 16  1  0  0  0  0
 15 16  1  0  0  0  0
 17 28  1  1  0  0  0
 18 17  1  6  0  0  0
 18 19  1  0  0  0  0
 19 24  1  0  0  0  0
 20 22  1  0  0  0  0
 20 26  1  0  0  0  0
 21 18  1  0  0  0  0
 23 24  1  1  0  0  0
 23 22  1  0  0  0  0
 25 20  2  0  0  0  0
 27 21  1  6  0  0  0
 27 25  1  0  0  0  0
 27 23  1  0  0  0  0
 29 28  1  0  0  0  0
 29 32  1  0  0  0  0
 30 29  2  0  0  0  0
 32 31  1  0  0  0  0
M  END
>  <MODEL>
9

>  <REMARK>
 VINA RESULT:      -6.9      2.424      5.063
  Name = 
  14 active torsions:
  status: ('A' for Active; 'I' for Inactive)
    1  A    between atoms: C_1  and  C_4
    2  A    between atoms: C_1  and  O_5
    3  A    between atoms: C_2  and  C_14
    4  A    between atoms: C_3  and  C_20
    5  A    between atoms: C_4  and  C_24
    6  A    between atoms: O_5  and  C_14
    7  A    between atoms: C_13  and  C_29
    8  A    between atoms: C_13  and  C_30
    9  A    between atoms: C_14  and  C_30
   10  A    between atoms: C_15  and  C_20
   11  A    between atoms: C_15  and  C_26
   12  A    between atoms: C_16  and  C_20
   13  A    between atoms: C_16  and  C_24
   14  A    between atoms: C_19  and  C_26
                            x       y       z     vdW  Elec       q    Type
                         _______ _______ _______ _____ _____    ______ ____

>  <TORSDO>
F 14

$$$$
