=
 OpenBabel10272413243D

 32 37  0  0  1  0  0  0  0  0999 V2000
  186.8380  173.3200  135.9830 C   0  0  0  0  0  0  0  0  0  0  0  0
  189.9810  173.8450  137.7150 O   0  0  0  0  0  0  0  0  0  0  0  0
  188.6100  178.4800  138.8050 C   0  0  0  0  0  3  0  0  0  0  0  0
  191.1280  176.7730  143.9490 C   0  0  0  0  0  2  0  0  0  0  0  0
  189.6640  176.3730  144.1250 C   0  0  0  0  0  2  0  0  0  0  0  0
  189.7950  176.8680  137.3140 C   0  0  0  0  0  0  0  0  0  0  0  0
  190.9280  176.5380  139.5310 C   0  0  0  0  0  3  0  0  0  0  0  0
  187.8730  172.9700  136.8360 C   0  0  0  0  0  3  0  0  0  0  0  0
  191.0510  174.7880  137.7200 C   0  0  0  0  0  2  0  0  0  0  0  0
  191.4890  176.7640  142.4670 C   0  0  0  0  0  2  0  0  0  0  0  0
  190.2780  177.4140  140.3070 C   0  0  0  0  0  0  0  0  0  0  0  0
  190.5030  177.5300  141.7080 N   0  0  0  0  0  0  0  0  0  0  0  0
  188.4310  178.4970  141.2330 N   0  0  0  0  0  0  0  0  0  0  0  0
  187.0980  174.8430  135.3210 S   0  0  0  0  0  0  0  0  0  0  0  0
  188.5540  175.0960  136.1210 C   0  0  0  0  0  0  0  0  0  0  0  0
  185.7070  172.5020  135.7060 N   0  0  0  0  0  1  0  0  0  0  0  0
  190.5690  176.1400  138.1500 C   0  0  0  0  0  0  0  0  0  0  0  0
  189.3980  176.3230  135.9730 C   0  0  0  0  0  2  0  0  0  0  0  0
  188.8450  173.9750  136.9050 C   0  0  0  0  0  0  0  0  0  0  0  0
  188.6830  177.2830  143.3630 C   0  0  0  0  0  2  0  0  0  0  0  0
  189.3540  178.1990  142.3290 C   0  0  1  0  0  3  0  0  0  0  0  0
  189.4400  178.2950  137.5790 C   0  0  0  0  0  2  0  0  0  0  0  0
  189.0340  178.0940  140.0060 C   0  0  0  0  0  0  0  0  0  0  0  0
  187.2910  179.4000  141.3530 C   0  0  0  0  0  2  0  0  0  0  0  0
  185.4580  178.8980  142.9750 C   0  0  0  0  0  2  0  0  0  0  0  0
  184.0310  178.4550  143.1700 C   0  0  0  0  0  0  0  0  0  0  0  0
  184.9560  179.0000  140.5210 C   0  0  2  0  0  3  0  0  0  0  0  0
  183.7160  178.1330  140.7190 C   0  0  0  0  0  2  0  0  0  0  0  0
  183.2310  178.1650  142.1410 C   0  0  0  0  0  3  0  0  0  0  0  0
  183.5140  178.4140  144.4570 O   0  0  0  0  0  1  0  0  0  0  0  0
  185.4570  178.7820  139.2370 O   0  0  0  0  0  1  0  0  0  0  0  0
  186.0000  178.6170  141.5700 C   0  0  1  0  0  3  0  0  0  0  0  0
  1  8  2  0  0  0  0
  2  9  1  0  0  0  0
  3 23  2  0  0  0  0
  4  5  1  0  0  0  0
  6 22  1  0  0  0  0
  6 17  2  0  0  0  0
  7 11  2  0  0  0  0
  8 19  1  0  0  0  0
  9 17  1  0  0  0  0
 10  4  1  0  0  0  0
 11 12  1  0  0  0  0
 12 21  1  0  0  0  0
 12 10  1  0  0  0  0
 13 24  1  0  0  0  0
 13 21  1  0  0  0  0
 14  1  1  0  0  0  0
 14 15  1  0  0  0  0
 15 19  2  0  0  0  0
 16  1  1  0  0  0  0
 17  7  1  0  0  0  0
 18 15  1  0  0  0  0
 18  6  1  0  0  0  0
 19  2  1  0  0  0  0
 20  5  1  0  0  0  0
 21 20  1  1  0  0  0
 22  3  1  0  0  0  0
 23 11  1  0  0  0  0
 23 13  1  0  0  0  0
 25 26  1  0  0  0  0
 26 30  1  0  0  0  0
 27 31  1  6  0  0  0
 27 28  1  0  0  0  0
 27 32  1  0  0  0  0
 28 29  1  0  0  0  0
 29 26  2  0  0  0  0
 32 24  1  6  0  0  0
 32 25  1  0  0  0  0
M  END
>  <MODEL>
1

>  <REMARK>
 VINA RESULT:      -8.3      0.000      0.000
  Name = 
  2 active torsions:
  status: ('A' for Active; 'I' for Inactive)
    1  A    between atoms: N_16  and  C_27
    2  A    between atoms: C_27  and  C_32
                            x       y       z     vdW  Elec       q    Type
                         _______ _______ _______ _____ _____    ______ ____

>  <TORSDO>
F 2

$$$$
=
 OpenBabel10272413243D

 32 37  0  0  1  0  0  0  0  0999 V2000
  183.5910  173.3350  136.8400 C   0  0  0  0  0  0  0  0  0  0  0  0
  187.1570  173.7710  137.3360 O   0  0  0  0  0  0  0  0  0  0  0  0
  186.3980  178.4820  138.6730 C   0  0  0  0  0  3  0  0  0  0  0  0
  190.5180  176.7920  142.6590 C   0  0  0  0  0  2  0  0  0  0  0  0
  189.1990  176.4550  143.3540 C   0  0  0  0  0  2  0  0  0  0  0  0
  186.9330  176.7890  136.9180 C   0  0  0  0  0  0  0  0  0  0  0  0
  188.7640  176.4640  138.6050 C   0  0  0  0  0  3  0  0  0  0  0  0
  184.8500  172.9620  137.2860 C   0  0  0  0  0  3  0  0  0  0  0  0
  188.1890  174.6700  136.9310 C   0  0  0  0  0  2  0  0  0  0  0  0
  190.3320  176.7340  141.1460 C   0  0  0  0  0  2  0  0  0  0  0  0
  188.4570  177.3830  139.5280 C   0  0  0  0  0  0  0  0  0  0  0  0
  189.1650  177.5220  140.7560 N   0  0  0  0  0  0  0  0  0  0  0  0
  187.0890  178.5610  141.0060 N   0  0  0  0  0  0  0  0  0  0  0  0
  183.6460  174.8300  136.0750 S   0  0  0  0  0  0  0  0  0  0  0  0
  185.2980  175.0430  136.3020 C   0  0  0  0  0  0  0  0  0  0  0  0
  182.4110  172.5580  137.0080 N   0  0  0  0  0  1  0  0  0  0  0  0
  187.9300  176.0500  137.4540 C   0  0  0  0  0  0  0  0  0  0  0  0
  186.0720  176.2300  135.8230 C   0  0  0  0  0  2  0  0  0  0  0  0
  185.8130  173.9290  136.9730 C   0  0  0  0  0  0  0  0  0  0  0  0
  188.0400  177.3870  142.9530 C   0  0  0  0  0  2  0  0  0  0  0  0
  188.3300  178.2510  141.7170 C   0  0  1  0  0  3  0  0  0  0  0  0
  186.7370  178.2350  137.2400 C   0  0  0  0  0  2  0  0  0  0  0  0
  187.2070  178.1060  139.6600 C   0  0  0  0  0  0  0  0  0  0  0  0
  186.0920  179.5120  141.4870 C   0  0  0  0  0  2  0  0  0  0  0  0
  185.0990  179.2660  143.7670 C   0  0  0  0  0  2  0  0  0  0  0  0
  183.8880  178.8970  144.5830 C   0  0  0  0  0  0  0  0  0  0  0  0
  183.6290  179.0960  141.7440 C   0  0  2  0  0  3  0  0  0  0  0  0
  182.5970  178.3010  142.5360 C   0  0  0  0  0  2  0  0  0  0  0  0
  182.7400  178.5150  144.0170 C   0  0  0  0  0  3  0  0  0  0  0  0
  183.9480  179.0240  145.9630 O   0  0  0  0  0  1  0  0  0  0  0  0
  183.5610  178.7130  140.4030 O   0  0  0  0  0  1  0  0  0  0  0  0
  185.0190  178.8040  142.3080 C   0  0  1  0  0  3  0  0  0  0  0  0
  1 16  1  0  0  0  0
  1  8  2  0  0  0  0
  3 23  2  0  0  0  0
  4  5  1  0  0  0  0
  6 22  1  0  0  0  0
  6 17  2  0  0  0  0
  7 11  2  0  0  0  0
  9  2  1  0  0  0  0
  9 17  1  0  0  0  0
 10  4  1  0  0  0  0
 11 23  1  0  0  0  0
 11 12  1  0  0  0  0
 12 10  1  0  0  0  0
 12 21  1  0  0  0  0
 13 24  1  0  0  0  0
 13 21  1  0  0  0  0
 14 15  1  0  0  0  0
 14  1  1  0  0  0  0
 15 19  2  0  0  0  0
 17  7  1  0  0  0  0
 18 15  1  0  0  0  0
 18  6  1  0  0  0  0
 19  8  1  0  0  0  0
 19  2  1  0  0  0  0
 20  5  1  0  0  0  0
 21 20  1  1  0  0  0
 22  3  1  0  0  0  0
 23 13  1  0  0  0  0
 25 26  1  0  0  0  0
 26 30  1  0  0  0  0
 27 31  1  6  0  0  0
 27 32  1  0  0  0  0
 27 28  1  0  0  0  0
 28 29  1  0  0  0  0
 29 26  2  0  0  0  0
 32 24  1  6  0  0  0
 32 25  1  0  0  0  0
M  END
>  <MODEL>
2

>  <REMARK>
 VINA RESULT:      -8.0      1.924      2.324
  Name = 
  2 active torsions:
  status: ('A' for Active; 'I' for Inactive)
    1  A    between atoms: N_16  and  C_27
    2  A    between atoms: C_27  and  C_32
                            x       y       z     vdW  Elec       q    Type
                         _______ _______ _______ _____ _____    ______ ____

>  <TORSDO>
F 2

$$$$
=
 OpenBabel10272413243D

 32 37  0  0  1  0  0  0  0  0999 V2000
  186.9030  173.0730  135.7160 C   0  0  0  0  0  0  0  0  0  0  0  0
  189.6720  174.2850  137.7210 O   0  0  0  0  0  0  0  0  0  0  0  0
  187.1880  178.4770  138.6220 C   0  0  0  0  0  3  0  0  0  0  0  0
  189.5460  177.3450  143.9960 C   0  0  0  0  0  2  0  0  0  0  0  0
  188.2010  176.6210  144.0430 C   0  0  0  0  0  2  0  0  0  0  0  0
  188.8410  177.1900  137.2660 C   0  0  0  0  0  0  0  0  0  0  0  0
  189.8100  177.1080  139.5810 C   0  0  0  0  0  3  0  0  0  0  0  0
  187.9090  172.9600  136.6640 C   0  0  0  0  0  3  0  0  0  0  0  0
  190.4950  175.4470  137.8120 C   0  0  0  0  0  2  0  0  0  0  0  0
  190.0340  177.4310  142.5530 C   0  0  0  0  0  2  0  0  0  0  0  0
  188.9100  177.8060  140.2830 C   0  0  0  0  0  0  0  0  0  0  0  0
  188.9730  177.9580  141.6980 N   0  0  0  0  0  0  0  0  0  0  0  0
  186.7880  178.4320  141.0220 N   0  0  0  0  0  0  0  0  0  0  0  0
  186.8700  174.6200  135.0610 S   0  0  0  0  0  0  0  0  0  0  0  0
  188.1510  175.1920  135.9870 C   0  0  0  0  0  0  0  0  0  0  0  0
  186.0190  172.0220  135.3470 N   0  0  0  0  0  1  0  0  0  0  0  0
  189.6800  176.6500  138.1790 C   0  0  0  0  0  0  0  0  0  0  0  0
  188.7030  176.5800  135.9010 C   0  0  0  0  0  2  0  0  0  0  0  0
  188.6160  174.1600  136.8090 C   0  0  0  0  0  0  0  0  0  0  0  0
  187.1130  177.2900  143.1820 C   0  0  0  0  0  2  0  0  0  0  0  0
  187.6500  178.3430  142.2030 C   0  0  1  0  0  3  0  0  0  0  0  0
  188.1470  178.4960  137.4790 C   0  0  0  0  0  2  0  0  0  0  0  0
  187.5770  178.1880  139.8610 C   0  0  0  0  0  0  0  0  0  0  0  0
  185.4670  179.0510  141.0270 C   0  0  0  0  0  2  0  0  0  0  0  0
  183.7470  177.3170  140.4950 C   0  0  0  0  0  2  0  0  0  0  0  0
  182.6150  176.8970  139.5960 C   0  0  0  0  0  0  0  0  0  0  0  0
  183.6770  179.5360  139.3330 C   0  0  2  0  0  3  0  0  0  0  0  0
  182.8840  178.9300  138.1800 C   0  0  0  0  0  2  0  0  0  0  0  0
  182.1910  177.6590  138.5840 C   0  0  0  0  0  3  0  0  0  0  0  0
  181.9460  175.7120  139.8720 O   0  0  0  0  0  1  0  0  0  0  0  0
  184.4360  180.6020  138.8460 O   0  0  0  0  0  1  0  0  0  0  0  0
  184.5900  178.4630  139.9260 C   0  0  1  0  0  3  0  0  0  0  0  0
  1  8  2  0  0  0  0
  2  9  1  0  0  0  0
  3 23  2  0  0  0  0
  4  5  1  0  0  0  0
  6 22  1  0  0  0  0
  6 17  2  0  0  0  0
  7 11  2  0  0  0  0
  8 19  1  0  0  0  0
  9 17  1  0  0  0  0
 10  4  1  0  0  0  0
 11 12  1  0  0  0  0
 12 21  1  0  0  0  0
 12 10  1  0  0  0  0
 13 24  1  0  0  0  0
 13 21  1  0  0  0  0
 14  1  1  0  0  0  0
 14 15  1  0  0  0  0
 15 19  2  0  0  0  0
 16  1  1  0  0  0  0
 17  7  1  0  0  0  0
 18 15  1  0  0  0  0
 18  6  1  0  0  0  0
 19  2  1  0  0  0  0
 20  5  1  0  0  0  0
 21 20  1  1  0  0  0
 22  3  1  0  0  0  0
 23 11  1  0  0  0  0
 23 13  1  0  0  0  0
 26 30  1  0  0  0  0
 26 25  1  0  0  0  0
 27 31  1  6  0  0  0
 27 32  1  0  0  0  0
 28 29  1  0  0  0  0
 28 27  1  0  0  0  0
 29 26  2  0  0  0  0
 32 25  1  0  0  0  0
 32 24  1  1  0  0  0
M  END
>  <MODEL>
3

>  <REMARK>
 VINA RESULT:      -7.7      1.542      2.016
  Name = 
  2 active torsions:
  status: ('A' for Active; 'I' for Inactive)
    1  A    between atoms: N_16  and  C_27
    2  A    between atoms: C_27  and  C_32
                            x       y       z     vdW  Elec       q    Type
                         _______ _______ _______ _____ _____    ______ ____

>  <TORSDO>
F 2

$$$$
=
 OpenBabel10272413243D

 32 37  0  0  1  0  0  0  0  0999 V2000
  182.0900  175.0830  138.4700 C   0  0  0  0  0  0  0  0  0  0  0  0
  184.8560  177.3280  137.7920 O   0  0  0  0  0  0  0  0  0  0  0  0
  185.4570  178.0620  142.6550 C   0  0  0  0  0  3  0  0  0  0  0  0
  191.1330  177.6150  140.8370 C   0  0  0  0  0  2  0  0  0  0  0  0
  190.7570  176.1720  141.1720 C   0  0  0  0  0  2  0  0  0  0  0  0
  184.4710  178.7490  140.4680 C   0  0  0  0  0  0  0  0  0  0  0  0
  186.9410  178.7890  140.0210 C   0  0  0  0  0  3  0  0  0  0  0  0
  183.2540  175.4810  137.8310 C   0  0  0  0  0  3  0  0  0  0  0  0
  185.2680  178.6490  138.1400 C   0  0  0  0  0  2  0  0  0  0  0  0
  189.8840  178.3910  140.4310 C   0  0  0  0  0  2  0  0  0  0  0  0
  187.4430  178.4220  141.2060 C   0  0  0  0  0  0  0  0  0  0  0  0
  188.8330  178.2000  141.4280 N   0  0  0  0  0  0  0  0  0  0  0  0
  187.6540  177.1280  143.1350 N   0  0  0  0  0  0  0  0  0  0  0  0
  181.5960  176.2380  139.5860 S   0  0  0  0  0  0  0  0  0  0  0  0
  182.8760  177.2840  139.2810 C   0  0  0  0  0  0  0  0  0  0  0  0
  181.4060  173.8620  138.2170 N   0  0  0  0  0  1  0  0  0  0  0  0
  185.5180  178.7590  139.6130 C   0  0  0  0  0  0  0  0  0  0  0  0
  183.0670  178.6060  139.9560 C   0  0  0  0  0  2  0  0  0  0  0  0
  183.6910  176.7300  138.2890 C   0  0  0  0  0  0  0  0  0  0  0  0
  189.7070  176.0560  142.2920 C   0  0  0  0  0  2  0  0  0  0  0  0
  189.0060  177.3790  142.6310 C   0  0  1  0  0  3  0  0  0  0  0  0
  184.6140  179.0530  141.9250 C   0  0  0  0  0  2  0  0  0  0  0  0
  186.7230  177.8300  142.3150 C   0  0  0  0  0  0  0  0  0  0  0  0
  187.3670  176.5890  144.4610 C   0  0  0  0  0  2  0  0  0  0  0  0
  186.4230  178.1460  146.1720 C   0  0  0  0  0  2  0  0  0  0  0  0
  186.6460  178.8860  147.4650 C   0  0  0  0  0  0  0  0  0  0  0  0
  188.5900  176.9680  146.6210 C   0  0  2  0  0  3  0  0  0  0  0  0
  188.9830  178.0380  147.6350 C   0  0  0  0  0  2  0  0  0  0  0  0
  187.7880  178.7880  148.1520 C   0  0  0  0  0  3  0  0  0  0  0  0
  185.6070  179.6390  147.9920 O   0  0  0  0  0  1  0  0  0  0  0  0
  189.7490  176.4400  146.0510 O   0  0  0  0  0  1  0  0  0  0  0  0
  187.7120  177.6060  145.5440 C   0  0  1  0  0  3  0  0  0  0  0  0
  1 14  1  0  0  0  0
  2  9  1  0  0  0  0
  2 19  1  0  0  0  0
  4  5  1  0  0  0  0
  5 20  1  0  0  0  0
  6 22  1  0  0  0  0
  7 11  2  0  0  0  0
  8 19  1  0  0  0  0
  8  1  2  0  0  0  0
  9 17  1  0  0  0  0
 10  4  1  0  0  0  0
 10 12  1  0  0  0  0
 11 12  1  0  0  0  0
 11 23  1  0  0  0  0
 12 21  1  0  0  0  0
 13 24  1  0  0  0  0
 15 14  1  0  0  0  0
 15 18  1  0  0  0  0
 16  1  1  0  0  0  0
 17  7  1  0  0  0  0
 17  6  2  0  0  0  0
 18  6  1  0  0  0  0
 19 15  2  0  0  0  0
 21 20  1  6  0  0  0
 21 13  1  0  0  0  0
 22  3  1  0  0  0  0
 23  3  2  0  0  0  0
 23 13  1  0  0  0  0
 25 26  1  0  0  0  0
 26 30  1  0  0  0  0
 26 29  2  0  0  0  0
 27 31  1  6  0  0  0
 27 28  1  0  0  0  0
 28 29  1  0  0  0  0
 32 24  1  6  0  0  0
 32 25  1  0  0  0  0
 32 27  1  0  0  0  0
M  END
>  <MODEL>
4

>  <REMARK>
 VINA RESULT:      -6.7      3.286      5.446
  Name = 
  2 active torsions:
  status: ('A' for Active; 'I' for Inactive)
    1  A    between atoms: N_16  and  C_27
    2  A    between atoms: C_27  and  C_32
                            x       y       z     vdW  Elec       q    Type
                         _______ _______ _______ _____ _____    ______ ____

>  <TORSDO>
F 2

$$$$
=
 OpenBabel10272413243D

 32 37  0  0  1  0  0  0  0  0999 V2000
  188.6920  173.0930  136.3320 C   0  0  0  0  0  0  0  0  0  0  0  0
  191.0090  175.5870  137.5850 O   0  0  0  0  0  0  0  0  0  0  0  0
  187.4660  177.4000  140.5370 C   0  0  0  0  0  3  0  0  0  0  0  0
  192.2040  177.5560  144.1770 C   0  0  0  0  0  2  0  0  0  0  0  0
  191.6110  176.1710  144.4320 C   0  0  0  0  0  2  0  0  0  0  0  0
  188.7160  177.4430  138.3780 C   0  0  0  0  0  0  0  0  0  0  0  0
  190.5170  177.8080  140.0900 C   0  0  0  0  0  3  0  0  0  0  0  0
  189.9150  173.5430  136.8070 C   0  0  0  0  0  3  0  0  0  0  0  0
  191.0610  177.0010  137.7640 C   0  0  0  0  0  2  0  0  0  0  0  0
  191.8640  178.0080  142.7600 C   0  0  0  0  0  2  0  0  0  0  0  0
  189.8210  177.7840  141.2330 C   0  0  0  0  0  0  0  0  0  0  0  0
  190.4310  177.8520  142.5180 N   0  0  0  0  0  0  0  0  0  0  0  0
  188.2850  176.9710  142.7890 N   0  0  0  0  0  0  0  0  0  0  0  0
  187.5820  174.3540  136.2520 S   0  0  0  0  0  0  0  0  0  0  0  0
  188.6480  175.5160  136.8350 C   0  0  0  0  0  0  0  0  0  0  0  0
  188.4130  171.7480  135.9630 N   0  0  0  0  0  1  0  0  0  0  0  0
  190.0190  177.4540  138.7410 C   0  0  0  0  0  0  0  0  0  0  0  0
  188.3070  176.9610  137.0160 C   0  0  0  0  0  2  0  0  0  0  0  0
  189.8860  174.9150  137.0840 C   0  0  0  0  0  0  0  0  0  0  0  0
  190.0840  176.1130  144.2390 C   0  0  0  0  0  2  0  0  0  0  0  0
  189.4970  177.3390  143.5260 C   0  0  1  0  0  3  0  0  0  0  0  0
  187.6400  178.0610  139.2110 C   0  0  0  0  0  2  0  0  0  0  0  0
  188.4600  177.3210  141.4190 C   0  0  0  0  0  0  0  0  0  0  0  0
  187.0050  176.6770  143.4260 C   0  0  0  0  0  2  0  0  0  0  0  0
  185.1380  178.3190  143.6730 C   0  0  0  0  0  2  0  0  0  0  0  0
  184.4040  179.2680  144.5840 C   0  0  0  0  0  0  0  0  0  0  0  0
  186.3910  177.5450  145.7010 C   0  0  2  0  0  3  0  0  0  0  0  0
  185.9730  178.7980  146.4630 C   0  0  0  0  0  2  0  0  0  0  0  0
  184.7530  179.4380  145.8620 C   0  0  0  0  0  3  0  0  0  0  0  0
  183.2890  179.9350  144.0960 O   0  0  0  0  0  1  0  0  0  0  0  0
  187.6230  177.1090  146.1920 O   0  0  0  0  0  1  0  0  0  0  0  0
  186.5030  177.8820  144.2140 C   0  0  1  0  0  3  0  0  0  0  0  0
  1  8  2  0  0  0  0
  2  9  1  0  0  0  0
  3 23  2  0  0  0  0
  4  5  1  0  0  0  0
  6 17  2  0  0  0  0
  6 22  1  0  0  0  0
  7 11  2  0  0  0  0
  8 19  1  0  0  0  0
  9 17  1  0  0  0  0
 10  4  1  0  0  0  0
 11 23  1  0  0  0  0
 11 12  1  0  0  0  0
 12 10  1  0  0  0  0
 12 21  1  0  0  0  0
 13 24  1  0  0  0  0
 13 21  1  0  0  0  0
 14  1  1  0  0  0  0
 14 15  1  0  0  0  0
 15 18  1  0  0  0  0
 15 19  2  0  0  0  0
 16  1  1  0  0  0  0
 17  7  1  0  0  0  0
 18  6  1  0  0  0  0
 19  2  1  0  0  0  0
 20  5  1  0  0  0  0
 21 20  1  6  0  0  0
 22  3  1  0  0  0  0
 23 13  1  0  0  0  0
 25 32  1  0  0  0  0
 25 26  1  0  0  0  0
 26 29  2  0  0  0  0
 27 31  1  1  0  0  0
 27 28  1  0  0  0  0
 29 28  1  0  0  0  0
 30 26  1  0  0  0  0
 32 24  1  6  0  0  0
 32 27  1  0  0  0  0
M  END
>  <MODEL>
5

>  <REMARK>
 VINA RESULT:      -6.6      1.892      2.755
  Name = 
  2 active torsions:
  status: ('A' for Active; 'I' for Inactive)
    1  A    between atoms: N_16  and  C_27
    2  A    between atoms: C_27  and  C_32
                            x       y       z     vdW  Elec       q    Type
                         _______ _______ _______ _____ _____    ______ ____

>  <TORSDO>
F 2

$$$$
=
 OpenBabel10272413243D

 32 37  0  0  1  0  0  0  0  0999 V2000
  187.5270  174.4360  136.6610 C   0  0  0  0  0  0  0  0  0  0  0  0
  189.6260  177.0940  137.9600 O   0  0  0  0  0  0  0  0  0  0  0  0
  186.4940  177.7190  141.7480 C   0  0  0  0  0  3  0  0  0  0  0  0
  191.7710  178.1940  144.5130 C   0  0  0  0  0  2  0  0  0  0  0  0
  191.4640  176.6990  144.5970 C   0  0  0  0  0  2  0  0  0  0  0  0
  187.2720  178.3360  139.4590 C   0  0  0  0  0  0  0  0  0  0  0  0
  189.2940  178.7600  140.8850 C   0  0  0  0  0  3  0  0  0  0  0  0
  188.7330  175.0280  137.0020 C   0  0  0  0  0  3  0  0  0  0  0  0
  189.4890  178.4460  138.3910 C   0  0  0  0  0  2  0  0  0  0  0  0
  191.0920  178.7900  143.2840 C   0  0  0  0  0  2  0  0  0  0  0  0
  188.8490  178.4270  142.1030 C   0  0  0  0  0  0  0  0  0  0  0  0
  189.6820  178.4060  143.2580 N   0  0  0  0  0  0  0  0  0  0  0  0
  187.7960  177.1050  143.7110 N   0  0  0  0  0  0  0  0  0  0  0  0
  186.2400  175.4610  137.0060 S   0  0  0  0  0  0  0  0  0  0  0  0
  187.2040  176.6970  137.6120 C   0  0  0  0  0  0  0  0  0  0  0  0
  187.3940  173.1370  136.0950 N   0  0  0  0  0  1  0  0  0  0  0  0
  188.6020  178.5350  139.5960 C   0  0  0  0  0  0  0  0  0  0  0  0
  186.6830  178.0050  138.1180 C   0  0  0  0  0  2  0  0  0  0  0  0
  188.5460  176.3090  137.5340 C   0  0  0  0  0  0  0  0  0  0  0  0
  189.9570  176.3850  144.6530 C   0  0  0  0  0  2  0  0  0  0  0  0
  189.0560  177.5740  144.2920 C   0  0  1  0  0  3  0  0  0  0  0  0
  186.2970  178.6010  140.5600 C   0  0  0  0  0  2  0  0  0  0  0  0
  187.6410  177.6920  142.4210 C   0  0  0  0  0  0  0  0  0  0  0  0
  186.7290  176.4790  144.4840 C   0  0  0  0  0  2  0  0  0  0  0  0
  187.7040  177.2340  146.6570 C   0  0  0  0  0  2  0  0  0  0  0  0
  187.6670  178.2430  147.7740 C   0  0  0  0  0  0  0  0  0  0  0  0
  186.0760  178.7040  145.4450 C   0  0  2  0  0  3  0  0  0  0  0  0
  185.7280  179.4230  146.7450 C   0  0  0  0  0  2  0  0  0  0  0  0
  186.8070  179.2660  147.7790 C   0  0  0  0  0  3  0  0  0  0  0  0
  188.6020  178.1460  148.7940 O   0  0  0  0  0  1  0  0  0  0  0  0
  184.9640  178.7350  144.6020 O   0  0  0  0  0  1  0  0  0  0  0  0
  186.4580  177.2600  145.7660 C   0  0  1  0  0  3  0  0  0  0  0  0
  1  8  2  0  0  0  0
  1 14  1  0  0  0  0
  2  9  1  0  0  0  0
  3 23  2  0  0  0  0
  4  5  1  0  0  0  0
  5 20  1  0  0  0  0
  6 17  2  0  0  0  0
  6 22  1  0  0  0  0
  7 11  2  0  0  0  0
  8 19  1  0  0  0  0
  9 17  1  0  0  0  0
 10  4  1  0  0  0  0
 11 23  1  0  0  0  0
 11 12  1  0  0  0  0
 12 10  1  0  0  0  0
 12 21  1  0  0  0  0
 13 21  1  0  0  0  0
 13 24  1  0  0  0  0
 14 15  1  0  0  0  0
 15 18  1  0  0  0  0
 16  1  1  0  0  0  0
 17  7  1  0  0  0  0
 18  6  1  0  0  0  0
 19 15  2  0  0  0  0
 19  2  1  0  0  0  0
 21 20  1  6  0  0  0
 22  3  1  0  0  0  0
 23 13  1  0  0  0  0
 25 26  1  0  0  0  0
 26 29  2  0  0  0  0
 26 30  1  0  0  0  0
 27 31  1  6  0  0  0
 27 32  1  0  0  0  0
 27 28  1  0  0  0  0
 28 29  1  0  0  0  0
 32 24  1  6  0  0  0
 32 25  1  0  0  0  0
M  END
>  <MODEL>
6

>  <REMARK>
 VINA RESULT:      -6.3      2.536      3.805
  Name = 
  2 active torsions:
  status: ('A' for Active; 'I' for Inactive)
    1  A    between atoms: N_16  and  C_27
    2  A    between atoms: C_27  and  C_32
                            x       y       z     vdW  Elec       q    Type
                         _______ _______ _______ _____ _____    ______ ____

>  <TORSDO>
F 2

$$$$
=
 OpenBabel10272413243D

 32 37  0  0  1  0  0  0  0  0999 V2000
  189.2380  177.8230  142.1650 C   0  0  0  0  0  0  0  0  0  0  0  0
  188.5140  179.0620  138.8340 O   0  0  0  0  0  0  0  0  0  0  0  0
  188.1780  174.4070  137.1710 C   0  0  0  0  0  3  0  0  0  0  0  0
  183.5850  176.9840  134.3460 C   0  0  0  0  0  2  0  0  0  0  0  0
  182.9620  176.4890  135.6500 C   0  0  0  0  0  2  0  0  0  0  0  0
  189.5200  176.4750  137.5590 C   0  0  0  0  0  0  0  0  0  0  0  0
  187.6430  177.2750  136.0960 C   0  0  0  0  0  3  0  0  0  0  0  0
  188.6170  178.6510  141.2420 C   0  0  0  0  0  3  0  0  0  0  0  0
  188.9890  178.8790  137.5010 C   0  0  0  0  0  2  0  0  0  0  0  0
  185.0700  177.2640  134.5590 C   0  0  0  0  0  2  0  0  0  0  0  0
  186.9450  176.1500  135.9010 C   0  0  0  0  0  0  0  0  0  0  0  0
  185.7070  176.1140  135.1970 N   0  0  0  0  0  0  0  0  0  0  0  0
  185.8510  174.1780  136.4960 N   0  0  0  0  0  0  0  0  0  0  0  0
  190.2670  176.7390  141.3960 S   0  0  0  0  0  0  0  0  0  0  0  0
  189.9370  177.3040  139.8480 C   0  0  0  0  0  0  0  0  0  0  0  0
  189.0320  177.8810  143.5710 N   0  0  0  0  0  1  0  0  0  0  0  0
  188.7650  177.4700  137.0430 C   0  0  0  0  0  0  0  0  0  0  0  0
  190.5620  176.7670  138.6000 C   0  0  0  0  0  2  0  0  0  0  0  0
  189.0210  178.3580  139.9340 C   0  0  0  0  0  0  0  0  0  0  0  0
  183.6370  175.2240  136.2110 C   0  0  0  0  0  2  0  0  0  0  0  0
  184.9830  174.8890  135.5540 C   0  0  1  0  0  3  0  0  0  0  0  0
  189.5000  175.0820  137.0190 C   0  0  0  0  0  2  0  0  0  0  0  0
  187.0680  174.9070  136.6350 C   0  0  0  0  0  0  0  0  0  0  0  0
  185.6530  172.7880  136.8920 C   0  0  0  0  0  2  0  0  0  0  0  0
  187.2830  171.1980  135.8630 C   0  0  0  0  0  2  0  0  0  0  0  0
  187.4900  170.0130  134.9560 C   0  0  0  0  0  0  0  0  0  0  0  0
  184.8220  170.7700  135.6500 C   0  0  2  0  0  3  0  0  0  0  0  0
  185.0590  169.9090  134.4130 C   0  0  0  0  0  2  0  0  0  0  0  0
  186.4720  169.3980  134.3480 C   0  0  0  0  0  3  0  0  0  0  0  0
  188.7710  169.5030  134.8040 O   0  0  0  0  0  1  0  0  0  0  0  0
  183.5590  171.3560  135.5550 O   0  0  0  0  0  1  0  0  0  0  0  0
  185.9030  171.8480  135.7170 C   0  0  1  0  0  3  0  0  0  0  0  0
  1 16  1  0  0  0  0
  2 19  1  0  0  0  0
  4 10  1  0  0  0  0
  4  5  1  0  0  0  0
  5 20  1  0  0  0  0
  6 18  1  0  0  0  0
  7 17  1  0  0  0  0
  8  1  2  0  0  0  0
  9  2  1  0  0  0  0
 10 12  1  0  0  0  0
 11  7  2  0  0  0  0
 11 23  1  0  0  0  0
 12 21  1  0  0  0  0
 12 11  1  0  0  0  0
 13 23  1  0  0  0  0
 13 24  1  0  0  0  0
 14  1  1  0  0  0  0
 15 19  2  0  0  0  0
 15 14  1  0  0  0  0
 17  9  1  0  0  0  0
 17  6  2  0  0  0  0
 18 15  1  0  0  0  0
 19  8  1  0  0  0  0
 21 20  1  1  0  0  0
 21 13  1  0  0  0  0
 22  3  1  0  0  0  0
 22  6  1  0  0  0  0
 23  3  2  0  0  0  0
 26 25  1  0  0  0  0
 27 31  1  6  0  0  0
 27 32  1  0  0  0  0
 28 27  1  0  0  0  0
 29 28  1  0  0  0  0
 29 26  2  0  0  0  0
 30 26  1  0  0  0  0
 32 25  1  0  0  0  0
 32 24  1  1  0  0  0
M  END
>  <MODEL>
7

>  <REMARK>
 VINA RESULT:      -6.2      3.266      8.233
  Name = 
  2 active torsions:
  status: ('A' for Active; 'I' for Inactive)
    1  A    between atoms: N_16  and  C_27
    2  A    between atoms: C_27  and  C_32
                            x       y       z     vdW  Elec       q    Type
                         _______ _______ _______ _____ _____    ______ ____

>  <TORSDO>
F 2

$$$$
=
 OpenBabel10272413243D

 32 37  0  0  1  0  0  0  0  0999 V2000
  181.7160  175.4970  138.3160 C   0  0  0  0  0  0  0  0  0  0  0  0
  183.7480  174.0830  135.6640 O   0  0  0  0  0  0  0  0  0  0  0  0
  186.9180  177.8700  136.0710 C   0  0  0  0  0  3  0  0  0  0  0  0
  190.6780  173.2730  135.3940 C   0  0  0  0  0  2  0  0  0  0  0  0
  190.4940  173.3560  136.9090 C   0  0  0  0  0  2  0  0  0  0  0  0
  184.9270  176.8200  134.9920 C   0  0  0  0  0  0  0  0  0  0  0  0
  186.7580  175.1580  134.5560 C   0  0  0  0  0  3  0  0  0  0  0  0
  182.3600  174.4710  137.6410 C   0  0  0  0  0  3  0  0  0  0  0  0
  184.3290  174.4970  134.4290 C   0  0  0  0  0  2  0  0  0  0  0  0
  189.4370  173.8190  134.6940 C   0  0  0  0  0  2  0  0  0  0  0  0
  187.8100  175.7460  135.1390 C   0  0  0  0  0  0  0  0  0  0  0  0
  189.0890  175.1270  135.2440 N   0  0  0  0  0  0  0  0  0  0  0  0
  188.9890  176.8390  136.8300 N   0  0  0  0  0  0  0  0  0  0  0  0
  181.9480  176.9660  137.5320 S   0  0  0  0  0  0  0  0  0  0  0  0
  182.8930  176.3210  136.3010 C   0  0  0  0  0  0  0  0  0  0  0  0
  180.9610  175.3300  139.5100 N   0  0  0  0  0  1  0  0  0  0  0  0
  185.3420  175.5790  134.6520 C   0  0  0  0  0  0  0  0  0  0  0  0
  183.4660  177.1150  135.1700 C   0  0  0  0  0  2  0  0  0  0  0  0
  183.0190  174.9420  136.4980 C   0  0  0  0  0  0  0  0  0  0  0  0
  190.2170  174.7840  137.4160 C   0  0  0  0  0  2  0  0  0  0  0  0
  189.8590  175.7830  136.3070 C   0  0  1  0  0  3  0  0  0  0  0  0
  185.8490  177.9950  135.0380 C   0  0  0  0  0  2  0  0  0  0  0  0
  187.7870  176.8620  136.0630 C   0  0  0  0  0  0  0  0  0  0  0  0
  189.4490  177.9120  137.7040 C   0  0  0  0  0  2  0  0  0  0  0  0
  190.7940  177.4530  139.7600 C   0  0  0  0  0  2  0  0  0  0  0  0
  190.8150  177.3800  141.2640 C   0  0  0  0  0  0  0  0  0  0  0  0
  188.5020  178.4460  139.9670 C   0  0  2  0  0  3  0  0  0  0  0  0
  188.3890  177.9350  141.4010 C   0  0  0  0  0  2  0  0  0  0  0  0
  189.7370  177.6550  142.0030 C   0  0  0  0  0  3  0  0  0  0  0  0
  192.0110  177.0840  141.9020 O   0  0  0  0  0  1  0  0  0  0  0  0
  187.2240  178.5100  139.4100 O   0  0  0  0  0  1  0  0  0  0  0  0
  189.3820  177.4860  139.1670 C   0  0  1  0  0  3  0  0  0  0  0  0
  1 16  1  0  0  0  0
  2 19  1  0  0  0  0
  4  5  1  0  0  0  0
  5 20  1  0  0  0  0
  6 22  1  0  0  0  0
  6 18  1  0  0  0  0
  7 17  1  0  0  0  0
  7 11  2  0  0  0  0
  8  1  2  0  0  0  0
  9 17  1  0  0  0  0
  9  2  1  0  0  0  0
 10 12  1  0  0  0  0
 10  4  1  0  0  0  0
 11 12  1  0  0  0  0
 11 23  1  0  0  0  0
 12 21  1  0  0  0  0
 13 24  1  0  0  0  0
 14  1  1  0  0  0  0
 15 19  2  0  0  0  0
 15 14  1  0  0  0  0
 17  6  2  0  0  0  0
 18 15  1  0  0  0  0
 19  8  1  0  0  0  0
 21 13  1  0  0  0  0
 21 20  1  1  0  0  0
 22  3  1  0  0  0  0
 23  3  2  0  0  0  0
 23 13  1  0  0  0  0
 25 26  1  0  0  0  0
 26 30  1  0  0  0  0
 26 29  2  0  0  0  0
 27 31  1  6  0  0  0
 27 28  1  0  0  0  0
 28 29  1  0  0  0  0
 32 24  1  6  0  0  0
 32 25  1  0  0  0  0
 32 27  1  0  0  0  0
M  END
>  <MODEL>
8

>  <REMARK>
 VINA RESULT:      -6.0      3.515      6.184
  Name = 
  2 active torsions:
  status: ('A' for Active; 'I' for Inactive)
    1  A    between atoms: N_16  and  C_27
    2  A    between atoms: C_27  and  C_32
                            x       y       z     vdW  Elec       q    Type
                         _______ _______ _______ _____ _____    ______ ____

>  <TORSDO>
F 2

$$$$
=
 OpenBabel10272413243D

 32 37  0  0  1  0  0  0  0  0999 V2000
  180.5800  174.8670  140.0290 C   0  0  0  0  0  0  0  0  0  0  0  0
  182.6440  175.5090  137.1160 O   0  0  0  0  0  0  0  0  0  0  0  0
  184.9300  179.1760  139.5410 C   0  0  0  0  0  3  0  0  0  0  0  0
  189.5360  176.5710  136.7610 C   0  0  0  0  0  2  0  0  0  0  0  0
  189.4650  175.8280  138.0940 C   0  0  0  0  0  2  0  0  0  0  0  0
  183.1350  178.3940  137.9940 C   0  0  0  0  0  0  0  0  0  0  0  0
  185.2430  177.6580  136.8450 C   0  0  0  0  0  3  0  0  0  0  0  0
  181.3740  174.5080  138.9510 C   0  0  0  0  0  3  0  0  0  0  0  0
  183.0140  176.6140  136.2950 C   0  0  0  0  0  2  0  0  0  0  0  0
  188.1510  177.0930  136.3890 C   0  0  0  0  0  2  0  0  0  0  0  0
  186.1850  178.0920  137.6900 C   0  0  0  0  0  0  0  0  0  0  0  0
  187.5720  177.8200  137.5160 N   0  0  0  0  0  0  0  0  0  0  0  0
  187.2320  178.4120  139.7500 N   0  0  0  0  0  0  0  0  0  0  0  0
  180.4180  176.5380  140.1210 S   0  0  0  0  0  0  0  0  0  0  0  0
  181.3750  176.8460  138.7740 C   0  0  0  0  0  0  0  0  0  0  0  0
  179.9820  173.9480  140.9360 N   0  0  0  0  0  1  0  0  0  0  0  0
  183.7820  177.6320  137.0830 C   0  0  0  0  0  0  0  0  0  0  0  0
  181.6650  178.2110  138.2370 C   0  0  0  0  0  2  0  0  0  0  0  0
  181.8170  175.6300  138.2410 C   0  0  0  0  0  0  0  0  0  0  0  0
  188.9250  176.6910  139.2500 C   0  0  0  0  0  2  0  0  0  0  0  0
  188.2660  178.0020  138.7960 C   0  0  1  0  0  3  0  0  0  0  0  0
  183.7770  179.5590  138.6750 C   0  0  0  0  0  2  0  0  0  0  0  0
  185.9960  178.5440  139.0540 C   0  0  0  0  0  0  0  0  0  0  0  0
  187.5180  178.9650  141.0700 C   0  0  0  0  0  2  0  0  0  0  0  0
  189.3010  177.8780  142.4430 C   0  0  0  0  0  2  0  0  0  0  0  0
  189.6300  177.0570  143.6620 C   0  0  0  0  0  0  0  0  0  0  0  0
  186.9590  178.0150  143.3260 C   0  0  2  0  0  3  0  0  0  0  0  0
  187.2210  176.8370  144.2600 C   0  0  0  0  0  2  0  0  0  0  0  0
  188.6890  176.6380  144.5120 C   0  0  0  0  0  3  0  0  0  0  0  0
  190.9620  176.7890  143.9470 O   0  0  0  0  0  1  0  0  0  0  0  0
  185.6040  178.0310  142.9900 O   0  0  0  0  0  1  0  0  0  0  0  0
  187.8150  177.8520  142.0700 C   0  0  1  0  0  3  0  0  0  0  0  0
  1 14  1  0  0  0  0
  1 16  1  0  0  0  0
  2 19  1  0  0  0  0
  4  5  1  0  0  0  0
  5 20  1  0  0  0  0
  6 18  1  0  0  0  0
  6 22  1  0  0  0  0
  7 17  1  0  0  0  0
  7 11  2  0  0  0  0
  8  1  2  0  0  0  0
  9 17  1  0  0  0  0
  9  2  1  0  0  0  0
 10  4  1  0  0  0  0
 10 12  1  0  0  0  0
 11 23  1  0  0  0  0
 12 11  1  0  0  0  0
 12 21  1  0  0  0  0
 13 24  1  0  0  0  0
 15 14  1  0  0  0  0
 17  6  2  0  0  0  0
 18 15  1  0  0  0  0
 19 15  2  0  0  0  0
 19  8  1  0  0  0  0
 21 20  1  1  0  0  0
 21 13  1  0  0  0  0
 22  3  1  0  0  0  0
 23  3  2  0  0  0  0
 23 13  1  0  0  0  0
 25 26  1  0  0  0  0
 26 30  1  0  0  0  0
 26 29  2  0  0  0  0
 27 31  1  6  0  0  0
 27 28  1  0  0  0  0
 28 29  1  0  0  0  0
 32 24  1  6  0  0  0
 32 25  1  0  0  0  0
 32 27  1  0  0  0  0
M  END
>  <MODEL>
9

>  <REMARK>
 VINA RESULT:      -5.9      3.552      6.063
  Name = 
  2 active torsions:
  status: ('A' for Active; 'I' for Inactive)
    1  A    between atoms: N_16  and  C_27
    2  A    between atoms: C_27  and  C_32
                            x       y       z     vdW  Elec       q    Type
                         _______ _______ _______ _____ _____    ______ ____

>  <TORSDO>
F 2

$$$$
