=
 OpenBabel10272400183D

 31 35  0  0  1  0  0  0  0  0999 V2000
  189.0170  176.4460  138.5240 C   0  0  2  0  0  3  0  0  0  0  0  0
  190.5150  176.0990  138.7330 C   0  0  2  0  0  3  0  0  0  0  0  0
  192.8480  177.0370  138.6640 C   0  0  0  0  0  2  0  0  0  0  0  0
  191.3630  177.3460  138.4870 C   0  0  0  0  0  2  0  0  0  0  0  0
  190.3150  173.9150  137.7100 O   0  0  0  0  0  0  0  0  0  0  0  0
  193.2750  175.9000  137.7780 C   0  0  0  0  0  0  0  0  0  0  0  0
  194.5830  175.8540  137.3150 O   0  0  0  0  0  1  0  0  0  0  0  0
  191.0390  174.9220  137.9320 C   0  0  0  0  0  0  0  0  0  0  0  0
  192.4360  174.9100  137.4700 C   0  0  0  0  0  3  0  0  0  0  0  0
  186.2450  176.5200  136.6310 C   0  0  0  0  0  2  0  0  0  0  0  0
  188.4820  176.0820  137.1990 N   0  0  0  0  0  0  0  0  0  0  0  0
  187.0450  177.3230  135.8140 O   0  0  0  0  0  0  0  0  0  0  0  0
  187.1480  175.5260  137.3000 C   0  0  0  0  0  2  0  0  0  0  0  0
  188.3290  177.2870  136.3870 C   0  0  2  0  0  3  0  0  0  0  0  0
  189.3730  175.9780  134.5470 C   0  0  0  0  0  1  0  0  0  0  0  0
  189.3780  177.2990  135.2900 C   0  0  0  0  0  2  0  0  0  0  0  0
  187.9070  177.9220  140.2450 C   0  0  2  0  0  0  0  0  0  0  0  0
  187.0860  179.0470  140.2790 O   0  0  0  0  0  1  0  0  0  0  0  0
  188.6240  177.8740  138.9130 C   0  0  1  0  0  3  0  0  0  0  0  0
  188.8130  177.9300  141.4730 C   0  0  2  0  0  3  0  0  0  0  0  0
  189.3790  178.3650  140.1270 C   0  0  2  0  0  3  0  0  0  0  0  0
  188.4300  176.0540  142.9830 C   0  0  0  0  0  1  0  0  0  0  0  0
  189.2840  176.5990  141.9380 N   0  0  0  0  0  0  0  0  0  0  0  0
  190.6770  176.5280  142.3710 C   0  0  0  0  0  2  0  0  0  0  0  0
  191.7180  176.0830  145.9860 C   0  0  0  0  0  0  0  0  0  0  0  0
  190.0690  177.8530  145.8680 C   0  0  0  0  0  3  0  0  0  0  0  0
  192.5550  175.3060  146.7130 F   0  0  0  0  0  0  0  0  0  0  0  0
  191.6340  175.9140  144.6000 C   0  0  0  0  0  3  0  0  0  0  0  0
  189.9860  177.6850  144.4820 C   0  0  0  0  0  3  0  0  0  0  0  0
  190.7710  176.7160  143.8470 C   0  0  0  0  0  0  0  0  0  0  0  0
  190.9340  177.0530  146.6190 C   0  0  0  0  0  3  0  0  0  0  0  0
  1 11  1  6  0  0  0
  2  1  1  6  0  0  0
  4  3  1  0  0  0  0
  4  2  1  0  0  0  0
  5  8  2  0  0  0  0
  6  3  1  0  0  0  0
  7  6  1  0  0  0  0
  8  2  1  0  0  0  0
  9  6  2  0  0  0  0
  9  8  1  0  0  0  0
 10 13  1  0  0  0  0
 11 13  1  0  0  0  0
 12 14  1  0  0  0  0
 12 10  1  0  0  0  0
 14 16  1  6  0  0  0
 14 11  1  0  0  0  0
 15 16  1  0  0  0  0
 17 18  1  1  0  0  0
 17 20  1  0  0  0  0
 19  1  1  1  0  0  0
 19 21  1  0  0  0  0
 19 17  1  0  0  0  0
 20 23  1  6  0  0  0
 21 17  1  0  0  0  0
 21 20  1  0  0  0  0
 23 24  1  0  0  0  0
 23 22  1  0  0  0  0
 24 30  1  0  0  0  0
 25 31  1  0  0  0  0
 25 27  1  0  0  0  0
 26 31  2  0  0  0  0
 28 25  2  0  0  0  0
 29 26  1  0  0  0  0
 30 29  2  0  0  0  0
 30 28  1  0  0  0  0
M  END
>  <MODEL>
1

>  <REMARK>
 VINA RESULT:      -6.8      0.000      0.000
  Name = 
  7 active torsions:
  status: ('A' for Active; 'I' for Inactive)
    1  A    between atoms: C_3  and  N_9
    2  A    between atoms: C_3  and  C_22
    3  A    between atoms: C_4  and  C_5
    4  A    between atoms: C_4  and  N_12
    5  A    between atoms: C_4  and  C_21
    6  A    between atoms: N_9  and  C_23
    7  A    between atoms: C_27  and  C_28
                            x       y       z     vdW  Elec       q    Type
                         _______ _______ _______ _____ _____    ______ ____

>  <TORSDO>
F 7

$$$$
=
 OpenBabel10272400183D

 31 35  0  0  1  0  0  0  0  0999 V2000
  189.1020  175.8180  137.1170 C   0  0  2  0  0  3  0  0  0  0  0  0
  190.3910  175.1430  136.5770 C   0  0  2  0  0  3  0  0  0  0  0  0
  192.6520  174.2590  137.2370 C   0  0  0  0  0  2  0  0  0  0  0  0
  191.3610  174.9050  137.7340 C   0  0  0  0  0  2  0  0  0  0  0  0
  190.4160  176.4530  134.5430 O   0  0  0  0  0  0  0  0  0  0  0  0
  193.2860  175.0800  136.1490 C   0  0  0  0  0  0  0  0  0  0  0  0
  194.6660  175.0530  135.9950 O   0  0  0  0  0  1  0  0  0  0  0  0
  191.0810  175.8580  135.4310 C   0  0  0  0  0  0  0  0  0  0  0  0
  192.5450  175.7940  135.3000 C   0  0  0  0  0  3  0  0  0  0  0  0
  187.2800  174.9020  134.4500 C   0  0  0  0  0  2  0  0  0  0  0  0
  187.8480  175.1560  136.7160 N   0  0  0  0  0  0  0  0  0  0  0  0
  187.5010  173.6230  134.9680 O   0  0  0  0  0  0  0  0  0  0  0  0
  187.2110  175.8480  135.6140 C   0  0  0  0  0  2  0  0  0  0  0  0
  188.1440  173.8200  136.2040 C   0  0  2  0  0  3  0  0  0  0  0  0
  186.1640  172.8570  137.3630 C   0  0  0  0  0  1  0  0  0  0  0  0
  187.6680  172.7760  137.1980 C   0  0  0  0  0  2  0  0  0  0  0  0
  188.2300  178.0190  137.9920 C   0  0  2  0  0  0  0  0  0  0  0  0
  187.7000  179.2050  137.4880 O   0  0  0  0  0  1  0  0  0  0  0  0
  189.0280  177.3330  136.9050 C   0  0  1  0  0  3  0  0  0  0  0  0
  189.0010  178.3240  139.2730 C   0  0  2  0  0  3  0  0  0  0  0  0
  189.7700  178.0980  137.9770 C   0  0  2  0  0  3  0  0  0  0  0  0
  188.3860  177.5020  141.4850 C   0  0  0  0  0  1  0  0  0  0  0  0
  189.1000  177.2080  140.2500 N   0  0  0  0  0  0  0  0  0  0  0  0
  190.4500  176.7570  140.5730 C   0  0  0  0  0  2  0  0  0  0  0  0
  191.5680  178.3620  143.8170 C   0  0  0  0  0  0  0  0  0  0  0  0
  190.7280  176.1420  144.3010 C   0  0  0  0  0  3  0  0  0  0  0  0
  192.1090  179.5290  144.2390 F   0  0  0  0  0  0  0  0  0  0  0  0
  191.2940  178.1680  142.4600 C   0  0  0  0  0  3  0  0  0  0  0  0
  190.4530  175.9500  142.9430 C   0  0  0  0  0  3  0  0  0  0  0  0
  190.7340  176.9640  142.0210 C   0  0  0  0  0  0  0  0  0  0  0  0
  191.2850  177.3470  144.7370 C   0  0  0  0  0  3  0  0  0  0  0  0
  1 11  1  6  0  0  0
  2  1  1  1  0  0  0
  2  4  1  0  0  0  0
  3  4  1  0  0  0  0
  5  8  2  0  0  0  0
  6  3  1  0  0  0  0
  7  6  1  0  0  0  0
  8  2  1  0  0  0  0
  9  8  1  0  0  0  0
  9  6  2  0  0  0  0
 10 12  1  0  0  0  0
 10 13  1  0  0  0  0
 12 14  1  0  0  0  0
 13 11  1  0  0  0  0
 14 11  1  0  0  0  0
 14 16  1  1  0  0  0
 16 15  1  0  0  0  0
 17 18  1  6  0  0  0
 17 20  1  0  0  0  0
 19  1  1  1  0  0  0
 19 21  1  0  0  0  0
 19 17  1  0  0  0  0
 20 23  1  1  0  0  0
 21 17  1  0  0  0  0
 21 20  1  0  0  0  0
 23 24  1  0  0  0  0
 23 22  1  0  0  0  0
 24 30  1  0  0  0  0
 25 27  1  0  0  0  0
 25 31  1  0  0  0  0
 26 31  2  0  0  0  0
 28 25  2  0  0  0  0
 29 26  1  0  0  0  0
 30 28  1  0  0  0  0
 30 29  2  0  0  0  0
M  END
>  <MODEL>
2

>  <REMARK>
 VINA RESULT:      -6.7      2.049      2.867
  Name = 
  7 active torsions:
  status: ('A' for Active; 'I' for Inactive)
    1  A    between atoms: C_3  and  N_9
    2  A    between atoms: C_3  and  C_22
    3  A    between atoms: C_4  and  C_5
    4  A    between atoms: C_4  and  N_12
    5  A    between atoms: C_4  and  C_21
    6  A    between atoms: N_9  and  C_23
    7  A    between atoms: C_27  and  C_28
                            x       y       z     vdW  Elec       q    Type
                         _______ _______ _______ _____ _____    ______ ____

>  <TORSDO>
F 7

$$$$
=
 OpenBabel10272400183D

 31 35  0  0  1  0  0  0  0  0999 V2000
  189.5100  177.0260  138.2370 C   0  0  2  0  0  3  0  0  0  0  0  0
  189.5840  177.7360  139.6150 C   0  0  2  0  0  3  0  0  0  0  0  0
  190.4850  177.5410  141.9560 C   0  0  0  0  0  2  0  0  0  0  0  0
  190.4060  176.8830  140.5800 C   0  0  0  0  0  2  0  0  0  0  0  0
  187.2960  178.5150  139.5160 O   0  0  0  0  0  0  0  0  0  0  0  0
  189.1130  177.8210  142.5030 C   0  0  0  0  0  0  0  0  0  0  0  0
  188.9170  177.8200  143.8770 O   0  0  0  0  0  1  0  0  0  0  0  0
  188.2540  178.1220  140.2330 C   0  0  0  0  0  0  0  0  0  0  0  0
  188.0930  178.1180  141.6950 C   0  0  0  0  0  3  0  0  0  0  0  0
  190.3630  174.5290  136.1610 C   0  0  0  0  0  2  0  0  0  0  0  0
  190.3760  175.8400  138.1100 N   0  0  0  0  0  0  0  0  0  0  0  0
  191.6200  175.1340  136.2450 O   0  0  0  0  0  0  0  0  0  0  0  0
  189.6790  174.7380  137.4800 C   0  0  0  0  0  2  0  0  0  0  0  0
  191.4910  176.1440  137.2160 C   0  0  2  0  0  3  0  0  0  0  0  0
  193.6710  175.0600  137.7270 C   0  0  0  0  0  1  0  0  0  0  0  0
  192.7750  176.2470  138.0180 C   0  0  0  0  0  2  0  0  0  0  0  0
  188.7780  177.5040  135.8690 C   0  0  2  0  0  0  0  0  0  0  0  0
  189.3380  177.9580  134.6770 O   0  0  0  0  0  1  0  0  0  0  0  0
  189.6470  177.9510  137.0240 C   0  0  1  0  0  3  0  0  0  0  0  0
  187.3210  177.9520  135.9370 C   0  0  2  0  0  3  0  0  0  0  0  0
  188.3720  178.7110  136.7370 C   0  0  2  0  0  3  0  0  0  0  0  0
  186.7180  175.6840  136.6000 C   0  0  0  0  0  1  0  0  0  0  0  0
  186.4190  177.1010  136.7560 N   0  0  0  0  0  0  0  0  0  0  0  0
  184.9880  177.3130  136.5640 C   0  0  0  0  0  2  0  0  0  0  0  0
  182.8180  176.4630  139.5490 C   0  0  0  0  0  0  0  0  0  0  0  0
  183.8000  178.6490  139.9040 C   0  0  0  0  0  3  0  0  0  0  0  0
  182.0230  175.4510  139.9720 F   0  0  0  0  0  0  0  0  0  0  0  0
  183.4740  176.3690  138.3180 C   0  0  0  0  0  3  0  0  0  0  0  0
  184.4570  178.5530  138.6730 C   0  0  0  0  0  3  0  0  0  0  0  0
  184.2960  177.4120  137.8800 C   0  0  0  0  0  0  0  0  0  0  0  0
  182.9810  177.6040  140.3420 C   0  0  0  0  0  3  0  0  0  0  0  0
  1 11  1  1  0  0  0
  2  1  1  6  0  0  0
  2  8  1  0  0  0  0
  2  4  1  0  0  0  0
  3  6  1  0  0  0  0
  4  3  1  0  0  0  0
  5  8  2  0  0  0  0
  6  7  1  0  0  0  0
  8  9  1  0  0  0  0
  9  6  2  0  0  0  0
 10 12  1  0  0  0  0
 10 13  1  0  0  0  0
 12 14  1  0  0  0  0
 13 11  1  0  0  0  0
 14 16  1  1  0  0  0
 14 11  1  0  0  0  0
 15 16  1  0  0  0  0
 17 18  1  6  0  0  0
 17 20  1  0  0  0  0
 17 21  1  0  0  0  0
 17 19  1  0  0  0  0
 19  1  1  1  0  0  0
 20 21  1  0  0  0  0
 20 23  1  1  0  0  0
 21 19  1  0  0  0  0
 22 23  1  0  0  0  0
 24 23  1  0  0  0  0
 24 30  1  0  0  0  0
 25 27  1  0  0  0  0
 25 31  1  0  0  0  0
 26 31  2  0  0  0  0
 28 25  2  0  0  0  0
 29 26  1  0  0  0  0
 30 28  1  0  0  0  0
 30 29  2  0  0  0  0
M  END
>  <MODEL>
3

>  <REMARK>
 VINA RESULT:      -6.7      3.187      6.555
  Name = 
  7 active torsions:
  status: ('A' for Active; 'I' for Inactive)
    1  A    between atoms: C_3  and  N_9
    2  A    between atoms: C_3  and  C_22
    3  A    between atoms: C_4  and  C_5
    4  A    between atoms: C_4  and  N_12
    5  A    between atoms: C_4  and  C_21
    6  A    between atoms: N_9  and  C_23
    7  A    between atoms: C_27  and  C_28
                            x       y       z     vdW  Elec       q    Type
                         _______ _______ _______ _____ _____    ______ ____

>  <TORSDO>
F 7

$$$$
=
 OpenBabel10272400183D

 31 35  0  0  1  0  0  0  0  0999 V2000
  183.9550  176.7030  137.3410 C   0  0  2  0  0  3  0  0  0  0  0  0
  185.4880  176.9350  137.2710 C   0  0  2  0  0  3  0  0  0  0  0  0
  187.4480  177.9480  138.4790 C   0  0  0  0  0  2  0  0  0  0  0  0
  185.9440  177.6830  138.5230 C   0  0  0  0  0  2  0  0  0  0  0  0
  185.4710  177.3920  134.8950 O   0  0  0  0  0  0  0  0  0  0  0  0
  187.8330  178.6860  137.2280 C   0  0  0  0  0  0  0  0  0  0  0  0
  188.9320  179.5350  137.2520 O   0  0  0  0  0  1  0  0  0  0  0  0
  185.9960  177.6200  136.0160 C   0  0  0  0  0  0  0  0  0  0  0  0
  187.1710  178.5040  136.0850 C   0  0  0  0  0  3  0  0  0  0  0  0
  183.7180  174.6820  134.6700 C   0  0  0  0  0  2  0  0  0  0  0  0
  183.5170  175.3630  136.9090 N   0  0  0  0  0  0  0  0  0  0  0  0
  184.5840  173.8860  135.4250 O   0  0  0  0  0  0  0  0  0  0  0  0
  182.8310  175.4140  135.6340 C   0  0  0  0  0  2  0  0  0  0  0  0
  184.6860  174.5190  136.6770 C   0  0  2  0  0  3  0  0  0  0  0  0
  184.2080  172.1550  137.2890 C   0  0  0  0  0  1  0  0  0  0  0  0
  184.7840  173.4720  137.7710 C   0  0  0  0  0  2  0  0  0  0  0  0
  181.6960  177.8250  137.2520 C   0  0  2  0  0  0  0  0  0  0  0  0
  180.8410  178.3750  136.2990 O   0  0  0  0  0  1  0  0  0  0  0  0
  183.1040  177.8030  136.7000 C   0  0  1  0  0  3  0  0  0  0  0  0
  181.5230  178.5790  138.5680 C   0  0  2  0  0  3  0  0  0  0  0  0
  182.7280  178.8850  137.6870 C   0  0  2  0  0  3  0  0  0  0  0  0
  181.2340  176.4870  139.7870 C   0  0  0  0  0  1  0  0  0  0  0  0
  181.8410  177.8110  139.8000 N   0  0  0  0  0  0  0  0  0  0  0  0
  181.5250  178.4700  141.0650 C   0  0  0  0  0  2  0  0  0  0  0  0
  183.7120  178.8430  144.1340 C   0  0  0  0  0  0  0  0  0  0  0  0
  185.1180  178.2610  142.2490 C   0  0  0  0  0  3  0  0  0  0  0  0
  183.5770  179.1430  145.4480 F   0  0  0  0  0  0  0  0  0  0  0  0
  182.5870  178.8090  143.3050 C   0  0  0  0  0  3  0  0  0  0  0  0
  183.9920  178.2260  141.4200 C   0  0  0  0  0  3  0  0  0  0  0  0
  182.7250  178.4970  141.9480 C   0  0  0  0  0  0  0  0  0  0  0  0
  184.9780  178.5690  143.6050 C   0  0  0  0  0  3  0  0  0  0  0  0
  1 11  1  6  0  0  0
  2  1  1  6  0  0  0
  2  4  1  0  0  0  0
  3  4  1  0  0  0  0
  5  8  2  0  0  0  0
  6  7  1  0  0  0  0
  6  3  1  0  0  0  0
  8  9  1  0  0  0  0
  8  2  1  0  0  0  0
  9  6  2  0  0  0  0
 10 12  1  0  0  0  0
 10 13  1  0  0  0  0
 12 14  1  0  0  0  0
 13 11  1  0  0  0  0
 14 11  1  0  0  0  0
 14 16  1  1  0  0  0
 15 16  1  0  0  0  0
 17 18  1  6  0  0  0
 17 21  1  0  0  0  0
 17 20  1  0  0  0  0
 19 17  1  0  0  0  0
 19  1  1  1  0  0  0
 19 21  1  0  0  0  0
 20 23  1  1  0  0  0
 21 20  1  0  0  0  0
 22 23  1  0  0  0  0
 23 24  1  0  0  0  0
 24 30  1  0  0  0  0
 25 27  1  0  0  0  0
 26 31  2  0  0  0  0
 28 25  2  0  0  0  0
 29 30  2  0  0  0  0
 29 26  1  0  0  0  0
 30 28  1  0  0  0  0
 31 25  1  0  0  0  0
M  END
>  <MODEL>
4

>  <REMARK>
 VINA RESULT:      -6.6      5.026      6.814
  Name = 
  7 active torsions:
  status: ('A' for Active; 'I' for Inactive)
    1  A    between atoms: C_3  and  N_9
    2  A    between atoms: C_3  and  C_22
    3  A    between atoms: C_4  and  C_5
    4  A    between atoms: C_4  and  N_12
    5  A    between atoms: C_4  and  C_21
    6  A    between atoms: N_9  and  C_23
    7  A    between atoms: C_27  and  C_28
                            x       y       z     vdW  Elec       q    Type
                         _______ _______ _______ _____ _____    ______ ____

>  <TORSDO>
F 7

$$$$
=
 OpenBabel10272400183D

 31 35  0  0  1  0  0  0  0  0999 V2000
  188.6130  175.5770  136.4230 C   0  0  2  0  0  3  0  0  0  0  0  0
  190.0910  175.1830  136.6890 C   0  0  2  0  0  3  0  0  0  0  0  0
  192.0360  175.5240  138.2470 C   0  0  0  0  0  2  0  0  0  0  0  0
  190.5770  175.8720  137.9640 C   0  0  0  0  0  2  0  0  0  0  0  0
  190.6970  175.2520  134.3480 O   0  0  0  0  0  0  0  0  0  0  0  0
  192.9130  175.8600  137.0730 C   0  0  0  0  0  0  0  0  0  0  0  0
  194.2380  176.2100  137.2930 O   0  0  0  0  0  1  0  0  0  0  0  0
  191.0560  175.4220  135.5430 C   0  0  0  0  0  0  0  0  0  0  0  0
  192.4550  175.7810  135.8220 C   0  0  0  0  0  3  0  0  0  0  0  0
  187.7800  172.4110  137.1710 C   0  0  0  0  0  2  0  0  0  0  0  0
  187.7440  174.4570  136.0180 N   0  0  0  0  0  0  0  0  0  0  0  0
  186.5240  172.9860  137.3860 O   0  0  0  0  0  0  0  0  0  0  0  0
  188.4450  173.1920  136.0750 C   0  0  0  0  0  2  0  0  0  0  0  0
  186.6440  174.3240  136.9700 C   0  0  2  0  0  3  0  0  0  0  0  0
  184.4420  175.4210  137.3460 C   0  0  0  0  0  1  0  0  0  0  0  0
  185.3480  174.7730  136.3180 C   0  0  0  0  0  2  0  0  0  0  0  0
  187.3080  177.6940  135.9970 C   0  0  2  0  0  0  0  0  0  0  0  0
  186.7870  178.3970  134.9120 O   0  0  0  0  0  1  0  0  0  0  0  0
  188.4220  176.7920  135.5120 C   0  0  1  0  0  3  0  0  0  0  0  0
  187.6990  178.6840  137.0900 C   0  0  2  0  0  3  0  0  0  0  0  0
  188.7840  178.0870  136.2020 C   0  0  2  0  0  3  0  0  0  0  0  0
  186.3400  178.1710  139.0490 C   0  0  0  0  0  1  0  0  0  0  0  0
  187.6800  178.1550  138.4790 N   0  0  0  0  0  0  0  0  0  0  0  0
  188.6070  178.7840  139.4160 C   0  0  0  0  0  2  0  0  0  0  0  0
  189.4610  176.4590  142.2810 C   0  0  0  0  0  0  0  0  0  0  0  0
  187.5070  177.7530  142.8910 C   0  0  0  0  0  3  0  0  0  0  0  0
  190.3830  175.5130  142.5810 F   0  0  0  0  0  0  0  0  0  0  0  0
  189.5090  177.1140  141.0470 C   0  0  0  0  0  3  0  0  0  0  0  0
  187.5560  178.4090  141.6580 C   0  0  0  0  0  3  0  0  0  0  0  0
  188.5590  178.0920  140.7350 C   0  0  0  0  0  0  0  0  0  0  0  0
  188.4590  176.7780  143.2030 C   0  0  0  0  0  3  0  0  0  0  0  0
  1 11  1  6  0  0  0
  2  1  1  6  0  0  0
  2  4  1  0  0  0  0
  4  3  1  0  0  0  0
  5  8  2  0  0  0  0
  6  7  1  0  0  0  0
  6  3  1  0  0  0  0
  8  9  1  0  0  0  0
  8  2  1  0  0  0  0
  9  6  2  0  0  0  0
 10 12  1  0  0  0  0
 11 13  1  0  0  0  0
 11 14  1  0  0  0  0
 13 10  1  0  0  0  0
 14 16  1  6  0  0  0
 14 12  1  0  0  0  0
 16 15  1  0  0  0  0
 17 18  1  6  0  0  0
 17 21  1  0  0  0  0
 17 20  1  0  0  0  0
 19 17  1  0  0  0  0
 19 21  1  0  0  0  0
 19  1  1  1  0  0  0
 20 23  1  1  0  0  0
 21 20  1  0  0  0  0
 23 22  1  0  0  0  0
 23 24  1  0  0  0  0
 24 30  1  0  0  0  0
 25 27  1  0  0  0  0
 25 31  1  0  0  0  0
 26 31  2  0  0  0  0
 28 25  2  0  0  0  0
 29 26  1  0  0  0  0
 30 28  1  0  0  0  0
 30 29  2  0  0  0  0
M  END
>  <MODEL>
5

>  <REMARK>
 VINA RESULT:      -6.6      2.429      3.780
  Name = 
  7 active torsions:
  status: ('A' for Active; 'I' for Inactive)
    1  A    between atoms: C_3  and  N_9
    2  A    between atoms: C_3  and  C_22
    3  A    between atoms: C_4  and  C_5
    4  A    between atoms: C_4  and  N_12
    5  A    between atoms: C_4  and  C_21
    6  A    between atoms: N_9  and  C_23
    7  A    between atoms: C_27  and  C_28
                            x       y       z     vdW  Elec       q    Type
                         _______ _______ _______ _____ _____    ______ ____

>  <TORSDO>
F 7

$$$$
=
 OpenBabel10272400183D

 31 35  0  0  1  0  0  0  0  0999 V2000
  184.5160  176.7690  137.7320 C   0  0  2  0  0  3  0  0  0  0  0  0
  185.8300  176.5320  136.9410 C   0  0  2  0  0  3  0  0  0  0  0  0
  188.3360  176.7150  137.0620 C   0  0  0  0  0  2  0  0  0  0  0  0
  187.0230  176.9160  137.8150 C   0  0  0  0  0  2  0  0  0  0  0  0
  184.8990  177.3110  134.8480 O   0  0  0  0  0  0  0  0  0  0  0  0
  188.3390  177.4740  135.7650 C   0  0  0  0  0  0  0  0  0  0  0  0
  189.5440  177.9360  135.2520 O   0  0  0  0  0  1  0  0  0  0  0  0
  185.9150  177.2040  135.5840 C   0  0  0  0  0  0  0  0  0  0  0  0
  187.2150  177.6690  135.0740 C   0  0  0  0  0  3  0  0  0  0  0  0
  182.2880  175.2400  135.7380 C   0  0  0  0  0  2  0  0  0  0  0  0
  183.5540  175.6520  137.6730 N   0  0  0  0  0  0  0  0  0  0  0  0
  183.1580  174.1590  135.9020 O   0  0  0  0  0  0  0  0  0  0  0  0
  182.3290  176.0410  137.0060 C   0  0  0  0  0  2  0  0  0  0  0  0
  184.1060  174.5760  136.8540 C   0  0  2  0  0  3  0  0  0  0  0  0
  185.8520  172.8730  137.3470 C   0  0  0  0  0  1  0  0  0  0  0  0
  184.4890  173.4050  137.7410 C   0  0  0  0  0  2  0  0  0  0  0  0
  183.0810  178.6200  138.6720 C   0  0  2  0  0  0  0  0  0  0  0  0
  182.0480  179.4550  138.2500 O   0  0  0  0  0  1  0  0  0  0  0  0
  183.8300  178.1110  137.4600 C   0  0  1  0  0  3  0  0  0  0  0  0
  183.9310  179.3610  139.7010 C   0  0  2  0  0  3  0  0  0  0  0  0
  184.4360  179.2360  138.2690 C   0  0  2  0  0  3  0  0  0  0  0  0
  183.7330  177.6640  141.4420 C   0  0  0  0  0  1  0  0  0  0  0  0
  184.6480  178.5060  140.6830 N   0  0  0  0  0  0  0  0  0  0  0  0
  185.5380  179.2020  141.6080 C   0  0  0  0  0  2  0  0  0  0  0  0
  188.9530  177.6680  141.0340 C   0  0  0  0  0  0  0  0  0  0  0  0
  188.1200  176.9200  143.1820 C   0  0  0  0  0  3  0  0  0  0  0  0
  189.9200  177.6690  140.0860 F   0  0  0  0  0  0  0  0  0  0  0  0
  187.7850  178.4120  140.8410 C   0  0  0  0  0  3  0  0  0  0  0  0
  186.9530  177.6650  142.9890 C   0  0  0  0  0  3  0  0  0  0  0  0
  186.7850  178.4150  141.8190 C   0  0  0  0  0  0  0  0  0  0  0  0
  189.1190  176.9210  142.2040 C   0  0  0  0  0  3  0  0  0  0  0  0
  1 11  1  6  0  0  0
  2  1  1  1  0  0  0
  2  4  1  0  0  0  0
  3  4  1  0  0  0  0
  5  8  2  0  0  0  0
  6  3  1  0  0  0  0
  7  6  1  0  0  0  0
  8  2  1  0  0  0  0
  9  8  1  0  0  0  0
  9  6  2  0  0  0  0
 10 12  1  0  0  0  0
 10 13  1  0  0  0  0
 12 14  1  0  0  0  0
 13 11  1  0  0  0  0
 14 11  1  0  0  0  0
 14 16  1  1  0  0  0
 15 16  1  0  0  0  0
 17 18  1  6  0  0  0
 17 20  1  0  0  0  0
 19  1  1  1  0  0  0
 19 21  1  0  0  0  0
 19 17  1  0  0  0  0
 20 23  1  1  0  0  0
 21 17  1  0  0  0  0
 21 20  1  0  0  0  0
 23 22  1  0  0  0  0
 23 24  1  0  0  0  0
 24 30  1  0  0  0  0
 25 31  1  0  0  0  0
 27 25  1  0  0  0  0
 28 25  2  0  0  0  0
 28 30  1  0  0  0  0
 29 26  1  0  0  0  0
 30 29  2  0  0  0  0
 31 26  2  0  0  0  0
M  END
>  <MODEL>
6

>  <REMARK>
 VINA RESULT:      -6.6      3.580      5.371
  Name = 
  7 active torsions:
  status: ('A' for Active; 'I' for Inactive)
    1  A    between atoms: C_3  and  N_9
    2  A    between atoms: C_3  and  C_22
    3  A    between atoms: C_4  and  C_5
    4  A    between atoms: C_4  and  N_12
    5  A    between atoms: C_4  and  C_21
    6  A    between atoms: N_9  and  C_23
    7  A    between atoms: C_27  and  C_28
                            x       y       z     vdW  Elec       q    Type
                         _______ _______ _______ _____ _____    ______ ____

>  <TORSDO>
F 7

$$$$
=
 OpenBabel10272400183D

 31 35  0  0  1  0  0  0  0  0999 V2000
  187.0280  176.9290  137.0020 C   0  0  2  0  0  3  0  0  0  0  0  0
  187.0980  175.5390  136.3160 C   0  0  2  0  0  3  0  0  0  0  0  0
  187.4980  173.0890  136.7230 C   0  0  0  0  0  2  0  0  0  0  0  0
  187.4010  174.4710  137.3660 C   0  0  0  0  0  2  0  0  0  0  0  0
  188.2150  176.3910  134.3460 O   0  0  0  0  0  0  0  0  0  0  0  0
  188.5160  173.0750  135.6180 C   0  0  0  0  0  0  0  0  0  0  0  0
  189.1950  171.8970  135.3340 O   0  0  0  0  0  1  0  0  0  0  0  0
  188.0530  175.4290  135.1420 C   0  0  0  0  0  0  0  0  0  0  0  0
  188.7430  174.1580  134.8720 C   0  0  0  0  0  3  0  0  0  0  0  0
  183.7500  176.4510  136.4520 C   0  0  0  0  0  2  0  0  0  0  0  0
  185.7440  177.6340  136.8310 N   0  0  0  0  0  0  0  0  0  0  0  0
  183.6380  177.0620  137.7030 O   0  0  0  0  0  0  0  0  0  0  0  0
  184.9510  177.0430  135.7730 C   0  0  0  0  0  2  0  0  0  0  0  0
  184.9380  177.4800  138.0400 C   0  0  2  0  0  3  0  0  0  0  0  0
  184.0020  178.6690  140.0150 C   0  0  0  0  0  1  0  0  0  0  0  0
  184.8740  178.8020  138.7820 C   0  0  0  0  0  2  0  0  0  0  0  0
  188.4560  178.8330  137.8430 C   0  0  2  0  0  0  0  0  0  0  0  0
  189.0890  179.9650  137.3350 O   0  0  0  0  0  1  0  0  0  0  0  0
  188.2150  177.8530  136.7160 C   0  0  1  0  0  3  0  0  0  0  0  0
  189.2710  178.2920  139.0150 C   0  0  2  0  0  3  0  0  0  0  0  0
  189.3720  177.6070  137.6580 C   0  0  2  0  0  3  0  0  0  0  0  0
  187.7290  178.4020  140.9010 C   0  0  0  0  0  1  0  0  0  0  0  0
  188.5080  177.5270  140.0350 N   0  0  0  0  0  0  0  0  0  0  0  0
  189.2860  176.6060  140.8600 C   0  0  0  0  0  2  0  0  0  0  0  0
  190.3320  178.5190  143.9570 C   0  0  0  0  0  0  0  0  0  0  0  0
  188.5310  177.0110  144.5500 C   0  0  0  0  0  3  0  0  0  0  0  0
  191.2340  179.4660  144.3090 F   0  0  0  0  0  0  0  0  0  0  0  0
  190.2730  178.0680  142.6350 C   0  0  0  0  0  3  0  0  0  0  0  0
  188.4720  176.5620  143.2280 C   0  0  0  0  0  3  0  0  0  0  0  0
  189.3410  177.0910  142.2680 C   0  0  0  0  0  0  0  0  0  0  0  0
  189.4610  177.9900  144.9140 C   0  0  0  0  0  3  0  0  0  0  0  0
  1 11  1  6  0  0  0
  2  1  1  1  0  0  0
  2  4  1  0  0  0  0
  3  4  1  0  0  0  0
  5  8  2  0  0  0  0
  6  3  1  0  0  0  0
  7  6  1  0  0  0  0
  8  2  1  0  0  0  0
  9  8  1  0  0  0  0
  9  6  2  0  0  0  0
 10 12  1  0  0  0  0
 11 14  1  0  0  0  0
 12 14  1  0  0  0  0
 13 10  1  0  0  0  0
 13 11  1  0  0  0  0
 14 16  1  6  0  0  0
 16 15  1  0  0  0  0
 17 18  1  6  0  0  0
 17 20  1  0  0  0  0
 19  1  1  1  0  0  0
 19 21  1  0  0  0  0
 19 17  1  0  0  0  0
 20 23  1  1  0  0  0
 21 17  1  0  0  0  0
 21 20  1  0  0  0  0
 23 24  1  0  0  0  0
 23 22  1  0  0  0  0
 24 30  1  0  0  0  0
 25 27  1  0  0  0  0
 25 31  1  0  0  0  0
 26 31  2  0  0  0  0
 28 25  2  0  0  0  0
 29 26  1  0  0  0  0
 30 28  1  0  0  0  0
 30 29  2  0  0  0  0
M  END
>  <MODEL>
7

>  <REMARK>
 VINA RESULT:      -6.5      2.730      4.108
  Name = 
  7 active torsions:
  status: ('A' for Active; 'I' for Inactive)
    1  A    between atoms: C_3  and  N_9
    2  A    between atoms: C_3  and  C_22
    3  A    between atoms: C_4  and  C_5
    4  A    between atoms: C_4  and  N_12
    5  A    between atoms: C_4  and  C_21
    6  A    between atoms: N_9  and  C_23
    7  A    between atoms: C_27  and  C_28
                            x       y       z     vdW  Elec       q    Type
                         _______ _______ _______ _____ _____    ______ ____

>  <TORSDO>
F 7

$$$$
=
 OpenBabel10272400183D

 31 35  0  0  1  0  0  0  0  0999 V2000
  189.1030  177.3090  145.4220 C   0  0  2  0  0  3  0  0  0  0  0  0
  187.5970  177.2910  145.0460 C   0  0  2  0  0  3  0  0  0  0  0  0
  185.9840  177.2870  143.1160 C   0  0  0  0  0  2  0  0  0  0  0  0
  187.4550  177.2840  143.5250 C   0  0  0  0  0  2  0  0  0  0  0  0
  186.9690  178.7950  146.8340 O   0  0  0  0  0  0  0  0  0  0  0  0
  185.2520  178.4470  143.7310 C   0  0  0  0  0  0  0  0  0  0  0  0
  184.1640  178.9940  143.0640 O   0  0  0  0  0  1  0  0  0  0  0  0
  186.7480  178.3860  145.6640 C   0  0  0  0  0  0  0  0  0  0  0  0
  185.5980  178.9290  144.9260 C   0  0  0  0  0  3  0  0  0  0  0  0
  191.6000  176.3290  147.4420 C   0  0  0  0  0  2  0  0  0  0  0  0
  189.4010  176.8290  146.7840 N   0  0  0  0  0  0  0  0  0  0  0  0
  191.1860  177.4360  148.1870 O   0  0  0  0  0  0  0  0  0  0  0  0
  190.3830  175.7650  146.7690 C   0  0  0  0  0  2  0  0  0  0  0  0
  190.0200  177.9050  147.5550 C   0  0  2  0  0  3  0  0  0  0  0  0
  188.0590  177.3200  148.9700 C   0  0  0  0  0  1  0  0  0  0  0  0
  189.0430  178.4120  148.5990 C   0  0  0  0  0  2  0  0  0  0  0  0
  191.1420  178.3920  144.4030 C   0  0  2  0  0  0  0  0  0  0  0  0
  191.9980  179.4580  144.6680 O   0  0  0  0  0  1  0  0  0  0  0  0
  189.8290  178.6220  145.1200 C   0  0  1  0  0  3  0  0  0  0  0  0
  191.0350  178.2040  142.8920 C   0  0  2  0  0  3  0  0  0  0  0  0
  189.9060  178.9060  143.6370 C   0  0  2  0  0  3  0  0  0  0  0  0
  191.2530  175.8140  143.3230 C   0  0  0  0  0  1  0  0  0  0  0  0
  190.7090  176.8290  142.4320 N   0  0  0  0  0  0  0  0  0  0  0  0
  191.0800  176.5080  141.0570 C   0  0  0  0  0  2  0  0  0  0  0  0
  187.9440  178.0790  139.6280 C   0  0  0  0  0  0  0  0  0  0  0  0
  189.6170  177.9650  137.8800 C   0  0  0  0  0  3  0  0  0  0  0  0
  186.6990  178.4170  140.0400 F   0  0  0  0  0  0  0  0  0  0  0  0
  188.8410  177.4910  140.5240 C   0  0  0  0  0  3  0  0  0  0  0  0
  190.5150  177.3780  138.7780 C   0  0  0  0  0  3  0  0  0  0  0  0
  190.1280  177.1430  140.1020 C   0  0  0  0  0  0  0  0  0  0  0  0
  188.3320  178.3160  138.3050 C   0  0  0  0  0  3  0  0  0  0  0  0
  1 11  1  1  0  0  0
  2  1  1  6  0  0  0
  2  8  1  0  0  0  0
  3  4  1  0  0  0  0
  3  6  1  0  0  0  0
  4  2  1  0  0  0  0
  6  9  2  0  0  0  0
  7  6  1  0  0  0  0
  8  5  2  0  0  0  0
  9  8  1  0  0  0  0
 10 12  1  0  0  0  0
 11 14  1  0  0  0  0
 13 11  1  0  0  0  0
 13 10  1  0  0  0  0
 14 12  1  0  0  0  0
 14 16  1  1  0  0  0
 16 15  1  0  0  0  0
 17 18  1  1  0  0  0
 17 19  1  0  0  0  0
 19  1  1  6  0  0  0
 20 23  1  1  0  0  0
 20 21  1  0  0  0  0
 20 17  1  0  0  0  0
 21 17  1  0  0  0  0
 21 19  1  0  0  0  0
 23 22  1  0  0  0  0
 24 23  1  0  0  0  0
 25 27  1  0  0  0  0
 25 28  1  0  0  0  0
 26 31  1  0  0  0  0
 26 29  2  0  0  0  0
 29 30  1  0  0  0  0
 30 28  2  0  0  0  0
 30 24  1  0  0  0  0
 31 25  2  0  0  0  0
M  END
>  <MODEL>
8

>  <REMARK>
 VINA RESULT:      -6.4      3.870      8.661
  Name = 
  7 active torsions:
  status: ('A' for Active; 'I' for Inactive)
    1  A    between atoms: C_3  and  N_9
    2  A    between atoms: C_3  and  C_22
    3  A    between atoms: C_4  and  C_5
    4  A    between atoms: C_4  and  N_12
    5  A    between atoms: C_4  and  C_21
    6  A    between atoms: N_9  and  C_23
    7  A    between atoms: C_27  and  C_28
                            x       y       z     vdW  Elec       q    Type
                         _______ _______ _______ _____ _____    ______ ____

>  <TORSDO>
F 7

$$$$
=
 OpenBabel10272400183D

 31 35  0  0  1  0  0  0  0  0999 V2000
  189.0980  176.8950  138.1900 C   0  0  2  0  0  3  0  0  0  0  0  0
  189.8940  176.5360  139.4720 C   0  0  2  0  0  3  0  0  0  0  0  0
  189.9270  176.7700  141.9770 C   0  0  0  0  0  2  0  0  0  0  0  0
  189.1600  177.0870  140.6940 C   0  0  0  0  0  2  0  0  0  0  0  0
  192.0470  176.9130  138.4340 O   0  0  0  0  0  0  0  0  0  0  0  0
  191.3380  177.2830  141.9070 C   0  0  0  0  0  0  0  0  0  0  0  0
  191.9820  177.6610  143.0780 O   0  0  0  0  0  1  0  0  0  0  0  0
  191.3530  176.9530  139.4840 C   0  0  0  0  0  0  0  0  0  0  0  0
  191.9990  177.3360  140.7490 C   0  0  0  0  0  3  0  0  0  0  0  0
  187.7820  179.2730  136.2180 C   0  0  0  0  0  2  0  0  0  0  0  0
  188.4800  178.2330  138.2060 N   0  0  0  0  0  0  0  0  0  0  0  0
  186.6350  179.0040  136.9700 O   0  0  0  0  0  0  0  0  0  0  0  0
  188.9640  179.0550  137.1170 C   0  0  0  0  0  2  0  0  0  0  0  0
  187.0420  178.1090  137.9760 C   0  0  2  0  0  3  0  0  0  0  0  0
  184.8570  178.7870  138.9540 C   0  0  0  0  0  1  0  0  0  0  0  0
  186.2930  178.4110  139.2610 C   0  0  0  0  0  2  0  0  0  0  0  0
  188.0630  175.7120  136.2160 C   0  0  2  0  0  0  0  0  0  0  0  0
  186.8170  175.2170  135.8330 O   0  0  0  0  0  1  0  0  0  0  0  0
  188.1060  175.8260  137.7240 C   0  0  1  0  0  3  0  0  0  0  0  0
  189.1550  174.8440  135.5960 C   0  0  2  0  0  3  0  0  0  0  0  0
  188.7950  174.6530  137.0640 C   0  0  2  0  0  3  0  0  0  0  0  0
  190.3170  176.7160  134.5520 C   0  0  0  0  0  1  0  0  0  0  0  0
  190.4600  175.5150  135.3630 N   0  0  0  0  0  0  0  0  0  0  0  0
  191.5180  174.6810  134.8020 C   0  0  0  0  0  2  0  0  0  0  0  0
  194.9680  175.4090  136.1850 C   0  0  0  0  0  0  0  0  0  0  0  0
  193.8160  173.9280  137.7180 C   0  0  0  0  0  3  0  0  0  0  0  0
  196.0690  176.1210  135.8460 F   0  0  0  0  0  0  0  0  0  0  0  0
  193.8470  175.4140  135.3490 C   0  0  0  0  0  3  0  0  0  0  0  0
  192.6950  173.9350  136.8820 C   0  0  0  0  0  3  0  0  0  0  0  0
  192.7090  174.6800  135.6980 C   0  0  0  0  0  0  0  0  0  0  0  0
  194.9520  174.6650  137.3690 C   0  0  0  0  0  3  0  0  0  0  0  0
  1 11  1  1  0  0  0
  2  1  1  6  0  0  0
  2  8  1  0  0  0  0
  2  4  1  0  0  0  0
  4  3  1  0  0  0  0
  5  8  2  0  0  0  0
  6  3  1  0  0  0  0
  6  7  1  0  0  0  0
  8  9  1  0  0  0  0
  9  6  2  0  0  0  0
 10 12  1  0  0  0  0
 10 13  1  0  0  0  0
 12 14  1  0  0  0  0
 13 11  1  0  0  0  0
 14 11  1  0  0  0  0
 14 16  1  1  0  0  0
 15 16  1  0  0  0  0
 17 18  1  6  0  0  0
 17 21  1  0  0  0  0
 17 19  1  0  0  0  0
 19  1  1  6  0  0  0
 20 23  1  1  0  0  0
 20 17  1  0  0  0  0
 20 21  1  0  0  0  0
 21 19  1  0  0  0  0
 22 23  1  0  0  0  0
 24 23  1  0  0  0  0
 24 30  1  0  0  0  0
 25 31  1  0  0  0  0
 27 25  1  0  0  0  0
 28 30  1  0  0  0  0
 28 25  2  0  0  0  0
 29 26  1  0  0  0  0
 30 29  2  0  0  0  0
 31 26  2  0  0  0  0
M  END
>  <MODEL>
9

>  <REMARK>
 VINA RESULT:      -6.3      3.149      6.337
  Name = 
  7 active torsions:
  status: ('A' for Active; 'I' for Inactive)
    1  A    between atoms: C_3  and  N_9
    2  A    between atoms: C_3  and  C_22
    3  A    between atoms: C_4  and  C_5
    4  A    between atoms: C_4  and  N_12
    5  A    between atoms: C_4  and  C_21
    6  A    between atoms: N_9  and  C_23
    7  A    between atoms: C_27  and  C_28
                            x       y       z     vdW  Elec       q    Type
                         _______ _______ _______ _____ _____    ______ ____

>  <TORSDO>
F 7

$$$$
