=
 OpenBabel10272414343D

 43 48  0  0  1  0  0  0  0  0999 V2000
  191.2540  176.5280  146.9280 C   0  0  0  0  0  0  0  0  0  0  0  0
  186.9650  177.8260  144.5800 C   0  0  0  0  0  0  0  0  0  0  0  0
  187.6550  178.1740  141.9050 C   0  0  0  0  0  0  0  0  0  0  0  0
  188.9500  177.0800  146.4200 C   0  0  0  0  0  0  0  0  0  0  0  0
  191.5970  176.7060  145.5860 C   0  0  0  0  0  3  0  0  0  0  0  0
  192.2960  176.1410  147.9140 C   0  0  0  0  0  1  0  0  0  0  0  0
  189.2900  177.2570  145.0570 C   0  0  0  0  0  0  0  0  0  0  0  0
  189.9330  176.7160  147.3450 C   0  0  0  0  0  3  0  0  0  0  0  0
  190.6210  177.0690  144.6540 C   0  0  0  0  0  3  0  0  0  0  0  0
  188.5930  177.7960  142.8170 N   0  0  0  0  0  0  0  0  0  0  0  0
  188.2930  177.6250  144.1340 C   0  0  0  0  0  0  0  0  0  0  0  0
  186.6480  177.6460  145.9330 C   0  0  0  0  0  3  0  0  0  0  0  0
  185.9800  178.2080  143.6570 C   0  0  0  0  0  0  0  0  0  0  0  0
  186.3360  178.3810  142.3120 C   0  0  0  0  0  3  0  0  0  0  0  0
  187.6350  177.2740  146.8470 C   0  0  0  0  0  3  0  0  0  0  0  0
  188.0050  178.3510  140.4580 C   0  0  2  0  0  3  0  0  0  0  0  0
  186.8590  178.5740  139.6840 O   0  0  0  0  0  1  0  0  0  0  0  0
  188.8310  177.2540  139.9350 N   0  0  0  0  0  2  0  0  0  0  0  0
  190.1010  177.7450  139.4050 C   0  0  1  0  0  3  0  0  0  0  0  0
  191.2270  177.2810  140.3100 C   0  0  0  0  0  1  0  0  0  0  0  0
  190.3130  177.2150  137.9960 C   0  0  0  0  0  2  0  0  0  0  0  0
  189.7130  175.8950  137.8510 N   0  0  0  0  0  0  0  0  0  0  0  0
  189.3690  174.5310  135.8830 C   0  0  0  0  0  2  0  0  0  0  0  0
  190.7960  174.9260  137.7660 C   0  0  0  0  0  2  0  0  0  0  0  0
  189.0570  175.8600  136.5480 C   0  0  1  0  0  3  0  0  0  0  0  0
  190.3700  173.8570  136.7860 C   0  0  0  0  0  2  0  0  0  0  0  0
  186.9820  177.3390  136.5210 C   0  0  0  0  0  0  0  0  0  0  0  0
  187.5790  176.0760  136.6870 C   0  0  0  0  0  0  0  0  0  0  0  0
  183.4920  176.5860  137.0360 F   0  0  0  0  0  0  0  0  0  0  0  0
  185.3840  175.1430  137.1000 C   0  0  0  0  0  3  0  0  0  0  0  0
  184.8310  176.4110  136.9250 C   0  0  0  0  0  0  0  0  0  0  0  0
  186.7640  174.9780  136.9800 C   0  0  0  0  0  3  0  0  0  0  0  0
  185.6330  177.4720  136.6420 N   0  0  0  0  0  0  0  0  0  0  0  0
  187.7340  178.4290  136.2310 F   0  0  0  0  0  0  0  0  0  0  0  0
  184.6620  178.4210  144.0880 O   0  0  0  0  0  0  0  0  0  0  0  0
  182.4900  178.6220  141.0270 C   0  0  0  0  0  2  0  0  0  0  0  0
  181.1360  178.5710  141.7410 C   0  0  1  0  0  3  0  0  0  0  0  0
  182.2930  178.8180  143.9540 C   0  0  0  0  0  2  0  0  0  0  0  0
  183.5920  178.0980  141.9440 C   0  0  0  0  0  2  0  0  0  0  0  0
  183.6350  178.9130  143.2360 C   0  0  2  0  0  3  0  0  0  0  0  0
  181.1790  179.3520  143.0570 C   0  0  0  0  0  2  0  0  0  0  0  0
  180.3690  180.3500  140.1020 C   0  0  0  0  0  1  0  0  0  0  0  0
  180.0090  179.0640  140.8360 C   0  0  0  0  0  2  0  0  0  0  0  0
  1  8  1  0  0  0  0
  1  6  1  0  0  0  0
  2 12  1  0  0  0  0
  3 14  2  0  0  0  0
  3 10  1  0  0  0  0
  4 15  1  0  0  0  0
  4  8  2  0  0  0  0
  5  1  2  0  0  0  0
  7  4  1  0  0  0  0
  9  7  2  0  0  0  0
  9  5  1  0  0  0  0
 10 11  2  0  0  0  0
 11  2  1  0  0  0  0
 11  7  1  0  0  0  0
 12 15  2  0  0  0  0
 13 35  1  0  0  0  0
 13  2  2  0  0  0  0
 14 13  1  0  0  0  0
 16 17  1  6  0  0  0
 16  3  1  0  0  0  0
 18 16  1  0  0  0  0
 19 18  1  0  0  0  0
 19 20  1  1  0  0  0
 21 19  1  0  0  0  0
 22 21  1  0  0  0  0
 23 25  1  0  0  0  0
 23 26  1  0  0  0  0
 24 22  1  0  0  0  0
 25 28  1  1  0  0  0
 25 22  1  0  0  0  0
 26 24  1  0  0  0  0
 27 33  2  0  0  0  0
 27 28  1  0  0  0  0
 28 32  2  0  0  0  0
 31 29  1  0  0  0  0
 31 30  2  0  0  0  0
 32 30  1  0  0  0  0
 33 31  1  0  0  0  0
 34 27  1  0  0  0  0
 36 37  1  0  0  0  0
 36 39  1  0  0  0  0
 37 43  1  6  0  0  0
 37 41  1  0  0  0  0
 39 40  1  0  0  0  0
 40 38  1  0  0  0  0
 40 35  1  1  0  0  0
 41 38  1  0  0  0  0
 42 43  1  0  0  0  0
M  END
>  <MODEL>
1

>  <REMARK>
 VINA RESULT:     -10.6      0.000      0.000
  Name = 
  9 active torsions:
  status: ('A' for Active; 'I' for Inactive)
    1  A    between atoms: O_1  and  C_34
    2  A    between atoms: O_1  and  C_35
    3  A    between atoms: C_2  and  N_6
    4  A    between atoms: C_2  and  C_13
    5  A    between atoms: C_3  and  N_4
    6  A    between atoms: C_3  and  C_12
    7  A    between atoms: N_6  and  C_12
    8  A    between atoms: C_14  and  C_22
    9  A    between atoms: C_19  and  C_37
                            x       y       z     vdW  Elec       q    Type
                         _______ _______ _______ _____ _____    ______ ____

>  <TORSDO>
F 9

$$$$
=
 OpenBabel10272414343D

 43 48  0  0  1  0  0  0  0  0999 V2000
  191.5740  176.2130  147.0130 C   0  0  0  0  0  0  0  0  0  0  0  0
  187.4660  177.8810  144.5770 C   0  0  0  0  0  0  0  0  0  0  0  0
  188.1010  177.7500  141.8690 C   0  0  0  0  0  0  0  0  0  0  0  0
  189.3730  177.0670  146.4700 C   0  0  0  0  0  0  0  0  0  0  0  0
  191.8900  176.1510  145.6540 C   0  0  0  0  0  3  0  0  0  0  0  0
  192.5760  175.7930  148.0270 C   0  0  0  0  0  1  0  0  0  0  0  0
  189.6850  177.0020  145.0910 C   0  0  0  0  0  0  0  0  0  0  0  0
  190.3190  176.6720  147.4210 C   0  0  0  0  0  3  0  0  0  0  0  0
  190.9510  176.5440  144.6970 C   0  0  0  0  0  3  0  0  0  0  0  0
  188.9990  177.3470  142.8090 N   0  0  0  0  0  0  0  0  0  0  0  0
  188.7260  177.4040  144.1420 C   0  0  0  0  0  0  0  0  0  0  0  0
  187.1760  177.9370  145.9460 C   0  0  0  0  0  3  0  0  0  0  0  0
  186.5220  178.2950  143.6250 C   0  0  0  0  0  0  0  0  0  0  0  0
  186.8490  178.2250  142.2640 C   0  0  0  0  0  3  0  0  0  0  0  0
  188.1240  177.5320  146.8870 C   0  0  0  0  0  3  0  0  0  0  0  0
  188.4190  177.6720  140.4060 C   0  0  2  0  0  3  0  0  0  0  0  0
  189.7890  177.8480  140.1750 O   0  0  0  0  0  1  0  0  0  0  0  0
  187.5920  178.5780  139.5950 N   0  0  0  0  0  2  0  0  0  0  0  0
  186.8920  177.8600  138.5330 C   0  0  1  0  0  3  0  0  0  0  0  0
  185.4710  178.3820  138.4350 C   0  0  0  0  0  1  0  0  0  0  0  0
  187.6150  178.0610  137.2100 C   0  0  0  0  0  2  0  0  0  0  0  0
  188.2580  176.8240  136.7860 N   0  0  0  0  0  0  0  0  0  0  0  0
  188.3310  175.7520  134.6190 C   0  0  0  0  0  2  0  0  0  0  0  0
  189.5130  177.1780  136.1380 C   0  0  0  0  0  2  0  0  0  0  0  0
  187.4270  176.2450  135.7350 C   0  0  1  0  0  3  0  0  0  0  0  0
  189.7170  176.2150  134.9920 C   0  0  0  0  0  2  0  0  0  0  0  0
  185.1620  175.2110  136.2780 C   0  0  0  0  0  0  0  0  0  0  0  0
  186.5670  175.1420  136.2790 C   0  0  0  0  0  0  0  0  0  0  0  0
  184.2600  172.0430  137.7470 F   0  0  0  0  0  0  0  0  0  0  0  0
  186.4140  172.9490  137.2900 C   0  0  0  0  0  3  0  0  0  0  0  0
  185.0230  173.0550  137.2690 C   0  0  0  0  0  0  0  0  0  0  0  0
  187.1860  173.9990  136.7920 C   0  0  0  0  0  3  0  0  0  0  0  0
  184.4320  174.1730  136.7680 N   0  0  0  0  0  0  0  0  0  0  0  0
  184.5210  176.2990  135.7840 F   0  0  0  0  0  0  0  0  0  0  0  0
  185.2740  178.7790  144.0440 O   0  0  0  0  0  0  0  0  0  0  0  0
  181.5490  178.5020  143.6230 C   0  0  0  0  0  2  0  0  0  0  0  0
  181.4770  178.9800  142.1700 C   0  0  1  0  0  3  0  0  0  0  0  0
  183.9800  178.8950  142.0180 C   0  0  0  0  0  2  0  0  0  0  0  0
  182.8690  178.9300  144.2570 C   0  0  0  0  0  2  0  0  0  0  0  0
  184.0450  178.3770  143.4510 C   0  0  2  0  0  3  0  0  0  0  0  0
  182.6710  178.4630  141.3630 C   0  0  0  0  0  2  0  0  0  0  0  0
  180.2900  177.3930  140.5860 C   0  0  0  0  0  1  0  0  0  0  0  0
  180.1520  178.5890  141.5190 C   0  0  0  0  0  2  0  0  0  0  0  0
  1  8  1  0  0  0  0
  1  6  1  0  0  0  0
  2 12  1  0  0  0  0
  3 14  2  0  0  0  0
  3 10  1  0  0  0  0
  4 15  1  0  0  0  0
  4  8  2  0  0  0  0
  5  1  2  0  0  0  0
  7  4  1  0  0  0  0
  9  7  2  0  0  0  0
  9  5  1  0  0  0  0
 10 11  2  0  0  0  0
 11  2  1  0  0  0  0
 11  7  1  0  0  0  0
 12 15  2  0  0  0  0
 13 35  1  0  0  0  0
 13  2  2  0  0  0  0
 14 13  1  0  0  0  0
 16 17  1  1  0  0  0
 16  3  1  0  0  0  0
 18 16  1  0  0  0  0
 19 20  1  6  0  0  0
 19 18  1  0  0  0  0
 21 19  1  0  0  0  0
 22 21  1  0  0  0  0
 23 26  1  0  0  0  0
 23 25  1  0  0  0  0
 24 22  1  0  0  0  0
 25 28  1  1  0  0  0
 25 22  1  0  0  0  0
 26 24  1  0  0  0  0
 27 28  2  0  0  0  0
 27 33  1  0  0  0  0
 28 32  1  0  0  0  0
 31 30  1  0  0  0  0
 31 29  1  0  0  0  0
 32 30  2  0  0  0  0
 33 31  2  0  0  0  0
 34 27  1  0  0  0  0
 36 39  1  0  0  0  0
 37 43  1  6  0  0  0
 37 36  1  0  0  0  0
 38 40  1  0  0  0  0
 40 35  1  1  0  0  0
 40 39  1  0  0  0  0
 41 38  1  0  0  0  0
 41 37  1  0  0  0  0
 42 43  1  0  0  0  0
M  END
>  <MODEL>
2

>  <REMARK>
 VINA RESULT:     -10.5      1.545      2.267
  Name = 
  9 active torsions:
  status: ('A' for Active; 'I' for Inactive)
    1  A    between atoms: O_1  and  C_34
    2  A    between atoms: O_1  and  C_35
    3  A    between atoms: C_2  and  N_6
    4  A    between atoms: C_2  and  C_13
    5  A    between atoms: C_3  and  N_4
    6  A    between atoms: C_3  and  C_12
    7  A    between atoms: N_6  and  C_12
    8  A    between atoms: C_14  and  C_22
    9  A    between atoms: C_19  and  C_37
                            x       y       z     vdW  Elec       q    Type
                         _______ _______ _______ _____ _____    ______ ____

>  <TORSDO>
F 9

$$$$
=
 OpenBabel10272414343D

 43 48  0  0  1  0  0  0  0  0999 V2000
  187.9710  177.5300  146.9560 C   0  0  0  0  0  0  0  0  0  0  0  0
  185.9280  178.4110  142.4120 C   0  0  0  0  0  0  0  0  0  0  0  0
  188.0300  178.2010  140.5970 C   0  0  0  0  0  0  0  0  0  0  0  0
  186.4350  178.0120  145.1450 C   0  0  0  0  0  0  0  0  0  0  0  0
  189.0230  177.4280  146.0430 C   0  0  0  0  0  3  0  0  0  0  0  0
  188.2250  177.3300  148.4060 C   0  0  0  0  0  1  0  0  0  0  0  0
  187.4960  177.9050  144.2130 C   0  0  0  0  0  0  0  0  0  0  0  0
  186.6800  177.8230  146.5080 C   0  0  0  0  0  3  0  0  0  0  0  0
  188.7880  177.6150  144.6780 C   0  0  0  0  0  3  0  0  0  0  0  0
  188.2420  177.9960  141.9260 N   0  0  0  0  0  0  0  0  0  0  0  0
  187.2400  178.0990  142.8430 C   0  0  0  0  0  0  0  0  0  0  0  0
  184.8920  178.5120  143.3490 C   0  0  0  0  0  3  0  0  0  0  0  0
  185.6840  178.6180  141.0460 C   0  0  0  0  0  0  0  0  0  0  0  0
  186.7480  178.5100  140.1390 C   0  0  0  0  0  3  0  0  0  0  0  0
  185.1440  178.3130  144.7070 C   0  0  0  0  0  3  0  0  0  0  0  0
  189.1450  178.0760  139.6030 C   0  0  2  0  0  3  0  0  0  0  0  0
  189.0290  179.0350  138.5880 O   0  0  0  0  0  1  0  0  0  0  0  0
  189.2850  176.7120  139.0740 N   0  0  0  0  0  2  0  0  0  0  0  0
  189.6030  176.7200  137.6480 C   0  0  1  0  0  3  0  0  0  0  0  0
  191.1040  176.5830  137.4740 C   0  0  0  0  0  1  0  0  0  0  0  0
  188.8900  175.5700  136.9530 C   0  0  0  0  0  2  0  0  0  0  0  0
  187.8180  176.0720  136.1040 N   0  0  0  0  0  0  0  0  0  0  0  0
  185.8740  177.4050  136.6470 C   0  0  0  0  0  2  0  0  0  0  0  0
  188.1130  177.4640  135.7960 C   0  0  0  0  0  2  0  0  0  0  0  0
  186.6050  176.1010  136.9140 C   0  0  1  0  0  3  0  0  0  0  0  0
  186.7980  178.2090  135.7670 C   0  0  0  0  0  2  0  0  0  0  0  0
  185.1500  174.6980  135.3620 C   0  0  0  0  0  0  0  0  0  0  0  0
  185.7370  174.9120  136.6220 C   0  0  0  0  0  0  0  0  0  0  0  0
  183.3990  171.5860  135.8750 F   0  0  0  0  0  0  0  0  0  0  0  0
  184.7270  172.8520  137.3920 C   0  0  0  0  0  3  0  0  0  0  0  0
  184.1650  172.6750  136.1270 C   0  0  0  0  0  0  0  0  0  0  0  0
  185.5160  173.9760  137.6360 C   0  0  0  0  0  3  0  0  0  0  0  0
  184.3870  173.5920  135.1480 N   0  0  0  0  0  0  0  0  0  0  0  0
  185.3440  175.5770  134.3480 F   0  0  0  0  0  0  0  0  0  0  0  0
  184.3910  178.9380  140.6070 O   0  0  0  0  0  0  0  0  0  0  0  0
  182.4670  176.3620  138.6600 C   0  0  0  0  0  2  0  0  0  0  0  0
  181.4380  177.3100  138.0400 C   0  0  1  0  0  3  0  0  0  0  0  0
  182.7360  179.2800  138.8950 C   0  0  0  0  0  2  0  0  0  0  0  0
  183.1230  177.0140  139.8750 C   0  0  0  0  0  2  0  0  0  0  0  0
  183.7820  178.3330  139.4740 C   0  0  2  0  0  3  0  0  0  0  0  0
  182.0790  178.6500  137.6690 C   0  0  0  0  0  2  0  0  0  0  0  0
  181.5090  175.4710  136.2920 C   0  0  0  0  0  1  0  0  0  0  0  0
  180.7450  176.6720  136.8380 C   0  0  0  0  0  2  0  0  0  0  0  0
  1  6  1  0  0  0  0
  2 11  1  0  0  0  0
  2 12  1  0  0  0  0
  3 10  1  0  0  0  0
  4  8  2  0  0  0  0
  5  1  2  0  0  0  0
  7  9  2  0  0  0  0
  7  4  1  0  0  0  0
  8  1  1  0  0  0  0
  9  5  1  0  0  0  0
 10 11  2  0  0  0  0
 11  7  1  0  0  0  0
 12 15  2  0  0  0  0
 13  2  2  0  0  0  0
 14  3  2  0  0  0  0
 14 13  1  0  0  0  0
 15  4  1  0  0  0  0
 16 17  1  6  0  0  0
 16  3  1  0  0  0  0
 18 16  1  0  0  0  0
 19 20  1  1  0  0  0
 19 18  1  0  0  0  0
 21 19  1  0  0  0  0
 22 25  1  0  0  0  0
 22 21  1  0  0  0  0
 23 25  1  0  0  0  0
 24 22  1  0  0  0  0
 25 28  1  6  0  0  0
 26 24  1  0  0  0  0
 26 23  1  0  0  0  0
 27 28  1  0  0  0  0
 28 32  2  0  0  0  0
 29 31  1  0  0  0  0
 30 32  1  0  0  0  0
 31 30  2  0  0  0  0
 33 27  2  0  0  0  0
 33 31  1  0  0  0  0
 34 27  1  0  0  0  0
 35 13  1  0  0  0  0
 36 39  1  0  0  0  0
 37 43  1  6  0  0  0
 37 36  1  0  0  0  0
 38 40  1  0  0  0  0
 40 39  1  0  0  0  0
 40 35  1  1  0  0  0
 41 37  1  0  0  0  0
 41 38  1  0  0  0  0
 42 43  1  0  0  0  0
M  END
>  <MODEL>
3

>  <REMARK>
 VINA RESULT:     -10.0      2.132      3.428
  Name = 
  9 active torsions:
  status: ('A' for Active; 'I' for Inactive)
    1  A    between atoms: O_1  and  C_34
    2  A    between atoms: O_1  and  C_35
    3  A    between atoms: C_2  and  N_6
    4  A    between atoms: C_2  and  C_13
    5  A    between atoms: C_3  and  N_4
    6  A    between atoms: C_3  and  C_12
    7  A    between atoms: N_6  and  C_12
    8  A    between atoms: C_14  and  C_22
    9  A    between atoms: C_19  and  C_37
                            x       y       z     vdW  Elec       q    Type
                         _______ _______ _______ _____ _____    ______ ____

>  <TORSDO>
F 9

$$$$
=
 OpenBabel10272414343D

 43 48  0  0  1  0  0  0  0  0999 V2000
  191.6030  176.2140  147.1050 C   0  0  0  0  0  0  0  0  0  0  0  0
  187.6570  177.9220  144.4390 C   0  0  0  0  0  0  0  0  0  0  0  0
  188.4080  177.6940  141.7670 C   0  0  0  0  0  0  0  0  0  0  0  0
  189.4540  177.1120  146.4390 C   0  0  0  0  0  0  0  0  0  0  0  0
  191.9780  176.1030  145.7640 C   0  0  0  0  0  3  0  0  0  0  0  0
  192.5460  175.7970  148.1750 C   0  0  0  0  0  1  0  0  0  0  0  0
  189.8250  176.9980  145.0780 C   0  0  0  0  0  0  0  0  0  0  0  0
  190.3440  176.7190  147.4420 C   0  0  0  0  0  3  0  0  0  0  0  0
  191.0940  176.4940  144.7550 C   0  0  0  0  0  3  0  0  0  0  0  0
  189.2520  177.2940  142.7580 N   0  0  0  0  0  0  0  0  0  0  0  0
  188.9210  177.3980  144.0750 C   0  0  0  0  0  0  0  0  0  0  0  0
  187.3080  178.0270  145.7910 C   0  0  0  0  0  3  0  0  0  0  0  0
  186.7690  178.3330  143.4340 C   0  0  0  0  0  0  0  0  0  0  0  0
  187.1550  178.2150  142.0910 C   0  0  0  0  0  3  0  0  0  0  0  0
  188.2020  177.6230  146.7860 C   0  0  0  0  0  3  0  0  0  0  0  0
  188.7890  177.5640  140.3230 C   0  0  2  0  0  3  0  0  0  0  0  0
  190.1390  177.8800  140.1250 O   0  0  0  0  0  1  0  0  0  0  0  0
  187.8980  178.3190  139.4300 N   0  0  0  0  0  2  0  0  0  0  0  0
  187.7250  177.6420  138.1470 C   0  0  1  0  0  3  0  0  0  0  0  0
  186.5030  178.2100  137.4490 C   0  0  0  0  0  1  0  0  0  0  0  0
  188.9600  177.8450  137.2840 C   0  0  0  0  0  2  0  0  0  0  0  0
  189.2560  176.6380  136.5240 N   0  0  0  0  0  0  0  0  0  0  0  0
  189.8050  174.4030  137.2710 C   0  0  0  0  0  2  0  0  0  0  0  0
  188.0450  175.8300  136.4900 C   0  0  0  0  0  2  0  0  0  0  0  0
  190.2180  175.8640  137.3010 C   0  0  1  0  0  3  0  0  0  0  0  0
  188.4670  174.3810  136.5760 C   0  0  0  0  0  2  0  0  0  0  0  0
  192.6790  176.4600  137.5940 C   0  0  0  0  0  0  0  0  0  0  0  0
  191.6100  176.0560  136.7740 C   0  0  0  0  0  0  0  0  0  0  0  0
  195.4290  176.5150  135.2620 F   0  0  0  0  0  0  0  0  0  0  0  0
  193.1410  175.9640  134.9020 C   0  0  0  0  0  3  0  0  0  0  0  0
  194.1750  176.3640  135.7500 C   0  0  0  0  0  0  0  0  0  0  0  0
  191.8550  175.8100  135.4200 C   0  0  0  0  0  3  0  0  0  0  0  0
  193.9240  176.6010  137.0660 N   0  0  0  0  0  0  0  0  0  0  0  0
  192.4860  176.7040  138.9150 F   0  0  0  0  0  0  0  0  0  0  0  0
  185.5180  178.8640  143.7810 O   0  0  0  0  0  0  0  0  0  0  0  0
  181.7960  178.5010  143.4000 C   0  0  0  0  0  2  0  0  0  0  0  0
  181.7160  178.8350  141.9090 C   0  0  1  0  0  3  0  0  0  0  0  0
  184.2190  178.7680  141.7570 C   0  0  0  0  0  2  0  0  0  0  0  0
  183.1120  179.0050  143.9860 C   0  0  0  0  0  2  0  0  0  0  0  0
  184.2930  178.3910  143.2340 C   0  0  2  0  0  3  0  0  0  0  0  0
  182.9150  178.2590  141.1510 C   0  0  0  0  0  2  0  0  0  0  0  0
  180.4610  178.2390  139.7850 C   0  0  0  0  0  1  0  0  0  0  0  0
  180.3950  178.3670  141.3020 C   0  0  0  0  0  2  0  0  0  0  0  0
  1  8  1  0  0  0  0
  1  6  1  0  0  0  0
  2 12  1  0  0  0  0
  3 14  2  0  0  0  0
  3 10  1  0  0  0  0
  4 15  1  0  0  0  0
  4  8  2  0  0  0  0
  5  1  2  0  0  0  0
  7  4  1  0  0  0  0
  9  7  2  0  0  0  0
  9  5  1  0  0  0  0
 10 11  2  0  0  0  0
 11  2  1  0  0  0  0
 11  7  1  0  0  0  0
 12 15  2  0  0  0  0
 13 35  1  0  0  0  0
 13  2  2  0  0  0  0
 14 13  1  0  0  0  0
 16 17  1  1  0  0  0
 16  3  1  0  0  0  0
 18 16  1  0  0  0  0
 19 20  1  6  0  0  0
 19 18  1  0  0  0  0
 21 19  1  0  0  0  0
 22 21  1  0  0  0  0
 22 25  1  0  0  0  0
 23 25  1  0  0  0  0
 24 22  1  0  0  0  0
 24 26  1  0  0  0  0
 25 28  1  6  0  0  0
 26 23  1  0  0  0  0
 27 34  1  0  0  0  0
 28 27  2  0  0  0  0
 29 31  1  0  0  0  0
 30 32  2  0  0  0  0
 30 31  1  0  0  0  0
 31 33  2  0  0  0  0
 32 28  1  0  0  0  0
 33 27  1  0  0  0  0
 36 39  1  0  0  0  0
 37 43  1  6  0  0  0
 37 36  1  0  0  0  0
 38 40  1  0  0  0  0
 40 35  1  1  0  0  0
 40 39  1  0  0  0  0
 41 38  1  0  0  0  0
 41 37  1  0  0  0  0
 42 43  1  0  0  0  0
M  END
>  <MODEL>
4

>  <REMARK>
 VINA RESULT:      -9.9      2.198      3.740
  Name = 
  9 active torsions:
  status: ('A' for Active; 'I' for Inactive)
    1  A    between atoms: O_1  and  C_34
    2  A    between atoms: O_1  and  C_35
    3  A    between atoms: C_2  and  N_6
    4  A    between atoms: C_2  and  C_13
    5  A    between atoms: C_3  and  N_4
    6  A    between atoms: C_3  and  C_12
    7  A    between atoms: N_6  and  C_12
    8  A    between atoms: C_14  and  C_22
    9  A    between atoms: C_19  and  C_37
                            x       y       z     vdW  Elec       q    Type
                         _______ _______ _______ _____ _____    ______ ____

>  <TORSDO>
F 9

$$$$
=
 OpenBabel10272414343D

 43 48  0  0  1  0  0  0  0  0999 V2000
  190.1080  173.1230  135.3710 C   0  0  0  0  0  0  0  0  0  0  0  0
  188.1930  176.9320  138.0950 C   0  0  0  0  0  0  0  0  0  0  0  0
  189.9760  177.3130  140.2000 C   0  0  0  0  0  0  0  0  0  0  0  0
  188.7200  174.9270  136.2010 C   0  0  0  0  0  0  0  0  0  0  0  0
  190.9990  173.3150  136.4290 C   0  0  0  0  0  3  0  0  0  0  0  0
  190.3690  172.0600  134.3650 C   0  0  0  0  0  1  0  0  0  0  0  0
  189.6210  175.1300  137.2730 C   0  0  0  0  0  0  0  0  0  0  0  0
  188.9700  173.9260  135.2580 C   0  0  0  0  0  3  0  0  0  0  0  0
  190.7570  174.3130  137.3770 C   0  0  0  0  0  3  0  0  0  0  0  0
  190.2140  176.3590  139.2570 N   0  0  0  0  0  0  0  0  0  0  0  0
  189.3600  176.1400  138.2190 C   0  0  0  0  0  0  0  0  0  0  0  0
  187.3140  176.7160  137.0260 C   0  0  0  0  0  3  0  0  0  0  0  0
  187.9320  177.9260  139.0500 C   0  0  0  0  0  0  0  0  0  0  0  0
  188.8350  178.1110  140.1060 C   0  0  0  0  0  3  0  0  0  0  0  0
  187.5760  175.7190  136.0840 C   0  0  0  0  0  3  0  0  0  0  0  0
  190.9330  177.5430  141.3310 C   0  0  2  0  0  3  0  0  0  0  0  0
  192.2570  177.5720  140.8760 O   0  0  0  0  0  1  0  0  0  0  0  0
  190.7400  176.5970  142.4390 N   0  0  0  0  0  2  0  0  0  0  0  0
  190.8680  177.2570  143.7360 C   0  0  1  0  0  3  0  0  0  0  0  0
  190.4540  178.7100  143.5960 C   0  0  0  0  0  1  0  0  0  0  0  0
  189.9860  176.5610  144.7610 C   0  0  0  0  0  2  0  0  0  0  0  0
  189.5080  177.5120  145.7540 N   0  0  0  0  0  0  0  0  0  0  0  0
  188.2780  177.1590  147.8080 C   0  0  0  0  0  2  0  0  0  0  0  0
  190.4520  177.5060  146.8630 C   0  0  0  0  0  2  0  0  0  0  0  0
  188.2650  176.9780  146.3000 C   0  0  1  0  0  3  0  0  0  0  0  0
  189.6560  177.6760  148.1360 C   0  0  0  0  0  2  0  0  0  0  0  0
  186.6850  177.3980  144.3450 C   0  0  0  0  0  0  0  0  0  0  0  0
  187.0750  177.6440  145.6740 C   0  0  0  0  0  0  0  0  0  0  0  0
  183.7560  179.4790  144.0300 F   0  0  0  0  0  0  0  0  0  0  0  0
  185.1980  179.1560  145.8970 C   0  0  0  0  0  3  0  0  0  0  0  0
  184.8430  178.8830  144.5750 C   0  0  0  0  0  0  0  0  0  0  0  0
  186.3190  178.5320  146.4450 C   0  0  0  0  0  3  0  0  0  0  0  0
  185.5870  178.0180  143.8340 N   0  0  0  0  0  0  0  0  0  0  0  0
  187.3870  176.5400  143.5630 F   0  0  0  0  0  0  0  0  0  0  0  0
  186.7740  178.7100  138.9440 O   0  0  0  0  0  0  0  0  0  0  0  0
  183.5980  178.6270  140.9530 C   0  0  0  0  0  2  0  0  0  0  0  0
  182.6190  178.6810  139.7780 C   0  0  1  0  0  3  0  0  0  0  0  0
  184.5210  178.3560  138.1750 C   0  0  0  0  0  2  0  0  0  0  0  0
  184.9790  179.1080  140.5150 C   0  0  0  0  0  2  0  0  0  0  0  0
  185.4890  178.2580  139.3510 C   0  0  2  0  0  3  0  0  0  0  0  0
  183.1380  177.8640  138.5920 C   0  0  0  0  0  2  0  0  0  0  0  0
  180.9160  178.5490  141.6550 C   0  0  0  0  0  1  0  0  0  0  0  0
  181.2200  178.2310  140.1960 C   0  0  0  0  0  2  0  0  0  0  0  0
  1  5  1  0  0  0  0
  2 11  1  0  0  0  0
  2 13  1  0  0  0  0
  3 16  1  0  0  0  0
  4  7  1  0  0  0  0
  5  9  2  0  0  0  0
  6  1  1  0  0  0  0
  7  9  1  0  0  0  0
  7 11  2  0  0  0  0
  8  1  2  0  0  0  0
  8  4  1  0  0  0  0
 10  3  2  0  0  0  0
 11 10  1  0  0  0  0
 12  2  2  0  0  0  0
 13 14  2  0  0  0  0
 14  3  1  0  0  0  0
 15  4  2  0  0  0  0
 15 12  1  0  0  0  0
 16 17  1  6  0  0  0
 16 18  1  0  0  0  0
 18 19  1  0  0  0  0
 19 20  1  6  0  0  0
 19 21  1  0  0  0  0
 21 22  1  0  0  0  0
 22 25  1  0  0  0  0
 22 24  1  0  0  0  0
 23 26  1  0  0  0  0
 24 26  1  0  0  0  0
 25 28  1  6  0  0  0
 25 23  1  0  0  0  0
 27 28  1  0  0  0  0
 28 32  2  0  0  0  0
 29 31  1  0  0  0  0
 30 32  1  0  0  0  0
 31 30  2  0  0  0  0
 33 27  2  0  0  0  0
 33 31  1  0  0  0  0
 34 27  1  0  0  0  0
 35 13  1  0  0  0  0
 37 43  1  1  0  0  0
 37 36  1  0  0  0  0
 38 41  1  0  0  0  0
 38 40  1  0  0  0  0
 39 36  1  0  0  0  0
 40 35  1  6  0  0  0
 40 39  1  0  0  0  0
 41 37  1  0  0  0  0
 43 42  1  0  0  0  0
M  END
>  <MODEL>
5

>  <REMARK>
 VINA RESULT:      -9.7      2.471      7.723
  Name = 
  9 active torsions:
  status: ('A' for Active; 'I' for Inactive)
    1  A    between atoms: O_1  and  C_34
    2  A    between atoms: O_1  and  C_35
    3  A    between atoms: C_2  and  N_6
    4  A    between atoms: C_2  and  C_13
    5  A    between atoms: C_3  and  N_4
    6  A    between atoms: C_3  and  C_12
    7  A    between atoms: N_6  and  C_12
    8  A    between atoms: C_14  and  C_22
    9  A    between atoms: C_19  and  C_37
                            x       y       z     vdW  Elec       q    Type
                         _______ _______ _______ _____ _____    ______ ____

>  <TORSDO>
F 9

$$$$
=
 OpenBabel10272414343D

 43 48  0  0  1  0  0  0  0  0999 V2000
  191.3570  176.4730  146.9690 C   0  0  0  0  0  0  0  0  0  0  0  0
  187.1590  177.8820  144.5210 C   0  0  0  0  0  0  0  0  0  0  0  0
  187.8860  178.0630  141.8390 C   0  0  0  0  0  0  0  0  0  0  0  0
  189.0900  177.1210  146.4140 C   0  0  0  0  0  0  0  0  0  0  0  0
  191.7190  176.5670  145.6230 C   0  0  0  0  0  3  0  0  0  0  0  0
  192.3700  176.0800  147.9830 C   0  0  0  0  0  1  0  0  0  0  0  0
  189.4480  177.2140  145.0470 C   0  0  0  0  0  0  0  0  0  0  0  0
  190.0460  176.7510  147.3640 C   0  0  0  0  0  3  0  0  0  0  0  0
  190.7700  176.9370  144.6660 C   0  0  0  0  0  3  0  0  0  0  0  0
  188.7960  177.6810  142.7770 N   0  0  0  0  0  0  0  0  0  0  0  0
  188.4790  177.5890  144.0980 C   0  0  0  0  0  0  0  0  0  0  0  0
  186.8240  177.7840  145.8780 C   0  0  0  0  0  3  0  0  0  0  0  0
  186.2030  178.2700  143.5710 C   0  0  0  0  0  0  0  0  0  0  0  0
  186.5770  178.3590  142.2230 C   0  0  0  0  0  3  0  0  0  0  0  0
  187.7840  177.4050  146.8180 C   0  0  0  0  0  3  0  0  0  0  0  0
  188.2550  178.1510  140.3890 C   0  0  2  0  0  3  0  0  0  0  0  0
  187.1460  178.4940  139.6040 O   0  0  0  0  0  1  0  0  0  0  0  0
  188.9350  176.9430  139.9010 N   0  0  0  0  0  2  0  0  0  0  0  0
  189.4210  177.1160  138.5340 C   0  0  1  0  0  3  0  0  0  0  0  0
  190.9210  177.3470  138.5670 C   0  0  0  0  0  1  0  0  0  0  0  0
  189.1020  175.8780  137.7110 C   0  0  0  0  0  2  0  0  0  0  0  0
  188.2220  176.2150  136.6010 N   0  0  0  0  0  0  0  0  0  0  0  0
  186.0150  177.2060  136.5880 C   0  0  0  0  0  2  0  0  0  0  0  0
  188.3580  177.6420  136.3470 C   0  0  0  0  0  2  0  0  0  0  0  0
  186.8510  176.0330  137.0670 C   0  0  1  0  0  3  0  0  0  0  0  0
  186.9940  178.1650  135.9590 C   0  0  0  0  0  2  0  0  0  0  0  0
  185.0200  174.2630  136.9700 C   0  0  0  0  0  0  0  0  0  0  0  0
  186.2930  174.7240  136.5890 C   0  0  0  0  0  0  0  0  0  0  0  0
  184.7980  171.1330  135.1920 F   0  0  0  0  0  0  0  0  0  0  0  0
  186.5640  172.7290  135.2470 C   0  0  0  0  0  3  0  0  0  0  0  0
  185.2950  172.3080  135.6470 C   0  0  0  0  0  0  0  0  0  0  0  0
  187.0610  173.9420  135.7220 C   0  0  0  0  0  3  0  0  0  0  0  0
  184.5570  173.0770  136.4920 N   0  0  0  0  0  0  0  0  0  0  0  0
  184.2390  174.9930  137.8050 F   0  0  0  0  0  0  0  0  0  0  0  0
  184.8960  178.5730  143.9790 O   0  0  0  0  0  0  0  0  0  0  0  0
  182.7550  178.4270  140.8930 C   0  0  0  0  0  2  0  0  0  0  0  0
  181.3950  178.4130  141.5950 C   0  0  1  0  0  3  0  0  0  0  0  0
  182.5190  178.8980  143.7850 C   0  0  0  0  0  2  0  0  0  0  0  0
  183.8580  178.0200  141.8660 C   0  0  0  0  0  2  0  0  0  0  0  0
  183.8680  178.9560  143.0750 C   0  0  2  0  0  3  0  0  0  0  0  0
  181.4050  179.3170  142.8300 C   0  0  0  0  0  2  0  0  0  0  0  0
  180.7690  179.5510  139.4160 C   0  0  0  0  0  1  0  0  0  0  0  0
  180.2680  178.7890  140.6360 C   0  0  0  0  0  2  0  0  0  0  0  0
  1  8  1  0  0  0  0
  1  6  1  0  0  0  0
  2 12  1  0  0  0  0
  3 14  2  0  0  0  0
  3 10  1  0  0  0  0
  4 15  1  0  0  0  0
  4  8  2  0  0  0  0
  5  1  2  0  0  0  0
  7  4  1  0  0  0  0
  9  7  2  0  0  0  0
  9  5  1  0  0  0  0
 10 11  2  0  0  0  0
 11  2  1  0  0  0  0
 11  7  1  0  0  0  0
 12 15  2  0  0  0  0
 13 35  1  0  0  0  0
 13  2  2  0  0  0  0
 14 13  1  0  0  0  0
 16 17  1  6  0  0  0
 16  3  1  0  0  0  0
 18 16  1  0  0  0  0
 19 20  1  1  0  0  0
 19 18  1  0  0  0  0
 21 19  1  0  0  0  0
 22 25  1  0  0  0  0
 22 21  1  0  0  0  0
 23 25  1  0  0  0  0
 24 22  1  0  0  0  0
 25 28  1  6  0  0  0
 26 24  1  0  0  0  0
 26 23  1  0  0  0  0
 27 34  1  0  0  0  0
 28 27  1  0  0  0  0
 29 31  1  0  0  0  0
 30 31  2  0  0  0  0
 30 32  1  0  0  0  0
 31 33  1  0  0  0  0
 32 28  2  0  0  0  0
 33 27  2  0  0  0  0
 36 37  1  0  0  0  0
 36 39  1  0  0  0  0
 37 43  1  6  0  0  0
 37 41  1  0  0  0  0
 39 40  1  0  0  0  0
 40 38  1  0  0  0  0
 40 35  1  1  0  0  0
 41 38  1  0  0  0  0
 42 43  1  0  0  0  0
M  END
>  <MODEL>
6

>  <REMARK>
 VINA RESULT:      -9.7      1.495      2.241
  Name = 
  9 active torsions:
  status: ('A' for Active; 'I' for Inactive)
    1  A    between atoms: O_1  and  C_34
    2  A    between atoms: O_1  and  C_35
    3  A    between atoms: C_2  and  N_6
    4  A    between atoms: C_2  and  C_13
    5  A    between atoms: C_3  and  N_4
    6  A    between atoms: C_3  and  C_12
    7  A    between atoms: N_6  and  C_12
    8  A    between atoms: C_14  and  C_22
    9  A    between atoms: C_19  and  C_37
                            x       y       z     vdW  Elec       q    Type
                         _______ _______ _______ _____ _____    ______ ____

>  <TORSDO>
F 9

$$$$
=
 OpenBabel10272414343D

 43 48  0  0  1  0  0  0  0  0999 V2000
  190.7130  176.7910  146.3660 C   0  0  0  0  0  0  0  0  0  0  0  0
  188.8140  178.1110  141.8670 C   0  0  0  0  0  0  0  0  0  0  0  0
  186.0730  178.3870  142.2670 C   0  0  0  0  0  0  0  0  0  0  0  0
  190.4480  177.3860  144.0330 C   0  0  0  0  0  0  0  0  0  0  0  0
  189.3380  176.9280  146.5640 C   0  0  0  0  0  3  0  0  0  0  0  0
  191.5890  176.4000  147.5020 C   0  0  0  0  0  1  0  0  0  0  0  0
  189.0530  177.5320  144.2270 C   0  0  0  0  0  0  0  0  0  0  0  0
  191.2680  177.0170  145.1040 C   0  0  0  0  0  3  0  0  0  0  0  0
  188.5100  177.2960  145.4990 C   0  0  0  0  0  3  0  0  0  0  0  0
  186.8910  178.0530  143.3030 N   0  0  0  0  0  0  0  0  0  0  0  0
  188.2350  177.9010  143.1420 C   0  0  0  0  0  0  0  0  0  0  0  0
  190.1970  177.9620  141.6960 C   0  0  0  0  0  3  0  0  0  0  0  0
  187.9910  178.4630  140.7880 C   0  0  0  0  0  0  0  0  0  0  0  0
  186.6120  178.6010  140.9980 C   0  0  0  0  0  3  0  0  0  0  0  0
  191.0090  177.6020  142.7730 C   0  0  0  0  0  3  0  0  0  0  0  0
  184.5960  178.5560  142.4670 C   0  0  2  0  0  3  0  0  0  0  0  0
  184.2560  178.4710  143.8230 O   0  0  0  0  0  1  0  0  0  0  0  0
  183.8020  177.6460  141.6300 N   0  0  0  0  0  2  0  0  0  0  0  0
  182.7670  178.3640  140.8900 C   0  0  1  0  0  3  0  0  0  0  0  0
  181.7850  178.9710  141.8740 C   0  0  0  0  0  1  0  0  0  0  0  0
  183.4020  179.4570  140.0440 C   0  0  0  0  0  2  0  0  0  0  0  0
  183.0130  179.3130  138.6470 N   0  0  0  0  0  0  0  0  0  0  0  0
  181.0600  178.2860  137.6560 C   0  0  0  0  0  2  0  0  0  0  0  0
  182.0450  180.3580  138.3480 C   0  0  0  0  0  2  0  0  0  0  0  0
  182.2790  178.0570  138.5320 C   0  0  1  0  0  3  0  0  0  0  0  0
  181.0270  179.7720  137.3970 C   0  0  0  0  0  2  0  0  0  0  0  0
  183.1080  175.6490  138.4610 C   0  0  0  0  0  0  0  0  0  0  0  0
  183.1570  176.9710  137.9840 C   0  0  0  0  0  0  0  0  0  0  0  0
  185.5730  174.0190  136.3920 F   0  0  0  0  0  0  0  0  0  0  0  0
  184.8660  176.2930  136.4110 C   0  0  0  0  0  3  0  0  0  0  0  0
  184.7850  174.9920  136.9100 C   0  0  0  0  0  0  0  0  0  0  0  0
  184.0470  177.2830  136.9530 C   0  0  0  0  0  3  0  0  0  0  0  0
  183.9160  174.7000  137.9140 N   0  0  0  0  0  0  0  0  0  0  0  0
  182.2550  175.3010  139.4570 F   0  0  0  0  0  0  0  0  0  0  0  0
  188.5510  178.6630  139.5170 O   0  0  0  0  0  0  0  0  0  0  0  0
  188.0200  177.9340  135.8680 C   0  0  0  0  0  2  0  0  0  0  0  0
  188.7640  176.5970  135.8230 C   0  0  1  0  0  3  0  0  0  0  0  0
  188.9430  176.6100  138.3250 C   0  0  0  0  0  2  0  0  0  0  0  0
  188.4350  178.7300  137.1020 C   0  0  0  0  0  2  0  0  0  0  0  0
  188.1620  177.9190  138.3700 C   0  0  2  0  0  3  0  0  0  0  0  0
  188.5290  175.7930  137.1040 C   0  0  0  0  0  2  0  0  0  0  0  0
  188.3840  174.2900  134.8380 C   0  0  0  0  0  1  0  0  0  0  0  0
  188.3880  175.7910  134.5810 C   0  0  0  0  0  2  0  0  0  0  0  0
  1  5  1  0  0  0  0
  1  6  1  0  0  0  0
  2 11  1  0  0  0  0
  3 16  1  0  0  0  0
  3 10  1  0  0  0  0
  4  7  2  0  0  0  0
  4  8  1  0  0  0  0
  7  9  1  0  0  0  0
  8  1  2  0  0  0  0
  9  5  2  0  0  0  0
 11 10  2  0  0  0  0
 11  7  1  0  0  0  0
 12  2  1  0  0  0  0
 12 15  2  0  0  0  0
 13 14  1  0  0  0  0
 13  2  2  0  0  0  0
 14  3  2  0  0  0  0
 15  4  1  0  0  0  0
 16 17  1  1  0  0  0
 18 16  1  0  0  0  0
 19 18  1  0  0  0  0
 19 20  1  1  0  0  0
 21 19  1  0  0  0  0
 22 21  1  0  0  0  0
 23 25  1  0  0  0  0
 24 22  1  0  0  0  0
 25 28  1  6  0  0  0
 25 22  1  0  0  0  0
 26 23  1  0  0  0  0
 26 24  1  0  0  0  0
 27 34  1  0  0  0  0
 28 27  1  0  0  0  0
 29 31  1  0  0  0  0
 30 31  2  0  0  0  0
 30 32  1  0  0  0  0
 31 33  1  0  0  0  0
 32 28  2  0  0  0  0
 33 27  2  0  0  0  0
 35 13  1  0  0  0  0
 36 39  1  0  0  0  0
 37 43  1  6  0  0  0
 37 36  1  0  0  0  0
 37 41  1  0  0  0  0
 38 40  1  0  0  0  0
 39 40  1  0  0  0  0
 40 35  1  1  0  0  0
 41 38  1  0  0  0  0
 43 42  1  0  0  0  0
M  END
>  <MODEL>
7

>  <REMARK>
 VINA RESULT:      -9.6      2.015      6.235
  Name = 
  9 active torsions:
  status: ('A' for Active; 'I' for Inactive)
    1  A    between atoms: O_1  and  C_34
    2  A    between atoms: O_1  and  C_35
    3  A    between atoms: C_2  and  N_6
    4  A    between atoms: C_2  and  C_13
    5  A    between atoms: C_3  and  N_4
    6  A    between atoms: C_3  and  C_12
    7  A    between atoms: N_6  and  C_12
    8  A    between atoms: C_14  and  C_22
    9  A    between atoms: C_19  and  C_37
                            x       y       z     vdW  Elec       q    Type
                         _______ _______ _______ _____ _____    ______ ____

>  <TORSDO>
F 9

$$$$
=
 OpenBabel10272414343D

 43 48  0  0  1  0  0  0  0  0999 V2000
  188.7280  177.4130  146.4260 C   0  0  0  0  0  0  0  0  0  0  0  0
  189.7750  177.6530  141.4820 C   0  0  0  0  0  0  0  0  0  0  0  0
  187.3370  178.1330  140.2260 C   0  0  0  0  0  0  0  0  0  0  0  0
  189.8520  177.4220  144.2790 C   0  0  0  0  0  0  0  0  0  0  0  0
  187.5060  177.6510  145.7930 C   0  0  0  0  0  3  0  0  0  0  0  0
  188.7830  177.2800  147.9050 C   0  0  0  0  0  1  0  0  0  0  0  0
  188.6170  177.6680  143.6310 C   0  0  0  0  0  0  0  0  0  0  0  0
  189.8990  177.2970  145.6710 C   0  0  0  0  0  3  0  0  0  0  0  0
  187.4500  177.7770  144.4020 C   0  0  0  0  0  3  0  0  0  0  0  0
  187.4070  178.0320  141.5820 N   0  0  0  0  0  0  0  0  0  0  0  0
  188.5800  177.7900  142.2290 C   0  0  0  0  0  0  0  0  0  0  0  0
  190.9870  177.4100  142.1420 C   0  0  0  0  0  3  0  0  0  0  0  0
  189.7280  177.7610  140.0840 C   0  0  0  0  0  0  0  0  0  0  0  0
  188.4960  178.0030  139.4600 C   0  0  0  0  0  3  0  0  0  0  0  0
  191.0250  177.2960  143.5330 C   0  0  0  0  0  3  0  0  0  0  0  0
  186.0350  178.4060  139.5340 C   0  0  2  0  0  3  0  0  0  0  0  0
  186.2440  178.8600  138.2250 O   0  0  0  0  0  1  0  0  0  0  0  0
  185.1580  179.2980  140.3050 N   0  0  0  0  0  2  0  0  0  0  0  0
  184.0360  178.5700  140.8930 C   0  0  1  0  0  3  0  0  0  0  0  0
  184.1260  178.6610  142.4050 C   0  0  0  0  0  1  0  0  0  0  0  0
  182.7230  179.1670  140.4120 C   0  0  0  0  0  2  0  0  0  0  0  0
  182.7250  179.3040  138.9620 N   0  0  0  0  0  0  0  0  0  0  0  0
  181.0310  178.7500  137.3270 C   0  0  0  0  0  2  0  0  0  0  0  0
  181.9890  180.5160  138.6320 C   0  0  0  0  0  2  0  0  0  0  0  0
  181.9280  178.2070  138.4240 C   0  0  1  0  0  3  0  0  0  0  0  0
  181.2210  180.2460  137.3580 C   0  0  0  0  0  2  0  0  0  0  0  0
  182.9520  175.8800  138.6020 C   0  0  0  0  0  0  0  0  0  0  0  0
  182.8100  177.1020  137.9200 C   0  0  0  0  0  0  0  0  0  0  0  0
  185.2190  174.0830  136.4470 F   0  0  0  0  0  0  0  0  0  0  0  0
  184.3210  176.2760  136.2190 C   0  0  0  0  0  3  0  0  0  0  0  0
  184.4320  175.0780  136.9250 C   0  0  0  0  0  0  0  0  0  0  0  0
  183.5050  177.2900  136.7220 C   0  0  0  0  0  3  0  0  0  0  0  0
  183.7520  174.9060  138.0900 N   0  0  0  0  0  0  0  0  0  0  0  0
  182.2920  175.6530  139.7650 F   0  0  0  0  0  0  0  0  0  0  0  0
  190.9020  177.6160  139.3320 O   0  0  0  0  0  0  0  0  0  0  0  0
  190.9230  174.4140  137.3630 C   0  0  0  0  0  2  0  0  0  0  0  0
  192.3150  174.5690  136.7470 C   0  0  1  0  0  3  0  0  0  0  0  0
  192.7540  176.5440  138.2310 C   0  0  0  0  0  2  0  0  0  0  0  0
  190.4090  175.7630  137.8580 C   0  0  0  0  0  2  0  0  0  0  0  0
  191.3840  176.3590  138.8740 C   0  0  2  0  0  3  0  0  0  0  0  0
  193.2910  175.2000  137.7440 C   0  0  0  0  0  2  0  0  0  0  0  0
  194.3610  173.2200  136.0880 C   0  0  0  0  0  1  0  0  0  0  0  0
  192.8430  173.2370  136.2180 C   0  0  0  0  0  2  0  0  0  0  0  0
  1  6  1  0  0  0  0
  2 12  1  0  0  0  0
  2 11  1  0  0  0  0
  3 10  1  0  0  0  0
  4  8  1  0  0  0  0
  5  1  1  0  0  0  0
  7  4  2  0  0  0  0
  7  9  1  0  0  0  0
  8  1  2  0  0  0  0
  9  5  2  0  0  0  0
 10 11  2  0  0  0  0
 11  7  1  0  0  0  0
 12 15  2  0  0  0  0
 13  2  2  0  0  0  0
 14 13  1  0  0  0  0
 14  3  2  0  0  0  0
 15  4  1  0  0  0  0
 16 17  1  6  0  0  0
 16  3  1  0  0  0  0
 16 18  1  0  0  0  0
 18 19  1  0  0  0  0
 19 20  1  1  0  0  0
 21 19  1  0  0  0  0
 22 21  1  0  0  0  0
 23 26  1  0  0  0  0
 23 25  1  0  0  0  0
 24 22  1  0  0  0  0
 25 28  1  6  0  0  0
 25 22  1  0  0  0  0
 26 24  1  0  0  0  0
 27 34  1  0  0  0  0
 28 27  2  0  0  0  0
 29 31  1  0  0  0  0
 30 32  2  0  0  0  0
 30 31  1  0  0  0  0
 31 33  2  0  0  0  0
 32 28  1  0  0  0  0
 33 27  1  0  0  0  0
 35 13  1  0  0  0  0
 36 39  1  0  0  0  0
 37 43  1  1  0  0  0
 37 36  1  0  0  0  0
 37 41  1  0  0  0  0
 38 40  1  0  0  0  0
 39 40  1  0  0  0  0
 40 35  1  6  0  0  0
 41 38  1  0  0  0  0
 42 43  1  0  0  0  0
M  END
>  <MODEL>
8

>  <REMARK>
 VINA RESULT:      -9.5      2.306      7.258
  Name = 
  9 active torsions:
  status: ('A' for Active; 'I' for Inactive)
    1  A    between atoms: O_1  and  C_34
    2  A    between atoms: O_1  and  C_35
    3  A    between atoms: C_2  and  N_6
    4  A    between atoms: C_2  and  C_13
    5  A    between atoms: C_3  and  N_4
    6  A    between atoms: C_3  and  C_12
    7  A    between atoms: N_6  and  C_12
    8  A    between atoms: C_14  and  C_22
    9  A    between atoms: C_19  and  C_37
                            x       y       z     vdW  Elec       q    Type
                         _______ _______ _______ _____ _____    ______ ____

>  <TORSDO>
F 9

$$$$
=
 OpenBabel10272414343D

 43 48  0  0  1  0  0  0  0  0999 V2000
  184.9860  178.6250  145.5120 C   0  0  0  0  0  0  0  0  0  0  0  0
  182.4970  178.7930  141.1100 C   0  0  0  0  0  0  0  0  0  0  0  0
  184.4430  178.4930  139.1420 C   0  0  0  0  0  0  0  0  0  0  0  0
  183.2670  178.7750  143.8110 C   0  0  0  0  0  0  0  0  0  0  0  0
  185.9600  178.4770  144.5220 C   0  0  0  0  0  3  0  0  0  0  0  0
  185.3800  178.6250  146.9450 C   0  0  0  0  0  1  0  0  0  0  0  0
  184.2490  178.6210  142.8020 C   0  0  0  0  0  0  0  0  0  0  0  0
  183.6420  178.7750  145.1570 C   0  0  0  0  0  3  0  0  0  0  0  0
  185.5940  178.4760  143.1730 C   0  0  0  0  0  3  0  0  0  0  0  0
  184.7850  178.4710  140.4590 N   0  0  0  0  0  0  0  0  0  0  0  0
  183.8610  178.6230  141.4480 C   0  0  0  0  0  0  0  0  0  0  0  0
  181.5410  178.9430  142.1230 C   0  0  0  0  0  3  0  0  0  0  0  0
  182.1210  178.8100  139.7590 C   0  0  0  0  0  0  0  0  0  0  0  0
  183.1070  178.6580  138.7740 C   0  0  0  0  0  3  0  0  0  0  0  0
  181.9240  178.9330  143.4650 C   0  0  0  0  0  3  0  0  0  0  0  0
  185.4750  178.3170  138.0680 C   0  0  2  0  0  3  0  0  0  0  0  0
  185.2510  177.1430  137.3380 O   0  0  0  0  0  1  0  0  0  0  0  0
  186.8490  178.4060  138.5810 N   0  0  0  0  0  2  0  0  0  0  0  0
  187.8240  177.9760  137.5810 C   0  0  1  0  0  3  0  0  0  0  0  0
  188.7290  179.1440  137.2370 C   0  0  0  0  0  1  0  0  0  0  0  0
  188.6490  176.8210  138.1270 C   0  0  0  0  0  2  0  0  0  0  0  0
  190.0150  177.2500  138.3950 N   0  0  0  0  0  0  0  0  0  0  0  0
  191.9510  175.9840  139.1040 C   0  0  0  0  0  2  0  0  0  0  0  0
  190.8150  176.9340  137.2200 C   0  0  0  0  0  2  0  0  0  0  0  0
  190.5330  176.3970  139.4590 C   0  0  1  0  0  3  0  0  0  0  0  0
  192.1790  176.5010  137.7060 C   0  0  0  0  0  2  0  0  0  0  0  0
  189.2640  177.3920  141.4330 C   0  0  0  0  0  0  0  0  0  0  0  0
  190.4780  177.1010  140.7840 C   0  0  0  0  0  0  0  0  0  0  0  0
  190.4030  178.9970  144.4550 F   0  0  0  0  0  0  0  0  0  0  0  0
  191.6600  178.1090  142.6390 C   0  0  0  0  0  3  0  0  0  0  0  0
  190.4350  178.3770  143.2510 C   0  0  0  0  0  0  0  0  0  0  0  0
  191.6770  177.4680  141.4000 C   0  0  0  0  0  3  0  0  0  0  0  0
  189.2740  178.0160  142.6410 N   0  0  0  0  0  0  0  0  0  0  0  0
  188.0780  177.0480  140.8730 F   0  0  0  0  0  0  0  0  0  0  0  0
  180.7740  178.9880  139.4110 O   0  0  0  0  0  0  0  0  0  0  0  0
  180.4780  182.4850  138.0640 C   0  0  0  0  0  2  0  0  0  0  0  0
  180.8090  182.1640  136.6050 C   0  0  1  0  0  3  0  0  0  0  0  0
  180.6960  179.7100  137.1160 C   0  0  0  0  0  2  0  0  0  0  0  0
  180.9590  181.3600  138.9760 C   0  0  0  0  0  2  0  0  0  0  0  0
  180.3220  180.0340  138.5600 C   0  0  2  0  0  3  0  0  0  0  0  0
  180.2090  180.8190  136.1880 C   0  0  0  0  0  2  0  0  0  0  0  0
  181.0360  184.6160  135.9940 C   0  0  0  0  0  1  0  0  0  0  0  0
  180.3640  183.2880  135.6710 C   0  0  0  0  0  2  0  0  0  0  0  0
  1  6  1  0  0  0  0
  2 11  1  0  0  0  0
  2 12  1  0  0  0  0
  3 10  1  0  0  0  0
  4  8  2  0  0  0  0
  5  1  2  0  0  0  0
  7  9  2  0  0  0  0
  7  4  1  0  0  0  0
  8  1  1  0  0  0  0
  9  5  1  0  0  0  0
 10 11  2  0  0  0  0
 11  7  1  0  0  0  0
 12 15  2  0  0  0  0
 13  2  2  0  0  0  0
 14  3  2  0  0  0  0
 14 13  1  0  0  0  0
 15  4  1  0  0  0  0
 16 17  1  1  0  0  0
 16 18  1  0  0  0  0
 16  3  1  0  0  0  0
 19 20  1  1  0  0  0
 19 21  1  0  0  0  0
 19 18  1  0  0  0  0
 21 22  1  0  0  0  0
 22 25  1  0  0  0  0
 23 25  1  0  0  0  0
 24 26  1  0  0  0  0
 24 22  1  0  0  0  0
 25 28  1  1  0  0  0
 26 23  1  0  0  0  0
 27 33  1  0  0  0  0
 28 32  1  0  0  0  0
 28 27  2  0  0  0  0
 30 31  1  0  0  0  0
 31 29  1  0  0  0  0
 32 30  2  0  0  0  0
 33 31  2  0  0  0  0
 34 27  1  0  0  0  0
 35 13  1  0  0  0  0
 36 39  1  0  0  0  0
 37 43  1  6  0  0  0
 37 36  1  0  0  0  0
 38 40  1  0  0  0  0
 40 39  1  0  0  0  0
 40 35  1  1  0  0  0
 41 37  1  0  0  0  0
 41 38  1  0  0  0  0
 43 42  1  0  0  0  0
M  END
>  <MODEL>
9

>  <REMARK>
 VINA RESULT:      -9.5      2.903      5.758
  Name = 
  9 active torsions:
  status: ('A' for Active; 'I' for Inactive)
    1  A    between atoms: O_1  and  C_34
    2  A    between atoms: O_1  and  C_35
    3  A    between atoms: C_2  and  N_6
    4  A    between atoms: C_2  and  C_13
    5  A    between atoms: C_3  and  N_4
    6  A    between atoms: C_3  and  C_12
    7  A    between atoms: N_6  and  C_12
    8  A    between atoms: C_14  and  C_22
    9  A    between atoms: C_19  and  C_37
                            x       y       z     vdW  Elec       q    Type
                         _______ _______ _______ _____ _____    ______ ____

>  <TORSDO>
F 9

$$$$
