=
 OpenBabel10272415013D

 37 42  0  0  1  0  0  0  0  0999 V2000
  180.2970  178.7050  141.0310 C   0  0  0  0  0  1  0  0  0  0  0  0
  184.9050  178.4120  138.2280 C   0  0  1  0  0  3  0  0  0  0  0  0
  182.9410  179.9970  138.8710 C   0  0  0  0  0  2  0  0  0  0  0  0
  184.6470  176.8720  138.1160 C   0  0  2  0  0  3  0  0  0  0  0  0
  182.8770  175.1600  138.7990 C   0  0  0  0  0  2  0  0  0  0  0  0
  185.2260  176.2770  136.8280 C   0  0  0  0  0  2  0  0  0  0  0  0
  184.1470  179.1940  139.3320 C   0  0  1  0  0  3  0  0  0  0  0  0
  182.8290  176.3390  139.6710 N   0  0  1  0  0  0  0  0  0  0  0  0
  181.5990  178.3710  140.3350 C   0  0  2  0  0  0  0  0  0  0  0  0
  186.8540  178.6520  137.1390 C   0  0  0  0  0  2  0  0  0  0  0  0
  183.9510  178.5010  140.6850 C   0  0  0  0  0  2  0  0  0  0  0  0
  182.6570  178.6860  141.2440 O   0  0  0  0  0  0  0  0  0  0  0  0
  186.2730  178.6600  138.4120 O   0  0  0  0  0  0  0  0  0  0  0  0
  183.1720  176.4870  138.2350 C   0  0  1  0  0  0  0  0  0  0  0  0
  181.6390  179.2310  139.0680 C   0  0  0  0  0  2  0  0  0  0  0  0
  186.7310  176.1970  136.8170 C   0  0  0  0  0  0  0  0  0  0  0  0
  181.5090  176.8720  139.9530 C   0  0  0  0  0  2  0  0  0  0  0  0
  187.4690  177.3100  136.9080 C   0  0  0  0  0  3  0  0  0  0  0  0
  182.4880  177.8770  136.0540 C   0  0  0  0  0  2  0  0  0  0  0  0
  181.2410  178.5760  135.6090 C   0  0  0  0  0  0  0  0  0  0  0  0
  181.2920  175.5870  134.9610 C   0  0  1  0  0  3  0  0  0  0  0  0
  180.2550  177.9650  134.9250 C   0  0  0  0  0  3  0  0  0  0  0  0
  180.2120  176.5350  134.4310 C   0  0  0  0  0  2  0  0  0  0  0  0
  181.4170  175.5470  136.4950 C   0  0  1  0  0  3  0  0  0  0  0  0
  181.0690  174.2500  134.4390 N   0  0  0  0  0  1  0  0  0  0  0  0
  182.1580  176.7690  137.0680 C   0  0  1  0  0  3  0  0  0  0  0  0
  179.9830  174.0790  137.7290 O   0  0  0  0  0  1  0  0  0  0  0  0
  180.0710  175.3610  137.1870 C   0  0  0  0  0  2  0  0  0  0  0  0
  180.7880  180.8650  134.7760 C   0  0  0  0  0  1  0  0  0  0  0  0
  181.0720  180.0080  135.9970 C   0  0  0  0  0  2  0  0  0  0  0  0
  186.6120  173.7170  136.4980 C   0  0  0  0  0  3  0  0  0  0  0  0
  187.3870  174.8810  136.6260 C   0  0  0  0  0  0  0  0  0  0  0  0
  188.7880  174.7700  136.5770 C   0  0  0  0  0  3  0  0  0  0  0  0
  190.7480  173.4310  136.3550 F   0  0  0  0  0  0  0  0  0  0  0  0
  188.6130  172.3740  136.2740 C   0  0  0  0  0  3  0  0  0  0  0  0
  189.3980  173.5240  136.4010 C   0  0  0  0  0  0  0  0  0  0  0  0
  187.2210  172.4710  136.3220 C   0  0  0  0  0  3  0  0  0  0  0  0
  2 13  1  1  0  0  0
  2  7  1  0  0  0  0
  3 15  1  0  0  0  0
  4  6  1  6  0  0  0
  4  2  1  0  0  0  0
  4 14  1  0  0  0  0
  7  3  1  6  0  0  0
  7 11  1  0  0  0  0
  8  5  1  6  0  0  0
  8 17  1  0  0  0  0
  9  1  1  1  0  0  0
  9 12  1  0  0  0  0
 10 13  1  0  0  0  0
 11 12  1  0  0  0  0
 14  5  1  6  0  0  0
 14  8  1  0  0  0  0
 15  9  1  0  0  0  0
 16  6  1  0  0  0  0
 16 18  2  0  0  0  0
 17  9  1  0  0  0  0
 18 10  1  0  0  0  0
 20 30  1  0  0  0  0
 20 19  1  0  0  0  0
 21 25  1  1  0  0  0
 21 24  1  0  0  0  0
 22 20  2  0  0  0  0
 23 22  1  0  0  0  0
 23 21  1  0  0  0  0
 24 26  1  0  0  0  0
 24 28  1  1  0  0  0
 26 19  1  6  0  0  0
 26 14  1  0  0  0  0
 28 27  1  0  0  0  0
 29 30  1  0  0  0  0
 31 32  1  0  0  0  0
 32 16  1  0  0  0  0
 33 32  2  0  0  0  0
 34 36  1  0  0  0  0
 35 37  1  0  0  0  0
 35 36  2  0  0  0  0
 36 33  1  0  0  0  0
 37 31  2  0  0  0  0
M  END
>  <MODEL>
1

>  <REMARK>
 VINA RESULT:      -5.3      0.000      0.000
  Name = 
  4 active torsions:
  status: ('A' for Active; 'I' for Inactive)
    1  A    between atoms: C_5  and  C_23
    2  A    between atoms: C_6  and  C_31
    3  A    between atoms: C_27  and  C_33
    4  A    between atoms: C_29  and  C_36
                            x       y       z     vdW  Elec       q    Type
                         _______ _______ _______ _____ _____    ______ ____

>  <TORSDO>
F 4

$$$$
=
 OpenBabel10272415013D

 37 42  0  0  1  0  0  0  0  0999 V2000
  189.7360  176.1910  134.3460 C   0  0  0  0  0  1  0  0  0  0  0  0
  186.9250  177.7930  138.6700 C   0  0  1  0  0  3  0  0  0  0  0  0
  188.9450  176.3390  137.9060 C   0  0  0  0  0  2  0  0  0  0  0  0
  185.7040  177.9820  137.7090 C   0  0  2  0  0  3  0  0  0  0  0  0
  185.1220  177.6410  135.2440 C   0  0  0  0  0  2  0  0  0  0  0  0
  184.3640  177.7490  138.4170 C   0  0  0  0  0  2  0  0  0  0  0  0
  188.3400  177.7270  138.0390 C   0  0  1  0  0  3  0  0  0  0  0  0
  186.5670  177.8210  135.4210 N   0  0  1  0  0  0  0  0  0  0  0  0
  188.8010  176.7770  135.3810 C   0  0  2  0  0  0  0  0  0  0  0  0
  186.0780  178.4280  140.6520 C   0  0  0  0  0  2  0  0  0  0  0  0
  188.6280  178.6460  136.8470 C   0  0  0  0  0  2  0  0  0  0  0  0
  189.3640  178.0220  135.8030 O   0  0  0  0  0  0  0  0  0  0  0  0
  186.9480  178.8190  139.6280 O   0  0  0  0  0  0  0  0  0  0  0  0
  185.7720  177.1120  136.4540 C   0  0  1  0  0  0  0  0  0  0  0  0
  188.7260  175.7530  136.5170 C   0  0  0  0  0  2  0  0  0  0  0  0
  183.9880  178.8430  139.3830 C   0  0  0  0  0  0  0  0  0  0  0  0
  187.4200  176.9020  134.6910 C   0  0  0  0  0  2  0  0  0  0  0  0
  184.7640  179.1080  140.4410 C   0  0  0  0  0  3  0  0  0  0  0  0
  186.3240  174.7220  137.5220 C   0  0  0  0  0  2  0  0  0  0  0  0
  186.6290  173.3690  136.9570 C   0  0  0  0  0  0  0  0  0  0  0  0
  183.6400  173.9630  137.2280 C   0  0  1  0  0  3  0  0  0  0  0  0
  185.6790  172.4650  136.6550 C   0  0  0  0  0  3  0  0  0  0  0  0
  184.1840  172.5790  136.8600 C   0  0  0  0  0  2  0  0  0  0  0  0
  184.0700  175.0960  136.2790 C   0  0  1  0  0  3  0  0  0  0  0  0
  182.1920  173.9090  137.3260 N   0  0  0  0  0  1  0  0  0  0  0  0
  185.5170  175.5630  136.5180 C   0  0  1  0  0  3  0  0  0  0  0  0
  182.6760  175.3290  134.3460 O   0  0  0  0  0  1  0  0  0  0  0  0
  183.8530  174.7450  134.8110 C   0  0  0  0  0  2  0  0  0  0  0  0
  188.1660  171.7300  135.9140 C   0  0  0  0  0  1  0  0  0  0  0  0
  188.0570  173.0440  136.6680 C   0  0  0  0  0  2  0  0  0  0  0  0
  181.4980  178.9830  139.5880 C   0  0  0  0  0  3  0  0  0  0  0  0
  182.7100  179.5700  139.1940 C   0  0  0  0  0  0  0  0  0  0  0  0
  182.6850  180.8510  138.6140 C   0  0  0  0  0  3  0  0  0  0  0  0
  181.4640  182.7620  137.8770 F   0  0  0  0  0  0  0  0  0  0  0  0
  180.2750  180.9310  138.8340 C   0  0  0  0  0  3  0  0  0  0  0  0
  181.4740  181.5280  138.4360 C   0  0  0  0  0  0  0  0  0  0  0  0
  180.2870  179.6590  139.4100 C   0  0  0  0  0  3  0  0  0  0  0  0
  2 13  1  1  0  0  0
  3  7  1  0  0  0  0
  4  6  1  1  0  0  0
  4  2  1  0  0  0  0
  5  8  1  0  0  0  0
  6 16  1  0  0  0  0
  7 11  1  6  0  0  0
  7  2  1  0  0  0  0
  8 17  1  6  0  0  0
  8 14  1  0  0  0  0
  9  1  1  6  0  0  0
  9 12  1  0  0  0  0
  9 15  1  0  0  0  0
 12 11  1  0  0  0  0
 13 10  1  0  0  0  0
 14  5  1  6  0  0  0
 14 26  1  0  0  0  0
 14  4  1  0  0  0  0
 15  3  1  0  0  0  0
 16 18  2  0  0  0  0
 17  9  1  0  0  0  0
 18 10  1  0  0  0  0
 20 19  1  0  0  0  0
 21 25  1  6  0  0  0
 22 23  1  0  0  0  0
 22 20  2  0  0  0  0
 23 21  1  0  0  0  0
 24 28  1  6  0  0  0
 24 26  1  0  0  0  0
 24 21  1  0  0  0  0
 26 19  1  1  0  0  0
 27 28  1  0  0  0  0
 29 30  1  0  0  0  0
 30 20  1  0  0  0  0
 32 16  1  0  0  0  0
 32 31  2  0  0  0  0
 33 32  1  0  0  0  0
 34 36  1  0  0  0  0
 35 37  2  0  0  0  0
 36 33  2  0  0  0  0
 36 35  1  0  0  0  0
 37 31  1  0  0  0  0
M  END
>  <MODEL>
2

>  <REMARK>
 VINA RESULT:      -4.7      3.276      7.236
  Name = 
  4 active torsions:
  status: ('A' for Active; 'I' for Inactive)
    1  A    between atoms: C_5  and  C_23
    2  A    between atoms: C_6  and  C_31
    3  A    between atoms: C_27  and  C_33
    4  A    between atoms: C_29  and  C_36
                            x       y       z     vdW  Elec       q    Type
                         _______ _______ _______ _____ _____    ______ ____

>  <TORSDO>
F 4

$$$$
=
 OpenBabel10272415013D

 37 42  0  0  1  0  0  0  0  0999 V2000
  179.9970  178.0650  140.7210 C   0  0  0  0  0  1  0  0  0  0  0  0
  184.7070  178.3250  138.0910 C   0  0  1  0  0  3  0  0  0  0  0  0
  182.5820  179.6910  138.7220 C   0  0  0  0  0  2  0  0  0  0  0  0
  184.6000  176.7750  137.9060 C   0  0  2  0  0  3  0  0  0  0  0  0
  182.9750  174.8780  138.4470 C   0  0  0  0  0  2  0  0  0  0  0  0
  185.2770  176.2940  136.6180 C   0  0  0  0  0  2  0  0  0  0  0  0
  183.8410  178.9840  139.1960 C   0  0  1  0  0  3  0  0  0  0  0  0
  182.7860  176.0060  139.3650 N   0  0  1  0  0  0  0  0  0  0  0  0
  181.3480  177.8840  140.0640 C   0  0  2  0  0  0  0  0  0  0  0  0
  186.6630  178.7930  137.0900 C   0  0  0  0  0  2  0  0  0  0  0  0
  183.6630  178.2160  140.5100 C   0  0  0  0  0  2  0  0  0  0  0  0
  182.3390  178.2540  141.0260 O   0  0  0  0  0  0  0  0  0  0  0  0
  186.0390  178.6900  138.3380 O   0  0  0  0  0  0  0  0  0  0  0  0
  183.1640  176.2500  137.9500 C   0  0  1  0  0  0  0  0  0  0  0  0
  181.3510  178.8000  138.8360 C   0  0  0  0  0  2  0  0  0  0  0  0
  186.7820  176.3540  136.6620 C   0  0  0  0  0  0  0  0  0  0  0  0
  181.4130  176.4020  139.6170 C   0  0  0  0  0  2  0  0  0  0  0  0
  187.4090  177.5260  136.8280 C   0  0  0  0  0  3  0  0  0  0  0  0
  180.7370  175.9420  136.8700 C   0  0  0  0  0  2  0  0  0  0  0  0
  180.2370  175.4870  135.5330 C   0  0  0  0  0  0  0  0  0  0  0  0
  180.9530  178.4590  135.6490 C   0  0  1  0  0  3  0  0  0  0  0  0
  180.0540  176.3190  134.4910 C   0  0  0  0  0  3  0  0  0  0  0  0
  180.2440  177.8190  134.4520 C   0  0  0  0  0  2  0  0  0  0  0  0
  182.3100  177.8250  136.0060 C   0  0  1  0  0  3  0  0  0  0  0  0
  181.1060  179.8850  135.4230 N   0  0  0  0  0  1  0  0  0  0  0  0
  182.1700  176.4890  136.7580 C   0  0  1  0  0  3  0  0  0  0  0  0
  183.3010  176.3250  134.4250 O   0  0  0  0  0  1  0  0  0  0  0  0
  183.2200  177.6670  134.7920 C   0  0  0  0  0  2  0  0  0  0  0  0
  180.5500  173.2330  136.5130 C   0  0  0  0  0  1  0  0  0  0  0  0
  179.9870  174.0270  135.3480 C   0  0  0  0  0  2  0  0  0  0  0  0
  187.0310  174.0680  135.6750 C   0  0  0  0  0  3  0  0  0  0  0  0
  187.5650  175.1140  136.4430 C   0  0  0  0  0  0  0  0  0  0  0  0
  188.8460  174.9580  137.0020 C   0  0  0  0  0  3  0  0  0  0  0  0
  190.8090  173.6470  137.3360 F   0  0  0  0  0  0  0  0  0  0  0  0
  189.0320  172.7510  136.0250 C   0  0  0  0  0  3  0  0  0  0  0  0
  189.5760  173.7840  136.7930 C   0  0  0  0  0  0  0  0  0  0  0  0
  187.7600  172.8930  135.4660 C   0  0  0  0  0  3  0  0  0  0  0  0
  2 13  1  1  0  0  0
  2  7  1  0  0  0  0
  3 15  1  0  0  0  0
  4  6  1  6  0  0  0
  4 14  1  0  0  0  0
  4  2  1  0  0  0  0
  6 16  1  0  0  0  0
  7  3  1  6  0  0  0
  7 11  1  0  0  0  0
  8  5  1  6  0  0  0
  8 17  1  0  0  0  0
  9  1  1  1  0  0  0
  9 12  1  0  0  0  0
 10 13  1  0  0  0  0
 11 12  1  0  0  0  0
 14  5  1  6  0  0  0
 14  8  1  0  0  0  0
 15  9  1  0  0  0  0
 16 18  2  0  0  0  0
 17  9  1  0  0  0  0
 18 10  1  0  0  0  0
 20 19  1  0  0  0  0
 21 25  1  6  0  0  0
 21 24  1  0  0  0  0
 22 20  2  0  0  0  0
 23 22  1  0  0  0  0
 23 21  1  0  0  0  0
 24 28  1  6  0  0  0
 24 26  1  0  0  0  0
 26 19  1  1  0  0  0
 26 14  1  0  0  0  0
 27 28  1  0  0  0  0
 30 20  1  0  0  0  0
 30 29  1  0  0  0  0
 31 32  1  0  0  0  0
 32 16  1  0  0  0  0
 32 33  2  0  0  0  0
 35 36  2  0  0  0  0
 36 33  1  0  0  0  0
 36 34  1  0  0  0  0
 37 31  2  0  0  0  0
 37 35  1  0  0  0  0
M  END
>  <MODEL>
3

>  <REMARK>
 VINA RESULT:      -3.3      1.488      2.465
  Name = 
  4 active torsions:
  status: ('A' for Active; 'I' for Inactive)
    1  A    between atoms: C_5  and  C_23
    2  A    between atoms: C_6  and  C_31
    3  A    between atoms: C_27  and  C_33
    4  A    between atoms: C_29  and  C_36
                            x       y       z     vdW  Elec       q    Type
                         _______ _______ _______ _____ _____    ______ ____

>  <TORSDO>
F 4

$$$$
=
 OpenBabel10272415013D

 37 42  0  0  1  0  0  0  0  0999 V2000
  181.9700  182.5090  138.5280 C   0  0  0  0  0  1  0  0  0  0  0  0
  181.0970  177.2130  137.9230 C   0  0  1  0  0  3  0  0  0  0  0  0
  180.0180  179.4320  138.7550 C   0  0  0  0  0  2  0  0  0  0  0  0
  182.6480  177.0260  138.0210 C   0  0  2  0  0  3  0  0  0  0  0  0
  184.7400  178.4450  138.3930 C   0  0  0  0  0  2  0  0  0  0  0  0
  183.0340  175.6740  138.6320 C   0  0  0  0  0  2  0  0  0  0  0  0
  180.5580  178.6270  137.5840 C   0  0  1  0  0  3  0  0  0  0  0  0
  183.6480  179.2560  137.8450 N   0  0  1  0  0  0  0  0  0  0  0  0
  181.9730  181.0200  138.2570 C   0  0  2  0  0  0  0  0  0  0  0  0
  180.3770  175.1060  137.6250 C   0  0  0  0  0  2  0  0  0  0  0  0
  181.3470  179.4620  136.5690 C   0  0  0  0  0  2  0  0  0  0  0  0
  181.4810  180.8310  136.9280 O   0  0  0  0  0  0  0  0  0  0  0  0
  180.5640  176.3300  136.9720 O   0  0  0  0  0  0  0  0  0  0  0  0
  183.3530  178.1470  138.7850 C   0  0  1  0  0  0  0  0  0  0  0  0
  181.0610  180.3920  139.3160 C   0  0  0  0  0  2  0  0  0  0  0  0
  182.7800  174.5000  137.7210 C   0  0  0  0  0  0  0  0  0  0  0  0
  183.4330  180.5470  138.4710 C   0  0  0  0  0  2  0  0  0  0  0  0
  181.5370  174.2200  137.3070 C   0  0  0  0  0  3  0  0  0  0  0  0
  184.2580  179.1450  141.0960 C   0  0  0  0  0  2  0  0  0  0  0  0
  184.5850  178.5550  142.4330 C   0  0  0  0  0  0  0  0  0  0  0  0
  181.6330  179.2750  142.0760 C   0  0  1  0  0  3  0  0  0  0  0  0
  183.6790  178.4130  143.4180 C   0  0  0  0  0  3  0  0  0  0  0  0
  182.2280  178.8430  143.4200 C   0  0  0  0  0  2  0  0  0  0  0  0
  181.8170  178.2580  140.9350 C   0  0  1  0  0  3  0  0  0  0  0  0
  180.2260  179.5950  142.2440 N   0  0  0  0  0  1  0  0  0  0  0  0
  183.2410  178.2670  140.3470 C   0  0  1  0  0  3  0  0  0  0  0  0
  180.0830  176.6080  140.9820 O   0  0  0  0  0  1  0  0  0  0  0  0
  181.4100  176.8450  141.3380 C   0  0  0  0  0  2  0  0  0  0  0  0
  186.2740  177.9270  144.1320 C   0  0  0  0  0  1  0  0  0  0  0  0
  185.9740  178.0550  142.6490 C   0  0  0  0  0  2  0  0  0  0  0  0
  185.2310  174.0090  137.6000 C   0  0  0  0  0  3  0  0  0  0  0  0
  183.9080  173.6120  137.3500 C   0  0  0  0  0  0  0  0  0  0  0  0
  183.6780  172.3670  136.7370 C   0  0  0  0  0  3  0  0  0  0  0  0
  184.5130  170.3420  135.7980 F   0  0  0  0  0  0  0  0  0  0  0  0
  186.0600  171.9460  136.6430 C   0  0  0  0  0  3  0  0  0  0  0  0
  184.7480  171.5380  136.3870 C   0  0  0  0  0  0  0  0  0  0  0  0
  186.3020  173.1800  137.2490 C   0  0  0  0  0  3  0  0  0  0  0  0
  2 13  1  6  0  0  0
  2  4  1  0  0  0  0
  3 15  1  0  0  0  0
  4  6  1  1  0  0  0
  4 14  1  0  0  0  0
  7 11  1  1  0  0  0
  7  2  1  0  0  0  0
  7  3  1  0  0  0  0
  8  5  1  1  0  0  0
  8 17  1  0  0  0  0
  8 14  1  0  0  0  0
  9 17  1  0  0  0  0
  9  1  1  1  0  0  0
  9 15  1  0  0  0  0
 11 12  1  0  0  0  0
 12  9  1  0  0  0  0
 13 10  1  0  0  0  0
 14  5  1  6  0  0  0
 14 26  1  0  0  0  0
 16  6  1  0  0  0  0
 18 10  1  0  0  0  0
 18 16  2  0  0  0  0
 19 20  1  0  0  0  0
 20 30  1  0  0  0  0
 20 22  2  0  0  0  0
 21 25  1  1  0  0  0
 21 23  1  0  0  0  0
 22 23  1  0  0  0  0
 24 28  1  1  0  0  0
 24 21  1  0  0  0  0
 26 24  1  0  0  0  0
 26 19  1  6  0  0  0
 27 28  1  0  0  0  0
 30 29  1  0  0  0  0
 32 31  1  0  0  0  0
 32 16  1  0  0  0  0
 33 32  2  0  0  0  0
 34 36  1  0  0  0  0
 35 37  1  0  0  0  0
 36 35  2  0  0  0  0
 36 33  1  0  0  0  0
 37 31  2  0  0  0  0
M  END
>  <MODEL>
4

>  <REMARK>
 VINA RESULT:      -2.9      2.704      5.636
  Name = 
  4 active torsions:
  status: ('A' for Active; 'I' for Inactive)
    1  A    between atoms: C_5  and  C_23
    2  A    between atoms: C_6  and  C_31
    3  A    between atoms: C_27  and  C_33
    4  A    between atoms: C_29  and  C_36
                            x       y       z     vdW  Elec       q    Type
                         _______ _______ _______ _____ _____    ______ ____

>  <TORSDO>
F 4

$$$$
=
 OpenBabel10272415013D

 37 42  0  0  1  0  0  0  0  0999 V2000
  180.4930  179.4530  134.7840 C   0  0  0  0  0  1  0  0  0  0  0  0
  181.3080  174.4200  136.5670 C   0  0  1  0  0  3  0  0  0  0  0  0
  179.9940  176.6200  137.0310 C   0  0  0  0  0  2  0  0  0  0  0  0
  182.7180  174.4930  135.8910 C   0  0  2  0  0  3  0  0  0  0  0  0
  184.1510  176.1680  134.5990 C   0  0  0  0  0  2  0  0  0  0  0  0
  183.7590  173.6380  136.6230 C   0  0  0  0  0  2  0  0  0  0  0  0
  180.2310  175.4370  136.1060 C   0  0  1  0  0  3  0  0  0  0  0  0
  182.7260  176.4900  134.4710 N   0  0  1  0  0  0  0  0  0  0  0  0
  180.8890  178.0220  135.0760 C   0  0  2  0  0  0  0  0  0  0  0  0
  181.2940  172.3450  137.4270 C   0  0  0  0  0  2  0  0  0  0  0  0
  180.1850  175.7940  134.6160 C   0  0  0  0  0  2  0  0  0  0  0  0
  179.9820  177.1790  134.3620 O   0  0  0  0  0  0  0  0  0  0  0  0
  180.7610  173.1380  136.4050 O   0  0  0  0  0  0  0  0  0  0  0  0
  183.2500  175.9180  135.7360 C   0  0  1  0  0  0  0  0  0  0  0  0
  180.7790  177.8500  136.5940 C   0  0  0  0  0  2  0  0  0  0  0  0
  183.5630  172.1550  136.4440 C   0  0  0  0  0  0  0  0  0  0  0  0
  182.3680  177.8870  134.6350 C   0  0  0  0  0  2  0  0  0  0  0  0
  182.4390  171.5640  136.8700 C   0  0  0  0  0  3  0  0  0  0  0  0
  184.7490  177.8970  136.7320 C   0  0  0  0  0  2  0  0  0  0  0  0
  185.7380  177.9970  137.8520 C   0  0  0  0  0  0  0  0  0  0  0  0
  182.8280  178.3590  138.7230 C   0  0  1  0  0  3  0  0  0  0  0  0
  185.3910  178.2860  139.1200 C   0  0  0  0  0  3  0  0  0  0  0  0
  184.0150  178.6130  139.6580 C   0  0  0  0  0  2  0  0  0  0  0  0
  182.7720  176.9410  138.1270 C   0  0  1  0  0  3  0  0  0  0  0  0
  181.5870  178.6650  139.4130 N   0  0  0  0  0  1  0  0  0  0  0  0
  183.7700  176.7350  136.9720 C   0  0  1  0  0  3  0  0  0  0  0  0
  181.7250  175.6200  139.8280 O   0  0  0  0  0  1  0  0  0  0  0  0
  182.9390  175.8540  139.1830 C   0  0  0  0  0  2  0  0  0  0  0  0
  188.0470  177.9790  138.7500 C   0  0  0  0  0  1  0  0  0  0  0  0
  187.1690  177.7050  137.5420 C   0  0  0  0  0  2  0  0  0  0  0  0
  184.4510  169.9870  135.5640 C   0  0  0  0  0  3  0  0  0  0  0  0
  184.6580  171.3430  135.8620 C   0  0  0  0  0  0  0  0  0  0  0  0
  185.9200  171.9070  135.6050 C   0  0  0  0  0  3  0  0  0  0  0  0
  188.1590  171.6890  134.8170 F   0  0  0  0  0  0  0  0  0  0  0  0
  186.7280  169.7840  134.7680 C   0  0  0  0  0  3  0  0  0  0  0  0
  186.9490  171.1320  135.0600 C   0  0  0  0  0  0  0  0  0  0  0  0
  185.4800  169.2110  135.0200 C   0  0  0  0  0  3  0  0  0  0  0  0
  2 13  1  6  0  0  0
  4  2  1  0  0  0  0
  4  6  1  1  0  0  0
  7 11  1  6  0  0  0
  7  2  1  0  0  0  0
  7  3  1  0  0  0  0
  8  5  1  6  0  0  0
  8 17  1  0  0  0  0
  8 14  1  0  0  0  0
  9  1  1  6  0  0  0
  9 15  1  0  0  0  0
 12 11  1  0  0  0  0
 12  9  1  0  0  0  0
 13 10  1  0  0  0  0
 14  5  1  6  0  0  0
 14  4  1  0  0  0  0
 14 26  1  0  0  0  0
 15  3  1  0  0  0  0
 16  6  1  0  0  0  0
 16 18  2  0  0  0  0
 17  9  1  0  0  0  0
 18 10  1  0  0  0  0
 19 20  1  0  0  0  0
 20 22  2  0  0  0  0
 21 25  1  1  0  0  0
 21 23  1  0  0  0  0
 22 23  1  0  0  0  0
 24 21  1  0  0  0  0
 24 28  1  1  0  0  0
 26 19  1  6  0  0  0
 26 24  1  0  0  0  0
 28 27  1  0  0  0  0
 30 20  1  0  0  0  0
 30 29  1  0  0  0  0
 31 32  1  0  0  0  0
 32 16  1  0  0  0  0
 33 32  2  0  0  0  0
 34 36  1  0  0  0  0
 35 37  1  0  0  0  0
 35 36  2  0  0  0  0
 36 33  1  0  0  0  0
 37 31  2  0  0  0  0
M  END
>  <MODEL>
5

>  <REMARK>
 VINA RESULT:      -2.7      2.329      5.374
  Name = 
  4 active torsions:
  status: ('A' for Active; 'I' for Inactive)
    1  A    between atoms: C_5  and  C_23
    2  A    between atoms: C_6  and  C_31
    3  A    between atoms: C_27  and  C_33
    4  A    between atoms: C_29  and  C_36
                            x       y       z     vdW  Elec       q    Type
                         _______ _______ _______ _____ _____    ______ ____

>  <TORSDO>
F 4

$$$$
