=
 OpenBabel10272401123D

 27 31  0  0  0  0  0  0  0  0999 V2000
  190.5540  177.9200  142.1690 C   0  0  0  0  0  2  0  0  0  0  0  0
  188.2680  178.0720  141.1920 C   0  0  0  0  0  0  0  0  0  0  0  0
  187.7650  177.5890  143.5180 O   0  0  0  0  0  0  0  0  0  0  0  0
  187.5370  178.5480  140.0700 N   0  0  0  0  0  0  0  0  0  0  0  0
  190.3740  176.1300  147.2390 F   0  0  0  0  0  0  0  0  0  0  0  0
  190.3390  176.8430  146.0880 C   0  0  0  0  0  0  0  0  0  0  0  0
  189.6210  177.6000  141.1270 N   0  0  0  0  0  0  0  0  0  0  0  0
  186.2000  178.5280  141.8250 N   0  0  0  0  0  0  0  0  0  0  0  0
  190.3020  177.9090  143.4780 C   0  0  0  0  0  0  0  0  0  0  0  0
  187.4790  178.0560  142.2350 C   0  0  0  0  0  0  0  0  0  0  0  0
  189.0720  176.9620  145.3430 C   0  0  0  0  0  2  0  0  0  0  0  0
  186.2160  178.8530  140.4540 N   0  0  0  0  0  0  0  0  0  0  0  0
  191.4570  177.4050  145.6220 C   0  0  0  0  0  3  0  0  0  0  0  0
  191.4490  178.2580  144.3830 C   0  0  0  0  0  2  0  0  0  0  0  0
  189.0260  177.4680  144.1060 C   0  0  0  0  0  0  0  0  0  0  0  0
  183.7570  178.6770  142.0560 C   0  0  0  0  0  3  0  0  0  0  0  0
  182.7260  178.9740  144.2260 C   0  0  0  0  0  3  0  0  0  0  0  0
  183.9890  178.9770  144.8250 C   0  0  0  0  0  3  0  0  0  0  0  0
  185.1350  178.8300  144.0380 C   0  0  0  0  0  3  0  0  0  0  0  0
  185.0290  178.6780  142.6460 C   0  0  0  0  0  0  0  0  0  0  0  0
  182.6100  178.8240  142.8420 C   0  0  0  0  0  3  0  0  0  0  0  0
  191.1440  176.0490  137.4640 C   0  0  0  0  0  3  0  0  0  0  0  0
  190.1370  177.0560  139.8910 C   0  0  0  0  0  0  0  0  0  0  0  0
  191.5200  177.0360  139.6410 C   0  0  0  0  0  3  0  0  0  0  0  0
  192.0210  176.5320  138.4380 C   0  0  0  0  0  3  0  0  0  0  0  0
  189.7670  176.0710  137.6930 C   0  0  0  0  0  3  0  0  0  0  0  0
  189.2660  176.5750  138.8970 C   0  0  0  0  0  3  0  0  0  0  0  0
  1  9  1  0  0  0  0
  2 10  2  0  0  0  0
  3 15  1  0  0  0  0
  4 12  2  0  0  0  0
  4  2  1  0  0  0  0
  6  5  1  0  0  0  0
  7  2  1  0  0  0  0
  7  1  1  0  0  0  0
  8 10  1  0  0  0  0
  8 20  1  0  0  0  0
  9 15  2  0  0  0  0
  9 14  1  0  0  0  0
 10  3  1  0  0  0  0
 11  6  1  0  0  0  0
 12  8  1  0  0  0  0
 13  6  2  0  0  0  0
 14 13  1  0  0  0  0
 15 11  1  0  0  0  0
 16 20  2  0  0  0  0
 16 21  1  0  0  0  0
 17 18  1  0  0  0  0
 19 18  2  0  0  0  0
 20 19  1  0  0  0  0
 21 17  2  0  0  0  0
 22 26  2  0  0  0  0
 22 25  1  0  0  0  0
 23  7  1  0  0  0  0
 24 23  1  0  0  0  0
 25 24  2  0  0  0  0
 26 27  1  0  0  0  0
 27 23  2  0  0  0  0
M  END
>  <MODEL>
1

>  <REMARK>
 VINA RESULT:     -10.1      0.000      0.000
  Name = 
  2 active torsions:
  status: ('A' for Active; 'I' for Inactive)
    1  A    between atoms: C_9  and  N_15
    2  A    between atoms: C_14  and  N_17
                            x       y       z     vdW  Elec       q    Type
                         _______ _______ _______ _____ _____    ______ ____

>  <TORSDO>
F 2

$$$$
=
 OpenBabel10272401123D

 27 31  0  0  0  0  0  0  0  0999 V2000
  190.0950  178.0300  141.8950 C   0  0  0  0  0  2  0  0  0  0  0  0
  187.8400  178.1090  140.8400 C   0  0  0  0  0  0  0  0  0  0  0  0
  187.2670  177.7710  143.1750 O   0  0  0  0  0  0  0  0  0  0  0  0
  187.1430  178.5110  139.6690 N   0  0  0  0  0  0  0  0  0  0  0  0
  189.7640  176.5600  147.0590 F   0  0  0  0  0  0  0  0  0  0  0  0
  189.7620  177.1990  145.8650 C   0  0  0  0  0  0  0  0  0  0  0  0
  189.1960  177.6410  140.8470 N   0  0  0  0  0  0  0  0  0  0  0  0
  185.7520  178.5950  141.3800 N   0  0  0  0  0  0  0  0  0  0  0  0
  189.8030  178.1000  143.1930 C   0  0  0  0  0  0  0  0  0  0  0  0
  187.0190  178.1550  141.8580 C   0  0  0  0  0  0  0  0  0  0  0  0
  188.5180  177.2650  145.0760 C   0  0  0  0  0  2  0  0  0  0  0  0
  185.8100  178.8330  139.9920 N   0  0  0  0  0  0  0  0  0  0  0  0
  190.8920  177.7360  145.4000 C   0  0  0  0  0  3  0  0  0  0  0  0
  190.9200  178.5100  144.1100 C   0  0  0  0  0  2  0  0  0  0  0  0
  188.5100  177.6920  143.8090 C   0  0  0  0  0  0  0  0  0  0  0  0
  184.6390  179.3470  143.4390 C   0  0  0  0  0  3  0  0  0  0  0  0
  182.2370  179.1780  143.6890 C   0  0  0  0  0  3  0  0  0  0  0  0
  182.1430  178.6230  142.4100 C   0  0  0  0  0  3  0  0  0  0  0  0
  183.2980  178.4300  141.6460 C   0  0  0  0  0  3  0  0  0  0  0  0
  184.5570  178.7900  142.1530 C   0  0  0  0  0  0  0  0  0  0  0  0
  183.4840  179.5400  144.2030 C   0  0  0  0  0  3  0  0  0  0  0  0
  190.8190  175.7690  137.3810 C   0  0  0  0  0  3  0  0  0  0  0  0
  189.7510  177.0230  139.6640 C   0  0  0  0  0  0  0  0  0  0  0  0
  188.9160  176.6300  138.6040 C   0  0  0  0  0  3  0  0  0  0  0  0
  189.4460  176.0120  137.4680 C   0  0  0  0  0  3  0  0  0  0  0  0
  191.6610  176.1440  138.4310 C   0  0  0  0  0  3  0  0  0  0  0  0
  191.1300  176.7640  139.5660 C   0  0  0  0  0  3  0  0  0  0  0  0
  1  9  1  0  0  0  0
  2  7  1  0  0  0  0
  2 10  2  0  0  0  0
  3 15  1  0  0  0  0
  4 12  2  0  0  0  0
  4  2  1  0  0  0  0
  6  5  1  0  0  0  0
  7  1  1  0  0  0  0
  8 10  1  0  0  0  0
  8 20  1  0  0  0  0
  9 15  2  0  0  0  0
  9 14  1  0  0  0  0
 10  3  1  0  0  0  0
 11  6  1  0  0  0  0
 12  8  1  0  0  0  0
 13  6  2  0  0  0  0
 14 13  1  0  0  0  0
 15 11  1  0  0  0  0
 16 21  1  0  0  0  0
 17 21  2  0  0  0  0
 18 17  1  0  0  0  0
 19 20  1  0  0  0  0
 19 18  2  0  0  0  0
 20 16  2  0  0  0  0
 22 25  2  0  0  0  0
 22 26  1  0  0  0  0
 23  7  1  0  0  0  0
 24 23  2  0  0  0  0
 25 24  1  0  0  0  0
 26 27  2  0  0  0  0
 27 23  1  0  0  0  0
M  END
>  <MODEL>
2

>  <REMARK>
 VINA RESULT:      -9.6      0.638      1.443
  Name = 
  2 active torsions:
  status: ('A' for Active; 'I' for Inactive)
    1  A    between atoms: C_9  and  N_15
    2  A    between atoms: C_14  and  N_17
                            x       y       z     vdW  Elec       q    Type
                         _______ _______ _______ _____ _____    ______ ____

>  <TORSDO>
F 2

$$$$
=
 OpenBabel10272401123D

 27 31  0  0  0  0  0  0  0  0999 V2000
  189.8230  177.8190  140.0870 C   0  0  0  0  0  2  0  0  0  0  0  0
  187.3630  178.2030  140.1550 C   0  0  0  0  0  0  0  0  0  0  0  0
  187.7860  177.4030  142.4080 O   0  0  0  0  0  0  0  0  0  0  0  0
  186.2940  178.8680  139.4950 N   0  0  0  0  0  0  0  0  0  0  0  0
  191.5120  175.3100  144.5350 F   0  0  0  0  0  0  0  0  0  0  0  0
  191.0880  176.1860  143.5930 C   0  0  0  0  0  0  0  0  0  0  0  0
  188.5250  177.6930  139.4870 N   0  0  0  0  0  0  0  0  0  0  0  0
  185.7740  178.6420  141.6270 N   0  0  0  0  0  0  0  0  0  0  0  0
  190.1140  177.6260  141.3730 C   0  0  0  0  0  0  0  0  0  0  0  0
  187.0580  178.0650  141.4200 C   0  0  0  0  0  0  0  0  0  0  0  0
  189.6470  176.4630  143.4510 C   0  0  0  0  0  2  0  0  0  0  0  0
  185.2720  179.1640  140.4190 N   0  0  0  0  0  0  0  0  0  0  0  0
  191.9760  176.7660  142.7810 C   0  0  0  0  0  3  0  0  0  0  0  0
  191.5550  177.7920  141.7650 C   0  0  0  0  0  2  0  0  0  0  0  0
  189.1600  177.1470  142.4110 C   0  0  0  0  0  0  0  0  0  0  0  0
  183.6500  178.8270  142.8530 C   0  0  0  0  0  3  0  0  0  0  0  0
  183.6080  178.8660  145.2730 C   0  0  0  0  0  3  0  0  0  0  0  0
  185.0000  178.7550  145.2990 C   0  0  0  0  0  3  0  0  0  0  0  0
  185.7170  178.6810  144.1000 C   0  0  0  0  0  3  0  0  0  0  0  0
  185.0490  178.7160  142.8670 C   0  0  0  0  0  0  0  0  0  0  0  0
  182.9330  178.9010  144.0500 C   0  0  0  0  0  3  0  0  0  0  0  0
  188.3470  176.5520  135.3870 C   0  0  0  0  0  3  0  0  0  0  0  0
  188.4500  177.3170  138.0940 C   0  0  0  0  0  0  0  0  0  0  0  0
  187.8080  176.1280  137.7080 C   0  0  0  0  0  3  0  0  0  0  0  0
  187.7530  175.7490  136.3640 C   0  0  0  0  0  3  0  0  0  0  0  0
  188.9970  177.7320  135.7550 C   0  0  0  0  0  3  0  0  0  0  0  0
  189.0510  178.1100  137.1000 C   0  0  0  0  0  3  0  0  0  0  0  0
  1  9  1  0  0  0  0
  2 10  2  0  0  0  0
  3 15  1  0  0  0  0
  4  2  1  0  0  0  0
  4 12  2  0  0  0  0
  6  5  1  0  0  0  0
  7  1  1  0  0  0  0
  7  2  1  0  0  0  0
  8 20  1  0  0  0  0
  9 14  1  0  0  0  0
  9 15  2  0  0  0  0
 10  8  1  0  0  0  0
 10  3  1  0  0  0  0
 11  6  1  0  0  0  0
 12  8  1  0  0  0  0
 13  6  2  0  0  0  0
 14 13  1  0  0  0  0
 15 11  1  0  0  0  0
 16 20  2  0  0  0  0
 16 21  1  0  0  0  0
 17 18  1  0  0  0  0
 19 18  2  0  0  0  0
 20 19  1  0  0  0  0
 21 17  2  0  0  0  0
 22 26  2  0  0  0  0
 22 25  1  0  0  0  0
 23  7  1  0  0  0  0
 24 23  1  0  0  0  0
 25 24  2  0  0  0  0
 26 27  1  0  0  0  0
 27 23  2  0  0  0  0
M  END
>  <MODEL>
3

>  <REMARK>
 VINA RESULT:      -9.2      1.696      2.266
  Name = 
  2 active torsions:
  status: ('A' for Active; 'I' for Inactive)
    1  A    between atoms: C_9  and  N_15
    2  A    between atoms: C_14  and  N_17
                            x       y       z     vdW  Elec       q    Type
                         _______ _______ _______ _____ _____    ______ ____

>  <TORSDO>
F 2

$$$$
=
 OpenBabel10272401123D

 27 31  0  0  0  0  0  0  0  0999 V2000
  186.1180  178.6910  140.8360 C   0  0  0  0  0  2  0  0  0  0  0  0
  185.4820  178.4510  143.2320 C   0  0  0  0  0  0  0  0  0  0  0  0
  187.7170  177.5020  143.2300 O   0  0  0  0  0  0  0  0  0  0  0  0
  184.5740  178.9130  144.2220 N   0  0  0  0  0  0  0  0  0  0  0  0
  190.7320  176.1300  139.7940 F   0  0  0  0  0  0  0  0  0  0  0  0
  189.7530  176.9870  140.1680 C   0  0  0  0  0  0  0  0  0  0  0  0
  185.1590  178.3290  141.8400 N   0  0  0  0  0  0  0  0  0  0  0  0
  186.4460  178.3010  145.2160 N   0  0  0  0  0  0  0  0  0  0  0  0
  187.4210  178.4130  140.8600 C   0  0  0  0  0  0  0  0  0  0  0  0
  186.5940  178.0850  143.8170 C   0  0  0  0  0  0  0  0  0  0  0  0
  189.2100  176.9200  141.5370 C   0  0  0  0  0  2  0  0  0  0  0  0
  185.1720  178.8330  145.4950 N   0  0  0  0  0  0  0  0  0  0  0  0
  189.2670  177.8630  139.2860 C   0  0  0  0  0  3  0  0  0  0  0  0
  188.2250  178.8750  139.6780 C   0  0  0  0  0  2  0  0  0  0  0  0
  188.1090  177.5900  141.8920 C   0  0  0  0  0  0  0  0  0  0  0  0
  187.1070  178.2870  147.5840 C   0  0  0  0  0  3  0  0  0  0  0  0
  189.3090  177.5390  148.2580 C   0  0  0  0  0  3  0  0  0  0  0  0
  189.6320  177.2880  146.9230 C   0  0  0  0  0  3  0  0  0  0  0  0
  188.6920  177.5370  145.9180 C   0  0  0  0  0  3  0  0  0  0  0  0
  187.4210  178.0380  146.2390 C   0  0  0  0  0  0  0  0  0  0  0  0
  188.0460  178.0380  148.5890 C   0  0  0  0  0  3  0  0  0  0  0  0
  181.1220  177.7650  140.6020 C   0  0  0  0  0  3  0  0  0  0  0  0
  183.7870  178.1240  141.4340 C   0  0  0  0  0  0  0  0  0  0  0  0
  183.4810  177.2880  140.3460 C   0  0  0  0  0  3  0  0  0  0  0  0
  182.1570  177.1060  139.9350 C   0  0  0  0  0  3  0  0  0  0  0  0
  181.4110  178.6070  141.6790 C   0  0  0  0  0  3  0  0  0  0  0  0
  182.7350  178.7880  142.0900 C   0  0  0  0  0  3  0  0  0  0  0  0
  1  9  1  0  0  0  0
  1  7  1  0  0  0  0
  2 10  2  0  0  0  0
  2  4  1  0  0  0  0
  3 10  1  0  0  0  0
  4 12  2  0  0  0  0
  5  6  1  0  0  0  0
  6 11  1  0  0  0  0
  7  2  1  0  0  0  0
  8 12  1  0  0  0  0
  8 20  1  0  0  0  0
  9 15  2  0  0  0  0
 10  8  1  0  0  0  0
 11 15  1  0  0  0  0
 13 14  1  0  0  0  0
 13  6  2  0  0  0  0
 14  9  1  0  0  0  0
 15  3  1  0  0  0  0
 16 21  1  0  0  0  0
 17 21  2  0  0  0  0
 18 17  1  0  0  0  0
 19 20  1  0  0  0  0
 19 18  2  0  0  0  0
 20 16  2  0  0  0  0
 22 26  1  0  0  0  0
 23  7  1  0  0  0  0
 23 27  1  0  0  0  0
 24 23  2  0  0  0  0
 25 24  1  0  0  0  0
 25 22  2  0  0  0  0
 26 27  2  0  0  0  0
M  END
>  <MODEL>
4

>  <REMARK>
 VINA RESULT:      -8.8      2.520      6.213
  Name = 
  2 active torsions:
  status: ('A' for Active; 'I' for Inactive)
    1  A    between atoms: C_9  and  N_15
    2  A    between atoms: C_14  and  N_17
                            x       y       z     vdW  Elec       q    Type
                         _______ _______ _______ _____ _____    ______ ____

>  <TORSDO>
F 2

$$$$
=
 OpenBabel10272401123D

 27 31  0  0  0  0  0  0  0  0999 V2000
  188.6150  176.7560  144.0020 C   0  0  0  0  0  2  0  0  0  0  0  0
  186.3650  177.8200  144.0920 C   0  0  0  0  0  0  0  0  0  0  0  0
  187.0430  178.3220  141.8150 O   0  0  0  0  0  0  0  0  0  0  0  0
  185.1440  177.8460  144.8200 N   0  0  0  0  0  0  0  0  0  0  0  0
  191.1790  178.0380  139.4500 F   0  0  0  0  0  0  0  0  0  0  0  0
  190.3880  177.5190  140.4190 C   0  0  0  0  0  0  0  0  0  0  0  0
  187.6470  177.5670  144.6830 N   0  0  0  0  0  0  0  0  0  0  0  0
  184.7270  178.3970  142.7250 N   0  0  0  0  0  0  0  0  0  0  0  0
  188.8950  176.7970  142.7000 C   0  0  0  0  0  0  0  0  0  0  0  0
  186.1230  178.1480  142.8490 C   0  0  0  0  0  0  0  0  0  0  0  0
  189.0500  178.0930  140.6530 C   0  0  0  0  0  2  0  0  0  0  0  0
  184.0850  178.2050  143.9640 N   0  0  0  0  0  0  0  0  0  0  0  0
  190.8390  176.5140  141.1730 C   0  0  0  0  0  3  0  0  0  0  0  0
  189.9710  175.8660  142.2160 C   0  0  0  0  0  2  0  0  0  0  0  0
  188.3200  177.7640  141.7240 C   0  0  0  0  0  0  0  0  0  0  0  0
  182.6170  178.7880  141.5240 C   0  0  0  0  0  3  0  0  0  0  0  0
  182.6150  179.5360  139.2210 C   0  0  0  0  0  3  0  0  0  0  0  0
  184.0120  179.5370  139.2200 C   0  0  0  0  0  3  0  0  0  0  0  0
  184.7110  179.1630  140.3720 C   0  0  0  0  0  3  0  0  0  0  0  0
  184.0200  178.7860  141.5340 C   0  0  0  0  0  0  0  0  0  0  0  0
  181.9170  179.1620  140.3720 C   0  0  0  0  0  3  0  0  0  0  0  0
  188.2960  178.4130  148.8070 C   0  0  0  0  0  3  0  0  0  0  0  0
  187.8710  177.8720  146.0770 C   0  0  0  0  0  0  0  0  0  0  0  0
  189.1100  177.5940  146.6810 C   0  0  0  0  0  3  0  0  0  0  0  0
  189.3230  177.8660  148.0350 C   0  0  0  0  0  3  0  0  0  0  0  0
  187.0560  178.6860  148.2250 C   0  0  0  0  0  3  0  0  0  0  0  0
  186.8430  178.4140  146.8710 C   0  0  0  0  0  3  0  0  0  0  0  0
  1  7  1  0  0  0  0
  2  7  1  0  0  0  0
  2  4  1  0  0  0  0
  3 10  1  0  0  0  0
  5  6  1  0  0  0  0
  6 11  1  0  0  0  0
  6 13  2  0  0  0  0
  7 23  1  0  0  0  0
  8 10  1  0  0  0  0
  8 12  1  0  0  0  0
  9  1  1  0  0  0  0
 10  2  2  0  0  0  0
 11 15  1  0  0  0  0
 12  4  2  0  0  0  0
 13 14  1  0  0  0  0
 14  9  1  0  0  0  0
 15  3  1  0  0  0  0
 15  9  2  0  0  0  0
 16 20  1  0  0  0  0
 17 21  1  0  0  0  0
 18 17  2  0  0  0  0
 18 19  1  0  0  0  0
 19 20  2  0  0  0  0
 20  8  1  0  0  0  0
 21 16  2  0  0  0  0
 23 24  2  0  0  0  0
 23 27  1  0  0  0  0
 24 25  1  0  0  0  0
 25 22  2  0  0  0  0
 26 22  1  0  0  0  0
 27 26  2  0  0  0  0
M  END
>  <MODEL>
5

>  <REMARK>
 VINA RESULT:      -8.5      2.720      5.707
  Name = 
  2 active torsions:
  status: ('A' for Active; 'I' for Inactive)
    1  A    between atoms: C_9  and  N_15
    2  A    between atoms: C_14  and  N_17
                            x       y       z     vdW  Elec       q    Type
                         _______ _______ _______ _____ _____    ______ ____

>  <TORSDO>
F 2

$$$$
=
 OpenBabel10272401123D

 27 31  0  0  0  0  0  0  0  0999 V2000
  186.9080  178.7600  140.9580 C   0  0  0  0  0  2  0  0  0  0  0  0
  186.8060  178.2840  143.4010 C   0  0  0  0  0  0  0  0  0  0  0  0
  188.8080  177.0690  142.7580 O   0  0  0  0  0  0  0  0  0  0  0  0
  186.2290  178.7200  144.6240 N   0  0  0  0  0  0  0  0  0  0  0  0
  190.7120  175.8000  138.5690 F   0  0  0  0  0  0  0  0  0  0  0  0
  189.9880  176.7160  139.2550 C   0  0  0  0  0  0  0  0  0  0  0  0
  186.1590  178.3900  142.1250 N   0  0  0  0  0  0  0  0  0  0  0  0
  188.1610  177.7490  145.0640 N   0  0  0  0  0  0  0  0  0  0  0  0
  188.1240  178.3200  140.6350 C   0  0  0  0  0  0  0  0  0  0  0  0
  187.9510  177.7050  143.6570 C   0  0  0  0  0  0  0  0  0  0  0  0
  189.7680  176.5350  140.7020 C   0  0  0  0  0  2  0  0  0  0  0  0
  187.0820  178.3950  145.6980 N   0  0  0  0  0  0  0  0  0  0  0  0
  189.4550  177.7570  138.6110 C   0  0  0  0  0  3  0  0  0  0  0  0
  188.6990  178.8300  139.3440 C   0  0  0  0  0  2  0  0  0  0  0  0
  188.8930  177.2850  141.3810 C   0  0  0  0  0  0  0  0  0  0  0  0
  190.5090  177.0250  145.1230 C   0  0  0  0  0  3  0  0  0  0  0  0
  191.5130  176.2150  147.1730 C   0  0  0  0  0  3  0  0  0  0  0  0
  190.3040  176.4170  147.8430 C   0  0  0  0  0  3  0  0  0  0  0  0
  189.1970  176.9220  147.1530 C   0  0  0  0  0  3  0  0  0  0  0  0
  189.2910  177.2310  145.7860 C   0  0  0  0  0  0  0  0  0  0  0  0
  191.6160  176.5200  145.8130 C   0  0  0  0  0  3  0  0  0  0  0  0
  181.9050  178.4180  141.9230 C   0  0  0  0  0  3  0  0  0  0  0  0
  184.7170  178.4170  142.0480 C   0  0  0  0  0  0  0  0  0  0  0  0
  183.9480  178.7940  143.1630 C   0  0  0  0  0  3  0  0  0  0  0  0
  182.5510  178.7980  143.1010 C   0  0  0  0  0  3  0  0  0  0  0  0
  182.6530  178.0310  140.8090 C   0  0  0  0  0  3  0  0  0  0  0  0
  184.0500  178.0280  140.8720 C   0  0  0  0  0  3  0  0  0  0  0  0
  1  7  1  0  0  0  0
  2 10  2  0  0  0  0
  2  4  1  0  0  0  0
  3 10  1  0  0  0  0
  4 12  2  0  0  0  0
  5  6  1  0  0  0  0
  6 11  1  0  0  0  0
  7  2  1  0  0  0  0
  8 12  1  0  0  0  0
  8 20  1  0  0  0  0
  9  1  1  0  0  0  0
  9 15  2  0  0  0  0
 10  8  1  0  0  0  0
 11 15  1  0  0  0  0
 13  6  2  0  0  0  0
 13 14  1  0  0  0  0
 14  9  1  0  0  0  0
 15  3  1  0  0  0  0
 16 20  2  0  0  0  0
 16 21  1  0  0  0  0
 17 18  1  0  0  0  0
 19 18  2  0  0  0  0
 20 19  1  0  0  0  0
 21 17  2  0  0  0  0
 22 25  1  0  0  0  0
 23  7  1  0  0  0  0
 23 24  1  0  0  0  0
 25 24  2  0  0  0  0
 26 27  1  0  0  0  0
 26 22  2  0  0  0  0
 27 23  2  0  0  0  0
M  END
>  <MODEL>
6

>  <REMARK>
 VINA RESULT:      -8.3      2.355      6.536
  Name = 
  2 active torsions:
  status: ('A' for Active; 'I' for Inactive)
    1  A    between atoms: C_9  and  N_15
    2  A    between atoms: C_14  and  N_17
                            x       y       z     vdW  Elec       q    Type
                         _______ _______ _______ _____ _____    ______ ____

>  <TORSDO>
F 2

$$$$
=
 OpenBabel10272401123D

 27 31  0  0  0  0  0  0  0  0999 V2000
  188.6690  177.8580  139.8960 C   0  0  0  0  0  2  0  0  0  0  0  0
  191.0670  177.2150  140.0820 C   0  0  0  0  0  0  0  0  0  0  0  0
  190.4010  176.0130  138.0800 O   0  0  0  0  0  0  0  0  0  0  0  0
  192.3010  177.5750  140.6900 N   0  0  0  0  0  0  0  0  0  0  0  0
  186.1920  175.0070  136.0650 F   0  0  0  0  0  0  0  0  0  0  0  0
  186.9190  175.8850  136.7970 C   0  0  0  0  0  0  0  0  0  0  0  0
  189.7830  177.4210  140.6870 N   0  0  0  0  0  0  0  0  0  0  0  0
  192.7290  176.5420  138.7870 N   0  0  0  0  0  0  0  0  0  0  0  0
  188.3520  177.4210  138.6780 C   0  0  0  0  0  0  0  0  0  0  0  0
  191.3160  176.6010  138.9540 C   0  0  0  0  0  0  0  0  0  0  0  0
  188.3420  175.6080  137.0650 C   0  0  0  0  0  2  0  0  0  0  0  0
  193.3740  177.1610  139.8760 N   0  0  0  0  0  0  0  0  0  0  0  0
  186.3340  176.9770  137.2930 C   0  0  0  0  0  3  0  0  0  0  0  0
  187.1180  178.0100  138.0550 C   0  0  0  0  0  2  0  0  0  0  0  0
  189.0450  176.3240  137.9490 C   0  0  0  0  0  0  0  0  0  0  0  0
  194.1610  174.7640  137.8770 C   0  0  0  0  0  3  0  0  0  0  0  0
  194.8620  174.7910  135.5600 C   0  0  0  0  0  3  0  0  0  0  0  0
  194.1540  175.9790  135.3610 C   0  0  0  0  0  3  0  0  0  0  0  0
  193.4490  176.5590  136.4210 C   0  0  0  0  0  3  0  0  0  0  0  0
  193.4460  175.9560  137.6890 C   0  0  0  0  0  0  0  0  0  0  0  0
  194.8650  174.1830  136.8180 C   0  0  0  0  0  3  0  0  0  0  0  0
  189.3900  177.6210  144.9230 C   0  0  0  0  0  3  0  0  0  0  0  0
  189.6650  177.4780  142.1260 C   0  0  0  0  0  0  0  0  0  0  0  0
  188.7700  176.6330  142.8040 C   0  0  0  0  0  3  0  0  0  0  0  0
  188.6360  176.7000  144.1940 C   0  0  0  0  0  3  0  0  0  0  0  0
  190.2770  178.4760  144.2640 C   0  0  0  0  0  3  0  0  0  0  0  0
  190.4110  178.4070  142.8740 C   0  0  0  0  0  3  0  0  0  0  0  0
  1  7  1  0  0  0  0
  2  7  1  0  0  0  0
  2  4  1  0  0  0  0
  3 10  1  0  0  0  0
  5  6  1  0  0  0  0
  6 11  1  0  0  0  0
  6 13  2  0  0  0  0
  7 23  1  0  0  0  0
  8 10  1  0  0  0  0
  8 12  1  0  0  0  0
  9  1  1  0  0  0  0
 10  2  2  0  0  0  0
 11 15  1  0  0  0  0
 12  4  2  0  0  0  0
 13 14  1  0  0  0  0
 14  9  1  0  0  0  0
 15  3  1  0  0  0  0
 15  9  2  0  0  0  0
 17 21  1  0  0  0  0
 18 17  2  0  0  0  0
 18 19  1  0  0  0  0
 19 20  2  0  0  0  0
 20 16  1  0  0  0  0
 20  8  1  0  0  0  0
 21 16  2  0  0  0  0
 23 24  2  0  0  0  0
 23 27  1  0  0  0  0
 24 25  1  0  0  0  0
 25 22  2  0  0  0  0
 26 22  1  0  0  0  0
 27 26  2  0  0  0  0
M  END
>  <MODEL>
7

>  <REMARK>
 VINA RESULT:      -8.2      3.926      8.561
  Name = 
  2 active torsions:
  status: ('A' for Active; 'I' for Inactive)
    1  A    between atoms: C_9  and  N_15
    2  A    between atoms: C_14  and  N_17
                            x       y       z     vdW  Elec       q    Type
                         _______ _______ _______ _____ _____    ______ ____

>  <TORSDO>
F 2

$$$$
=
 OpenBabel10272401123D

 27 31  0  0  0  0  0  0  0  0999 V2000
  189.0340  176.7810  143.8280 C   0  0  0  0  0  2  0  0  0  0  0  0
  186.8850  177.5540  144.8240 C   0  0  0  0  0  0  0  0  0  0  0  0
  186.6650  178.3400  142.5380 O   0  0  0  0  0  0  0  0  0  0  0  0
  186.0060  177.3660  145.9250 N   0  0  0  0  0  0  0  0  0  0  0  0
  189.6960  178.7750  138.8760 F   0  0  0  0  0  0  0  0  0  0  0  0
  189.3470  178.0780  139.9830 C   0  0  0  0  0  0  0  0  0  0  0  0
  188.3100  177.4040  144.9000 N   0  0  0  0  0  0  0  0  0  0  0  0
  184.8270  178.0530  144.1920 N   0  0  0  0  0  0  0  0  0  0  0  0
  188.8270  176.9750  142.5260 C   0  0  0  0  0  0  0  0  0  0  0  0
  186.1900  177.9630  143.7940 C   0  0  0  0  0  0  0  0  0  0  0  0
  188.1380  178.4620  140.7360 C   0  0  0  0  0  2  0  0  0  0  0  0
  184.6860  177.6710  145.5410 N   0  0  0  0  0  0  0  0  0  0  0  0
  190.1160  177.0690  140.4010 C   0  0  0  0  0  3  0  0  0  0  0  0
  189.7310  176.2280  141.5870 C   0  0  0  0  0  2  0  0  0  0  0  0
  187.8670  177.9510  141.9410 C   0  0  0  0  0  0  0  0  0  0  0  0
  182.5410  178.9330  143.9850 C   0  0  0  0  0  3  0  0  0  0  0  0
  181.5230  179.2590  141.8130 C   0  0  0  0  0  3  0  0  0  0  0  0
  182.6860  178.7900  141.1980 C   0  0  0  0  0  3  0  0  0  0  0  0
  183.7770  178.3920  141.9780 C   0  0  0  0  0  3  0  0  0  0  0  0
  183.7140  178.4610  143.3780 C   0  0  0  0  0  0  0  0  0  0  0  0
  181.4500  179.3320  143.2070 C   0  0  0  0  0  3  0  0  0  0  0  0
  190.3020  177.9440  148.6260 C   0  0  0  0  0  3  0  0  0  0  0  0
  188.9900  177.6050  146.1580 C   0  0  0  0  0  0  0  0  0  0  0  0
  190.2970  177.1220  146.3500 C   0  0  0  0  0  3  0  0  0  0  0  0
  190.9500  177.2940  147.5740 C   0  0  0  0  0  3  0  0  0  0  0  0
  189.0000  178.4210  148.4550 C   0  0  0  0  0  3  0  0  0  0  0  0
  188.3470  178.2490  147.2300 C   0  0  0  0  0  3  0  0  0  0  0  0
  1  7  1  0  0  0  0
  2  7  1  0  0  0  0
  2  4  1  0  0  0  0
  3 10  1  0  0  0  0
  5  6  1  0  0  0  0
  6 13  2  0  0  0  0
  6 11  1  0  0  0  0
  7 23  1  0  0  0  0
  8 12  1  0  0  0  0
  9  1  1  0  0  0  0
 10  8  1  0  0  0  0
 10  2  2  0  0  0  0
 11 15  1  0  0  0  0
 12  4  2  0  0  0  0
 13 14  1  0  0  0  0
 14  9  1  0  0  0  0
 15  9  2  0  0  0  0
 15  3  1  0  0  0  0
 17 21  1  0  0  0  0
 18 17  2  0  0  0  0
 18 19  1  0  0  0  0
 19 20  2  0  0  0  0
 20 16  1  0  0  0  0
 20  8  1  0  0  0  0
 21 16  2  0  0  0  0
 23 24  2  0  0  0  0
 23 27  1  0  0  0  0
 24 25  1  0  0  0  0
 25 22  2  0  0  0  0
 26 22  1  0  0  0  0
 27 26  2  0  0  0  0
M  END
>  <MODEL>
8

>  <REMARK>
 VINA RESULT:      -8.2      2.746      5.611
  Name = 
  2 active torsions:
  status: ('A' for Active; 'I' for Inactive)
    1  A    between atoms: C_9  and  N_15
    2  A    between atoms: C_14  and  N_17
                            x       y       z     vdW  Elec       q    Type
                         _______ _______ _______ _____ _____    ______ ____

>  <TORSDO>
F 2

$$$$
=
 OpenBabel10272401123D

 27 31  0  0  0  0  0  0  0  0999 V2000
  184.9050  179.2210  140.5420 C   0  0  0  0  0  2  0  0  0  0  0  0
  187.2370  178.3820  140.3000 C   0  0  0  0  0  0  0  0  0  0  0  0
  186.2390  177.6350  138.2170 O   0  0  0  0  0  0  0  0  0  0  0  0
  188.5590  178.5290  140.8000 N   0  0  0  0  0  0  0  0  0  0  0  0
  181.7540  177.3390  136.6090 F   0  0  0  0  0  0  0  0  0  0  0  0
  182.6390  178.0070  137.3880 C   0  0  0  0  0  0  0  0  0  0  0  0
  186.0550  178.5620  141.0920 N   0  0  0  0  0  0  0  0  0  0  0  0
  188.6710  177.8490  138.7040 N   0  0  0  0  0  0  0  0  0  0  0  0
  184.4130  179.0480  139.3160 C   0  0  0  0  0  0  0  0  0  0  0  0
  187.2980  177.9770  139.0580 C   0  0  0  0  0  0  0  0  0  0  0  0
  184.0500  177.5800  137.4170 C   0  0  0  0  0  2  0  0  0  0  0  0
  189.4900  178.2010  139.7950 N   0  0  0  0  0  0  0  0  0  0  0  0
  182.2190  179.0240  138.1440 C   0  0  0  0  0  3  0  0  0  0  0  0
  183.1790  179.8330  138.9720 C   0  0  0  0  0  2  0  0  0  0  0  0
  184.9130  178.0620  138.3180 C   0  0  0  0  0  0  0  0  0  0  0  0
  190.1810  176.4290  137.3830 C   0  0  0  0  0  3  0  0  0  0  0  0
  190.2600  176.6010  134.9690 C   0  0  0  0  0  3  0  0  0  0  0  0
  189.2850  177.6010  135.0100 C   0  0  0  0  0  3  0  0  0  0  0  0
  188.7590  178.0140  136.2380 C   0  0  0  0  0  3  0  0  0  0  0  0
  189.2020  177.4320  137.4350 C   0  0  0  0  0  0  0  0  0  0  0  0
  190.7080  176.0150  136.1560 C   0  0  0  0  0  3  0  0  0  0  0  0
  186.1720  177.8980  145.2980 C   0  0  0  0  0  3  0  0  0  0  0  0
  186.1050  178.3530  142.5210 C   0  0  0  0  0  0  0  0  0  0  0  0
  187.0390  177.4640  143.0810 C   0  0  0  0  0  3  0  0  0  0  0  0
  187.0760  177.2400  144.4600 C   0  0  0  0  0  3  0  0  0  0  0  0
  185.2310  178.7760  144.7560 C   0  0  0  0  0  3  0  0  0  0  0  0
  185.1950  178.9990  143.3770 C   0  0  0  0  0  3  0  0  0  0  0  0
  1  7  1  0  0  0  0
  2  4  1  0  0  0  0
  2  7  1  0  0  0  0
  3 15  1  0  0  0  0
  3 10  1  0  0  0  0
  5  6  1  0  0  0  0
  6 11  1  0  0  0  0
  6 13  2  0  0  0  0
  7 23  1  0  0  0  0
  8 10  1  0  0  0  0
  8 12  1  0  0  0  0
  9  1  1  0  0  0  0
 10  2  2  0  0  0  0
 11 15  1  0  0  0  0
 12  4  2  0  0  0  0
 13 14  1  0  0  0  0
 14  9  1  0  0  0  0
 15  9  2  0  0  0  0
 16 20  1  0  0  0  0
 17 18  2  0  0  0  0
 17 21  1  0  0  0  0
 18 19  1  0  0  0  0
 19 20  2  0  0  0  0
 20  8  1  0  0  0  0
 21 16  2  0  0  0  0
 23 24  2  0  0  0  0
 23 27  1  0  0  0  0
 24 25  1  0  0  0  0
 25 22  2  0  0  0  0
 26 22  1  0  0  0  0
 27 26  2  0  0  0  0
M  END
>  <MODEL>
9

>  <REMARK>
 VINA RESULT:      -8.1      3.737      8.149
  Name = 
  2 active torsions:
  status: ('A' for Active; 'I' for Inactive)
    1  A    between atoms: C_9  and  N_15
    2  A    between atoms: C_14  and  N_17
                            x       y       z     vdW  Elec       q    Type
                         _______ _______ _______ _____ _____    ______ ____

>  <TORSDO>
F 2

$$$$
