=
 OpenBabel10272414373D

 43 48  0  0  1  0  0  0  0  0999 V2000
  191.8490  176.1090  136.5890 C   0  0  0  0  0  0  0  0  0  0  0  0
  186.8130  177.0310  136.9760 C   0  0  2  0  0  3  0  0  0  0  0  0
  186.5770  178.4970  138.8280 C   0  0  1  0  0  3  0  0  0  0  0  0
  189.5790  176.7060  136.1330 C   0  0  0  0  0  0  0  0  0  0  0  0
  191.5590  175.7170  138.0080 C   0  0  0  0  0  2  0  0  0  0  0  0
  193.0250  176.0300  136.1510 O   0  0  0  0  0  0  0  0  0  0  0  0
  189.2280  176.4850  137.5580 C   0  0  0  0  0  0  0  0  0  0  0  0
  190.7940  176.5240  135.7130 N   0  0  0  0  0  0  0  0  0  0  0  0
  190.1530  176.0540  138.4190 C   0  0  0  0  0  3  0  0  0  0  0  0
  187.8610  177.9110  138.9240 O   0  0  0  0  0  0  0  0  0  0  0  0
  187.8470  176.7970  138.0690 C   0  0  1  0  0  3  0  0  0  0  0  0
  187.3910  177.8430  135.8180 C   0  0  0  0  0  2  0  0  0  0  0  0
  185.7850  177.8560  137.6870 C   0  0  2  0  0  3  0  0  0  0  0  0
  188.5150  177.0690  135.1450 C   0  0  0  0  0  2  0  0  0  0  0  0
  185.8320  178.5090  140.0990 N   0  0  0  0  0  0  0  0  0  0  0  0
  184.6390  179.3040  139.8730 C   0  0  0  0  0  1  0  0  0  0  0  0
  186.5820  179.1590  141.1750 C   0  0  0  0  0  2  0  0  0  0  0  0
  186.7830  178.2190  142.3620 C   0  0  1  0  0  3  0  0  0  0  0  0
  185.6100  177.5130  142.6280 O   0  0  0  0  0  1  0  0  0  0  0  0
  187.9160  177.2590  142.1400 C   0  0  0  0  0  3  0  0  0  0  0  0
  189.0840  177.3130  142.7940 C   0  0  0  0  0  0  0  0  0  0  0  0
  191.7580  177.5590  143.8990 C   0  0  0  0  0  2  0  0  0  0  0  0
  189.3390  178.3310  143.8820 C   0  0  2  0  0  3  0  0  0  0  0  0
  190.0800  176.2130  142.5590 C   0  0  0  0  0  2  0  0  0  0  0  0
  191.5280  176.6990  142.6570 C   0  0  1  0  0  3  0  0  0  0  0  0
  190.8080  178.7570  143.9360 C   0  0  0  0  0  2  0  0  0  0  0  0
  191.9540  177.4230  141.3930 C   0  0  0  0  0  1  0  0  0  0  0  0
  188.8250  177.8810  145.2200 C   0  0  0  0  0  0  0  0  0  0  0  0
  188.0420  177.6030  147.9600 C   0  0  0  0  0  2  0  0  0  0  0  0
  186.9690  177.4290  146.8950 C   0  0  0  0  0  2  0  0  0  0  0  0
  189.3200  176.9270  147.4800 C   0  0  0  0  0  2  0  0  0  0  0  0
  187.3860  178.1520  145.6150 C   0  0  0  0  0  2  0  0  0  0  0  0
  189.7140  177.4030  146.1060 C   0  0  0  0  0  3  0  0  0  0  0  0
  184.7770  177.0150  138.1720 O   0  0  0  0  0  0  0  0  0  0  0  0
  183.9430  176.7880  137.0760 C   0  0  0  0  0  2  0  0  0  0  0  0
  182.7080  176.0280  137.5200 C   0  0  0  0  0  2  0  0  0  0  0  0
  183.0750  174.6910  137.9500 N   0  0  0  0  0  2  0  0  0  0  0  0
  183.9030  174.1340  136.8970 C   0  0  0  0  0  2  0  0  0  0  0  0
  184.7820  173.0210  137.4560 C   0  0  1  0  0  3  0  0  0  0  0  0
  185.7490  172.4360  136.4200 C   0  0  2  0  0  3  0  0  0  0  0  0
  186.2380  173.4390  137.4480 C   0  0  0  0  0  2  0  0  0  0  0  0
  186.9510  173.4230  134.8490 C   0  0  0  0  0  1  0  0  0  0  0  0
  185.6440  173.0640  135.1760 O   0  0  0  0  0  0  0  0  0  0  0  0
  1  5  1  0  0  0  0
  2 12  1  6  0  0  0
  2 13  1  0  0  0  0
  2 11  1  0  0  0  0
  3 10  1  0  0  0  0
  3 15  1  1  0  0  0
  4  7  1  0  0  0  0
  5  9  1  0  0  0  0
  6  1  2  0  0  0  0
  7  9  2  0  0  0  0
  8  4  2  0  0  0  0
  8  1  1  0  0  0  0
 11  7  1  6  0  0  0
 11 10  1  0  0  0  0
 13 34  1  1  0  0  0
 13  3  1  0  0  0  0
 14 12  1  0  0  0  0
 14  4  1  0  0  0  0
 15 17  1  0  0  0  0
 16 15  1  0  0  0  0
 17 18  1  0  0  0  0
 18 19  1  6  0  0  0
 20 18  1  0  0  0  0
 20 21  2  0  0  0  0
 21 23  1  0  0  0  0
 22 26  1  0  0  0  0
 23 26  1  0  0  0  0
 23 28  1  1  0  0  0
 24 25  1  0  0  0  0
 24 21  1  0  0  0  0
 25 27  1  6  0  0  0
 25 22  1  0  0  0  0
 28 32  1  0  0  0  0
 28 33  2  0  0  0  0
 30 29  1  0  0  0  0
 31 29  1  0  0  0  0
 32 30  1  0  0  0  0
 33 31  1  0  0  0  0
 35 36  1  0  0  0  0
 35 34  1  0  0  0  0
 36 37  1  0  0  0  0
 38 37  1  0  0  0  0
 39 38  1  6  0  0  0
 40 43  1  6  0  0  0
 40 41  1  0  0  0  0
 40 39  1  0  0  0  0
 41 39  1  0  0  0  0
 42 43  1  0  0  0  0
M  END
>  <MODEL>
1

>  <REMARK>
 VINA RESULT:      -7.6      0.000      0.000
  Name = 
  12 active torsions:
  status: ('A' for Active; 'I' for Inactive)
    1  A    between atoms: C_1  and  C_35
    2  A    between atoms: C_1  and  O_38
    3  A    between atoms: N_2  and  C_6
    4  A    between atoms: N_2  and  C_13
    5  A    between atoms: C_3  and  C_12
    6  A    between atoms: C_6  and  C_12
    7  A    between atoms: C_9  and  C_19
    8  A    between atoms: C_9  and  N_32
    9  A    between atoms: C_11  and  C_14
   10  A    between atoms: C_25  and  O_39
   11  A    between atoms: N_32  and  C_35
   12  A    between atoms: C_34  and  O_38
                            x       y       z     vdW  Elec       q    Type
                         _______ _______ _______ _____ _____    ______ ____

>  <TORSDO>
F 12

$$$$
=
 OpenBabel10272414373D

 43 48  0  0  1  0  0  0  0  0999 V2000
  188.2990  177.6440  145.5890 C   0  0  0  0  0  0  0  0  0  0  0  0
  190.5040  176.6210  141.0670 C   0  0  2  0  0  3  0  0  0  0  0  0
  189.4710  178.0860  139.5110 C   0  0  1  0  0  3  0  0  0  0  0  0
  189.8780  177.2790  143.8310 C   0  0  0  0  0  0  0  0  0  0  0  0
  187.1160  177.3350  144.7180 C   0  0  0  0  0  2  0  0  0  0  0  0
  188.1160  177.9690  146.7900 O   0  0  0  0  0  0  0  0  0  0  0  0
  188.7680  177.1040  142.8620 C   0  0  0  0  0  0  0  0  0  0  0  0
  189.6330  177.5250  145.0830 N   0  0  0  0  0  0  0  0  0  0  0  0
  187.4990  177.1560  143.2760 C   0  0  0  0  0  3  0  0  0  0  0  0
  188.6420  178.0470  140.6570 O   0  0  0  0  0  0  0  0  0  0  0  0
  189.0480  176.9230  141.3940 C   0  0  1  0  0  3  0  0  0  0  0  0
  191.4580  177.4560  141.9210 C   0  0  0  0  0  2  0  0  0  0  0  0
  190.6050  177.0690  139.6410 C   0  0  2  0  0  3  0  0  0  0  0  0
  191.2960  177.0960  143.3900 C   0  0  0  0  0  2  0  0  0  0  0  0
  188.7370  177.9580  138.2410 N   0  0  0  0  0  0  0  0  0  0  0  0
  189.1240  179.0910  137.4210 C   0  0  0  0  0  1  0  0  0  0  0  0
  187.2870  178.0410  138.4270 C   0  0  0  0  0  2  0  0  0  0  0  0
  186.5620  176.9360  137.6610 C   0  0  1  0  0  3  0  0  0  0  0  0
  185.2460  177.3140  137.3920 O   0  0  0  0  0  1  0  0  0  0  0  0
  187.2610  176.5790  136.3810 C   0  0  0  0  0  3  0  0  0  0  0  0
  187.5910  175.3290  136.0320 C   0  0  0  0  0  0  0  0  0  0  0  0
  188.6520  172.7120  135.3510 C   0  0  0  0  0  2  0  0  0  0  0  0
  187.2190  174.1390  136.8870 C   0  0  2  0  0  3  0  0  0  0  0  0
  188.1760  175.1060  134.6650 C   0  0  0  0  0  2  0  0  0  0  0  0
  189.1840  173.9550  134.6380 C   0  0  1  0  0  3  0  0  0  0  0  0
  188.2590  173.0200  136.7960 C   0  0  0  0  0  2  0  0  0  0  0  0
  190.5270  174.3850  135.1980 C   0  0  0  0  0  1  0  0  0  0  0  0
  185.8260  173.6480  136.6130 C   0  0  0  0  0  0  0  0  0  0  0  0
  183.0050  173.1690  136.5050 C   0  0  0  0  0  2  0  0  0  0  0  0
  183.7190  173.4900  135.2010 C   0  0  0  0  0  2  0  0  0  0  0  0
  183.8860  172.2380  137.3280 C   0  0  0  0  0  2  0  0  0  0  0  0
  185.0090  174.2580  135.4900 C   0  0  0  0  0  2  0  0  0  0  0  0
  185.2760  172.7950  137.4920 C   0  0  0  0  0  3  0  0  0  0  0  0
  190.4060  175.9680  138.8000 O   0  0  0  0  0  0  0  0  0  0  0  0
  191.6880  175.5800  138.4070 C   0  0  0  0  0  2  0  0  0  0  0  0
  192.2850  176.6330  137.4940 C   0  0  0  0  0  2  0  0  0  0  0  0
  193.7320  176.5290  137.4930 N   0  0  0  0  0  2  0  0  0  0  0  0
  194.1250  176.2730  136.1200 C   0  0  0  0  0  2  0  0  0  0  0  0
  194.4960  174.8050  135.9460 C   0  0  1  0  0  3  0  0  0  0  0  0
  196.0050  174.5740  135.8130 C   0  0  2  0  0  3  0  0  0  0  0  0
  195.3020  174.3150  137.1320 C   0  0  0  0  0  2  0  0  0  0  0  0
  197.9670  175.4640  135.3180 C   0  0  0  0  0  1  0  0  0  0  0  0
  196.7380  175.7610  135.9060 O   0  0  0  0  0  0  0  0  0  0  0  0
  1  6  2  0  0  0  0
  2 11  1  0  0  0  0
  2 12  1  1  0  0  0
  3 15  1  6  0  0  0
  3 13  1  0  0  0  0
  3 10  1  0  0  0  0
  4  8  2  0  0  0  0
  5  1  1  0  0  0  0
  7  9  2  0  0  0  0
  7  4  1  0  0  0  0
  8  1  1  0  0  0  0
  9  5  1  0  0  0  0
 11 10  1  6  0  0  0
 11  7  1  0  0  0  0
 12 14  1  0  0  0  0
 13 34  1  6  0  0  0
 13  2  1  0  0  0  0
 14  4  1  0  0  0  0
 15 17  1  0  0  0  0
 16 15  1  0  0  0  0
 18 19  1  6  0  0  0
 18 17  1  0  0  0  0
 20 18  1  0  0  0  0
 21 20  2  0  0  0  0
 21 23  1  0  0  0  0
 22 26  1  0  0  0  0
 23 28  1  6  0  0  0
 24 21  1  0  0  0  0
 25 24  1  0  0  0  0
 25 27  1  1  0  0  0
 25 22  1  0  0  0  0
 26 23  1  0  0  0  0
 28 33  2  0  0  0  0
 29 31  1  0  0  0  0
 30 32  1  0  0  0  0
 30 29  1  0  0  0  0
 31 33  1  0  0  0  0
 32 28  1  0  0  0  0
 35 34  1  0  0  0  0
 36 35  1  0  0  0  0
 37 36  1  0  0  0  0
 38 37  1  0  0  0  0
 39 38  1  1  0  0  0
 39 41  1  0  0  0  0
 40 43  1  1  0  0  0
 40 39  1  0  0  0  0
 40 41  1  0  0  0  0
 42 43  1  0  0  0  0
M  END
>  <MODEL>
2

>  <REMARK>
 VINA RESULT:      -7.6      2.543      8.589
  Name = 
  12 active torsions:
  status: ('A' for Active; 'I' for Inactive)
    1  A    between atoms: C_1  and  C_35
    2  A    between atoms: C_1  and  O_38
    3  A    between atoms: N_2  and  C_6
    4  A    between atoms: N_2  and  C_13
    5  A    between atoms: C_3  and  C_12
    6  A    between atoms: C_6  and  C_12
    7  A    between atoms: C_9  and  C_19
    8  A    between atoms: C_9  and  N_32
    9  A    between atoms: C_11  and  C_14
   10  A    between atoms: C_25  and  O_39
   11  A    between atoms: N_32  and  C_35
   12  A    between atoms: C_34  and  O_38
                            x       y       z     vdW  Elec       q    Type
                         _______ _______ _______ _____ _____    ______ ____

>  <TORSDO>
F 12

$$$$
=
 OpenBabel10272414373D

 43 48  0  0  1  0  0  0  0  0999 V2000
  191.8470  176.1480  136.6820 C   0  0  0  0  0  0  0  0  0  0  0  0
  186.7780  176.8520  137.0940 C   0  0  2  0  0  3  0  0  0  0  0  0
  186.4980  178.4540  138.8230 C   0  0  1  0  0  3  0  0  0  0  0  0
  189.5430  176.5940  136.2250 C   0  0  0  0  0  0  0  0  0  0  0  0
  191.6000  175.8630  138.1350 C   0  0  0  0  0  2  0  0  0  0  0  0
  193.0190  176.0910  136.2290 O   0  0  0  0  0  0  0  0  0  0  0  0
  189.2270  176.4750  137.6710 C   0  0  0  0  0  0  0  0  0  0  0  0
  190.7590  176.4360  135.7970 N   0  0  0  0  0  0  0  0  0  0  0  0
  190.1860  176.1630  138.5450 C   0  0  0  0  0  3  0  0  0  0  0  0
  187.8120  177.9410  138.9410 O   0  0  0  0  0  0  0  0  0  0  0  0
  187.8400  176.7610  138.1810 C   0  0  1  0  0  3  0  0  0  0  0  0
  187.2960  177.5920  135.8620 C   0  0  0  0  0  2  0  0  0  0  0  0
  185.7210  177.6820  137.7550 C   0  0  2  0  0  3  0  0  0  0  0  0
  188.4460  176.8200  135.2320 C   0  0  0  0  0  2  0  0  0  0  0  0
  185.7740  178.5360  140.1030 N   0  0  0  0  0  0  0  0  0  0  0  0
  184.6140  179.3760  139.8710 C   0  0  0  0  0  1  0  0  0  0  0  0
  186.5680  179.1820  141.1500 C   0  0  0  0  0  2  0  0  0  0  0  0
  186.7520  178.2660  142.3570 C   0  0  1  0  0  3  0  0  0  0  0  0
  185.5690  177.5760  142.6300 O   0  0  0  0  0  1  0  0  0  0  0  0
  187.8770  177.2900  142.1650 C   0  0  0  0  0  3  0  0  0  0  0  0
  189.0310  177.3340  142.8420 C   0  0  0  0  0  0  0  0  0  0  0  0
  191.6850  177.5540  144.0010 C   0  0  0  0  0  2  0  0  0  0  0  0
  189.2770  178.3550  143.9290 C   0  0  2  0  0  3  0  0  0  0  0  0
  190.0180  176.2200  142.6340 C   0  0  0  0  0  2  0  0  0  0  0  0
  191.4700  176.6890  142.7600 C   0  0  1  0  0  3  0  0  0  0  0  0
  190.7500  178.7640  144.0110 C   0  0  0  0  0  2  0  0  0  0  0  0
  191.9310  177.4000  141.5010 C   0  0  0  0  0  1  0  0  0  0  0  0
  188.7290  177.9200  145.2600 C   0  0  0  0  0  0  0  0  0  0  0  0
  187.8680  177.6760  147.9790 C   0  0  0  0  0  2  0  0  0  0  0  0
  186.8310  177.4660  146.8860 C   0  0  0  0  0  2  0  0  0  0  0  0
  189.1710  177.0130  147.5500 C   0  0  0  0  0  2  0  0  0  0  0  0
  187.2760  178.1730  145.6060 C   0  0  0  0  0  2  0  0  0  0  0  0
  189.5990  177.4720  146.1800 C   0  0  0  0  0  3  0  0  0  0  0  0
  184.7650  176.8360  138.3280 O   0  0  0  0  0  0  0  0  0  0  0  0
  184.2790  176.0730  137.2650 C   0  0  0  0  0  2  0  0  0  0  0  0
  183.6760  174.7860  137.7910 C   0  0  0  0  0  2  0  0  0  0  0  0
  182.3690  174.5700  137.1990 N   0  0  0  0  0  2  0  0  0  0  0  0
  181.5190  175.6430  137.6780 C   0  0  0  0  0  2  0  0  0  0  0  0
  181.3290  175.5270  139.1860 C   0  0  1  0  0  3  0  0  0  0  0  0
  181.3030  176.8840  139.8980 C   0  0  2  0  0  3  0  0  0  0  0  0
  180.0110  176.1460  139.6060 C   0  0  0  0  0  2  0  0  0  0  0  0
  180.3880  178.8190  139.3430 C   0  0  0  0  0  1  0  0  0  0  0  0
  181.4330  177.9570  139.0110 O   0  0  0  0  0  0  0  0  0  0  0  0
  1  5  1  0  0  0  0
  2 12  1  6  0  0  0
  2 13  1  0  0  0  0
  2 11  1  0  0  0  0
  3 10  1  0  0  0  0
  3 15  1  1  0  0  0
  4  7  1  0  0  0  0
  5  9  1  0  0  0  0
  6  1  2  0  0  0  0
  7  9  2  0  0  0  0
  8  4  2  0  0  0  0
  8  1  1  0  0  0  0
 11  7  1  6  0  0  0
 11 10  1  0  0  0  0
 13 34  1  1  0  0  0
 13  3  1  0  0  0  0
 14 12  1  0  0  0  0
 14  4  1  0  0  0  0
 15 17  1  0  0  0  0
 16 15  1  0  0  0  0
 17 18  1  0  0  0  0
 18 19  1  6  0  0  0
 20 18  1  0  0  0  0
 20 21  2  0  0  0  0
 21 23  1  0  0  0  0
 22 26  1  0  0  0  0
 23 26  1  0  0  0  0
 23 28  1  1  0  0  0
 24 25  1  0  0  0  0
 24 21  1  0  0  0  0
 25 27  1  6  0  0  0
 25 22  1  0  0  0  0
 28 32  1  0  0  0  0
 28 33  2  0  0  0  0
 30 29  1  0  0  0  0
 31 29  1  0  0  0  0
 32 30  1  0  0  0  0
 33 31  1  0  0  0  0
 35 36  1  0  0  0  0
 35 34  1  0  0  0  0
 37 38  1  0  0  0  0
 37 36  1  0  0  0  0
 39 38  1  6  0  0  0
 39 41  1  0  0  0  0
 39 40  1  0  0  0  0
 40 43  1  6  0  0  0
 41 40  1  0  0  0  0
 43 42  1  0  0  0  0
M  END
>  <MODEL>
3

>  <REMARK>
 VINA RESULT:      -7.4      1.265      2.579
  Name = 
  12 active torsions:
  status: ('A' for Active; 'I' for Inactive)
    1  A    between atoms: C_1  and  C_35
    2  A    between atoms: C_1  and  O_38
    3  A    between atoms: N_2  and  C_6
    4  A    between atoms: N_2  and  C_13
    5  A    between atoms: C_3  and  C_12
    6  A    between atoms: C_6  and  C_12
    7  A    between atoms: C_9  and  C_19
    8  A    between atoms: C_9  and  N_32
    9  A    between atoms: C_11  and  C_14
   10  A    between atoms: C_25  and  O_39
   11  A    between atoms: N_32  and  C_35
   12  A    between atoms: C_34  and  O_38
                            x       y       z     vdW  Elec       q    Type
                         _______ _______ _______ _____ _____    ______ ____

>  <TORSDO>
F 12

$$$$
=
 OpenBabel10272414373D

 43 48  0  0  1  0  0  0  0  0999 V2000
  188.4940  177.6510  145.8540 C   0  0  0  0  0  0  0  0  0  0  0  0
  190.5560  176.7010  141.2480 C   0  0  2  0  0  3  0  0  0  0  0  0
  189.4190  178.1350  139.7370 C   0  0  1  0  0  3  0  0  0  0  0  0
  190.0150  177.3370  144.0360 C   0  0  0  0  0  0  0  0  0  0  0  0
  187.2890  177.3070  145.0280 C   0  0  0  0  0  2  0  0  0  0  0  0
  188.3480  177.9700  147.0620 O   0  0  0  0  0  0  0  0  0  0  0  0
  188.8750  177.1280  143.1090 C   0  0  0  0  0  0  0  0  0  0  0  0
  189.8120  177.5740  145.2960 N   0  0  0  0  0  0  0  0  0  0  0  0
  187.6220  177.1410  143.5720 C   0  0  0  0  0  3  0  0  0  0  0  0
  188.6360  178.0690  140.9130 O   0  0  0  0  0  0  0  0  0  0  0  0
  189.1050  176.9580  141.6310 C   0  0  1  0  0  3  0  0  0  0  0  0
  191.5150  177.5640  142.0670 C   0  0  0  0  0  2  0  0  0  0  0  0
  190.5880  177.1530  139.8210 C   0  0  2  0  0  3  0  0  0  0  0  0
  191.4210  177.1980  143.5410 C   0  0  0  0  0  2  0  0  0  0  0  0
  188.6410  177.9860  138.4950 N   0  0  0  0  0  0  0  0  0  0  0  0
  189.0570  179.0600  137.6120 C   0  0  0  0  0  1  0  0  0  0  0  0
  187.2030  178.1490  138.7180 C   0  0  0  0  0  2  0  0  0  0  0  0
  186.3900  177.2060  137.8330 C   0  0  1  0  0  3  0  0  0  0  0  0
  185.4120  177.9160  137.1360 O   0  0  0  0  0  1  0  0  0  0  0  0
  187.2540  176.4470  136.8670 C   0  0  0  0  0  3  0  0  0  0  0  0
  187.1230  175.1390  136.6130 C   0  0  0  0  0  0  0  0  0  0  0  0
  187.1430  172.2570  136.2570 C   0  0  0  0  0  2  0  0  0  0  0  0
  186.0250  174.3120  137.2430 C   0  0  2  0  0  3  0  0  0  0  0  0
  187.9760  174.5380  135.5310 C   0  0  0  0  0  2  0  0  0  0  0  0
  188.3520  173.0830  135.8190 C   0  0  1  0  0  3  0  0  0  0  0  0
  186.4630  172.8660  137.4840 C   0  0  0  0  0  2  0  0  0  0  0  0
  189.4820  172.9950  136.8280 C   0  0  0  0  0  1  0  0  0  0  0  0
  184.7320  174.3990  136.4820 C   0  0  0  0  0  0  0  0  0  0  0  0
  182.2590  175.1620  135.2580 C   0  0  0  0  0  2  0  0  0  0  0  0
  183.3750  174.6660  134.3510 C   0  0  0  0  0  2  0  0  0  0  0  0
  182.2320  174.3020  136.5150 C   0  0  0  0  0  2  0  0  0  0  0  0
  184.7270  174.8590  135.0380 C   0  0  0  0  0  2  0  0  0  0  0  0
  183.5890  174.2320  137.1660 C   0  0  0  0  0  3  0  0  0  0  0  0
  190.3910  176.0480  138.9860 O   0  0  0  0  0  0  0  0  0  0  0  0
  191.5700  175.9420  138.2460 C   0  0  0  0  0  2  0  0  0  0  0  0
  191.2730  176.1570  136.7750 C   0  0  0  0  0  2  0  0  0  0  0  0
  192.3910  175.6980  135.9700 N   0  0  0  0  0  2  0  0  0  0  0  0
  193.5900  175.9670  136.7410 C   0  0  0  0  0  2  0  0  0  0  0  0
  194.7970  175.3160  136.0770 C   0  0  1  0  0  3  0  0  0  0  0  0
  195.7630  174.6710  137.0770 C   0  0  2  0  0  3  0  0  0  0  0  0
  194.7810  173.8170  136.2990 C   0  0  0  0  0  2  0  0  0  0  0  0
  196.3900  174.3280  139.1700 C   0  0  0  0  0  1  0  0  0  0  0  0
  195.3240  174.7910  138.3990 O   0  0  0  0  0  0  0  0  0  0  0  0
  1  6  2  0  0  0  0
  2 11  1  0  0  0  0
  2 12  1  1  0  0  0
  3 15  1  6  0  0  0
  3 13  1  0  0  0  0
  3 10  1  0  0  0  0
  4  8  2  0  0  0  0
  5  1  1  0  0  0  0
  7  9  2  0  0  0  0
  7  4  1  0  0  0  0
  8  1  1  0  0  0  0
  9  5  1  0  0  0  0
 11 10  1  6  0  0  0
 11  7  1  0  0  0  0
 12 14  1  0  0  0  0
 13 34  1  6  0  0  0
 13  2  1  0  0  0  0
 14  4  1  0  0  0  0
 15 17  1  0  0  0  0
 16 15  1  0  0  0  0
 18 19  1  6  0  0  0
 18 17  1  0  0  0  0
 20 18  1  0  0  0  0
 21 20  2  0  0  0  0
 21 23  1  0  0  0  0
 22 26  1  0  0  0  0
 23 28  1  6  0  0  0
 23 26  1  0  0  0  0
 24 25  1  0  0  0  0
 24 21  1  0  0  0  0
 25 22  1  0  0  0  0
 25 27  1  1  0  0  0
 28 33  2  0  0  0  0
 29 31  1  0  0  0  0
 30 32  1  0  0  0  0
 30 29  1  0  0  0  0
 31 33  1  0  0  0  0
 32 28  1  0  0  0  0
 35 34  1  0  0  0  0
 36 35  1  0  0  0  0
 37 38  1  0  0  0  0
 37 36  1  0  0  0  0
 39 41  1  0  0  0  0
 39 38  1  1  0  0  0
 39 40  1  0  0  0  0
 40 43  1  1  0  0  0
 41 40  1  0  0  0  0
 43 42  1  0  0  0  0
M  END
>  <MODEL>
4

>  <REMARK>
 VINA RESULT:      -7.4      2.454      8.567
  Name = 
  12 active torsions:
  status: ('A' for Active; 'I' for Inactive)
    1  A    between atoms: C_1  and  C_35
    2  A    between atoms: C_1  and  O_38
    3  A    between atoms: N_2  and  C_6
    4  A    between atoms: N_2  and  C_13
    5  A    between atoms: C_3  and  C_12
    6  A    between atoms: C_6  and  C_12
    7  A    between atoms: C_9  and  C_19
    8  A    between atoms: C_9  and  N_32
    9  A    between atoms: C_11  and  C_14
   10  A    between atoms: C_25  and  O_39
   11  A    between atoms: N_32  and  C_35
   12  A    between atoms: C_34  and  O_38
                            x       y       z     vdW  Elec       q    Type
                         _______ _______ _______ _____ _____    ______ ____

>  <TORSDO>
F 12

$$$$
=
 OpenBabel10272414373D

 43 48  0  0  1  0  0  0  0  0999 V2000
  187.7880  177.7130  145.6760 C   0  0  0  0  0  0  0  0  0  0  0  0
  190.5370  176.7150  141.4570 C   0  0  2  0  0  3  0  0  0  0  0  0
  189.5690  178.0380  139.7410 C   0  0  1  0  0  3  0  0  0  0  0  0
  189.5690  177.4150  144.1100 C   0  0  0  0  0  0  0  0  0  0  0  0
  186.7320  177.2810  144.7000 C   0  0  0  0  0  2  0  0  0  0  0  0
  187.4530  178.0640  146.8370 O   0  0  0  0  0  0  0  0  0  0  0  0
  188.5860  177.1180  143.0390 C   0  0  0  0  0  0  0  0  0  0  0  0
  189.1740  177.6840  145.3180 N   0  0  0  0  0  0  0  0  0  0  0  0
  187.2810  177.0830  143.3150 C   0  0  0  0  0  3  0  0  0  0  0  0
  188.6280  177.9720  140.7950 O   0  0  0  0  0  0  0  0  0  0  0  0
  189.0360  176.9100  141.6170 C   0  0  1  0  0  3  0  0  0  0  0  0
  191.3270  177.6520  142.3700 C   0  0  0  0  0  2  0  0  0  0  0  0
  190.7570  177.1200  140.0320 C   0  0  2  0  0  3  0  0  0  0  0  0
  191.0370  177.3310  143.8280 C   0  0  0  0  0  2  0  0  0  0  0  0
  188.9870  177.8080  138.4080 N   0  0  0  0  0  0  0  0  0  0  0  0
  188.9930  179.0890  137.7250 C   0  0  0  0  0  1  0  0  0  0  0  0
  187.5930  177.3680  138.4790 C   0  0  0  0  0  2  0  0  0  0  0  0
  186.6680  178.3190  137.7240 C   0  0  1  0  0  3  0  0  0  0  0  0
  186.7010  178.0470  136.3560 O   0  0  0  0  0  1  0  0  0  0  0  0
  185.2530  178.2500  138.2210 C   0  0  0  0  0  3  0  0  0  0  0  0
  184.2600  177.6270  137.5730 C   0  0  0  0  0  0  0  0  0  0  0  0
  181.9840  176.6100  136.0820 C   0  0  0  0  0  2  0  0  0  0  0  0
  184.5020  176.8680  136.2890 C   0  0  2  0  0  3  0  0  0  0  0  0
  182.9210  177.5320  138.2500 C   0  0  0  0  0  2  0  0  0  0  0  0
  181.7570  177.5610  137.2560 C   0  0  1  0  0  3  0  0  0  0  0  0
  183.2920  176.9220  135.3530 C   0  0  0  0  0  2  0  0  0  0  0  0
  181.4730  178.9740  136.7810 C   0  0  0  0  0  1  0  0  0  0  0  0
  184.9730  175.4620  136.5340 C   0  0  0  0  0  0  0  0  0  0  0  0
  186.3260  173.0720  137.3440 C   0  0  0  0  0  2  0  0  0  0  0  0
  184.8500  173.2040  137.6930 C   0  0  0  0  0  2  0  0  0  0  0  0
  186.5440  173.6080  135.9350 C   0  0  0  0  0  2  0  0  0  0  0  0
  184.4550  174.6810  137.7250 C   0  0  0  0  0  2  0  0  0  0  0  0
  185.9830  174.9970  135.7790 C   0  0  0  0  0  3  0  0  0  0  0  0
  190.7330  175.9790  139.2230 O   0  0  0  0  0  0  0  0  0  0  0  0
  191.7750  176.1630  138.3120 C   0  0  0  0  0  2  0  0  0  0  0  0
  191.7360  175.0720  137.2600 C   0  0  0  0  0  2  0  0  0  0  0  0
  192.8410  174.1520  137.4570 N   0  0  0  0  0  2  0  0  0  0  0  0
  194.0090  174.9660  137.7340 C   0  0  0  0  0  2  0  0  0  0  0  0
  195.2790  174.1790  137.4380 C   0  0  1  0  0  3  0  0  0  0  0  0
  196.3230  174.2690  138.5570 C   0  0  2  0  0  3  0  0  0  0  0  0
  195.4430  173.0410  138.4250 C   0  0  0  0  0  2  0  0  0  0  0  0
  197.0090  175.1910  140.4450 C   0  0  0  0  0  1  0  0  0  0  0  0
  195.8830  175.0390  139.6370 O   0  0  0  0  0  0  0  0  0  0  0  0
  1  6  2  0  0  0  0
  2 11  1  0  0  0  0
  2 12  1  1  0  0  0
  3 15  1  6  0  0  0
  3 13  1  0  0  0  0
  3 10  1  0  0  0  0
  4  8  2  0  0  0  0
  5  1  1  0  0  0  0
  7  9  2  0  0  0  0
  7  4  1  0  0  0  0
  8  1  1  0  0  0  0
  9  5  1  0  0  0  0
 11 10  1  6  0  0  0
 11  7  1  0  0  0  0
 12 14  1  0  0  0  0
 13 34  1  6  0  0  0
 13  2  1  0  0  0  0
 14  4  1  0  0  0  0
 15 17  1  0  0  0  0
 16 15  1  0  0  0  0
 18 19  1  6  0  0  0
 18 20  1  0  0  0  0
 18 17  1  0  0  0  0
 21 20  2  0  0  0  0
 21 24  1  0  0  0  0
 22 25  1  0  0  0  0
 23 28  1  1  0  0  0
 23 21  1  0  0  0  0
 25 27  1  6  0  0  0
 25 24  1  0  0  0  0
 26 22  1  0  0  0  0
 26 23  1  0  0  0  0
 28 32  1  0  0  0  0
 29 30  1  0  0  0  0
 30 32  1  0  0  0  0
 31 29  1  0  0  0  0
 33 31  1  0  0  0  0
 33 28  2  0  0  0  0
 35 34  1  0  0  0  0
 36 37  1  0  0  0  0
 36 35  1  0  0  0  0
 37 38  1  0  0  0  0
 39 38  1  1  0  0  0
 39 41  1  0  0  0  0
 39 40  1  0  0  0  0
 40 43  1  1  0  0  0
 41 40  1  0  0  0  0
 43 42  1  0  0  0  0
M  END
>  <MODEL>
5

>  <REMARK>
 VINA RESULT:      -7.0      2.634      8.805
  Name = 
  12 active torsions:
  status: ('A' for Active; 'I' for Inactive)
    1  A    between atoms: C_1  and  C_35
    2  A    between atoms: C_1  and  O_38
    3  A    between atoms: N_2  and  C_6
    4  A    between atoms: N_2  and  C_13
    5  A    between atoms: C_3  and  C_12
    6  A    between atoms: C_6  and  C_12
    7  A    between atoms: C_9  and  C_19
    8  A    between atoms: C_9  and  N_32
    9  A    between atoms: C_11  and  C_14
   10  A    between atoms: C_25  and  O_39
   11  A    between atoms: N_32  and  C_35
   12  A    between atoms: C_34  and  O_38
                            x       y       z     vdW  Elec       q    Type
                         _______ _______ _______ _____ _____    ______ ____

>  <TORSDO>
F 12

$$$$
=
 OpenBabel10272414373D

 43 48  0  0  1  0  0  0  0  0999 V2000
  189.0410  177.6800  145.5200 C   0  0  0  0  0  0  0  0  0  0  0  0
  190.4220  176.7620  140.6610 C   0  0  2  0  0  3  0  0  0  0  0  0
  188.9340  178.0410  139.3260 C   0  0  1  0  0  3  0  0  0  0  0  0
  190.2760  177.4390  143.4870 C   0  0  0  0  0  0  0  0  0  0  0  0
  187.7570  177.2050  144.9060 C   0  0  0  0  0  2  0  0  0  0  0  0
  189.0600  178.0240  146.7300 O   0  0  0  0  0  0  0  0  0  0  0  0
  189.0270  177.1020  142.7600 C   0  0  0  0  0  0  0  0  0  0  0  0
  190.2550  177.7000  144.7590 N   0  0  0  0  0  0  0  0  0  0  0  0
  187.8680  177.0210  143.4180 C   0  0  0  0  0  3  0  0  0  0  0  0
  188.3580  177.9460  140.6150 O   0  0  0  0  0  0  0  0  0  0  0  0
  189.0330  176.9030  141.2680 C   0  0  1  0  0  3  0  0  0  0  0  0
  191.4170  177.7310  141.2980 C   0  0  0  0  0  2  0  0  0  0  0  0
  190.1860  177.1670  139.2390 C   0  0  2  0  0  3  0  0  0  0  0  0
  191.5920  177.4070  142.7740 C   0  0  0  0  0  2  0  0  0  0  0  0
  187.9850  177.7840  138.2290 N   0  0  0  0  0  0  0  0  0  0  0  0
  188.7530  177.8210  136.9980 C   0  0  0  0  0  1  0  0  0  0  0  0
  186.9610  178.8240  138.1260 C   0  0  0  0  0  2  0  0  0  0  0  0
  185.7720  178.5310  139.0390 C   0  0  1  0  0  3  0  0  0  0  0  0
  185.7970  179.3690  140.1540 O   0  0  0  0  0  1  0  0  0  0  0  0
  184.4590  178.6730  138.3250 C   0  0  0  0  0  3  0  0  0  0  0  0
  183.3360  178.0410  138.6900 C   0  0  0  0  0  0  0  0  0  0  0  0
  180.9540  176.4550  139.1900 C   0  0  0  0  0  2  0  0  0  0  0  0
  183.2810  177.1630  139.9190 C   0  0  2  0  0  3  0  0  0  0  0  0
  182.0660  178.3720  137.9580 C   0  0  0  0  0  2  0  0  0  0  0  0
  181.1180  177.1750  137.8520 C   0  0  1  0  0  3  0  0  0  0  0  0
  182.3020  175.9990  139.7500 C   0  0  0  0  0  2  0  0  0  0  0  0
  181.5580  176.2200  136.7580 C   0  0  0  0  0  1  0  0  0  0  0  0
  183.0240  177.9480  141.1750 C   0  0  0  0  0  0  0  0  0  0  0  0
  182.3060  178.8880  143.7820 C   0  0  0  0  0  2  0  0  0  0  0  0
  183.7560  179.0450  143.3470 C   0  0  0  0  0  2  0  0  0  0  0  0
  181.4030  179.2140  142.6000 C   0  0  0  0  0  2  0  0  0  0  0  0
  184.0840  178.0250  142.2560 C   0  0  0  0  0  2  0  0  0  0  0  0
  181.7830  178.4190  141.3780 C   0  0  0  0  0  3  0  0  0  0  0  0
  189.9600  176.0220  138.4670 O   0  0  0  0  0  0  0  0  0  0  0  0
  191.2240  175.4590  138.2830 C   0  0  0  0  0  2  0  0  0  0  0  0
  192.0170  176.2910  137.2940 C   0  0  0  0  0  2  0  0  0  0  0  0
  193.3940  176.4110  137.7370 N   0  0  0  0  0  2  0  0  0  0  0  0
  194.2170  175.8840  136.6660 C   0  0  0  0  0  2  0  0  0  0  0  0
  194.4160  174.3830  136.8480 C   0  0  1  0  0  3  0  0  0  0  0  0
  195.8730  173.9940  137.1180 C   0  0  2  0  0  3  0  0  0  0  0  0
  194.8770  174.0750  138.2590 C   0  0  0  0  0  2  0  0  0  0  0  0
  197.9140  174.6130  137.7010 C   0  0  0  0  0  1  0  0  0  0  0  0
  196.7230  175.1030  137.1680 O   0  0  0  0  0  0  0  0  0  0  0  0
  1  6  2  0  0  0  0
  2 11  1  0  0  0  0
  2 12  1  1  0  0  0
  3 15  1  6  0  0  0
  3 10  1  0  0  0  0
  4  8  2  0  0  0  0
  5  1  1  0  0  0  0
  7  9  2  0  0  0  0
  7  4  1  0  0  0  0
  8  1  1  0  0  0  0
  9  5  1  0  0  0  0
 11 10  1  6  0  0  0
 11  7  1  0  0  0  0
 12 14  1  0  0  0  0
 13 34  1  6  0  0  0
 13  3  1  0  0  0  0
 13  2  1  0  0  0  0
 14  4  1  0  0  0  0
 16 15  1  0  0  0  0
 17 15  1  0  0  0  0
 17 18  1  0  0  0  0
 18 19  1  1  0  0  0
 20 21  2  0  0  0  0
 20 18  1  0  0  0  0
 21 23  1  0  0  0  0
 22 26  1  0  0  0  0
 23 28  1  1  0  0  0
 24 21  1  0  0  0  0
 25 27  1  6  0  0  0
 25 24  1  0  0  0  0
 25 22  1  0  0  0  0
 26 23  1  0  0  0  0
 28 33  2  0  0  0  0
 28 32  1  0  0  0  0
 30 29  1  0  0  0  0
 31 29  1  0  0  0  0
 32 30  1  0  0  0  0
 33 31  1  0  0  0  0
 35 34  1  0  0  0  0
 36 37  1  0  0  0  0
 36 35  1  0  0  0  0
 38 37  1  0  0  0  0
 39 38  1  1  0  0  0
 39 40  1  0  0  0  0
 39 41  1  0  0  0  0
 40 43  1  1  0  0  0
 40 41  1  0  0  0  0
 43 42  1  0  0  0  0
M  END
>  <MODEL>
6

>  <REMARK>
 VINA RESULT:      -7.0      2.850      7.941
  Name = 
  12 active torsions:
  status: ('A' for Active; 'I' for Inactive)
    1  A    between atoms: C_1  and  C_35
    2  A    between atoms: C_1  and  O_38
    3  A    between atoms: N_2  and  C_6
    4  A    between atoms: N_2  and  C_13
    5  A    between atoms: C_3  and  C_12
    6  A    between atoms: C_6  and  C_12
    7  A    between atoms: C_9  and  C_19
    8  A    between atoms: C_9  and  N_32
    9  A    between atoms: C_11  and  C_14
   10  A    between atoms: C_25  and  O_39
   11  A    between atoms: N_32  and  C_35
   12  A    between atoms: C_34  and  O_38
                            x       y       z     vdW  Elec       q    Type
                         _______ _______ _______ _____ _____    ______ ____

>  <TORSDO>
F 12

$$$$
=
 OpenBabel10272414373D

 43 48  0  0  1  0  0  0  0  0999 V2000
  194.5130  174.0490  136.7980 C   0  0  0  0  0  0  0  0  0  0  0  0
  189.3980  174.4870  136.7100 C   0  0  2  0  0  3  0  0  0  0  0  0
  188.9640  176.8090  136.4830 C   0  0  1  0  0  3  0  0  0  0  0  0
  192.1930  173.8090  136.2710 C   0  0  0  0  0  0  0  0  0  0  0  0
  194.2550  175.0250  137.9090 C   0  0  0  0  0  2  0  0  0  0  0  0
  195.6960  173.7250  136.5190 O   0  0  0  0  0  0  0  0  0  0  0  0
  191.8540  174.8740  137.2470 C   0  0  0  0  0  0  0  0  0  0  0  0
  193.4270  173.4470  136.0850 N   0  0  0  0  0  0  0  0  0  0  0  0
  192.8140  175.4450  137.9790 C   0  0  0  0  0  3  0  0  0  0  0  0
  190.3080  176.6780  136.9040 O   0  0  0  0  0  0  0  0  0  0  0  0
  190.4390  175.3670  137.3880 C   0  0  1  0  0  3  0  0  0  0  0  0
  189.8880  173.9760  135.3560 C   0  0  0  0  0  2  0  0  0  0  0  0
  188.2690  175.4470  136.4920 C   0  0  2  0  0  3  0  0  0  0  0  0
  191.1060  173.0830  135.5420 C   0  0  0  0  0  2  0  0  0  0  0  0
  188.2070  177.8370  137.2180 N   0  0  0  0  0  0  0  0  0  0  0  0
  187.8090  178.8360  136.2450 C   0  0  0  0  0  1  0  0  0  0  0  0
  189.0270  178.5190  138.2210 C   0  0  0  0  0  2  0  0  0  0  0  0
  188.4300  178.3800  139.6200 C   0  0  1  0  0  3  0  0  0  0  0  0
  187.0450  178.2280  139.5450 O   0  0  0  0  0  1  0  0  0  0  0  0
  189.0270  177.2310  140.3810 C   0  0  0  0  0  3  0  0  0  0  0  0
  189.2340  177.2350  141.7040 C   0  0  0  0  0  0  0  0  0  0  0  0
  190.0380  177.2830  144.4940 C   0  0  0  0  0  2  0  0  0  0  0  0
  188.8130  178.4000  142.5710 C   0  0  2  0  0  3  0  0  0  0  0  0
  189.7240  175.9690  142.3490 C   0  0  0  0  0  2  0  0  0  0  0  0
  190.6310  176.2360  143.5530 C   0  0  1  0  0  3  0  0  0  0  0  0
  189.7510  178.5960  143.7640 C   0  0  0  0  0  2  0  0  0  0  0  0
  192.0330  176.6140  143.1130 C   0  0  0  0  0  1  0  0  0  0  0  0
  187.3710  178.3150  142.9850 C   0  0  0  0  0  0  0  0  0  0  0  0
  184.7590  178.6910  144.0950 C   0  0  0  0  0  2  0  0  0  0  0  0
  184.8800  178.6050  142.5800 C   0  0  0  0  0  2  0  0  0  0  0  0
  185.6890  177.6590  144.7180 C   0  0  0  0  0  2  0  0  0  0  0  0
  186.2970  178.9840  142.1510 C   0  0  0  0  0  2  0  0  0  0  0  0
  187.0940  177.7910  144.1910 C   0  0  0  0  0  3  0  0  0  0  0  0
  187.3640  175.3390  137.5530 O   0  0  0  0  0  0  0  0  0  0  0  0
  186.2620  174.6700  137.0190 C   0  0  0  0  0  2  0  0  0  0  0  0
  185.0530  175.5840  137.0280 C   0  0  0  0  0  2  0  0  0  0  0  0
  183.8390  174.8030  137.1820 N   0  0  0  0  0  2  0  0  0  0  0  0
  182.8100  175.7250  137.6220 C   0  0  0  0  0  2  0  0  0  0  0  0
  182.8520  175.8720  139.1390 C   0  0  1  0  0  3  0  0  0  0  0  0
  183.0100  177.3240  139.6020 C   0  0  2  0  0  3  0  0  0  0  0  0
  181.6500  176.6520  139.6310 C   0  0  0  0  0  2  0  0  0  0  0  0
  183.8190  179.2930  139.0050 C   0  0  0  0  0  1  0  0  0  0  0  0
  183.0570  178.2240  138.5340 O   0  0  0  0  0  0  0  0  0  0  0  0
  1  5  1  0  0  0  0
  2 12  1  6  0  0  0
  2 11  1  0  0  0  0
  3 13  1  0  0  0  0
  3 10  1  0  0  0  0
  3 15  1  1  0  0  0
  4  7  1  0  0  0  0
  5  9  1  0  0  0  0
  6  1  2  0  0  0  0
  7 11  1  0  0  0  0
  7  9  2  0  0  0  0
  8  4  2  0  0  0  0
  8  1  1  0  0  0  0
 11 10  1  6  0  0  0
 12 14  1  0  0  0  0
 13  2  1  0  0  0  0
 13 34  1  1  0  0  0
 14  4  1  0  0  0  0
 15 17  1  0  0  0  0
 16 15  1  0  0  0  0
 17 18  1  0  0  0  0
 18 19  1  6  0  0  0
 18 20  1  0  0  0  0
 20 21  2  0  0  0  0
 21 24  1  0  0  0  0
 21 23  1  0  0  0  0
 23 28  1  1  0  0  0
 23 26  1  0  0  0  0
 24 25  1  0  0  0  0
 25 27  1  6  0  0  0
 25 22  1  0  0  0  0
 26 22  1  0  0  0  0
 28 33  2  0  0  0  0
 29 31  1  0  0  0  0
 30 29  1  0  0  0  0
 32 30  1  0  0  0  0
 32 28  1  0  0  0  0
 33 31  1  0  0  0  0
 35 36  1  0  0  0  0
 35 34  1  0  0  0  0
 36 37  1  0  0  0  0
 37 38  1  0  0  0  0
 39 38  1  6  0  0  0
 39 40  1  0  0  0  0
 39 41  1  0  0  0  0
 40 43  1  6  0  0  0
 40 41  1  0  0  0  0
 43 42  1  0  0  0  0
M  END
>  <MODEL>
7

>  <REMARK>
 VINA RESULT:      -6.8      2.051      3.777
  Name = 
  12 active torsions:
  status: ('A' for Active; 'I' for Inactive)
    1  A    between atoms: C_1  and  C_35
    2  A    between atoms: C_1  and  O_38
    3  A    between atoms: N_2  and  C_6
    4  A    between atoms: N_2  and  C_13
    5  A    between atoms: C_3  and  C_12
    6  A    between atoms: C_6  and  C_12
    7  A    between atoms: C_9  and  C_19
    8  A    between atoms: C_9  and  N_32
    9  A    between atoms: C_11  and  C_14
   10  A    between atoms: C_25  and  O_39
   11  A    between atoms: N_32  and  C_35
   12  A    between atoms: C_34  and  O_38
                            x       y       z     vdW  Elec       q    Type
                         _______ _______ _______ _____ _____    ______ ____

>  <TORSDO>
F 12

$$$$
=
 OpenBabel10272414373D

 43 48  0  0  1  0  0  0  0  0999 V2000
  194.4030  173.6610  136.2230 C   0  0  0  0  0  0  0  0  0  0  0  0
  189.2820  173.4890  136.5570 C   0  0  2  0  0  3  0  0  0  0  0  0
  188.5810  175.7500  136.7230 C   0  0  1  0  0  3  0  0  0  0  0  0
  192.0860  173.2230  135.8260 C   0  0  0  0  0  0  0  0  0  0  0  0
  194.1370  174.4250  137.4870 C   0  0  0  0  0  2  0  0  0  0  0  0
  195.5850  173.5250  135.8170 O   0  0  0  0  0  0  0  0  0  0  0  0
  191.7190  174.0850  136.9770 C   0  0  0  0  0  0  0  0  0  0  0  0
  193.3310  173.0430  135.5020 N   0  0  0  0  0  0  0  0  0  0  0  0
  192.6710  174.6540  137.7210 C   0  0  0  0  0  3  0  0  0  0  0  0
  189.9630  175.7220  137.0250 O   0  0  0  0  0  0  0  0  0  0  0  0
  190.2760  174.3790  137.2900 C   0  0  1  0  0  3  0  0  0  0  0  0
  189.7060  173.2440  135.1100 C   0  0  0  0  0  2  0  0  0  0  0  0
  188.0410  174.3280  136.5680 C   0  0  2  0  0  3  0  0  0  0  0  0
  191.0250  172.4860  135.0710 C   0  0  0  0  0  2  0  0  0  0  0  0
  187.7840  176.5610  137.6590 N   0  0  0  0  0  0  0  0  0  0  0  0
  186.7140  177.1610  136.8830 C   0  0  0  0  0  1  0  0  0  0  0  0
  188.5580  177.6590  138.2410 C   0  0  0  0  0  2  0  0  0  0  0  0
  188.7390  177.4790  139.7460 C   0  0  1  0  0  3  0  0  0  0  0  0
  190.0760  177.6610  140.1010 O   0  0  0  0  0  1  0  0  0  0  0  0
  187.8710  178.4130  140.5390 C   0  0  0  0  0  3  0  0  0  0  0  0
  187.5090  178.2020  141.8110 C   0  0  0  0  0  0  0  0  0  0  0  0
  186.3920  177.6630  144.4380 C   0  0  0  0  0  2  0  0  0  0  0  0
  188.0100  177.0090  142.5930 C   0  0  2  0  0  3  0  0  0  0  0  0
  186.7400  179.2820  142.5190 C   0  0  0  0  0  2  0  0  0  0  0  0
  185.7510  178.7250  143.5450 C   0  0  1  0  0  3  0  0  0  0  0  0
  186.9800  176.5170  143.6130 C   0  0  0  0  0  2  0  0  0  0  0  0
  184.4950  178.2010  142.8730 C   0  0  0  0  0  1  0  0  0  0  0  0
  189.3570  177.2540  143.2140 C   0  0  0  0  0  0  0  0  0  0  0  0
  191.5860  177.7570  144.9390 C   0  0  0  0  0  2  0  0  0  0  0  0
  191.6150  176.4920  144.0940 C   0  0  0  0  0  2  0  0  0  0  0  0
  191.0280  178.8950  144.0940 C   0  0  0  0  0  2  0  0  0  0  0  0
  190.1900  176.0900  143.7110 C   0  0  0  0  0  2  0  0  0  0  0  0
  189.7080  178.5250  143.4700 C   0  0  0  0  0  3  0  0  0  0  0  0
  187.2480  173.9590  137.6610 O   0  0  0  0  0  0  0  0  0  0  0  0
  186.4000  172.9660  137.1680 C   0  0  0  0  0  2  0  0  0  0  0  0
  184.9990  173.1740  137.7100 C   0  0  0  0  0  2  0  0  0  0  0  0
  184.3520  174.2690  137.0110 N   0  0  0  0  0  2  0  0  0  0  0  0
  183.3120  174.7630  137.8930 C   0  0  0  0  0  2  0  0  0  0  0  0
  182.9550  176.1990  137.5300 C   0  0  1  0  0  3  0  0  0  0  0  0
  181.9920  176.8540  138.5270 C   0  0  2  0  0  3  0  0  0  0  0  0
  183.4770  177.1590  138.5800 C   0  0  0  0  0  2  0  0  0  0  0  0
  180.3750  176.3970  139.9640 C   0  0  0  0  0  1  0  0  0  0  0  0
  181.6580  176.0030  139.5850 O   0  0  0  0  0  0  0  0  0  0  0  0
  1  5  1  0  0  0  0
  2 12  1  6  0  0  0
  2 13  1  0  0  0  0
  2 11  1  0  0  0  0
  3 10  1  0  0  0  0
  3 15  1  1  0  0  0
  4  7  1  0  0  0  0
  5  9  1  0  0  0  0
  6  1  2  0  0  0  0
  7  9  2  0  0  0  0
  8  4  2  0  0  0  0
  8  1  1  0  0  0  0
 10 11  1  0  0  0  0
 11  7  1  6  0  0  0
 13  3  1  0  0  0  0
 13 34  1  1  0  0  0
 14 12  1  0  0  0  0
 14  4  1  0  0  0  0
 15 17  1  0  0  0  0
 16 15  1  0  0  0  0
 17 18  1  0  0  0  0
 18 19  1  6  0  0  0
 18 20  1  0  0  0  0
 20 21  2  0  0  0  0
 21 24  1  0  0  0  0
 21 23  1  0  0  0  0
 23 28  1  1  0  0  0
 23 26  1  0  0  0  0
 24 25  1  0  0  0  0
 25 27  1  6  0  0  0
 25 22  1  0  0  0  0
 26 22  1  0  0  0  0
 28 33  2  0  0  0  0
 28 32  1  0  0  0  0
 30 29  1  0  0  0  0
 31 29  1  0  0  0  0
 32 30  1  0  0  0  0
 33 31  1  0  0  0  0
 35 34  1  0  0  0  0
 35 36  1  0  0  0  0
 37 36  1  0  0  0  0
 37 38  1  0  0  0  0
 39 38  1  1  0  0  0
 39 40  1  0  0  0  0
 39 41  1  0  0  0  0
 40 41  1  0  0  0  0
 40 43  1  1  0  0  0
 43 42  1  0  0  0  0
M  END
>  <MODEL>
8

>  <REMARK>
 VINA RESULT:      -6.6      2.224      4.415
  Name = 
  12 active torsions:
  status: ('A' for Active; 'I' for Inactive)
    1  A    between atoms: C_1  and  C_35
    2  A    between atoms: C_1  and  O_38
    3  A    between atoms: N_2  and  C_6
    4  A    between atoms: N_2  and  C_13
    5  A    between atoms: C_3  and  C_12
    6  A    between atoms: C_6  and  C_12
    7  A    between atoms: C_9  and  C_19
    8  A    between atoms: C_9  and  N_32
    9  A    between atoms: C_11  and  C_14
   10  A    between atoms: C_25  and  O_39
   11  A    between atoms: N_32  and  C_35
   12  A    between atoms: C_34  and  O_38
                            x       y       z     vdW  Elec       q    Type
                         _______ _______ _______ _____ _____    ______ ____

>  <TORSDO>
F 12

$$$$
=
 OpenBabel10272414373D

 43 48  0  0  1  0  0  0  0  0999 V2000
  191.2640  176.9410  146.1590 C   0  0  0  0  0  0  0  0  0  0  0  0
  187.1030  178.2820  143.4660 C   0  0  2  0  0  3  0  0  0  0  0  0
  187.5900  177.7020  141.2160 C   0  0  1  0  0  3  0  0  0  0  0  0
  189.0250  177.1890  145.3580 C   0  0  0  0  0  0  0  0  0  0  0  0
  191.8390  177.8430  145.1070 C   0  0  0  0  0  2  0  0  0  0  0  0
  192.0280  176.4000  146.9990 O   0  0  0  0  0  0  0  0  0  0  0  0
  189.5200  177.9710  144.1980 C   0  0  0  0  0  0  0  0  0  0  0  0
  189.8500  176.7270  146.2480 N   0  0  0  0  0  0  0  0  0  0  0  0
  190.8210  178.2460  144.0790 C   0  0  0  0  0  3  0  0  0  0  0  0
  188.8200  177.7240  141.9140 O   0  0  0  0  0  0  0  0  0  0  0  0
  188.5780  178.4160  143.1110 C   0  0  1  0  0  3  0  0  0  0  0  0
  186.8230  176.9850  144.2240 C   0  0  0  0  0  2  0  0  0  0  0  0
  186.4610  178.2080  142.1150 C   0  0  2  0  0  3  0  0  0  0  0  0
  187.5550  176.9880  145.5570 C   0  0  0  0  0  2  0  0  0  0  0  0
  187.6320  178.3920  139.9150 N   0  0  0  0  0  0  0  0  0  0  0  0
  186.5390  177.8550  139.1250 C   0  0  0  0  0  1  0  0  0  0  0  0
  188.8670  178.1170  139.1800 C   0  0  0  0  0  2  0  0  0  0  0  0
  188.7500  178.5340  137.7160 C   0  0  1  0  0  3  0  0  0  0  0  0
  188.9830  179.9030  137.5800 O   0  0  0  0  0  1  0  0  0  0  0  0
  189.6900  177.7680  136.8300 C   0  0  0  0  0  3  0  0  0  0  0  0
  189.5060  176.4910  136.4680 C   0  0  0  0  0  0  0  0  0  0  0  0
  189.3770  173.6420  135.9190 C   0  0  0  0  0  2  0  0  0  0  0  0
  188.2740  175.7180  136.8790 C   0  0  2  0  0  3  0  0  0  0  0  0
  190.4630  175.8900  135.4780 C   0  0  0  0  0  2  0  0  0  0  0  0
  190.6910  174.3950  135.7130 C   0  0  1  0  0  3  0  0  0  0  0  0
  188.5700  174.2300  137.0780 C   0  0  0  0  0  2  0  0  0  0  0  0
  191.6540  174.1580  136.8620 C   0  0  0  0  0  1  0  0  0  0  0  0
  187.1140  175.9510  135.9520 C   0  0  0  0  0  0  0  0  0  0  0  0
  184.5800  176.4820  134.7310 C   0  0  0  0  0  2  0  0  0  0  0  0
  185.7530  177.3730  134.3460 C   0  0  0  0  0  2  0  0  0  0  0  0
  185.0710  175.0440  134.8290 C   0  0  0  0  0  2  0  0  0  0  0  0
  186.8070  177.3490  135.4530 C   0  0  0  0  0  2  0  0  0  0  0  0
  186.2710  174.9300  135.7320 C   0  0  0  0  0  3  0  0  0  0  0  0
  186.0380  179.4880  141.7380 O   0  0  0  0  0  0  0  0  0  0  0  0
  184.7320  179.5900  142.2180 C   0  0  0  0  0  2  0  0  0  0  0  0
  183.9230  178.3910  141.7650 C   0  0  0  0  0  2  0  0  0  0  0  0
  182.5090  178.7180  141.7580 N   0  0  0  0  0  2  0  0  0  0  0  0
  181.9110  177.9290  140.6970 C   0  0  0  0  0  2  0  0  0  0  0  0
  182.3620  178.4520  139.3380 C   0  0  1  0  0  3  0  0  0  0  0  0
  182.8920  177.3520  138.4120 C   0  0  2  0  0  3  0  0  0  0  0  0
  181.4860  177.8920  138.2350 C   0  0  0  0  0  2  0  0  0  0  0  0
  183.4280  175.2350  138.0660 C   0  0  0  0  0  1  0  0  0  0  0  0
  182.8300  176.0840  138.9970 O   0  0  0  0  0  0  0  0  0  0  0  0
  1  8  1  0  0  0  0
  1  6  2  0  0  0  0
  2 12  1  1  0  0  0
  3 15  1  6  0  0  0
  3 10  1  0  0  0  0
  3 13  1  0  0  0  0
  4 14  1  0  0  0  0
  4  8  2  0  0  0  0
  5  1  1  0  0  0  0
  7  4  1  0  0  0  0
  9  7  2  0  0  0  0
  9  5  1  0  0  0  0
 11 10  1  6  0  0  0
 11  2  1  0  0  0  0
 11  7  1  0  0  0  0
 12 14  1  0  0  0  0
 13 34  1  6  0  0  0
 13  2  1  0  0  0  0
 16 15  1  0  0  0  0
 17 15  1  0  0  0  0
 18 19  1  1  0  0  0
 18 17  1  0  0  0  0
 20 18  1  0  0  0  0
 21 20  2  0  0  0  0
 21 23  1  0  0  0  0
 22 26  1  0  0  0  0
 23 28  1  6  0  0  0
 23 26  1  0  0  0  0
 24 25  1  0  0  0  0
 24 21  1  0  0  0  0
 25 22  1  0  0  0  0
 25 27  1  1  0  0  0
 29 31  1  0  0  0  0
 30 29  1  0  0  0  0
 30 32  1  0  0  0  0
 31 33  1  0  0  0  0
 32 28  1  0  0  0  0
 33 28  2  0  0  0  0
 34 35  1  0  0  0  0
 36 35  1  0  0  0  0
 37 36  1  0  0  0  0
 38 37  1  0  0  0  0
 39 38  1  1  0  0  0
 40 43  1  1  0  0  0
 40 39  1  0  0  0  0
 41 40  1  0  0  0  0
 41 39  1  0  0  0  0
 42 43  1  0  0  0  0
M  END
>  <MODEL>
9

>  <REMARK>
 VINA RESULT:      -6.3      2.514      7.656
  Name = 
  12 active torsions:
  status: ('A' for Active; 'I' for Inactive)
    1  A    between atoms: C_1  and  C_35
    2  A    between atoms: C_1  and  O_38
    3  A    between atoms: N_2  and  C_6
    4  A    between atoms: N_2  and  C_13
    5  A    between atoms: C_3  and  C_12
    6  A    between atoms: C_6  and  C_12
    7  A    between atoms: C_9  and  C_19
    8  A    between atoms: C_9  and  N_32
    9  A    between atoms: C_11  and  C_14
   10  A    between atoms: C_25  and  O_39
   11  A    between atoms: N_32  and  C_35
   12  A    between atoms: C_34  and  O_38
                            x       y       z     vdW  Elec       q    Type
                         _______ _______ _______ _____ _____    ______ ____

>  <TORSDO>
F 12

$$$$
