=
 OpenBabel10272400373D

 31 34  0  0  1  0  0  0  0  0999 V2000
  191.4710  178.4580  144.1310 C   0  0  0  0  0  0  0  0  0  0  0  0
  187.7380  177.6250  143.8430 C   0  0  0  0  0  0  0  0  0  0  0  0
  186.8970  177.8630  144.9480 C   0  0  0  0  0  0  0  0  0  0  0  0
  186.3200  177.7360  147.3860 C   0  0  0  0  0  2  0  0  0  0  0  0
  189.1970  177.3150  144.0610 C   0  0  2  0  0  3  0  0  0  0  0  0
  192.0280  177.3780  143.5770 C   0  0  0  0  0  3  0  0  0  0  0  0
  187.4410  177.8210  146.3540 C   0  0  0  0  0  2  0  0  0  0  0  0
  188.0410  177.3700  141.3030 C   0  0  1  0  0  3  0  0  0  0  0  0
  192.2910  179.4970  144.5480 O   0  0  0  0  0  1  0  0  0  0  0  0
  185.0620  178.2390  143.4530 N   0  0  0  0  0  0  0  0  0  0  0  0
  185.3260  178.7660  147.1060 N   0  0  0  0  0  2  0  0  0  0  0  0
  189.5340  177.2090  141.5870 C   0  0  0  0  0  2  0  0  0  0  0  0
  187.2120  177.7190  142.5310 C   0  0  0  0  0  0  0  0  0  0  0  0
  189.9800  178.6240  144.2520 C   0  0  0  0  0  2  0  0  0  0  0  0
  183.6180  179.4140  145.5850 N   0  0  0  0  0  1  0  0  0  0  0  0
  189.7580  176.4840  142.9060 C   0  0  1  0  0  3  0  0  0  0  0  0
  191.2380  176.1780  143.1350 C   0  0  0  0  0  2  0  0  0  0  0  0
  185.8520  178.0050  142.3750 C   0  0  0  0  0  3  0  0  0  0  0  0
  185.5480  178.2060  144.7220 C   0  0  0  0  0  0  0  0  0  0  0  0
  184.6050  178.3920  145.8890 C   0  0  1  0  0  3  0  0  0  0  0  0
  187.8800  178.4010  140.1960 C   0  0  0  0  0  2  0  0  0  0  0  0
  188.9950  178.3070  139.2560 N   0  0  0  0  0  2  0  0  0  0  0  0
  187.0090  178.0490  137.9000 C   0  0  0  0  0  1  0  0  0  0  0  0
  189.0360  179.0150  136.9060 C   0  0  0  0  0  1  0  0  0  0  0  0
  188.5280  177.9790  137.9020 C   0  0  0  0  0  0  0  0  0  0  0  0
  187.9230  175.6650  137.4870 O   0  0  0  0  0  1  0  0  0  0  0  0
  188.9900  176.5700  137.4810 C   0  0  2  0  0  3  0  0  0  0  0  0
  190.0540  176.0870  138.3530 N   0  0  0  0  0  2  0  0  0  0  0  0
  191.1940  175.3860  137.8550 C   0  0  0  0  0  0  0  0  0  0  0  0
  192.6190  176.1650  137.7070 S   0  0  0  0  0  0  0  0  0  0  0  0
  191.0910  174.0230  137.4510 N   0  0  0  0  0  1  0  0  0  0  0  0
  1 14  1  0  0  0  0
  1  9  1  0  0  0  0
  2  5  1  0  0  0  0
  2  3  1  0  0  0  0
  3  7  1  0  0  0  0
  5 14  1  6  0  0  0
  6  1  2  0  0  0  0
  7  4  1  0  0  0  0
  8 21  1  6  0  0  0
  8 12  1  0  0  0  0
  8 13  1  0  0  0  0
 10 19  1  0  0  0  0
 11  4  1  0  0  0  0
 13  2  2  0  0  0  0
 16 12  1  6  0  0  0
 16 17  1  0  0  0  0
 16  5  1  0  0  0  0
 17  6  1  0  0  0  0
 18 13  1  0  0  0  0
 18 10  2  0  0  0  0
 19  3  2  0  0  0  0
 19 20  1  0  0  0  0
 20 15  1  6  0  0  0
 20 11  1  0  0  0  0
 22 21  1  0  0  0  0
 23 25  1  0  0  0  0
 24 25  1  0  0  0  0
 25 22  1  0  0  0  0
 27 26  1  1  0  0  0
 27 25  1  0  0  0  0
 27 28  1  0  0  0  0
 29 28  1  0  0  0  0
 30 29  2  0  0  0  0
 31 29  1  0  0  0  0
M  END
>  <MODEL>
1

>  <REMARK>
 VINA RESULT:      -8.4      0.000      0.000
  Name = 
  6 active torsions:
  status: ('A' for Active; 'I' for Inactive)
    1  A    between atoms: C_1  and  N_24
    2  A    between atoms: N_9  and  C_22
    3  A    between atoms: N_9  and  C_23
    4  A    between atoms: C_15  and  C_23
    5  A    between atoms: C_19  and  C_22
    6  A    between atoms: C_19  and  N_24
                            x       y       z     vdW  Elec       q    Type
                         _______ _______ _______ _____ _____    ______ ____

>  <TORSDO>
F 6

$$$$
=
 OpenBabel10272400373D

 31 34  0  0  1  0  0  0  0  0999 V2000
  191.1690  177.5580  144.6840 C   0  0  0  0  0  0  0  0  0  0  0  0
  187.5030  177.5430  143.5560 C   0  0  0  0  0  0  0  0  0  0  0  0
  186.5000  177.8840  144.4840 C   0  0  0  0  0  0  0  0  0  0  0  0
  185.3870  177.7340  146.7270 C   0  0  0  0  0  2  0  0  0  0  0  0
  188.7920  176.9220  144.0330 C   0  0  2  0  0  3  0  0  0  0  0  0
  191.6180  176.4210  144.1460 C   0  0  0  0  0  3  0  0  0  0  0  0
  186.7030  177.6440  145.9600 C   0  0  0  0  0  2  0  0  0  0  0  0
  188.3040  177.3830  141.1190 C   0  0  1  0  0  3  0  0  0  0  0  0
  192.0610  178.3760  145.3640 O   0  0  0  0  0  1  0  0  0  0  0  0
  185.1480  178.7240  142.6940 N   0  0  0  0  0  0  0  0  0  0  0  0
  184.6940  178.9640  146.3580 N   0  0  0  0  0  2  0  0  0  0  0  0
  189.6390  176.8960  141.6820 C   0  0  0  0  0  2  0  0  0  0  0  0
  187.3080  177.8220  142.1810 C   0  0  0  0  0  0  0  0  0  0  0  0
  189.7480  178.0240  144.5140 C   0  0  0  0  0  2  0  0  0  0  0  0
  183.5200  180.0450  144.5970 N   0  0  0  0  0  1  0  0  0  0  0  0
  189.4240  176.0620  142.9370 C   0  0  1  0  0  3  0  0  0  0  0  0
  190.7310  175.4410  143.4300 C   0  0  0  0  0  2  0  0  0  0  0  0
  186.0960  178.3950  141.7810 C   0  0  0  0  0  3  0  0  0  0  0  0
  185.3250  178.5140  144.0250 C   0  0  0  0  0  0  0  0  0  0  0  0
  184.2020  178.8220  144.9880 C   0  0  1  0  0  3  0  0  0  0  0  0
  188.5920  178.4890  140.1150 C   0  0  0  0  0  2  0  0  0  0  0  0
  189.6540  178.0750  139.2000 N   0  0  0  0  0  2  0  0  0  0  0  0
  188.9810  179.1230  137.1280 C   0  0  0  0  0  1  0  0  0  0  0  0
  190.1180  176.9470  137.0700 C   0  0  0  0  0  1  0  0  0  0  0  0
  189.1280  177.7970  137.8580 C   0  0  0  0  0  0  0  0  0  0  0  0
  187.8250  175.8100  137.3610 O   0  0  0  0  0  1  0  0  0  0  0  0
  187.7630  177.0850  137.9320 C   0  0  2  0  0  3  0  0  0  0  0  0
  186.7270  177.8730  137.2730 N   0  0  0  0  0  2  0  0  0  0  0  0
  185.3990  177.9750  137.7850 C   0  0  0  0  0  0  0  0  0  0  0  0
  184.3130  176.8040  137.4490 S   0  0  0  0  0  0  0  0  0  0  0  0
  185.0000  179.1050  138.5560 N   0  0  0  0  0  1  0  0  0  0  0  0
  1  9  1  0  0  0  0
  2  5  1  0  0  0  0
  2  3  1  0  0  0  0
  3  7  1  0  0  0  0
  5 14  1  6  0  0  0
  6  1  2  0  0  0  0
  7  4  1  0  0  0  0
  8 21  1  6  0  0  0
  8 12  1  0  0  0  0
  8 13  1  0  0  0  0
 10 19  1  0  0  0  0
 11  4  1  0  0  0  0
 13  2  2  0  0  0  0
 14  1  1  0  0  0  0
 16 12  1  6  0  0  0
 16 17  1  0  0  0  0
 16  5  1  0  0  0  0
 17  6  1  0  0  0  0
 18 13  1  0  0  0  0
 18 10  2  0  0  0  0
 19  3  2  0  0  0  0
 19 20  1  0  0  0  0
 20 15  1  6  0  0  0
 20 11  1  0  0  0  0
 22 21  1  0  0  0  0
 23 25  1  0  0  0  0
 24 25  1  0  0  0  0
 25 27  1  0  0  0  0
 25 22  1  0  0  0  0
 27 26  1  6  0  0  0
 28 29  1  0  0  0  0
 28 27  1  0  0  0  0
 29 31  1  0  0  0  0
 30 29  2  0  0  0  0
M  END
>  <MODEL>
2

>  <REMARK>
 VINA RESULT:      -8.2      1.965      2.657
  Name = 
  6 active torsions:
  status: ('A' for Active; 'I' for Inactive)
    1  A    between atoms: C_1  and  N_24
    2  A    between atoms: N_9  and  C_22
    3  A    between atoms: N_9  and  C_23
    4  A    between atoms: C_15  and  C_23
    5  A    between atoms: C_19  and  C_22
    6  A    between atoms: C_19  and  N_24
                            x       y       z     vdW  Elec       q    Type
                         _______ _______ _______ _____ _____    ______ ____

>  <TORSDO>
F 6

$$$$
=
 OpenBabel10272400373D

 31 34  0  0  1  0  0  0  0  0999 V2000
  191.2150  177.7640  144.4430 C   0  0  0  0  0  0  0  0  0  0  0  0
  187.5000  177.5940  143.5020 C   0  0  0  0  0  0  0  0  0  0  0  0
  186.5340  177.9330  144.4680 C   0  0  0  0  0  0  0  0  0  0  0  0
  185.5380  177.8200  146.7680 C   0  0  0  0  0  2  0  0  0  0  0  0
  188.8310  177.0310  143.9330 C   0  0  2  0  0  3  0  0  0  0  0  0
  191.6750  176.6250  143.9180 C   0  0  0  0  0  3  0  0  0  0  0  0
  186.8170  177.7480  145.9390 C   0  0  0  0  0  2  0  0  0  0  0  0
  188.1850  177.3810  141.0330 C   0  0  1  0  0  3  0  0  0  0  0  0
  192.1110  178.6320  145.0510 O   0  0  0  0  0  1  0  0  0  0  0  0
  185.0670  178.6700  142.7230 N   0  0  0  0  0  0  0  0  0  0  0  0
  184.7870  179.0150  146.3970 N   0  0  0  0  0  2  0  0  0  0  0  0
  189.5620  176.9560  141.5440 C   0  0  0  0  0  2  0  0  0  0  0  0
  187.2280  177.8220  142.1300 C   0  0  0  0  0  0  0  0  0  0  0  0
  189.7730  178.1780  144.3300 C   0  0  0  0  0  2  0  0  0  0  0  0
  183.4920  179.9990  144.6640 N   0  0  0  0  0  1  0  0  0  0  0  0
  189.4380  176.1570  142.8330 C   0  0  1  0  0  3  0  0  0  0  0  0
  190.7870  175.5940  143.2790 C   0  0  0  0  0  2  0  0  0  0  0  0
  185.9790  178.3430  141.7740 C   0  0  0  0  0  3  0  0  0  0  0  0
  185.3170  178.5090  144.0490 C   0  0  0  0  0  0  0  0  0  0  0  0
  184.2330  178.8130  145.0580 C   0  0  1  0  0  3  0  0  0  0  0  0
  188.3860  178.4620  139.9820 C   0  0  0  0  0  2  0  0  0  0  0  0
  187.5190  178.2130  138.8320 N   0  0  0  0  0  2  0  0  0  0  0  0
  187.3280  177.7560  136.4660 C   0  0  0  0  0  1  0  0  0  0  0  0
  189.1020  179.2510  137.2700 C   0  0  0  0  0  1  0  0  0  0  0  0
  188.3010  177.9990  137.6080 C   0  0  0  0  0  0  0  0  0  0  0  0
  190.5870  177.1950  137.7670 O   0  0  0  0  0  1  0  0  0  0  0  0
  189.2480  176.7910  137.7570 C   0  0  2  0  0  3  0  0  0  0  0  0
  189.0310  175.8240  136.6870 N   0  0  0  0  0  2  0  0  0  0  0  0
  189.0740  174.4140  136.9080 C   0  0  0  0  0  0  0  0  0  0  0  0
  187.7410  173.5140  136.6360 S   0  0  0  0  0  0  0  0  0  0  0  0
  190.2580  173.7900  137.3970 N   0  0  0  0  0  1  0  0  0  0  0  0
  1  9  1  0  0  0  0
  2  5  1  0  0  0  0
  2  3  1  0  0  0  0
  3  7  1  0  0  0  0
  5 14  1  6  0  0  0
  6  1  2  0  0  0  0
  7  4  1  0  0  0  0
  8 21  1  6  0  0  0
  8 12  1  0  0  0  0
  8 13  1  0  0  0  0
 10 19  1  0  0  0  0
 11  4  1  0  0  0  0
 13  2  2  0  0  0  0
 14  1  1  0  0  0  0
 16 12  1  6  0  0  0
 16 17  1  0  0  0  0
 16  5  1  0  0  0  0
 17  6  1  0  0  0  0
 18 13  1  0  0  0  0
 18 10  2  0  0  0  0
 19  3  2  0  0  0  0
 19 20  1  0  0  0  0
 20 15  1  6  0  0  0
 20 11  1  0  0  0  0
 22 21  1  0  0  0  0
 23 25  1  0  0  0  0
 24 25  1  0  0  0  0
 25 27  1  0  0  0  0
 25 22  1  0  0  0  0
 27 26  1  6  0  0  0
 28 29  1  0  0  0  0
 28 27  1  0  0  0  0
 29 31  1  0  0  0  0
 30 29  2  0  0  0  0
M  END
>  <MODEL>
3

>  <REMARK>
 VINA RESULT:      -8.1      1.480      1.492
  Name = 
  6 active torsions:
  status: ('A' for Active; 'I' for Inactive)
    1  A    between atoms: C_1  and  N_24
    2  A    between atoms: N_9  and  C_22
    3  A    between atoms: N_9  and  C_23
    4  A    between atoms: C_15  and  C_23
    5  A    between atoms: C_19  and  C_22
    6  A    between atoms: C_19  and  N_24
                            x       y       z     vdW  Elec       q    Type
                         _______ _______ _______ _____ _____    ______ ____

>  <TORSDO>
F 6

$$$$
=
 OpenBabel10272400373D

 31 34  0  0  1  0  0  0  0  0999 V2000
  186.1230  179.5260  147.0730 C   0  0  0  0  0  0  0  0  0  0  0  0
  185.0710  178.2110  143.6260 C   0  0  0  0  0  0  0  0  0  0  0  0
  183.7930  178.5360  143.1320 C   0  0  0  0  0  0  0  0  0  0  0  0
  181.3050  178.7700  143.3500 C   0  0  0  0  0  2  0  0  0  0  0  0
  185.3030  178.1230  145.1140 C   0  0  2  0  0  3  0  0  0  0  0  0
  186.6860  178.4410  147.6120 C   0  0  0  0  0  3  0  0  0  0  0  0
  182.6480  178.8070  144.0750 C   0  0  0  0  0  2  0  0  0  0  0  0
  187.5160  177.5520  143.1850 C   0  0  1  0  0  3  0  0  0  0  0  0
  186.1340  180.7140  147.7910 O   0  0  0  0  0  1  0  0  0  0  0  0
  184.6440  178.4190  140.8950 N   0  0  0  0  0  0  0  0  0  0  0  0
  181.3760  179.6070  142.1580 N   0  0  0  0  0  2  0  0  0  0  0  0
  187.7160  177.6250  144.6990 C   0  0  0  0  0  2  0  0  0  0  0  0
  186.1410  178.0080  142.7210 C   0  0  0  0  0  0  0  0  0  0  0  0
  185.5460  179.5290  145.6830 C   0  0  0  0  0  2  0  0  0  0  0  0
  182.3270  179.7670  139.9860 N   0  0  0  0  0  1  0  0  0  0  0  0
  186.4610  177.1760  145.4320 C   0  0  1  0  0  3  0  0  0  0  0  0
  186.6890  177.0960  146.9410 C   0  0  0  0  0  2  0  0  0  0  0  0
  185.8810  178.0960  141.3490 C   0  0  0  0  0  3  0  0  0  0  0  0
  183.6090  178.6680  141.7400 C   0  0  0  0  0  0  0  0  0  0  0  0
  182.2330  178.9400  141.1780 C   0  0  1  0  0  3  0  0  0  0  0  0
  188.6330  178.3460  142.5240 C   0  0  0  0  0  2  0  0  0  0  0  0
  189.6690  177.4410  142.0290 N   0  0  0  0  0  2  0  0  0  0  0  0
  192.0080  177.7710  141.5170 C   0  0  0  0  0  1  0  0  0  0  0  0
  190.9520  179.1210  143.2760 C   0  0  0  0  0  1  0  0  0  0  0  0
  190.9740  177.7400  142.6310 C   0  0  0  0  0  0  0  0  0  0  0  0
  190.4280  175.6340  143.7100 O   0  0  0  0  0  1  0  0  0  0  0  0
  191.3620  176.6750  143.6760 C   0  0  2  0  0  3  0  0  0  0  0  0
  191.4900  177.2680  145.0030 N   0  0  0  0  0  2  0  0  0  0  0  0
  191.4400  176.4890  146.1990 C   0  0  0  0  0  0  0  0  0  0  0  0
  190.3680  176.8740  147.3670 S   0  0  0  0  0  0  0  0  0  0  0  0
  192.3400  175.4030  146.3980 N   0  0  0  0  0  1  0  0  0  0  0  0
  1  6  2  0  0  0  0
  1  9  1  0  0  0  0
  2  5  1  0  0  0  0
  3  2  1  0  0  0  0
  3  7  1  0  0  0  0
  4  7  1  0  0  0  0
  5 16  1  0  0  0  0
  5 14  1  6  0  0  0
  8 21  1  6  0  0  0
  8 12  1  0  0  0  0
 10 18  2  0  0  0  0
 10 19  1  0  0  0  0
 11  4  1  0  0  0  0
 13  8  1  0  0  0  0
 13  2  2  0  0  0  0
 14  1  1  0  0  0  0
 16 12  1  6  0  0  0
 16 17  1  0  0  0  0
 17  6  1  0  0  0  0
 18 13  1  0  0  0  0
 19  3  2  0  0  0  0
 20 15  1  6  0  0  0
 20 19  1  0  0  0  0
 20 11  1  0  0  0  0
 22 21  1  0  0  0  0
 22 25  1  0  0  0  0
 23 25  1  0  0  0  0
 25 24  1  0  0  0  0
 25 27  1  0  0  0  0
 27 26  1  1  0  0  0
 27 28  1  0  0  0  0
 28 29  1  0  0  0  0
 29 31  1  0  0  0  0
 29 30  2  0  0  0  0
M  END
>  <MODEL>
4

>  <REMARK>
 VINA RESULT:      -7.7      3.688      5.613
  Name = 
  6 active torsions:
  status: ('A' for Active; 'I' for Inactive)
    1  A    between atoms: C_1  and  N_24
    2  A    between atoms: N_9  and  C_22
    3  A    between atoms: N_9  and  C_23
    4  A    between atoms: C_15  and  C_23
    5  A    between atoms: C_19  and  C_22
    6  A    between atoms: C_19  and  N_24
                            x       y       z     vdW  Elec       q    Type
                         _______ _______ _______ _____ _____    ______ ____

>  <TORSDO>
F 6

$$$$
=
 OpenBabel10272400373D

 31 34  0  0  1  0  0  0  0  0999 V2000
  186.0110  179.5060  146.9920 C   0  0  0  0  0  0  0  0  0  0  0  0
  184.7180  178.2550  143.6040 C   0  0  0  0  0  0  0  0  0  0  0  0
  183.4030  178.5760  143.2130 C   0  0  0  0  0  0  0  0  0  0  0  0
  180.9370  178.7750  143.6220 C   0  0  0  0  0  2  0  0  0  0  0  0
  185.0610  178.1370  145.0680 C   0  0  2  0  0  3  0  0  0  0  0  0
  186.6240  178.4160  147.4620 C   0  0  0  0  0  3  0  0  0  0  0  0
  182.3290  178.8120  144.2450 C   0  0  0  0  0  2  0  0  0  0  0  0
  187.1300  177.6360  142.9670 C   0  0  1  0  0  3  0  0  0  0  0  0
  186.0630  180.6770  147.7350 O   0  0  0  0  0  1  0  0  0  0  0  0
  184.0860  178.5190  140.9180 N   0  0  0  0  0  0  0  0  0  0  0  0
  180.9090  179.6390  142.4470 N   0  0  0  0  0  2  0  0  0  0  0  0
  187.4420  177.6770  144.4630 C   0  0  0  0  0  2  0  0  0  0  0  0
  185.7200  178.0860  142.6170 C   0  0  0  0  0  0  0  0  0  0  0  0
  185.3320  179.5330  145.6500 C   0  0  0  0  0  2  0  0  0  0  0  0
  181.6940  179.8590  140.2150 N   0  0  0  0  0  1  0  0  0  0  0  0
  186.2500  177.1970  145.2770 C   0  0  1  0  0  3  0  0  0  0  0  0
  186.5910  177.0860  146.7630 C   0  0  0  0  0  2  0  0  0  0  0  0
  185.3570  178.2010  141.2700 C   0  0  0  0  0  3  0  0  0  0  0  0
  183.1150  178.7360  141.8430 C   0  0  0  0  0  0  0  0  0  0  0  0
  181.6980  179.0050  141.3910 C   0  0  1  0  0  3  0  0  0  0  0  0
  188.1860  178.4580  142.2430 C   0  0  0  0  0  2  0  0  0  0  0  0
  188.8780  177.6310  141.2560 N   0  0  0  0  0  2  0  0  0  0  0  0
  190.7460  178.3080  142.6350 C   0  0  0  0  0  1  0  0  0  0  0  0
  190.0620  175.9490  142.5960 C   0  0  0  0  0  1  0  0  0  0  0  0
  190.1960  177.2050  141.7430 C   0  0  0  0  0  0  0  0  0  0  0  0
  192.3520  177.6700  140.7270 O   0  0  0  0  0  1  0  0  0  0  0  0
  191.1650  176.9470  140.5720 C   0  0  2  0  0  3  0  0  0  0  0  0
  190.5430  177.2850  139.2960 N   0  0  0  0  0  2  0  0  0  0  0  0
  190.1460  176.2920  138.3500 C   0  0  0  0  0  0  0  0  0  0  0  0
  188.8150  176.5330  137.4380 S   0  0  0  0  0  0  0  0  0  0  0  0
  190.8790  175.0770  138.2200 N   0  0  0  0  0  1  0  0  0  0  0  0
  1  6  2  0  0  0  0
  1  9  1  0  0  0  0
  2  5  1  0  0  0  0
  3  2  1  0  0  0  0
  3  7  1  0  0  0  0
  4  7  1  0  0  0  0
  5 16  1  0  0  0  0
  5 14  1  6  0  0  0
  8 21  1  6  0  0  0
  8 12  1  0  0  0  0
 10 18  2  0  0  0  0
 10 19  1  0  0  0  0
 11  4  1  0  0  0  0
 13  8  1  0  0  0  0
 13  2  2  0  0  0  0
 14  1  1  0  0  0  0
 16 12  1  6  0  0  0
 16 17  1  0  0  0  0
 17  6  1  0  0  0  0
 18 13  1  0  0  0  0
 19  3  2  0  0  0  0
 20 15  1  6  0  0  0
 20 19  1  0  0  0  0
 20 11  1  0  0  0  0
 22 25  1  0  0  0  0
 22 21  1  0  0  0  0
 25 24  1  0  0  0  0
 25 23  1  0  0  0  0
 27 26  1  1  0  0  0
 27 25  1  0  0  0  0
 28 27  1  0  0  0  0
 29 28  1  0  0  0  0
 30 29  2  0  0  0  0
 31 29  1  0  0  0  0
M  END
>  <MODEL>
5

>  <REMARK>
 VINA RESULT:      -7.5      2.698      4.597
  Name = 
  6 active torsions:
  status: ('A' for Active; 'I' for Inactive)
    1  A    between atoms: C_1  and  N_24
    2  A    between atoms: N_9  and  C_22
    3  A    between atoms: N_9  and  C_23
    4  A    between atoms: C_15  and  C_23
    5  A    between atoms: C_19  and  C_22
    6  A    between atoms: C_19  and  N_24
                            x       y       z     vdW  Elec       q    Type
                         _______ _______ _______ _____ _____    ______ ____

>  <TORSDO>
F 6

$$$$
=
 OpenBabel10272400373D

 31 34  0  0  1  0  0  0  0  0999 V2000
  187.6380  176.0730  136.1020 C   0  0  0  0  0  0  0  0  0  0  0  0
  186.9300  178.2680  139.1680 C   0  0  0  0  0  0  0  0  0  0  0  0
  185.5950  178.5710  139.4980 C   0  0  0  0  0  0  0  0  0  0  0  0
  183.2670  179.3160  138.9340 C   0  0  0  0  0  2  0  0  0  0  0  0
  187.3080  178.0000  137.7320 C   0  0  2  0  0  3  0  0  0  0  0  0
  188.6480  176.7330  135.5300 C   0  0  0  0  0  3  0  0  0  0  0  0
  184.5300  178.6230  138.4310 C   0  0  0  0  0  2  0  0  0  0  0  0
  189.3770  177.9610  139.8920 C   0  0  1  0  0  3  0  0  0  0  0  0
  187.2150  174.8760  135.5410 O   0  0  0  0  0  1  0  0  0  0  0  0
  186.2150  178.7200  141.8080 N   0  0  0  0  0  0  0  0  0  0  0  0
  182.8750  178.7380  140.2150 N   0  0  0  0  0  2  0  0  0  0  0  0
  189.6620  177.5560  138.4460 C   0  0  0  0  0  2  0  0  0  0  0  0
  187.9020  178.1780  140.1940 C   0  0  0  0  0  0  0  0  0  0  0  0
  186.9920  176.5390  137.3790 C   0  0  0  0  0  2  0  0  0  0  0  0
  183.4750  178.5870  142.5090 N   0  0  0  0  0  1  0  0  0  0  0  0
  188.7800  178.3370  137.4830 C   0  0  1  0  0  3  0  0  0  0  0  0
  189.1540  178.0590  136.0270 C   0  0  0  0  0  2  0  0  0  0  0  0
  187.5080  178.4380  141.5120 C   0  0  0  0  0  3  0  0  0  0  0  0
  185.2500  178.7640  140.8520 C   0  0  0  0  0  0  0  0  0  0  0  0
  183.8420  179.1640  141.2270 C   0  0  1  0  0  3  0  0  0  0  0  0
  189.9970  176.9130  140.8050 C   0  0  0  0  0  2  0  0  0  0  0  0
  190.7300  177.5620  141.8900 N   0  0  0  0  0  2  0  0  0  0  0  0
  189.2840  175.9580  142.9770 C   0  0  0  0  0  1  0  0  0  0  0  0
  191.6090  176.1960  143.7310 C   0  0  0  0  0  1  0  0  0  0  0  0
  190.4060  176.9610  143.1900 C   0  0  0  0  0  0  0  0  0  0  0  0
  190.7920  179.1610  144.1430 O   0  0  0  0  0  1  0  0  0  0  0  0
  189.9640  178.0350  144.2040 C   0  0  2  0  0  3  0  0  0  0  0  0
  189.9570  177.5000  145.5610 N   0  0  0  0  0  2  0  0  0  0  0  0
  188.8350  177.6370  146.4330 C   0  0  0  0  0  0  0  0  0  0  0  0
  187.3280  177.6620  145.8090 S   0  0  0  0  0  0  0  0  0  0  0  0
  189.0180  177.7900  147.8380 N   0  0  0  0  0  1  0  0  0  0  0  0
  1 14  1  0  0  0  0
  2  3  2  0  0  0  0
  2 13  1  0  0  0  0
  3 19  1  0  0  0  0
  4 11  1  0  0  0  0
  5 14  1  1  0  0  0
  5  2  1  0  0  0  0
  6 17  1  0  0  0  0
  6  1  2  0  0  0  0
  7  4  1  0  0  0  0
  7  3  1  0  0  0  0
  8 13  1  0  0  0  0
  8 21  1  1  0  0  0
  9  1  1  0  0  0  0
 11 20  1  0  0  0  0
 12  8  1  0  0  0  0
 13 18  2  0  0  0  0
 16 17  1  6  0  0  0
 16  5  1  0  0  0  0
 16 12  1  0  0  0  0
 18 10  1  0  0  0  0
 19 20  1  0  0  0  0
 19 10  2  0  0  0  0
 20 15  1  1  0  0  0
 21 22  1  0  0  0  0
 22 25  1  0  0  0  0
 23 25  1  0  0  0  0
 25 24  1  0  0  0  0
 25 27  1  0  0  0  0
 27 26  1  1  0  0  0
 27 28  1  0  0  0  0
 28 29  1  0  0  0  0
 29 31  1  0  0  0  0
 30 29  2  0  0  0  0
M  END
>  <MODEL>
6

>  <REMARK>
 VINA RESULT:      -7.4      2.943      6.831
  Name = 
  6 active torsions:
  status: ('A' for Active; 'I' for Inactive)
    1  A    between atoms: C_1  and  N_24
    2  A    between atoms: N_9  and  C_22
    3  A    between atoms: N_9  and  C_23
    4  A    between atoms: C_15  and  C_23
    5  A    between atoms: C_19  and  C_22
    6  A    between atoms: C_19  and  N_24
                            x       y       z     vdW  Elec       q    Type
                         _______ _______ _______ _____ _____    ______ ____

>  <TORSDO>
F 6

$$$$
=
 OpenBabel10272400373D

 31 34  0  0  1  0  0  0  0  0999 V2000
  191.1180  174.1770  136.8480 C   0  0  0  0  0  0  0  0  0  0  0  0
  189.0530  177.1810  138.0450 C   0  0  0  0  0  0  0  0  0  0  0  0
  187.7880  177.4130  137.4720 C   0  0  0  0  0  0  0  0  0  0  0  0
  186.2230  177.6320  135.5240 C   0  0  0  0  0  2  0  0  0  0  0  0
  190.1270  176.4890  137.2440 C   0  0  2  0  0  3  0  0  0  0  0  0
  192.3320  174.7210  136.7230 C   0  0  0  0  0  3  0  0  0  0  0  0
  187.4870  176.9680  136.0620 C   0  0  0  0  0  2  0  0  0  0  0  0
  190.6690  177.4390  140.0280 C   0  0  1  0  0  3  0  0  0  0  0  0
  190.9640  172.8190  136.6090 O   0  0  0  0  0  1  0  0  0  0  0  0
  187.0580  178.4130  139.5230 N   0  0  0  0  0  0  0  0  0  0  0  0
  185.1460  177.4810  136.4950 N   0  0  0  0  0  2  0  0  0  0  0  0
  191.6590  176.6050  139.2160 C   0  0  0  0  0  2  0  0  0  0  0  0
  189.2950  177.5650  139.3870 C   0  0  0  0  0  0  0  0  0  0  0  0
  189.9250  174.9680  137.3140 C   0  0  0  0  0  2  0  0  0  0  0  0
  184.3800  178.1940  138.6290 N   0  0  0  0  0  1  0  0  0  0  0  0
  191.5200  176.8970  137.7290 C   0  0  1  0  0  3  0  0  0  0  0  0
  192.6010  176.1880  136.9130 C   0  0  0  0  0  2  0  0  0  0  0  0
  188.2710  178.2080  140.0920 C   0  0  0  0  0  3  0  0  0  0  0  0
  186.7790  178.0110  138.2550 C   0  0  0  0  0  0  0  0  0  0  0  0
  185.4370  178.3410  137.6430 C   0  0  1  0  0  3  0  0  0  0  0  0
  190.5930  176.8490  141.4280 C   0  0  0  0  0  2  0  0  0  0  0  0
  191.6080  177.4560  142.2860 N   0  0  0  0  0  2  0  0  0  0  0  0
  191.6040  179.1500  144.0110 C   0  0  0  0  0  1  0  0  0  0  0  0
  189.5450  177.8980  143.5400 C   0  0  0  0  0  1  0  0  0  0  0  0
  191.0630  177.7870  143.6090 C   0  0  0  0  0  0  0  0  0  0  0  0
  191.8040  175.5170  144.0490 O   0  0  0  0  0  1  0  0  0  0  0  0
  191.4680  176.7320  144.6570 C   0  0  2  0  0  3  0  0  0  0  0  0
  190.3990  176.5210  145.6260 N   0  0  0  0  0  2  0  0  0  0  0  0
  190.5800  176.7340  147.0260 C   0  0  0  0  0  0  0  0  0  0  0  0
  191.9710  176.2650  147.7390 S   0  0  0  0  0  0  0  0  0  0  0  0
  189.5460  177.3170  147.8140 N   0  0  0  0  0  1  0  0  0  0  0  0
  1 14  1  0  0  0  0
  2 13  1  0  0  0  0
  3  2  2  0  0  0  0
  3 19  1  0  0  0  0
  4  7  1  0  0  0  0
  4 11  1  0  0  0  0
  5 14  1  1  0  0  0
  5 16  1  0  0  0  0
  5  2  1  0  0  0  0
  6  1  2  0  0  0  0
  6 17  1  0  0  0  0
  7  3  1  0  0  0  0
  8 21  1  1  0  0  0
  9  1  1  0  0  0  0
 10 18  1  0  0  0  0
 11 20  1  0  0  0  0
 12  8  1  0  0  0  0
 13  8  1  0  0  0  0
 13 18  2  0  0  0  0
 16 17  1  6  0  0  0
 16 12  1  0  0  0  0
 19 10  2  0  0  0  0
 20 19  1  0  0  0  0
 20 15  1  1  0  0  0
 21 22  1  0  0  0  0
 22 25  1  0  0  0  0
 24 25  1  0  0  0  0
 25 23  1  0  0  0  0
 25 27  1  0  0  0  0
 27 26  1  6  0  0  0
 27 28  1  0  0  0  0
 28 29  1  0  0  0  0
 29 30  2  0  0  0  0
 29 31  1  0  0  0  0
M  END
>  <MODEL>
7

>  <REMARK>
 VINA RESULT:      -6.9      3.610      7.502
  Name = 
  6 active torsions:
  status: ('A' for Active; 'I' for Inactive)
    1  A    between atoms: C_1  and  N_24
    2  A    between atoms: N_9  and  C_22
    3  A    between atoms: N_9  and  C_23
    4  A    between atoms: C_15  and  C_23
    5  A    between atoms: C_19  and  C_22
    6  A    between atoms: C_19  and  N_24
                            x       y       z     vdW  Elec       q    Type
                         _______ _______ _______ _____ _____    ______ ____

>  <TORSDO>
F 6

$$$$
=
 OpenBabel10272400373D

 31 34  0  0  1  0  0  0  0  0999 V2000
  191.3230  176.1310  143.5870 C   0  0  0  0  0  0  0  0  0  0  0  0
  189.7830  177.5970  140.3940 C   0  0  0  0  0  0  0  0  0  0  0  0
  190.2400  177.1390  139.1430 C   0  0  0  0  0  0  0  0  0  0  0  0
  192.0410  176.5300  137.5070 C   0  0  0  0  0  2  0  0  0  0  0  0
  190.7080  177.5780  141.5850 C   0  0  2  0  0  3  0  0  0  0  0  0
  191.5090  177.2310  144.3220 C   0  0  0  0  0  3  0  0  0  0  0  0
  191.6460  176.6190  138.9780 C   0  0  0  0  0  2  0  0  0  0  0  0
  187.9220  178.6380  141.8280 C   0  0  1  0  0  3  0  0  0  0  0  0
  191.6330  174.8950  144.1380 O   0  0  0  0  0  1  0  0  0  0  0  0
  188.0790  177.5850  138.2070 N   0  0  0  0  0  0  0  0  0  0  0  0
  190.9990  175.8270  136.7670 N   0  0  0  0  0  2  0  0  0  0  0  0
  188.8600  178.4540  143.0210 C   0  0  0  0  0  2  0  0  0  0  0  0
  188.4440  178.0340  140.5330 C   0  0  0  0  0  0  0  0  0  0  0  0
  190.7170  176.1750  142.2110 C   0  0  0  0  0  2  0  0  0  0  0  0
  188.7710  176.0090  135.9600 N   0  0  0  0  0  1  0  0  0  0  0  0
  190.3100  178.6480  142.6030 C   0  0  1  0  0  3  0  0  0  0  0  0
  191.2510  178.6190  143.8080 C   0  0  0  0  0  2  0  0  0  0  0  0
  187.6210  178.0390  139.4010 C   0  0  0  0  0  3  0  0  0  0  0  0
  189.3440  177.1120  138.0540 C   0  0  0  0  0  0  0  0  0  0  0  0
  189.8270  176.6980  136.6830 C   0  0  1  0  0  3  0  0  0  0  0  0
  186.5600  178.0790  142.2100 C   0  0  0  0  0  2  0  0  0  0  0  0
  186.5010  177.8330  143.6490 N   0  0  0  0  0  2  0  0  0  0  0  0
  185.5950  180.0400  144.0420 C   0  0  0  0  0  1  0  0  0  0  0  0
  184.0700  178.1670  143.5960 C   0  0  0  0  0  1  0  0  0  0  0  0
  185.3820  178.5520  144.2710 C   0  0  0  0  0  0  0  0  0  0  0  0
  184.1360  178.7880  146.3410 O   0  0  0  0  0  1  0  0  0  0  0  0
  185.3040  178.2600  145.7830 C   0  0  2  0  0  3  0  0  0  0  0  0
  186.4700  178.7930  146.4780 N   0  0  0  0  0  2  0  0  0  0  0  0
  187.4940  177.9530  147.0130 C   0  0  0  0  0  0  0  0  0  0  0  0
  187.8580  178.0370  148.6010 S   0  0  0  0  0  0  0  0  0  0  0  0
  188.2260  177.0690  146.1680 N   0  0  0  0  0  1  0  0  0  0  0  0
  1  9  1  0  0  0  0
  1  6  2  0  0  0  0
  2 13  1  0  0  0  0
  2  5  1  0  0  0  0
  3  2  2  0  0  0  0
  4  7  1  0  0  0  0
  5 14  1  1  0  0  0
  5 16  1  0  0  0  0
  7  3  1  0  0  0  0
  8 21  1  1  0  0  0
  8 12  1  0  0  0  0
 10 18  1  0  0  0  0
 11  4  1  0  0  0  0
 13  8  1  0  0  0  0
 14  1  1  0  0  0  0
 16 12  1  1  0  0  0
 16 17  1  0  0  0  0
 17  6  1  0  0  0  0
 18 13  2  0  0  0  0
 19 10  2  0  0  0  0
 19  3  1  0  0  0  0
 20 15  1  1  0  0  0
 20 11  1  0  0  0  0
 20 19  1  0  0  0  0
 21 22  1  0  0  0  0
 22 25  1  0  0  0  0
 23 25  1  0  0  0  0
 24 25  1  0  0  0  0
 25 27  1  0  0  0  0
 27 26  1  1  0  0  0
 27 28  1  0  0  0  0
 28 29  1  0  0  0  0
 29 30  2  0  0  0  0
 31 29  1  0  0  0  0
M  END
>  <MODEL>
8

>  <REMARK>
 VINA RESULT:      -6.9      3.118      7.301
  Name = 
  6 active torsions:
  status: ('A' for Active; 'I' for Inactive)
    1  A    between atoms: C_1  and  N_24
    2  A    between atoms: N_9  and  C_22
    3  A    between atoms: N_9  and  C_23
    4  A    between atoms: C_15  and  C_23
    5  A    between atoms: C_19  and  C_22
    6  A    between atoms: C_19  and  N_24
                            x       y       z     vdW  Elec       q    Type
                         _______ _______ _______ _____ _____    ______ ____

>  <TORSDO>
F 6

$$$$
=
 OpenBabel10272400373D

 31 34  0  0  1  0  0  0  0  0999 V2000
  191.7200  175.9460  144.4930 C   0  0  0  0  0  0  0  0  0  0  0  0
  190.1940  177.4950  141.3320 C   0  0  0  0  0  0  0  0  0  0  0  0
  190.7880  177.2260  140.0840 C   0  0  0  0  0  0  0  0  0  0  0  0
  192.7580  177.0270  138.5430 C   0  0  0  0  0  2  0  0  0  0  0  0
  191.0350  177.4850  142.5840 C   0  0  2  0  0  3  0  0  0  0  0  0
  191.7020  176.9840  145.3330 C   0  0  0  0  0  3  0  0  0  0  0  0
  192.2620  176.9190  139.9820 C   0  0  0  0  0  2  0  0  0  0  0  0
  188.1170  178.1320  142.7070 C   0  0  1  0  0  3  0  0  0  0  0  0
  192.1650  174.7160  144.9560 O   0  0  0  0  0  1  0  0  0  0  0  0
  188.6500  177.4670  139.0300 N   0  0  0  0  0  0  0  0  0  0  0  0
  191.8740  176.2650  137.6680 N   0  0  0  0  0  2  0  0  0  0  0  0
  188.9940  177.9610  143.9470 C   0  0  0  0  0  2  0  0  0  0  0  0
  188.8000  177.7330  141.4070 C   0  0  0  0  0  0  0  0  0  0  0  0
  191.2010  176.0410  143.0830 C   0  0  0  0  0  2  0  0  0  0  0  0
  189.6980  176.2240  136.7130 N   0  0  0  0  0  1  0  0  0  0  0  0
  190.4260  178.3880  143.6590 C   0  0  1  0  0  3  0  0  0  0  0  0
  191.2840  178.3690  144.9240 C   0  0  0  0  0  2  0  0  0  0  0  0
  188.0580  177.7370  140.2200 C   0  0  0  0  0  3  0  0  0  0  0  0
  189.9760  177.1860  138.9320 C   0  0  0  0  0  0  0  0  0  0  0  0
  190.5980  176.9750  137.5710 C   0  0  1  0  0  3  0  0  0  0  0  0
  186.8260  177.3610  142.9330 C   0  0  0  0  0  2  0  0  0  0  0  0
  186.0710  177.9550  144.0340 N   0  0  0  0  0  2  0  0  0  0  0  0
  183.7230  178.4400  144.3490 C   0  0  0  0  0  1  0  0  0  0  0  0
  185.2670  180.2590  143.7670 C   0  0  0  0  0  1  0  0  0  0  0  0
  184.9630  178.7830  143.5390 C   0  0  0  0  0  0  0  0  0  0  0  0
  185.2130  179.5560  141.2510 O   0  0  0  0  0  1  0  0  0  0  0  0
  184.7010  178.5230  142.0420 C   0  0  2  0  0  3  0  0  0  0  0  0
  183.2740  178.3620  141.7830 N   0  0  0  0  0  2  0  0  0  0  0  0
  182.7600  178.0640  140.4850 C   0  0  0  0  0  0  0  0  0  0  0  0
  181.9490  179.2110  139.6560 S   0  0  0  0  0  0  0  0  0  0  0  0
  182.9150  176.7650  139.9210 N   0  0  0  0  0  1  0  0  0  0  0  0
  1  9  1  0  0  0  0
  1  6  2  0  0  0  0
  2 13  1  0  0  0  0
  2  5  1  0  0  0  0
  3  2  2  0  0  0  0
  4  7  1  0  0  0  0
  5 14  1  1  0  0  0
  5 16  1  0  0  0  0
  7  3  1  0  0  0  0
  8 21  1  1  0  0  0
  8 12  1  0  0  0  0
 10 18  1  0  0  0  0
 11  4  1  0  0  0  0
 13  8  1  0  0  0  0
 14  1  1  0  0  0  0
 16 12  1  1  0  0  0
 16 17  1  0  0  0  0
 17  6  1  0  0  0  0
 18 13  2  0  0  0  0
 19 10  2  0  0  0  0
 19  3  1  0  0  0  0
 20 15  1  6  0  0  0
 20 11  1  0  0  0  0
 20 19  1  0  0  0  0
 21 22  1  0  0  0  0
 25 24  1  0  0  0  0
 25 22  1  0  0  0  0
 25 23  1  0  0  0  0
 27 26  1  6  0  0  0
 27 25  1  0  0  0  0
 28 27  1  0  0  0  0
 29 28  1  0  0  0  0
 30 29  2  0  0  0  0
 31 29  1  0  0  0  0
M  END
>  <MODEL>
9

>  <REMARK>
 VINA RESULT:      -6.8      3.046      6.755
  Name = 
  6 active torsions:
  status: ('A' for Active; 'I' for Inactive)
    1  A    between atoms: C_1  and  N_24
    2  A    between atoms: N_9  and  C_22
    3  A    between atoms: N_9  and  C_23
    4  A    between atoms: C_15  and  C_23
    5  A    between atoms: C_19  and  C_22
    6  A    between atoms: C_19  and  N_24
                            x       y       z     vdW  Elec       q    Type
                         _______ _______ _______ _____ _____    ______ ____

>  <TORSDO>
F 6

$$$$
