=
 OpenBabel10262423423D

 34 39  0  0  1  0  0  0  0  0999 V2000
  188.4680  178.3940  139.7090 C   0  0  0  0  0  0  0  0  0  0  0  0
  186.8050  177.7670  138.0580 C   0  0  0  0  0  0  0  0  0  0  0  0
  186.1190  178.3770  140.4060 C   0  0  0  0  0  0  0  0  0  0  0  0
  183.8560  178.6660  141.2210 C   0  0  0  0  0  0  0  0  0  0  0  0
  189.1150  178.1000  137.3980 C   0  0  0  0  0  3  0  0  0  0  0  0
  187.8020  177.7660  137.0770 C   0  0  0  0  0  3  0  0  0  0  0  0
  184.0370  179.3540  138.6880 S   0  0  0  0  0  0  0  0  0  0  0  0
  187.0980  178.2130  139.3750 C   0  0  0  0  0  0  0  0  0  0  0  0
  182.4550  179.0090  140.8810 C   0  0  0  0  0  2  0  0  0  0  0  0
  189.4530  178.3800  138.7200 C   0  0  0  0  0  3  0  0  0  0  0  0
  186.5500  178.3770  141.7670 C   0  0  0  0  0  0  0  0  0  0  0  0
  188.8620  178.5280  141.0350 C   0  0  0  0  0  3  0  0  0  0  0  0
  185.5770  177.2140  137.7260 O   0  0  0  0  0  1  0  0  0  0  0  0
  184.2730  178.5240  142.5000 N   0  0  0  0  0  0  0  0  0  0  0  0
  185.5890  178.3760  142.8140 C   0  0  0  0  0  0  0  0  0  0  0  0
  182.3730  179.0040  139.3600 C   0  0  1  0  0  3  0  0  0  0  0  0
  184.7460  178.6400  140.1690 C   0  0  0  0  0  0  0  0  0  0  0  0
  187.9170  178.4810  142.0520 C   0  0  0  0  0  3  0  0  0  0  0  0
  187.4240  177.4960  146.0310 C   0  0  0  0  0  0  0  0  0  0  0  0
  186.5340  177.9860  146.9890 C   0  0  0  0  0  3  0  0  0  0  0  0
  185.9450  178.2580  144.2530 C   0  0  0  0  0  0  0  0  0  0  0  0
  185.3470  178.6030  146.5880 C   0  0  0  0  0  3  0  0  0  0  0  0
  187.1270  177.6270  144.6710 C   0  0  0  0  0  3  0  0  0  0  0  0
  185.0530  178.7350  145.2270 C   0  0  0  0  0  3  0  0  0  0  0  0
  188.5710  176.8910  146.4180 F   0  0  0  0  0  0  0  0  0  0  0  0
  181.4500  180.5280  137.6660 C   0  0  0  0  0  3  0  0  0  0  0  0
  181.3920  180.0310  138.9050 C   0  0  0  0  0  3  0  0  0  0  0  0
  180.5780  182.8590  138.0050 C   0  0  0  0  0  2  0  0  0  0  0  0
  180.4820  181.5630  137.1800 C   0  0  1  0  0  3  0  0  0  0  0  0
  181.4150  183.9190  137.2910 C   0  0  0  0  0  2  0  0  0  0  0  0
  180.8230  184.2830  135.9220 C   0  0  1  0  0  3  0  0  0  0  0  0
  180.0550  183.1340  135.2540 C   0  0  0  0  0  2  0  0  0  0  0  0
  180.6200  181.7780  135.6650 C   0  0  0  0  0  2  0  0  0  0  0  0
  179.9820  185.3880  136.0500 O   0  0  0  0  0  1  0  0  0  0  0  0
  1 12  1  0  0  0  0
  2  8  1  0  0  0  0
  3 11  1  0  0  0  0
  4 14  2  0  0  0  0
  5 10  2  0  0  0  0
  6  5  1  0  0  0  0
  6  2  2  0  0  0  0
  7 16  1  0  0  0  0
  7 17  1  0  0  0  0
  8  1  2  0  0  0  0
  8  3  1  0  0  0  0
  9  4  1  0  0  0  0
 10  1  1  0  0  0  0
 11 18  1  0  0  0  0
 11 15  2  0  0  0  0
 12 18  2  0  0  0  0
 13  2  1  0  0  0  0
 14 15  1  0  0  0  0
 15 21  1  0  0  0  0
 16 27  1  1  0  0  0
 16  9  1  0  0  0  0
 17  3  2  0  0  0  0
 17  4  1  0  0  0  0
 19 25  1  0  0  0  0
 19 20  1  0  0  0  0
 21 23  1  0  0  0  0
 21 24  2  0  0  0  0
 22 20  2  0  0  0  0
 23 19  2  0  0  0  0
 24 22  1  0  0  0  0
 26 27  2  0  0  0  0
 29 26  1  1  0  0  0
 29 28  1  0  0  0  0
 30 28  1  0  0  0  0
 31 34  1  1  0  0  0
 31 30  1  0  0  0  0
 32 33  1  0  0  0  0
 32 31  1  0  0  0  0
 33 29  1  0  0  0  0
M  END
>  <MODEL>
1

>  <REMARK>
 VINA RESULT:     -10.0      0.000      0.000
  Name = 
  3 active torsions:
  status: ('A' for Active; 'I' for Inactive)
    1  A    between atoms: C_3  and  C_13
    2  A    between atoms: C_12  and  C_28
    3  A    between atoms: C_17  and  C_29
                            x       y       z     vdW  Elec       q    Type
                         _______ _______ _______ _____ _____    ______ ____

>  <TORSDO>
F 3

$$$$
=
 OpenBabel10262423423D

 34 39  0  0  1  0  0  0  0  0999 V2000
  182.5690  178.7870  141.6300 C   0  0  0  0  0  0  0  0  0  0  0  0
  183.4730  179.6680  139.5590 C   0  0  0  0  0  0  0  0  0  0  0  0
  184.9980  178.7130  141.3250 C   0  0  0  0  0  0  0  0  0  0  0  0
  187.3790  178.3170  141.1180 C   0  0  0  0  0  0  0  0  0  0  0  0
  181.0770  179.4250  139.8370 C   0  0  0  0  0  3  0  0  0  0  0  0
  182.1720  179.8130  139.0690 C   0  0  0  0  0  3  0  0  0  0  0  0
  186.1730  178.0210  138.7980 S   0  0  0  0  0  0  0  0  0  0  0  0
  183.7020  179.0260  140.8060 C   0  0  0  0  0  0  0  0  0  0  0  0
  188.5100  178.0390  140.2010 C   0  0  0  0  0  2  0  0  0  0  0  0
  181.2750  178.9450  141.1300 C   0  0  0  0  0  3  0  0  0  0  0  0
  185.1420  178.5040  142.7290 C   0  0  0  0  0  0  0  0  0  0  0  0
  182.7250  178.4520  142.9700 C   0  0  0  0  0  3  0  0  0  0  0  0
  184.4980  180.2730  138.8450 O   0  0  0  0  0  1  0  0  0  0  0  0
  187.5120  178.2610  142.4620 N   0  0  0  0  0  0  0  0  0  0  0  0
  186.4380  178.3510  143.2940 C   0  0  0  0  0  0  0  0  0  0  0  0
  187.9840  178.2750  138.7920 C   0  0  1  0  0  3  0  0  0  0  0  0
  186.1480  178.4980  140.5240 C   0  0  0  0  0  0  0  0  0  0  0  0
  183.9960  178.3490  143.5200 C   0  0  0  0  0  3  0  0  0  0  0  0
  187.9580  177.3900  146.6480 C   0  0  0  0  0  0  0  0  0  0  0  0
  187.0700  178.0080  147.5320 C   0  0  0  0  0  3  0  0  0  0  0  0
  186.6880  178.2470  144.7560 C   0  0  0  0  0  0  0  0  0  0  0  0
  185.9870  178.7380  147.0350 C   0  0  0  0  0  3  0  0  0  0  0  0
  187.7640  177.5050  145.2690 C   0  0  0  0  0  3  0  0  0  0  0  0
  185.7950  178.8520  145.6550 C   0  0  0  0  0  3  0  0  0  0  0  0
  189.0050  176.6780  147.1280 F   0  0  0  0  0  0  0  0  0  0  0  0
  189.9530  177.0800  137.9340 C   0  0  0  0  0  3  0  0  0  0  0  0
  188.6450  177.3360  137.8410 C   0  0  0  0  0  3  0  0  0  0  0  0
  192.1510  176.4530  136.8920 C   0  0  0  0  0  2  0  0  0  0  0  0
  190.6470  176.1430  136.9910 C   0  0  1  0  0  3  0  0  0  0  0  0
  192.9780  175.5100  137.7640 C   0  0  0  0  0  2  0  0  0  0  0  0
  192.7790  174.0420  137.3620 C   0  0  1  0  0  3  0  0  0  0  0  0
  191.3960  173.7460  136.7670 C   0  0  0  0  0  2  0  0  0  0  0  0
  190.3340  174.6800  137.3400 C   0  0  0  0  0  2  0  0  0  0  0  0
  193.7650  173.6640  136.4510 O   0  0  0  0  0  1  0  0  0  0  0  0
  1 12  1  0  0  0  0
  2  8  1  0  0  0  0
  3 11  1  0  0  0  0
  4 14  2  0  0  0  0
  5 10  2  0  0  0  0
  6  2  2  0  0  0  0
  6  5  1  0  0  0  0
  7 17  1  0  0  0  0
  8  3  1  0  0  0  0
  8  1  2  0  0  0  0
  9  4  1  0  0  0  0
 10  1  1  0  0  0  0
 11 15  2  0  0  0  0
 11 18  1  0  0  0  0
 12 18  2  0  0  0  0
 13  2  1  0  0  0  0
 14 15  1  0  0  0  0
 15 21  1  0  0  0  0
 16 27  1  6  0  0  0
 16  7  1  0  0  0  0
 16  9  1  0  0  0  0
 17  4  1  0  0  0  0
 17  3  2  0  0  0  0
 19 25  1  0  0  0  0
 19 20  1  0  0  0  0
 21 23  1  0  0  0  0
 21 24  2  0  0  0  0
 22 20  2  0  0  0  0
 23 19  2  0  0  0  0
 24 22  1  0  0  0  0
 27 26  2  0  0  0  0
 28 29  1  0  0  0  0
 28 30  1  0  0  0  0
 29 33  1  0  0  0  0
 29 26  1  1  0  0  0
 31 34  1  6  0  0  0
 31 30  1  0  0  0  0
 32 33  1  0  0  0  0
 32 31  1  0  0  0  0
M  END
>  <MODEL>
2

>  <REMARK>
 VINA RESULT:     -10.0      2.679      7.749
  Name = 
  3 active torsions:
  status: ('A' for Active; 'I' for Inactive)
    1  A    between atoms: C_3  and  C_13
    2  A    between atoms: C_12  and  C_28
    3  A    between atoms: C_17  and  C_29
                            x       y       z     vdW  Elec       q    Type
                         _______ _______ _______ _____ _____    ______ ____

>  <TORSDO>
F 3

$$$$
=
 OpenBabel10262423423D

 34 39  0  0  1  0  0  0  0  0999 V2000
  185.8690  177.8200  143.6270 C   0  0  0  0  0  0  0  0  0  0  0  0
  186.2320  178.8840  141.4780 C   0  0  0  0  0  0  0  0  0  0  0  0
  188.1230  177.7180  142.6710 C   0  0  0  0  0  0  0  0  0  0  0  0
  190.3390  177.2880  141.7920 C   0  0  0  0  0  0  0  0  0  0  0  0
  183.9880  178.6720  142.3710 C   0  0  0  0  0  3  0  0  0  0  0  0
  184.8560  179.1090  141.3740 C   0  0  0  0  0  3  0  0  0  0  0  0
  188.5440  177.2590  139.8680 S   0  0  0  0  0  0  0  0  0  0  0  0
  186.7520  178.1130  142.5530 C   0  0  0  0  0  0  0  0  0  0  0  0
  191.1690  177.0770  140.5820 C   0  0  0  0  0  2  0  0  0  0  0  0
  184.4980  178.0580  143.5120 C   0  0  0  0  0  3  0  0  0  0  0  0
  188.6260  177.3650  143.9590 C   0  0  0  0  0  0  0  0  0  0  0  0
  186.3610  177.3460  144.8380 C   0  0  0  0  0  3  0  0  0  0  0  0
  187.0590  179.5340  140.5720 O   0  0  0  0  0  1  0  0  0  0  0  0
  190.8220  177.0930  143.0400 N   0  0  0  0  0  0  0  0  0  0  0  0
  190.0150  177.1240  144.1350 C   0  0  0  0  0  0  0  0  0  0  0  0
  190.2980  177.4690  139.3950 C   0  0  1  0  0  3  0  0  0  0  0  0
  189.0050  177.5580  141.5730 C   0  0  0  0  0  0  0  0  0  0  0  0
  187.7260  177.1580  145.0120 C   0  0  0  0  0  3  0  0  0  0  0  0
  190.8650  177.3240  147.8400 C   0  0  0  0  0  0  0  0  0  0  0  0
  191.9110  176.4030  147.9250 C   0  0  0  0  0  3  0  0  0  0  0  0
  190.6410  176.8660  145.4600 C   0  0  0  0  0  0  0  0  0  0  0  0
  192.3320  175.7190  146.7820 C   0  0  0  0  0  3  0  0  0  0  0  0
  190.2380  177.5580  146.6130 C   0  0  0  0  0  3  0  0  0  0  0  0
  191.7030  175.9520  145.5570 C   0  0  0  0  0  3  0  0  0  0  0  0
  190.4600  177.9940  148.9450 F   0  0  0  0  0  0  0  0  0  0  0  0
  191.8870  176.2010  138.0120 C   0  0  0  0  0  3  0  0  0  0  0  0
  190.6340  176.6150  138.2200 C   0  0  0  0  0  3  0  0  0  0  0  0
  193.7820  175.2700  136.6520 C   0  0  0  0  0  2  0  0  0  0  0  0
  192.2560  175.3460  136.8380 C   0  0  1  0  0  3  0  0  0  0  0  0
  194.3560  173.9790  137.2320 C   0  0  0  0  0  2  0  0  0  0  0  0
  193.7450  172.7360  136.5700 C   0  0  1  0  0  3  0  0  0  0  0  0
  192.3090  172.9450  136.0690 C   0  0  0  0  0  2  0  0  0  0  0  0
  191.5700  173.9740  136.9200 C   0  0  0  0  0  2  0  0  0  0  0  0
  194.5490  172.3240  135.5070 O   0  0  0  0  0  1  0  0  0  0  0  0
  1 12  1  0  0  0  0
  2  8  1  0  0  0  0
  3 11  1  0  0  0  0
  4 14  2  0  0  0  0
  5 10  2  0  0  0  0
  6  2  2  0  0  0  0
  6  5  1  0  0  0  0
  7 17  1  0  0  0  0
  8  3  1  0  0  0  0
  8  1  2  0  0  0  0
  9  4  1  0  0  0  0
 10  1  1  0  0  0  0
 11 15  2  0  0  0  0
 11 18  1  0  0  0  0
 12 18  2  0  0  0  0
 13  2  1  0  0  0  0
 14 15  1  0  0  0  0
 15 21  1  0  0  0  0
 16 27  1  6  0  0  0
 16  7  1  0  0  0  0
 16  9  1  0  0  0  0
 17  4  1  0  0  0  0
 17  3  2  0  0  0  0
 19 20  1  0  0  0  0
 19 25  1  0  0  0  0
 21 24  2  0  0  0  0
 21 23  1  0  0  0  0
 22 20  2  0  0  0  0
 23 19  2  0  0  0  0
 24 22  1  0  0  0  0
 26 27  2  0  0  0  0
 28 29  1  0  0  0  0
 28 30  1  0  0  0  0
 29 33  1  0  0  0  0
 29 26  1  1  0  0  0
 31 34  1  6  0  0  0
 31 30  1  0  0  0  0
 32 31  1  0  0  0  0
 32 33  1  0  0  0  0
M  END
>  <MODEL>
3

>  <REMARK>
 VINA RESULT:      -9.9      4.457      9.037
  Name = 
  3 active torsions:
  status: ('A' for Active; 'I' for Inactive)
    1  A    between atoms: C_3  and  C_13
    2  A    between atoms: C_12  and  C_28
    3  A    between atoms: C_17  and  C_29
                            x       y       z     vdW  Elec       q    Type
                         _______ _______ _______ _____ _____    ______ ____

>  <TORSDO>
F 3

$$$$
=
 OpenBabel10262423423D

 34 39  0  0  1  0  0  0  0  0999 V2000
  185.7910  177.8990  144.1250 C   0  0  0  0  0  0  0  0  0  0  0  0
  185.9940  179.0780  142.0160 C   0  0  0  0  0  0  0  0  0  0  0  0
  187.9600  177.8350  142.9880 C   0  0  0  0  0  0  0  0  0  0  0  0
  190.0950  177.4400  141.9130 C   0  0  0  0  0  0  0  0  0  0  0  0
  183.8250  178.8320  143.0720 C   0  0  0  0  0  3  0  0  0  0  0  0
  184.6170  179.3180  142.0340 C   0  0  0  0  0  3  0  0  0  0  0  0
  188.1530  177.5280  140.1400 S   0  0  0  0  0  0  0  0  0  0  0  0
  186.5890  178.2460  143.0020 C   0  0  0  0  0  0  0  0  0  0  0  0
  190.8240  177.2900  140.6310 C   0  0  0  0  0  2  0  0  0  0  0  0
  184.4180  178.1540  144.1340 C   0  0  0  0  0  3  0  0  0  0  0  0
  188.5600  177.4080  144.2100 C   0  0  0  0  0  0  0  0  0  0  0  0
  186.3720  177.3560  145.2660 C   0  0  0  0  0  3  0  0  0  0  0  0
  186.7530  179.7710  141.0830 O   0  0  0  0  0  1  0  0  0  0  0  0
  190.6730  177.1720  143.1050 N   0  0  0  0  0  0  0  0  0  0  0  0
  189.9560  177.1490  144.2620 C   0  0  0  0  0  0  0  0  0  0  0  0
  189.8660  177.7520  139.5410 C   0  0  1  0  0  3  0  0  0  0  0  0
  188.7510  177.7300  141.8160 C   0  0  0  0  0  0  0  0  0  0  0  0
  187.7440  177.1490  145.3190 C   0  0  0  0  0  3  0  0  0  0  0  0
  191.2270  177.2490  147.8490 C   0  0  0  0  0  0  0  0  0  0  0  0
  192.1400  176.1920  147.8390 C   0  0  0  0  0  3  0  0  0  0  0  0
  190.6820  176.8130  145.5160 C   0  0  0  0  0  0  0  0  0  0  0  0
  192.3350  175.4500  146.6720 C   0  0  0  0  0  3  0  0  0  0  0  0
  190.5070  177.5600  146.6920 C   0  0  0  0  0  3  0  0  0  0  0  0
  191.6130  175.7620  145.5160 C   0  0  0  0  0  3  0  0  0  0  0  0
  191.0410  177.9740  148.9770 F   0  0  0  0  0  0  0  0  0  0  0  0
  191.3140  176.4970  138.0010 C   0  0  0  0  0  3  0  0  0  0  0  0
  190.0970  176.9620  138.2970 C   0  0  0  0  0  3  0  0  0  0  0  0
  191.5120  174.1900  137.0270 C   0  0  0  0  0  2  0  0  0  0  0  0
  191.5790  175.7030  136.7570 C   0  0  1  0  0  3  0  0  0  0  0  0
  190.1670  173.6020  136.6050 C   0  0  0  0  0  2  0  0  0  0  0  0
  189.8960  173.8190  135.1100 C   0  0  1  0  0  3  0  0  0  0  0  0
  190.5510  175.0840  134.5390 C   0  0  0  0  0  2  0  0  0  0  0  0
  190.6780  176.1700  135.6040 C   0  0  0  0  0  2  0  0  0  0  0  0
  190.3290  172.7080  134.3850 O   0  0  0  0  0  1  0  0  0  0  0  0
  1 10  1  0  0  0  0
  1 12  1  0  0  0  0
  2  6  2  0  0  0  0
  2  8  1  0  0  0  0
  3  8  1  0  0  0  0
  3 11  1  0  0  0  0
  4 14  2  0  0  0  0
  5 10  2  0  0  0  0
  6  5  1  0  0  0  0
  7 17  1  0  0  0  0
  8  1  2  0  0  0  0
  9  4  1  0  0  0  0
 11 15  2  0  0  0  0
 11 18  1  0  0  0  0
 12 18  2  0  0  0  0
 13  2  1  0  0  0  0
 14 15  1  0  0  0  0
 15 21  1  0  0  0  0
 16 27  1  6  0  0  0
 16  7  1  0  0  0  0
 16  9  1  0  0  0  0
 17  4  1  0  0  0  0
 17  3  2  0  0  0  0
 19 25  1  0  0  0  0
 20 19  1  0  0  0  0
 21 23  1  0  0  0  0
 22 20  2  0  0  0  0
 23 19  2  0  0  0  0
 24 21  2  0  0  0  0
 24 22  1  0  0  0  0
 26 27  2  0  0  0  0
 29 28  1  0  0  0  0
 29 26  1  1  0  0  0
 30 28  1  0  0  0  0
 31 34  1  6  0  0  0
 31 30  1  0  0  0  0
 32 31  1  0  0  0  0
 32 33  1  0  0  0  0
 33 29  1  0  0  0  0
M  END
>  <MODEL>
4

>  <REMARK>
 VINA RESULT:      -9.8      4.519      8.217
  Name = 
  3 active torsions:
  status: ('A' for Active; 'I' for Inactive)
    1  A    between atoms: C_3  and  C_13
    2  A    between atoms: C_12  and  C_28
    3  A    between atoms: C_17  and  C_29
                            x       y       z     vdW  Elec       q    Type
                         _______ _______ _______ _____ _____    ______ ____

>  <TORSDO>
F 3

$$$$
=
 OpenBabel10262423423D

 34 39  0  0  1  0  0  0  0  0999 V2000
  185.4680  177.9980  143.8360 C   0  0  0  0  0  0  0  0  0  0  0  0
  185.7550  179.0110  141.6520 C   0  0  0  0  0  0  0  0  0  0  0  0
  187.7050  177.9400  142.8390 C   0  0  0  0  0  0  0  0  0  0  0  0
  189.9170  177.5560  141.9290 C   0  0  0  0  0  0  0  0  0  0  0  0
  183.5360  178.7530  142.5940 C   0  0  0  0  0  3  0  0  0  0  0  0
  184.3710  179.1890  141.5680 C   0  0  0  0  0  3  0  0  0  0  0  0
  188.0880  177.4140  140.0430 S   0  0  0  0  0  0  0  0  0  0  0  0
  186.3200  178.2880  142.7370 C   0  0  0  0  0  0  0  0  0  0  0  0
  190.7300  177.3370  140.7100 C   0  0  0  0  0  2  0  0  0  0  0  0
  184.0880  178.1900  143.7420 C   0  0  0  0  0  3  0  0  0  0  0  0
  188.2430  177.6400  144.1260 C   0  0  0  0  0  0  0  0  0  0  0  0
  185.9970  177.5750  145.0500 C   0  0  0  0  0  3  0  0  0  0  0  0
  186.5430  179.6600  140.7110 O   0  0  0  0  0  1  0  0  0  0  0  0
  190.4300  177.4130  143.1720 N   0  0  0  0  0  0  0  0  0  0  0  0
  189.6430  177.4500  144.2820 C   0  0  0  0  0  0  0  0  0  0  0  0
  189.8250  177.6660  139.5300 C   0  0  1  0  0  3  0  0  0  0  0  0
  188.5710  177.7770  141.7290 C   0  0  0  0  0  0  0  0  0  0  0  0
  187.3700  177.4360  145.2020 C   0  0  0  0  0  3  0  0  0  0  0  0
  192.0020  176.2140  147.0020 C   0  0  0  0  0  0  0  0  0  0  0  0
  191.4600  176.8360  148.1290 C   0  0  0  0  0  3  0  0  0  0  0  0
  190.3010  177.2500  145.6010 C   0  0  0  0  0  0  0  0  0  0  0  0
  190.3360  177.6560  148.0000 C   0  0  0  0  0  3  0  0  0  0  0  0
  191.4210  176.4160  145.7460 C   0  0  0  0  0  3  0  0  0  0  0  0
  189.7590  177.8580  146.7440 C   0  0  0  0  0  3  0  0  0  0  0  0
  193.0860  175.4130  147.1250 F   0  0  0  0  0  0  0  0  0  0  0  0
  191.4400  176.5410  138.0560 C   0  0  0  0  0  3  0  0  0  0  0  0
  190.1660  176.7890  138.3720 C   0  0  0  0  0  3  0  0  0  0  0  0
  191.7380  174.1760  137.2650 C   0  0  0  0  0  2  0  0  0  0  0  0
  191.8140  175.6680  136.8970 C   0  0  1  0  0  3  0  0  0  0  0  0
  190.4380  173.5410  136.7760 C   0  0  0  0  0  2  0  0  0  0  0  0
  190.2900  173.6510  135.2520 C   0  0  1  0  0  3  0  0  0  0  0  0
  190.9790  174.8830  134.6500 C   0  0  0  0  0  2  0  0  0  0  0  0
  191.0080  176.0410  135.6430 C   0  0  0  0  0  2  0  0  0  0  0  0
  190.7910  172.4990  134.6450 O   0  0  0  0  0  1  0  0  0  0  0  0
  1 12  1  0  0  0  0
  2  8  1  0  0  0  0
  3 11  1  0  0  0  0
  4 14  2  0  0  0  0
  5 10  2  0  0  0  0
  6  2  2  0  0  0  0
  6  5  1  0  0  0  0
  7 17  1  0  0  0  0
  8  3  1  0  0  0  0
  8  1  2  0  0  0  0
  9  4  1  0  0  0  0
 10  1  1  0  0  0  0
 11 15  2  0  0  0  0
 11 18  1  0  0  0  0
 12 18  2  0  0  0  0
 13  2  1  0  0  0  0
 14 15  1  0  0  0  0
 15 21  1  0  0  0  0
 16 27  1  6  0  0  0
 16  7  1  0  0  0  0
 16  9  1  0  0  0  0
 17  4  1  0  0  0  0
 17  3  2  0  0  0  0
 19 25  1  0  0  0  0
 19 20  1  0  0  0  0
 21 23  1  0  0  0  0
 21 24  2  0  0  0  0
 22 20  2  0  0  0  0
 23 19  2  0  0  0  0
 24 22  1  0  0  0  0
 26 27  2  0  0  0  0
 29 28  1  0  0  0  0
 29 26  1  1  0  0  0
 30 28  1  0  0  0  0
 31 34  1  6  0  0  0
 31 30  1  0  0  0  0
 32 31  1  0  0  0  0
 32 33  1  0  0  0  0
 33 29  1  0  0  0  0
M  END
>  <MODEL>
5

>  <REMARK>
 VINA RESULT:      -9.8      4.334      8.187
  Name = 
  3 active torsions:
  status: ('A' for Active; 'I' for Inactive)
    1  A    between atoms: C_3  and  C_13
    2  A    between atoms: C_12  and  C_28
    3  A    between atoms: C_17  and  C_29
                            x       y       z     vdW  Elec       q    Type
                         _______ _______ _______ _____ _____    ______ ____

>  <TORSDO>
F 3

$$$$
=
 OpenBabel10262423423D

 34 39  0  0  1  0  0  0  0  0999 V2000
  187.4950  178.5980  147.1440 C   0  0  0  0  0  0  0  0  0  0  0  0
  189.2600  177.0770  146.4720 C   0  0  0  0  0  0  0  0  0  0  0  0
  187.5200  177.8390  144.8150 C   0  0  0  0  0  0  0  0  0  0  0  0
  187.5100  177.4130  142.4300 C   0  0  0  0  0  0  0  0  0  0  0  0
  189.3130  178.1140  148.6630 C   0  0  0  0  0  3  0  0  0  0  0  0
  189.8680  177.2540  147.7180 C   0  0  0  0  0  3  0  0  0  0  0  0
  189.9710  177.5980  143.3410 S   0  0  0  0  0  0  0  0  0  0  0  0
  188.1260  177.8530  146.1120 C   0  0  0  0  0  0  0  0  0  0  0  0
  188.3200  177.1290  141.2230 C   0  0  0  0  0  2  0  0  0  0  0  0
  188.1100  178.7580  148.3880 C   0  0  0  0  0  3  0  0  0  0  0  0
  186.1660  178.2720  144.6870 C   0  0  0  0  0  0  0  0  0  0  0  0
  186.2250  179.1310  146.9590 C   0  0  0  0  0  3  0  0  0  0  0  0
  189.7320  176.0480  145.6680 O   0  0  0  0  0  1  0  0  0  0  0  0
  186.1890  177.6960  142.3610 N   0  0  0  0  0  0  0  0  0  0  0  0
  185.4870  178.1190  143.4470 C   0  0  0  0  0  0  0  0  0  0  0  0
  189.7200  176.7900  141.7200 C   0  0  1  0  0  3  0  0  0  0  0  0
  188.2040  177.5140  143.6170 C   0  0  0  0  0  0  0  0  0  0  0  0
  185.5550  178.9370  145.7580 C   0  0  0  0  0  3  0  0  0  0  0  0
  182.1310  178.8830  141.8230 C   0  0  0  0  0  0  0  0  0  0  0  0
  181.3350  179.1140  142.9470 C   0  0  0  0  0  3  0  0  0  0  0  0
  184.0460  178.4340  143.2570 C   0  0  0  0  0  0  0  0  0  0  0  0
  181.8900  179.0150  144.2260 C   0  0  0  0  0  3  0  0  0  0  0  0
  183.4800  178.5510  141.9780 C   0  0  0  0  0  3  0  0  0  0  0  0
  183.2380  178.6810  144.3790 C   0  0  0  0  0  3  0  0  0  0  0  0
  181.5970  178.9850  140.5830 F   0  0  0  0  0  0  0  0  0  0  0  0
  190.9400  176.5920  139.5950 C   0  0  0  0  0  3  0  0  0  0  0  0
  190.7340  177.2600  140.7330 C   0  0  0  0  0  3  0  0  0  0  0  0
  193.3890  176.7560  139.0640 C   0  0  0  0  0  2  0  0  0  0  0  0
  191.9540  177.0370  138.5850 C   0  0  1  0  0  3  0  0  0  0  0  0
  193.9520  175.4810  138.4370 C   0  0  0  0  0  2  0  0  0  0  0  0
  193.9810  175.5650  136.9050 C   0  0  1  0  0  3  0  0  0  0  0  0
  192.8810  176.4570  136.3130 C   0  0  0  0  0  2  0  0  0  0  0  0
  191.6370  176.4610  137.1960 C   0  0  0  0  0  2  0  0  0  0  0  0
  195.2280  176.0270  136.4820 O   0  0  0  0  0  1  0  0  0  0  0  0
  1 10  2  0  0  0  0
  2  6  1  0  0  0  0
  3  8  1  0  0  0  0
  4 17  1  0  0  0  0
  6  5  2  0  0  0  0
  7 17  1  0  0  0  0
  8  2  2  0  0  0  0
  8  1  1  0  0  0  0
  9 16  1  0  0  0  0
  9  4  1  0  0  0  0
 10  5  1  0  0  0  0
 11  3  1  0  0  0  0
 11 18  1  0  0  0  0
 12  1  1  0  0  0  0
 13  2  1  0  0  0  0
 14  4  2  0  0  0  0
 14 15  1  0  0  0  0
 15 11  2  0  0  0  0
 16 27  1  6  0  0  0
 16  7  1  0  0  0  0
 17  3  2  0  0  0  0
 18 12  2  0  0  0  0
 19 23  2  0  0  0  0
 19 20  1  0  0  0  0
 20 22  2  0  0  0  0
 21 15  1  0  0  0  0
 21 24  2  0  0  0  0
 22 24  1  0  0  0  0
 23 21  1  0  0  0  0
 25 19  1  0  0  0  0
 26 27  2  0  0  0  0
 29 28  1  0  0  0  0
 29 26  1  1  0  0  0
 30 28  1  0  0  0  0
 31 34  1  1  0  0  0
 31 30  1  0  0  0  0
 32 31  1  0  0  0  0
 32 33  1  0  0  0  0
 33 29  1  0  0  0  0
M  END
>  <MODEL>
6

>  <REMARK>
 VINA RESULT:      -9.6      5.184      9.166
  Name = 
  3 active torsions:
  status: ('A' for Active; 'I' for Inactive)
    1  A    between atoms: C_3  and  C_13
    2  A    between atoms: C_12  and  C_28
    3  A    between atoms: C_17  and  C_29
                            x       y       z     vdW  Elec       q    Type
                         _______ _______ _______ _____ _____    ______ ____

>  <TORSDO>
F 3

$$$$
=
 OpenBabel10262423423D

 34 39  0  0  1  0  0  0  0  0999 V2000
  190.1160  177.2990  146.8380 C   0  0  0  0  0  0  0  0  0  0  0  0
  191.4010  175.7880  145.4430 C   0  0  0  0  0  0  0  0  0  0  0  0
  189.3760  176.9750  144.5250 C   0  0  0  0  0  0  0  0  0  0  0  0
  188.6320  176.9900  142.2190 C   0  0  0  0  0  0  0  0  0  0  0  0
  192.2120  176.4040  147.6440 C   0  0  0  0  0  3  0  0  0  0  0  0
  192.3570  175.6870  146.4590 C   0  0  0  0  0  3  0  0  0  0  0  0
  191.2530  176.8080  142.3580 S   0  0  0  0  0  0  0  0  0  0  0  0
  190.3230  176.7050  145.5640 C   0  0  0  0  0  0  0  0  0  0  0  0
  189.0200  176.8640  140.7950 C   0  0  0  0  0  2  0  0  0  0  0  0
  191.0740  177.1820  147.8460 C   0  0  0  0  0  3  0  0  0  0  0  0
  188.1100  177.5310  144.8780 C   0  0  0  0  0  0  0  0  0  0  0  0
  188.9260  177.9570  147.1270 C   0  0  0  0  0  3  0  0  0  0  0  0
  191.4870  174.8870  144.3910 O   0  0  0  0  0  1  0  0  0  0  0  0
  187.3950  177.3850  142.5960 N   0  0  0  0  0  0  0  0  0  0  0  0
  187.0930  177.6600  143.8950 C   0  0  0  0  0  0  0  0  0  0  0  0
  190.4460  176.3290  140.7880 C   0  0  1  0  0  3  0  0  0  0  0  0
  189.6420  176.8180  143.1410 C   0  0  0  0  0  0  0  0  0  0  0  0
  187.9220  178.0380  146.1710 C   0  0  0  0  0  3  0  0  0  0  0  0
  183.5090  178.8780  143.4900 C   0  0  0  0  0  0  0  0  0  0  0  0
  183.1370  179.0640  144.8230 C   0  0  0  0  0  3  0  0  0  0  0  0
  185.7110  178.1190  144.1990 C   0  0  0  0  0  0  0  0  0  0  0  0
  184.0480  178.7880  145.8460 C   0  0  0  0  0  3  0  0  0  0  0  0
  184.7910  178.4130  143.1800 C   0  0  0  0  0  3  0  0  0  0  0  0
  185.3290  178.3230  145.5340 C   0  0  0  0  0  3  0  0  0  0  0  0
  182.6300  179.1500  142.4970 F   0  0  0  0  0  0  0  0  0  0  0  0
  191.4070  176.1450  138.5330 C   0  0  0  0  0  3  0  0  0  0  0  0
  191.1890  176.8870  139.6220 C   0  0  0  0  0  3  0  0  0  0  0  0
  193.6750  176.5380  137.5280 C   0  0  0  0  0  2  0  0  0  0  0  0
  192.1530  176.6760  137.3470 C   0  0  1  0  0  3  0  0  0  0  0  0
  194.2210  175.3170  136.7890 C   0  0  0  0  0  2  0  0  0  0  0  0
  193.9380  175.3910  135.2820 C   0  0  1  0  0  3  0  0  0  0  0  0
  192.6620  176.1670  134.9300 C   0  0  0  0  0  2  0  0  0  0  0  0
  191.6230  176.0610  136.0420 C   0  0  0  0  0  2  0  0  0  0  0  0
  195.0260  175.9660  134.6250 O   0  0  0  0  0  1  0  0  0  0  0  0
  1 12  1  0  0  0  0
  1 10  2  0  0  0  0
  2  8  2  0  0  0  0
  2  6  1  0  0  0  0
  3 11  1  0  0  0  0
  3  8  1  0  0  0  0
  4 14  2  0  0  0  0
  4 17  1  0  0  0  0
  5 10  1  0  0  0  0
  6  5  2  0  0  0  0
  7 17  1  0  0  0  0
  8  1  1  0  0  0  0
  9  4  1  0  0  0  0
 11 18  1  0  0  0  0
 13  2  1  0  0  0  0
 14 15  1  0  0  0  0
 15 21  1  0  0  0  0
 15 11  2  0  0  0  0
 16 27  1  6  0  0  0
 16  9  1  0  0  0  0
 16  7  1  0  0  0  0
 17  3  2  0  0  0  0
 18 12  2  0  0  0  0
 19 20  1  0  0  0  0
 20 22  2  0  0  0  0
 21 24  2  0  0  0  0
 23 19  2  0  0  0  0
 23 21  1  0  0  0  0
 24 22  1  0  0  0  0
 25 19  1  0  0  0  0
 26 27  2  0  0  0  0
 29 28  1  0  0  0  0
 29 26  1  1  0  0  0
 30 28  1  0  0  0  0
 31 34  1  6  0  0  0
 31 30  1  0  0  0  0
 32 31  1  0  0  0  0
 32 33  1  0  0  0  0
 33 29  1  0  0  0  0
M  END
>  <MODEL>
7

>  <REMARK>
 VINA RESULT:      -9.6      5.880      9.124
  Name = 
  3 active torsions:
  status: ('A' for Active; 'I' for Inactive)
    1  A    between atoms: C_3  and  C_13
    2  A    between atoms: C_12  and  C_28
    3  A    between atoms: C_17  and  C_29
                            x       y       z     vdW  Elec       q    Type
                         _______ _______ _______ _____ _____    ______ ____

>  <TORSDO>
F 3

$$$$
=
 OpenBabel10262423423D

 34 39  0  0  1  0  0  0  0  0999 V2000
  182.7620  178.7630  141.5080 C   0  0  0  0  0  0  0  0  0  0  0  0
  183.5750  179.7180  139.4330 C   0  0  0  0  0  0  0  0  0  0  0  0
  185.1730  178.6790  141.0820 C   0  0  0  0  0  0  0  0  0  0  0  0
  187.5370  178.2710  140.7440 C   0  0  0  0  0  0  0  0  0  0  0  0
  181.1920  179.4850  139.8170 C   0  0  0  0  0  3  0  0  0  0  0  0
  182.2530  179.8940  139.0130 C   0  0  0  0  0  3  0  0  0  0  0  0
  186.2170  178.0790  138.4760 S   0  0  0  0  0  0  0  0  0  0  0  0
  183.8560  179.0250  140.6400 C   0  0  0  0  0  0  0  0  0  0  0  0
  188.6190  178.0200  139.7630 C   0  0  0  0  0  2  0  0  0  0  0  0
  181.4470  178.9530  141.0790 C   0  0  0  0  0  3  0  0  0  0  0  0
  185.3830  178.4140  142.4690 C   0  0  0  0  0  0  0  0  0  0  0  0
  182.9790  178.3730  142.8250 C   0  0  0  0  0  3  0  0  0  0  0  0
  184.5710  180.3420  138.6940 O   0  0  0  0  0  1  0  0  0  0  0  0
  187.7330  178.1600  142.0770 N   0  0  0  0  0  0  0  0  0  0  0  0
  186.7020  178.2270  142.9630 C   0  0  0  0  0  0  0  0  0  0  0  0
  188.0280  178.3170  138.3910 C   0  0  1  0  0  3  0  0  0  0  0  0
  186.2800  178.4860  140.2190 C   0  0  0  0  0  0  0  0  0  0  0  0
  184.2750  178.2370  143.3080 C   0  0  0  0  0  3  0  0  0  0  0  0
  188.4580  177.2460  146.1950 C   0  0  0  0  0  0  0  0  0  0  0  0
  187.5410  177.6980  147.1460 C   0  0  0  0  0  3  0  0  0  0  0  0
  187.0210  178.0620  144.4060 C   0  0  0  0  0  0  0  0  0  0  0  0
  186.3600  178.3220  146.7350 C   0  0  0  0  0  3  0  0  0  0  0  0
  188.1960  177.4220  144.8330 C   0  0  0  0  0  3  0  0  0  0  0  0
  186.1010  178.4990  145.3730 C   0  0  0  0  0  3  0  0  0  0  0  0
  189.6000  176.6350  146.5910 F   0  0  0  0  0  0  0  0  0  0  0  0
  188.4840  176.0860  137.4660 C   0  0  0  0  0  3  0  0  0  0  0  0
  188.6320  177.4100  137.3740 C   0  0  0  0  0  3  0  0  0  0  0  0
  189.4460  173.7950  137.0960 C   0  0  0  0  0  2  0  0  0  0  0  0
  189.0830  175.1490  136.4610 C   0  0  1  0  0  3  0  0  0  0  0  0
  188.3790  172.7380  136.8150 C   0  0  0  0  0  2  0  0  0  0  0  0
  188.1900  172.5080  135.3090 C   0  0  1  0  0  3  0  0  0  0  0  0
  188.4870  173.7460  134.4520 C   0  0  0  0  0  2  0  0  0  0  0  0
  188.1900  175.0330  135.2160 C   0  0  0  0  0  2  0  0  0  0  0  0
  188.9960  171.4500  134.8880 O   0  0  0  0  0  1  0  0  0  0  0  0
  1 12  1  0  0  0  0
  2  8  1  0  0  0  0
  3 11  1  0  0  0  0
  4 14  2  0  0  0  0
  5 10  2  0  0  0  0
  6  2  2  0  0  0  0
  6  5  1  0  0  0  0
  7 17  1  0  0  0  0
  8  3  1  0  0  0  0
  8  1  2  0  0  0  0
  9  4  1  0  0  0  0
 10  1  1  0  0  0  0
 11 15  2  0  0  0  0
 11 18  1  0  0  0  0
 12 18  2  0  0  0  0
 13  2  1  0  0  0  0
 14 15  1  0  0  0  0
 15 21  1  0  0  0  0
 16 27  1  6  0  0  0
 16  7  1  0  0  0  0
 16  9  1  0  0  0  0
 17  4  1  0  0  0  0
 17  3  2  0  0  0  0
 19 25  1  0  0  0  0
 19 20  1  0  0  0  0
 21 23  1  0  0  0  0
 21 24  2  0  0  0  0
 22 20  2  0  0  0  0
 23 19  2  0  0  0  0
 24 22  1  0  0  0  0
 27 26  2  0  0  0  0
 29 28  1  0  0  0  0
 29 26  1  1  0  0  0
 30 28  1  0  0  0  0
 31 34  1  6  0  0  0
 31 30  1  0  0  0  0
 32 33  1  0  0  0  0
 32 31  1  0  0  0  0
 33 29  1  0  0  0  0
M  END
>  <MODEL>
8

>  <REMARK>
 VINA RESULT:      -9.5      2.602      7.164
  Name = 
  3 active torsions:
  status: ('A' for Active; 'I' for Inactive)
    1  A    between atoms: C_3  and  C_13
    2  A    between atoms: C_12  and  C_28
    3  A    between atoms: C_17  and  C_29
                            x       y       z     vdW  Elec       q    Type
                         _______ _______ _______ _____ _____    ______ ____

>  <TORSDO>
F 3

$$$$
=
 OpenBabel10262423423D

 34 39  0  0  1  0  0  0  0  0999 V2000
  191.8280  175.2410  137.2340 C   0  0  0  0  0  0  0  0  0  0  0  0
  192.7830  176.5440  139.0440 C   0  0  0  0  0  0  0  0  0  0  0  0
  190.3130  176.6450  138.5520 C   0  0  0  0  0  0  0  0  0  0  0  0
  188.6200  177.7600  139.8780 C   0  0  0  0  0  0  0  0  0  0  0  0
  194.1360  174.9060  137.8730 C   0  0  0  0  0  3  0  0  0  0  0  0
  194.0050  175.8930  138.8470 C   0  0  0  0  0  3  0  0  0  0  0  0
  190.5670  176.8630  141.4030 S   0  0  0  0  0  0  0  0  0  0  0  0
  191.6300  176.1330  138.3230 C   0  0  0  0  0  0  0  0  0  0  0  0
  188.2210  178.2400  141.2220 C   0  0  0  0  0  2  0  0  0  0  0  0
  193.0570  174.6060  137.0450 C   0  0  0  0  0  3  0  0  0  0  0  0
  189.3420  176.5270  137.5130 C   0  0  0  0  0  0  0  0  0  0  0  0
  190.8220  175.0310  136.2990 C   0  0  0  0  0  3  0  0  0  0  0  0
  192.7770  177.6610  139.8670 O   0  0  0  0  0  1  0  0  0  0  0  0
  187.7640  177.7590  138.8310 N   0  0  0  0  0  0  0  0  0  0  0  0
  188.0790  177.1650  137.6470 C   0  0  0  0  0  0  0  0  0  0  0  0
  189.4680  178.1520  142.0930 C   0  0  1  0  0  3  0  0  0  0  0  0
  189.8680  177.1830  139.7850 C   0  0  0  0  0  0  0  0  0  0  0  0
  189.6080  175.6950  136.4180 C   0  0  0  0  0  3  0  0  0  0  0  0
  184.9750  176.4010  135.5800 C   0  0  0  0  0  0  0  0  0  0  0  0
  185.1890  177.2150  134.4650 C   0  0  0  0  0  3  0  0  0  0  0  0
  187.0550  177.1920  136.5690 C   0  0  0  0  0  0  0  0  0  0  0  0
  186.3350  178.0110  134.3920 C   0  0  0  0  0  3  0  0  0  0  0  0
  185.9070  176.3860  136.6230 C   0  0  0  0  0  3  0  0  0  0  0  0
  187.2640  177.9960  135.4360 C   0  0  0  0  0  3  0  0  0  0  0  0
  183.8690  175.6230  135.6490 F   0  0  0  0  0  0  0  0  0  0  0  0
  187.8070  177.5860  143.8150 C   0  0  0  0  0  3  0  0  0  0  0  0
  189.0820  177.8210  143.4950 C   0  0  0  0  0  3  0  0  0  0  0  0
  188.5930  176.8620  146.0880 C   0  0  0  0  0  2  0  0  0  0  0  0
  187.3880  177.2550  145.2150 C   0  0  1  0  0  3  0  0  0  0  0  0
  189.0620  178.0280  146.9570 C   0  0  0  0  0  2  0  0  0  0  0  0
  187.9510  178.5220  147.8950 C   0  0  1  0  0  3  0  0  0  0  0  0
  186.5350  178.3190  147.3360 C   0  0  0  0  0  2  0  0  0  0  0  0
  186.5270  178.3800  145.8120 C   0  0  0  0  0  2  0  0  0  0  0  0
  188.0560  177.8820  149.1300 O   0  0  0  0  0  1  0  0  0  0  0  0
  1  8  1  0  0  0  0
  2 13  1  0  0  0  0
  3 17  1  0  0  0  0
  4  9  1  0  0  0  0
  5  6  2  0  0  0  0
  6  2  1  0  0  0  0
  7 16  1  0  0  0  0
  8  3  1  0  0  0  0
  8  2  2  0  0  0  0
  9 16  1  0  0  0  0
 10  1  2  0  0  0  0
 10  5  1  0  0  0  0
 11 15  1  0  0  0  0
 11  3  2  0  0  0  0
 12 18  2  0  0  0  0
 12  1  1  0  0  0  0
 14  4  1  0  0  0  0
 15 14  2  0  0  0  0
 16 27  1  1  0  0  0
 17  4  2  0  0  0  0
 17  7  1  0  0  0  0
 18 11  1  0  0  0  0
 19 25  1  0  0  0  0
 19 23  1  0  0  0  0
 20 19  2  0  0  0  0
 21 23  2  0  0  0  0
 21 15  1  0  0  0  0
 22 20  1  0  0  0  0
 22 24  2  0  0  0  0
 24 21  1  0  0  0  0
 27 26  2  0  0  0  0
 28 30  1  0  0  0  0
 29 26  1  6  0  0  0
 29 33  1  0  0  0  0
 29 28  1  0  0  0  0
 30 31  1  0  0  0  0
 31 34  1  1  0  0  0
 32 31  1  0  0  0  0
 33 32  1  0  0  0  0
M  END
>  <MODEL>
9

>  <REMARK>
 VINA RESULT:      -9.4      5.621      9.374
  Name = 
  3 active torsions:
  status: ('A' for Active; 'I' for Inactive)
    1  A    between atoms: C_3  and  C_13
    2  A    between atoms: C_12  and  C_28
    3  A    between atoms: C_17  and  C_29
                            x       y       z     vdW  Elec       q    Type
                         _______ _______ _______ _____ _____    ______ ____

>  <TORSDO>
F 3

$$$$
