=
 OpenBabel10272413183D

 32 34  0  0  1  0  0  0  0  0999 V2000
  188.8880  177.6920  145.4500 C   0  0  2  0  0  3  0  0  0  0  0  0
  187.5730  178.4700  145.5240 C   0  0  2  0  0  3  0  0  0  0  0  0
  186.9670  178.4000  146.9570 C   0  0  0  0  0  2  0  0  0  0  0  0
  183.1510  178.8150  144.4500 C   0  0  0  0  0  0  0  0  0  0  0  0
  186.5770  178.0750  144.4010 C   0  0  0  0  0  2  0  0  0  0  0  0
  183.3920  178.8150  145.8210 O   0  0  0  0  0  0  0  0  0  0  0  0
  184.7410  178.4270  145.9580 C   0  0  2  0  0  3  0  0  0  0  0  0
  185.5670  179.0410  147.0630 C   0  0  0  0  0  2  0  0  0  0  0  0
  184.2210  178.7470  143.7220 N   0  0  0  0  0  0  0  0  0  0  0  0
  181.7850  178.8390  143.8660 C   0  0  0  0  0  1  0  0  0  0  0  0
  185.3240  178.8770  144.6560 C   0  0  2  0  0  3  0  0  0  0  0  0
  188.9790  176.9490  144.1210 C   0  0  0  0  0  2  0  0  0  0  0  0
  189.7360  177.7430  143.0640 C   0  0  1  0  0  3  0  0  0  0  0  0
  190.4920  178.8500  143.7820 C   0  0  0  0  0  1  0  0  0  0  0  0
  190.6930  176.8290  142.2780 C   0  0  2  0  0  3  0  0  0  0  0  0
  192.0790  177.4360  142.0980 C   0  0  0  0  0  1  0  0  0  0  0  0
  190.1300  176.3860  140.9200 C   0  0  0  0  0  2  0  0  0  0  0  0
  190.4670  177.3090  139.8350 N   0  0  0  0  0  0  0  0  0  0  0  0
  189.2640  177.4460  139.0240 C   0  0  1  0  0  3  0  0  0  0  0  0
  188.2050  178.2130  139.7910 C   0  0  0  0  0  2  0  0  0  0  0  0
  189.0160  178.9140  138.7260 C   0  0  2  0  0  3  0  0  0  0  0  0
  188.2580  179.0200  137.5630 O   0  0  0  0  0  1  0  0  0  0  0  0
  191.3910  176.6970  139.0490 O   0  0  0  0  0  0  0  0  0  0  0  0
  190.6780  175.7170  138.3490 C   0  0  0  0  0  2  0  0  0  0  0  0
  192.4920  174.2410  137.9520 F   0  0  0  0  0  0  0  0  0  0  0  0
  191.5790  175.0650  137.3200 C   0  0  0  0  0  2  0  0  0  0  0  0
  189.0410  176.7390  146.6340 C   0  0  0  0  0  2  0  0  0  0  0  0
  190.3710  176.9770  147.3280 C   0  0  0  0  0  2  0  0  0  0  0  0
  191.3400  175.8490  147.0310 C   0  0  1  0  0  3  0  0  0  0  0  0
  191.9860  176.0680  145.6740 C   0  0  0  0  0  1  0  0  0  0  0  0
  192.5690  177.0970  148.6540 O   0  0  0  0  0  1  0  0  0  0  0  0
  192.4080  175.8220  148.1090 C   0  0  0  0  0  2  0  0  0  0  0  0
  1 12  1  6  0  0  0
  1 27  1  0  0  0  0
  2  1  1  1  0  0  0
  2  3  1  0  0  0  0
  3  8  1  0  0  0  0
  4  6  1  0  0  0  0
  5  2  1  0  0  0  0
  6  7  1  0  0  0  0
  7  8  1  1  0  0  0
  9  4  2  0  0  0  0
  9 11  1  0  0  0  0
 10  4  1  0  0  0  0
 11  5  1  6  0  0  0
 11  7  1  0  0  0  0
 13 14  1  1  0  0  0
 13 12  1  0  0  0  0
 15 16  1  6  0  0  0
 15 13  1  0  0  0  0
 17 15  1  0  0  0  0
 18 17  1  0  0  0  0
 19 20  1  0  0  0  0
 19 18  1  1  0  0  0
 21 22  1  6  0  0  0
 21 19  1  0  0  0  0
 21 20  1  0  0  0  0
 23 18  1  0  0  0  0
 24 23  1  0  0  0  0
 26 25  1  0  0  0  0
 26 24  1  0  0  0  0
 27 28  1  0  0  0  0
 29 30  1  6  0  0  0
 29 28  1  0  0  0  0
 29 32  1  0  0  0  0
 32 31  1  0  0  0  0
M  END
>  <MODEL>
1

>  <REMARK>
 VINA RESULT:      -7.4      0.000      0.000
  Name = 
  14 active torsions:
  status: ('A' for Active; 'I' for Inactive)
    1  A    between atoms: C_1  and  C_4
    2  A    between atoms: C_1  and  C_5
    3  A    between atoms: C_2  and  C_5
    4  A    between atoms: C_3  and  N_20
    5  A    between atoms: C_4  and  C_24
    6  A    between atoms: C_5  and  C_14
    7  A    between atoms: C_13  and  C_29
    8  A    between atoms: C_13  and  C_30
    9  A    between atoms: C_14  and  C_30
   10  A    between atoms: O_15  and  N_20
   11  A    between atoms: O_15  and  C_26
   12  A    between atoms: C_16  and  N_20
   13  A    between atoms: C_16  and  C_24
   14  A    between atoms: C_19  and  C_26
                            x       y       z     vdW  Elec       q    Type
                         _______ _______ _______ _____ _____    ______ ____

>  <TORSDO>
F 14

$$$$
=
 OpenBabel10272413183D

 32 34  0  0  1  0  0  0  0  0999 V2000
  187.6120  178.0700  144.8980 C   0  0  2  0  0  3  0  0  0  0  0  0
  186.3900  178.7280  144.2560 C   0  0  2  0  0  3  0  0  0  0  0  0
  185.2080  178.8080  145.2680 C   0  0  0  0  0  2  0  0  0  0  0  0
  182.9080  178.5130  141.3140 C   0  0  0  0  0  0  0  0  0  0  0  0
  186.0070  178.0880  142.8950 C   0  0  0  0  0  2  0  0  0  0  0  0
  182.5110  178.7310  142.6290 O   0  0  0  0  0  0  0  0  0  0  0  0
  183.6630  178.4910  143.4070 C   0  0  2  0  0  3  0  0  0  0  0  0
  183.8970  179.3290  144.6410 C   0  0  0  0  0  2  0  0  0  0  0  0
  184.1920  178.4390  141.1510 N   0  0  0  0  0  0  0  0  0  0  0  0
  181.9470  178.3290  140.1950 C   0  0  0  0  0  1  0  0  0  0  0  0
  184.7590  178.8010  142.4360 C   0  0  2  0  0  3  0  0  0  0  0  0
  188.3230  177.1880  143.8770 C   0  0  0  0  0  2  0  0  0  0  0  0
  189.4130  177.9380  143.1210 C   0  0  1  0  0  3  0  0  0  0  0  0
  190.2610  178.6660  144.1520 C   0  0  0  0  0  1  0  0  0  0  0  0
  190.2620  176.9660  142.2820 C   0  0  2  0  0  3  0  0  0  0  0  0
  191.6250  177.5370  141.9120 C   0  0  0  0  0  1  0  0  0  0  0  0
  189.5400  176.4640  141.0230 C   0  0  0  0  0  2  0  0  0  0  0  0
  190.1630  176.9340  139.7840 N   0  0  0  0  0  0  0  0  0  0  0  0
  189.0730  177.3460  138.9080 C   0  0  1  0  0  3  0  0  0  0  0  0
  188.0730  178.1840  139.6800 C   0  0  0  0  0  2  0  0  0  0  0  0
  189.0740  178.8580  138.7710 C   0  0  2  0  0  3  0  0  0  0  0  0
  188.4500  179.2070  137.5760 O   0  0  0  0  0  1  0  0  0  0  0  0
  190.7490  175.8640  139.1890 O   0  0  0  0  0  0  0  0  0  0  0  0
  191.3560  176.3780  138.0380 C   0  0  0  0  0  2  0  0  0  0  0  0
  193.3470  177.0320  139.1510 F   0  0  0  0  0  0  0  0  0  0  0  0
  192.8610  176.2240  138.1390 C   0  0  0  0  0  2  0  0  0  0  0  0
  187.2310  177.2820  146.1490 C   0  0  0  0  0  2  0  0  0  0  0  0
  188.4710  176.6840  146.7880 C   0  0  0  0  0  2  0  0  0  0  0  0
  189.3100  177.7630  147.4460 C   0  0  1  0  0  3  0  0  0  0  0  0
  188.6410  178.2280  148.7270 C   0  0  0  0  0  1  0  0  0  0  0  0
  191.2130  176.5750  146.6290 O   0  0  0  0  0  1  0  0  0  0  0  0
  190.6820  177.1970  147.7600 C   0  0  0  0  0  2  0  0  0  0  0  0
  1 12  1  6  0  0  0
  1 27  1  0  0  0  0
  2  1  1  1  0  0  0
  2  3  1  0  0  0  0
  4  6  1  0  0  0  0
  5  2  1  0  0  0  0
  6  7  1  0  0  0  0
  7  8  1  1  0  0  0
  8  3  1  0  0  0  0
  9  4  2  0  0  0  0
  9 11  1  0  0  0  0
 10  4  1  0  0  0  0
 11  5  1  1  0  0  0
 11  7  1  0  0  0  0
 13 12  1  0  0  0  0
 13 14  1  1  0  0  0
 15 16  1  6  0  0  0
 15 13  1  0  0  0  0
 17 15  1  0  0  0  0
 18 17  1  0  0  0  0
 19 20  1  0  0  0  0
 19 18  1  1  0  0  0
 21 22  1  6  0  0  0
 21 19  1  0  0  0  0
 21 20  1  0  0  0  0
 23 18  1  0  0  0  0
 24 26  1  0  0  0  0
 24 23  1  0  0  0  0
 26 25  1  0  0  0  0
 27 28  1  0  0  0  0
 28 29  1  0  0  0  0
 29 32  1  0  0  0  0
 29 30  1  1  0  0  0
 31 32  1  0  0  0  0
M  END
>  <MODEL>
2

>  <REMARK>
 VINA RESULT:      -7.3      1.633      2.143
  Name = 
  14 active torsions:
  status: ('A' for Active; 'I' for Inactive)
    1  A    between atoms: C_1  and  C_4
    2  A    between atoms: C_1  and  C_5
    3  A    between atoms: C_2  and  C_5
    4  A    between atoms: C_3  and  N_20
    5  A    between atoms: C_4  and  C_24
    6  A    between atoms: C_5  and  C_14
    7  A    between atoms: C_13  and  C_29
    8  A    between atoms: C_13  and  C_30
    9  A    between atoms: C_14  and  C_30
   10  A    between atoms: O_15  and  N_20
   11  A    between atoms: O_15  and  C_26
   12  A    between atoms: C_16  and  N_20
   13  A    between atoms: C_16  and  C_24
   14  A    between atoms: C_19  and  C_26
                            x       y       z     vdW  Elec       q    Type
                         _______ _______ _______ _____ _____    ______ ____

>  <TORSDO>
F 14

$$$$
=
 OpenBabel10272413183D

 32 34  0  0  1  0  0  0  0  0999 V2000
  188.3100  178.2010  141.5800 C   0  0  2  0  0  3  0  0  0  0  0  0
  188.7110  178.2710  140.1060 C   0  0  2  0  0  3  0  0  0  0  0  0
  187.4620  178.1340  139.1840 C   0  0  0  0  0  2  0  0  0  0  0  0
  190.7010  176.3370  136.4830 C   0  0  0  0  0  0  0  0  0  0  0  0
  189.8640  177.2960  139.7490 C   0  0  0  0  0  2  0  0  0  0  0  0
  189.3600  176.6510  136.2800 O   0  0  0  0  0  0  0  0  0  0  0  0
  188.8570  176.9670  137.5580 C   0  0  2  0  0  3  0  0  0  0  0  0
  187.8130  178.0500  137.6830 C   0  0  0  0  0  2  0  0  0  0  0  0
  191.1550  176.6750  137.6490 N   0  0  0  0  0  0  0  0  0  0  0  0
  191.5330  175.6310  135.4740 C   0  0  0  0  0  1  0  0  0  0  0  0
  190.0880  177.4420  138.2640 C   0  0  2  0  0  3  0  0  0  0  0  0
  188.4710  176.7740  142.0950 C   0  0  0  0  0  2  0  0  0  0  0  0
  189.4710  176.6810  143.2400 C   0  0  1  0  0  3  0  0  0  0  0  0
  190.3790  175.4950  142.9550 C   0  0  0  0  0  1  0  0  0  0  0  0
  190.2770  177.9860  143.3670 C   0  0  2  0  0  3  0  0  0  0  0  0
  191.7230  177.8370  142.9120 C   0  0  0  0  0  1  0  0  0  0  0  0
  190.2260  178.5960  144.7750 C   0  0  0  0  0  2  0  0  0  0  0  0
  190.1580  177.5840  145.8310 N   0  0  0  0  0  0  0  0  0  0  0  0
  189.1860  178.0710  146.8030 C   0  0  1  0  0  3  0  0  0  0  0  0
  187.7860  177.6690  146.3840 C   0  0  0  0  0  2  0  0  0  0  0  0
  188.4970  176.8920  147.4670 C   0  0  2  0  0  3  0  0  0  0  0  0
  188.0160  177.2900  148.7120 O   0  0  0  0  0  1  0  0  0  0  0  0
  191.3590  177.5710  146.4640 O   0  0  0  0  0  0  0  0  0  0  0  0
  191.8700  176.2870  146.2430 C   0  0  0  0  0  2  0  0  0  0  0  0
  193.3640  175.5440  147.9300 F   0  0  0  0  0  0  0  0  0  0  0  0
  192.0300  175.5640  147.5660 C   0  0  0  0  0  2  0  0  0  0  0  0
  186.8890  178.7160  141.7980 C   0  0  0  0  0  2  0  0  0  0  0  0
  186.2740  178.0540  143.0180 C   0  0  0  0  0  2  0  0  0  0  0  0
  184.7600  178.1170  142.9590 C   0  0  1  0  0  3  0  0  0  0  0  0
  184.2350  178.9730  144.0990 C   0  0  0  0  0  1  0  0  0  0  0  0
  183.6240  177.7870  140.8860 O   0  0  0  0  0  1  0  0  0  0  0  0
  184.3440  178.7210  141.6310 C   0  0  0  0  0  2  0  0  0  0  0  0
  1 27  1  6  0  0  0
  1 12  1  0  0  0  0
  2  1  1  1  0  0  0
  3  2  1  0  0  0  0
  4  9  2  0  0  0  0
  5  2  1  0  0  0  0
  6  4  1  0  0  0  0
  6  7  1  0  0  0  0
  7  8  1  6  0  0  0
  7 11  1  0  0  0  0
  8  3  1  0  0  0  0
  9 11  1  0  0  0  0
 10  4  1  0  0  0  0
 11  5  1  1  0  0  0
 12 13  1  0  0  0  0
 13 14  1  6  0  0  0
 13 15  1  0  0  0  0
 15 16  1  1  0  0  0
 15 17  1  0  0  0  0
 17 18  1  0  0  0  0
 18 23  1  0  0  0  0
 19 18  1  6  0  0  0
 19 21  1  0  0  0  0
 20 19  1  0  0  0  0
 20 21  1  0  0  0  0
 21 22  1  1  0  0  0
 24 23  1  0  0  0  0
 24 26  1  0  0  0  0
 26 25  1  0  0  0  0
 27 28  1  0  0  0  0
 29 28  1  0  0  0  0
 29 30  1  1  0  0  0
 31 32  1  0  0  0  0
 32 29  1  0  0  0  0
M  END
>  <MODEL>
3

>  <REMARK>
 VINA RESULT:      -7.2      2.858      8.082
  Name = 
  14 active torsions:
  status: ('A' for Active; 'I' for Inactive)
    1  A    between atoms: C_1  and  C_4
    2  A    between atoms: C_1  and  C_5
    3  A    between atoms: C_2  and  C_5
    4  A    between atoms: C_3  and  N_20
    5  A    between atoms: C_4  and  C_24
    6  A    between atoms: C_5  and  C_14
    7  A    between atoms: C_13  and  C_29
    8  A    between atoms: C_13  and  C_30
    9  A    between atoms: C_14  and  C_30
   10  A    between atoms: O_15  and  N_20
   11  A    between atoms: O_15  and  C_26
   12  A    between atoms: C_16  and  N_20
   13  A    between atoms: C_16  and  C_24
   14  A    between atoms: C_19  and  C_26
                            x       y       z     vdW  Elec       q    Type
                         _______ _______ _______ _____ _____    ______ ____

>  <TORSDO>
F 14

$$$$
=
 OpenBabel10272413183D

 32 34  0  0  1  0  0  0  0  0999 V2000
  187.4850  178.0250  144.9290 C   0  0  2  0  0  3  0  0  0  0  0  0
  186.2060  178.7070  144.4420 C   0  0  2  0  0  3  0  0  0  0  0  0
  185.0770  178.5980  145.5100 C   0  0  0  0  0  2  0  0  0  0  0  0
  182.5830  178.7310  141.6670 C   0  0  0  0  0  0  0  0  0  0  0  0
  185.7760  178.2380  143.0260 C   0  0  0  0  0  2  0  0  0  0  0  0
  182.2490  178.7530  143.0170 O   0  0  0  0  0  0  0  0  0  0  0  0
  183.4480  178.4630  143.6990 C   0  0  2  0  0  3  0  0  0  0  0  0
  183.7160  179.1380  145.0230 C   0  0  0  0  0  2  0  0  0  0  0  0
  183.8580  178.7370  141.4340 N   0  0  0  0  0  0  0  0  0  0  0  0
  181.5710  178.6550  140.5810 C   0  0  0  0  0  1  0  0  0  0  0  0
  184.4780  178.9490  142.7280 C   0  0  2  0  0  3  0  0  0  0  0  0
  187.9750  177.0310  143.8810 C   0  0  0  0  0  2  0  0  0  0  0  0
  188.9990  177.6450  142.9340 C   0  0  1  0  0  3  0  0  0  0  0  0
  189.9350  178.5020  143.7710 C   0  0  0  0  0  1  0  0  0  0  0  0
  189.7690  176.5460  142.1790 C   0  0  2  0  0  3  0  0  0  0  0  0
  190.3360  175.4770  143.1040 C   0  0  0  0  0  1  0  0  0  0  0  0
  190.8750  177.0980  141.2690 C   0  0  0  0  0  2  0  0  0  0  0  0
  191.0370  176.3250  140.0360 N   0  0  0  0  0  0  0  0  0  0  0  0
  191.8740  177.1300  139.1540 C   0  0  1  0  0  3  0  0  0  0  0  0
  193.2300  177.3600  139.7900 C   0  0  0  0  0  2  0  0  0  0  0  0
  193.0750  176.3150  138.7100 C   0  0  2  0  0  3  0  0  0  0  0  0
  193.5490  176.8260  137.5030 O   0  0  0  0  0  1  0  0  0  0  0  0
  189.8200  176.2420  139.4400 O   0  0  0  0  0  0  0  0  0  0  0  0
  189.7200  177.4000  138.6600 C   0  0  0  0  0  2  0  0  0  0  0  0
  188.3890  178.8980  139.9310 F   0  0  0  0  0  0  0  0  0  0  0  0
  188.3560  178.0320  138.8540 C   0  0  0  0  0  2  0  0  0  0  0  0
  187.2780  177.3520  146.2840 C   0  0  0  0  0  2  0  0  0  0  0  0
  188.5560  176.6610  146.7250 C   0  0  0  0  0  2  0  0  0  0  0  0
  189.5540  177.6670  147.2630 C   0  0  1  0  0  3  0  0  0  0  0  0
  189.0390  178.2610  148.5620 C   0  0  0  0  0  1  0  0  0  0  0  0
  191.4840  176.6520  146.2920 O   0  0  0  0  0  1  0  0  0  0  0  0
  190.8770  176.9650  147.5080 C   0  0  0  0  0  2  0  0  0  0  0  0
  1 12  1  6  0  0  0
  1 27  1  0  0  0  0
  2  1  1  1  0  0  0
  2  3  1  0  0  0  0
  4  6  1  0  0  0  0
  5  2  1  0  0  0  0
  6  7  1  0  0  0  0
  7  8  1  1  0  0  0
  8  3  1  0  0  0  0
  9  4  2  0  0  0  0
  9 11  1  0  0  0  0
 10  4  1  0  0  0  0
 11  5  1  6  0  0  0
 11  7  1  0  0  0  0
 13 14  1  1  0  0  0
 13 12  1  0  0  0  0
 15 13  1  0  0  0  0
 15 16  1  1  0  0  0
 17 15  1  0  0  0  0
 18 17  1  0  0  0  0
 19 20  1  0  0  0  0
 19 18  1  1  0  0  0
 21 22  1  6  0  0  0
 21 19  1  0  0  0  0
 21 20  1  0  0  0  0
 23 18  1  0  0  0  0
 24 26  1  0  0  0  0
 24 23  1  0  0  0  0
 26 25  1  0  0  0  0
 27 28  1  0  0  0  0
 28 29  1  0  0  0  0
 29 32  1  0  0  0  0
 29 30  1  1  0  0  0
 31 32  1  0  0  0  0
M  END
>  <MODEL>
4

>  <REMARK>
 VINA RESULT:      -7.2      2.048      2.988
  Name = 
  14 active torsions:
  status: ('A' for Active; 'I' for Inactive)
    1  A    between atoms: C_1  and  C_4
    2  A    between atoms: C_1  and  C_5
    3  A    between atoms: C_2  and  C_5
    4  A    between atoms: C_3  and  N_20
    5  A    between atoms: C_4  and  C_24
    6  A    between atoms: C_5  and  C_14
    7  A    between atoms: C_13  and  C_29
    8  A    between atoms: C_13  and  C_30
    9  A    between atoms: C_14  and  C_30
   10  A    between atoms: O_15  and  N_20
   11  A    between atoms: O_15  and  C_26
   12  A    between atoms: C_16  and  N_20
   13  A    between atoms: C_16  and  C_24
   14  A    between atoms: C_19  and  C_26
                            x       y       z     vdW  Elec       q    Type
                         _______ _______ _______ _____ _____    ______ ____

>  <TORSDO>
F 14

$$$$
=
 OpenBabel10272413183D

 32 34  0  0  1  0  0  0  0  0999 V2000
  188.2990  177.8100  141.7520 C   0  0  2  0  0  3  0  0  0  0  0  0
  188.4620  177.3820  140.2930 C   0  0  2  0  0  3  0  0  0  0  0  0
  189.8990  177.6970  139.7800 C   0  0  0  0  0  2  0  0  0  0  0  0
  187.5200  178.0510  135.8780 C   0  0  0  0  0  0  0  0  0  0  0  0
  187.3360  177.9300  139.3760 C   0  0  0  0  0  2  0  0  0  0  0  0
  188.8810  178.0860  136.1680 O   0  0  0  0  0  0  0  0  0  0  0  0
  188.9570  178.1430  137.5750 C   0  0  2  0  0  3  0  0  0  0  0  0
  190.0870  177.4240  138.2720 C   0  0  0  0  0  2  0  0  0  0  0  0
  186.7650  177.8070  136.9020 N   0  0  0  0  0  0  0  0  0  0  0  0
  186.9700  178.3200  134.5240 C   0  0  0  0  0  1  0  0  0  0  0  0
  187.6800  177.4760  137.9790 C   0  0  2  0  0  3  0  0  0  0  0  0
  188.3430  176.5850  142.6610 C   0  0  0  0  0  2  0  0  0  0  0  0
  189.6040  176.5420  143.5150 C   0  0  1  0  0  3  0  0  0  0  0  0
  190.5340  175.5080  142.9000 C   0  0  0  0  0  1  0  0  0  0  0  0
  190.2680  177.9290  143.5750 C   0  0  2  0  0  3  0  0  0  0  0  0
  191.6630  177.9450  142.9630 C   0  0  0  0  0  1  0  0  0  0  0  0
  190.3050  178.5230  144.9900 C   0  0  0  0  0  2  0  0  0  0  0  0
  190.2020  177.5050  146.0380 N   0  0  0  0  0  0  0  0  0  0  0  0
  189.2570  178.0220  147.0200 C   0  0  1  0  0  3  0  0  0  0  0  0
  187.8370  177.8290  146.5270 C   0  0  0  0  0  2  0  0  0  0  0  0
  188.4090  176.8830  147.5580 C   0  0  2  0  0  3  0  0  0  0  0  0
  187.9290  177.2300  148.8190 O   0  0  0  0  0  1  0  0  0  0  0  0
  191.4050  177.4370  146.6630 O   0  0  0  0  0  0  0  0  0  0  0  0
  191.8920  176.1580  146.3710 C   0  0  0  0  0  2  0  0  0  0  0  0
  192.7590  176.4320  148.5620 F   0  0  0  0  0  0  0  0  0  0  0  0
  192.3510  175.4800  147.6460 C   0  0  0  0  0  2  0  0  0  0  0  0
  187.0170  178.6130  141.9590 C   0  0  0  0  0  2  0  0  0  0  0  0
  186.2100  178.0240  143.1030 C   0  0  0  0  0  2  0  0  0  0  0  0
  184.7550  178.4400  143.0050 C   0  0  1  0  0  3  0  0  0  0  0  0
  184.4980  179.6340  143.9080 C   0  0  0  0  0  1  0  0  0  0  0  0
  183.2330  178.2390  141.1780 O   0  0  0  0  0  1  0  0  0  0  0  0
  184.4450  178.8100  141.5660 C   0  0  0  0  0  2  0  0  0  0  0  0
  1 27  1  6  0  0  0
  1 12  1  0  0  0  0
  2  1  1  1  0  0  0
  3  2  1  0  0  0  0
  4  6  1  0  0  0  0
  4  9  2  0  0  0  0
  5  2  1  0  0  0  0
  6  7  1  0  0  0  0
  7 11  1  0  0  0  0
  7  8  1  1  0  0  0
  8  3  1  0  0  0  0
  9 11  1  0  0  0  0
 10  4  1  0  0  0  0
 11  5  1  1  0  0  0
 12 13  1  0  0  0  0
 13 14  1  6  0  0  0
 13 15  1  0  0  0  0
 15 16  1  1  0  0  0
 15 17  1  0  0  0  0
 17 18  1  0  0  0  0
 18 23  1  0  0  0  0
 19 18  1  6  0  0  0
 19 21  1  0  0  0  0
 20 19  1  0  0  0  0
 20 21  1  0  0  0  0
 21 22  1  1  0  0  0
 24 23  1  0  0  0  0
 24 26  1  0  0  0  0
 26 25  1  0  0  0  0
 27 28  1  0  0  0  0
 29 28  1  0  0  0  0
 29 30  1  1  0  0  0
 31 32  1  0  0  0  0
 32 29  1  0  0  0  0
M  END
>  <MODEL>
5

>  <REMARK>
 VINA RESULT:      -7.2      3.138      7.848
  Name = 
  14 active torsions:
  status: ('A' for Active; 'I' for Inactive)
    1  A    between atoms: C_1  and  C_4
    2  A    between atoms: C_1  and  C_5
    3  A    between atoms: C_2  and  C_5
    4  A    between atoms: C_3  and  N_20
    5  A    between atoms: C_4  and  C_24
    6  A    between atoms: C_5  and  C_14
    7  A    between atoms: C_13  and  C_29
    8  A    between atoms: C_13  and  C_30
    9  A    between atoms: C_14  and  C_30
   10  A    between atoms: O_15  and  N_20
   11  A    between atoms: O_15  and  C_26
   12  A    between atoms: C_16  and  N_20
   13  A    between atoms: C_16  and  C_24
   14  A    between atoms: C_19  and  C_26
                            x       y       z     vdW  Elec       q    Type
                         _______ _______ _______ _____ _____    ______ ____

>  <TORSDO>
F 14

$$$$
=
 OpenBabel10272413183D

 32 34  0  0  1  0  0  0  0  0999 V2000
  186.1740  177.5040  143.6220 C   0  0  2  0  0  3  0  0  0  0  0  0
  185.0350  178.4100  143.1520 C   0  0  2  0  0  3  0  0  0  0  0  0
  183.8700  178.4180  144.1860 C   0  0  0  0  0  2  0  0  0  0  0  0
  181.5520  179.1770  140.3050 C   0  0  0  0  0  0  0  0  0  0  0  0
  184.5820  178.1010  141.7000 C   0  0  0  0  0  2  0  0  0  0  0  0
  181.1820  179.1710  141.6460 O   0  0  0  0  0  0  0  0  0  0  0  0
  182.2990  178.6530  142.3340 C   0  0  2  0  0  3  0  0  0  0  0  0
  182.6270  179.1960  143.7040 C   0  0  0  0  0  2  0  0  0  0  0  0
  182.8190  178.9940  140.1010 N   0  0  0  0  0  0  0  0  0  0  0  0
  180.5760  179.3290  139.1940 C   0  0  0  0  0  1  0  0  0  0  0  0
  183.4230  179.0260  141.4200 C   0  0  2  0  0  3  0  0  0  0  0  0
  186.0860  177.3000  145.1320 C   0  0  0  0  0  2  0  0  0  0  0  0
  187.0140  178.2340  145.8980 C   0  0  1  0  0  3  0  0  0  0  0  0
  186.1530  179.0560  146.8430 C   0  0  0  0  0  1  0  0  0  0  0  0
  188.0810  177.4320  146.6650 C   0  0  2  0  0  3  0  0  0  0  0  0
  187.9140  177.5180  148.1770 C   0  0  0  0  0  1  0  0  0  0  0  0
  189.5170  177.8030  146.2700 C   0  0  0  0  0  2  0  0  0  0  0  0
  190.3100  176.6450  145.8500 N   0  0  0  0  0  0  0  0  0  0  0  0
  191.6010  176.7690  146.5150 C   0  0  1  0  0  3  0  0  0  0  0  0
  191.4030  176.9510  148.0070 C   0  0  0  0  0  2  0  0  0  0  0  0
  191.7990  175.5980  147.4620 C   0  0  2  0  0  3  0  0  0  0  0  0
  193.1640  175.4020  147.6620 O   0  0  0  0  0  1  0  0  0  0  0  0
  190.5490  176.7740  144.5200 O   0  0  0  0  0  0  0  0  0  0  0  0
  191.6190  177.6720  144.4310 C   0  0  0  0  0  2  0  0  0  0  0  0
  190.9150  179.9160  144.1150 F   0  0  0  0  0  0  0  0  0  0  0  0
  191.2870  178.7680  143.4390 C   0  0  0  0  0  2  0  0  0  0  0  0
  187.5360  178.0610  143.2130 C   0  0  0  0  0  2  0  0  0  0  0  0
  188.1700  177.1680  142.1610 C   0  0  0  0  0  2  0  0  0  0  0  0
  188.8720  177.9970  141.1030 C   0  0  1  0  0  3  0  0  0  0  0  0
  190.0050  177.1960  140.4860 C   0  0  0  0  0  1  0  0  0  0  0  0
  187.8170  177.3830  139.0510 O   0  0  0  0  0  1  0  0  0  0  0  0
  187.8680  178.3770  140.0300 C   0  0  0  0  0  2  0  0  0  0  0  0
  1 27  1  1  0  0  0
  1 12  1  0  0  0  0
  2  1  1  1  0  0  0
  2  3  1  0  0  0  0
  4  6  1  0  0  0  0
  5  2  1  0  0  0  0
  6  7  1  0  0  0  0
  7  8  1  1  0  0  0
  8  3  1  0  0  0  0
  9  4  2  0  0  0  0
  9 11  1  0  0  0  0
 10  4  1  0  0  0  0
 11  5  1  6  0  0  0
 11  7  1  0  0  0  0
 12 13  1  0  0  0  0
 13 15  1  0  0  0  0
 13 14  1  1  0  0  0
 15 16  1  1  0  0  0
 17 15  1  0  0  0  0
 18 17  1  0  0  0  0
 19 18  1  6  0  0  0
 19 21  1  0  0  0  0
 19 20  1  0  0  0  0
 21 22  1  1  0  0  0
 21 20  1  0  0  0  0
 23 18  1  0  0  0  0
 24 23  1  0  0  0  0
 26 25  1  0  0  0  0
 26 24  1  0  0  0  0
 28 27  1  0  0  0  0
 29 30  1  6  0  0  0
 29 28  1  0  0  0  0
 31 32  1  0  0  0  0
 32 29  1  0  0  0  0
M  END
>  <MODEL>
6

>  <REMARK>
 VINA RESULT:      -7.1      2.875      6.353
  Name = 
  14 active torsions:
  status: ('A' for Active; 'I' for Inactive)
    1  A    between atoms: C_1  and  C_4
    2  A    between atoms: C_1  and  C_5
    3  A    between atoms: C_2  and  C_5
    4  A    between atoms: C_3  and  N_20
    5  A    between atoms: C_4  and  C_24
    6  A    between atoms: C_5  and  C_14
    7  A    between atoms: C_13  and  C_29
    8  A    between atoms: C_13  and  C_30
    9  A    between atoms: C_14  and  C_30
   10  A    between atoms: O_15  and  N_20
   11  A    between atoms: O_15  and  C_26
   12  A    between atoms: C_16  and  N_20
   13  A    between atoms: C_16  and  C_24
   14  A    between atoms: C_19  and  C_26
                            x       y       z     vdW  Elec       q    Type
                         _______ _______ _______ _____ _____    ______ ____

>  <TORSDO>
F 14

$$$$
=
 OpenBabel10272413183D

 32 34  0  0  1  0  0  0  0  0999 V2000
  187.9890  177.3210  143.7520 C   0  0  2  0  0  3  0  0  0  0  0  0
  188.7900  177.7130  142.5090 C   0  0  2  0  0  3  0  0  0  0  0  0
  187.8910  178.4690  141.4870 C   0  0  0  0  0  2  0  0  0  0  0  0
  190.9000  176.4890  138.6530 C   0  0  0  0  0  0  0  0  0  0  0  0
  189.5700  176.5200  141.8950 C   0  0  0  0  0  2  0  0  0  0  0  0
  189.8760  177.4100  138.4580 O   0  0  0  0  0  0  0  0  0  0  0  0
  189.1780  177.4510  139.6820 C   0  0  2  0  0  3  0  0  0  0  0  0
  188.5990  178.7650  140.1470 C   0  0  0  0  0  2  0  0  0  0  0  0
  191.0940  176.1640  139.8920 N   0  0  0  0  0  0  0  0  0  0  0  0
  191.6750  175.8870  137.5370 C   0  0  0  0  0  1  0  0  0  0  0  0
  190.2430  177.0570  140.6560 C   0  0  2  0  0  3  0  0  0  0  0  0
  187.0950  178.4800  144.1820 C   0  0  0  0  0  2  0  0  0  0  0  0
  185.6660  178.0350  144.4650 C   0  0  1  0  0  3  0  0  0  0  0  0
  185.4280  178.1940  145.9580 C   0  0  0  0  0  1  0  0  0  0  0  0
  184.6640  178.8680  143.6460 C   0  0  2  0  0  3  0  0  0  0  0  0
  183.3750  179.1590  144.4040 C   0  0  0  0  0  1  0  0  0  0  0  0
  184.3440  178.2540  142.2750 C   0  0  0  0  0  2  0  0  0  0  0  0
  183.7660  179.2200  141.3390 N   0  0  0  0  0  0  0  0  0  0  0  0
  182.7180  178.5120  140.6140 C   0  0  1  0  0  3  0  0  0  0  0  0
  181.4700  178.4130  141.4680 C   0  0  0  0  0  2  0  0  0  0  0  0
  181.5480  179.4480  140.3690 C   0  0  2  0  0  3  0  0  0  0  0  0
  180.8320  178.9990  139.2610 O   0  0  0  0  0  1  0  0  0  0  0  0
  184.7230  179.5290  140.4260 O   0  0  0  0  0  0  0  0  0  0  0  0
  184.8710  178.3720  139.6530 C   0  0  0  0  0  2  0  0  0  0  0  0
  185.1440  177.7300  137.3850 F   0  0  0  0  0  0  0  0  0  0  0  0
  185.4300  178.7340  138.2910 C   0  0  0  0  0  2  0  0  0  0  0  0
  188.9050  176.8710  144.8880 C   0  0  0  0  0  2  0  0  0  0  0  0
  189.3500  178.0710  145.7070 C   0  0  0  0  0  2  0  0  0  0  0  0
  189.6740  177.6610  147.1300 C   0  0  1  0  0  3  0  0  0  0  0  0
  188.4030  177.2460  147.8500 C   0  0  0  0  0  1  0  0  0  0  0  0
  191.9070  176.9160  147.5260 O   0  0  0  0  0  1  0  0  0  0  0  0
  190.6470  176.4970  147.0970 C   0  0  0  0  0  2  0  0  0  0  0  0
  1 12  1  1  0  0  0
  1 27  1  0  0  0  0
  2  1  1  1  0  0  0
  3  2  1  0  0  0  0
  4  9  2  0  0  0  0
  5  2  1  0  0  0  0
  6  4  1  0  0  0  0
  6  7  1  0  0  0  0
  7  8  1  1  0  0  0
  7 11  1  0  0  0  0
  8  3  1  0  0  0  0
  9 11  1  0  0  0  0
 10  4  1  0  0  0  0
 11  5  1  1  0  0  0
 12 13  1  0  0  0  0
 13 14  1  1  0  0  0
 15 16  1  1  0  0  0
 15 13  1  0  0  0  0
 17 15  1  0  0  0  0
 18 17  1  0  0  0  0
 19 18  1  1  0  0  0
 19 20  1  0  0  0  0
 21 22  1  6  0  0  0
 21 19  1  0  0  0  0
 21 20  1  0  0  0  0
 23 18  1  0  0  0  0
 24 23  1  0  0  0  0
 25 26  1  0  0  0  0
 26 24  1  0  0  0  0
 27 28  1  0  0  0  0
 28 29  1  0  0  0  0
 29 30  1  6  0  0  0
 32 29  1  0  0  0  0
 32 31  1  0  0  0  0
M  END
>  <MODEL>
7

>  <REMARK>
 VINA RESULT:      -6.8      2.656      6.553
  Name = 
  14 active torsions:
  status: ('A' for Active; 'I' for Inactive)
    1  A    between atoms: C_1  and  C_4
    2  A    between atoms: C_1  and  C_5
    3  A    between atoms: C_2  and  C_5
    4  A    between atoms: C_3  and  N_20
    5  A    between atoms: C_4  and  C_24
    6  A    between atoms: C_5  and  C_14
    7  A    between atoms: C_13  and  C_29
    8  A    between atoms: C_13  and  C_30
    9  A    between atoms: C_14  and  C_30
   10  A    between atoms: O_15  and  N_20
   11  A    between atoms: O_15  and  C_26
   12  A    between atoms: C_16  and  N_20
   13  A    between atoms: C_16  and  C_24
   14  A    between atoms: C_19  and  C_26
                            x       y       z     vdW  Elec       q    Type
                         _______ _______ _______ _____ _____    ______ ____

>  <TORSDO>
F 14

$$$$
=
 OpenBabel10272413183D

 32 34  0  0  1  0  0  0  0  0999 V2000
  188.0360  178.4850  141.2780 C   0  0  2  0  0  3  0  0  0  0  0  0
  188.9860  178.4200  140.0810 C   0  0  2  0  0  3  0  0  0  0  0  0
  188.1910  178.2640  138.7500 C   0  0  0  0  0  2  0  0  0  0  0  0
  192.0890  176.1160  137.6540 C   0  0  0  0  0  0  0  0  0  0  0  0
  190.1130  177.3680  140.2630 C   0  0  0  0  0  2  0  0  0  0  0  0
  190.9620  176.4710  136.9200 O   0  0  0  0  0  0  0  0  0  0  0  0
  190.0220  176.9100  137.8760 C   0  0  2  0  0  3  0  0  0  0  0  0
  189.0940  178.0450  137.5170 C   0  0  0  0  0  2  0  0  0  0  0  0
  192.0740  176.5250  138.8830 N   0  0  0  0  0  0  0  0  0  0  0  0
  193.1960  175.2950  137.0970 C   0  0  0  0  0  1  0  0  0  0  0  0
  190.9110  177.3860  138.9830 C   0  0  2  0  0  3  0  0  0  0  0  0
  188.4780  177.4900  142.3460 C   0  0  0  0  0  2  0  0  0  0  0  0
  188.0670  177.9240  143.7480 C   0  0  1  0  0  3  0  0  0  0  0  0
  187.1300  176.8600  144.2960 C   0  0  0  0  0  1  0  0  0  0  0  0
  189.3030  178.1020  144.6470 C   0  0  2  0  0  3  0  0  0  0  0  0
  190.5040  178.6640  143.8980 C   0  0  0  0  0  1  0  0  0  0  0  0
  189.6990  176.8200  145.3930 C   0  0  0  0  0  2  0  0  0  0  0  0
  189.9320  177.0400  146.8220 N   0  0  0  0  0  0  0  0  0  0  0  0
  190.7970  175.9550  147.2680 C   0  0  1  0  0  3  0  0  0  0  0  0
  191.9810  175.8140  146.3320 C   0  0  0  0  0  2  0  0  0  0  0  0
  192.1540  176.5140  147.6590 C   0  0  2  0  0  3  0  0  0  0  0  0
  192.7590  175.6440  148.5640 O   0  0  0  0  0  1  0  0  0  0  0  0
  188.7470  176.8740  147.4610 O   0  0  0  0  0  0  0  0  0  0  0  0
  188.6210  177.9960  148.2880 C   0  0  0  0  0  2  0  0  0  0  0  0
  186.6740  178.4840  147.0240 F   0  0  0  0  0  0  0  0  0  0  0  0
  187.1780  178.4580  148.3110 C   0  0  0  0  0  2  0  0  0  0  0  0
  186.5880  178.2460  140.8560 C   0  0  0  0  0  2  0  0  0  0  0  0
  185.6610  179.1690  141.6270 C   0  0  0  0  0  2  0  0  0  0  0  0
  184.4150  178.4280  142.0730 C   0  0  1  0  0  3  0  0  0  0  0  0
  184.0740  178.8070  143.5040 C   0  0  0  0  0  1  0  0  0  0  0  0
  182.0580  178.3590  141.6970 O   0  0  0  0  0  1  0  0  0  0  0  0
  183.2650  178.8030  141.1560 C   0  0  0  0  0  2  0  0  0  0  0  0
  1 27  1  6  0  0  0
  1 12  1  0  0  0  0
  2  5  1  0  0  0  0
  2  1  1  1  0  0  0
  3  2  1  0  0  0  0
  4  9  2  0  0  0  0
  6  4  1  0  0  0  0
  6  7  1  0  0  0  0
  7  8  1  6  0  0  0
  7 11  1  0  0  0  0
  8  3  1  0  0  0  0
  9 11  1  0  0  0  0
 10  4  1  0  0  0  0
 11  5  1  1  0  0  0
 12 13  1  0  0  0  0
 13 14  1  1  0  0  0
 13 15  1  0  0  0  0
 15 16  1  6  0  0  0
 15 17  1  0  0  0  0
 17 18  1  0  0  0  0
 18 23  1  0  0  0  0
 19 18  1  6  0  0  0
 19 21  1  0  0  0  0
 20 19  1  0  0  0  0
 20 21  1  0  0  0  0
 21 22  1  1  0  0  0
 23 24  1  0  0  0  0
 24 26  1  0  0  0  0
 25 26  1  0  0  0  0
 27 28  1  0  0  0  0
 28 29  1  0  0  0  0
 29 30  1  1  0  0  0
 32 31  1  0  0  0  0
 32 29  1  0  0  0  0
M  END
>  <MODEL>
8

>  <REMARK>
 VINA RESULT:      -6.7      3.012      8.820
  Name = 
  14 active torsions:
  status: ('A' for Active; 'I' for Inactive)
    1  A    between atoms: C_1  and  C_4
    2  A    between atoms: C_1  and  C_5
    3  A    between atoms: C_2  and  C_5
    4  A    between atoms: C_3  and  N_20
    5  A    between atoms: C_4  and  C_24
    6  A    between atoms: C_5  and  C_14
    7  A    between atoms: C_13  and  C_29
    8  A    between atoms: C_13  and  C_30
    9  A    between atoms: C_14  and  C_30
   10  A    between atoms: O_15  and  N_20
   11  A    between atoms: O_15  and  C_26
   12  A    between atoms: C_16  and  N_20
   13  A    between atoms: C_16  and  C_24
   14  A    between atoms: C_19  and  C_26
                            x       y       z     vdW  Elec       q    Type
                         _______ _______ _______ _____ _____    ______ ____

>  <TORSDO>
F 14

$$$$
=
 OpenBabel10272413183D

 32 34  0  0  1  0  0  0  0  0999 V2000
  187.7750  178.0180  143.7190 C   0  0  2  0  0  3  0  0  0  0  0  0
  186.4900  178.6550  143.1860 C   0  0  2  0  0  3  0  0  0  0  0  0
  185.2380  178.0360  143.8760 C   0  0  0  0  0  2  0  0  0  0  0  0
  183.4770  179.1690  139.7980 C   0  0  0  0  0  0  0  0  0  0  0  0
  186.4170  178.6550  141.6360 C   0  0  0  0  0  2  0  0  0  0  0  0
  182.9150  178.6770  140.9720 O   0  0  0  0  0  0  0  0  0  0  0  0
  184.0100  178.3270  141.7880 C   0  0  2  0  0  3  0  0  0  0  0  0
  183.9020  178.5290  143.2800 C   0  0  0  0  0  2  0  0  0  0  0  0
  184.7450  179.4220  139.8810 N   0  0  0  0  0  0  0  0  0  0  0  0
  182.7060  179.3450  138.5400 C   0  0  0  0  0  1  0  0  0  0  0  0
  185.0750  179.2500  141.2830 C   0  0  2  0  0  3  0  0  0  0  0  0
  188.4870  177.2690  142.5970 C   0  0  0  0  0  2  0  0  0  0  0  0
  189.7100  178.0190  142.0830 C   0  0  1  0  0  3  0  0  0  0  0  0
  190.3830  178.6650  143.2830 C   0  0  0  0  0  1  0  0  0  0  0  0
  190.6670  177.0630  141.3500 C   0  0  2  0  0  3  0  0  0  0  0  0
  192.0220  176.9400  142.0360 C   0  0  0  0  0  1  0  0  0  0  0  0
  190.8550  177.4130  139.8670 C   0  0  0  0  0  2  0  0  0  0  0  0
  190.5800  176.2840  138.9760 N   0  0  0  0  0  0  0  0  0  0  0  0
  191.4970  176.4170  137.8500 C   0  0  1  0  0  3  0  0  0  0  0  0
  192.9300  176.3990  138.3420 C   0  0  0  0  0  2  0  0  0  0  0  0
  192.3330  175.1560  137.7240 C   0  0  2  0  0  3  0  0  0  0  0  0
  192.7770  175.0350  136.4090 O   0  0  0  0  0  1  0  0  0  0  0  0
  189.3300  176.4540  138.4740 O   0  0  0  0  0  0  0  0  0  0  0  0
  189.4730  177.4100  137.4620 C   0  0  0  0  0  2  0  0  0  0  0  0
  187.9670  179.1620  136.9200 F   0  0  0  0  0  0  0  0  0  0  0  0
  188.1110  177.7860  136.9150 C   0  0  0  0  0  2  0  0  0  0  0  0
  187.4950  177.1060  144.9100 C   0  0  0  0  0  2  0  0  0  0  0  0
  187.8020  177.8320  146.2080 C   0  0  0  0  0  2  0  0  0  0  0  0
  188.8100  177.0560  147.0330 C   0  0  1  0  0  3  0  0  0  0  0  0
  190.1070  176.9070  146.2560 C   0  0  0  0  0  1  0  0  0  0  0  0
  187.8650  178.0690  148.9770 O   0  0  0  0  0  1  0  0  0  0  0  0
  189.0700  177.8070  148.3260 C   0  0  0  0  0  2  0  0  0  0  0  0
  1 12  1  6  0  0  0
  1 27  1  0  0  0  0
  2  1  1  6  0  0  0
  2  3  1  0  0  0  0
  4  9  2  0  0  0  0
  4  6  1  0  0  0  0
  5  2  1  0  0  0  0
  6  7  1  0  0  0  0
  7  8  1  1  0  0  0
  8  3  1  0  0  0  0
  9 11  1  0  0  0  0
 10  4  1  0  0  0  0
 11  5  1  6  0  0  0
 11  7  1  0  0  0  0
 13 12  1  0  0  0  0
 13 14  1  1  0  0  0
 15 16  1  1  0  0  0
 15 13  1  0  0  0  0
 17 15  1  0  0  0  0
 18 17  1  0  0  0  0
 19 20  1  0  0  0  0
 19 18  1  1  0  0  0
 21 22  1  6  0  0  0
 21 19  1  0  0  0  0
 21 20  1  0  0  0  0
 23 18  1  0  0  0  0
 24 23  1  0  0  0  0
 26 25  1  0  0  0  0
 26 24  1  0  0  0  0
 27 28  1  0  0  0  0
 28 29  1  0  0  0  0
 29 30  1  6  0  0  0
 29 32  1  0  0  0  0
 32 31  1  0  0  0  0
M  END
>  <MODEL>
9

>  <REMARK>
 VINA RESULT:      -6.7      2.730      3.612
  Name = 
  14 active torsions:
  status: ('A' for Active; 'I' for Inactive)
    1  A    between atoms: C_1  and  C_4
    2  A    between atoms: C_1  and  C_5
    3  A    between atoms: C_2  and  C_5
    4  A    between atoms: C_3  and  N_20
    5  A    between atoms: C_4  and  C_24
    6  A    between atoms: C_5  and  C_14
    7  A    between atoms: C_13  and  C_29
    8  A    between atoms: C_13  and  C_30
    9  A    between atoms: C_14  and  C_30
   10  A    between atoms: O_15  and  N_20
   11  A    between atoms: O_15  and  C_26
   12  A    between atoms: C_16  and  N_20
   13  A    between atoms: C_16  and  C_24
   14  A    between atoms: C_19  and  C_26
                            x       y       z     vdW  Elec       q    Type
                         _______ _______ _______ _____ _____    ______ ____

>  <TORSDO>
F 14

$$$$
