=
 OpenBabel10272413333D

 32 35  0  0  1  0  0  0  0  0999 V2000
  186.3740  178.4190  142.1500 C   0  0  0  0  0  0  0  0  0  0  0  0
  181.8740  178.4320  144.0830 C   0  0  0  0  0  2  0  0  0  0  0  0
  181.3400  179.1290  142.8390 C   0  0  0  0  0  2  0  0  0  0  0  0
  188.1560  177.4610  143.5360 C   0  0  0  0  0  0  0  0  0  0  0  0
  186.0140  177.9600  144.6360 C   0  0  0  0  0  3  0  0  0  0  0  0
  183.2940  178.9010  144.3750 C   0  0  0  0  0  2  0  0  0  0  0  0
  185.4680  178.3710  143.3190 C   0  0  0  0  0  0  0  0  0  0  0  0
  184.1810  178.7310  143.1690 C   0  0  0  0  0  0  0  0  0  0  0  0
  184.4660  178.6830  140.6910 N   0  0  0  0  0  0  0  0  0  0  0  0
  188.8550  176.1330  143.3560 C   0  0  0  0  0  2  0  0  0  0  0  0
  187.2770  177.5370  144.7620 C   0  0  0  0  0  0  0  0  0  0  0  0
  189.6580  177.3790  143.7070 C   0  0  0  0  0  2  0  0  0  0  0  0
  182.1950  178.7400  141.6410 C   0  0  0  0  0  2  0  0  0  0  0  0
  183.6520  179.1960  141.8130 C   0  0  1  0  0  3  0  0  0  0  0  0
  187.6460  178.0300  142.2480 C   0  0  0  0  0  3  0  0  0  0  0  0
  185.8720  179.0340  140.8900 C   0  0  0  0  0  2  0  0  0  0  0  0
  187.7970  177.1880  146.1200 C   0  0  0  0  0  2  0  0  0  0  0  0
  188.4320  178.2930  146.6870 O   0  0  0  0  0  0  0  0  0  0  0  0
  189.1610  177.7690  147.7520 C   0  0  0  0  0  2  0  0  0  0  0  0
  189.9040  176.5300  147.2930 C   0  0  0  0  0  2  0  0  0  0  0  0
  191.3590  176.8220  147.1890 C   0  0  0  0  0  0  0  0  0  0  0  0
  192.0530  176.9380  148.2310 O   0  0  0  0  0  1  0  0  0  0  0  0
  191.9580  176.9370  145.9410 O   0  0  0  0  0  0  0  0  0  0  0  0
  184.0560  179.3790  139.4730 C   0  0  0  0  0  2  0  0  0  0  0  0
  184.1960  178.4810  138.2400 C   0  0  1  0  0  3  0  0  0  0  0  0
  186.6190  177.8760  137.7840 C   0  0  0  0  0  0  0  0  0  0  0  0
  187.7510  176.9360  138.0010 C   0  0  0  0  0  1  0  0  0  0  0  0
  185.3460  177.5940  138.3700 N   0  0  0  0  0  2  0  0  0  0  0  0
  186.7950  178.9290  137.0560 N   0  0  0  0  0  2  0  0  0  0  0  0
  182.9380  177.6530  138.0070 C   0  0  0  0  0  2  0  0  0  0  0  0
  183.1620  176.1920  138.3640 C   0  0  0  0  0  2  0  0  0  0  0  0
  182.2620  175.7830  139.5150 C   0  0  0  0  0  1  0  0  0  0  0  0
  1 15  2  0  0  0  0
  1  7  1  0  0  0  0
  2  6  1  0  0  0  0
  3  2  1  0  0  0  0
  4 12  1  0  0  0  0
  4 11  1  0  0  0  0
  5 11  2  0  0  0  0
  7  5  1  0  0  0  0
  8  7  2  0  0  0  0
  8  6  1  0  0  0  0
  9 16  1  0  0  0  0
  9 14  1  0  0  0  0
 10  4  1  0  0  0  0
 10 12  1  0  0  0  0
 11 17  1  0  0  0  0
 13  3  1  0  0  0  0
 14 13  1  6  0  0  0
 14  8  1  0  0  0  0
 15  4  1  0  0  0  0
 16  1  1  0  0  0  0
 17 18  1  0  0  0  0
 18 19  1  0  0  0  0
 20 19  1  0  0  0  0
 21 20  1  0  0  0  0
 21 22  1  0  0  0  0
 23 21  2  0  0  0  0
 24  9  1  0  0  0  0
 25 30  1  1  0  0  0
 25 28  1  0  0  0  0
 25 24  1  0  0  0  0
 26 27  1  0  0  0  0
 26 28  1  0  0  0  0
 29 26  2  0  0  0  0
 30 31  1  0  0  0  0
 31 32  1  0  0  0  0
M  END
>  <MODEL>
1

>  <REMARK>
 VINA RESULT:      -8.0      0.000      0.000
  Name = 
  10 active torsions:
  status: ('A' for Active; 'I' for Inactive)
    1  A    between atoms: C_1  and  C_10
    2  A    between atoms: O_2  and  C_12
    3  A    between atoms: O_2  and  C_24
    4  A    between atoms: C_6  and  C_7
    5  A    between atoms: C_7  and  C_32
    6  A    between atoms: C_10  and  C_24
    7  A    between atoms: C_12  and  C_21
    8  A    between atoms: N_16  and  C_27
    9  A    between atoms: N_22  and  C_32
   10  A    between atoms: C_27  and  C_32
                            x       y       z     vdW  Elec       q    Type
                         _______ _______ _______ _____ _____    ______ ____

>  <TORSDO>
F 10

$$$$
=
 OpenBabel10272413333D

 32 35  0  0  1  0  0  0  0  0999 V2000
  186.2200  178.3520  142.2110 C   0  0  0  0  0  0  0  0  0  0  0  0
  181.8270  178.4910  144.3710 C   0  0  0  0  0  2  0  0  0  0  0  0
  181.2400  179.1590  143.1360 C   0  0  0  0  0  2  0  0  0  0  0  0
  188.0590  177.4080  143.5320 C   0  0  0  0  0  0  0  0  0  0  0  0
  185.9830  177.9720  144.7250 C   0  0  0  0  0  3  0  0  0  0  0  0
  183.2670  178.9460  144.5760 C   0  0  0  0  0  2  0  0  0  0  0  0
  185.3760  178.3520  143.4260 C   0  0  0  0  0  0  0  0  0  0  0  0
  184.0880  178.7270  143.3320 C   0  0  0  0  0  0  0  0  0  0  0  0
  184.2440  178.6020  140.8450 N   0  0  0  0  0  0  0  0  0  0  0  0
  188.7290  176.0640  143.3560 C   0  0  0  0  0  2  0  0  0  0  0  0
  187.2450  177.5340  144.7980 C   0  0  0  0  0  0  0  0  0  0  0  0
  189.5660  177.3080  143.6280 C   0  0  0  0  0  2  0  0  0  0  0  0
  182.0260  178.7220  141.9080 C   0  0  0  0  0  2  0  0  0  0  0  0
  183.4960  179.1610  141.9900 C   0  0  1  0  0  3  0  0  0  0  0  0
  187.4900  177.9460  142.2550 C   0  0  0  0  0  3  0  0  0  0  0  0
  185.6630  178.9370  140.9600 C   0  0  0  0  0  2  0  0  0  0  0  0
  187.8300  177.2160  146.1370 C   0  0  0  0  0  2  0  0  0  0  0  0
  188.4250  178.3550  146.6810 O   0  0  0  0  0  0  0  0  0  0  0  0
  189.2380  177.8710  147.7040 C   0  0  0  0  0  2  0  0  0  0  0  0
  189.9190  176.5960  147.2460 C   0  0  0  0  0  2  0  0  0  0  0  0
  191.3860  176.8160  147.1430 C   0  0  0  0  0  0  0  0  0  0  0  0
  191.9290  176.9130  146.0120 O   0  0  0  0  0  0  0  0  0  0  0  0
  192.1540  176.9450  148.2930 O   0  0  0  0  0  1  0  0  0  0  0  0
  183.7810  179.2680  139.6290 C   0  0  0  0  0  2  0  0  0  0  0  0
  182.9880  178.3120  138.7330 C   0  0  1  0  0  3  0  0  0  0  0  0
  181.0330  179.5470  137.6850 C   0  0  0  0  0  0  0  0  0  0  0  0
  180.4910  180.3040  136.5250 C   0  0  0  0  0  1  0  0  0  0  0  0
  182.3650  179.0300  137.6270 N   0  0  0  0  0  2  0  0  0  0  0  0
  180.2920  179.3540  138.7250 N   0  0  0  0  0  2  0  0  0  0  0  0
  183.8720  177.1980  138.1850 C   0  0  0  0  0  2  0  0  0  0  0  0
  183.2040  175.8390  138.3310 C   0  0  0  0  0  2  0  0  0  0  0  0
  182.2440  175.8430  139.5060 C   0  0  0  0  0  1  0  0  0  0  0  0
  1 15  2  0  0  0  0
  1  7  1  0  0  0  0
  2  6  1  0  0  0  0
  3  2  1  0  0  0  0
  4 12  1  0  0  0  0
  4 11  1  0  0  0  0
  5 11  2  0  0  0  0
  7  5  1  0  0  0  0
  8  7  2  0  0  0  0
  8  6  1  0  0  0  0
  9 16  1  0  0  0  0
  9 14  1  0  0  0  0
 10  4  1  0  0  0  0
 10 12  1  0  0  0  0
 11 17  1  0  0  0  0
 13  3  1  0  0  0  0
 14 13  1  1  0  0  0
 14  8  1  0  0  0  0
 15  4  1  0  0  0  0
 16  1  1  0  0  0  0
 17 18  1  0  0  0  0
 18 19  1  0  0  0  0
 20 19  1  0  0  0  0
 21 20  1  0  0  0  0
 21 23  1  0  0  0  0
 22 21  2  0  0  0  0
 24  9  1  0  0  0  0
 25 30  1  6  0  0  0
 25 24  1  0  0  0  0
 26 29  2  0  0  0  0
 27 26  1  0  0  0  0
 28 26  1  0  0  0  0
 28 25  1  0  0  0  0
 30 31  1  0  0  0  0
 31 32  1  0  0  0  0
M  END
>  <MODEL>
2

>  <REMARK>
 VINA RESULT:      -8.0      1.356      2.314
  Name = 
  10 active torsions:
  status: ('A' for Active; 'I' for Inactive)
    1  A    between atoms: C_1  and  C_10
    2  A    between atoms: O_2  and  C_12
    3  A    between atoms: O_2  and  C_24
    4  A    between atoms: C_6  and  C_7
    5  A    between atoms: C_7  and  C_32
    6  A    between atoms: C_10  and  C_24
    7  A    between atoms: C_12  and  C_21
    8  A    between atoms: N_16  and  C_27
    9  A    between atoms: N_22  and  C_32
   10  A    between atoms: C_27  and  C_32
                            x       y       z     vdW  Elec       q    Type
                         _______ _______ _______ _____ _____    ______ ____

>  <TORSDO>
F 10

$$$$
=
 OpenBabel10272413333D

 32 35  0  0  1  0  0  0  0  0999 V2000
  185.7890  178.3390  143.3490 C   0  0  0  0  0  0  0  0  0  0  0  0
  189.9770  177.4810  140.9590 C   0  0  0  0  0  2  0  0  0  0  0  0
  189.2440  177.5940  139.6300 C   0  0  0  0  0  2  0  0  0  0  0  0
  185.9030  178.3110  145.7980 C   0  0  0  0  0  0  0  0  0  0  0  0
  187.8230  177.3920  144.5670 C   0  0  0  0  0  3  0  0  0  0  0  0
  189.0610  176.8660  142.0100 C   0  0  0  0  0  2  0  0  0  0  0  0
  187.1600  177.7850  143.3000 C   0  0  0  0  0  0  0  0  0  0  0  0
  187.7620  177.6230  142.1080 C   0  0  0  0  0  0  0  0  0  0  0  0
  185.9780  178.9930  141.0300 N   0  0  0  0  0  0  0  0  0  0  0  0
  185.8440  179.4930  146.7400 C   0  0  0  0  0  2  0  0  0  0  0  0
  187.2460  177.6220  145.7520 C   0  0  0  0  0  0  0  0  0  0  0  0
  185.0670  178.2210  147.0570 C   0  0  0  0  0  2  0  0  0  0  0  0
  188.0550  178.5320  139.7920 C   0  0  0  0  0  2  0  0  0  0  0  0
  187.0410  177.9910  140.8110 C   0  0  1  0  0  3  0  0  0  0  0  0
  185.1750  178.5560  144.5120 C   0  0  0  0  0  3  0  0  0  0  0  0
  185.0550  178.5280  142.0670 C   0  0  0  0  0  2  0  0  0  0  0  0
  187.9280  177.1570  146.9990 C   0  0  0  0  0  2  0  0  0  0  0  0
  189.2300  177.6570  147.0460 O   0  0  0  0  0  0  0  0  0  0  0  0
  190.0370  176.5250  147.1390 C   0  0  0  0  0  2  0  0  0  0  0  0
  191.4450  176.8710  146.6950 C   0  0  0  0  0  2  0  0  0  0  0  0
  191.4860  177.0190  145.2150 C   0  0  0  0  0  0  0  0  0  0  0  0
  191.4540  178.1650  144.6970 O   0  0  0  0  0  1  0  0  0  0  0  0
  191.5910  175.8960  144.4070 O   0  0  0  0  0  0  0  0  0  0  0  0
  185.1800  179.0880  139.8090 C   0  0  0  0  0  2  0  0  0  0  0  0
  183.8730  178.2980  139.9300 C   0  0  1  0  0  3  0  0  0  0  0  0
  181.5730  179.2230  140.4780 C   0  0  0  0  0  0  0  0  0  0  0  0
  180.4630  180.1450  140.1210 C   0  0  0  0  0  1  0  0  0  0  0  0
  182.7240  179.1450  139.6340 N   0  0  0  0  0  2  0  0  0  0  0  0
  181.4800  178.4920  141.5390 N   0  0  0  0  0  2  0  0  0  0  0  0
  183.8660  177.0850  139.0070 C   0  0  0  0  0  2  0  0  0  0  0  0
  184.2620  177.4680  137.5890 C   0  0  0  0  0  2  0  0  0  0  0  0
  185.4690  176.6660  137.1400 C   0  0  0  0  0  1  0  0  0  0  0  0
  1 15  2  0  0  0  0
  2  6  1  0  0  0  0
  3 13  1  0  0  0  0
  3  2  1  0  0  0  0
  4 10  1  0  0  0  0
  4 12  1  0  0  0  0
  5 11  2  0  0  0  0
  6  8  1  0  0  0  0
  7  1  1  0  0  0  0
  7  5  1  0  0  0  0
  8  7  2  0  0  0  0
  9 16  1  0  0  0  0
 10 12  1  0  0  0  0
 11  4  1  0  0  0  0
 11 17  1  0  0  0  0
 14 13  1  6  0  0  0
 14  9  1  0  0  0  0
 14  8  1  0  0  0  0
 15  4  1  0  0  0  0
 16  1  1  0  0  0  0
 17 18  1  0  0  0  0
 18 19  1  0  0  0  0
 20 19  1  0  0  0  0
 21 20  1  0  0  0  0
 22 21  1  0  0  0  0
 23 21  2  0  0  0  0
 24 25  1  0  0  0  0
 24  9  1  0  0  0  0
 25 30  1  6  0  0  0
 26 29  2  0  0  0  0
 27 26  1  0  0  0  0
 28 25  1  0  0  0  0
 28 26  1  0  0  0  0
 31 30  1  0  0  0  0
 32 31  1  0  0  0  0
M  END
>  <MODEL>
3

>  <REMARK>
 VINA RESULT:      -7.8      1.810      4.261
  Name = 
  10 active torsions:
  status: ('A' for Active; 'I' for Inactive)
    1  A    between atoms: C_1  and  C_10
    2  A    between atoms: O_2  and  C_12
    3  A    between atoms: O_2  and  C_24
    4  A    between atoms: C_6  and  C_7
    5  A    between atoms: C_7  and  C_32
    6  A    between atoms: C_10  and  C_24
    7  A    between atoms: C_12  and  C_21
    8  A    between atoms: N_16  and  C_27
    9  A    between atoms: N_22  and  C_32
   10  A    between atoms: C_27  and  C_32
                            x       y       z     vdW  Elec       q    Type
                         _______ _______ _______ _____ _____    ______ ____

>  <TORSDO>
F 10

$$$$
=
 OpenBabel10272413333D

 32 35  0  0  1  0  0  0  0  0999 V2000
  187.5340  178.1200  142.1060 C   0  0  0  0  0  0  0  0  0  0  0  0
  183.8650  178.5480  145.3210 C   0  0  0  0  0  2  0  0  0  0  0  0
  183.0010  179.1990  144.2510 C   0  0  0  0  0  2  0  0  0  0  0  0
  189.6160  177.1350  142.9470 C   0  0  0  0  0  0  0  0  0  0  0  0
  187.9470  177.8410  144.6100 C   0  0  0  0  0  3  0  0  0  0  0  0
  185.3240  178.9390  145.1250 C   0  0  0  0  0  2  0  0  0  0  0  0
  187.0370  178.2040  143.4970 C   0  0  0  0  0  0  0  0  0  0  0  0
  185.7830  178.6370  143.7220 C   0  0  0  0  0  0  0  0  0  0  0  0
  185.2800  178.4170  141.2880 N   0  0  0  0  0  0  0  0  0  0  0  0
  190.1670  175.7550  142.6670 C   0  0  0  0  0  2  0  0  0  0  0  0
  189.1670  177.3450  144.3740 C   0  0  0  0  0  0  0  0  0  0  0  0
  191.0910  176.9660  142.6540 C   0  0  0  0  0  2  0  0  0  0  0  0
  183.4220  178.6810  142.8830 C   0  0  0  0  0  2  0  0  0  0  0  0
  184.8790  179.0510  142.5610 C   0  0  1  0  0  3  0  0  0  0  0  0
  188.7550  177.6550  141.8380 C   0  0  0  0  0  3  0  0  0  0  0  0
  186.6920  178.6870  141.0160 C   0  0  0  0  0  2  0  0  0  0  0  0
  190.0690  177.0470  145.5290 C   0  0  0  0  0  2  0  0  0  0  0  0
  189.3110  176.7340  146.6580 O   0  0  0  0  0  0  0  0  0  0  0  0
  190.0830  177.1760  147.7310 C   0  0  0  0  0  2  0  0  0  0  0  0
  189.4100  178.3720  148.3760 C   0  0  0  0  0  2  0  0  0  0  0  0
  187.9570  178.1030  148.5480 C   0  0  0  0  0  0  0  0  0  0  0  0
  187.5760  177.1650  149.2950 O   0  0  0  0  0  1  0  0  0  0  0  0
  187.0210  178.9050  147.9090 O   0  0  0  0  0  0  0  0  0  0  0  0
  184.5410  179.0610  140.2040 C   0  0  0  0  0  2  0  0  0  0  0  0
  184.2360  178.0760  139.0710 C   0  0  1  0  0  3  0  0  0  0  0  0
  181.9520  176.9690  139.0920 C   0  0  0  0  0  0  0  0  0  0  0  0
  180.5010  177.0560  138.7770 C   0  0  0  0  0  1  0  0  0  0  0  0
  182.8110  178.0620  138.7620 N   0  0  0  0  0  2  0  0  0  0  0  0
  182.4220  175.9010  139.6460 N   0  0  0  0  0  2  0  0  0  0  0  0
  185.0280  178.4100  137.8120 C   0  0  0  0  0  2  0  0  0  0  0  0
  186.0950  177.3610  137.5350 C   0  0  0  0  0  2  0  0  0  0  0  0
  187.4570  178.0140  137.3960 C   0  0  0  0  0  1  0  0  0  0  0  0
  1  7  1  0  0  0  0
  3  2  1  0  0  0  0
  4 11  1  0  0  0  0
  6  2  1  0  0  0  0
  7  8  2  0  0  0  0
  7  5  1  0  0  0  0
  8  6  1  0  0  0  0
  9 14  1  0  0  0  0
 10  4  1  0  0  0  0
 11  5  2  0  0  0  0
 11 17  1  0  0  0  0
 12 10  1  0  0  0  0
 12  4  1  0  0  0  0
 13  3  1  0  0  0  0
 14 13  1  1  0  0  0
 14  8  1  0  0  0  0
 15  1  2  0  0  0  0
 15  4  1  0  0  0  0
 16  9  1  0  0  0  0
 16  1  1  0  0  0  0
 17 18  1  0  0  0  0
 18 19  1  0  0  0  0
 19 20  1  0  0  0  0
 20 21  1  0  0  0  0
 21 22  1  0  0  0  0
 23 21  2  0  0  0  0
 24  9  1  0  0  0  0
 25 30  1  6  0  0  0
 25 24  1  0  0  0  0
 26 29  2  0  0  0  0
 27 26  1  0  0  0  0
 28 25  1  0  0  0  0
 28 26  1  0  0  0  0
 31 30  1  0  0  0  0
 32 31  1  0  0  0  0
M  END
>  <MODEL>
4

>  <REMARK>
 VINA RESULT:      -7.6      1.633      3.074
  Name = 
  10 active torsions:
  status: ('A' for Active; 'I' for Inactive)
    1  A    between atoms: C_1  and  C_10
    2  A    between atoms: O_2  and  C_12
    3  A    between atoms: O_2  and  C_24
    4  A    between atoms: C_6  and  C_7
    5  A    between atoms: C_7  and  C_32
    6  A    between atoms: C_10  and  C_24
    7  A    between atoms: C_12  and  C_21
    8  A    between atoms: N_16  and  C_27
    9  A    between atoms: N_22  and  C_32
   10  A    between atoms: C_27  and  C_32
                            x       y       z     vdW  Elec       q    Type
                         _______ _______ _______ _____ _____    ______ ____

>  <TORSDO>
F 10

$$$$
=
 OpenBabel10272413333D

 32 35  0  0  1  0  0  0  0  0999 V2000
  186.3130  178.2920  141.7230 C   0  0  0  0  0  0  0  0  0  0  0  0
  191.0710  177.1870  142.0710 C   0  0  0  0  0  2  0  0  0  0  0  0
  191.1560  177.0660  140.5560 C   0  0  0  0  0  2  0  0  0  0  0  0
  185.1180  178.6580  143.8330 C   0  0  0  0  0  0  0  0  0  0  0  0
  187.3400  177.6110  143.9590 C   0  0  0  0  0  3  0  0  0  0  0  0
  189.7050  176.7200  142.5570 C   0  0  0  0  0  2  0  0  0  0  0  0
  187.4690  177.7780  142.4910 C   0  0  0  0  0  0  0  0  0  0  0  0
  188.5970  177.4450  141.8380 C   0  0  0  0  0  0  0  0  0  0  0  0
  187.7330  178.5750  139.7890 N   0  0  0  0  0  0  0  0  0  0  0  0
  184.6430  179.9720  144.4120 C   0  0  0  0  0  2  0  0  0  0  0  0
  186.2410  178.0090  144.6090 C   0  0  0  0  0  0  0  0  0  0  0  0
  183.7420  178.7440  144.4570 C   0  0  0  0  0  2  0  0  0  0  0  0
  190.1190  177.9830  139.9220 C   0  0  0  0  0  2  0  0  0  0  0  0
  188.6900  177.5820  140.3190 C   0  0  1  0  0  3  0  0  0  0  0  0
  185.1930  178.6740  142.3380 C   0  0  0  0  0  3  0  0  0  0  0  0
  186.3770  178.2550  140.2360 C   0  0  0  0  0  2  0  0  0  0  0  0
  186.1350  177.7670  146.0810 C   0  0  0  0  0  2  0  0  0  0  0  0
  187.1190  178.4910  146.7550 O   0  0  0  0  0  0  0  0  0  0  0  0
  187.6760  177.5770  147.6480 C   0  0  0  0  0  2  0  0  0  0  0  0
  189.0650  178.0380  148.0410 C   0  0  0  0  0  2  0  0  0  0  0  0
  190.0870  177.2580  147.2930 C   0  0  0  0  0  0  0  0  0  0  0  0
  191.1620  176.9280  147.8570 O   0  0  0  0  0  1  0  0  0  0  0  0
  189.8440  176.8670  145.9830 O   0  0  0  0  0  0  0  0  0  0  0  0
  187.7050  178.4520  138.3330 C   0  0  0  0  0  2  0  0  0  0  0  0
  186.9450  177.1970  137.8910 C   0  0  1  0  0  3  0  0  0  0  0  0
  184.6150  176.8530  136.9440 C   0  0  0  0  0  0  0  0  0  0  0  0
  183.5570  177.2930  135.9970 C   0  0  0  0  0  1  0  0  0  0  0  0
  185.8690  177.5380  136.9680 N   0  0  0  0  0  2  0  0  0  0  0  0
  184.3950  175.8470  137.7250 N   0  0  0  0  0  2  0  0  0  0  0  0
  187.8760  176.1820  137.2380 C   0  0  0  0  0  2  0  0  0  0  0  0
  188.8090  176.8500  136.2390 C   0  0  0  0  0  2  0  0  0  0  0  0
  190.2560  176.5480  136.5820 C   0  0  0  0  0  1  0  0  0  0  0  0
  1 15  2  0  0  0  0
  1  7  1  0  0  0  0
  2  6  1  0  0  0  0
  3  2  1  0  0  0  0
  4 10  1  0  0  0  0
  4 12  1  0  0  0  0
  4 11  1  0  0  0  0
  5 11  2  0  0  0  0
  7  5  1  0  0  0  0
  8  7  2  0  0  0  0
  8  6  1  0  0  0  0
  9 16  1  0  0  0  0
  9 14  1  0  0  0  0
 10 12  1  0  0  0  0
 11 17  1  0  0  0  0
 13  3  1  0  0  0  0
 14 13  1  1  0  0  0
 14  8  1  0  0  0  0
 15  4  1  0  0  0  0
 16  1  1  0  0  0  0
 17 18  1  0  0  0  0
 18 19  1  0  0  0  0
 19 20  1  0  0  0  0
 21 22  1  0  0  0  0
 21 20  1  0  0  0  0
 23 21  2  0  0  0  0
 24  9  1  0  0  0  0
 25 30  1  6  0  0  0
 25 24  1  0  0  0  0
 26 28  1  0  0  0  0
 26 29  2  0  0  0  0
 27 26  1  0  0  0  0
 28 25  1  0  0  0  0
 31 32  1  0  0  0  0
 31 30  1  0  0  0  0
M  END
>  <MODEL>
5

>  <REMARK>
 VINA RESULT:      -7.5      1.745      4.676
  Name = 
  10 active torsions:
  status: ('A' for Active; 'I' for Inactive)
    1  A    between atoms: C_1  and  C_10
    2  A    between atoms: O_2  and  C_12
    3  A    between atoms: O_2  and  C_24
    4  A    between atoms: C_6  and  C_7
    5  A    between atoms: C_7  and  C_32
    6  A    between atoms: C_10  and  C_24
    7  A    between atoms: C_12  and  C_21
    8  A    between atoms: N_16  and  C_27
    9  A    between atoms: N_22  and  C_32
   10  A    between atoms: C_27  and  C_32
                            x       y       z     vdW  Elec       q    Type
                         _______ _______ _______ _____ _____    ______ ____

>  <TORSDO>
F 10

$$$$
=
 OpenBabel10272413333D

 32 35  0  0  1  0  0  0  0  0999 V2000
  188.8260  177.6020  141.0300 C   0  0  0  0  0  0  0  0  0  0  0  0
  191.3080  176.9290  145.1980 C   0  0  0  0  0  2  0  0  0  0  0  0
  190.0860  177.3550  145.9970 C   0  0  0  0  0  2  0  0  0  0  0  0
  190.0530  177.1900  138.9480 C   0  0  0  0  0  0  0  0  0  0  0  0
  191.3680  177.3690  141.0180 C   0  0  0  0  0  3  0  0  0  0  0  0
  191.3730  177.7050  143.8880 C   0  0  0  0  0  2  0  0  0  0  0  0
  190.1000  177.5070  141.7750 C   0  0  0  0  0  0  0  0  0  0  0  0
  190.0840  177.5800  143.1180 C   0  0  0  0  0  0  0  0  0  0  0  0
  187.6040  177.3060  143.0940 N   0  0  0  0  0  0  0  0  0  0  0  0
  189.9050  176.0180  138.0030 C   0  0  0  0  0  2  0  0  0  0  0  0
  191.3690  177.2280  139.6880 C   0  0  0  0  0  0  0  0  0  0  0  0
  190.0370  177.4330  137.4540 C   0  0  0  0  0  2  0  0  0  0  0  0
  188.8280  177.0120  145.2110 C   0  0  0  0  0  2  0  0  0  0  0  0
  188.7700  177.7700  143.8750 C   0  0  1  0  0  3  0  0  0  0  0  0
  188.7940  177.4910  139.7020 C   0  0  0  0  0  3  0  0  0  0  0  0
  187.5890  177.9540  141.7830 C   0  0  0  0  0  2  0  0  0  0  0  0
  192.6750  177.1490  138.9630 C   0  0  0  0  0  2  0  0  0  0  0  0
  193.1350  175.8320  138.9510 O   0  0  0  0  0  0  0  0  0  0  0  0
  193.5540  175.6200  137.6390 C   0  0  0  0  0  2  0  0  0  0  0  0
  194.1110  174.2160  137.5080 C   0  0  0  0  0  2  0  0  0  0  0  0
  195.4380  174.1350  138.1750 C   0  0  0  0  0  0  0  0  0  0  0  0
  195.6050  173.3550  139.1480 O   0  0  0  0  0  1  0  0  0  0  0  0
  196.5010  174.8960  137.7070 O   0  0  0  0  0  0  0  0  0  0  0  0
  186.3910  177.7600  143.7700 C   0  0  0  0  0  2  0  0  0  0  0  0
  185.5920  178.7310  142.8960 C   0  0  1  0  0  3  0  0  0  0  0  0
  184.2600  178.4160  140.7580 C   0  0  0  0  0  0  0  0  0  0  0  0
  183.2820  177.6050  139.9860 C   0  0  0  0  0  1  0  0  0  0  0  0
  184.6130  178.0180  142.0850 N   0  0  0  0  0  2  0  0  0  0  0  0
  184.7690  179.4780  140.2280 N   0  0  0  0  0  2  0  0  0  0  0  0
  184.8850  179.7880  143.7370 C   0  0  0  0  0  2  0  0  0  0  0  0
  184.1650  179.1600  144.9210 C   0  0  0  0  0  2  0  0  0  0  0  0
  182.7260  178.8430  144.5590 C   0  0  0  0  0  1  0  0  0  0  0  0
  1  7  1  0  0  0  0
  1 16  1  0  0  0  0
  2  3  1  0  0  0  0
  4 11  1  0  0  0  0
  4 15  1  0  0  0  0
  5  7  1  0  0  0  0
  6  2  1  0  0  0  0
  7  8  2  0  0  0  0
  8 14  1  0  0  0  0
  8  6  1  0  0  0  0
  9 24  1  0  0  0  0
  9 14  1  0  0  0  0
 10  4  1  0  0  0  0
 11  5  2  0  0  0  0
 12 10  1  0  0  0  0
 12  4  1  0  0  0  0
 13  3  1  0  0  0  0
 14 13  1  1  0  0  0
 15  1  2  0  0  0  0
 16  9  1  0  0  0  0
 17 11  1  0  0  0  0
 18 17  1  0  0  0  0
 19 18  1  0  0  0  0
 20 19  1  0  0  0  0
 20 21  1  0  0  0  0
 21 22  1  0  0  0  0
 23 21  2  0  0  0  0
 25 30  1  1  0  0  0
 25 24  1  0  0  0  0
 26 28  1  0  0  0  0
 27 26  1  0  0  0  0
 28 25  1  0  0  0  0
 29 26  2  0  0  0  0
 30 31  1  0  0  0  0
 32 31  1  0  0  0  0
M  END
>  <MODEL>
6

>  <REMARK>
 VINA RESULT:      -7.5      3.920      7.027
  Name = 
  10 active torsions:
  status: ('A' for Active; 'I' for Inactive)
    1  A    between atoms: C_1  and  C_10
    2  A    between atoms: O_2  and  C_12
    3  A    between atoms: O_2  and  C_24
    4  A    between atoms: C_6  and  C_7
    5  A    between atoms: C_7  and  C_32
    6  A    between atoms: C_10  and  C_24
    7  A    between atoms: C_12  and  C_21
    8  A    between atoms: N_16  and  C_27
    9  A    between atoms: N_22  and  C_32
   10  A    between atoms: C_27  and  C_32
                            x       y       z     vdW  Elec       q    Type
                         _______ _______ _______ _____ _____    ______ ____

>  <TORSDO>
F 10

$$$$
=
 OpenBabel10272413333D

 32 35  0  0  1  0  0  0  0  0999 V2000
  187.0440  178.1310  142.2010 C   0  0  0  0  0  0  0  0  0  0  0  0
  182.8470  178.5090  144.6970 C   0  0  0  0  0  2  0  0  0  0  0  0
  182.2100  179.2310  143.5190 C   0  0  0  0  0  2  0  0  0  0  0  0
  188.9150  177.0550  143.3650 C   0  0  0  0  0  0  0  0  0  0  0  0
  186.9780  177.7270  144.7220 C   0  0  0  0  0  3  0  0  0  0  0  0
  184.3240  178.8710  144.7950 C   0  0  0  0  0  2  0  0  0  0  0  0
  186.2970  178.1650  143.4780 C   0  0  0  0  0  0  0  0  0  0  0  0
  185.0320  178.6200  143.4880 C   0  0  0  0  0  0  0  0  0  0  0  0
  184.9880  178.5240  140.9950 N   0  0  0  0  0  0  0  0  0  0  0  0
  189.4840  175.6740  143.1240 C   0  0  0  0  0  2  0  0  0  0  0  0
  188.2110  177.2110  144.6920 C   0  0  0  0  0  0  0  0  0  0  0  0
  190.4160  176.8600  143.3420 C   0  0  0  0  0  2  0  0  0  0  0  0
  182.8700  178.7650  142.2290 C   0  0  0  0  0  2  0  0  0  0  0  0
  184.3670  179.1100  142.2020 C   0  0  1  0  0  3  0  0  0  0  0  0
  188.2850  177.6460  142.1420 C   0  0  0  0  0  3  0  0  0  0  0  0
  186.4300  178.7690  141.0040 C   0  0  0  0  0  2  0  0  0  0  0  0
  188.8760  176.8370  145.9780 C   0  0  0  0  0  2  0  0  0  0  0  0
  188.9260  177.9420  146.8290 O   0  0  0  0  0  0  0  0  0  0  0  0
  190.0310  177.7060  147.6440 C   0  0  0  0  0  2  0  0  0  0  0  0
  190.9330  176.6810  146.9870 C   0  0  0  0  0  2  0  0  0  0  0  0
  192.1370  176.4510  147.8310 C   0  0  0  0  0  0  0  0  0  0  0  0
  192.4410  177.2780  148.7290 O   0  0  0  0  0  1  0  0  0  0  0  0
  192.9080  175.3110  147.6480 O   0  0  0  0  0  0  0  0  0  0  0  0
  184.4760  179.2360  139.8260 C   0  0  0  0  0  2  0  0  0  0  0  0
  184.0310  178.2650  138.7290 C   0  0  1  0  0  3  0  0  0  0  0  0
  181.5820  177.8660  138.1940 C   0  0  0  0  0  0  0  0  0  0  0  0
  180.3130  178.3830  137.6160 C   0  0  0  0  0  1  0  0  0  0  0  0
  182.7570  178.6780  138.1520 N   0  0  0  0  0  2  0  0  0  0  0  0
  181.6110  176.6840  138.7130 N   0  0  0  0  0  2  0  0  0  0  0  0
  185.0780  178.1510  137.6270 C   0  0  0  0  0  2  0  0  0  0  0  0
  185.4660  176.7000  137.3800 C   0  0  0  0  0  2  0  0  0  0  0  0
  184.4760  176.0390  136.4410 C   0  0  0  0  0  1  0  0  0  0  0  0
  1  7  1  0  0  0  0
  2  6  1  0  0  0  0
  3  2  1  0  0  0  0
  4 11  1  0  0  0  0
  7  8  2  0  0  0  0
  7  5  1  0  0  0  0
  8  6  1  0  0  0  0
  9 16  1  0  0  0  0
  9 14  1  0  0  0  0
 10 12  1  0  0  0  0
 10  4  1  0  0  0  0
 11  5  2  0  0  0  0
 11 17  1  0  0  0  0
 12  4  1  0  0  0  0
 13  3  1  0  0  0  0
 14 13  1  1  0  0  0
 14  8  1  0  0  0  0
 15  1  2  0  0  0  0
 15  4  1  0  0  0  0
 16  1  1  0  0  0  0
 17 18  1  0  0  0  0
 18 19  1  0  0  0  0
 20 19  1  0  0  0  0
 20 21  1  0  0  0  0
 21 22  1  0  0  0  0
 23 21  2  0  0  0  0
 24  9  1  0  0  0  0
 25 30  1  6  0  0  0
 25 24  1  0  0  0  0
 26 29  2  0  0  0  0
 27 26  1  0  0  0  0
 28 26  1  0  0  0  0
 28 25  1  0  0  0  0
 31 30  1  0  0  0  0
 32 31  1  0  0  0  0
M  END
>  <MODEL>
7

>  <REMARK>
 VINA RESULT:      -7.4      1.469      2.353
  Name = 
  10 active torsions:
  status: ('A' for Active; 'I' for Inactive)
    1  A    between atoms: C_1  and  C_10
    2  A    between atoms: O_2  and  C_12
    3  A    between atoms: O_2  and  C_24
    4  A    between atoms: C_6  and  C_7
    5  A    between atoms: C_7  and  C_32
    6  A    between atoms: C_10  and  C_24
    7  A    between atoms: C_12  and  C_21
    8  A    between atoms: N_16  and  C_27
    9  A    between atoms: N_22  and  C_32
   10  A    between atoms: C_27  and  C_32
                            x       y       z     vdW  Elec       q    Type
                         _______ _______ _______ _____ _____    ______ ____

>  <TORSDO>
F 10

$$$$
=
 OpenBabel10272413333D

 32 35  0  0  1  0  0  0  0  0999 V2000
  189.4300  177.6070  140.6580 C   0  0  0  0  0  0  0  0  0  0  0  0
  184.6520  178.6760  140.5630 C   0  0  0  0  0  2  0  0  0  0  0  0
  184.7300  178.9020  139.0600 C   0  0  0  0  0  2  0  0  0  0  0  0
  190.3930  177.0980  142.8550 C   0  0  0  0  0  0  0  0  0  0  0  0
  188.1610  178.1300  142.8110 C   0  0  0  0  0  3  0  0  0  0  0  0
  185.9530  179.1110  141.2250 C   0  0  0  0  0  2  0  0  0  0  0  0
  188.1930  178.0650  141.3290 C   0  0  0  0  0  0  0  0  0  0  0  0
  187.1390  178.4400  140.5830 C   0  0  0  0  0  0  0  0  0  0  0  0
  188.2300  177.4570  138.5660 N   0  0  0  0  0  0  0  0  0  0  0  0
  190.8160  175.7480  143.3890 C   0  0  0  0  0  2  0  0  0  0  0  0
  189.1880  177.6890  143.5470 C   0  0  0  0  0  0  0  0  0  0  0  0
  191.6950  176.9710  143.6160 C   0  0  0  0  0  2  0  0  0  0  0  0
  185.8380  178.0340  138.4800 C   0  0  0  0  0  2  0  0  0  0  0  0
  187.2120  178.4090  139.0560 C   0  0  1  0  0  3  0  0  0  0  0  0
  190.4810  177.1860  141.3620 C   0  0  0  0  0  3  0  0  0  0  0  0
  189.5260  177.7480  139.1780 C   0  0  0  0  0  2  0  0  0  0  0  0
  189.1310  177.8280  145.0350 C   0  0  0  0  0  2  0  0  0  0  0  0
  188.2190  176.9150  145.5650 O   0  0  0  0  0  0  0  0  0  0  0  0
  187.3810  177.6860  146.3690 C   0  0  0  0  0  2  0  0  0  0  0  0
  185.9620  177.6050  145.8420 C   0  0  0  0  0  2  0  0  0  0  0  0
  185.1920  178.8000  146.2790 C   0  0  0  0  0  0  0  0  0  0  0  0
  185.6090  179.5000  147.2370 O   0  0  0  0  0  1  0  0  0  0  0  0
  184.0280  179.1600  145.6130 O   0  0  0  0  0  0  0  0  0  0  0  0
  188.4140  177.6810  137.1330 C   0  0  0  0  0  2  0  0  0  0  0  0
  188.5300  176.3590  136.3690 C   0  0  1  0  0  3  0  0  0  0  0  0
  186.2600  175.3400  135.8640 C   0  0  0  0  0  0  0  0  0  0  0  0
  185.1060  175.2210  134.9340 C   0  0  0  0  0  1  0  0  0  0  0  0
  187.3760  176.1560  135.5010 N   0  0  0  0  0  2  0  0  0  0  0  0
  186.2480  174.6930  136.9820 N   0  0  0  0  0  2  0  0  0  0  0  0
  189.8080  176.3030  135.5410 C   0  0  0  0  0  2  0  0  0  0  0  0
  191.0350  176.1530  136.4280 C   0  0  0  0  0  2  0  0  0  0  0  0
  191.0100  174.8160  137.1460 C   0  0  0  0  0  1  0  0  0  0  0  0
  1  7  1  0  0  0  0
  1 15  2  0  0  0  0
  2  6  1  0  0  0  0
  3  2  1  0  0  0  0
  4 10  1  0  0  0  0
  4 11  1  0  0  0  0
  4 12  1  0  0  0  0
  5 11  2  0  0  0  0
  7  5  1  0  0  0  0
  8  6  1  0  0  0  0
  8  7  2  0  0  0  0
  9 14  1  0  0  0  0
  9 16  1  0  0  0  0
 10 12  1  0  0  0  0
 11 17  1  0  0  0  0
 13  3  1  0  0  0  0
 14 13  1  6  0  0  0
 14  8  1  0  0  0  0
 15  4  1  0  0  0  0
 16  1  1  0  0  0  0
 17 18  1  0  0  0  0
 18 19  1  0  0  0  0
 20 21  1  0  0  0  0
 20 19  1  0  0  0  0
 21 22  1  0  0  0  0
 23 21  2  0  0  0  0
 24  9  1  0  0  0  0
 25 30  1  6  0  0  0
 25 24  1  0  0  0  0
 26 29  2  0  0  0  0
 27 26  1  0  0  0  0
 28 26  1  0  0  0  0
 28 25  1  0  0  0  0
 30 31  1  0  0  0  0
 31 32  1  0  0  0  0
M  END
>  <MODEL>
8

>  <REMARK>
 VINA RESULT:      -7.3      2.538      4.783
  Name = 
  10 active torsions:
  status: ('A' for Active; 'I' for Inactive)
    1  A    between atoms: C_1  and  C_10
    2  A    between atoms: O_2  and  C_12
    3  A    between atoms: O_2  and  C_24
    4  A    between atoms: C_6  and  C_7
    5  A    between atoms: C_7  and  C_32
    6  A    between atoms: C_10  and  C_24
    7  A    between atoms: C_12  and  C_21
    8  A    between atoms: N_16  and  C_27
    9  A    between atoms: N_22  and  C_32
   10  A    between atoms: C_27  and  C_32
                            x       y       z     vdW  Elec       q    Type
                         _______ _______ _______ _____ _____    ______ ____

>  <TORSDO>
F 10

$$$$
=
 OpenBabel10272413333D

 32 35  0  0  1  0  0  0  0  0999 V2000
  188.8490  177.5630  139.5330 C   0  0  0  0  0  0  0  0  0  0  0  0
  191.5150  176.7990  143.5690 C   0  0  0  0  0  2  0  0  0  0  0  0
  190.5940  177.7210  144.3540 C   0  0  0  0  0  2  0  0  0  0  0  0
  189.6160  176.4470  137.4880 C   0  0  0  0  0  0  0  0  0  0  0  0
  191.1750  176.5200  139.3890 C   0  0  0  0  0  3  0  0  0  0  0  0
  191.6480  177.2910  142.1340 C   0  0  0  0  0  2  0  0  0  0  0  0
  190.1170  177.1810  140.1920 C   0  0  0  0  0  0  0  0  0  0  0  0
  190.2950  177.4690  141.4940 C   0  0  0  0  0  0  0  0  0  0  0  0
  187.8690  178.0130  141.6950 N   0  0  0  0  0  0  0  0  0  0  0  0
  188.9980  175.2500  136.8000 C   0  0  0  0  0  2  0  0  0  0  0  0
  190.9630  176.1740  138.1140 C   0  0  0  0  0  0  0  0  0  0  0  0
  189.4850  176.4390  135.9800 C   0  0  0  0  0  2  0  0  0  0  0  0
  189.2020  177.6820  143.7380 C   0  0  0  0  0  2  0  0  0  0  0  0
  189.2090  178.1930  142.2890 C   0  0  1  0  0  3  0  0  0  0  0  0
  188.6160  177.2560  138.2560 C   0  0  0  0  0  3  0  0  0  0  0  0
  187.8860  178.4120  140.2880 C   0  0  0  0  0  2  0  0  0  0  0  0
  192.0790  175.5610  137.3300 C   0  0  0  0  0  2  0  0  0  0  0  0
  192.2660  174.2350  137.7210 O   0  0  0  0  0  0  0  0  0  0  0  0
  193.5020  173.8820  137.1830 C   0  0  0  0  0  2  0  0  0  0  0  0
  194.5610  174.8500  137.6760 C   0  0  0  0  0  2  0  0  0  0  0  0
  195.3260  174.2350  138.7940 C   0  0  0  0  0  0  0  0  0  0  0  0
  195.4290  172.9830  138.8710 O   0  0  0  0  0  0  0  0  0  0  0  0
  195.9510  175.0410  139.7360 O   0  0  0  0  0  1  0  0  0  0  0  0
  186.9480  178.9380  142.3540 C   0  0  0  0  0  2  0  0  0  0  0  0
  185.7300  178.2050  142.9250 C   0  0  1  0  0  3  0  0  0  0  0  0
  185.8690  178.1440  145.4590 C   0  0  0  0  0  0  0  0  0  0  0  0
  185.4980  178.7590  146.7610 C   0  0  0  0  0  1  0  0  0  0  0  0
  185.3830  178.7200  144.2440 N   0  0  0  0  0  2  0  0  0  0  0  0
  186.6130  177.0880  145.4400 N   0  0  0  0  0  2  0  0  0  0  0  0
  184.5250  178.3200  141.9990 C   0  0  0  0  0  2  0  0  0  0  0  0
  183.2900  178.7850  142.7540 C   0  0  0  0  0  2  0  0  0  0  0  0
  182.0780  178.7850  141.8410 C   0  0  0  0  0  1  0  0  0  0  0  0
  1  7  1  0  0  0  0
  1 16  1  0  0  0  0
  2  3  1  0  0  0  0
  4 11  1  0  0  0  0
  4 15  1  0  0  0  0
  5  7  1  0  0  0  0
  6  2  1  0  0  0  0
  7  8  2  0  0  0  0
  8  6  1  0  0  0  0
  8 14  1  0  0  0  0
  9 14  1  0  0  0  0
  9 24  1  0  0  0  0
 10  4  1  0  0  0  0
 11  5  2  0  0  0  0
 12 10  1  0  0  0  0
 12  4  1  0  0  0  0
 13  3  1  0  0  0  0
 14 13  1  1  0  0  0
 15  1  2  0  0  0  0
 16  9  1  0  0  0  0
 17 18  1  0  0  0  0
 17 11  1  0  0  0  0
 19 20  1  0  0  0  0
 19 18  1  0  0  0  0
 20 21  1  0  0  0  0
 21 22  2  0  0  0  0
 21 23  1  0  0  0  0
 24 25  1  0  0  0  0
 25 30  1  6  0  0  0
 25 28  1  0  0  0  0
 26 27  1  0  0  0  0
 28 26  1  0  0  0  0
 29 26  2  0  0  0  0
 30 31  1  0  0  0  0
 32 31  1  0  0  0  0
M  END
>  <MODEL>
9

>  <REMARK>
 VINA RESULT:      -7.2      4.100      7.555
  Name = 
  10 active torsions:
  status: ('A' for Active; 'I' for Inactive)
    1  A    between atoms: C_1  and  C_10
    2  A    between atoms: O_2  and  C_12
    3  A    between atoms: O_2  and  C_24
    4  A    between atoms: C_6  and  C_7
    5  A    between atoms: C_7  and  C_32
    6  A    between atoms: C_10  and  C_24
    7  A    between atoms: C_12  and  C_21
    8  A    between atoms: N_16  and  C_27
    9  A    between atoms: N_22  and  C_32
   10  A    between atoms: C_27  and  C_32
                            x       y       z     vdW  Elec       q    Type
                         _______ _______ _______ _____ _____    ______ ____

>  <TORSDO>
F 10

$$$$
