=
 OpenBabel10272400433D

 25 27  0  0  0  0  0  0  0  0999 V2000
  187.5000  177.8090  145.7850 C   0  0  0  0  0  0  0  0  0  0  0  0
  186.9550  178.0430  144.5060 C   0  0  0  0  0  0  0  0  0  0  0  0
  185.3260  178.2800  146.7460 C   0  0  0  0  0  3  0  0  0  0  0  0
  188.1000  178.0570  141.0110 N   0  0  0  0  0  2  0  0  0  0  0  0
  184.8210  178.5040  145.5050 N   0  0  0  0  0  0  0  0  0  0  0  0
  185.0570  178.6360  143.1190 C   0  0  0  0  0  0  0  0  0  0  0  0
  183.6880  178.9930  142.9610 N   0  0  0  0  0  1  0  0  0  0  0  0
  187.7590  178.2580  139.6300 C   0  0  0  0  0  0  0  0  0  0  0  0
  187.7240  177.9500  143.3850 N   0  0  0  0  0  0  0  0  0  0  0  0
  186.6670  177.9270  146.9050 C   0  0  0  0  0  3  0  0  0  0  0  0
  185.8750  178.5260  141.9940 C   0  0  0  0  0  3  0  0  0  0  0  0
  187.2250  178.1790  142.1400 C   0  0  0  0  0  0  0  0  0  0  0  0
  185.5940  178.3970  144.3900 C   0  0  0  0  0  0  0  0  0  0  0  0
  186.5860  178.5760  139.2970 O   0  0  0  0  0  0  0  0  0  0  0  0
  188.9110  177.4050  145.9690 C   0  0  0  0  0  0  0  0  0  0  0  0
  191.5850  176.5810  146.2380 C   0  0  0  0  0  3  0  0  0  0  0  0
  189.5400  177.4250  147.2340 C   0  0  0  0  0  0  0  0  0  0  0  0
  190.8720  177.0150  147.3570 C   0  0  0  0  0  3  0  0  0  0  0  0
  190.9710  176.5610  144.9860 C   0  0  0  0  0  3  0  0  0  0  0  0
  188.7250  178.0090  148.6790 Cl  0  0  0  0  0  0  0  0  0  0  0  0
  189.6430  176.9700  144.8530 C   0  0  0  0  0  3  0  0  0  0  0  0
  188.8100  178.0870  138.5690 C   0  0  0  0  0  0  0  0  0  0  0  0
  190.1260  177.6840  139.2070 C   0  0  0  0  0  1  0  0  0  0  0  0
  188.3820  177.0090  137.5910 C   0  0  0  0  0  1  0  0  0  0  0  0
  188.9950  179.2810  137.8690 O   0  0  0  0  0  1  0  0  0  0  0  0
  1 15  1  0  0  0  0
  1 10  1  0  0  0  0
  2  1  2  0  0  0  0
  3 10  2  0  0  0  0
  4 12  1  0  0  0  0
  5  3  1  0  0  0  0
  6 13  1  0  0  0  0
  7  6  1  0  0  0  0
  8  4  1  0  0  0  0
  9  2  1  0  0  0  0
 11 12  1  0  0  0  0
 11  6  2  0  0  0  0
 12  9  2  0  0  0  0
 13  2  1  0  0  0  0
 13  5  2  0  0  0  0
 14  8  2  0  0  0  0
 15 17  1  0  0  0  0
 16 18  1  0  0  0  0
 17 18  2  0  0  0  0
 17 20  1  0  0  0  0
 19 16  2  0  0  0  0
 21 19  1  0  0  0  0
 21 15  2  0  0  0  0
 22 23  1  0  0  0  0
 22  8  1  0  0  0  0
 24 22  1  0  0  0  0
 25 22  1  0  0  0  0
M  END
>  <MODEL>
1

>  <REMARK>
 VINA RESULT:     -10.4      0.000      0.000
  Name = 
  2 active torsions:
  status: ('A' for Active; 'I' for Inactive)
    1  A    between atoms: C_1  and  C_5
    2  A    between atoms: C_2  and  C_15
                            x       y       z     vdW  Elec       q    Type
                         _______ _______ _______ _____ _____    ______ ____

>  <TORSDO>
F 2

$$$$
=
 OpenBabel10272400433D

 25 27  0  0  0  0  0  0  0  0999 V2000
  187.2480  177.7320  144.7730 C   0  0  0  0  0  0  0  0  0  0  0  0
  188.2260  177.6420  143.7620 C   0  0  0  0  0  0  0  0  0  0  0  0
  188.9320  177.0980  146.3950 C   0  0  0  0  0  3  0  0  0  0  0  0
  188.4350  178.0770  140.1160 N   0  0  0  0  0  2  0  0  0  0  0  0
  189.8590  177.0130  145.4060 N   0  0  0  0  0  0  0  0  0  0  0  0
  190.5120  177.1760  143.1010 C   0  0  0  0  0  0  0  0  0  0  0  0
  191.8530  176.8100  143.4110 N   0  0  0  0  0  1  0  0  0  0  0  0
  189.2600  178.0370  138.9410 C   0  0  0  0  0  0  0  0  0  0  0  0
  187.9170  177.8880  142.4580 N   0  0  0  0  0  0  0  0  0  0  0  0
  187.6170  177.4590  146.0960 C   0  0  0  0  0  3  0  0  0  0  0  0
  190.1590  177.4410  141.7780 C   0  0  0  0  0  3  0  0  0  0  0  0
  188.8410  177.7990  141.4630 C   0  0  0  0  0  0  0  0  0  0  0  0
  189.5430  177.2730  144.1080 C   0  0  0  0  0  0  0  0  0  0  0  0
  190.4810  177.7340  139.0220 O   0  0  0  0  0  0  0  0  0  0  0  0
  185.8580  178.1440  144.4770 C   0  0  0  0  0  0  0  0  0  0  0  0
  183.2440  178.9400  143.8220 C   0  0  0  0  0  3  0  0  0  0  0  0
  185.0040  178.6770  145.4690 C   0  0  0  0  0  0  0  0  0  0  0  0
  183.7040  179.0690  145.1330 C   0  0  0  0  0  3  0  0  0  0  0  0
  184.0790  178.4120  142.8380 C   0  0  0  0  0  3  0  0  0  0  0  0
  185.4950  178.8190  147.1520 Cl  0  0  0  0  0  0  0  0  0  0  0  0
  185.3780  178.0170  143.1650 C   0  0  0  0  0  3  0  0  0  0  0  0
  188.6650  178.3600  137.5990 C   0  0  0  0  0  0  0  0  0  0  0  0
  189.3580  177.5480  136.5200 C   0  0  0  0  0  1  0  0  0  0  0  0
  187.1850  178.0250  137.5980 C   0  0  0  0  0  1  0  0  0  0  0  0
  188.8190  179.7170  137.3100 O   0  0  0  0  0  1  0  0  0  0  0  0
  1 10  1  0  0  0  0
  2 13  1  0  0  0  0
  2  1  2  0  0  0  0
  4 12  1  0  0  0  0
  5  3  1  0  0  0  0
  6  7  1  0  0  0  0
  6 13  1  0  0  0  0
  8 14  2  0  0  0  0
  8  4  1  0  0  0  0
  9  2  1  0  0  0  0
 10  3  2  0  0  0  0
 11  6  2  0  0  0  0
 12 11  1  0  0  0  0
 12  9  2  0  0  0  0
 13  5  2  0  0  0  0
 15  1  1  0  0  0  0
 15 17  1  0  0  0  0
 16 18  1  0  0  0  0
 17 20  1  0  0  0  0
 18 17  2  0  0  0  0
 19 21  1  0  0  0  0
 19 16  2  0  0  0  0
 21 15  2  0  0  0  0
 22  8  1  0  0  0  0
 23 22  1  0  0  0  0
 24 22  1  0  0  0  0
 25 22  1  0  0  0  0
M  END
>  <MODEL>
2

>  <REMARK>
 VINA RESULT:     -10.4      1.979      4.440
  Name = 
  2 active torsions:
  status: ('A' for Active; 'I' for Inactive)
    1  A    between atoms: C_1  and  C_5
    2  A    between atoms: C_2  and  C_15
                            x       y       z     vdW  Elec       q    Type
                         _______ _______ _______ _____ _____    ______ ____

>  <TORSDO>
F 2

$$$$
=
 OpenBabel10272400433D

 25 27  0  0  0  0  0  0  0  0999 V2000
  188.9260  177.5800  145.1130 C   0  0  0  0  0  0  0  0  0  0  0  0
  187.5610  177.8790  144.9220 C   0  0  0  0  0  0  0  0  0  0  0  0
  188.5550  177.6330  147.5060 C   0  0  0  0  0  3  0  0  0  0  0  0
  185.2560  178.4450  142.1130 N   0  0  0  0  0  2  0  0  0  0  0  0
  187.2440  177.9240  147.3010 N   0  0  0  0  0  0  0  0  0  0  0  0
  185.3760  178.3550  145.8560 C   0  0  0  0  0  0  0  0  0  0  0  0
  184.5030  178.5330  146.9670 N   0  0  0  0  0  1  0  0  0  0  0  0
  183.9170  178.7510  141.6930 C   0  0  0  0  0  0  0  0  0  0  0  0
  187.0390  178.0200  143.6710 N   0  0  0  0  0  0  0  0  0  0  0  0
  189.4130  177.4550  146.4200 C   0  0  0  0  0  3  0  0  0  0  0  0
  184.8760  178.4870  144.5600 C   0  0  0  0  0  3  0  0  0  0  0  0
  185.7280  178.3160  143.4610 C   0  0  0  0  0  0  0  0  0  0  0  0
  186.7290  178.0510  146.0480 C   0  0  0  0  0  0  0  0  0  0  0  0
  183.0040  178.9380  142.5420 O   0  0  0  0  0  0  0  0  0  0  0  0
  189.8420  177.3580  143.9720 C   0  0  0  0  0  0  0  0  0  0  0  0
  191.5690  176.8390  141.8170 C   0  0  0  0  0  3  0  0  0  0  0  0
  190.8340  178.2970  143.6110 C   0  0  0  0  0  0  0  0  0  0  0  0
  191.6870  178.0300  142.5350 C   0  0  0  0  0  3  0  0  0  0  0  0
  190.5900  175.9090  142.1660 C   0  0  0  0  0  3  0  0  0  0  0  0
  191.0090  179.8420  144.4330 Cl  0  0  0  0  0  0  0  0  0  0  0  0
  189.7330  176.1680  143.2370 C   0  0  0  0  0  3  0  0  0  0  0  0
  183.5970  178.8480  140.2270 C   0  0  0  0  0  0  0  0  0  0  0  0
  183.7740  177.4920  139.5710 C   0  0  0  0  0  1  0  0  0  0  0  0
  182.1610  179.3030  140.0440 C   0  0  0  0  0  1  0  0  0  0  0  0
  184.4430  179.7660  139.6030 O   0  0  0  0  0  1  0  0  0  0  0  0
  1 10  1  0  0  0  0
  2  1  2  0  0  0  0
  2 13  1  0  0  0  0
  4 12  1  0  0  0  0
  5  3  1  0  0  0  0
  6 13  1  0  0  0  0
  6  7  1  0  0  0  0
  8  4  1  0  0  0  0
  8 14  2  0  0  0  0
  9  2  1  0  0  0  0
 10  3  2  0  0  0  0
 11  6  2  0  0  0  0
 12  9  2  0  0  0  0
 12 11  1  0  0  0  0
 13  5  2  0  0  0  0
 15  1  1  0  0  0  0
 16 19  2  0  0  0  0
 16 18  1  0  0  0  0
 17 15  1  0  0  0  0
 17 20  1  0  0  0  0
 18 17  2  0  0  0  0
 19 21  1  0  0  0  0
 21 15  2  0  0  0  0
 22  8  1  0  0  0  0
 23 22  1  0  0  0  0
 24 22  1  0  0  0  0
 25 22  1  0  0  0  0
M  END
>  <MODEL>
3

>  <REMARK>
 VINA RESULT:     -10.1      2.579      3.865
  Name = 
  2 active torsions:
  status: ('A' for Active; 'I' for Inactive)
    1  A    between atoms: C_1  and  C_5
    2  A    between atoms: C_2  and  C_15
                            x       y       z     vdW  Elec       q    Type
                         _______ _______ _______ _____ _____    ______ ____

>  <TORSDO>
F 2

$$$$
=
 OpenBabel10272400433D

 25 27  0  0  0  0  0  0  0  0999 V2000
  190.4780  177.0840  145.1820 C   0  0  0  0  0  0  0  0  0  0  0  0
  189.2340  177.3860  145.7710 C   0  0  0  0  0  0  0  0  0  0  0  0
  191.3760  176.6770  147.3950 C   0  0  0  0  0  3  0  0  0  0  0  0
  185.8780  178.4260  144.6860 N   0  0  0  0  0  2  0  0  0  0  0  0
  190.1700  176.9750  147.9440 N   0  0  0  0  0  0  0  0  0  0  0  0
  187.8680  177.6330  147.7590 C   0  0  0  0  0  0  0  0  0  0  0  0
  187.6960  177.5810  149.1720 N   0  0  0  0  0  1  0  0  0  0  0  0
  184.5400  178.7780  145.0710 C   0  0  0  0  0  0  0  0  0  0  0  0
  188.1630  177.7500  145.0110 N   0  0  0  0  0  0  0  0  0  0  0  0
  191.5480  176.7240  146.0100 C   0  0  0  0  0  3  0  0  0  0  0  0
  186.7940  177.9970  146.9470 C   0  0  0  0  0  3  0  0  0  0  0  0
  186.9540  178.0540  145.5570 C   0  0  0  0  0  0  0  0  0  0  0  0
  189.1030  177.3260  147.1750 C   0  0  0  0  0  0  0  0  0  0  0  0
  184.2000  178.7840  146.2860 O   0  0  0  0  0  0  0  0  0  0  0  0
  190.6690  177.1000  143.7150 C   0  0  0  0  0  0  0  0  0  0  0  0
  191.0260  177.0310  140.9280 C   0  0  0  0  0  3  0  0  0  0  0  0
  191.3450  178.1520  143.0550 C   0  0  0  0  0  0  0  0  0  0  0  0
  191.5150  178.1090  141.6680 C   0  0  0  0  0  3  0  0  0  0  0  0
  190.3560  175.9910  141.5710 C   0  0  0  0  0  3  0  0  0  0  0  0
  191.9410  179.5670  143.9120 Cl  0  0  0  0  0  0  0  0  0  0  0  0
  190.1790  176.0260  142.9560 C   0  0  0  0  0  3  0  0  0  0  0  0
  183.5300  179.1440  144.0190 C   0  0  0  0  0  0  0  0  0  0  0  0
  183.9490  178.5650  142.6810 C   0  0  0  0  0  1  0  0  0  0  0  0
  182.1700  178.5870  144.3960 C   0  0  0  0  0  1  0  0  0  0  0  0
  183.4310  180.5310  143.8990 O   0  0  0  0  0  1  0  0  0  0  0  0
  1  2  2  0  0  0  0
  1 10  1  0  0  0  0
  2 13  1  0  0  0  0
  3  5  1  0  0  0  0
  4  8  1  0  0  0  0
  4 12  1  0  0  0  0
  6  7  1  0  0  0  0
  8 14  2  0  0  0  0
  9 12  2  0  0  0  0
  9  2  1  0  0  0  0
 10  3  2  0  0  0  0
 11  6  2  0  0  0  0
 12 11  1  0  0  0  0
 13  6  1  0  0  0  0
 13  5  2  0  0  0  0
 15  1  1  0  0  0  0
 16 19  2  0  0  0  0
 16 18  1  0  0  0  0
 17 15  1  0  0  0  0
 17 20  1  0  0  0  0
 18 17  2  0  0  0  0
 19 21  1  0  0  0  0
 21 15  2  0  0  0  0
 22 24  1  0  0  0  0
 22  8  1  0  0  0  0
 23 22  1  0  0  0  0
 25 22  1  0  0  0  0
M  END
>  <MODEL>
4

>  <REMARK>
 VINA RESULT:      -9.9      3.101      5.630
  Name = 
  2 active torsions:
  status: ('A' for Active; 'I' for Inactive)
    1  A    between atoms: C_1  and  C_5
    2  A    between atoms: C_2  and  C_15
                            x       y       z     vdW  Elec       q    Type
                         _______ _______ _______ _____ _____    ______ ____

>  <TORSDO>
F 2

$$$$
=
 OpenBabel10272400433D

 25 27  0  0  0  0  0  0  0  0999 V2000
  189.3220  177.4400  144.5580 C   0  0  0  0  0  0  0  0  0  0  0  0
  189.0780  177.5800  143.1770 C   0  0  0  0  0  0  0  0  0  0  0  0
  191.6000  176.7930  144.0430 C   0  0  0  0  0  3  0  0  0  0  0  0
  186.2730  178.4820  140.9780 N   0  0  0  0  0  2  0  0  0  0  0  0
  191.3430  176.9300  142.7160 N   0  0  0  0  0  0  0  0  0  0  0  0
  189.8710  177.4460  140.8900 C   0  0  0  0  0  0  0  0  0  0  0  0
  190.8970  177.1890  139.9360 N   0  0  0  0  0  1  0  0  0  0  0  0
  185.8070  178.6760  139.6330 C   0  0  0  0  0  0  0  0  0  0  0  0
  187.8520  177.9510  142.7130 N   0  0  0  0  0  0  0  0  0  0  0  0
  190.5980  177.0470  144.9820 C   0  0  0  0  0  3  0  0  0  0  0  0
  188.6040  177.8330  140.4530 C   0  0  0  0  0  3  0  0  0  0  0  0
  187.5880  178.0850  141.3840 C   0  0  0  0  0  0  0  0  0  0  0  0
  190.1190  177.3130  142.2620 C   0  0  0  0  0  0  0  0  0  0  0  0
  186.5790  178.4970  138.6530 O   0  0  0  0  0  0  0  0  0  0  0  0
  188.2820  177.7340  145.5680 C   0  0  0  0  0  0  0  0  0  0  0  0
  186.2560  178.3460  147.4170 C   0  0  0  0  0  3  0  0  0  0  0  0
  188.5550  177.7260  146.9540 C   0  0  0  0  0  0  0  0  0  0  0  0
  187.5390  178.0300  147.8670 C   0  0  0  0  0  3  0  0  0  0  0  0
  185.9780  178.3530  146.0500 C   0  0  0  0  0  3  0  0  0  0  0  0
  190.1310  177.2860  147.5980 Cl  0  0  0  0  0  0  0  0  0  0  0  0
  186.9850  178.0490  145.1320 C   0  0  0  0  0  3  0  0  0  0  0  0
  184.3850  179.0960  139.3870 C   0  0  0  0  0  0  0  0  0  0  0  0
  183.7990  178.2900  138.2430 C   0  0  0  0  0  1  0  0  0  0  0  0
  183.5550  178.8600  140.6350 C   0  0  0  0  0  1  0  0  0  0  0  0
  184.3270  180.4520  139.0590 O   0  0  0  0  0  1  0  0  0  0  0  0
  1 10  1  0  0  0  0
  1 15  1  0  0  0  0
  2  1  2  0  0  0  0
  3 10  2  0  0  0  0
  4 12  1  0  0  0  0
  5  3  1  0  0  0  0
  6 13  1  0  0  0  0
  7  6  1  0  0  0  0
  8  4  1  0  0  0  0
  9  2  1  0  0  0  0
 11  6  2  0  0  0  0
 11 12  1  0  0  0  0
 12  9  2  0  0  0  0
 13  5  2  0  0  0  0
 13  2  1  0  0  0  0
 14  8  2  0  0  0  0
 15 17  1  0  0  0  0
 16 18  1  0  0  0  0
 17 20  1  0  0  0  0
 17 18  2  0  0  0  0
 19 16  2  0  0  0  0
 21 15  2  0  0  0  0
 21 19  1  0  0  0  0
 22  8  1  0  0  0  0
 22 24  1  0  0  0  0
 23 22  1  0  0  0  0
 25 22  1  0  0  0  0
M  END
>  <MODEL>
5

>  <REMARK>
 VINA RESULT:      -9.7      2.027      4.400
  Name = 
  2 active torsions:
  status: ('A' for Active; 'I' for Inactive)
    1  A    between atoms: C_1  and  C_5
    2  A    between atoms: C_2  and  C_15
                            x       y       z     vdW  Elec       q    Type
                         _______ _______ _______ _____ _____    ______ ____

>  <TORSDO>
F 2

$$$$
=
 OpenBabel10272400433D

 25 27  0  0  0  0  0  0  0  0999 V2000
  186.6770  178.0030  145.3830 C   0  0  0  0  0  0  0  0  0  0  0  0
  186.1300  178.2110  144.1000 C   0  0  0  0  0  0  0  0  0  0  0  0
  184.4870  178.4170  146.3340 C   0  0  0  0  0  3  0  0  0  0  0  0
  187.2840  178.2320  140.6090 N   0  0  0  0  0  2  0  0  0  0  0  0
  183.9800  178.6170  145.0890 N   0  0  0  0  0  0  0  0  0  0  0  0
  184.2200  178.7380  142.7040 C   0  0  0  0  0  0  0  0  0  0  0  0
  182.8400  179.0530  142.5380 N   0  0  0  0  0  1  0  0  0  0  0  0
  186.9420  178.4130  139.2260 C   0  0  0  0  0  0  0  0  0  0  0  0
  186.9050  178.1320  142.9820 N   0  0  0  0  0  0  0  0  0  0  0  0
  185.8380  178.1050  146.4990 C   0  0  0  0  0  3  0  0  0  0  0  0
  185.0430  178.6430  141.5820 C   0  0  0  0  0  3  0  0  0  0  0  0
  186.4020  178.3370  141.7340 C   0  0  0  0  0  0  0  0  0  0  0  0
  184.7590  178.5240  143.9780 C   0  0  0  0  0  0  0  0  0  0  0  0
  185.7610  178.6940  138.8860 O   0  0  0  0  0  0  0  0  0  0  0  0
  188.0990  177.6420  145.5740 C   0  0  0  0  0  0  0  0  0  0  0  0
  190.7950  176.9010  145.8550 C   0  0  0  0  0  3  0  0  0  0  0  0
  188.7150  177.6600  146.8460 C   0  0  0  0  0  0  0  0  0  0  0  0
  190.0580  177.2920  146.9740 C   0  0  0  0  0  3  0  0  0  0  0  0
  190.1950  176.8830  144.5970 C   0  0  0  0  0  3  0  0  0  0  0  0
  187.8670  178.1910  148.2920 Cl  0  0  0  0  0  0  0  0  0  0  0  0
  188.8550  177.2510  144.4580 C   0  0  0  0  0  3  0  0  0  0  0  0
  188.0010  178.2650  138.1680 C   0  0  0  0  0  0  0  0  0  0  0  0
  188.6500  176.8980  138.2780 C   0  0  0  0  0  1  0  0  0  0  0  0
  187.3770  178.4080  136.7930 C   0  0  0  0  0  1  0  0  0  0  0  0
  188.9840  179.2440  138.3210 O   0  0  0  0  0  1  0  0  0  0  0  0
  1 15  1  0  0  0  0
  1 10  1  0  0  0  0
  2  1  2  0  0  0  0
  3 10  2  0  0  0  0
  4 12  1  0  0  0  0
  5  3  1  0  0  0  0
  6 13  1  0  0  0  0
  7  6  1  0  0  0  0
  8  4  1  0  0  0  0
  9  2  1  0  0  0  0
 11 12  1  0  0  0  0
 11  6  2  0  0  0  0
 12  9  2  0  0  0  0
 13  2  1  0  0  0  0
 13  5  2  0  0  0  0
 14  8  2  0  0  0  0
 15 17  1  0  0  0  0
 16 18  1  0  0  0  0
 17 18  2  0  0  0  0
 17 20  1  0  0  0  0
 19 16  2  0  0  0  0
 21 19  1  0  0  0  0
 21 15  2  0  0  0  0
 22 23  1  0  0  0  0
 22 25  1  0  0  0  0
 22  8  1  0  0  0  0
 24 22  1  0  0  0  0
M  END
>  <MODEL>
6

>  <REMARK>
 VINA RESULT:      -9.7      0.909      1.034
  Name = 
  2 active torsions:
  status: ('A' for Active; 'I' for Inactive)
    1  A    between atoms: C_1  and  C_5
    2  A    between atoms: C_2  and  C_15
                            x       y       z     vdW  Elec       q    Type
                         _______ _______ _______ _____ _____    ______ ____

>  <TORSDO>
F 2

$$$$
=
 OpenBabel10272400433D

 25 27  0  0  0  0  0  0  0  0999 V2000
  188.4810  177.7050  144.8980 C   0  0  0  0  0  0  0  0  0  0  0  0
  188.9890  177.6360  143.5850 C   0  0  0  0  0  0  0  0  0  0  0  0
  190.7100  177.2570  145.7350 C   0  0  0  0  0  3  0  0  0  0  0  0
  187.7190  177.9250  140.1460 N   0  0  0  0  0  2  0  0  0  0  0  0
  191.1800  177.1910  144.4610 N   0  0  0  0  0  0  0  0  0  0  0  0
  190.8630  177.2980  142.0840 C   0  0  0  0  0  0  0  0  0  0  0  0
  192.2430  177.0360  141.8460 N   0  0  0  0  0  1  0  0  0  0  0  0
  188.0180  177.8890  138.7420 C   0  0  0  0  0  0  0  0  0  0  0  0
  188.1760  177.8040  142.5050 N   0  0  0  0  0  0  0  0  0  0  0  0
  189.3590  177.5160  145.9720 C   0  0  0  0  0  3  0  0  0  0  0  0
  190.0000  177.4790  141.0030 C   0  0  0  0  0  3  0  0  0  0  0  0
  188.6400  177.7340  141.2270 C   0  0  0  0  0  0  0  0  0  0  0  0
  190.3620  177.3720  143.3890 C   0  0  0  0  0  0  0  0  0  0  0  0
  189.1930  177.6730  138.3400 O   0  0  0  0  0  0  0  0  0  0  0  0
  187.0590  178.0080  145.1680 C   0  0  0  0  0  0  0  0  0  0  0  0
  184.3470  178.6160  145.5870 C   0  0  0  0  0  3  0  0  0  0  0  0
  186.5840  178.2960  146.4680 C   0  0  0  0  0  0  0  0  0  0  0  0
  185.2320  178.5950  146.6660 C   0  0  0  0  0  3  0  0  0  0  0  0
  184.8070  178.3310  144.3020 C   0  0  0  0  0  3  0  0  0  0  0  0
  187.6280  178.2360  147.8820 Cl  0  0  0  0  0  0  0  0  0  0  0  0
  186.1550  178.0290  144.0950 C   0  0  0  0  0  3  0  0  0  0  0  0
  186.9220  178.1120  137.7370 C   0  0  0  0  0  0  0  0  0  0  0  0
  187.4680  178.8600  136.5360 C   0  0  0  0  0  1  0  0  0  0  0  0
  186.3660  176.7770  137.2790 C   0  0  0  0  0  1  0  0  0  0  0  0
  185.8870  178.8600  138.3020 O   0  0  0  0  0  1  0  0  0  0  0  0
  1 15  1  0  0  0  0
  1 10  1  0  0  0  0
  2  1  2  0  0  0  0
  3 10  2  0  0  0  0
  4 12  1  0  0  0  0
  5  3  1  0  0  0  0
  6 13  1  0  0  0  0
  7  6  1  0  0  0  0
  8  4  1  0  0  0  0
  9  2  1  0  0  0  0
 11 12  1  0  0  0  0
 11  6  2  0  0  0  0
 12  9  2  0  0  0  0
 13  2  1  0  0  0  0
 13  5  2  0  0  0  0
 14  8  2  0  0  0  0
 15 17  1  0  0  0  0
 16 18  1  0  0  0  0
 17 18  2  0  0  0  0
 17 20  1  0  0  0  0
 19 16  2  0  0  0  0
 21 19  1  0  0  0  0
 21 15  2  0  0  0  0
 22 25  1  0  0  0  0
 22  8  1  0  0  0  0
 23 22  1  0  0  0  0
 24 22  1  0  0  0  0
M  END
>  <MODEL>
7

>  <REMARK>
 VINA RESULT:      -9.7      1.814      4.291
  Name = 
  2 active torsions:
  status: ('A' for Active; 'I' for Inactive)
    1  A    between atoms: C_1  and  C_5
    2  A    between atoms: C_2  and  C_15
                            x       y       z     vdW  Elec       q    Type
                         _______ _______ _______ _____ _____    ______ ____

>  <TORSDO>
F 2

$$$$
=
 OpenBabel10272400433D

 25 27  0  0  0  0  0  0  0  0999 V2000
  183.6220  178.4020  141.7800 C   0  0  0  0  0  0  0  0  0  0  0  0
  184.5560  178.2890  142.8290 C   0  0  0  0  0  0  0  0  0  0  0  0
  181.9670  179.1280  143.3930 C   0  0  0  0  0  3  0  0  0  0  0  0
  188.0710  177.2970  143.2620 N   0  0  0  0  0  2  0  0  0  0  0  0
  182.8810  179.0090  144.3910 N   0  0  0  0  0  0  0  0  0  0  0  0
  185.0830  178.4800  145.1880 C   0  0  0  0  0  0  0  0  0  0  0  0
  184.7180  178.7880  146.5300 N   0  0  0  0  0  1  0  0  0  0  0  0
  189.1680  177.1040  144.1690 C   0  0  0  0  0  0  0  0  0  0  0  0
  185.8310  177.8680  142.5950 N   0  0  0  0  0  0  0  0  0  0  0  0
  182.3220  178.8300  142.0760 C   0  0  0  0  0  3  0  0  0  0  0  0
  186.3810  178.0510  144.9090 C   0  0  0  0  0  3  0  0  0  0  0  0
  186.7490  177.7430  143.5930 C   0  0  0  0  0  0  0  0  0  0  0  0
  184.1550  178.6000  144.1460 C   0  0  0  0  0  0  0  0  0  0  0  0
  189.0310  177.3320  145.4020 O   0  0  0  0  0  0  0  0  0  0  0  0
  183.9910  178.1190  140.3750 C   0  0  0  0  0  0  0  0  0  0  0  0
  184.7290  177.6730  137.7000 C   0  0  0  0  0  3  0  0  0  0  0  0
  183.2960  177.1700  139.5920 C   0  0  0  0  0  0  0  0  0  0  0  0
  183.6730  176.9540  138.2620 C   0  0  0  0  0  3  0  0  0  0  0  0
  185.4210  178.6100  138.4680 C   0  0  0  0  0  3  0  0  0  0  0  0
  181.9920  176.1880  140.2450 Cl  0  0  0  0  0  0  0  0  0  0  0  0
  185.0530  178.8310  139.7960 C   0  0  0  0  0  3  0  0  0  0  0  0
  190.4950  176.6280  143.6480 C   0  0  0  0  0  0  0  0  0  0  0  0
  191.0710  177.6550  142.6920 C   0  0  0  0  0  1  0  0  0  0  0  0
  191.4590  176.4290  144.8020 C   0  0  0  0  0  1  0  0  0  0  0  0
  190.3460  175.4160  142.9710 O   0  0  0  0  0  1  0  0  0  0  0  0
  1 10  2  0  0  0  0
  1  2  1  0  0  0  0
  2 13  2  0  0  0  0
  3  5  2  0  0  0  0
  4 12  1  0  0  0  0
  4  8  1  0  0  0  0
  6  7  1  0  0  0  0
  8 14  2  0  0  0  0
  9  2  1  0  0  0  0
  9 12  2  0  0  0  0
 10  3  1  0  0  0  0
 11  6  2  0  0  0  0
 12 11  1  0  0  0  0
 13  5  1  0  0  0  0
 13  6  1  0  0  0  0
 15  1  1  0  0  0  0
 16 18  2  0  0  0  0
 16 19  1  0  0  0  0
 17 20  1  0  0  0  0
 17 15  2  0  0  0  0
 18 17  1  0  0  0  0
 19 21  2  0  0  0  0
 21 15  1  0  0  0  0
 22  8  1  0  0  0  0
 22 24  1  0  0  0  0
 23 22  1  0  0  0  0
 25 22  1  0  0  0  0
M  END
>  <MODEL>
8

>  <REMARK>
 VINA RESULT:      -9.6      3.544      6.409
  Name = 
  2 active torsions:
  status: ('A' for Active; 'I' for Inactive)
    1  A    between atoms: C_1  and  C_5
    2  A    between atoms: C_2  and  C_15
                            x       y       z     vdW  Elec       q    Type
                         _______ _______ _______ _____ _____    ______ ____

>  <TORSDO>
F 2

$$$$
=
 OpenBabel10272400433D

 25 27  0  0  0  0  0  0  0  0999 V2000
  188.2600  177.8210  143.5690 C   0  0  0  0  0  0  0  0  0  0  0  0
  186.8950  178.0390  143.8440 C   0  0  0  0  0  0  0  0  0  0  0  0
  188.6870  177.7840  145.9540 C   0  0  0  0  0  3  0  0  0  0  0  0
  183.7750  178.5390  141.9620 N   0  0  0  0  0  2  0  0  0  0  0  0
  187.3680  177.9980  146.1970 N   0  0  0  0  0  0  0  0  0  0  0  0
  185.1120  178.3510  145.4570 C   0  0  0  0  0  0  0  0  0  0  0  0
  184.6410  178.4430  146.7980 N   0  0  0  0  0  1  0  0  0  0  0  0
  182.3590  178.7720  142.0130 C   0  0  0  0  0  0  0  0  0  0  0  0
  185.9880  178.1830  142.8380 N   0  0  0  0  0  0  0  0  0  0  0  0
  189.1520  177.6900  144.6400 C   0  0  0  0  0  3  0  0  0  0  0  0
  184.2120  178.4880  144.4000 C   0  0  0  0  0  3  0  0  0  0  0  0
  184.6660  178.4020  143.0770 C   0  0  0  0  0  0  0  0  0  0  0  0
  186.4680  178.1270  145.1860 C   0  0  0  0  0  0  0  0  0  0  0  0
  181.7640  178.8780  143.1190 O   0  0  0  0  0  0  0  0  0  0  0  0
  188.7640  177.6890  142.1840 C   0  0  0  0  0  0  0  0  0  0  0  0
  189.6400  177.4810  139.5220 C   0  0  0  0  0  3  0  0  0  0  0  0
  189.6890  176.6860  141.8130 C   0  0  0  0  0  0  0  0  0  0  0  0
  190.1200  176.5930  140.4860 C   0  0  0  0  0  3  0  0  0  0  0  0
  188.7300  178.4750  139.8810 C   0  0  0  0  0  3  0  0  0  0  0  0
  190.3780  175.5660  142.9810 Cl  0  0  0  0  0  0  0  0  0  0  0  0
  188.2960  178.5770  141.2050 C   0  0  0  0  0  3  0  0  0  0  0  0
  181.5740  178.8900  140.7360 C   0  0  0  0  0  0  0  0  0  0  0  0
  182.5070  179.2250  139.5880 C   0  0  0  0  0  1  0  0  0  0  0  0
  180.8740  177.5770  140.4400 C   0  0  0  0  0  1  0  0  0  0  0  0
  180.6140  179.8970  140.8450 O   0  0  0  0  0  1  0  0  0  0  0  0
  1  2  2  0  0  0  0
  1 10  1  0  0  0  0
  2 13  1  0  0  0  0
  3  5  1  0  0  0  0
  4  8  1  0  0  0  0
  4 12  1  0  0  0  0
  6  7  1  0  0  0  0
  8 14  2  0  0  0  0
  9 12  2  0  0  0  0
  9  2  1  0  0  0  0
 10  3  2  0  0  0  0
 11  6  2  0  0  0  0
 12 11  1  0  0  0  0
 13  6  1  0  0  0  0
 13  5  2  0  0  0  0
 15  1  1  0  0  0  0
 16 19  2  0  0  0  0
 16 18  1  0  0  0  0
 17 15  1  0  0  0  0
 17 20  1  0  0  0  0
 18 17  2  0  0  0  0
 19 21  1  0  0  0  0
 21 15  2  0  0  0  0
 22 25  1  0  0  0  0
 22  8  1  0  0  0  0
 23 22  1  0  0  0  0
 24 22  1  0  0  0  0
M  END
>  <MODEL>
9

>  <REMARK>
 VINA RESULT:      -9.5      3.017      5.177
  Name = 
  2 active torsions:
  status: ('A' for Active; 'I' for Inactive)
    1  A    between atoms: C_1  and  C_5
    2  A    between atoms: C_2  and  C_15
                            x       y       z     vdW  Elec       q    Type
                         _______ _______ _______ _____ _____    ______ ____

>  <TORSDO>
F 2

$$$$
