=
 OpenBabel10272400483D

 25 29  0  0  1  0  0  0  0  0999 V2000
  186.8210  177.9490  144.8410 C   0  0  0  0  0  0  0  0  0  0  0  0
  187.9820  177.6200  144.1250 C   0  0  0  0  0  0  0  0  0  0  0  0
  188.0040  177.5970  146.9310 C   0  0  0  0  0  3  0  0  0  0  0  0
  185.5600  178.3120  144.3410 C   0  0  0  0  0  0  0  0  0  0  0  0
  182.9410  179.0660  143.7300 C   0  0  0  0  0  3  0  0  0  0  0  0
  189.1260  177.2810  146.2240 N   0  0  0  0  0  0  0  0  0  0  0  0
  184.6360  178.5710  145.3520 C   0  0  0  0  0  0  0  0  0  0  0  0
  183.3250  178.9470  145.0750 C   0  0  0  0  0  3  0  0  0  0  0  0
  190.3020  176.9560  144.1400 C   0  0  0  0  0  0  0  0  0  0  0  0
  191.5650  176.5900  144.8400 C   0  0  0  0  0  1  0  0  0  0  0  0
  188.0130  177.6200  142.7680 N   0  0  0  0  0  0  0  0  0  0  0  0
  183.8640  178.8070  142.7000 C   0  0  0  0  0  3  0  0  0  0  0  0
  186.8480  177.9320  146.2320 C   0  0  0  0  0  0  0  0  0  0  0  0
  185.3450  178.3590  146.8670 S   0  0  0  0  0  0  0  0  0  0  0  0
  190.2770  176.9720  142.7810 N   0  0  0  0  0  0  0  0  0  0  0  0
  185.1820  178.4290  142.9990 C   0  0  0  0  0  3  0  0  0  0  0  0
  189.1500  177.2990  142.0910 C   0  0  0  0  0  0  0  0  0  0  0  0
  189.1440  177.2840  144.8560 C   0  0  0  0  0  0  0  0  0  0  0  0
  189.9690  177.6110  138.2780 C   0  0  1  0  0  3  0  0  0  0  0  0
  189.1640  177.3020  140.6200 C   0  0  2  0  0  3  0  0  0  0  0  0
  190.4940  176.5700  139.6740 S   0  0  0  0  0  0  0  0  0  0  0  0
  190.3320  176.9700  136.9500 C   0  0  0  0  0  1  0  0  0  0  0  0
  188.2410  177.9210  139.9000 C   0  0  0  0  0  2  0  0  0  0  0  0
  188.4700  177.8710  138.4340 C   0  0  2  0  0  3  0  0  0  0  0  0
  187.7210  176.8180  137.8980 O   0  0  0  0  0  1  0  0  0  0  0  0
  1 13  1  0  0  0  0
  2  1  2  0  0  0  0
  2 18  1  0  0  0  0
  4  1  1  0  0  0  0
  4  7  1  0  0  0  0
  5  8  1  0  0  0  0
  6  3  1  0  0  0  0
  7 14  1  0  0  0  0
  8  7  2  0  0  0  0
  9 10  1  0  0  0  0
  9 18  1  0  0  0  0
 11  2  1  0  0  0  0
 12 16  1  0  0  0  0
 12  5  2  0  0  0  0
 13 14  1  0  0  0  0
 13  3  2  0  0  0  0
 15  9  2  0  0  0  0
 16  4  2  0  0  0  0
 17 11  2  0  0  0  0
 17 15  1  0  0  0  0
 18  6  2  0  0  0  0
 19 22  1  6  0  0  0
 19 24  1  0  0  0  0
 19 21  1  0  0  0  0
 20 17  1  1  0  0  0
 21 20  1  0  0  0  0
 23 20  1  0  0  0  0
 24 25  1  1  0  0  0
 24 23  1  0  0  0  0
M  END
>  <MODEL>
1

>  <REMARK>
 VINA RESULT:     -10.2      0.000      0.000
  Name = 
  1 active torsions:
  status: ('A' for Active; 'I' for Inactive)
    1  A    between atoms: C_6  and  C_23
                            x       y       z     vdW  Elec       q    Type
                         _______ _______ _______ _____ _____    ______ ____

>  <TORSDO>
F 1

$$$$
=
 OpenBabel10272400483D

 25 29  0  0  1  0  0  0  0  0999 V2000
  187.5930  177.8140  145.5370 C   0  0  0  0  0  0  0  0  0  0  0  0
  186.7720  178.1430  144.4480 C   0  0  0  0  0  0  0  0  0  0  0  0
  185.7500  178.2320  147.0590 C   0  0  0  0  0  3  0  0  0  0  0  0
  188.9410  177.4200  145.5270 C   0  0  0  0  0  0  0  0  0  0  0  0
  191.5880  176.6140  145.9060 C   0  0  0  0  0  3  0  0  0  0  0  0
  184.9620  178.5480  145.9930 N   0  0  0  0  0  0  0  0  0  0  0  0
  189.4360  177.1710  146.8060 C   0  0  0  0  0  0  0  0  0  0  0  0
  190.7520  176.7690  147.0220 C   0  0  0  0  0  3  0  0  0  0  0  0
  184.6150  178.8420  143.6210 C   0  0  0  0  0  0  0  0  0  0  0  0
  183.1940  179.2430  143.8170 C   0  0  0  0  0  1  0  0  0  0  0  0
  187.2280  178.1120  143.1690 N   0  0  0  0  0  0  0  0  0  0  0  0
  191.1000  176.8610  144.6090 C   0  0  0  0  0  3  0  0  0  0  0  0
  187.0710  177.8640  146.8260 C   0  0  0  0  0  0  0  0  0  0  0  0
  188.2380  177.4290  147.9630 S   0  0  0  0  0  0  0  0  0  0  0  0
  185.1240  178.7940  142.3610 N   0  0  0  0  0  0  0  0  0  0  0  0
  189.7710  177.2670  144.4110 C   0  0  0  0  0  3  0  0  0  0  0  0
  186.4150  178.4340  142.1260 C   0  0  0  0  0  0  0  0  0  0  0  0
  185.4330  178.5140  144.7090 C   0  0  0  0  0  0  0  0  0  0  0  0
  187.1600  177.7720  138.3420 C   0  0  1  0  0  3  0  0  0  0  0  0
  186.9280  178.3970  140.7470 C   0  0  2  0  0  3  0  0  0  0  0  0
  185.8610  178.5830  139.3240 S   0  0  0  0  0  0  0  0  0  0  0  0
  187.1040  178.2140  136.8890 C   0  0  0  0  0  1  0  0  0  0  0  0
  188.1960  178.1370  140.4650 C   0  0  0  0  0  2  0  0  0  0  0  0
  188.5010  178.0720  139.0130 C   0  0  2  0  0  3  0  0  0  0  0  0
  189.0000  179.3140  138.6040 O   0  0  0  0  0  1  0  0  0  0  0  0
  1 13  2  0  0  0  0
  2 18  2  0  0  0  0
  2  1  1  0  0  0  0
  4  1  1  0  0  0  0
  4  7  1  0  0  0  0
  5  8  1  0  0  0  0
  6  3  2  0  0  0  0
  7  8  2  0  0  0  0
  7 14  1  0  0  0  0
  9 10  1  0  0  0  0
  9 18  1  0  0  0  0
 11  2  1  0  0  0  0
 12  5  2  0  0  0  0
 13  3  1  0  0  0  0
 13 14  1  0  0  0  0
 15  9  2  0  0  0  0
 16 12  1  0  0  0  0
 16  4  2  0  0  0  0
 17 15  1  0  0  0  0
 17 11  2  0  0  0  0
 18  6  1  0  0  0  0
 19 22  1  6  0  0  0
 19 24  1  0  0  0  0
 19 21  1  0  0  0  0
 20 17  1  1  0  0  0
 21 20  1  0  0  0  0
 23 20  1  0  0  0  0
 24 25  1  6  0  0  0
 24 23  1  0  0  0  0
M  END
>  <MODEL>
2

>  <REMARK>
 VINA RESULT:     -10.2      2.011      4.659
  Name = 
  1 active torsions:
  status: ('A' for Active; 'I' for Inactive)
    1  A    between atoms: C_6  and  C_23
                            x       y       z     vdW  Elec       q    Type
                         _______ _______ _______ _____ _____    ______ ____

>  <TORSDO>
F 1

$$$$
=
 OpenBabel10272400483D

 25 29  0  0  1  0  0  0  0  0999 V2000
  186.3640  178.3080  144.4590 C   0  0  0  0  0  0  0  0  0  0  0  0
  186.4860  178.3580  143.0630 C   0  0  0  0  0  0  0  0  0  0  0  0
  184.0910  179.1430  144.2960 C   0  0  0  0  0  3  0  0  0  0  0  0
  187.3190  177.8990  145.4050 C   0  0  0  0  0  0  0  0  0  0  0  0
  188.9370  177.1690  147.5610 C   0  0  0  0  0  3  0  0  0  0  0  0
  184.2210  179.1860  142.9400 N   0  0  0  0  0  0  0  0  0  0  0  0
  186.8460  177.9830  146.7140 C   0  0  0  0  0  0  0  0  0  0  0  0
  187.6330  177.6250  147.8060 C   0  0  0  0  0  3  0  0  0  0  0  0
  185.5000  178.8590  140.9170 C   0  0  0  0  0  0  0  0  0  0  0  0
  184.3750  179.3250  140.0590 C   0  0  0  0  0  1  0  0  0  0  0  0
  187.6270  177.9870  142.4270 N   0  0  0  0  0  0  0  0  0  0  0  0
  189.4260  177.0800  146.2440 C   0  0  0  0  0  3  0  0  0  0  0  0
  185.1700  178.7010  145.0550 C   0  0  0  0  0  0  0  0  0  0  0  0
  185.2610  178.5560  146.7340 S   0  0  0  0  0  0  0  0  0  0  0  0
  186.6660  178.4760  140.3330 N   0  0  0  0  0  0  0  0  0  0  0  0
  188.6180  177.4450  145.1560 C   0  0  0  0  0  3  0  0  0  0  0  0
  187.7250  178.0420  141.0700 C   0  0  0  0  0  0  0  0  0  0  0  0
  185.3770  178.8100  142.3110 C   0  0  0  0  0  0  0  0  0  0  0  0
  190.5160  176.5460  138.7710 C   0  0  1  0  0  3  0  0  0  0  0  0
  188.9700  177.6380  140.3990 C   0  0  2  0  0  3  0  0  0  0  0  0
  189.2000  177.7950  138.6330 S   0  0  0  0  0  0  0  0  0  0  0  0
  191.5500  176.7150  137.6710 C   0  0  0  0  0  1  0  0  0  0  0  0
  189.9690  177.0510  141.0420 C   0  0  0  0  0  2  0  0  0  0  0  0
  191.1080  176.6530  140.1770 C   0  0  2  0  0  3  0  0  0  0  0  0
  192.0850  177.6530  140.2340 O   0  0  0  0  0  1  0  0  0  0  0  0
  1 13  2  0  0  0  0
  1  4  1  0  0  0  0
  2  1  1  0  0  0  0
  3 13  1  0  0  0  0
  4  7  1  0  0  0  0
  5  8  1  0  0  0  0
  6  3  2  0  0  0  0
  7 14  1  0  0  0  0
  7  8  2  0  0  0  0
  9 18  1  0  0  0  0
 10  9  1  0  0  0  0
 11  2  1  0  0  0  0
 12  5  2  0  0  0  0
 13 14  1  0  0  0  0
 15  9  2  0  0  0  0
 15 17  1  0  0  0  0
 16  4  2  0  0  0  0
 16 12  1  0  0  0  0
 17 11  2  0  0  0  0
 18  6  1  0  0  0  0
 18  2  2  0  0  0  0
 19 22  1  6  0  0  0
 19 24  1  0  0  0  0
 20 23  1  0  0  0  0
 20 17  1  6  0  0  0
 21 19  1  0  0  0  0
 21 20  1  0  0  0  0
 24 25  1  6  0  0  0
 24 23  1  0  0  0  0
M  END
>  <MODEL>
3

>  <REMARK>
 VINA RESULT:      -9.9      1.880      4.229
  Name = 
  1 active torsions:
  status: ('A' for Active; 'I' for Inactive)
    1  A    between atoms: C_6  and  C_23
                            x       y       z     vdW  Elec       q    Type
                         _______ _______ _______ _____ _____    ______ ____

>  <TORSDO>
F 1

$$$$
=
 OpenBabel10272400483D

 25 29  0  0  1  0  0  0  0  0999 V2000
  187.0200  177.9170  145.2960 C   0  0  0  0  0  0  0  0  0  0  0  0
  188.3420  177.5700  144.9820 C   0  0  0  0  0  0  0  0  0  0  0  0
  187.5330  177.7550  147.6630 C   0  0  0  0  0  3  0  0  0  0  0  0
  185.9610  178.2060  144.4190 C   0  0  0  0  0  0  0  0  0  0  0  0
  183.6370  178.8370  143.0070 C   0  0  0  0  0  3  0  0  0  0  0  0
  188.8150  177.4190  147.3450 N   0  0  0  0  0  0  0  0  0  0  0  0
  184.7780  178.5120  145.0900 C   0  0  0  0  0  0  0  0  0  0  0  0
  183.6060  178.8300  144.4090 C   0  0  0  0  0  3  0  0  0  0  0  0
  190.5580  176.9750  145.7330 C   0  0  0  0  0  0  0  0  0  0  0  0
  191.5590  176.6980  146.8010 C   0  0  0  0  0  1  0  0  0  0  0  0
  188.7740  177.4690  143.6990 N   0  0  0  0  0  0  0  0  0  0  0  0
  184.8240  178.5290  142.3170 C   0  0  0  0  0  3  0  0  0  0  0  0
  186.6340  178.0040  146.6300 C   0  0  0  0  0  0  0  0  0  0  0  0
  185.0080  178.4340  146.7580 S   0  0  0  0  0  0  0  0  0  0  0  0
  190.9360  176.8890  144.4300 N   0  0  0  0  0  0  0  0  0  0  0  0
  185.9970  178.2120  143.0210 C   0  0  0  0  0  3  0  0  0  0  0  0
  190.0620  177.1320  143.4150 C   0  0  0  0  0  0  0  0  0  0  0  0
  189.2380  177.3210  146.0470 C   0  0  0  0  0  0  0  0  0  0  0  0
  191.7790  177.4760  139.9160 C   0  0  1  0  0  3  0  0  0  0  0  0
  190.5100  177.0260  142.0180 C   0  0  2  0  0  3  0  0  0  0  0  0
  192.2380  176.8880  141.5750 S   0  0  0  0  0  0  0  0  0  0  0  0
  192.7470  176.9600  138.8650 C   0  0  0  0  0  1  0  0  0  0  0  0
  189.6760  177.1130  140.9930 C   0  0  0  0  0  2  0  0  0  0  0  0
  190.3310  177.0560  139.6610 C   0  0  2  0  0  3  0  0  0  0  0  0
  190.2670  175.7410  139.1860 O   0  0  0  0  0  1  0  0  0  0  0  0
  1 13  1  0  0  0  0
  2  1  2  0  0  0  0
  2 18  1  0  0  0  0
  4  7  1  0  0  0  0
  4  1  1  0  0  0  0
  5  8  1  0  0  0  0
  6  3  1  0  0  0  0
  7 14  1  0  0  0  0
  8  7  2  0  0  0  0
  9 18  1  0  0  0  0
  9 10  1  0  0  0  0
 11  2  1  0  0  0  0
 12  5  2  0  0  0  0
 12 16  1  0  0  0  0
 13 14  1  0  0  0  0
 13  3  2  0  0  0  0
 15  9  2  0  0  0  0
 16  4  2  0  0  0  0
 17 11  2  0  0  0  0
 17 15  1  0  0  0  0
 18  6  2  0  0  0  0
 19 22  1  6  0  0  0
 19 21  1  0  0  0  0
 20 17  1  1  0  0  0
 21 20  1  0  0  0  0
 23 20  1  0  0  0  0
 24 25  1  1  0  0  0
 24 19  1  0  0  0  0
 24 23  1  0  0  0  0
M  END
>  <MODEL>
4

>  <REMARK>
 VINA RESULT:      -9.7      1.462      1.642
  Name = 
  1 active torsions:
  status: ('A' for Active; 'I' for Inactive)
    1  A    between atoms: C_6  and  C_23
                            x       y       z     vdW  Elec       q    Type
                         _______ _______ _______ _____ _____    ______ ____

>  <TORSDO>
F 1

$$$$
=
 OpenBabel10272400483D

 25 29  0  0  1  0  0  0  0  0999 V2000
  189.3440  177.4340  144.4920 C   0  0  0  0  0  0  0  0  0  0  0  0
  189.0420  177.5560  143.1280 C   0  0  0  0  0  0  0  0  0  0  0  0
  191.6180  176.7910  143.9370 C   0  0  0  0  0  3  0  0  0  0  0  0
  188.5020  177.6500  145.5950 C   0  0  0  0  0  0  0  0  0  0  0  0
  187.1460  177.9800  148.0140 C   0  0  0  0  0  3  0  0  0  0  0  0
  191.3130  176.9130  142.6140 N   0  0  0  0  0  0  0  0  0  0  0  0
  189.1480  177.4330  146.8120 C   0  0  0  0  0  0  0  0  0  0  0  0
  188.4940  177.5900  148.0310 C   0  0  0  0  0  3  0  0  0  0  0  0
  189.7620  177.4070  140.8290 C   0  0  0  0  0  0  0  0  0  0  0  0
  190.7880  177.1360  139.7820 C   0  0  0  0  0  1  0  0  0  0  0  0
  187.8090  177.9230  142.6940 N   0  0  0  0  0  0  0  0  0  0  0  0
  186.4830  178.2030  146.7930 C   0  0  0  0  0  3  0  0  0  0  0  0
  190.6260  177.0540  144.8770 C   0  0  0  0  0  0  0  0  0  0  0  0
  190.7500  176.9760  146.5570 S   0  0  0  0  0  0  0  0  0  0  0  0
  188.5110  177.7780  140.4510 N   0  0  0  0  0  0  0  0  0  0  0  0
  187.1590  178.0380  145.5730 C   0  0  0  0  0  3  0  0  0  0  0  0
  187.5360  178.0370  141.3660 C   0  0  0  0  0  0  0  0  0  0  0  0
  190.0650  177.2850  142.1900 C   0  0  0  0  0  0  0  0  0  0  0  0
  183.7130  178.4340  140.6310 C   0  0  1  0  0  3  0  0  0  0  0  0
  186.1930  178.4340  140.9150 C   0  0  2  0  0  3  0  0  0  0  0  0
  184.8290  178.6570  142.0510 S   0  0  0  0  0  0  0  0  0  0  0  0
  182.3950  179.1560  140.8520 C   0  0  0  0  0  1  0  0  0  0  0  0
  185.8810  178.5680  139.6350 C   0  0  0  0  0  2  0  0  0  0  0  0
  184.4580  178.9030  139.3810 C   0  0  2  0  0  3  0  0  0  0  0  0
  184.3440  180.2880  139.2210 O   0  0  0  0  0  1  0  0  0  0  0  0
  1 13  2  0  0  0  0
  1  4  1  0  0  0  0
  2  1  1  0  0  0  0
  3 13  1  0  0  0  0
  4  7  1  0  0  0  0
  5  8  1  0  0  0  0
  6  3  2  0  0  0  0
  7  8  2  0  0  0  0
  9 18  1  0  0  0  0
 10  9  1  0  0  0  0
 11  2  1  0  0  0  0
 12  5  2  0  0  0  0
 13 14  1  0  0  0  0
 14  7  1  0  0  0  0
 15  9  2  0  0  0  0
 15 17  1  0  0  0  0
 16  4  2  0  0  0  0
 16 12  1  0  0  0  0
 17 11  2  0  0  0  0
 18  6  1  0  0  0  0
 18  2  2  0  0  0  0
 19 22  1  1  0  0  0
 19 21  1  0  0  0  0
 20 17  1  6  0  0  0
 20 21  1  0  0  0  0
 23 20  1  0  0  0  0
 24 25  1  1  0  0  0
 24 23  1  0  0  0  0
 24 19  1  0  0  0  0
M  END
>  <MODEL>
5

>  <REMARK>
 VINA RESULT:      -9.7      2.665      4.605
  Name = 
  1 active torsions:
  status: ('A' for Active; 'I' for Inactive)
    1  A    between atoms: C_6  and  C_23
                            x       y       z     vdW  Elec       q    Type
                         _______ _______ _______ _____ _____    ______ ____

>  <TORSDO>
F 1

$$$$
=
 OpenBabel10272400483D

 25 29  0  0  1  0  0  0  0  0999 V2000
  186.2350  178.3440  142.1080 C   0  0  0  0  0  0  0  0  0  0  0  0
  187.5760  177.9910  142.3210 C   0  0  0  0  0  0  0  0  0  0  0  0
  186.6390  178.4510  139.7170 C   0  0  0  0  0  3  0  0  0  0  0  0
  185.2160  178.5160  143.0580 C   0  0  0  0  0  0  0  0  0  0  0  0
  182.9510  178.9450  144.6350 C   0  0  0  0  0  3  0  0  0  0  0  0
  187.9390  178.1070  139.9370 N   0  0  0  0  0  0  0  0  0  0  0  0
  183.9980  178.8700  142.4790 C   0  0  0  0  0  0  0  0  0  0  0  0
  182.8550  179.0900  143.2430 C   0  0  0  0  0  3  0  0  0  0  0  0
  189.7620  177.5240  141.4110 C   0  0  0  0  0  0  0  0  0  0  0  0
  190.7160  177.3850  140.2740 C   0  0  0  0  0  1  0  0  0  0  0  0
  188.0690  177.7600  143.5650 N   0  0  0  0  0  0  0  0  0  0  0  0
  184.1750  178.5880  145.2320 C   0  0  0  0  0  3  0  0  0  0  0  0
  185.7860  178.5690  140.8100 C   0  0  0  0  0  0  0  0  0  0  0  0
  184.1500  178.9770  140.8030 S   0  0  0  0  0  0  0  0  0  0  0  0
  190.2030  177.3050  142.6770 N   0  0  0  0  0  0  0  0  0  0  0  0
  185.3170  178.3710  144.4450 C   0  0  0  0  0  3  0  0  0  0  0  0
  189.3730  177.4180  143.7510 C   0  0  0  0  0  0  0  0  0  0  0  0
  188.4240  177.8770  141.1960 C   0  0  0  0  0  0  0  0  0  0  0  0
  191.1160  176.0990  146.9970 C   0  0  1  0  0  3  0  0  0  0  0  0
  189.8900  177.1740  145.1070 C   0  0  2  0  0  3  0  0  0  0  0  0
  191.6230  176.8750  145.4310 S   0  0  0  0  0  0  0  0  0  0  0  0
  192.2140  176.2070  148.0420 C   0  0  0  0  0  1  0  0  0  0  0  0
  189.0980  177.0710  146.1640 C   0  0  0  0  0  2  0  0  0  0  0  0
  189.8030  176.7510  147.4310 C   0  0  2  0  0  3  0  0  0  0  0  0
  190.0400  177.9410  148.1260 O   0  0  0  0  0  1  0  0  0  0  0  0
  1  2  1  0  0  0  0
  1  4  1  0  0  0  0
  2 11  1  0  0  0  0
  3  6  2  0  0  0  0
  3 13  1  0  0  0  0
  4 16  1  0  0  0  0
  5 12  1  0  0  0  0
  6 18  1  0  0  0  0
  7  4  2  0  0  0  0
  7  8  1  0  0  0  0
  8  5  2  0  0  0  0
  9 15  2  0  0  0  0
 10  9  1  0  0  0  0
 11 17  2  0  0  0  0
 13  1  2  0  0  0  0
 14 13  1  0  0  0  0
 14  7  1  0  0  0  0
 15 17  1  0  0  0  0
 16 12  2  0  0  0  0
 18  9  1  0  0  0  0
 18  2  2  0  0  0  0
 19 24  1  0  0  0  0
 19 22  1  1  0  0  0
 20 17  1  6  0  0  0
 20 21  1  0  0  0  0
 20 23  1  0  0  0  0
 21 19  1  0  0  0  0
 23 24  1  0  0  0  0
 24 25  1  6  0  0  0
M  END
>  <MODEL>
6

>  <REMARK>
 VINA RESULT:      -9.5      3.079      5.466
  Name = 
  1 active torsions:
  status: ('A' for Active; 'I' for Inactive)
    1  A    between atoms: C_6  and  C_23
                            x       y       z     vdW  Elec       q    Type
                         _______ _______ _______ _____ _____    ______ ____

>  <TORSDO>
F 1

$$$$
=
 OpenBabel10272400483D

 25 29  0  0  1  0  0  0  0  0999 V2000
  189.1390  177.6140  144.0530 C   0  0  0  0  0  0  0  0  0  0  0  0
  188.2720  177.8550  142.9770 C   0  0  0  0  0  0  0  0  0  0  0  0
  191.0060  177.4280  142.5130 C   0  0  0  0  0  3  0  0  0  0  0  0
  188.8340  177.5480  145.4220 C   0  0  0  0  0  0  0  0  0  0  0  0
  188.6190  177.3450  148.1990 C   0  0  0  0  0  3  0  0  0  0  0  0
  190.1540  177.6640  141.4760 N   0  0  0  0  0  0  0  0  0  0  0  0
  189.9560  177.2880  146.2080 C   0  0  0  0  0  0  0  0  0  0  0  0
  189.8750  177.1820  147.5950 C   0  0  0  0  0  3  0  0  0  0  0  0
  187.9490  178.1160  140.5990 C   0  0  0  0  0  0  0  0  0  0  0  0
  188.4480  178.1510  139.1960 C   0  0  0  0  0  1  0  0  0  0  0  0
  186.9430  178.0660  143.1580 N   0  0  0  0  0  0  0  0  0  0  0  0
  187.4800  177.6060  147.4160 C   0  0  0  0  0  3  0  0  0  0  0  0
  190.4920  177.4040  143.8050 C   0  0  0  0  0  0  0  0  0  0  0  0
  191.3310  177.1370  145.2450 S   0  0  0  0  0  0  0  0  0  0  0  0
  186.6270  178.3210  140.8380 N   0  0  0  0  0  0  0  0  0  0  0  0
  187.5810  177.7100  146.0200 C   0  0  0  0  0  3  0  0  0  0  0  0
  186.1180  178.3000  142.1010 C   0  0  0  0  0  0  0  0  0  0  0  0
  188.8150  177.8750  141.6720 C   0  0  0  0  0  0  0  0  0  0  0  0
  182.3170  179.2070  141.8900 C   0  0  1  0  0  3  0  0  0  0  0  0
  184.6800  178.5240  142.3170 C   0  0  2  0  0  3  0  0  0  0  0  0
  183.4400  177.9830  141.1470 S   0  0  0  0  0  0  0  0  0  0  0  0
  180.8670  178.7840  141.7360 C   0  0  0  0  0  1  0  0  0  0  0  0
  184.2130  179.2170  143.3450 C   0  0  0  0  0  2  0  0  0  0  0  0
  182.7400  179.3960  143.3480 C   0  0  2  0  0  3  0  0  0  0  0  0
  182.1700  178.4130  144.1650 O   0  0  0  0  0  1  0  0  0  0  0  0
  1  4  1  0  0  0  0
  2 11  1  0  0  0  0
  2  1  1  0  0  0  0
  3 13  1  0  0  0  0
  4 16  2  0  0  0  0
  4  7  1  0  0  0  0
  6 18  1  0  0  0  0
  6  3  2  0  0  0  0
  7  8  2  0  0  0  0
  8  5  1  0  0  0  0
  9 15  2  0  0  0  0
  9 18  1  0  0  0  0
 10  9  1  0  0  0  0
 12  5  2  0  0  0  0
 13  1  2  0  0  0  0
 13 14  1  0  0  0  0
 14  7  1  0  0  0  0
 15 17  1  0  0  0  0
 16 12  1  0  0  0  0
 17 11  2  0  0  0  0
 18  2  2  0  0  0  0
 19 22  1  1  0  0  0
 19 24  1  0  0  0  0
 20 17  1  6  0  0  0
 20 23  1  0  0  0  0
 21 19  1  0  0  0  0
 21 20  1  0  0  0  0
 23 24  1  0  0  0  0
 24 25  1  1  0  0  0
M  END
>  <MODEL>
7

>  <REMARK>
 VINA RESULT:      -9.2      2.816      5.854
  Name = 
  1 active torsions:
  status: ('A' for Active; 'I' for Inactive)
    1  A    between atoms: C_6  and  C_23
                            x       y       z     vdW  Elec       q    Type
                         _______ _______ _______ _____ _____    ______ ____

>  <TORSDO>
F 1

$$$$
=
 OpenBabel10272400483D

 25 29  0  0  1  0  0  0  0  0999 V2000
  187.7050  177.8490  144.5660 C   0  0  0  0  0  0  0  0  0  0  0  0
  188.4890  177.6720  143.4160 C   0  0  0  0  0  0  0  0  0  0  0  0
  189.6350  177.3760  145.9600 C   0  0  0  0  0  3  0  0  0  0  0  0
  186.3420  178.1720  144.6520 C   0  0  0  0  0  0  0  0  0  0  0  0
  183.6810  178.8010  145.2210 C   0  0  0  0  0  3  0  0  0  0  0  0
  190.3870  177.2080  144.8360 N   0  0  0  0  0  0  0  0  0  0  0  0
  185.8950  178.2670  145.9700 C   0  0  0  0  0  0  0  0  0  0  0  0
  184.5740  178.5790  146.2800 C   0  0  0  0  0  3  0  0  0  0  0  0
  190.6350  177.1700  142.4330 C   0  0  0  0  0  0  0  0  0  0  0  0
  192.0820  176.8240  142.5280 C   0  0  0  0  0  1  0  0  0  0  0  0
  187.9740  177.8060  142.1680 N   0  0  0  0  0  0  0  0  0  0  0  0
  184.1180  178.7090  143.8870 C   0  0  0  0  0  3  0  0  0  0  0  0
  188.2890  177.6980  145.8210 C   0  0  0  0  0  0  0  0  0  0  0  0
  187.1570  177.9570  147.0440 S   0  0  0  0  0  0  0  0  0  0  0  0
  190.0670  177.3160  141.2070 N   0  0  0  0  0  0  0  0  0  0  0  0
  185.4550  178.3930  143.5940 C   0  0  0  0  0  3  0  0  0  0  0  0
  188.7510  177.6320  141.0640 C   0  0  0  0  0  0  0  0  0  0  0  0
  189.8540  177.3460  143.5820 C   0  0  0  0  0  0  0  0  0  0  0  0
  187.9170  178.4700  137.3340 C   0  0  1  0  0  3  0  0  0  0  0  0
  188.1740  177.7790  139.7190 C   0  0  2  0  0  3  0  0  0  0  0  0
  189.1050  177.4270  138.2330 S   0  0  0  0  0  0  0  0  0  0  0  0
  187.8080  178.0460  135.8790 C   0  0  0  0  0  1  0  0  0  0  0  0
  186.9590  178.2650  139.5140 C   0  0  0  0  0  2  0  0  0  0  0  0
  186.5860  178.4040  138.0830 C   0  0  2  0  0  3  0  0  0  0  0  0
  185.8500  177.2780  137.7000 O   0  0  0  0  0  1  0  0  0  0  0  0
  1  4  1  0  0  0  0
  1 13  2  0  0  0  0
  2 18  2  0  0  0  0
  2  1  1  0  0  0  0
  4  7  1  0  0  0  0
  5  8  1  0  0  0  0
  6  3  2  0  0  0  0
  7  8  2  0  0  0  0
  7 14  1  0  0  0  0
  9 10  1  0  0  0  0
  9 18  1  0  0  0  0
 11  2  1  0  0  0  0
 12  5  2  0  0  0  0
 13  3  1  0  0  0  0
 13 14  1  0  0  0  0
 15  9  2  0  0  0  0
 16 12  1  0  0  0  0
 16  4  2  0  0  0  0
 17 15  1  0  0  0  0
 17 11  2  0  0  0  0
 18  6  1  0  0  0  0
 19 22  1  6  0  0  0
 19 24  1  0  0  0  0
 19 21  1  0  0  0  0
 20 17  1  1  0  0  0
 21 20  1  0  0  0  0
 23 20  1  0  0  0  0
 24 25  1  6  0  0  0
 24 23  1  0  0  0  0
M  END
>  <MODEL>
8

>  <REMARK>
 VINA RESULT:      -9.1      1.429      1.690
  Name = 
  1 active torsions:
  status: ('A' for Active; 'I' for Inactive)
    1  A    between atoms: C_6  and  C_23
                            x       y       z     vdW  Elec       q    Type
                         _______ _______ _______ _____ _____    ______ ____

>  <TORSDO>
F 1

$$$$
=
 OpenBabel10272400483D

 25 29  0  0  1  0  0  0  0  0999 V2000
  188.8890  177.6770  143.9720 C   0  0  0  0  0  0  0  0  0  0  0  0
  187.5180  177.9650  144.0520 C   0  0  0  0  0  0  0  0  0  0  0  0
  189.0050  177.5300  146.3910 C   0  0  0  0  0  3  0  0  0  0  0  0
  189.6920  177.5630  142.8250 C   0  0  0  0  0  0  0  0  0  0  0  0
  191.5890  177.2610  140.7990 C   0  0  0  0  0  3  0  0  0  0  0  0
  187.6730  177.8110  146.4570 N   0  0  0  0  0  0  0  0  0  0  0  0
  191.0190  177.2650  143.1280 C   0  0  0  0  0  0  0  0  0  0  0  0
  191.9850  177.1090  142.1360 C   0  0  0  0  0  3  0  0  0  0  0  0
  185.5550  178.3160  145.4110 C   0  0  0  0  0  0  0  0  0  0  0  0
  184.8570  178.3990  146.7250 C   0  0  0  0  0  1  0  0  0  0  0  0
  186.7640  178.1820  142.9450 N   0  0  0  0  0  0  0  0  0  0  0  0
  190.2530  177.5620  140.4790 C   0  0  0  0  0  3  0  0  0  0  0  0
  189.6120  177.4640  145.1420 C   0  0  0  0  0  0  0  0  0  0  0  0
  191.2300  177.1360  144.7960 S   0  0  0  0  0  0  0  0  0  0  0  0
  184.8470  178.5240  144.2690 N   0  0  0  0  0  0  0  0  0  0  0  0
  189.2940  177.7160  141.4930 C   0  0  0  0  0  3  0  0  0  0  0  0
  185.4350  178.4600  143.0430 C   0  0  0  0  0  0  0  0  0  0  0  0
  186.9230  178.0280  145.3320 C   0  0  0  0  0  0  0  0  0  0  0  0
  182.8700  178.4100  140.0880 C   0  0  1  0  0  3  0  0  0  0  0  0
  184.6340  178.6940  141.8320 C   0  0  2  0  0  3  0  0  0  0  0  0
  182.8480  178.7880  141.8680 S   0  0  0  0  0  0  0  0  0  0  0  0
  181.6490  178.9850  139.3910 C   0  0  0  0  0  1  0  0  0  0  0  0
  185.1720  178.7640  140.6230 C   0  0  0  0  0  2  0  0  0  0  0  0
  184.1910  178.9320  139.5220 C   0  0  2  0  0  3  0  0  0  0  0  0
  184.0980  180.2920  139.2070 O   0  0  0  0  0  1  0  0  0  0  0  0
  1  2  2  0  0  0  0
  1 13  1  0  0  0  0
  2 18  1  0  0  0  0
  3  6  1  0  0  0  0
  4  7  1  0  0  0  0
  4  1  1  0  0  0  0
  5  8  1  0  0  0  0
  7 14  1  0  0  0  0
  8  7  2  0  0  0  0
  9 10  1  0  0  0  0
 11 17  2  0  0  0  0
 11  2  1  0  0  0  0
 12  5  2  0  0  0  0
 12 16  1  0  0  0  0
 13  3  2  0  0  0  0
 14 13  1  0  0  0  0
 15  9  2  0  0  0  0
 16  4  2  0  0  0  0
 17 15  1  0  0  0  0
 18  9  1  0  0  0  0
 18  6  2  0  0  0  0
 19 22  1  6  0  0  0
 19 21  1  0  0  0  0
 20 21  1  0  0  0  0
 20 17  1  6  0  0  0
 23 20  1  0  0  0  0
 24 25  1  1  0  0  0
 24 19  1  0  0  0  0
 24 23  1  0  0  0  0
M  END
>  <MODEL>
9

>  <REMARK>
 VINA RESULT:      -9.1      2.586      5.629
  Name = 
  1 active torsions:
  status: ('A' for Active; 'I' for Inactive)
    1  A    between atoms: C_6  and  C_23
                            x       y       z     vdW  Elec       q    Type
                         _______ _______ _______ _____ _____    ______ ____

>  <TORSDO>
F 1

$$$$
