=
 OpenBabel10272401263D

 55 62  0  0  1  0  0  0  0  0999 V2000
  183.6120  175.1320  136.7690 O   0  0  0  0  0  0  0  0  0  0  0  0
  186.0650  178.8610  137.5620 C   0  0  0  0  0  2  0  0  0  0  0  0
  185.8490  177.4410  135.6620 O   0  0  0  0  0  0  0  0  0  0  0  0
  189.0240  176.0570  136.4870 C   0  0  0  0  0  2  0  0  0  0  0  0
  190.4560  175.6180  136.2030 C   0  0  0  0  0  2  0  0  0  0  0  0
  188.2700  173.8500  135.5860 C   0  0  0  0  0  0  0  0  0  0  0  0
  189.5040  173.8130  134.7860 C   0  0  0  0  0  3  0  0  0  0  0  0
  186.4280  176.3490  137.6510 N   0  0  0  0  0  2  0  0  0  0  0  0
  190.5070  174.6590  135.0450 C   0  0  0  0  0  3  0  0  0  0  0  0
  181.8850  176.9200  136.5370 C   0  0  0  0  0  2  0  0  0  0  0  0
  188.1600  174.8140  136.7460 C   0  0  2  0  0  3  0  0  0  0  0  0
  181.4520  176.8260  139.3640 C   0  0  1  0  0  3  0  0  0  0  0  0
  184.4480  174.2510  137.5080 C   0  0  0  0  0  2  0  0  0  0  0  0
  182.4100  175.8720  138.6950 C   0  0  0  0  0  3  0  0  0  0  0  0
  186.0170  173.1020  135.9680 C   0  0  0  0  0  0  0  0  0  0  0  0
  185.3470  178.5650  139.9300 C   0  0  0  0  0  2  0  0  0  0  0  0
  187.2820  173.0610  135.2880 N   0  0  0  0  0  0  0  0  0  0  0  0
  184.9140  179.0090  138.5480 C   0  0  0  0  0  2  0  0  0  0  0  0
  186.0720  177.5190  136.9040 C   0  0  0  0  0  0  0  0  0  0  0  0
  180.4160  176.9160  136.9680 C   0  0  0  0  0  2  0  0  0  0  0  0
  184.2530  178.8420  140.9560 C   0  0  1  0  0  3  0  0  0  0  0  0
  182.6440  175.9340  137.3750 C   0  0  0  0  0  0  0  0  0  0  0  0
  186.7540  175.1490  136.9990 N   0  0  0  0  0  0  0  0  0  0  0  0
  185.7590  174.1230  136.8140 C   0  0  0  0  0  0  0  0  0  0  0  0
  183.1660  177.7740  140.9130 C   0  0  0  0  0  2  0  0  0  0  0  0
  182.2060  178.0790  139.7560 C   0  0  0  0  0  2  0  0  0  0  0  0
  180.2550  177.2160  138.4700 C   0  0  0  0  0  2  0  0  0  0  0  0
  184.0740  172.4710  134.5140 C   0  0  0  0  0  3  0  0  0  0  0  0
  182.1670  171.2020  135.5430 C   0  0  1  0  0  3  0  0  0  0  0  0
  184.2960  171.4550  136.8410 C   0  0  0  0  0  2  0  0  0  0  0  0
  183.2290  170.4690  136.3810 C   0  0  0  0  0  2  0  0  0  0  0  0
  182.8000  172.0510  134.4600 C   0  0  0  0  0  3  0  0  0  0  0  0
  185.0110  172.0410  135.6200 C   0  0  2  0  0  3  0  0  0  0  0  0
  181.1470  170.2260  134.9410 C   0  0  1  0  0  3  0  0  0  0  0  0
  181.7590  168.8480  134.7490 C   0  0  0  0  0  1  0  0  0  0  0  0
  179.9880  170.1050  135.8120 N   0  0  0  0  0  1  0  0  0  0  0  0
  184.8680  178.8920  142.3410 C   0  0  0  0  0  2  0  0  0  0  0  0
  185.7860  177.7670  142.5140 N   0  0  0  0  0  2  0  0  0  0  0  0
  187.7490  179.0540  142.4480 O   0  0  0  0  0  1  0  0  0  0  0  0
  187.0010  178.1720  143.2360 C   0  0  1  0  0  0  0  0  0  0  0  0
  186.6420  178.8150  144.4130 F   0  0  0  0  0  0  0  0  0  0  0  0
  189.9480  175.3820  142.9080 C   0  0  0  0  0  2  0  0  0  0  0  0
  187.8530  176.9000  143.5010 C   0  0  1  0  0  0  0  0  0  0  0  0
  189.0230  178.2500  145.1980 O   0  0  0  0  0  0  0  0  0  0  0  0
  188.7830  176.9380  144.7210 C   0  0  2  0  0  3  0  0  0  0  0  0
  190.2380  178.7340  144.6400 C   0  0  0  0  0  2  0  0  0  0  0  0
  189.9520  176.5500  143.8670 C   0  0  1  0  0  0  0  0  0  0  0  0
  187.0170  175.7770  143.5880 O   0  0  0  0  0  1  0  0  0  0  0  0
  190.9850  177.6280  143.9060 C   0  0  2  0  0  3  0  0  0  0  0  0
  189.0530  176.5790  142.5880 C   0  0  1  0  0  0  0  0  0  0  0  0
  189.5080  177.5900  141.5960 N   0  0  0  0  0  0  0  0  0  0  0  0
  188.6710  177.5200  140.5350 O   0  0  0  0  0  1  0  0  0  0  0  0
  190.8300  177.2570  141.0610 C   0  0  0  0  0  1  0  0  0  0  0  0
  192.1010  177.1790  144.7250 N   0  0  0  0  0  2  0  0  0  0  0  0
  191.6200  177.0580  146.0370 N   0  0  0  0  0  1  0  0  0  0  0  0
  1 22  1  0  0  0  0
  1 13  1  0  0  0  0
  2 18  1  0  0  0  0
  3 19  2  0  0  0  0
  5  4  1  0  0  0  0
  6 11  1  0  0  0  0
  7  9  2  0  0  0  0
  7  6  1  0  0  0  0
  9  5  1  0  0  0  0
 10 20  1  0  0  0  0
 10 22  1  0  0  0  0
 11  4  1  6  0  0  0
 11 23  1  0  0  0  0
 12 27  1  6  0  0  0
 12 26  1  0  0  0  0
 14 12  1  0  0  0  0
 15 24  2  0  0  0  0
 16 21  1  0  0  0  0
 17  6  2  0  0  0  0
 17 15  1  0  0  0  0
 18 16  1  0  0  0  0
 19  2  1  0  0  0  0
 19  8  1  0  0  0  0
 20 27  1  0  0  0  0
 21 37  1  1  0  0  0
 22 14  2  0  0  0  0
 23  8  1  0  0  0  0
 24 23  1  0  0  0  0
 24 13  1  0  0  0  0
 25 21  1  0  0  0  0
 26 25  1  0  0  0  0
 28 33  1  0  0  0  0
 29 34  1  6  0  0  0
 29 31  1  0  0  0  0
 31 30  1  0  0  0  0
 32 28  2  0  0  0  0
 32 29  1  0  0  0  0
 33 15  1  1  0  0  0
 33 30  1  0  0  0  0
 34 35  1  1  0  0  0
 34 36  1  0  0  0  0
 37 38  1  0  0  0  0
 38 40  1  0  0  0  0
 40 39  1  6  0  0  0
 40 43  1  0  0  0  0
 40 41  1  0  0  0  0
 43 48  1  1  0  0  0
 43 45  1  0  0  0  0
 45 44  1  6  0  0  0
 46 44  1  0  0  0  0
 47 42  1  1  0  0  0
 47 49  1  0  0  0  0
 47 45  1  0  0  0  0
 49 46  1  0  0  0  0
 49 54  1  1  0  0  0
 50 51  1  6  0  0  0
 50 42  1  0  0  0  0
 50 43  1  0  0  0  0
 50 47  1  0  0  0  0
 52 51  1  0  0  0  0
 53 51  1  0  0  0  0
 54 55  1  0  0  0  0
M  END
>  <MODEL>
1

>  <REMARK>
 VINA RESULT:      -7.0      0.000      0.000
  Name = 
  8 active torsions:
  status: ('A' for Active; 'I' for Inactive)
    1  A    between atoms: N_1  and  C_53
    2  A    between atoms: C_6  and  C_20
    3  A    between atoms: C_8  and  N_22
    4  A    between atoms: C_8  and  C_43
    5  A    between atoms: C_10  and  C_32
    6  A    between atoms: N_11  and  C_50
    7  A    between atoms: C_20  and  N_22
    8  A    between atoms: C_33  and  C_52
                            x       y       z     vdW  Elec       q    Type
                         _______ _______ _______ _____ _____    ______ ____

>  <TORSDO>
F 8

$$$$
=
 OpenBabel10272401263D

 55 62  0  0  1  0  0  0  0  0999 V2000
  184.0670  175.0650  136.3900 O   0  0  0  0  0  0  0  0  0  0  0  0
  186.9260  178.5390  136.9440 C   0  0  0  0  0  2  0  0  0  0  0  0
  186.5100  177.0630  135.1220 O   0  0  0  0  0  0  0  0  0  0  0  0
  189.5380  175.3840  135.9490 C   0  0  0  0  0  2  0  0  0  0  0  0
  190.9070  174.7790  135.6580 C   0  0  0  0  0  2  0  0  0  0  0  0
  188.5290  173.2310  135.1760 C   0  0  0  0  0  0  0  0  0  0  0  0
  189.7290  173.0220  134.3530 C   0  0  0  0  0  3  0  0  0  0  0  0
  187.0200  176.0110  137.1510 N   0  0  0  0  0  2  0  0  0  0  0  0
  190.8240  173.7660  134.5480 C   0  0  0  0  0  3  0  0  0  0  0  0
  182.5370  177.0180  136.1050 C   0  0  0  0  0  2  0  0  0  0  0  0
  188.5520  174.2550  136.2870 C   0  0  2  0  0  3  0  0  0  0  0  0
  182.1700  177.1050  138.9410 C   0  0  1  0  0  3  0  0  0  0  0  0
  184.8230  174.1350  137.1540 C   0  0  0  0  0  2  0  0  0  0  0  0
  183.0020  176.0220  138.3010 C   0  0  0  0  0  3  0  0  0  0  0  0
  186.2190  172.7510  135.6410 C   0  0  0  0  0  0  0  0  0  0  0  0
  186.2430  178.4350  139.3390 C   0  0  0  0  0  2  0  0  0  0  0  0
  187.4540  172.5410  134.9380 N   0  0  0  0  0  0  0  0  0  0  0  0
  185.8240  178.8590  137.9450 C   0  0  0  0  0  2  0  0  0  0  0  0
  186.7720  177.1760  136.3550 C   0  0  0  0  0  0  0  0  0  0  0  0
  181.0880  177.1940  136.5660 C   0  0  0  0  0  2  0  0  0  0  0  0
  185.2120  178.8790  140.3720 C   0  0  1  0  0  3  0  0  0  0  0  0
  183.2070  175.9960  136.9750 C   0  0  0  0  0  0  0  0  0  0  0  0
  187.1980  174.7530  136.5530 N   0  0  0  0  0  0  0  0  0  0  0  0
  186.0930  173.8330  136.4400 C   0  0  0  0  0  0  0  0  0  0  0  0
  184.0160  177.9330  140.4060 C   0  0  0  0  0  2  0  0  0  0  0  0
  183.0640  178.2860  139.2550 C   0  0  0  0  0  2  0  0  0  0  0  0
  180.9990  177.5800  138.0540 C   0  0  0  0  0  2  0  0  0  0  0  0
  184.1130  172.3220  134.3490 C   0  0  0  0  0  3  0  0  0  0  0  0
  182.1910  171.2090  135.5200 C   0  0  1  0  0  3  0  0  0  0  0  0
  184.4340  171.2480  136.6380 C   0  0  0  0  0  2  0  0  0  0  0  0
  183.2480  170.3690  136.2590 C   0  0  0  0  0  2  0  0  0  0  0  0
  182.8070  172.0180  134.3970 C   0  0  0  0  0  3  0  0  0  0  0  0
  185.0960  171.7900  135.3670 C   0  0  2  0  0  3  0  0  0  0  0  0
  181.0410  170.3390  134.9960 C   0  0  1  0  0  3  0  0  0  0  0  0
  181.5280  168.9390  134.6580 C   0  0  0  0  0  1  0  0  0  0  0  0
  179.9870  170.2390  135.9940 N   0  0  0  0  0  1  0  0  0  0  0  0
  185.8650  178.9270  141.7400 C   0  0  0  0  0  2  0  0  0  0  0  0
  186.7170  177.7530  141.9210 N   0  0  0  0  0  2  0  0  0  0  0  0
  188.7970  178.3170  140.9860 O   0  0  0  0  0  1  0  0  0  0  0  0
  188.1100  178.1390  142.1920 C   0  0  1  0  0  0  0  0  0  0  0  0
  188.1250  179.3340  142.8980 F   0  0  0  0  0  0  0  0  0  0  0  0
  190.6980  176.1450  144.6230 C   0  0  0  0  0  2  0  0  0  0  0  0
  188.7870  176.9850  142.9830 C   0  0  1  0  0  0  0  0  0  0  0  0
  187.1610  177.4860  144.7640 O   0  0  0  0  0  0  0  0  0  0  0  0
  188.0920  176.5370  144.2740 C   0  0  2  0  0  3  0  0  0  0  0  0
  187.7930  178.2950  145.7470 C   0  0  0  0  0  2  0  0  0  0  0  0
  189.3640  176.7180  145.0460 C   0  0  1  0  0  0  0  0  0  0  0  0
  188.9690  175.8760  142.1430 O   0  0  0  0  0  1  0  0  0  0  0  0
  189.1680  177.7480  146.1090 C   0  0  2  0  0  3  0  0  0  0  0  0
  190.0870  177.2550  143.7670 C   0  0  1  0  0  0  0  0  0  0  0  0
  190.5640  178.6540  143.9310 N   0  0  0  0  0  0  0  0  0  0  0  0
  191.0330  179.0640  142.7290 O   0  0  0  0  0  1  0  0  0  0  0  0
  191.7150  178.7240  144.8330 C   0  0  0  0  0  1  0  0  0  0  0  0
  189.0920  177.0810  147.4000 N   0  0  0  0  0  2  0  0  0  0  0  0
  188.8760  178.0790  148.3620 N   0  0  0  0  0  1  0  0  0  0  0  0
  1 22  1  0  0  0  0
  1 13  1  0  0  0  0
  2 18  1  0  0  0  0
  3 19  2  0  0  0  0
  5  4  1  0  0  0  0
  6 11  1  0  0  0  0
  7  9  2  0  0  0  0
  7  6  1  0  0  0  0
  9  5  1  0  0  0  0
 10 20  1  0  0  0  0
 10 22  1  0  0  0  0
 11  4  1  6  0  0  0
 11 23  1  0  0  0  0
 12 27  1  6  0  0  0
 12 26  1  0  0  0  0
 14 12  1  0  0  0  0
 15 24  2  0  0  0  0
 16 21  1  0  0  0  0
 17  6  2  0  0  0  0
 17 15  1  0  0  0  0
 18 16  1  0  0  0  0
 19  2  1  0  0  0  0
 19  8  1  0  0  0  0
 20 27  1  0  0  0  0
 21 25  1  0  0  0  0
 21 37  1  1  0  0  0
 22 14  2  0  0  0  0
 23  8  1  0  0  0  0
 24 23  1  0  0  0  0
 24 13  1  0  0  0  0
 26 25  1  0  0  0  0
 28 32  2  0  0  0  0
 28 33  1  0  0  0  0
 29 34  1  6  0  0  0
 29 31  1  0  0  0  0
 31 30  1  0  0  0  0
 32 29  1  0  0  0  0
 33 15  1  1  0  0  0
 33 30  1  0  0  0  0
 34 35  1  1  0  0  0
 34 36  1  0  0  0  0
 37 38  1  0  0  0  0
 38 40  1  0  0  0  0
 40 39  1  6  0  0  0
 40 41  1  0  0  0  0
 40 43  1  0  0  0  0
 43 48  1  6  0  0  0
 43 50  1  0  0  0  0
 43 45  1  0  0  0  0
 44 46  1  0  0  0  0
 45 44  1  1  0  0  0
 45 47  1  0  0  0  0
 46 49  1  0  0  0  0
 47 42  1  1  0  0  0
 47 49  1  0  0  0  0
 49 54  1  1  0  0  0
 50 51  1  6  0  0  0
 50 42  1  0  0  0  0
 50 47  1  0  0  0  0
 51 53  1  0  0  0  0
 52 51  1  0  0  0  0
 54 55  1  0  0  0  0
M  END
>  <MODEL>
2

>  <REMARK>
 VINA RESULT:      -6.9      1.276      1.591
  Name = 
  8 active torsions:
  status: ('A' for Active; 'I' for Inactive)
    1  A    between atoms: N_1  and  C_53
    2  A    between atoms: C_6  and  C_20
    3  A    between atoms: C_8  and  N_22
    4  A    between atoms: C_8  and  C_43
    5  A    between atoms: C_10  and  C_32
    6  A    between atoms: N_11  and  C_50
    7  A    between atoms: C_20  and  N_22
    8  A    between atoms: C_33  and  C_52
                            x       y       z     vdW  Elec       q    Type
                         _______ _______ _______ _____ _____    ______ ____

>  <TORSDO>
F 8

$$$$
=
 OpenBabel10272401263D

 55 62  0  0  1  0  0  0  0  0999 V2000
  184.6360  174.8950  135.7870 O   0  0  0  0  0  0  0  0  0  0  0  0
  187.8950  177.9170  136.6780 C   0  0  0  0  0  2  0  0  0  0  0  0
  187.5340  176.4150  134.8650 O   0  0  0  0  0  0  0  0  0  0  0  0
  190.0870  174.3440  136.2310 C   0  0  0  0  0  2  0  0  0  0  0  0
  191.3700  173.5210  136.1870 C   0  0  0  0  0  2  0  0  0  0  0  0
  188.8770  172.3290  135.3780 C   0  0  0  0  0  0  0  0  0  0  0  0
  190.1420  171.8900  134.7690 C   0  0  0  0  0  3  0  0  0  0  0  0
  187.5480  175.4210  136.9850 N   0  0  0  0  0  2  0  0  0  0  0  0
  191.2980  172.4670  135.1140 C   0  0  0  0  0  3  0  0  0  0  0  0
  183.5020  177.0380  135.1900 C   0  0  0  0  0  2  0  0  0  0  0  0
  188.8930  173.4030  136.4430 C   0  0  2  0  0  3  0  0  0  0  0  0
  182.7190  177.3510  137.9240 C   0  0  1  0  0  3  0  0  0  0  0  0
  185.1040  173.9070  136.6960 C   0  0  0  0  0  2  0  0  0  0  0  0
  183.4550  176.1160  137.4660 C   0  0  0  0  0  3  0  0  0  0  0  0
  186.4770  172.2380  135.4790 C   0  0  0  0  0  0  0  0  0  0  0  0
  186.8410  178.0630  138.9320 C   0  0  0  0  0  2  0  0  0  0  0  0
  187.7560  171.7990  134.9930 N   0  0  0  0  0  0  0  0  0  0  0  0
  186.7170  178.4610  137.4750 C   0  0  0  0  0  2  0  0  0  0  0  0
  187.6170  176.5600  136.1190 C   0  0  0  0  0  0  0  0  0  0  0  0
  182.0460  177.4610  135.4030 C   0  0  0  0  0  2  0  0  0  0  0  0
  185.7480  178.7200  139.7680 C   0  0  1  0  0  3  0  0  0  0  0  0
  183.8560  175.9800  136.1920 C   0  0  0  0  0  0  0  0  0  0  0  0
  187.6120  174.1170  136.4680 N   0  0  0  0  0  0  0  0  0  0  0  0
  186.4040  173.3720  136.2090 C   0  0  0  0  0  0  0  0  0  0  0  0
  184.4250  177.9730  139.6390 C   0  0  0  0  0  2  0  0  0  0  0  0
  183.7310  178.3970  138.3370 C   0  0  0  0  0  2  0  0  0  0  0  0
  181.7910  177.9450  136.8430 C   0  0  0  0  0  2  0  0  0  0  0  0
  184.2360  172.2940  134.3550 C   0  0  0  0  0  3  0  0  0  0  0  0
  182.3590  170.9560  135.3510 C   0  0  1  0  0  3  0  0  0  0  0  0
  184.6930  170.5750  136.1800 C   0  0  0  0  0  2  0  0  0  0  0  0
  183.4200  169.8940  135.6920 C   0  0  0  0  0  2  0  0  0  0  0  0
  182.9220  172.0390  134.4540 C   0  0  0  0  0  3  0  0  0  0  0  0
  185.2700  171.4460  135.0600 C   0  0  2  0  0  3  0  0  0  0  0  0
  181.1080  170.3270  134.7240 C   0  0  1  0  0  3  0  0  0  0  0  0
  181.3460  168.8640  134.3860 C   0  0  0  0  0  1  0  0  0  0  0  0
  179.9820  170.4170  135.6400 N   0  0  0  0  0  1  0  0  0  0  0  0
  186.1800  178.7490  141.2210 C   0  0  0  0  0  2  0  0  0  0  0  0
  187.4470  178.0360  141.3730 N   0  0  0  0  0  2  0  0  0  0  0  0
  186.8360  178.4330  143.6060 O   0  0  0  0  0  1  0  0  0  0  0  0
  187.7220  177.7280  142.7840 C   0  0  1  0  0  0  0  0  0  0  0  0
  187.5490  176.3670  142.9990 F   0  0  0  0  0  0  0  0  0  0  0  0
  191.2080  178.3250  144.8030 C   0  0  0  0  0  2  0  0  0  0  0  0
  189.1710  178.1900  143.1070 C   0  0  1  0  0  0  0  0  0  0  0  0
  189.8920  176.0850  142.0510 O   0  0  0  0  0  0  0  0  0  0  0  0
  190.3080  177.3640  142.4940 C   0  0  2  0  0  3  0  0  0  0  0  0
  190.1570  175.1290  143.0700 C   0  0  0  0  0  2  0  0  0  0  0  0
  190.9360  177.1890  143.8440 C   0  0  1  0  0  0  0  0  0  0  0  0
  189.3300  179.5380  142.7500 O   0  0  0  0  0  1  0  0  0  0  0  0
  190.9900  175.7380  144.1910 C   0  0  2  0  0  3  0  0  0  0  0  0
  189.7510  177.9590  144.5160 C   0  0  1  0  0  0  0  0  0  0  0  0
  189.0030  177.1150  145.4850 N   0  0  0  0  0  0  0  0  0  0  0  0
  187.8030  177.7040  145.6920 O   0  0  0  0  0  1  0  0  0  0  0  0
  189.6530  177.1040  146.7970 C   0  0  0  0  0  1  0  0  0  0  0  0
  192.3650  175.2770  144.0700 N   0  0  0  0  0  2  0  0  0  0  0  0
  192.4400  174.0400  144.7280 N   0  0  0  0  0  1  0  0  0  0  0  0
  1 22  1  0  0  0  0
  1 13  1  0  0  0  0
  2 18  1  0  0  0  0
  3 19  2  0  0  0  0
  5  4  1  0  0  0  0
  6 11  1  0  0  0  0
  7  9  2  0  0  0  0
  7  6  1  0  0  0  0
  9  5  1  0  0  0  0
 10 20  1  0  0  0  0
 10 22  1  0  0  0  0
 11  4  1  6  0  0  0
 11 23  1  0  0  0  0
 12 27  1  6  0  0  0
 12 26  1  0  0  0  0
 14 12  1  0  0  0  0
 15 24  2  0  0  0  0
 16 21  1  0  0  0  0
 17  6  2  0  0  0  0
 17 15  1  0  0  0  0
 18 16  1  0  0  0  0
 19  2  1  0  0  0  0
 19  8  1  0  0  0  0
 20 27  1  0  0  0  0
 21 37  1  1  0  0  0
 22 14  2  0  0  0  0
 23  8  1  0  0  0  0
 24 23  1  0  0  0  0
 24 13  1  0  0  0  0
 25 21  1  0  0  0  0
 26 25  1  0  0  0  0
 28 32  2  0  0  0  0
 28 33  1  0  0  0  0
 29 34  1  6  0  0  0
 29 31  1  0  0  0  0
 31 30  1  0  0  0  0
 32 29  1  0  0  0  0
 33 15  1  1  0  0  0
 33 30  1  0  0  0  0
 34 35  1  1  0  0  0
 34 36  1  0  0  0  0
 37 38  1  0  0  0  0
 38 40  1  0  0  0  0
 40 41  1  1  0  0  0
 40 43  1  0  0  0  0
 40 39  1  0  0  0  0
 43 48  1  6  0  0  0
 43 50  1  0  0  0  0
 44 46  1  0  0  0  0
 45 44  1  1  0  0  0
 45 43  1  0  0  0  0
 45 47  1  0  0  0  0
 46 49  1  0  0  0  0
 47 49  1  0  0  0  0
 47 50  1  0  0  0  0
 47 42  1  1  0  0  0
 49 54  1  6  0  0  0
 50 42  1  0  0  0  0
 50 51  1  1  0  0  0
 51 52  1  0  0  0  0
 51 53  1  0  0  0  0
 54 55  1  0  0  0  0
M  END
>  <MODEL>
3

>  <REMARK>
 VINA RESULT:      -6.8      1.516      2.326
  Name = 
  8 active torsions:
  status: ('A' for Active; 'I' for Inactive)
    1  A    between atoms: N_1  and  C_53
    2  A    between atoms: C_6  and  C_20
    3  A    between atoms: C_8  and  N_22
    4  A    between atoms: C_8  and  C_43
    5  A    between atoms: C_10  and  C_32
    6  A    between atoms: N_11  and  C_50
    7  A    between atoms: C_20  and  N_22
    8  A    between atoms: C_33  and  C_52
                            x       y       z     vdW  Elec       q    Type
                         _______ _______ _______ _____ _____    ______ ____

>  <TORSDO>
F 8

$$$$
=
 OpenBabel10272401263D

 55 62  0  0  1  0  0  0  0  0999 V2000
  190.6000  175.0120  136.6910 O   0  0  0  0  0  0  0  0  0  0  0  0
  186.4810  173.2000  137.2380 C   0  0  0  0  0  2  0  0  0  0  0  0
  188.6680  172.4460  137.8060 O   0  0  0  0  0  0  0  0  0  0  0  0
  188.4860  170.2150  135.0380 C   0  0  0  0  0  2  0  0  0  0  0  0
  188.5890  168.8600  134.3460 C   0  0  0  0  0  2  0  0  0  0  0  0
  190.9500  170.4670  134.7020 C   0  0  0  0  0  0  0  0  0  0  0  0
  191.0470  169.0000  134.6840 C   0  0  0  0  0  3  0  0  0  0  0  0
  188.3750  173.0250  135.5560 N   0  0  0  0  0  2  0  0  0  0  0  0
  189.9480  168.2480  134.5580 C   0  0  0  0  0  3  0  0  0  0  0  0
  189.7470  176.3030  138.6510 C   0  0  0  0  0  2  0  0  0  0  0  0
  189.6040  171.1300  134.5190 C   0  0  2  0  0  3  0  0  0  0  0  0
  188.4960  178.1460  136.8550 C   0  0  1  0  0  3  0  0  0  0  0  0
  190.7050  174.7140  135.3050 C   0  0  0  0  0  2  0  0  0  0  0  0
  189.3470  177.0140  136.3340 C   0  0  0  0  0  3  0  0  0  0  0  0
  191.9900  172.6150  134.9990 C   0  0  0  0  0  0  0  0  0  0  0  0
  185.7090  175.0550  135.7630 C   0  0  0  0  0  2  0  0  0  0  0  0
  192.0190  171.1830  134.8820 N   0  0  0  0  0  0  0  0  0  0  0  0
  186.1760  174.6900  137.1580 C   0  0  0  0  0  2  0  0  0  0  0  0
  187.9060  172.8990  136.9040 C   0  0  0  0  0  0  0  0  0  0  0  0
  189.9380  177.7810  139.0010 C   0  0  0  0  0  2  0  0  0  0  0  0
  185.2630  176.5120  135.7050 C   0  0  1  0  0  3  0  0  0  0  0  0
  189.9080  176.1250  137.1700 C   0  0  0  0  0  0  0  0  0  0  0  0
  189.5930  172.4500  135.1600 N   0  0  0  0  0  0  0  0  0  0  0  0
  190.7990  173.2390  135.1280 C   0  0  0  0  0  0  0  0  0  0  0  0
  186.4550  177.4550  135.5910 C   0  0  0  0  0  2  0  0  0  0  0  0
  187.0680  177.6620  136.9830 C   0  0  0  0  0  2  0  0  0  0  0  0
  188.9700  178.6890  138.2200 C   0  0  0  0  0  2  0  0  0  0  0  0
  194.4110  172.5810  134.3470 C   0  0  0  0  0  3  0  0  0  0  0  0
  196.1170  173.3470  136.0230 C   0  0  1  0  0  3  0  0  0  0  0  0
  193.6900  173.7840  136.4750 C   0  0  0  0  0  2  0  0  0  0  0  0
  195.0830  174.4030  136.4540 C   0  0  0  0  0  2  0  0  0  0  0  0
  195.6870  172.6300  134.7600 C   0  0  0  0  0  3  0  0  0  0  0  0
  193.3100  173.3300  135.0630 C   0  0  2  0  0  3  0  0  0  0  0  0
  197.5140  173.9590  135.8520 C   0  0  1  0  0  3  0  0  0  0  0  0
  197.9180  173.9910  134.3860 C   0  0  0  0  0  1  0  0  0  0  0  0
  197.5370  175.3180  136.3710 N   0  0  0  0  0  1  0  0  0  0  0  0
  184.3420  176.7060  134.5160 C   0  0  0  0  0  2  0  0  0  0  0  0
  183.1840  177.5050  134.9140 N   0  0  0  0  0  2  0  0  0  0  0  0
  181.3180  176.0880  134.7460 O   0  0  0  0  0  1  0  0  0  0  0  0
  182.2000  176.6930  135.6470 C   0  0  1  0  0  0  0  0  0  0  0  0
  182.8630  175.7050  136.3610 F   0  0  0  0  0  0  0  0  0  0  0  0
  179.9820  178.0180  138.7940 C   0  0  0  0  0  2  0  0  0  0  0  0
  181.3880  177.6390  136.5750 C   0  0  1  0  0  0  0  0  0  0  0  0
  183.5590  178.2340  137.5770 O   0  0  0  0  0  0  0  0  0  0  0  0
  182.1980  178.6050  137.4490 C   0  0  2  0  0  3  0  0  0  0  0  0
  183.7290  177.4900  138.7760 C   0  0  0  0  0  2  0  0  0  0  0  0
  181.4850  178.1240  138.6770 C   0  0  1  0  0  0  0  0  0  0  0  0
  180.4570  178.3660  135.8170 O   0  0  0  0  0  1  0  0  0  0  0  0
  182.4670  177.5250  139.6290 C   0  0  2  0  0  3  0  0  0  0  0  0
  180.6970  177.0710  137.8300 C   0  0  1  0  0  0  0  0  0  0  0  0
  180.9840  175.6740  138.2530 N   0  0  0  0  0  0  0  0  0  0  0  0
  180.1490  174.8640  137.5630 O   0  0  0  0  0  1  0  0  0  0  0  0
  180.6440  175.4620  139.6620 C   0  0  0  0  0  1  0  0  0  0  0  0
  182.6650  178.4450  140.7390 N   0  0  0  0  0  2  0  0  0  0  0  0
  184.0370  178.4350  141.0360 N   0  0  0  0  0  1  0  0  0  0  0  0
  1 22  1  0  0  0  0
  5  9  1  0  0  0  0
  5  4  1  0  0  0  0
  6 17  2  0  0  0  0
  7  6  1  0  0  0  0
  8 19  1  0  0  0  0
  9  7  2  0  0  0  0
 10 20  1  0  0  0  0
 11  6  1  0  0  0  0
 11  4  1  1  0  0  0
 11 23  1  0  0  0  0
 12 14  1  1  0  0  0
 12 26  1  0  0  0  0
 12 27  1  0  0  0  0
 13  1  1  0  0  0  0
 14 22  2  0  0  0  0
 15 24  2  0  0  0  0
 16 18  1  0  0  0  0
 17 15  1  0  0  0  0
 18  2  1  0  0  0  0
 19  2  1  0  0  0  0
 19  3  2  0  0  0  0
 21 37  1  6  0  0  0
 21 16  1  0  0  0  0
 22 10  1  0  0  0  0
 23  8  1  0  0  0  0
 24 23  1  0  0  0  0
 24 13  1  0  0  0  0
 25 21  1  0  0  0  0
 25 26  1  0  0  0  0
 27 20  1  0  0  0  0
 28 32  2  0  0  0  0
 28 33  1  0  0  0  0
 29 34  1  6  0  0  0
 29 31  1  0  0  0  0
 31 30  1  0  0  0  0
 32 29  1  0  0  0  0
 33 15  1  1  0  0  0
 33 30  1  0  0  0  0
 34 35  1  6  0  0  0
 34 36  1  0  0  0  0
 37 38  1  0  0  0  0
 38 40  1  0  0  0  0
 40 39  1  6  0  0  0
 40 41  1  0  0  0  0
 40 43  1  0  0  0  0
 43 48  1  6  0  0  0
 43 45  1  0  0  0  0
 43 50  1  0  0  0  0
 44 46  1  0  0  0  0
 45 44  1  1  0  0  0
 45 47  1  0  0  0  0
 46 49  1  0  0  0  0
 47 42  1  1  0  0  0
 47 49  1  0  0  0  0
 49 54  1  1  0  0  0
 50 51  1  1  0  0  0
 50 47  1  0  0  0  0
 50 42  1  0  0  0  0
 51 53  1  0  0  0  0
 52 51  1  0  0  0  0
 54 55  1  0  0  0  0
M  END
>  <MODEL>
4

>  <REMARK>
 VINA RESULT:      -6.1      4.326      9.083
  Name = 
  8 active torsions:
  status: ('A' for Active; 'I' for Inactive)
    1  A    between atoms: N_1  and  C_53
    2  A    between atoms: C_6  and  C_20
    3  A    between atoms: C_8  and  N_22
    4  A    between atoms: C_8  and  C_43
    5  A    between atoms: C_10  and  C_32
    6  A    between atoms: N_11  and  C_50
    7  A    between atoms: C_20  and  N_22
    8  A    between atoms: C_33  and  C_52
                            x       y       z     vdW  Elec       q    Type
                         _______ _______ _______ _____ _____    ______ ____

>  <TORSDO>
F 8

$$$$
=
 OpenBabel10272401263D

 55 62  0  0  1  0  0  0  0  0999 V2000
  183.8420  175.3760  136.6870 O   0  0  0  0  0  0  0  0  0  0  0  0
  186.5560  178.8650  137.6920 C   0  0  0  0  0  2  0  0  0  0  0  0
  186.1790  177.6350  135.6880 O   0  0  0  0  0  0  0  0  0  0  0  0
  189.2870  175.9930  136.2540 C   0  0  0  0  0  2  0  0  0  0  0  0
  190.6770  175.4960  135.8720 C   0  0  0  0  0  2  0  0  0  0  0  0
  188.3610  173.9240  135.1990 C   0  0  0  0  0  0  0  0  0  0  0  0
  189.5580  173.8840  134.3470 C   0  0  0  0  0  3  0  0  0  0  0  0
  186.7610  176.3380  137.5490 N   0  0  0  0  0  2  0  0  0  0  0  0
  190.6220  174.6410  134.6340 C   0  0  0  0  0  3  0  0  0  0  0  0
  182.2250  177.2800  136.6840 C   0  0  0  0  0  2  0  0  0  0  0  0
  188.3550  174.7870  136.4410 C   0  0  2  0  0  3  0  0  0  0  0  0
  181.8930  176.9610  139.5080 C   0  0  1  0  0  3  0  0  0  0  0  0
  184.6470  174.3840  137.3110 C   0  0  0  0  0  2  0  0  0  0  0  0
  182.7620  176.0140  138.7190 C   0  0  0  0  0  3  0  0  0  0  0  0
  186.0800  173.2840  135.6110 C   0  0  0  0  0  0  0  0  0  0  0  0
  185.9100  178.4040  140.0550 C   0  0  0  0  0  2  0  0  0  0  0  0
  187.3140  173.2270  134.8770 N   0  0  0  0  0  0  0  0  0  0  0  0
  185.4540  178.9950  138.7360 C   0  0  0  0  0  2  0  0  0  0  0  0
  186.4530  177.5890  136.9220 C   0  0  0  0  0  0  0  0  0  0  0  0
  180.7760  177.3260  137.1760 C   0  0  0  0  0  2  0  0  0  0  0  0
  184.8750  178.6550  141.1470 C   0  0  1  0  0  3  0  0  0  0  0  0
  182.9500  176.1790  137.4000 C   0  0  0  0  0  0  0  0  0  0  0  0
  186.9850  175.1830  136.7820 N   0  0  0  0  0  0  0  0  0  0  0  0
  185.9190  174.2390  136.5530 C   0  0  0  0  0  0  0  0  0  0  0  0
  183.7210  177.6620  141.0590 C   0  0  0  0  0  2  0  0  0  0  0  0
  182.7390  178.1260  139.9740 C   0  0  0  0  0  2  0  0  0  0  0  0
  180.6910  177.5010  138.7030 C   0  0  0  0  0  2  0  0  0  0  0  0
  183.7860  173.0160  134.6350 C   0  0  0  0  0  3  0  0  0  0  0  0
  182.2360  171.3240  135.6550 C   0  0  1  0  0  3  0  0  0  0  0  0
  184.6560  171.3040  136.3100 C   0  0  0  0  0  2  0  0  0  0  0  0
  183.4820  170.4430  135.8580 C   0  0  0  0  0  2  0  0  0  0  0  0
  182.5440  172.5350  134.7980 C   0  0  0  0  0  3  0  0  0  0  0  0
  184.9960  172.3210  135.2170 C   0  0  2  0  0  3  0  0  0  0  0  0
  181.0660  170.5250  135.0660 C   0  0  1  0  0  3  0  0  0  0  0  0
  181.5040  169.1200  134.6850 C   0  0  0  0  0  1  0  0  0  0  0  0
  179.9820  170.4310  136.0310 N   0  0  0  0  0  1  0  0  0  0  0  0
  185.5430  178.5440  142.5030 C   0  0  0  0  0  2  0  0  0  0  0  0
  186.9820  178.7650  142.3630 N   0  0  0  0  0  2  0  0  0  0  0  0
  187.2560  177.2630  144.1480 O   0  0  0  0  0  1  0  0  0  0  0  0
  187.7520  177.6280  142.8920 C   0  0  1  0  0  0  0  0  0  0  0  0
  187.6270  176.5490  142.0280 F   0  0  0  0  0  0  0  0  0  0  0  0
  191.8080  177.4660  143.2050 C   0  0  0  0  0  2  0  0  0  0  0  0
  189.2300  178.0790  143.0550 C   0  0  1  0  0  0  0  0  0  0  0  0
  189.2160  178.4080  140.6140 O   0  0  0  0  0  0  0  0  0  0  0  0
  189.9000  178.6940  141.8200 C   0  0  2  0  0  3  0  0  0  0  0  0
  189.8120  177.2760  139.9950 C   0  0  0  0  0  2  0  0  0  0  0  0
  191.0390  177.7250  141.9300 C   0  0  1  0  0  0  0  0  0  0  0  0
  189.3400  178.9670  144.1360 O   0  0  0  0  0  1  0  0  0  0  0  0
  191.1050  176.8830  140.6980 C   0  0  2  0  0  3  0  0  0  0  0  0
  190.3470  177.0200  143.1440 C   0  0  1  0  0  0  0  0  0  0  0  0
  190.0270  175.5950  142.8650 N   0  0  0  0  0  0  0  0  0  0  0  0
  188.7840  175.3580  143.3470 O   0  0  0  0  0  1  0  0  0  0  0  0
  190.9040  174.6930  143.6150 C   0  0  0  0  0  1  0  0  0  0  0  0
  192.2380  177.3170  139.8950 N   0  0  0  0  0  2  0  0  0  0  0  0
  192.2040  176.5710  138.7070 N   0  0  0  0  0  1  0  0  0  0  0  0
  1 13  1  0  0  0  0
  1 22  1  0  0  0  0
  2 18  1  0  0  0  0
  3 19  2  0  0  0  0
  5  4  1  0  0  0  0
  6 11  1  0  0  0  0
  7  9  2  0  0  0  0
  7  6  1  0  0  0  0
  9  5  1  0  0  0  0
 10 20  1  0  0  0  0
 10 22  1  0  0  0  0
 11  4  1  6  0  0  0
 11 23  1  0  0  0  0
 12 27  1  6  0  0  0
 12 26  1  0  0  0  0
 14 12  1  0  0  0  0
 15 24  2  0  0  0  0
 16 21  1  0  0  0  0
 17  6  2  0  0  0  0
 17 15  1  0  0  0  0
 18 16  1  0  0  0  0
 19  8  1  0  0  0  0
 19  2  1  0  0  0  0
 20 27  1  0  0  0  0
 21 37  1  1  0  0  0
 22 14  2  0  0  0  0
 23  8  1  0  0  0  0
 24 23  1  0  0  0  0
 24 13  1  0  0  0  0
 25 21  1  0  0  0  0
 26 25  1  0  0  0  0
 28 32  2  0  0  0  0
 28 33  1  0  0  0  0
 29 34  1  6  0  0  0
 29 31  1  0  0  0  0
 31 30  1  0  0  0  0
 32 29  1  0  0  0  0
 33 15  1  1  0  0  0
 33 30  1  0  0  0  0
 34 35  1  1  0  0  0
 34 36  1  0  0  0  0
 38 37  1  0  0  0  0
 38 40  1  0  0  0  0
 40 41  1  6  0  0  0
 40 43  1  0  0  0  0
 40 39  1  0  0  0  0
 43 50  1  0  0  0  0
 43 48  1  1  0  0  0
 45 44  1  6  0  0  0
 45 47  1  0  0  0  0
 45 43  1  0  0  0  0
 46 44  1  0  0  0  0
 46 49  1  0  0  0  0
 47 50  1  0  0  0  0
 47 42  1  1  0  0  0
 49 54  1  6  0  0  0
 49 47  1  0  0  0  0
 50 51  1  6  0  0  0
 50 42  1  0  0  0  0
 51 52  1  0  0  0  0
 51 53  1  0  0  0  0
 55 54  1  0  0  0  0
M  END
>  <MODEL>
5

>  <REMARK>
 VINA RESULT:      -5.9      1.215      2.105
  Name = 
  8 active torsions:
  status: ('A' for Active; 'I' for Inactive)
    1  A    between atoms: N_1  and  C_53
    2  A    between atoms: C_6  and  C_20
    3  A    between atoms: C_8  and  N_22
    4  A    between atoms: C_8  and  C_43
    5  A    between atoms: C_10  and  C_32
    6  A    between atoms: N_11  and  C_50
    7  A    between atoms: C_20  and  N_22
    8  A    between atoms: C_33  and  C_52
                            x       y       z     vdW  Elec       q    Type
                         _______ _______ _______ _____ _____    ______ ____

>  <TORSDO>
F 8

$$$$
=
 OpenBabel10272401263D

 55 62  0  0  1  0  0  0  0  0999 V2000
  190.1990  177.1740  141.8620 O   0  0  0  0  0  0  0  0  0  0  0  0
  187.4380  178.9890  138.7580 C   0  0  0  0  0  2  0  0  0  0  0  0
  188.1790  179.7340  140.8950 O   0  0  0  0  0  0  0  0  0  0  0  0
  184.9760  178.8580  142.1780 C   0  0  0  0  0  2  0  0  0  0  0  0
  183.6790  179.1020  142.9420 C   0  0  0  0  0  2  0  0  0  0  0  0
  186.0380  178.2600  144.3610 C   0  0  0  0  0  0  0  0  0  0  0  0
  185.0380  179.1110  145.0230 C   0  0  0  0  0  3  0  0  0  0  0  0
  187.1940  177.6090  140.8760 N   0  0  0  0  0  2  0  0  0  0  0  0
  183.9600  179.5370  144.3560 C   0  0  0  0  0  3  0  0  0  0  0  0
  191.8360  178.0380  140.1850 C   0  0  0  0  0  2  0  0  0  0  0  0
  185.8150  177.8170  142.9320 C   0  0  2  0  0  3  0  0  0  0  0  0
  191.5780  175.5950  138.7190 C   0  0  1  0  0  3  0  0  0  0  0  0
  189.2570  176.2340  142.3600 C   0  0  0  0  0  2  0  0  0  0  0  0
  190.8610  175.7890  140.0320 C   0  0  0  0  0  3  0  0  0  0  0  0
  188.1680  177.1450  144.3950 C   0  0  0  0  0  0  0  0  0  0  0  0
  187.5760  176.7610  137.6500 C   0  0  0  0  0  2  0  0  0  0  0  0
  187.1090  177.9010  145.0030 N   0  0  0  0  0  0  0  0  0  0  0  0
  188.3070  178.0610  137.9210 C   0  0  0  0  0  2  0  0  0  0  0  0
  187.6590  178.7970  140.2230 C   0  0  0  0  0  0  0  0  0  0  0  0
  193.1560  177.4260  139.7080 C   0  0  0  0  0  2  0  0  0  0  0  0
  188.3740  175.8800  136.6940 C   0  0  1  0  0  3  0  0  0  0  0  0
  190.9500  176.9470  140.7070 C   0  0  0  0  0  0  0  0  0  0  0  0
  187.0980  177.5460  142.2750 N   0  0  0  0  0  0  0  0  0  0  0  0
  188.1610  176.9630  143.0560 C   0  0  0  0  0  0  0  0  0  0  0  0
  189.4930  175.1420  137.4200 C   0  0  0  0  0  2  0  0  0  0  0  0
  190.6880  176.0890  137.5990 C   0  0  0  0  0  2  0  0  0  0  0  0
  192.9330  176.3300  138.6480 C   0  0  0  0  0  2  0  0  0  0  0  0
  188.8500  176.5320  146.7280 C   0  0  0  0  0  3  0  0  0  0  0  0
  191.1080  177.2600  147.5510 C   0  0  1  0  0  3  0  0  0  0  0  0
  190.5820  177.4660  145.1090 C   0  0  0  0  0  2  0  0  0  0  0  0
  191.6140  176.9870  146.1230 C   0  0  0  0  0  2  0  0  0  0  0  0
  189.6940  176.7540  147.7480 C   0  0  0  0  0  3  0  0  0  0  0  0
  189.2830  176.6750  145.2870 C   0  0  2  0  0  3  0  0  0  0  0  0
  192.0500  176.6690  148.6080 C   0  0  1  0  0  3  0  0  0  0  0  0
  193.0910  175.7650  147.9660 C   0  0  0  0  0  1  0  0  0  0  0  0
  192.7340  177.7320  149.3270 N   0  0  0  0  0  1  0  0  0  0  0  0
  187.4410  174.8800  136.0400 C   0  0  0  0  0  2  0  0  0  0  0  0
  186.2480  174.7050  136.8670 N   0  0  0  0  0  2  0  0  0  0  0  0
  184.8500  176.2960  135.8530 O   0  0  0  0  0  1  0  0  0  0  0  0
  185.0200  174.9280  136.0900 C   0  0  1  0  0  0  0  0  0  0  0  0
  185.1230  174.2700  134.8720 F   0  0  0  0  0  0  0  0  0  0  0  0
  181.2720  173.6730  137.0690 C   0  0  0  0  0  2  0  0  0  0  0  0
  183.8160  174.4170  136.9300 C   0  0  1  0  0  0  0  0  0  0  0  0
  184.6910  172.1570  136.4870 O   0  0  0  0  0  0  0  0  0  0  0  0
  183.8140  172.9260  137.2900 C   0  0  2  0  0  3  0  0  0  0  0  0
  183.9580  171.5850  135.4120 C   0  0  0  0  0  2  0  0  0  0  0  0
  182.4350  172.7710  136.7230 C   0  0  1  0  0  0  0  0  0  0  0  0
  183.6960  175.1790  138.1010 O   0  0  0  0  0  1  0  0  0  0  0  0
  182.4600  171.7940  135.5940 C   0  0  2  0  0  3  0  0  0  0  0  0
  182.4320  174.2670  136.2690 C   0  0  1  0  0  0  0  0  0  0  0  0
  182.3060  174.4120  134.7940 N   0  0  0  0  0  0  0  0  0  0  0  0
  182.5930  175.6990  134.4890 O   0  0  0  0  0  1  0  0  0  0  0  0
  180.9230  174.2150  134.3540 C   0  0  0  0  0  1  0  0  0  0  0  0
  181.8530  170.5480  136.0370 N   0  0  0  0  0  2  0  0  0  0  0  0
  180.4660  170.7570  136.0600 N   0  0  0  0  0  1  0  0  0  0  0  0
  1 13  1  0  0  0  0
  2 19  1  0  0  0  0
  4  5  1  0  0  0  0
  5  9  1  0  0  0  0
  6 17  2  0  0  0  0
  6  7  1  0  0  0  0
  8 23  1  0  0  0  0
  9  7  2  0  0  0  0
 10 22  1  0  0  0  0
 11  4  1  6  0  0  0
 11  6  1  0  0  0  0
 12 26  1  6  0  0  0
 12 14  1  0  0  0  0
 13 24  1  0  0  0  0
 14 22  2  0  0  0  0
 15 17  1  0  0  0  0
 16 18  1  0  0  0  0
 18  2  1  0  0  0  0
 19  8  1  0  0  0  0
 19  3  2  0  0  0  0
 20 10  1  0  0  0  0
 21 37  1  1  0  0  0
 21 25  1  0  0  0  0
 21 16  1  0  0  0  0
 22  1  1  0  0  0  0
 23 11  1  0  0  0  0
 23 24  1  0  0  0  0
 24 15  2  0  0  0  0
 25 26  1  0  0  0  0
 27 12  1  0  0  0  0
 27 20  1  0  0  0  0
 28 32  2  0  0  0  0
 29 32  1  0  0  0  0
 29 34  1  1  0  0  0
 30 33  1  0  0  0  0
 30 31  1  0  0  0  0
 31 29  1  0  0  0  0
 33 15  1  6  0  0  0
 33 28  1  0  0  0  0
 34 35  1  6  0  0  0
 34 36  1  0  0  0  0
 37 38  1  0  0  0  0
 39 40  1  0  0  0  0
 40 41  1  6  0  0  0
 40 38  1  0  0  0  0
 40 43  1  0  0  0  0
 43 45  1  0  0  0  0
 43 48  1  1  0  0  0
 45 44  1  6  0  0  0
 46 49  1  0  0  0  0
 46 44  1  0  0  0  0
 47 42  1  1  0  0  0
 47 45  1  0  0  0  0
 49 54  1  1  0  0  0
 49 47  1  0  0  0  0
 50 51  1  6  0  0  0
 50 47  1  0  0  0  0
 50 43  1  0  0  0  0
 50 42  1  0  0  0  0
 52 51  1  0  0  0  0
 53 51  1  0  0  0  0
 54 55  1  0  0  0  0
M  END
>  <MODEL>
6

>  <REMARK>
 VINA RESULT:      -5.8      2.645     10.858
  Name = 
  8 active torsions:
  status: ('A' for Active; 'I' for Inactive)
    1  A    between atoms: N_1  and  C_53
    2  A    between atoms: C_6  and  C_20
    3  A    between atoms: C_8  and  N_22
    4  A    between atoms: C_8  and  C_43
    5  A    between atoms: C_10  and  C_32
    6  A    between atoms: N_11  and  C_50
    7  A    between atoms: C_20  and  N_22
    8  A    between atoms: C_33  and  C_52
                            x       y       z     vdW  Elec       q    Type
                         _______ _______ _______ _____ _____    ______ ____

>  <TORSDO>
F 8

$$$$
=
 OpenBabel10272401263D

 55 62  0  0  1  0  0  0  0  0999 V2000
  191.0830  176.7420  139.0490 O   0  0  0  0  0  0  0  0  0  0  0  0
  188.5270  177.1700  135.3300 C   0  0  0  0  0  2  0  0  0  0  0  0
  189.1400  178.6940  137.0530 O   0  0  0  0  0  0  0  0  0  0  0  0
  185.8590  178.3220  138.3840 C   0  0  0  0  0  2  0  0  0  0  0  0
  184.5200  178.8180  138.9180 C   0  0  0  0  0  2  0  0  0  0  0  0
  186.7830  178.6310  140.6870 C   0  0  0  0  0  0  0  0  0  0  0  0
  185.7490  179.6530  140.9090 C   0  0  0  0  0  3  0  0  0  0  0  0
  188.1460  176.7080  137.7970 N   0  0  0  0  0  2  0  0  0  0  0  0
  184.7160  179.7690  140.0680 C   0  0  0  0  0  3  0  0  0  0  0  0
  192.8240  176.9220  137.2680 C   0  0  0  0  0  2  0  0  0  0  0  0
  186.6450  177.6670  139.5300 C   0  0  2  0  0  3  0  0  0  0  0  0
  192.6420  174.0980  136.8460 C   0  0  1  0  0  3  0  0  0  0  0  0
  190.1060  176.0500  139.8150 C   0  0  0  0  0  2  0  0  0  0  0  0
  191.8460  174.7710  137.9370 C   0  0  0  0  0  3  0  0  0  0  0  0
  188.9000  177.6540  141.2740 C   0  0  0  0  0  0  0  0  0  0  0  0
  188.7190  174.6890  135.1770 C   0  0  0  0  0  2  0  0  0  0  0  0
  187.8100  178.5670  141.4800 N   0  0  0  0  0  0  0  0  0  0  0  0
  189.4400  176.0060  134.9680 C   0  0  0  0  0  2  0  0  0  0  0  0
  188.6560  177.5610  136.7650 C   0  0  0  0  0  0  0  0  0  0  0  0
  194.1660  176.1980  137.1420 C   0  0  0  0  0  2  0  0  0  0  0  0
  189.5690  173.5230  134.6830 C   0  0  1  0  0  3  0  0  0  0  0  0
  191.9010  176.1000  138.1170 C   0  0  0  0  0  0  0  0  0  0  0  0
  187.9640  177.1870  139.1040 N   0  0  0  0  0  0  0  0  0  0  0  0
  188.9740  176.9700  140.1110 C   0  0  0  0  0  0  0  0  0  0  0  0
  190.6370  173.1420  135.7020 C   0  0  0  0  0  2  0  0  0  0  0  0
  191.8240  174.1060  135.5720 C   0  0  0  0  0  2  0  0  0  0  0  0
  194.0030  174.7750  136.5760 C   0  0  0  0  0  2  0  0  0  0  0  0
  190.1980  176.1740  142.8260 C   0  0  0  0  0  3  0  0  0  0  0  0
  190.6400  176.9780  145.1640 C   0  0  1  0  0  3  0  0  0  0  0  0
  189.7460  178.5970  143.4720 C   0  0  0  0  0  2  0  0  0  0  0  0
  190.8010  178.3810  144.5510 C   0  0  0  0  0  2  0  0  0  0  0  0
  190.5530  175.9090  144.0930 C   0  0  0  0  0  3  0  0  0  0  0  0
  189.9550  177.5840  142.3420 C   0  0  2  0  0  3  0  0  0  0  0  0
  191.7660  176.6610  146.1570 C   0  0  1  0  0  3  0  0  0  0  0  0
  191.2800  176.7940  147.5910 C   0  0  0  0  0  1  0  0  0  0  0  0
  192.2540  175.3060  145.9530 N   0  0  0  0  0  1  0  0  0  0  0  0
  188.6720  172.3310  134.4120 C   0  0  0  0  0  2  0  0  0  0  0  0
  187.8290  172.0730  135.5790 N   0  0  0  0  0  2  0  0  0  0  0  0
  186.2410  173.2890  134.3470 O   0  0  0  0  0  1  0  0  0  0  0  0
  186.4040  172.2390  135.2560 C   0  0  1  0  0  0  0  0  0  0  0  0
  185.9250  171.0690  134.6830 F   0  0  0  0  0  0  0  0  0  0  0  0
  183.9190  174.1340  137.8670 C   0  0  0  0  0  2  0  0  0  0  0  0
  185.6500  172.5980  136.5670 C   0  0  1  0  0  0  0  0  0  0  0  0
  183.9850  170.9250  135.8620 O   0  0  0  0  0  0  0  0  0  0  0  0
  184.4650  171.7010  136.9450 C   0  0  2  0  0  3  0  0  0  0  0  0
  182.8890  171.5960  135.2550 C   0  0  0  0  0  2  0  0  0  0  0  0
  183.5720  172.8990  137.0680 C   0  0  1  0  0  0  0  0  0  0  0  0
  186.5560  172.6480  137.6380 O   0  0  0  0  0  1  0  0  0  0  0  0
  182.4520  172.7960  136.0860 C   0  0  2  0  0  3  0  0  0  0  0  0
  184.7350  173.8380  136.6090 C   0  0  1  0  0  0  0  0  0  0  0  0
  184.4200  174.5560  135.3450 N   0  0  0  0  0  0  0  0  0  0  0  0
  185.4760  175.3510  135.0570 O   0  0  0  0  0  1  0  0  0  0  0  0
  183.2900  175.4710  135.5180 C   0  0  0  0  0  1  0  0  0  0  0  0
  181.2290  172.4630  136.8010 N   0  0  0  0  0  2  0  0  0  0  0  0
  180.9670  171.1080  136.5490 N   0  0  0  0  0  1  0  0  0  0  0  0
  1 13  1  0  0  0  0
  2 19  1  0  0  0  0
  4  5  1  0  0  0  0
  5  9  1  0  0  0  0
  6  7  1  0  0  0  0
  6 17  2  0  0  0  0
  8 23  1  0  0  0  0
  9  7  2  0  0  0  0
 10 22  1  0  0  0  0
 11  4  1  6  0  0  0
 11  6  1  0  0  0  0
 12 26  1  6  0  0  0
 12 14  1  0  0  0  0
 13 24  1  0  0  0  0
 14 22  2  0  0  0  0
 15 17  1  0  0  0  0
 18 16  1  0  0  0  0
 18  2  1  0  0  0  0
 19  3  2  0  0  0  0
 19  8  1  0  0  0  0
 20 10  1  0  0  0  0
 21 37  1  1  0  0  0
 21 16  1  0  0  0  0
 21 25  1  0  0  0  0
 22  1  1  0  0  0  0
 23 11  1  0  0  0  0
 23 24  1  0  0  0  0
 24 15  2  0  0  0  0
 26 25  1  0  0  0  0
 27 12  1  0  0  0  0
 27 20  1  0  0  0  0
 28 32  2  0  0  0  0
 29 34  1  1  0  0  0
 30 31  1  0  0  0  0
 31 29  1  0  0  0  0
 32 29  1  0  0  0  0
 33 15  1  6  0  0  0
 33 28  1  0  0  0  0
 33 30  1  0  0  0  0
 34 35  1  1  0  0  0
 36 34  1  0  0  0  0
 37 38  1  0  0  0  0
 40 39  1  6  0  0  0
 40 38  1  0  0  0  0
 40 43  1  0  0  0  0
 41 40  1  0  0  0  0
 43 50  1  0  0  0  0
 43 45  1  0  0  0  0
 43 48  1  1  0  0  0
 45 44  1  6  0  0  0
 45 47  1  0  0  0  0
 46 44  1  0  0  0  0
 46 49  1  0  0  0  0
 47 42  1  1  0  0  0
 49 54  1  1  0  0  0
 49 47  1  0  0  0  0
 50 51  1  6  0  0  0
 50 47  1  0  0  0  0
 50 42  1  0  0  0  0
 51 53  1  0  0  0  0
 52 51  1  0  0  0  0
 55 54  1  0  0  0  0
M  END
>  <MODEL>
7

>  <REMARK>
 VINA RESULT:      -5.2      2.901     10.283
  Name = 
  8 active torsions:
  status: ('A' for Active; 'I' for Inactive)
    1  A    between atoms: N_1  and  C_53
    2  A    between atoms: C_6  and  C_20
    3  A    between atoms: C_8  and  N_22
    4  A    between atoms: C_8  and  C_43
    5  A    between atoms: C_10  and  C_32
    6  A    between atoms: N_11  and  C_50
    7  A    between atoms: C_20  and  N_22
    8  A    between atoms: C_33  and  C_52
                            x       y       z     vdW  Elec       q    Type
                         _______ _______ _______ _____ _____    ______ ____

>  <TORSDO>
F 8

$$$$
=
 OpenBabel10272401263D

 55 62  0  0  1  0  0  0  0  0999 V2000
  188.9480  177.3870  138.7970 O   0  0  0  0  0  0  0  0  0  0  0  0
  186.9660  176.9890  134.7400 C   0  0  0  0  0  2  0  0  0  0  0  0
  187.2210  178.8200  136.2420 O   0  0  0  0  0  0  0  0  0  0  0  0
  183.8030  178.3980  137.1460 C   0  0  0  0  0  2  0  0  0  0  0  0
  182.3720  178.8620  137.3930 C   0  0  0  0  0  2  0  0  0  0  0  0
  184.3470  179.1540  139.4660 C   0  0  0  0  0  0  0  0  0  0  0  0
  183.2340  180.1100  139.3610 C   0  0  0  0  0  3  0  0  0  0  0  0
  186.2430  176.9060  137.1730 N   0  0  0  0  0  2  0  0  0  0  0  0
  182.3360  180.0010  138.3770 C   0  0  0  0  0  3  0  0  0  0  0  0
  190.9260  177.4180  137.2730 C   0  0  0  0  0  2  0  0  0  0  0  0
  184.4430  178.0070  138.4860 C   0  0  2  0  0  3  0  0  0  0  0  0
  190.9750  174.5580  137.3260 C   0  0  1  0  0  3  0  0  0  0  0  0
  187.9080  176.7500  139.5280 C   0  0  0  0  0  2  0  0  0  0  0  0
  189.9850  175.3320  138.1620 C   0  0  0  0  0  3  0  0  0  0  0  0
  186.4040  178.4650  140.5030 C   0  0  0  0  0  0  0  0  0  0  0  0
  187.3230  174.5420  135.0490 C   0  0  0  0  0  2  0  0  0  0  0  0
  185.2440  179.3060  140.3930 N   0  0  0  0  0  0  0  0  0  0  0  0
  187.9900  175.8620  134.7170 C   0  0  0  0  0  2  0  0  0  0  0  0
  186.8530  177.6190  136.0900 C   0  0  0  0  0  0  0  0  0  0  0  0
  192.3120  176.7970  137.4640 C   0  0  0  0  0  2  0  0  0  0  0  0
  188.3040  173.3850  134.8880 C   0  0  1  0  0  3  0  0  0  0  0  0
  189.9340  176.6720  138.1150 C   0  0  0  0  0  0  0  0  0  0  0  0
  185.8370  177.5750  138.3390 N   0  0  0  0  0  0  0  0  0  0  0  0
  186.6930  177.6100  139.4990 C   0  0  0  0  0  0  0  0  0  0  0  0
  189.2260  173.2660  136.0970 C   0  0  0  0  0  2  0  0  0  0  0  0
  190.3610  174.2910  135.9690 C   0  0  0  0  0  2  0  0  0  0  0  0
  192.3190  175.2920  137.1360 C   0  0  0  0  0  2  0  0  0  0  0  0
  188.7510  178.7530  141.3390 C   0  0  0  0  0  3  0  0  0  0  0  0
  189.4260  177.5790  143.4530 C   0  0  1  0  0  3  0  0  0  0  0  0
  186.9970  177.6730  142.8390 C   0  0  0  0  0  2  0  0  0  0  0  0
  188.0050  177.8800  143.9640 C   0  0  0  0  0  2  0  0  0  0  0  0
  189.7170  178.3040  142.1550 C   0  0  0  0  0  3  0  0  0  0  0  0
  187.2870  178.6590  141.7040 C   0  0  2  0  0  3  0  0  0  0  0  0
  190.4890  177.9080  144.5090 C   0  0  1  0  0  3  0  0  0  0  0  0
  191.3870  176.7080  144.7700 C   0  0  0  0  0  1  0  0  0  0  0  0
  191.3140  179.0210  144.0660 N   0  0  0  0  0  1  0  0  0  0  0  0
  187.5290  172.0950  134.7050 C   0  0  0  0  0  2  0  0  0  0  0  0
  186.7990  171.7810  135.9320 N   0  0  0  0  0  2  0  0  0  0  0  0
  185.0500  172.0700  134.3920 O   0  0  0  0  0  1  0  0  0  0  0  0
  185.3640  171.5910  135.6680 C   0  0  1  0  0  0  0  0  0  0  0  0
  185.0620  170.2380  135.7270 F   0  0  0  0  0  0  0  0  0  0  0  0
  182.8760  174.3820  137.2800 C   0  0  0  0  0  2  0  0  0  0  0  0
  184.5660  172.4140  136.7170 C   0  0  1  0  0  0  0  0  0  0  0  0
  182.8310  170.6780  136.5020 O   0  0  0  0  0  0  0  0  0  0  0  0
  183.3030  171.7580  137.2870 C   0  0  2  0  0  3  0  0  0  0  0  0
  181.8200  171.1490  135.6210 C   0  0  0  0  0  2  0  0  0  0  0  0
  182.4890  172.9640  136.9270 C   0  0  1  0  0  0  0  0  0  0  0  0
  185.4130  172.7900  137.7710 O   0  0  0  0  0  1  0  0  0  0  0  0
  181.4200  172.5800  135.9570 C   0  0  2  0  0  3  0  0  0  0  0  0
  183.7380  173.6330  136.2630 C   0  0  1  0  0  0  0  0  0  0  0  0
  183.5420  173.8840  134.8110 N   0  0  0  0  0  0  0  0  0  0  0  0
  184.5820  174.6400  134.3880 O   0  0  0  0  0  1  0  0  0  0  0  0
  182.3530  174.7020  134.5650 C   0  0  0  0  0  1  0  0  0  0  0  0
  180.1400  172.5700  136.6490 N   0  0  0  0  0  2  0  0  0  0  0  0
  179.9840  171.2880  137.1980 N   0  0  0  0  0  1  0  0  0  0  0  0
  1 13  1  0  0  0  0
  2 19  1  0  0  0  0
  4  5  1  0  0  0  0
  5  9  1  0  0  0  0
  6 17  2  0  0  0  0
  7  6  1  0  0  0  0
  8 23  1  0  0  0  0
  9  7  2  0  0  0  0
 10 20  1  0  0  0  0
 10 22  1  0  0  0  0
 11  4  1  6  0  0  0
 11  6  1  0  0  0  0
 12 26  1  6  0  0  0
 12 14  1  0  0  0  0
 17 15  1  0  0  0  0
 18  2  1  0  0  0  0
 18 16  1  0  0  0  0
 19  3  2  0  0  0  0
 19  8  1  0  0  0  0
 21 37  1  1  0  0  0
 21 16  1  0  0  0  0
 21 25  1  0  0  0  0
 22 14  2  0  0  0  0
 22  1  1  0  0  0  0
 23 11  1  0  0  0  0
 23 24  1  0  0  0  0
 24 13  1  0  0  0  0
 24 15  2  0  0  0  0
 26 25  1  0  0  0  0
 27 12  1  0  0  0  0
 27 20  1  0  0  0  0
 28 33  1  0  0  0  0
 28 32  2  0  0  0  0
 29 31  1  0  0  0  0
 29 34  1  1  0  0  0
 30 31  1  0  0  0  0
 32 29  1  0  0  0  0
 33 15  1  6  0  0  0
 33 30  1  0  0  0  0
 34 35  1  6  0  0  0
 36 34  1  0  0  0  0
 37 38  1  0  0  0  0
 40 39  1  6  0  0  0
 40 41  1  0  0  0  0
 40 38  1  0  0  0  0
 40 43  1  0  0  0  0
 43 45  1  0  0  0  0
 43 48  1  1  0  0  0
 45 44  1  6  0  0  0
 46 49  1  0  0  0  0
 46 44  1  0  0  0  0
 47 42  1  1  0  0  0
 47 45  1  0  0  0  0
 49 54  1  1  0  0  0
 49 47  1  0  0  0  0
 50 51  1  6  0  0  0
 50 43  1  0  0  0  0
 50 47  1  0  0  0  0
 50 42  1  0  0  0  0
 52 51  1  0  0  0  0
 53 51  1  0  0  0  0
 54 55  1  0  0  0  0
M  END
>  <MODEL>
8

>  <REMARK>
 VINA RESULT:      -5.0      2.752      9.935
  Name = 
  8 active torsions:
  status: ('A' for Active; 'I' for Inactive)
    1  A    between atoms: N_1  and  C_53
    2  A    between atoms: C_6  and  C_20
    3  A    between atoms: C_8  and  N_22
    4  A    between atoms: C_8  and  C_43
    5  A    between atoms: C_10  and  C_32
    6  A    between atoms: N_11  and  C_50
    7  A    between atoms: C_20  and  N_22
    8  A    between atoms: C_33  and  C_52
                            x       y       z     vdW  Elec       q    Type
                         _______ _______ _______ _____ _____    ______ ____

>  <TORSDO>
F 8

$$$$
=
 OpenBabel10272401263D

 55 62  0  0  1  0  0  0  0  0999 V2000
  189.9600  177.1180  141.7270 O   0  0  0  0  0  0  0  0  0  0  0  0
  186.8780  179.0070  138.9910 C   0  0  0  0  0  2  0  0  0  0  0  0
  187.8540  179.7010  141.0490 O   0  0  0  0  0  0  0  0  0  0  0  0
  184.8090  178.7990  142.6580 C   0  0  0  0  0  2  0  0  0  0  0  0
  183.6060  179.0260  143.5660 C   0  0  0  0  0  2  0  0  0  0  0  0
  186.1050  178.1500  144.6950 C   0  0  0  0  0  0  0  0  0  0  0  0
  185.1870  178.9870  145.4830 C   0  0  0  0  0  3  0  0  0  0  0  0
  186.8660  177.5790  141.0900 N   0  0  0  0  0  2  0  0  0  0  0  0
  184.0430  179.4280  144.9500 C   0  0  0  0  0  3  0  0  0  0  0  0
  191.4040  178.0190  139.8990 C   0  0  0  0  0  2  0  0  0  0  0  0
  185.7240  177.7400  143.2910 C   0  0  2  0  0  3  0  0  0  0  0  0
  190.9770  175.6100  138.4160 C   0  0  1  0  0  3  0  0  0  0  0  0
  189.0750  176.1680  142.3050 C   0  0  0  0  0  2  0  0  0  0  0  0
  190.4100  175.7750  139.8040 C   0  0  0  0  0  3  0  0  0  0  0  0
  188.2220  177.0320  144.4680 C   0  0  0  0  0  0  0  0  0  0  0  0
  186.8850  176.8050  137.8230 C   0  0  0  0  0  2  0  0  0  0  0  0
  187.2390  177.7750  145.2070 N   0  0  0  0  0  0  0  0  0  0  0  0
  187.6470  178.0970  138.0410 C   0  0  0  0  0  2  0  0  0  0  0  0
  187.2590  178.7810  140.4170 C   0  0  0  0  0  0  0  0  0  0  0  0
  192.6600  177.4170  139.2650 C   0  0  0  0  0  2  0  0  0  0  0  0
  187.5700  175.9460  136.7650 C   0  0  1  0  0  3  0  0  0  0  0  0
  190.5770  176.9170  140.4910 C   0  0  0  0  0  0  0  0  0  0  0  0
  186.9250  177.4830  142.4900 N   0  0  0  0  0  0  0  0  0  0  0  0
  188.0660  176.8810  143.1350 C   0  0  0  0  0  0  0  0  0  0  0  0
  188.7590  175.1900  137.3460 C   0  0  0  0  0  2  0  0  0  0  0  0
  189.9700  176.1310  137.4130 C   0  0  0  0  0  2  0  0  0  0  0  0
  192.3190  176.3460  138.2120 C   0  0  0  0  0  2  0  0  0  0  0  0
  189.2150  176.5420  146.7170 C   0  0  0  0  0  3  0  0  0  0  0  0
  191.6190  177.1430  147.1260 C   0  0  1  0  0  3  0  0  0  0  0  0
  190.7330  177.2070  144.7820 C   0  0  0  0  0  2  0  0  0  0  0  0
  191.8750  176.7220  145.6670 C   0  0  0  0  0  2  0  0  0  0  0  0
  190.2210  176.7700  147.5760 C   0  0  0  0  0  3  0  0  0  0  0  0
  189.4260  176.5410  145.2210 C   0  0  2  0  0  3  0  0  0  0  0  0
  192.6710  176.5570  148.0770 C   0  0  1  0  0  3  0  0  0  0  0  0
  192.6760  177.2980  149.4050 C   0  0  0  0  0  1  0  0  0  0  0  0
  192.3970  175.1500  148.3290 N   0  0  0  0  0  1  0  0  0  0  0  0
  186.5660  174.9610  136.1950 C   0  0  0  0  0  2  0  0  0  0  0  0
  185.2180  175.3260  136.6290 N   0  0  0  0  0  2  0  0  0  0  0  0
  184.7780  173.1110  135.9830 O   0  0  0  0  0  1  0  0  0  0  0  0
  184.3870  174.1330  136.8540 C   0  0  1  0  0  0  0  0  0  0  0  0
  184.5550  173.6990  138.1620 F   0  0  0  0  0  0  0  0  0  0  0  0
  180.8680  176.1810  136.8220 C   0  0  0  0  0  2  0  0  0  0  0  0
  182.9100  174.5080  136.5480 C   0  0  1  0  0  0  0  0  0  0  0  0
  183.7820  175.5470  134.4920 O   0  0  0  0  0  0  0  0  0  0  0  0
  182.6210  175.0800  135.1550 C   0  0  2  0  0  3  0  0  0  0  0  0
  183.9100  176.9470  134.7050 C   0  0  0  0  0  2  0  0  0  0  0  0
  181.9420  176.2700  135.7620 C   0  0  1  0  0  0  0  0  0  0  0  0
  182.0810  173.3990  136.7780 O   0  0  0  0  0  1  0  0  0  0  0  0
  182.6640  177.5170  135.3710 C   0  0  2  0  0  3  0  0  0  0  0  0
  182.2880  175.7590  137.1990 C   0  0  1  0  0  0  0  0  0  0  0  0
  183.1600  176.7060  137.9430 N   0  0  0  0  0  0  0  0  0  0  0  0
  183.3660  176.1840  139.1750 O   0  0  0  0  0  1  0  0  0  0  0  0
  182.4840  177.9830  138.1790 C   0  0  0  0  0  1  0  0  0  0  0  0
  181.8720  178.2270  134.3780 N   0  0  0  0  0  2  0  0  0  0  0  0
  181.1600  179.2240  135.0620 N   0  0  0  0  0  1  0  0  0  0  0  0
  1 13  1  0  0  0  0
  2 19  1  0  0  0  0
  4  5  1  0  0  0  0
  5  9  1  0  0  0  0
  6 17  2  0  0  0  0
  6  7  1  0  0  0  0
  8 23  1  0  0  0  0
  9  7  2  0  0  0  0
 10 22  1  0  0  0  0
 11  4  1  6  0  0  0
 11  6  1  0  0  0  0
 12 26  1  6  0  0  0
 12 14  1  0  0  0  0
 13 24  1  0  0  0  0
 14 22  2  0  0  0  0
 15 17  1  0  0  0  0
 16 18  1  0  0  0  0
 18  2  1  0  0  0  0
 19  3  2  0  0  0  0
 19  8  1  0  0  0  0
 20 10  1  0  0  0  0
 21 37  1  1  0  0  0
 21 25  1  0  0  0  0
 21 16  1  0  0  0  0
 22  1  1  0  0  0  0
 23 24  1  0  0  0  0
 23 11  1  0  0  0  0
 24 15  2  0  0  0  0
 25 26  1  0  0  0  0
 27 12  1  0  0  0  0
 27 20  1  0  0  0  0
 28 32  2  0  0  0  0
 29 32  1  0  0  0  0
 29 34  1  1  0  0  0
 30 33  1  0  0  0  0
 30 31  1  0  0  0  0
 31 29  1  0  0  0  0
 33 15  1  6  0  0  0
 33 28  1  0  0  0  0
 34 36  1  0  0  0  0
 34 35  1  1  0  0  0
 37 38  1  0  0  0  0
 38 40  1  0  0  0  0
 40 39  1  6  0  0  0
 40 41  1  0  0  0  0
 42 50  1  0  0  0  0
 43 48  1  1  0  0  0
 43 40  1  0  0  0  0
 43 50  1  0  0  0  0
 44 46  1  0  0  0  0
 45 44  1  1  0  0  0
 45 47  1  0  0  0  0
 45 43  1  0  0  0  0
 46 49  1  0  0  0  0
 47 42  1  6  0  0  0
 47 50  1  0  0  0  0
 49 54  1  6  0  0  0
 49 47  1  0  0  0  0
 50 51  1  1  0  0  0
 51 53  1  0  0  0  0
 51 52  1  0  0  0  0
 54 55  1  0  0  0  0
M  END
>  <MODEL>
9

>  <REMARK>
 VINA RESULT:      -4.7      2.779     10.613
  Name = 
  8 active torsions:
  status: ('A' for Active; 'I' for Inactive)
    1  A    between atoms: N_1  and  C_53
    2  A    between atoms: C_6  and  C_20
    3  A    between atoms: C_8  and  N_22
    4  A    between atoms: C_8  and  C_43
    5  A    between atoms: C_10  and  C_32
    6  A    between atoms: N_11  and  C_50
    7  A    between atoms: C_20  and  N_22
    8  A    between atoms: C_33  and  C_52
                            x       y       z     vdW  Elec       q    Type
                         _______ _______ _______ _____ _____    ______ ____

>  <TORSDO>
F 8

$$$$
