=
 OpenBabel10272400573D

 27 30  0  0  1  0  0  0  0  0999 V2000
  188.2110  176.8780  143.7870 C   0  0  0  0  0  3  0  0  0  0  0  0
  186.1270  178.1320  144.3350 C   0  0  0  0  0  0  0  0  0  0  0  0
  186.5190  178.6140  141.9450 C   0  0  0  0  0  3  0  0  0  0  0  0
  181.9270  179.3230  143.1550 S   0  0  0  0  0  0  0  0  0  0  0  0
  181.0890  178.5420  140.5890 C   0  0  0  0  0  1  0  0  0  0  0  0
  185.2660  178.8610  145.3110 C   0  0  0  0  0  3  0  0  0  0  0  0
  183.4350  178.1110  141.5440 C   0  0  0  0  0  0  0  0  0  0  0  0
  183.9510  177.3970  140.3390 C   0  0  0  0  0  1  0  0  0  0  0  0
  184.1950  178.3330  142.7050 C   0  0  0  0  0  0  0  0  0  0  0  0
  187.3260  177.6230  144.7190 C   0  0  0  0  0  0  0  0  0  0  0  0
  182.1410  178.6170  141.6400 C   0  0  0  0  0  0  0  0  0  0  0  0
  183.4840  178.9940  143.6910 C   0  0  0  0  0  0  0  0  0  0  0  0
  188.4040  177.1090  142.4790 C   0  0  0  0  0  0  0  0  0  0  0  0
  185.6280  177.9110  142.9130 C   0  0  2  0  0  3  0  0  0  0  0  0
  184.0320  179.2730  145.0150 C   0  0  0  0  0  3  0  0  0  0  0  0
  187.7850  178.2450  141.7460 C   0  0  0  0  0  0  0  0  0  0  0  0
  188.7590  177.9660  148.7130 N   0  0  0  0  0  0  0  0  0  0  0  0
  187.8100  177.7150  146.1210 C   0  0  0  0  0  0  0  0  0  0  0  0
  186.9500  178.0990  147.1600 C   0  0  0  0  0  3  0  0  0  0  0  0
  187.4460  178.2140  148.4600 C   0  0  0  0  0  3  0  0  0  0  0  0
  189.6180  177.6080  147.7230 C   0  0  0  0  0  3  0  0  0  0  0  0
  189.1610  177.4810  146.4100 C   0  0  0  0  0  3  0  0  0  0  0  0
  189.4100  176.2550  141.7810 C   0  0  0  0  0  2  0  0  0  0  0  0
  190.0670  175.4420  142.7070 O   0  0  0  0  0  1  0  0  0  0  0  0
  188.5610  178.9580  140.6870 C   0  0  0  0  0  2  0  0  0  0  0  0
  188.2180  178.4050  139.3160 C   0  0  0  0  0  2  0  0  0  0  0  0
  188.8730  179.1500  138.3370 O   0  0  0  0  0  1  0  0  0  0  0  0
  1 10  1  0  0  0  0
  2 10  2  0  0  0  0
  2  6  1  0  0  0  0
  4 12  1  0  0  0  0
  5 11  1  0  0  0  0
  7 11  2  0  0  0  0
  7  9  1  0  0  0  0
  8  7  1  0  0  0  0
  9 14  1  0  0  0  0
  9 12  2  0  0  0  0
 10 18  1  0  0  0  0
 11  4  1  0  0  0  0
 12 15  1  0  0  0  0
 13  1  2  0  0  0  0
 14  3  1  6  0  0  0
 14  2  1  0  0  0  0
 15  6  2  0  0  0  0
 16  3  2  0  0  0  0
 16 13  1  0  0  0  0
 18 22  2  0  0  0  0
 18 19  1  0  0  0  0
 19 20  2  0  0  0  0
 20 17  1  0  0  0  0
 21 17  2  0  0  0  0
 22 21  1  0  0  0  0
 23 13  1  0  0  0  0
 23 24  1  0  0  0  0
 25 16  1  0  0  0  0
 26 25  1  0  0  0  0
 27 26  1  0  0  0  0
M  END
>  <MODEL>
1

>  <REMARK>
 VINA RESULT:      -9.5      0.000      0.000
  Name = 
  4 active torsions:
  status: ('A' for Active; 'I' for Inactive)
    1  A    between atoms: C_9  and  C_15
    2  A    between atoms: C_10  and  C_20
    3  A    between atoms: C_18  and  C_22
    4  A    between atoms: C_20  and  C_26
                            x       y       z     vdW  Elec       q    Type
                         _______ _______ _______ _____ _____    ______ ____

>  <TORSDO>
F 4

$$$$
=
 OpenBabel10272400573D

 27 30  0  0  1  0  0  0  0  0999 V2000
  187.2130  177.3590  144.3320 C   0  0  0  0  0  3  0  0  0  0  0  0
  186.9490  178.0710  141.9560 C   0  0  0  0  0  0  0  0  0  0  0  0
  189.3550  178.3770  142.4220 C   0  0  0  0  0  3  0  0  0  0  0  0
  188.5080  177.9770  137.7130 S   0  0  0  0  0  0  0  0  0  0  0  0
  190.9970  176.7280  137.3310 C   0  0  0  0  0  1  0  0  0  0  0  0
  186.1250  178.6480  140.8550 C   0  0  0  0  0  3  0  0  0  0  0  0
  189.8630  177.0370  139.6160 C   0  0  0  0  0  0  0  0  0  0  0  0
  190.9360  176.3580  140.4010 C   0  0  0  0  0  1  0  0  0  0  0  0
  188.6980  177.5770  140.1890 C   0  0  1  0  0  3  0  0  0  0  0  0
  186.4350  177.9410  143.2070 C   0  0  0  0  0  0  0  0  0  0  0  0
  189.9050  177.1920  138.2320 C   0  0  0  0  0  0  0  0  0  0  0  0
  187.8470  178.1300  139.2490 C   0  0  0  0  0  0  0  0  0  0  0  0
  188.5270  177.4890  144.5740 C   0  0  0  0  0  0  0  0  0  0  0  0
  188.3570  177.5730  141.6580 C   0  0  0  0  0  0  0  0  0  0  0  0
  186.5400  178.6860  139.5890 C   0  0  0  0  0  3  0  0  0  0  0  0
  189.4330  178.3350  143.7530 C   0  0  0  0  0  0  0  0  0  0  0  0
  182.4410  179.0860  144.1320 N   0  0  0  0  0  0  0  0  0  0  0  0
  185.0320  178.3090  143.5260 C   0  0  0  0  0  0  0  0  0  0  0  0
  184.0540  178.3700  142.5230 C   0  0  0  0  0  3  0  0  0  0  0  0
  182.7530  178.7580  142.8500 C   0  0  0  0  0  3  0  0  0  0  0  0
  183.3720  179.0510  145.1210 C   0  0  0  0  0  3  0  0  0  0  0  0
  184.6840  178.6680  144.8350 C   0  0  0  0  0  3  0  0  0  0  0  0
  189.0500  176.8600  145.8220 C   0  0  0  0  0  2  0  0  0  0  0  0
  188.4480  177.4420  146.9380 O   0  0  0  0  0  1  0  0  0  0  0  0
  190.5280  179.1080  144.4110 C   0  0  0  0  0  2  0  0  0  0  0  0
  191.8820  178.6430  143.9070 C   0  0  0  0  0  2  0  0  0  0  0  0
  191.9940  177.2650  144.0770 O   0  0  0  0  0  1  0  0  0  0  0  0
  1 13  1  0  0  0  0
  2 10  1  0  0  0  0
  3 16  1  0  0  0  0
  4 11  1  0  0  0  0
  4 12  1  0  0  0  0
  5 11  1  0  0  0  0
  6  2  2  0  0  0  0
  7  9  1  0  0  0  0
  7  8  1  0  0  0  0
  9 12  1  6  0  0  0
  9 14  1  0  0  0  0
 10 18  1  0  0  0  0
 10  1  2  0  0  0  0
 11  7  2  0  0  0  0
 12 15  2  0  0  0  0
 13 23  1  0  0  0  0
 14  2  1  0  0  0  0
 14  3  2  0  0  0  0
 15  6  1  0  0  0  0
 16 25  1  0  0  0  0
 16 13  2  0  0  0  0
 17 21  1  0  0  0  0
 18 22  1  0  0  0  0
 19 20  1  0  0  0  0
 19 18  2  0  0  0  0
 20 17  2  0  0  0  0
 22 21  2  0  0  0  0
 23 24  1  0  0  0  0
 26 27  1  0  0  0  0
 26 25  1  0  0  0  0
M  END
>  <MODEL>
2

>  <REMARK>
 VINA RESULT:      -8.1      3.037      5.749
  Name = 
  4 active torsions:
  status: ('A' for Active; 'I' for Inactive)
    1  A    between atoms: C_9  and  C_15
    2  A    between atoms: C_10  and  C_20
    3  A    between atoms: C_18  and  C_22
    4  A    between atoms: C_20  and  C_26
                            x       y       z     vdW  Elec       q    Type
                         _______ _______ _______ _____ _____    ______ ____

>  <TORSDO>
F 4

$$$$
=
 OpenBabel10272400573D

 27 30  0  0  1  0  0  0  0  0999 V2000
  188.7720  176.7940  144.3850 C   0  0  0  0  0  3  0  0  0  0  0  0
  187.6310  177.8250  142.4220 C   0  0  0  0  0  0  0  0  0  0  0  0
  190.0340  177.9450  141.8650 C   0  0  0  0  0  3  0  0  0  0  0  0
  187.2960  178.2130  137.9290 S   0  0  0  0  0  0  0  0  0  0  0  0
  189.2690  176.9020  136.4190 C   0  0  0  0  0  1  0  0  0  0  0  0
  186.4910  178.5830  141.8310 C   0  0  0  0  0  3  0  0  0  0  0  0
  189.2100  176.9630  138.9870 C   0  0  0  0  0  0  0  0  0  0  0  0
  190.4350  176.1340  139.1790 C   0  0  0  0  0  1  0  0  0  0  0  0
  188.4430  177.4810  140.0450 C   0  0  1  0  0  3  0  0  0  0  0  0
  187.6640  177.5570  143.7540 C   0  0  0  0  0  0  0  0  0  0  0  0
  188.6960  177.2970  137.7350 C   0  0  0  0  0  0  0  0  0  0  0  0
  187.3410  178.1960  139.6080 C   0  0  0  0  0  0  0  0  0  0  0  0
  190.0750  176.8250  144.0660 C   0  0  0  0  0  0  0  0  0  0  0  0
  188.7350  177.3000  141.5140 C   0  0  0  0  0  0  0  0  0  0  0  0
  186.3520  178.7670  140.5170 C   0  0  0  0  0  3  0  0  0  0  0  0
  190.6460  177.7240  143.0290 C   0  0  0  0  0  0  0  0  0  0  0  0
  184.5430  178.7670  146.3820 N   0  0  0  0  0  0  0  0  0  0  0  0
  186.5600  177.9510  144.6660 C   0  0  0  0  0  0  0  0  0  0  0  0
  185.2990  178.3050  144.1650 C   0  0  0  0  0  3  0  0  0  0  0  0
  184.2940  178.7080  145.0470 C   0  0  0  0  0  3  0  0  0  0  0  0
  185.7600  178.4450  146.8940 C   0  0  0  0  0  3  0  0  0  0  0  0
  186.7910  178.0370  146.0450 C   0  0  0  0  0  3  0  0  0  0  0  0
  190.9980  176.0100  144.9110 C   0  0  0  0  0  2  0  0  0  0  0  0
  191.0690  176.5510  146.1950 O   0  0  0  0  0  1  0  0  0  0  0  0
  191.9870  178.3470  143.2410 C   0  0  0  0  0  2  0  0  0  0  0  0
  191.9240  179.3720  144.3590 C   0  0  0  0  0  2  0  0  0  0  0  0
  190.8790  180.2600  144.1170 O   0  0  0  0  0  1  0  0  0  0  0  0
  2 10  1  0  0  0  0
  3 16  1  0  0  0  0
  4 12  1  0  0  0  0
  5 11  1  0  0  0  0
  6  2  2  0  0  0  0
  7  8  1  0  0  0  0
  9  7  1  1  0  0  0
  9 14  1  0  0  0  0
 10  1  2  0  0  0  0
 10 18  1  0  0  0  0
 11  4  1  0  0  0  0
 11  7  2  0  0  0  0
 12  9  1  0  0  0  0
 12 15  2  0  0  0  0
 13  1  1  0  0  0  0
 13 23  1  0  0  0  0
 14  3  2  0  0  0  0
 14  2  1  0  0  0  0
 15  6  1  0  0  0  0
 16 25  1  0  0  0  0
 16 13  2  0  0  0  0
 17 21  1  0  0  0  0
 18 22  1  0  0  0  0
 19 18  2  0  0  0  0
 19 20  1  0  0  0  0
 20 17  2  0  0  0  0
 22 21  2  0  0  0  0
 23 24  1  0  0  0  0
 25 26  1  0  0  0  0
 27 26  1  0  0  0  0
M  END
>  <MODEL>
3

>  <REMARK>
 VINA RESULT:      -8.0      2.962      4.883
  Name = 
  4 active torsions:
  status: ('A' for Active; 'I' for Inactive)
    1  A    between atoms: C_9  and  C_15
    2  A    between atoms: C_10  and  C_20
    3  A    between atoms: C_18  and  C_22
    4  A    between atoms: C_20  and  C_26
                            x       y       z     vdW  Elec       q    Type
                         _______ _______ _______ _____ _____    ______ ____

>  <TORSDO>
F 4

$$$$
=
 OpenBabel10272400573D

 27 30  0  0  1  0  0  0  0  0999 V2000
  186.8860  178.8940  141.4680 C   0  0  0  0  0  3  0  0  0  0  0  0
  186.6590  178.0010  143.7850 C   0  0  0  0  0  0  0  0  0  0  0  0
  188.7400  176.9760  142.9360 C   0  0  0  0  0  3  0  0  0  0  0  0
  188.6190  177.0030  147.7360 S   0  0  0  0  0  0  0  0  0  0  0  0
  191.4120  177.2880  147.8450 C   0  0  0  0  0  1  0  0  0  0  0  0
  185.8150  177.5900  144.9440 C   0  0  0  0  0  3  0  0  0  0  0  0
  189.9940  177.6820  145.7390 C   0  0  0  0  0  0  0  0  0  0  0  0
  191.1400  178.0630  144.8620 C   0  0  0  0  0  1  0  0  0  0  0  0
  188.6570  177.6430  145.3040 C   0  0  0  0  0  0  0  0  0  0  0  0
  186.0860  178.4600  142.6430 C   0  0  0  0  0  0  0  0  0  0  0  0
  190.1350  177.3400  147.0820 C   0  0  0  0  0  0  0  0  0  0  0  0
  187.7770  177.2850  146.3110 C   0  0  0  0  0  0  0  0  0  0  0  0
  188.0360  178.3670  141.0200 C   0  0  0  0  0  0  0  0  0  0  0  0
  188.1760  177.9570  143.9090 C   0  0  2  0  0  3  0  0  0  0  0  0
  186.3300  177.2470  146.1250 C   0  0  0  0  0  3  0  0  0  0  0  0
  188.6770  177.1670  141.6180 C   0  0  0  0  0  0  0  0  0  0  0  0
  181.8640  178.8440  142.2590 N   0  0  0  0  0  0  0  0  0  0  0  0
  184.6160  178.6260  142.5080 C   0  0  0  0  0  0  0  0  0  0  0  0
  183.8340  179.0540  143.5910 C   0  0  0  0  0  3  0  0  0  0  0  0
  182.4500  179.1630  143.4430 C   0  0  0  0  0  3  0  0  0  0  0  0
  182.5950  178.4110  141.1980 C   0  0  0  0  0  3  0  0  0  0  0  0
  183.9820  178.2900  141.3060 C   0  0  0  0  0  3  0  0  0  0  0  0
  188.6030  178.9470  139.7660 C   0  0  0  0  0  2  0  0  0  0  0  0
  187.8020  178.6010  138.6780 O   0  0  0  0  0  1  0  0  0  0  0  0
  189.3540  176.1680  140.7370 C   0  0  0  0  0  2  0  0  0  0  0  0
  190.8020  176.5600  140.5040 C   0  0  0  0  0  2  0  0  0  0  0  0
  191.0950  176.4690  139.1450 O   0  0  0  0  0  1  0  0  0  0  0  0
  1 10  1  0  0  0  0
  2 14  1  0  0  0  0
  2  6  1  0  0  0  0
  6 15  2  0  0  0  0
  7 11  2  0  0  0  0
  8  7  1  0  0  0  0
  9  7  1  0  0  0  0
  9 12  2  0  0  0  0
 10  2  2  0  0  0  0
 11  4  1  0  0  0  0
 11  5  1  0  0  0  0
 12  4  1  0  0  0  0
 13  1  2  0  0  0  0
 13 16  1  0  0  0  0
 14  3  1  6  0  0  0
 14  9  1  0  0  0  0
 15 12  1  0  0  0  0
 16  3  2  0  0  0  0
 17 20  1  0  0  0  0
 18 10  1  0  0  0  0
 18 19  1  0  0  0  0
 20 19  2  0  0  0  0
 21 22  1  0  0  0  0
 21 17  2  0  0  0  0
 22 18  2  0  0  0  0
 23 13  1  0  0  0  0
 24 23  1  0  0  0  0
 25 16  1  0  0  0  0
 26 25  1  0  0  0  0
 27 26  1  0  0  0  0
M  END
>  <MODEL>
4

>  <REMARK>
 VINA RESULT:      -7.8      2.753      6.022
  Name = 
  4 active torsions:
  status: ('A' for Active; 'I' for Inactive)
    1  A    between atoms: C_9  and  C_15
    2  A    between atoms: C_10  and  C_20
    3  A    between atoms: C_18  and  C_22
    4  A    between atoms: C_20  and  C_26
                            x       y       z     vdW  Elec       q    Type
                         _______ _______ _______ _____ _____    ______ ____

>  <TORSDO>
F 4

$$$$
=
 OpenBabel10272400573D

 27 30  0  0  1  0  0  0  0  0999 V2000
  189.3620  178.1280  141.3890 C   0  0  0  0  0  3  0  0  0  0  0  0
  187.3970  177.9750  142.9170 C   0  0  1  0  0  3  0  0  0  0  0  0
  189.1290  176.5920  144.0080 C   0  0  0  0  0  3  0  0  0  0  0  0
  185.7940  178.0390  147.1450 S   0  0  0  0  0  0  0  0  0  0  0  0
  187.7090  178.1330  149.1990 C   0  0  0  0  0  1  0  0  0  0  0  0
  185.9240  177.9880  143.1470 C   0  0  0  0  0  3  0  0  0  0  0  0
  188.2710  177.9960  146.6950 C   0  0  0  0  0  0  0  0  0  0  0  0
  189.7520  178.0150  146.8790 C   0  0  0  0  0  1  0  0  0  0  0  0
  187.6410  177.9310  145.4400 C   0  0  0  0  0  0  0  0  0  0  0  0
  187.9020  178.1200  141.6640 C   0  0  0  0  0  0  0  0  0  0  0  0
  187.3650  178.0530  147.7520 C   0  0  0  0  0  0  0  0  0  0  0  0
  186.2600  177.9520  145.5340 C   0  0  0  0  0  0  0  0  0  0  0  0
  190.3150  177.4070  142.0000 C   0  0  0  0  0  0  0  0  0  0  0  0
  188.3410  177.8560  144.1070 C   0  0  0  0  0  0  0  0  0  0  0  0
  185.3840  177.9700  144.3660 C   0  0  0  0  0  3  0  0  0  0  0  0
  190.0320  176.3910  143.0470 C   0  0  0  0  0  0  0  0  0  0  0  0
  185.3910  178.6850  138.2740 N   0  0  0  0  0  0  0  0  0  0  0  0
  187.0300  178.3490  140.4840 C   0  0  0  0  0  0  0  0  0  0  0  0
  185.7260  178.8440  140.6330 C   0  0  0  0  0  3  0  0  0  0  0  0
  184.9180  179.0110  139.5060 C   0  0  0  0  0  3  0  0  0  0  0  0
  186.6440  178.1890  138.1020 C   0  0  0  0  0  3  0  0  0  0  0  0
  187.4830  178.0080  139.2030 C   0  0  0  0  0  3  0  0  0  0  0  0
  191.7080  177.5480  141.4800 C   0  0  0  0  0  2  0  0  0  0  0  0
  191.7330  177.2840  140.1110 O   0  0  0  0  0  1  0  0  0  0  0  0
  190.8300  175.1290  143.0950 C   0  0  0  0  0  2  0  0  0  0  0  0
  191.9200  175.2310  144.1470 C   0  0  0  0  0  2  0  0  0  0  0  0
  192.3220  173.9510  144.5250 O   0  0  0  0  0  1  0  0  0  0  0  0
  1 10  2  0  0  0  0
  1 13  1  0  0  0  0
  2  6  1  1  0  0  0
  2 14  1  0  0  0  0
  3 14  2  0  0  0  0
  4 11  1  0  0  0  0
  6 15  2  0  0  0  0
  7  8  1  0  0  0  0
  7 11  2  0  0  0  0
  9 12  2  0  0  0  0
  9  7  1  0  0  0  0
 10  2  1  0  0  0  0
 11  5  1  0  0  0  0
 12  4  1  0  0  0  0
 13 16  2  0  0  0  0
 14  9  1  0  0  0  0
 15 12  1  0  0  0  0
 16 25  1  0  0  0  0
 16  3  1  0  0  0  0
 17 20  1  0  0  0  0
 18 19  1  0  0  0  0
 18 10  1  0  0  0  0
 20 19  2  0  0  0  0
 21 17  2  0  0  0  0
 21 22  1  0  0  0  0
 22 18  2  0  0  0  0
 23 13  1  0  0  0  0
 24 23  1  0  0  0  0
 25 26  1  0  0  0  0
 26 27  1  0  0  0  0
M  END
>  <MODEL>
5

>  <REMARK>
 VINA RESULT:      -7.8      3.022      6.255
  Name = 
  4 active torsions:
  status: ('A' for Active; 'I' for Inactive)
    1  A    between atoms: C_9  and  C_15
    2  A    between atoms: C_10  and  C_20
    3  A    between atoms: C_18  and  C_22
    4  A    between atoms: C_20  and  C_26
                            x       y       z     vdW  Elec       q    Type
                         _______ _______ _______ _____ _____    ______ ____

>  <TORSDO>
F 4

$$$$
=
 OpenBabel10272400573D

 27 30  0  0  1  0  0  0  0  0999 V2000
  189.2660  176.3930  143.5900 C   0  0  0  0  0  3  0  0  0  0  0  0
  187.7880  177.6610  142.0330 C   0  0  0  0  0  0  0  0  0  0  0  0
  189.9730  177.5930  140.8830 C   0  0  0  0  0  3  0  0  0  0  0  0
  186.3810  178.3910  137.7980 S   0  0  0  0  0  0  0  0  0  0  0  0
  187.7580  177.0090  135.7750 C   0  0  0  0  0  1  0  0  0  0  0  0
  186.6250  178.5620  141.7870 C   0  0  0  0  0  3  0  0  0  0  0  0
  188.3510  176.8970  138.2730 C   0  0  0  0  0  0  0  0  0  0  0  0
  189.4890  175.9440  138.1080 C   0  0  0  0  0  1  0  0  0  0  0  0
  187.9350  177.4090  139.5140 C   0  0  0  0  0  0  0  0  0  0  0  0
  188.1240  177.2990  143.2980 C   0  0  0  0  0  0  0  0  0  0  0  0
  187.5800  177.3630  137.2110 C   0  0  0  0  0  0  0  0  0  0  0  0
  186.8430  178.2520  139.4060 C   0  0  0  0  0  0  0  0  0  0  0  0
  190.4430  176.3230  142.9490 C   0  0  0  0  0  0  0  0  0  0  0  0
  188.5650  177.0990  140.8500 C   0  0  2  0  0  3  0  0  0  0  0  0
  186.1820  178.8490  140.5630 C   0  0  0  0  0  3  0  0  0  0  0  0
  190.8290  177.2350  141.8410 C   0  0  0  0  0  0  0  0  0  0  0  0
  185.8120  178.4530  146.6800 N   0  0  0  0  0  0  0  0  0  0  0  0
  187.3340  177.7290  144.4790 C   0  0  0  0  0  0  0  0  0  0  0  0
  187.8960  177.7310  145.7640 C   0  0  0  0  0  3  0  0  0  0  0  0
  187.1140  178.1050  146.8590 C   0  0  0  0  0  3  0  0  0  0  0  0
  185.2370  178.4450  145.4490 C   0  0  0  0  0  3  0  0  0  0  0  0
  185.9860  178.0780  144.3290 C   0  0  0  0  0  3  0  0  0  0  0  0
  191.4540  175.3690  143.4920 C   0  0  0  0  0  2  0  0  0  0  0  0
  191.8890  175.8000  144.7460 O   0  0  0  0  0  1  0  0  0  0  0  0
  192.2390  177.7140  141.7280 C   0  0  0  0  0  2  0  0  0  0  0  0
  192.7150  177.6290  140.2890 C   0  0  0  0  0  2  0  0  0  0  0  0
  194.0020  177.0970  140.2560 O   0  0  0  0  0  1  0  0  0  0  0  0
  2 10  2  0  0  0  0
  3 16  2  0  0  0  0
  4 12  1  0  0  0  0
  5 11  1  0  0  0  0
  6  2  1  0  0  0  0
  7  9  1  0  0  0  0
  8  7  1  0  0  0  0
  9 14  1  0  0  0  0
 10  1  1  0  0  0  0
 10 18  1  0  0  0  0
 11  4  1  0  0  0  0
 11  7  2  0  0  0  0
 12  9  2  0  0  0  0
 12 15  1  0  0  0  0
 13 23  1  0  0  0  0
 13  1  2  0  0  0  0
 14  3  1  6  0  0  0
 14  2  1  0  0  0  0
 15  6  2  0  0  0  0
 16 13  1  0  0  0  0
 17 20  1  0  0  0  0
 18 19  1  0  0  0  0
 19 20  2  0  0  0  0
 21 17  2  0  0  0  0
 22 18  2  0  0  0  0
 22 21  1  0  0  0  0
 23 24  1  0  0  0  0
 25 16  1  0  0  0  0
 26 25  1  0  0  0  0
 27 26  1  0  0  0  0
M  END
>  <MODEL>
6

>  <REMARK>
 VINA RESULT:      -7.4      2.732      4.484
  Name = 
  4 active torsions:
  status: ('A' for Active; 'I' for Inactive)
    1  A    between atoms: C_9  and  C_15
    2  A    between atoms: C_10  and  C_20
    3  A    between atoms: C_18  and  C_22
    4  A    between atoms: C_20  and  C_26
                            x       y       z     vdW  Elec       q    Type
                         _______ _______ _______ _____ _____    ______ ____

>  <TORSDO>
F 4

$$$$
=
 OpenBabel10272400573D

 27 30  0  0  0  0  0  0  0  0999 V2000
  189.9180  175.3750  137.7220 C   0  0  0  0  0  3  0  0  0  0  0  0
  191.2750  176.5470  139.4550 C   0  0  0  0  0  0  0  0  0  0  0  0
  189.0340  177.5680  139.6400 C   0  0  0  0  0  3  0  0  0  0  0  0
  191.5790  178.1580  143.6690 S   0  0  0  0  0  0  0  0  0  0  0  0
  189.2340  178.0460  145.2140 C   0  0  0  0  0  1  0  0  0  0  0  0
  192.5840  177.0580  139.9560 C   0  0  0  0  0  2  0  0  0  0  0  0
  189.3920  177.3030  142.7590 C   0  0  0  0  0  0  0  0  0  0  0  0
  187.9660  176.8760  142.6460 C   0  0  0  0  0  1  0  0  0  0  0  0
  190.3210  177.2110  141.7080 C   0  0  0  0  0  0  0  0  0  0  0  0
  191.1970  175.9120  138.2570 C   0  0  0  0  0  0  0  0  0  0  0  0
  189.9470  177.8250  143.9250 C   0  0  0  0  0  0  0  0  0  0  0  0
  191.5830  177.6470  142.0690 C   0  0  0  0  0  0  0  0  0  0  0  0
  188.6910  175.9030  137.8480 C   0  0  0  0  0  0  0  0  0  0  0  0
  190.0310  176.6920  140.3210 C   0  0  0  0  0  0  0  0  0  0  0  0
  192.7350  177.5790  141.1740 C   0  0  0  0  0  3  0  0  0  0  0  0
  188.4210  177.2040  138.5130 C   0  0  0  0  0  0  0  0  0  0  0  0
  194.5890  175.0900  135.8210 N   0  0  0  0  0  0  0  0  0  0  0  0
  192.3970  175.6480  137.4220 C   0  0  0  0  0  0  0  0  0  0  0  0
  192.7780  176.5330  136.4030 C   0  0  0  0  0  3  0  0  0  0  0  0
  193.8890  176.2360  135.6110 C   0  0  0  0  0  3  0  0  0  0  0  0
  194.2330  174.2060  136.7910 C   0  0  0  0  0  3  0  0  0  0  0  0
  193.1290  174.4680  137.6040 C   0  0  0  0  0  3  0  0  0  0  0  0
  187.5760  175.1970  137.1490 C   0  0  0  0  0  2  0  0  0  0  0  0
  187.7140  175.3410  135.7680 O   0  0  0  0  0  1  0  0  0  0  0  0
  187.3720  178.1160  137.9650 C   0  0  0  0  0  2  0  0  0  0  0  0
  187.9330  178.9430  136.8220 C   0  0  0  0  0  2  0  0  0  0  0  0
  188.7940  179.9140  137.3300 O   0  0  0  0  0  1  0  0  0  0  0  0
  1 13  2  0  0  0  0
  1 10  1  0  0  0  0
  2  6  1  0  0  0  0
  2 14  1  0  0  0  0
  3 14  1  0  0  0  0
  4 11  1  0  0  0  0
  6 15  1  0  0  0  0
  7 11  2  0  0  0  0
  8  7  1  0  0  0  0
  9 12  1  0  0  0  0
  9  7  1  0  0  0  0
 10  2  2  0  0  0  0
 11  5  1  0  0  0  0
 12  4  1  0  0  0  0
 13 16  1  0  0  0  0
 14  9  2  0  0  0  0
 15 12  2  0  0  0  0
 16  3  2  0  0  0  0
 17 21  1  0  0  0  0
 18 22  1  0  0  0  0
 18 10  1  0  0  0  0
 19 18  2  0  0  0  0
 20 17  2  0  0  0  0
 20 19  1  0  0  0  0
 21 22  2  0  0  0  0
 23 13  1  0  0  0  0
 24 23  1  0  0  0  0
 25 16  1  0  0  0  0
 26 27  1  0  0  0  0
 26 25  1  0  0  0  0
M  END
>  <MODEL>
7

>  <REMARK>
 VINA RESULT:      -7.1      4.897      8.281
  Name = 
  4 active torsions:
  status: ('A' for Active; 'I' for Inactive)
    1  A    between atoms: C_9  and  C_15
    2  A    between atoms: C_10  and  C_20
    3  A    between atoms: C_18  and  C_22
    4  A    between atoms: C_20  and  C_26
                            x       y       z     vdW  Elec       q    Type
                         _______ _______ _______ _____ _____    ______ ____

>  <TORSDO>
F 4

$$$$
=
 OpenBabel10272400573D

 27 30  0  0  0  0  0  0  0  0999 V2000
  187.1200  178.7380  141.0610 C   0  0  0  0  0  3  0  0  0  0  0  0
  185.8190  178.3490  143.1530 C   0  0  0  0  0  0  0  0  0  0  0  0
  187.9000  177.0590  143.4790 C   0  0  0  0  0  3  0  0  0  0  0  0
  185.7780  178.0700  147.6660 S   0  0  0  0  0  0  0  0  0  0  0  0
  188.2770  178.2150  148.9420 C   0  0  0  0  0  1  0  0  0  0  0  0
  184.5180  178.2310  143.8720 C   0  0  0  0  0  2  0  0  0  0  0  0
  187.9450  178.2500  146.3950 C   0  0  0  0  0  0  0  0  0  0  0  0
  189.3940  178.3800  146.0620 C   0  0  0  0  0  1  0  0  0  0  0  0
  186.9230  178.1980  145.4300 C   0  0  0  0  0  0  0  0  0  0  0  0
  185.8490  178.5980  141.8180 C   0  0  0  0  0  0  0  0  0  0  0  0
  187.4590  178.1810  147.6990 C   0  0  0  0  0  0  0  0  0  0  0  0
  185.6620  178.1020  145.9910 C   0  0  0  0  0  0  0  0  0  0  0  0
  188.2670  178.0670  141.2540 C   0  0  0  0  0  0  0  0  0  0  0  0
  187.1210  178.2470  143.9360 C   0  0  0  0  0  0  0  0  0  0  0  0
  184.4360  178.1080  145.1980 C   0  0  0  0  0  3  0  0  0  0  0  0
  188.4240  176.9800  142.2550 C   0  0  0  0  0  0  0  0  0  0  0  0
  182.2780  179.2910  139.6070 N   0  0  0  0  0  0  0  0  0  0  0  0
  184.6100  178.8150  141.0280 C   0  0  0  0  0  0  0  0  0  0  0  0
  184.6600  179.3700  139.7410 C   0  0  0  0  0  3  0  0  0  0  0  0
  183.4740  179.5970  139.0400 C   0  0  0  0  0  3  0  0  0  0  0  0
  182.1970  178.7670  140.8590 C   0  0  0  0  0  3  0  0  0  0  0  0
  183.3610  178.5240  141.5920 C   0  0  0  0  0  3  0  0  0  0  0  0
  189.3820  178.3470  140.3020 C   0  0  0  0  0  2  0  0  0  0  0  0
  188.8800  178.9350  139.1400 O   0  0  0  0  0  1  0  0  0  0  0  0
  189.2620  175.7870  141.9320 C   0  0  0  0  0  2  0  0  0  0  0  0
  190.3780  175.6310  142.9500 C   0  0  0  0  0  2  0  0  0  0  0  0
  191.3200  176.6410  142.7650 O   0  0  0  0  0  1  0  0  0  0  0  0
  1 13  2  0  0  0  0
  1 10  1  0  0  0  0
  2  6  1  0  0  0  0
  2 14  1  0  0  0  0
  3 14  1  0  0  0  0
  4 11  1  0  0  0  0
  6 15  1  0  0  0  0
  7 11  2  0  0  0  0
  8  7  1  0  0  0  0
  9 12  1  0  0  0  0
  9  7  1  0  0  0  0
 10  2  2  0  0  0  0
 11  5  1  0  0  0  0
 12  4  1  0  0  0  0
 13 16  1  0  0  0  0
 14  9  2  0  0  0  0
 15 12  2  0  0  0  0
 16  3  2  0  0  0  0
 17 21  1  0  0  0  0
 18 22  1  0  0  0  0
 18 10  1  0  0  0  0
 19 18  2  0  0  0  0
 20 17  2  0  0  0  0
 20 19  1  0  0  0  0
 21 22  2  0  0  0  0
 23 13  1  0  0  0  0
 24 23  1  0  0  0  0
 25 16  1  0  0  0  0
 25 26  1  0  0  0  0
 27 26  1  0  0  0  0
M  END
>  <MODEL>
8

>  <REMARK>
 VINA RESULT:      -6.8      2.703      6.077
  Name = 
  4 active torsions:
  status: ('A' for Active; 'I' for Inactive)
    1  A    between atoms: C_9  and  C_15
    2  A    between atoms: C_10  and  C_20
    3  A    between atoms: C_18  and  C_22
    4  A    between atoms: C_20  and  C_26
                            x       y       z     vdW  Elec       q    Type
                         _______ _______ _______ _____ _____    ______ ____

>  <TORSDO>
F 4

$$$$
=
 OpenBabel10272400573D

 27 30  0  0  1  0  0  0  0  0999 V2000
  189.0570  178.7590  141.4160 C   0  0  0  0  0  3  0  0  0  0  0  0
  186.7540  178.3430  140.5530 C   0  0  1  0  0  3  0  0  0  0  0  0
  186.6570  177.6390  142.9180 C   0  0  0  0  0  3  0  0  0  0  0  0
  182.2880  178.6420  141.1970 S   0  0  0  0  0  0  0  0  0  0  0  0
  181.4560  179.5420  143.7260 C   0  0  0  0  0  1  0  0  0  0  0  0
  185.8240  178.0100  139.4360 C   0  0  0  0  0  3  0  0  0  0  0  0
  183.9070  179.1700  143.0530 C   0  0  0  0  0  0  0  0  0  0  0  0
  184.4820  179.5980  144.3620 C   0  0  0  0  0  1  0  0  0  0  0  0
  184.6840  178.7520  141.9580 C   0  0  0  0  0  0  0  0  0  0  0  0
  188.0930  178.4180  140.3370 C   0  0  0  0  0  0  0  0  0  0  0  0
  182.5410  179.1550  142.7820 C   0  0  0  0  0  0  0  0  0  0  0  0
  183.9180  178.4310  140.8500 C   0  0  0  0  0  0  0  0  0  0  0  0
  188.9940  178.4120  142.7110 C   0  0  0  0  0  0  0  0  0  0  0  0
  186.1890  178.6560  141.9320 C   0  0  0  0  0  0  0  0  0  0  0  0
  184.4980  178.0420  139.5680 C   0  0  0  0  0  3  0  0  0  0  0  0
  187.9380  177.5310  143.2750 C   0  0  0  0  0  0  0  0  0  0  0  0
  189.7500  177.7980  136.4650 N   0  0  0  0  0  0  0  0  0  0  0  0
  188.6870  178.2300  138.9890 C   0  0  0  0  0  0  0  0  0  0  0  0
  188.2330  178.9710  137.8880 C   0  0  0  0  0  3  0  0  0  0  0  0
  188.7860  178.7420  136.6260 C   0  0  0  0  0  3  0  0  0  0  0  0
  190.1980  177.0540  137.5110 C   0  0  0  0  0  3  0  0  0  0  0  0
  189.6710  177.2530  138.7890 C   0  0  0  0  0  3  0  0  0  0  0  0
  190.1370  178.8250  143.5780 C   0  0  0  0  0  2  0  0  0  0  0  0
  191.3270  178.2890  143.0850 O   0  0  0  0  0  1  0  0  0  0  0  0
  188.2840  176.5410  144.3380 C   0  0  0  0  0  2  0  0  0  0  0  0
  188.0460  177.1360  145.7140 C   0  0  0  0  0  2  0  0  0  0  0  0
  189.1740  176.9370  146.5080 O   0  0  0  0  0  1  0  0  0  0  0  0
  1 13  1  0  0  0  0
  2  6  1  6  0  0  0
  2 14  1  0  0  0  0
  3 16  1  0  0  0  0
  4 11  1  0  0  0  0
  6 15  2  0  0  0  0
  7  8  1  0  0  0  0
  9  7  1  0  0  0  0
 10  2  1  0  0  0  0
 10  1  2  0  0  0  0
 11  7  2  0  0  0  0
 11  5  1  0  0  0  0
 12  4  1  0  0  0  0
 12  9  2  0  0  0  0
 13 16  2  0  0  0  0
 13 23  1  0  0  0  0
 14  9  1  0  0  0  0
 14  3  2  0  0  0  0
 15 12  1  0  0  0  0
 16 25  1  0  0  0  0
 17 20  2  0  0  0  0
 17 21  1  0  0  0  0
 18 10  1  0  0  0  0
 19 18  2  0  0  0  0
 20 19  1  0  0  0  0
 21 22  2  0  0  0  0
 22 18  1  0  0  0  0
 24 23  1  0  0  0  0
 25 26  1  0  0  0  0
 26 27  1  0  0  0  0
M  END
>  <MODEL>
9

>  <REMARK>
 VINA RESULT:      -6.6      3.031      5.846
  Name = 
  4 active torsions:
  status: ('A' for Active; 'I' for Inactive)
    1  A    between atoms: C_9  and  C_15
    2  A    between atoms: C_10  and  C_20
    3  A    between atoms: C_18  and  C_22
    4  A    between atoms: C_20  and  C_26
                            x       y       z     vdW  Elec       q    Type
                         _______ _______ _______ _____ _____    ______ ____

>  <TORSDO>
F 4

$$$$
