=
 OpenBabel10272401443D

 55 57  0  0  1  0  0  0  0  0999 V2000
  193.4730  176.9130  138.9760 O   0  0  0  0  0  0  0  0  0  0  0  0
  191.1730  176.8900  138.5310 N   0  0  0  0  0  0  0  0  0  0  0  0
  192.5290  176.4580  138.2760 C   0  0  0  0  0  0  0  0  0  0  0  0
  190.8490  177.5710  139.7980 C   0  0  2  0  0  3  0  0  0  0  0  0
  191.9080  177.2990  140.8660 C   0  0  0  0  0  1  0  0  0  0  0  0
  188.4850  178.4040  139.9090 C   0  0  0  0  0  1  0  0  0  0  0  0
  189.4260  177.2810  140.3100 C   0  0  2  0  0  3  0  0  0  0  0  0
  189.3830  177.0680  141.8230 C   0  0  0  0  0  2  0  0  0  0  0  0
  188.4190  178.0360  142.4970 C   0  0  0  0  0  2  0  0  0  0  0  0
  187.1460  177.3230  142.9310 C   0  0  0  0  0  2  0  0  0  0  0  0
  186.3430  178.1780  143.9050 C   0  0  1  0  0  3  0  0  0  0  0  0
  183.9100  178.7250  144.2290 C   0  0  0  0  0  3  0  0  0  0  0  0
  182.3550  178.7250  142.3350 C   0  0  0  0  0  0  0  0  0  0  0  0
  184.6800  177.9450  141.9680 C   0  0  0  0  0  2  0  0  0  0  0  0
  183.3260  178.3780  141.4770 C   0  0  0  0  0  3  0  0  0  0  0  0
  182.6500  178.7730  143.7860 C   0  0  0  0  0  3  0  0  0  0  0  0
  185.0560  178.7010  143.2530 C   0  0  2  0  0  3  0  0  0  0  0  0
  181.0120  179.0730  141.8340 C   0  0  0  0  0  0  0  0  0  0  0  0
  179.9850  178.7150  142.4690 O   0  0  0  0  0  0  0  0  0  0  0  0
  180.8050  180.0080  140.3210 S   0  0  0  0  0  1  0  0  0  0  0  0
  186.0840  177.3870  145.1800 C   0  0  0  0  0  2  0  0  0  0  0  0
  186.3800  178.2440  146.3990 C   0  0  0  0  0  2  0  0  0  0  0  0
  188.1280  178.3510  148.1840 C   0  0  0  0  0  3  0  0  0  0  0  0
  189.9940  177.1140  146.5060 C   0  0  0  0  0  0  0  0  0  0  0  0
  188.6950  177.3580  146.0470 C   0  0  0  0  0  3  0  0  0  0  0  0
  189.4260  178.1090  148.6410 C   0  0  0  0  0  3  0  0  0  0  0  0
  187.7590  177.9720  146.8880 C   0  0  0  0  0  0  0  0  0  0  0  0
  190.9000  176.5240  145.6920 F   0  0  0  0  0  0  0  0  0  0  0  0
  190.3590  177.4900  147.8030 C   0  0  0  0  0  3  0  0  0  0  0  0
  190.1720  176.7820  137.4710 C   0  0  0  0  0  2  0  0  0  0  0  0
  188.9390  177.9030  136.0210 C   0  0  0  0  0  1  0  0  0  0  0  0
  189.5840  178.0300  137.2510 O   0  0  0  0  0  0  0  0  0  0  0  0
  192.8710  175.4730  137.1890 C   0  0  2  0  0  3  0  0  0  0  0  0
  190.9710  173.5310  134.4080 C   0  0  0  0  0  1  0  0  0  0  0  0
  191.4890  175.9120  135.1550 C   0  0  0  0  0  2  0  0  0  0  0  0
  191.9640  174.4860  135.0390 C   0  0  1  0  0  0  0  0  0  0  0  0
  191.6300  175.0520  136.4090 C   0  0  1  0  0  3  0  0  0  0  0  0
  193.3110  174.3710  134.6860 O   0  0  0  0  0  1  0  0  0  0  0  0
  193.6170  174.2420  137.7160 C   0  0  0  0  0  2  0  0  0  0  0  0
  195.1130  174.2200  137.3750 C   0  0  2  0  0  0  0  0  0  0  0  0
  194.2430  171.8900  136.5940 C   0  0  0  0  0  1  0  0  0  0  0  0
  195.3170  172.9690  136.4680 C   0  0  2  0  0  3  0  0  0  0  0  0
  196.7350  172.3810  136.5610 C   0  0  1  0  0  3  0  0  0  0  0  0
  197.2880  172.5760  137.8310 O   0  0  0  0  0  1  0  0  0  0  0  0
  196.8780  170.0660  137.1110 O   0  0  0  0  0  1  0  0  0  0  0  0
  196.7570  170.9300  136.2040 C   0  0  0  0  0  0  0  0  0  0  0  0
  196.6480  170.5270  134.8780 O   0  0  0  0  0  0  0  0  0  0  0  0
  195.8420  174.0870  138.7310 C   0  0  0  0  0  2  0  0  0  0  0  0
  195.6930  175.2110  139.5450 O   0  0  0  0  0  0  0  0  0  0  0  0
  196.6860  175.0750  140.5130 C   0  0  0  0  0  2  0  0  0  0  0  0
  198.0460  175.2610  139.8720 C   0  0  0  0  0  1  0  0  0  0  0  0
  195.4170  175.4410  136.7120 O   0  0  0  0  0  0  0  0  0  0  0  0
  196.7530  175.4910  136.4690 N   0  0  0  0  0  2  0  0  0  0  0  0
  196.9310  176.2130  135.2210 C   0  0  0  0  0  2  0  0  0  0  0  0
  195.7180  177.0790  134.9440 C   0  0  0  0  0  1  0  0  0  0  0  0
  2  4  1  0  0  0  0
  3  2  1  0  0  0  0
  3  1  2  0  0  0  0
  4  7  1  0  0  0  0
  4  5  1  1  0  0  0
  7  6  1  1  0  0  0
  7  8  1  0  0  0  0
  8  9  1  0  0  0  0
  9 10  1  0  0  0  0
 11 10  1  6  0  0  0
 11 21  1  0  0  0  0
 13 16  1  0  0  0  0
 14 17  1  0  0  0  0
 15 14  1  0  0  0  0
 15 13  2  0  0  0  0
 16 12  2  0  0  0  0
 17 11  1  1  0  0  0
 17 12  1  0  0  0  0
 18 13  1  0  0  0  0
 18 19  2  0  0  0  0
 20 18  1  0  0  0  0
 21 22  1  0  0  0  0
 22 27  1  0  0  0  0
 23 26  1  0  0  0  0
 24 29  1  0  0  0  0
 25 24  2  0  0  0  0
 25 27  1  0  0  0  0
 27 23  2  0  0  0  0
 28 24  1  0  0  0  0
 29 26  2  0  0  0  0
 30  2  1  0  0  0  0
 31 32  1  0  0  0  0
 32 30  1  0  0  0  0
 33 39  1  1  0  0  0
 33  3  1  0  0  0  0
 35 37  1  0  0  0  0
 36 34  1  6  0  0  0
 36 35  1  0  0  0  0
 36 37  1  0  0  0  0
 37 33  1  1  0  0  0
 38 36  1  0  0  0  0
 40 39  1  1  0  0  0
 40 48  1  0  0  0  0
 42 43  1  0  0  0  0
 42 41  1  1  0  0  0
 42 40  1  0  0  0  0
 43 44  1  1  0  0  0
 46 43  1  0  0  0  0
 46 45  1  0  0  0  0
 47 46  2  0  0  0  0
 48 49  1  0  0  0  0
 49 50  1  0  0  0  0
 51 50  1  0  0  0  0
 52 40  1  0  0  0  0
 53 52  1  0  0  0  0
 54 53  1  0  0  0  0
 55 54  1  0  0  0  0
M  END
>  <MODEL>
1

>  <REMARK>
 VINA RESULT:      -7.4      0.000      0.000
  Name = 
  26 active torsions:
  status: ('A' for Active; 'I' for Inactive)
    1  A    between atoms: C_1  and  N_30
    2  A    between atoms: C_2  and  C_28
    3  A    between atoms: C_2  and  C_44
    4  A    between atoms: C_6  and  C_8
    5  A    between atoms: C_6  and  O_20
    6  A    between atoms: C_6  and  C_38
    7  A    between atoms: C_6  and  C_46
    8  A    between atoms: C_7  and  C_8
    9  A    between atoms: C_7  and  C_23
   10  A    between atoms: C_7  and  C_43
   11  A    between atoms: C_10  and  C_32
   12  A    between atoms: C_11  and  C_29
   13  A    between atoms: C_11  and  C_38
   14  A    between atoms: C_12  and  O_14
   15  A    between atoms: O_14  and  C_46
   16  A    between atoms: C_16  and  N_17
   17  A    between atoms: C_16  and  C_26
   18  A    between atoms: N_17  and  C_37
   19  A    between atoms: C_19  and  C_45
   20  A    between atoms: C_19  and  C_49
   21  A    between atoms: O_20  and  N_30
   22  A    between atoms: C_26  and  C_45
   23  A    between atoms: C_28  and  C_33
   24  A    between atoms: C_33  and  C_49
   25  A    between atoms: C_33  and  C_52
   26  A    between atoms: C_37  and  O_40
                            x       y       z     vdW  Elec       q    Type
                         _______ _______ _______ _____ _____    ______ ____

>  <TORSDO>
F 26

$$$$
=
 OpenBabel10272401443D

 55 57  0  0  1  0  0  0  0  0999 V2000
  194.1380  174.1300  137.9850 O   0  0  0  0  0  0  0  0  0  0  0  0
  193.5690  175.6910  136.3340 N   0  0  0  0  0  0  0  0  0  0  0  0
  194.0360  174.3900  136.7560 C   0  0  0  0  0  0  0  0  0  0  0  0
  192.8920  176.5750  137.3030 C   0  0  2  0  0  3  0  0  0  0  0  0
  193.7620  176.8230  138.5350 C   0  0  0  0  0  1  0  0  0  0  0  0
  190.4360  176.8790  136.8870 C   0  0  0  0  0  1  0  0  0  0  0  0
  191.4750  176.1060  137.6820 C   0  0  2  0  0  3  0  0  0  0  0  0
  191.2000  176.2350  139.1800 C   0  0  0  0  0  2  0  0  0  0  0  0
  190.1520  177.3030  139.4660 C   0  0  0  0  0  2  0  0  0  0  0  0
  189.3140  176.9330  140.6810 C   0  0  0  0  0  2  0  0  0  0  0  0
  188.6010  178.1540  141.2510 C   0  0  1  0  0  3  0  0  0  0  0  0
  186.7720  178.3610  139.5380 C   0  0  0  0  0  3  0  0  0  0  0  0
  184.4860  178.9450  140.2010 C   0  0  0  0  0  0  0  0  0  0  0  0
  186.2730  178.9950  141.9180 C   0  0  0  0  0  2  0  0  0  0  0  0
  184.8310  179.0260  141.4940 C   0  0  0  0  0  3  0  0  0  0  0  0
  185.5370  178.7270  139.1800 C   0  0  0  0  0  3  0  0  0  0  0  0
  187.0920  178.0890  140.9840 C   0  0  2  0  0  3  0  0  0  0  0  0
  183.0690  179.0540  139.8020 C   0  0  0  0  0  0  0  0  0  0  0  0
  182.7610  179.5240  138.6750 O   0  0  0  0  0  0  0  0  0  0  0  0
  181.7580  178.5260  140.9020 S   0  0  0  0  0  1  0  0  0  0  0  0
  188.9380  178.2970  142.7290 C   0  0  0  0  0  2  0  0  0  0  0  0
  188.7620  176.9650  143.4370 C   0  0  0  0  0  2  0  0  0  0  0  0
  190.8440  176.7030  144.7970 C   0  0  0  0  0  3  0  0  0  0  0  0
  189.4440  177.2750  147.1500 C   0  0  0  0  0  0  0  0  0  0  0  0
  188.7730  177.2660  145.9220 C   0  0  0  0  0  3  0  0  0  0  0  0
  191.5130  176.7090  146.0230 C   0  0  0  0  0  3  0  0  0  0  0  0
  189.4740  176.9870  144.7430 C   0  0  0  0  0  0  0  0  0  0  0  0
  188.7650  177.5420  148.2910 F   0  0  0  0  0  0  0  0  0  0  0  0
  190.8140  176.9960  147.2000 C   0  0  0  0  0  3  0  0  0  0  0  0
  193.9030  176.1780  134.9970 C   0  0  0  0  0  2  0  0  0  0  0  0
  195.9470  176.9980  134.8250 C   0  0  0  0  0  1  0  0  0  0  0  0
  194.6290  177.3660  135.0960 O   0  0  0  0  0  0  0  0  0  0  0  0
  194.4170  173.3120  135.7750 C   0  0  2  0  0  3  0  0  0  0  0  0
  190.8010  173.3160  134.3470 C   0  0  0  0  0  1  0  0  0  0  0  0
  192.7940  171.7620  134.6780 C   0  0  0  0  0  2  0  0  0  0  0  0
  191.9800  172.9140  135.2100 C   0  0  1  0  0  0  0  0  0  0  0  0
  193.3760  173.1740  134.6690 C   0  0  1  0  0  3  0  0  0  0  0  0
  191.8070  172.8840  136.5970 O   0  0  0  0  0  1  0  0  0  0  0  0
  194.6690  171.9590  136.4480 C   0  0  0  0  0  2  0  0  0  0  0  0
  196.1200  171.4700  136.3510 C   0  0  2  0  0  0  0  0  0  0  0  0
  197.6770  172.9150  134.8390 C   0  0  0  0  0  1  0  0  0  0  0  0
  196.9860  172.7570  136.1920 C   0  0  2  0  0  3  0  0  0  0  0  0
  197.9580  172.9790  137.3630 C   0  0  1  0  0  3  0  0  0  0  0  0
  199.2140  172.4250  137.0970 O   0  0  0  0  0  1  0  0  0  0  0  0
  197.1650  175.2270  137.4090 O   0  0  0  0  0  0  0  0  0  0  0  0
  198.0920  174.4280  137.7020 C   0  0  0  0  0  0  0  0  0  0  0  0
  199.2360  174.9030  138.3350 O   0  0  0  0  0  1  0  0  0  0  0  0
  196.1680  170.5720  135.0950 C   0  0  0  0  0  2  0  0  0  0  0  0
  197.2030  169.6370  135.1280 O   0  0  0  0  0  0  0  0  0  0  0  0
  196.7450  168.5790  134.3460 C   0  0  0  0  0  2  0  0  0  0  0  0
  195.2340  168.5150  134.4170 C   0  0  0  0  0  1  0  0  0  0  0  0
  196.4090  170.7520  137.5440 O   0  0  0  0  0  0  0  0  0  0  0  0
  195.3320  169.9910  137.8730 N   0  0  0  0  0  2  0  0  0  0  0  0
  195.8410  168.7480  138.4260 C   0  0  0  0  0  2  0  0  0  0  0  0
  194.8730  168.2040  139.4580 C   0  0  0  0  0  1  0  0  0  0  0  0
  2  3  1  0  0  0  0
  2  4  1  0  0  0  0
  3  1  2  0  0  0  0
  4  7  1  0  0  0  0
  4  5  1  1  0  0  0
  7  6  1  6  0  0  0
  7  8  1  0  0  0  0
  8  9  1  0  0  0  0
  9 10  1  0  0  0  0
 11 10  1  1  0  0  0
 11 21  1  0  0  0  0
 12 17  1  0  0  0  0
 13 15  2  0  0  0  0
 15 14  1  0  0  0  0
 16 12  2  0  0  0  0
 16 13  1  0  0  0  0
 17 11  1  6  0  0  0
 17 14  1  0  0  0  0
 18 13  1  0  0  0  0
 18 20  1  0  0  0  0
 19 18  2  0  0  0  0
 21 22  1  0  0  0  0
 22 27  1  0  0  0  0
 23 26  1  0  0  0  0
 24 29  1  0  0  0  0
 24 28  1  0  0  0  0
 25 24  2  0  0  0  0
 26 29  2  0  0  0  0
 27 23  2  0  0  0  0
 27 25  1  0  0  0  0
 30 32  1  0  0  0  0
 30  2  1  0  0  0  0
 31 32  1  0  0  0  0
 33 39  1  1  0  0  0
 33  3  1  0  0  0  0
 35 36  1  0  0  0  0
 36 34  1  6  0  0  0
 36 38  1  0  0  0  0
 37 35  1  0  0  0  0
 37 36  1  0  0  0  0
 37 33  1  1  0  0  0
 40 48  1  6  0  0  0
 40 39  1  0  0  0  0
 40 52  1  0  0  0  0
 42 41  1  6  0  0  0
 42 40  1  0  0  0  0
 42 43  1  0  0  0  0
 43 44  1  6  0  0  0
 43 46  1  0  0  0  0
 45 46  2  0  0  0  0
 46 47  1  0  0  0  0
 48 49  1  0  0  0  0
 50 51  1  0  0  0  0
 50 49  1  0  0  0  0
 52 53  1  0  0  0  0
 53 54  1  0  0  0  0
 54 55  1  0  0  0  0
M  END
>  <MODEL>
2

>  <REMARK>
 VINA RESULT:      -6.9      2.165      4.418
  Name = 
  26 active torsions:
  status: ('A' for Active; 'I' for Inactive)
    1  A    between atoms: C_1  and  N_30
    2  A    between atoms: C_2  and  C_28
    3  A    between atoms: C_2  and  C_44
    4  A    between atoms: C_6  and  C_8
    5  A    between atoms: C_6  and  O_20
    6  A    between atoms: C_6  and  C_38
    7  A    between atoms: C_6  and  C_46
    8  A    between atoms: C_7  and  C_8
    9  A    between atoms: C_7  and  C_23
   10  A    between atoms: C_7  and  C_43
   11  A    between atoms: C_10  and  C_32
   12  A    between atoms: C_11  and  C_29
   13  A    between atoms: C_11  and  C_38
   14  A    between atoms: C_12  and  O_14
   15  A    between atoms: O_14  and  C_46
   16  A    between atoms: C_16  and  N_17
   17  A    between atoms: C_16  and  C_26
   18  A    between atoms: N_17  and  C_37
   19  A    between atoms: C_19  and  C_45
   20  A    between atoms: C_19  and  C_49
   21  A    between atoms: O_20  and  N_30
   22  A    between atoms: C_26  and  C_45
   23  A    between atoms: C_28  and  C_33
   24  A    between atoms: C_33  and  C_49
   25  A    between atoms: C_33  and  C_52
   26  A    between atoms: C_37  and  O_40
                            x       y       z     vdW  Elec       q    Type
                         _______ _______ _______ _____ _____    ______ ____

>  <TORSDO>
F 26

$$$$
=
 OpenBabel10272401443D

 55 57  0  0  1  0  0  0  0  0999 V2000
  187.8040  179.4980  140.8770 O   0  0  0  0  0  0  0  0  0  0  0  0
  187.9430  177.5860  142.2240 N   0  0  0  0  0  0  0  0  0  0  0  0
  187.1960  178.6300  141.5600 C   0  0  0  0  0  0  0  0  0  0  0  0
  189.3410  177.3260  141.8320 C   0  0  2  0  0  3  0  0  0  0  0  0
  190.3210  178.1200  142.6960 C   0  0  0  0  0  1  0  0  0  0  0  0
  188.9480  176.4110  139.5290 C   0  0  0  0  0  1  0  0  0  0  0  0
  189.6090  177.5210  140.3280 C   0  0  2  0  0  3  0  0  0  0  0  0
  191.1010  177.5890  140.0060 C   0  0  0  0  0  2  0  0  0  0  0  0
  191.5500  176.3930  139.1770 C   0  0  0  0  0  2  0  0  0  0  0  0
  192.8590  176.6890  138.4580 C   0  0  0  0  0  2  0  0  0  0  0  0
  192.9600  175.9030  137.1550 C   0  0  1  0  0  3  0  0  0  0  0  0
  194.3200  174.2000  135.9010 C   0  0  0  0  0  3  0  0  0  0  0  0
  196.1490  172.9930  136.9980 C   0  0  0  0  0  0  0  0  0  0  0  0
  194.7120  174.4770  138.3680 C   0  0  0  0  0  2  0  0  0  0  0  0
  195.9350  173.6280  138.1600 C   0  0  0  0  0  3  0  0  0  0  0  0
  195.2150  173.2080  135.8690 C   0  0  0  0  0  3  0  0  0  0  0  0
  194.3020  175.1660  137.0560 C   0  0  2  0  0  3  0  0  0  0  0  0
  197.3170  172.1050  136.8420 C   0  0  0  0  0  0  0  0  0  0  0  0
  197.4120  171.0550  137.5310 O   0  0  0  0  0  0  0  0  0  0  0  0
  198.6220  172.4920  135.6790 S   0  0  0  0  0  1  0  0  0  0  0  0
  191.7610  174.9740  137.0280 C   0  0  0  0  0  2  0  0  0  0  0  0
  190.8430  175.4510  135.9160 C   0  0  0  0  0  2  0  0  0  0  0  0
  188.8230  174.6220  134.6960 C   0  0  0  0  0  3  0  0  0  0  0  0
  188.2290  172.8480  136.7760 C   0  0  0  0  0  0  0  0  0  0  0  0
  189.3520  173.6770  136.8640 C   0  0  0  0  0  3  0  0  0  0  0  0
  187.6990  173.7960  134.6090 C   0  0  0  0  0  3  0  0  0  0  0  0
  189.6550  174.5600  135.8210 C   0  0  0  0  0  0  0  0  0  0  0  0
  187.9340  171.9960  137.7860 F   0  0  0  0  0  0  0  0  0  0  0  0
  187.4020  172.9090  135.6490 C   0  0  0  0  0  3  0  0  0  0  0  0
  187.3560  176.9010  143.3740 C   0  0  0  0  0  2  0  0  0  0  0  0
  186.9650  177.1630  145.5320 C   0  0  0  0  0  1  0  0  0  0  0  0
  187.9320  177.3820  144.5520 O   0  0  0  0  0  0  0  0  0  0  0  0
  185.6960  178.7320  141.6510 C   0  0  2  0  0  3  0  0  0  0  0  0
  182.9990  178.5690  144.4460 C   0  0  0  0  0  1  0  0  0  0  0  0
  184.9570  180.0040  143.6700 C   0  0  0  0  0  2  0  0  0  0  0  0
  183.7980  179.1220  143.2830 C   0  0  1  0  0  0  0  0  0  0  0  0
  185.2170  178.6140  143.0940 C   0  0  1  0  0  3  0  0  0  0  0  0
  183.1040  179.5700  142.1560 O   0  0  0  0  0  1  0  0  0  0  0  0
  184.9750  177.7140  140.7610 C   0  0  0  0  0  2  0  0  0  0  0  0
  184.6500  178.2290  139.3520 C   0  0  2  0  0  0  0  0  0  0  0  0
  182.4890  176.9640  140.0770 C   0  0  0  0  0  1  0  0  0  0  0  0
  183.3470  177.4880  138.9270 C   0  0  2  0  0  3  0  0  0  0  0  0
  183.5870  176.4120  137.8530 C   0  0  1  0  0  3  0  0  0  0  0  0
  183.4340  175.1240  138.3770 O   0  0  0  0  0  1  0  0  0  0  0  0
  182.5780  177.7410  136.1500 O   0  0  0  0  0  1  0  0  0  0  0  0
  182.6920  176.6010  136.6720 C   0  0  0  0  0  0  0  0  0  0  0  0
  181.9800  175.5290  136.1460 O   0  0  0  0  0  0  0  0  0  0  0  0
  185.8620  177.8320  138.4800 C   0  0  0  0  0  2  0  0  0  0  0  0
  186.5690  178.9320  137.9910 O   0  0  0  0  0  0  0  0  0  0  0  0
  187.0990  178.4950  136.7790 C   0  0  0  0  0  2  0  0  0  0  0  0
  186.8780  177.0040  136.6380 C   0  0  0  0  0  1  0  0  0  0  0  0
  184.4830  179.6380  139.4420 O   0  0  0  0  0  0  0  0  0  0  0  0
  183.6720  180.0520  138.4330 N   0  0  0  0  0  2  0  0  0  0  0  0
  182.6950  180.9550  139.0160 C   0  0  0  0  0  2  0  0  0  0  0  0
  181.2920  180.4630  138.7190 C   0  0  0  0  0  1  0  0  0  0  0  0
  1  3  2  0  0  0  0
  2 30  1  0  0  0  0
  3 33  1  0  0  0  0
  3  2  1  0  0  0  0
  4  2  1  0  0  0  0
  4  5  1  1  0  0  0
  7  6  1  6  0  0  0
  7  4  1  0  0  0  0
  8  7  1  0  0  0  0
  9  8  1  0  0  0  0
 10  9  1  0  0  0  0
 11 21  1  1  0  0  0
 11 10  1  0  0  0  0
 12 17  1  0  0  0  0
 13 15  2  0  0  0  0
 15 14  1  0  0  0  0
 16 12  2  0  0  0  0
 16 13  1  0  0  0  0
 17 11  1  1  0  0  0
 17 14  1  0  0  0  0
 18 13  1  0  0  0  0
 18 19  2  0  0  0  0
 20 18  1  0  0  0  0
 22 21  1  0  0  0  0
 23 27  1  0  0  0  0
 24 25  1  0  0  0  0
 24 28  1  0  0  0  0
 26 23  2  0  0  0  0
 26 29  1  0  0  0  0
 27 22  1  0  0  0  0
 27 25  2  0  0  0  0
 29 24  2  0  0  0  0
 30 32  1  0  0  0  0
 32 31  1  0  0  0  0
 33 39  1  6  0  0  0
 36 35  1  0  0  0  0
 36 34  1  1  0  0  0
 37 33  1  6  0  0  0
 37 36  1  0  0  0  0
 37 35  1  0  0  0  0
 38 36  1  0  0  0  0
 40 48  1  6  0  0  0
 40 52  1  0  0  0  0
 40 39  1  0  0  0  0
 42 40  1  0  0  0  0
 42 41  1  1  0  0  0
 43 44  1  1  0  0  0
 43 42  1  0  0  0  0
 45 46  1  0  0  0  0
 46 43  1  0  0  0  0
 47 46  2  0  0  0  0
 49 48  1  0  0  0  0
 50 49  1  0  0  0  0
 51 50  1  0  0  0  0
 53 54  1  0  0  0  0
 53 52  1  0  0  0  0
 55 54  1  0  0  0  0
M  END
>  <MODEL>
3

>  <REMARK>
 VINA RESULT:      -6.8      4.346     11.970
  Name = 
  26 active torsions:
  status: ('A' for Active; 'I' for Inactive)
    1  A    between atoms: C_1  and  N_30
    2  A    between atoms: C_2  and  C_28
    3  A    between atoms: C_2  and  C_44
    4  A    between atoms: C_6  and  C_8
    5  A    between atoms: C_6  and  O_20
    6  A    between atoms: C_6  and  C_38
    7  A    between atoms: C_6  and  C_46
    8  A    between atoms: C_7  and  C_8
    9  A    between atoms: C_7  and  C_23
   10  A    between atoms: C_7  and  C_43
   11  A    between atoms: C_10  and  C_32
   12  A    between atoms: C_11  and  C_29
   13  A    between atoms: C_11  and  C_38
   14  A    between atoms: C_12  and  O_14
   15  A    between atoms: O_14  and  C_46
   16  A    between atoms: C_16  and  N_17
   17  A    between atoms: C_16  and  C_26
   18  A    between atoms: N_17  and  C_37
   19  A    between atoms: C_19  and  C_45
   20  A    between atoms: C_19  and  C_49
   21  A    between atoms: O_20  and  N_30
   22  A    between atoms: C_26  and  C_45
   23  A    between atoms: C_28  and  C_33
   24  A    between atoms: C_33  and  C_49
   25  A    between atoms: C_33  and  C_52
   26  A    between atoms: C_37  and  O_40
                            x       y       z     vdW  Elec       q    Type
                         _______ _______ _______ _____ _____    ______ ____

>  <TORSDO>
F 26

$$$$
=
 OpenBabel10272401443D

 55 57  0  0  1  0  0  0  0  0999 V2000
  191.3820  175.1490  139.1520 O   0  0  0  0  0  0  0  0  0  0  0  0
  190.6490  176.7650  137.6230 N   0  0  0  0  0  0  0  0  0  0  0  0
  191.1310  175.4430  137.9520 C   0  0  0  0  0  0  0  0  0  0  0  0
  190.1250  177.6390  138.6900 C   0  0  2  0  0  3  0  0  0  0  0  0
  191.1230  177.7780  139.8390 C   0  0  0  0  0  1  0  0  0  0  0  0
  187.6570  177.8000  138.2650 C   0  0  0  0  0  1  0  0  0  0  0  0
  188.7250  177.2360  139.1870 C   0  0  2  0  0  3  0  0  0  0  0  0
  188.4680  177.6790  140.6280 C   0  0  0  0  0  2  0  0  0  0  0  0
  187.3290  178.6860  140.7090 C   0  0  0  0  0  2  0  0  0  0  0  0
  186.1090  178.0760  141.3850 C   0  0  0  0  0  2  0  0  0  0  0  0
  185.0710  179.1430  141.7130 C   0  0  1  0  0  3  0  0  0  0  0  0
  183.4820  177.5520  140.5880 C   0  0  0  0  0  3  0  0  0  0  0  0
  182.2220  178.2270  138.5970 C   0  0  0  0  0  0  0  0  0  0  0  0
  183.9380  179.7710  139.5000 C   0  0  0  0  0  2  0  0  0  0  0  0
  182.7770  179.4480  138.6010 C   0  0  0  0  0  3  0  0  0  0  0  0
  182.6990  177.2080  139.5610 C   0  0  0  0  0  3  0  0  0  0  0  0
  183.8280  178.9980  140.8250 C   0  0  2  0  0  3  0  0  0  0  0  0
  181.1330  177.9100  137.6520 C   0  0  0  0  0  0  0  0  0  0  0  0
  180.0710  178.5860  137.6580 O   0  0  0  0  0  0  0  0  0  0  0  0
  181.2910  176.5640  136.4810 S   0  0  0  0  0  1  0  0  0  0  0  0
  184.7470  179.0980  143.2000 C   0  0  0  0  0  2  0  0  0  0  0  0
  185.0860  177.7310  143.7690 C   0  0  0  0  0  2  0  0  0  0  0  0
  185.6030  178.6130  146.0510 C   0  0  0  0  0  3  0  0  0  0  0  0
  188.1470  177.4520  145.9820 C   0  0  0  0  0  0  0  0  0  0  0  0
  187.2810  177.3030  144.8930 C   0  0  0  0  0  3  0  0  0  0  0  0
  186.4690  178.7640  147.1370 C   0  0  0  0  0  3  0  0  0  0  0  0
  186.0050  177.8780  144.9300 C   0  0  0  0  0  0  0  0  0  0  0  0
  189.3830  176.8990  145.9450 F   0  0  0  0  0  0  0  0  0  0  0  0
  187.7410  178.1830  147.1030 C   0  0  0  0  0  3  0  0  0  0  0  0
  190.8230  177.2770  136.2650 C   0  0  0  0  0  2  0  0  0  0  0  0
  189.3450  177.3470  134.6250 C   0  0  0  0  0  1  0  0  0  0  0  0
  189.6570  177.9270  135.8540 O   0  0  0  0  0  0  0  0  0  0  0  0
  191.3550  174.3810  136.9070 C   0  0  2  0  0  3  0  0  0  0  0  0
  188.8390  172.1910  134.9110 C   0  0  0  0  0  1  0  0  0  0  0  0
  188.9280  174.3120  136.3210 C   0  0  0  0  0  2  0  0  0  0  0  0
  189.6240  173.4170  135.3270 C   0  0  1  0  0  0  0  0  0  0  0  0
  190.1320  173.4820  136.7580 C   0  0  1  0  0  3  0  0  0  0  0  0
  190.3340  174.1160  134.3460 O   0  0  0  0  0  1  0  0  0  0  0  0
  192.6100  173.5430  137.1720 C   0  0  0  0  0  2  0  0  0  0  0  0
  193.7860  173.8600  136.2380 C   0  0  2  0  0  0  0  0  0  0  0  0
  192.8030  172.1460  134.5370 C   0  0  0  0  0  1  0  0  0  0  0  0
  194.0000  172.5740  135.3840 C   0  0  2  0  0  3  0  0  0  0  0  0
  194.5800  171.4010  136.1930 C   0  0  1  0  0  3  0  0  0  0  0  0
  193.5820  170.7360  136.9140 O   0  0  0  0  0  1  0  0  0  0  0  0
  195.1480  169.2020  135.4720 O   0  0  0  0  0  1  0  0  0  0  0  0
  195.3180  170.4390  135.3210 C   0  0  0  0  0  0  0  0  0  0  0  0
  196.1960  170.9000  134.3460 O   0  0  0  0  0  0  0  0  0  0  0  0
  194.9830  174.1510  137.1700 C   0  0  0  0  0  2  0  0  0  0  0  0
  194.7070  175.1290  138.1280 O   0  0  0  0  0  0  0  0  0  0  0  0
  195.4160  174.7230  139.2560 C   0  0  0  0  0  2  0  0  0  0  0  0
  196.8300  174.3540  138.8580 C   0  0  0  0  0  1  0  0  0  0  0  0
  193.4170  174.9900  135.4570 O   0  0  0  0  0  0  0  0  0  0  0  0
  194.3780  175.9420  135.5780 N   0  0  0  0  0  2  0  0  0  0  0  0
  194.1930  176.8760  134.4800 C   0  0  0  0  0  2  0  0  0  0  0  0
  195.4100  177.7690  134.3470 C   0  0  0  0  0  1  0  0  0  0  0  0
  2  3  1  0  0  0  0
  2  4  1  0  0  0  0
  3  1  2  0  0  0  0
  4  7  1  0  0  0  0
  4  5  1  1  0  0  0
  7  6  1  6  0  0  0
  7  8  1  0  0  0  0
  8  9  1  0  0  0  0
  9 10  1  0  0  0  0
 11 10  1  6  0  0  0
 11 21  1  0  0  0  0
 12 17  1  0  0  0  0
 13 15  2  0  0  0  0
 13 16  1  0  0  0  0
 14 17  1  0  0  0  0
 15 14  1  0  0  0  0
 16 12  2  0  0  0  0
 17 11  1  6  0  0  0
 18 19  2  0  0  0  0
 18 13  1  0  0  0  0
 20 18  1  0  0  0  0
 21 22  1  0  0  0  0
 22 27  1  0  0  0  0
 23 26  1  0  0  0  0
 24 29  1  0  0  0  0
 25 27  1  0  0  0  0
 25 24  2  0  0  0  0
 27 23  2  0  0  0  0
 28 24  1  0  0  0  0
 29 26  2  0  0  0  0
 30  2  1  0  0  0  0
 31 32  1  0  0  0  0
 32 30  1  0  0  0  0
 33 39  1  1  0  0  0
 33  3  1  0  0  0  0
 35 37  1  0  0  0  0
 36 34  1  6  0  0  0
 36 35  1  0  0  0  0
 36 37  1  0  0  0  0
 37 33  1  6  0  0  0
 38 36  1  0  0  0  0
 40 48  1  1  0  0  0
 40 39  1  0  0  0  0
 42 41  1  1  0  0  0
 42 43  1  0  0  0  0
 42 40  1  0  0  0  0
 43 44  1  6  0  0  0
 46 45  1  0  0  0  0
 46 43  1  0  0  0  0
 47 46  2  0  0  0  0
 48 49  1  0  0  0  0
 49 50  1  0  0  0  0
 51 50  1  0  0  0  0
 52 53  1  0  0  0  0
 52 40  1  0  0  0  0
 54 53  1  0  0  0  0
 55 54  1  0  0  0  0
M  END
>  <MODEL>
4

>  <REMARK>
 VINA RESULT:      -6.6      2.007      2.629
  Name = 
  26 active torsions:
  status: ('A' for Active; 'I' for Inactive)
    1  A    between atoms: C_1  and  N_30
    2  A    between atoms: C_2  and  C_28
    3  A    between atoms: C_2  and  C_44
    4  A    between atoms: C_6  and  C_8
    5  A    between atoms: C_6  and  O_20
    6  A    between atoms: C_6  and  C_38
    7  A    between atoms: C_6  and  C_46
    8  A    between atoms: C_7  and  C_8
    9  A    between atoms: C_7  and  C_23
   10  A    between atoms: C_7  and  C_43
   11  A    between atoms: C_10  and  C_32
   12  A    between atoms: C_11  and  C_29
   13  A    between atoms: C_11  and  C_38
   14  A    between atoms: C_12  and  O_14
   15  A    between atoms: O_14  and  C_46
   16  A    between atoms: C_16  and  N_17
   17  A    between atoms: C_16  and  C_26
   18  A    between atoms: N_17  and  C_37
   19  A    between atoms: C_19  and  C_45
   20  A    between atoms: C_19  and  C_49
   21  A    between atoms: O_20  and  N_30
   22  A    between atoms: C_26  and  C_45
   23  A    between atoms: C_28  and  C_33
   24  A    between atoms: C_33  and  C_49
   25  A    between atoms: C_33  and  C_52
   26  A    between atoms: C_37  and  O_40
                            x       y       z     vdW  Elec       q    Type
                         _______ _______ _______ _____ _____    ______ ____

>  <TORSDO>
F 26

$$$$
=
 OpenBabel10272401443D

 55 57  0  0  1  0  0  0  0  0999 V2000
  190.9220  176.5500  137.8600 O   0  0  0  0  0  0  0  0  0  0  0  0
  189.4930  177.2510  136.1420 N   0  0  0  0  0  0  0  0  0  0  0  0
  190.5300  176.3960  136.6720 C   0  0  0  0  0  0  0  0  0  0  0  0
  188.6620  178.0510  137.0630 C   0  0  2  0  0  3  0  0  0  0  0  0
  189.4720  179.1710  137.7160 C   0  0  0  0  0  1  0  0  0  0  0  0
  186.4960  177.7450  138.2920 C   0  0  0  0  0  1  0  0  0  0  0  0
  187.9040  177.2060  138.1030 C   0  0  2  0  0  3  0  0  0  0  0  0
  188.6320  177.1430  139.4460 C   0  0  0  0  0  2  0  0  0  0  0  0
  188.8920  178.5350  140.0060 C   0  0  0  0  0  2  0  0  0  0  0  0
  188.1470  178.7420  141.3180 C   0  0  0  0  0  2  0  0  0  0  0  0
  187.5840  177.4260  141.8440 C   0  0  1  0  0  3  0  0  0  0  0  0
  187.6470  177.6450  144.3480 C   0  0  0  0  0  3  0  0  0  0  0  0
  189.7190  177.2530  145.5960 C   0  0  0  0  0  0  0  0  0  0  0  0
  189.8020  177.2480  143.1180 C   0  0  0  0  0  2  0  0  0  0  0  0
  190.4020  176.9880  144.4720 C   0  0  0  0  0  3  0  0  0  0  0  0
  188.3170  177.7220  145.5020 C   0  0  0  0  0  3  0  0  0  0  0  0
  188.2840  177.0050  143.1430 C   0  0  2  0  0  3  0  0  0  0  0  0
  190.3550  177.0610  146.9140 C   0  0  0  0  0  0  0  0  0  0  0  0
  189.8380  177.5600  147.9470 O   0  0  0  0  0  0  0  0  0  0  0  0
  191.8700  176.1200  147.0780 S   0  0  0  0  0  1  0  0  0  0  0  0
  186.0740  177.5420  141.9930 C   0  0  0  0  0  2  0  0  0  0  0  0
  185.7300  178.3610  143.2250 C   0  0  0  0  0  2  0  0  0  0  0  0
  183.6550  178.9270  144.5020 C   0  0  0  0  0  3  0  0  0  0  0  0
  182.1020  178.6910  142.1860 C   0  0  0  0  0  0  0  0  0  0  0  0
  183.4830  178.4760  142.1270 C   0  0  0  0  0  3  0  0  0  0  0  0
  182.2750  179.1390  144.5620 C   0  0  0  0  0  3  0  0  0  0  0  0
  184.2630  178.6000  143.2830 C   0  0  0  0  0  0  0  0  0  0  0  0
  181.3490  178.5670  141.0690 F   0  0  0  0  0  0  0  0  0  0  0  0
  181.4990  179.0220  143.4040 C   0  0  0  0  0  3  0  0  0  0  0  0
  189.3750  177.4290  134.6960 C   0  0  0  0  0  2  0  0  0  0  0  0
  187.4700  176.3150  134.6140 C   0  0  0  0  0  1  0  0  0  0  0  0
  188.0300  177.5640  134.3460 O   0  0  0  0  0  0  0  0  0  0  0  0
  191.1780  175.3100  135.8540 C   0  0  2  0  0  3  0  0  0  0  0  0
  188.1460  172.8800  135.9970 C   0  0  0  0  0  1  0  0  0  0  0  0
  190.6130  172.9270  135.3590 C   0  0  0  0  0  2  0  0  0  0  0  0
  189.5290  173.4330  136.2760 C   0  0  1  0  0  0  0  0  0  0  0  0
  190.1360  174.3740  135.2490 C   0  0  1  0  0  3  0  0  0  0  0  0
  189.9360  173.5620  137.6070 O   0  0  0  0  0  1  0  0  0  0  0  0
  192.2220  174.5140  136.6430 C   0  0  0  0  0  2  0  0  0  0  0  0
  193.4790  175.3150  137.0090 C   0  0  2  0  0  0  0  0  0  0  0  0
  194.3540  172.9170  136.4800 C   0  0  0  0  0  1  0  0  0  0  0  0
  194.6190  174.2620  137.1540 C   0  0  2  0  0  3  0  0  0  0  0  0
  195.1030  174.0920  138.6040 C   0  0  1  0  0  3  0  0  0  0  0  0
  195.0140  172.7590  139.0200 O   0  0  0  0  0  1  0  0  0  0  0  0
  197.0150  174.6080  139.9310 O   0  0  0  0  0  1  0  0  0  0  0  0
  196.4970  174.5990  138.7840 C   0  0  0  0  0  0  0  0  0  0  0  0
  197.2250  175.0660  137.6950 O   0  0  0  0  0  0  0  0  0  0  0  0
  193.1480  176.0090  138.3490 C   0  0  0  0  0  2  0  0  0  0  0  0
  193.7470  177.2630  138.4790 O   0  0  0  0  0  0  0  0  0  0  0  0
  193.8230  177.4740  139.8530 C   0  0  0  0  0  2  0  0  0  0  0  0
  192.4360  177.3860  140.4560 C   0  0  0  0  0  1  0  0  0  0  0  0
  193.7120  176.2440  135.9580 O   0  0  0  0  0  0  0  0  0  0  0  0
  195.0410  176.2630  135.6730 N   0  0  0  0  0  2  0  0  0  0  0  0
  195.2260  177.1960  134.5740 C   0  0  0  0  0  2  0  0  0  0  0  0
  196.1360  178.3300  135.0040 C   0  0  0  0  0  1  0  0  0  0  0  0
  2  3  1  0  0  0  0
  2  4  1  0  0  0  0
  3  1  2  0  0  0  0
  4  5  1  1  0  0  0
  4  7  1  0  0  0  0
  7  6  1  1  0  0  0
  7  8  1  0  0  0  0
  8  9  1  0  0  0  0
  9 10  1  0  0  0  0
 11 10  1  1  0  0  0
 11 21  1  0  0  0  0
 12 16  2  0  0  0  0
 13 18  1  0  0  0  0
 14 17  1  0  0  0  0
 14 15  1  0  0  0  0
 15 13  2  0  0  0  0
 16 13  1  0  0  0  0
 17 11  1  6  0  0  0
 17 12  1  0  0  0  0
 18 20  1  0  0  0  0
 18 19  2  0  0  0  0
 21 22  1  0  0  0  0
 22 27  1  0  0  0  0
 23 26  1  0  0  0  0
 24 29  1  0  0  0  0
 25 24  2  0  0  0  0
 25 27  1  0  0  0  0
 27 23  2  0  0  0  0
 28 24  1  0  0  0  0
 29 26  2  0  0  0  0
 30  2  1  0  0  0  0
 32 31  1  0  0  0  0
 32 30  1  0  0  0  0
 33 39  1  1  0  0  0
 33  3  1  0  0  0  0
 35 36  1  0  0  0  0
 36 34  1  6  0  0  0
 36 38  1  0  0  0  0
 37 35  1  0  0  0  0
 37 33  1  1  0  0  0
 37 36  1  0  0  0  0
 40 39  1  6  0  0  0
 40 42  1  0  0  0  0
 40 48  1  0  0  0  0
 42 41  1  1  0  0  0
 42 43  1  0  0  0  0
 43 46  1  0  0  0  0
 43 44  1  6  0  0  0
 46 45  1  0  0  0  0
 47 46  2  0  0  0  0
 48 49  1  0  0  0  0
 49 50  1  0  0  0  0
 50 51  1  0  0  0  0
 52 40  1  0  0  0  0
 53 52  1  0  0  0  0
 54 55  1  0  0  0  0
 54 53  1  0  0  0  0
M  END
>  <MODEL>
5

>  <REMARK>
 VINA RESULT:      -5.9      3.258      5.243
  Name = 
  26 active torsions:
  status: ('A' for Active; 'I' for Inactive)
    1  A    between atoms: C_1  and  N_30
    2  A    between atoms: C_2  and  C_28
    3  A    between atoms: C_2  and  C_44
    4  A    between atoms: C_6  and  C_8
    5  A    between atoms: C_6  and  O_20
    6  A    between atoms: C_6  and  C_38
    7  A    between atoms: C_6  and  C_46
    8  A    between atoms: C_7  and  C_8
    9  A    between atoms: C_7  and  C_23
   10  A    between atoms: C_7  and  C_43
   11  A    between atoms: C_10  and  C_32
   12  A    between atoms: C_11  and  C_29
   13  A    between atoms: C_11  and  C_38
   14  A    between atoms: C_12  and  O_14
   15  A    between atoms: O_14  and  C_46
   16  A    between atoms: C_16  and  N_17
   17  A    between atoms: C_16  and  C_26
   18  A    between atoms: N_17  and  C_37
   19  A    between atoms: C_19  and  C_45
   20  A    between atoms: C_19  and  C_49
   21  A    between atoms: O_20  and  N_30
   22  A    between atoms: C_26  and  C_45
   23  A    between atoms: C_28  and  C_33
   24  A    between atoms: C_33  and  C_49
   25  A    between atoms: C_33  and  C_52
   26  A    between atoms: C_37  and  O_40
                            x       y       z     vdW  Elec       q    Type
                         _______ _______ _______ _____ _____    ______ ____

>  <TORSDO>
F 26

$$$$
=
 OpenBabel10272401443D

 55 57  0  0  1  0  0  0  0  0999 V2000
  188.5720  178.7770  139.8340 O   0  0  0  0  0  0  0  0  0  0  0  0
  186.5260  177.9810  139.0170 N   0  0  0  0  0  0  0  0  0  0  0  0
  187.4000  178.3930  140.0920 C   0  0  0  0  0  0  0  0  0  0  0  0
  186.8650  178.3320  137.6240 C   0  0  2  0  0  3  0  0  0  0  0  0
  185.9200  177.6550  136.6320 C   0  0  0  0  0  1  0  0  0  0  0  0
  188.9720  179.3710  136.7440 C   0  0  0  0  0  1  0  0  0  0  0  0
  188.3440  178.0920  137.2690 C   0  0  2  0  0  3  0  0  0  0  0  0
  188.5230  176.9600  136.2570 C   0  0  0  0  0  2  0  0  0  0  0  0
  189.8360  176.2180  136.4750 C   0  0  0  0  0  2  0  0  0  0  0  0
  190.3920  175.6960  135.1580 C   0  0  0  0  0  2  0  0  0  0  0  0
  190.7930  174.2290  135.2730 C   0  0  1  0  0  3  0  0  0  0  0  0
  192.5590  173.8370  137.0190 C   0  0  0  0  0  3  0  0  0  0  0  0
  194.8530  174.6350  136.6930 C   0  0  0  0  0  0  0  0  0  0  0  0
  193.1230  175.2710  135.0340 C   0  0  0  0  0  2  0  0  0  0  0  0
  194.5500  175.1630  135.4970 C   0  0  0  0  0  3  0  0  0  0  0  0
  193.7730  174.0630  137.5300 C   0  0  0  0  0  3  0  0  0  0  0  0
  192.2940  174.0870  135.5580 C   0  0  2  0  0  3  0  0  0  0  0  0
  196.2530  174.6090  137.1590 C   0  0  0  0  0  0  0  0  0  0  0  0
  196.5200  174.7950  138.3750 O   0  0  0  0  0  0  0  0  0  0  0  0
  197.6000  174.3170  136.0160 S   0  0  0  0  0  1  0  0  0  0  0  0
  189.9220  173.5450  136.3180 C   0  0  0  0  0  2  0  0  0  0  0  0
  189.0780  172.4610  135.6690 C   0  0  0  0  0  2  0  0  0  0  0  0
  187.2820  173.6510  136.9380 C   0  0  0  0  0  3  0  0  0  0  0  0
  185.3730  171.7940  136.0810 C   0  0  0  0  0  0  0  0  0  0  0  0
  186.7040  171.6670  135.6720 C   0  0  0  0  0  3  0  0  0  0  0  0
  185.9520  173.7760  137.3490 C   0  0  0  0  0  3  0  0  0  0  0  0
  187.6590  172.6000  136.0940 C   0  0  0  0  0  0  0  0  0  0  0  0
  184.4500  170.8900  135.6760 F   0  0  0  0  0  0  0  0  0  0  0  0
  184.9970  172.8480  136.9210 C   0  0  0  0  0  3  0  0  0  0  0  0
  185.3980  177.0960  139.3040 C   0  0  0  0  0  2  0  0  0  0  0  0
  183.2670  176.6340  138.9490 C   0  0  0  0  0  1  0  0  0  0  0  0
  184.2380  177.6090  138.7200 O   0  0  0  0  0  0  0  0  0  0  0  0
  186.9660  178.3800  141.5350 C   0  0  2  0  0  3  0  0  0  0  0  0
  183.7600  179.8550  143.1650 C   0  0  0  0  0  1  0  0  0  0  0  0
  184.7590  179.3470  140.8760 C   0  0  0  0  0  2  0  0  0  0  0  0
  184.6240  178.9400  142.3210 C   0  0  1  0  0  0  0  0  0  0  0  0
  185.9520  179.4820  141.8200 C   0  0  1  0  0  3  0  0  0  0  0  0
  184.5060  177.5600  142.5060 O   0  0  0  0  0  1  0  0  0  0  0  0
  188.1450  178.4680  142.5100 C   0  0  0  0  0  2  0  0  0  0  0  0
  188.1100  177.4240  143.6340 C   0  0  2  0  0  0  0  0  0  0  0  0
  190.1600  178.9130  144.2490 C   0  0  0  0  0  1  0  0  0  0  0  0
  189.0650  177.9690  144.7400 C   0  0  2  0  0  3  0  0  0  0  0  0
  189.6260  176.8640  145.6510 C   0  0  1  0  0  3  0  0  0  0  0  0
  191.0120  176.7370  145.5070 O   0  0  0  0  0  1  0  0  0  0  0  0
  189.5080  178.2130  147.6120 O   0  0  0  0  0  0  0  0  0  0  0  0
  189.2720  177.0960  147.0840 C   0  0  0  0  0  0  0  0  0  0  0  0
  188.6890  176.0850  147.8400 O   0  0  0  0  0  1  0  0  0  0  0  0
  188.6350  176.1180  142.9980 C   0  0  0  0  0  2  0  0  0  0  0  0
  189.2770  176.3230  141.7760 O   0  0  0  0  0  0  0  0  0  0  0  0
  190.6350  176.2340  142.0760 C   0  0  0  0  0  2  0  0  0  0  0  0
  191.4100  177.1990  141.2030 C   0  0  0  0  0  1  0  0  0  0  0  0
  186.7620  177.3130  144.0710 O   0  0  0  0  0  0  0  0  0  0  0  0
  186.7250  177.4270  145.4250 N   0  0  0  0  0  2  0  0  0  0  0  0
  185.5780  178.2570  145.7510 C   0  0  0  0  0  2  0  0  0  0  0  0
  185.8860  179.1140  146.9630 C   0  0  0  0  0  1  0  0  0  0  0  0
  1  3  2  0  0  0  0
  2 30  1  0  0  0  0
  2  3  1  0  0  0  0
  3 33  1  0  0  0  0
  4  5  1  6  0  0  0
  4  2  1  0  0  0  0
  7  6  1  6  0  0  0
  7  4  1  0  0  0  0
  8  9  1  0  0  0  0
  8  7  1  0  0  0  0
 10  9  1  0  0  0  0
 11 10  1  1  0  0  0
 11 21  1  0  0  0  0
 12 16  2  0  0  0  0
 13 18  1  0  0  0  0
 13 16  1  0  0  0  0
 14 15  1  0  0  0  0
 14 17  1  0  0  0  0
 15 13  2  0  0  0  0
 17 11  1  1  0  0  0
 17 12  1  0  0  0  0
 18 19  2  0  0  0  0
 20 18  1  0  0  0  0
 22 27  1  0  0  0  0
 22 21  1  0  0  0  0
 23 26  1  0  0  0  0
 24 29  1  0  0  0  0
 25 24  2  0  0  0  0
 25 27  1  0  0  0  0
 27 23  2  0  0  0  0
 28 24  1  0  0  0  0
 29 26  2  0  0  0  0
 32 31  1  0  0  0  0
 32 30  1  0  0  0  0
 33 39  1  1  0  0  0
 35 37  1  0  0  0  0
 35 36  1  0  0  0  0
 36 38  1  0  0  0  0
 36 34  1  1  0  0  0
 37 33  1  6  0  0  0
 37 36  1  0  0  0  0
 40 39  1  6  0  0  0
 40 52  1  0  0  0  0
 40 42  1  0  0  0  0
 42 41  1  6  0  0  0
 42 43  1  0  0  0  0
 43 44  1  1  0  0  0
 43 46  1  0  0  0  0
 46 45  2  0  0  0  0
 46 47  1  0  0  0  0
 48 40  1  0  0  0  0
 49 50  1  0  0  0  0
 49 48  1  0  0  0  0
 51 50  1  0  0  0  0
 52 53  1  0  0  0  0
 53 54  1  0  0  0  0
 54 55  1  0  0  0  0
M  END
>  <MODEL>
6

>  <REMARK>
 VINA RESULT:      -5.6      4.750     11.185
  Name = 
  26 active torsions:
  status: ('A' for Active; 'I' for Inactive)
    1  A    between atoms: C_1  and  N_30
    2  A    between atoms: C_2  and  C_28
    3  A    between atoms: C_2  and  C_44
    4  A    between atoms: C_6  and  C_8
    5  A    between atoms: C_6  and  O_20
    6  A    between atoms: C_6  and  C_38
    7  A    between atoms: C_6  and  C_46
    8  A    between atoms: C_7  and  C_8
    9  A    between atoms: C_7  and  C_23
   10  A    between atoms: C_7  and  C_43
   11  A    between atoms: C_10  and  C_32
   12  A    between atoms: C_11  and  C_29
   13  A    between atoms: C_11  and  C_38
   14  A    between atoms: C_12  and  O_14
   15  A    between atoms: O_14  and  C_46
   16  A    between atoms: C_16  and  N_17
   17  A    between atoms: C_16  and  C_26
   18  A    between atoms: N_17  and  C_37
   19  A    between atoms: C_19  and  C_45
   20  A    between atoms: C_19  and  C_49
   21  A    between atoms: O_20  and  N_30
   22  A    between atoms: C_26  and  C_45
   23  A    between atoms: C_28  and  C_33
   24  A    between atoms: C_33  and  C_49
   25  A    between atoms: C_33  and  C_52
   26  A    between atoms: C_37  and  O_40
                            x       y       z     vdW  Elec       q    Type
                         _______ _______ _______ _____ _____    ______ ____

>  <TORSDO>
F 26

$$$$
=
 OpenBabel10272401443D

 55 57  0  0  1  0  0  0  0  0999 V2000
  193.5860  176.8220  138.8070 O   0  0  0  0  0  0  0  0  0  0  0  0
  191.2770  176.8830  138.4190 N   0  0  0  0  0  0  0  0  0  0  0  0
  192.6050  176.3840  138.1470 C   0  0  0  0  0  0  0  0  0  0  0  0
  191.0150  177.6200  139.6700 C   0  0  2  0  0  3  0  0  0  0  0  0
  192.2400  177.6250  140.5830 C   0  0  0  0  0  1  0  0  0  0  0  0
  188.7170  178.2710  140.4420 C   0  0  0  0  0  1  0  0  0  0  0  0
  189.7460  177.1540  140.4080 C   0  0  2  0  0  3  0  0  0  0  0  0
  190.0440  176.6650  141.8260 C   0  0  0  0  0  2  0  0  0  0  0  0
  189.3120  177.4990  142.8700 C   0  0  0  0  0  2  0  0  0  0  0  0
  187.9230  176.9370  143.1380 C   0  0  0  0  0  2  0  0  0  0  0  0
  187.5440  177.0870  144.6080 C   0  0  1  0  0  3  0  0  0  0  0  0
  188.4380  177.0820  146.9580 C   0  0  0  0  0  3  0  0  0  0  0  0
  190.8500  177.0950  147.3890 C   0  0  0  0  0  0  0  0  0  0  0  0
  190.0570  177.3390  145.0530 C   0  0  0  0  0  2  0  0  0  0  0  0
  191.1320  177.1100  146.0780 C   0  0  0  0  0  3  0  0  0  0  0  0
  189.4410  177.2140  147.8310 C   0  0  0  0  0  3  0  0  0  0  0  0
  188.7240  176.7320  145.5220 C   0  0  2  0  0  3  0  0  0  0  0  0
  191.9330  176.9440  148.3800 C   0  0  0  0  0  0  0  0  0  0  0  0
  192.0410  177.7600  149.3330 O   0  0  0  0  0  0  0  0  0  0  0  0
  193.1170  175.6060  148.2550 S   0  0  0  0  0  1  0  0  0  0  0  0
  187.0030  178.4890  144.8530 C   0  0  0  0  0  2  0  0  0  0  0  0
  185.6560  178.4170  145.5490 C   0  0  0  0  0  2  0  0  0  0  0  0
  183.2490  178.8150  145.0000 C   0  0  0  0  0  3  0  0  0  0  0  0
  183.8040  178.7310  142.2600 C   0  0  0  0  0  0  0  0  0  0  0  0
  184.8370  178.5600  143.1880 C   0  0  0  0  0  3  0  0  0  0  0  0
  182.2170  178.9820  144.0730 C   0  0  0  0  0  3  0  0  0  0  0  0
  184.5620  178.6090  144.5590 C   0  0  0  0  0  0  0  0  0  0  0  0
  184.0710  178.6800  140.9330 F   0  0  0  0  0  0  0  0  0  0  0  0
  182.4940  178.9410  142.7030 C   0  0  0  0  0  3  0  0  0  0  0  0
  190.2440  176.7820  137.3890 C   0  0  0  0  0  2  0  0  0  0  0  0
  188.9880  178.0090  136.0490 C   0  0  0  0  0  1  0  0  0  0  0  0
  189.5090  177.9680  137.3420 O   0  0  0  0  0  0  0  0  0  0  0  0
  192.8780  175.3480  137.0870 C   0  0  2  0  0  3  0  0  0  0  0  0
  190.7690  173.2550  134.5800 C   0  0  0  0  0  1  0  0  0  0  0  0
  191.0760  175.6540  135.3850 C   0  0  0  0  0  2  0  0  0  0  0  0
  191.7190  174.3240  135.0800 C   0  0  1  0  0  0  0  0  0  0  0  0
  191.5810  174.7740  136.5250 C   0  0  1  0  0  3  0  0  0  0  0  0
  192.9730  174.4340  134.4750 O   0  0  0  0  0  1  0  0  0  0  0  0
  193.7960  174.2230  137.5780 C   0  0  0  0  0  2  0  0  0  0  0  0
  195.2720  174.4100  137.2050 C   0  0  2  0  0  0  0  0  0  0  0  0
  194.6160  172.0860  136.2220 C   0  0  0  0  0  1  0  0  0  0  0  0
  195.6020  173.2520  136.2150 C   0  0  2  0  0  3  0  0  0  0  0  0
  197.0600  172.7710  136.3130 C   0  0  1  0  0  3  0  0  0  0  0  0
  197.7090  173.3270  137.4200 O   0  0  0  0  0  1  0  0  0  0  0  0
  197.5950  170.7100  137.3850 O   0  0  0  0  0  1  0  0  0  0  0  0
  197.1490  171.2800  136.3560 C   0  0  0  0  0  0  0  0  0  0  0  0
  196.7470  170.5170  135.2650 O   0  0  0  0  0  0  0  0  0  0  0  0
  196.0510  174.2840  138.5330 C   0  0  0  0  0  2  0  0  0  0  0  0
  195.7630  175.3100  139.4350 O   0  0  0  0  0  0  0  0  0  0  0  0
  196.6380  175.0960  140.4980 C   0  0  0  0  0  2  0  0  0  0  0  0
  198.0570  175.3700  140.0480 C   0  0  0  0  0  1  0  0  0  0  0  0
  195.4040  175.6970  136.6160 O   0  0  0  0  0  0  0  0  0  0  0  0
  196.6850  175.8610  136.1940 N   0  0  0  0  0  2  0  0  0  0  0  0
  196.6340  176.6470  134.9740 C   0  0  0  0  0  2  0  0  0  0  0  0
  195.3450  177.4440  134.9230 C   0  0  0  0  0  1  0  0  0  0  0  0
  2  4  1  0  0  0  0
  3  2  1  0  0  0  0
  3  1  2  0  0  0  0
  4  7  1  0  0  0  0
  4  5  1  1  0  0  0
  7  6  1  1  0  0  0
  7  8  1  0  0  0  0
  8  9  1  0  0  0  0
  9 10  1  0  0  0  0
 11 10  1  6  0  0  0
 11 21  1  0  0  0  0
 12 16  2  0  0  0  0
 13 16  1  0  0  0  0
 13 18  1  0  0  0  0
 14 17  1  0  0  0  0
 14 15  1  0  0  0  0
 15 13  2  0  0  0  0
 17 11  1  6  0  0  0
 17 12  1  0  0  0  0
 18 19  2  0  0  0  0
 20 18  1  0  0  0  0
 21 22  1  0  0  0  0
 24 29  2  0  0  0  0
 24 25  1  0  0  0  0
 25 27  2  0  0  0  0
 26 23  2  0  0  0  0
 27 23  1  0  0  0  0
 27 22  1  0  0  0  0
 28 24  1  0  0  0  0
 29 26  1  0  0  0  0
 30  2  1  0  0  0  0
 31 32  1  0  0  0  0
 32 30  1  0  0  0  0
 33 39  1  1  0  0  0
 33  3  1  0  0  0  0
 35 37  1  0  0  0  0
 36 34  1  6  0  0  0
 36 35  1  0  0  0  0
 36 37  1  0  0  0  0
 37 33  1  6  0  0  0
 38 36  1  0  0  0  0
 40 39  1  1  0  0  0
 40 48  1  0  0  0  0
 42 41  1  1  0  0  0
 42 43  1  0  0  0  0
 42 40  1  0  0  0  0
 43 46  1  0  0  0  0
 43 44  1  1  0  0  0
 46 45  1  0  0  0  0
 47 46  2  0  0  0  0
 48 49  1  0  0  0  0
 49 50  1  0  0  0  0
 51 50  1  0  0  0  0
 52 40  1  0  0  0  0
 53 52  1  0  0  0  0
 54 53  1  0  0  0  0
 55 54  1  0  0  0  0
M  END
>  <MODEL>
7

>  <REMARK>
 VINA RESULT:      -5.5      2.871      4.902
  Name = 
  26 active torsions:
  status: ('A' for Active; 'I' for Inactive)
    1  A    between atoms: C_1  and  N_30
    2  A    between atoms: C_2  and  C_28
    3  A    between atoms: C_2  and  C_44
    4  A    between atoms: C_6  and  C_8
    5  A    between atoms: C_6  and  O_20
    6  A    between atoms: C_6  and  C_38
    7  A    between atoms: C_6  and  C_46
    8  A    between atoms: C_7  and  C_8
    9  A    between atoms: C_7  and  C_23
   10  A    between atoms: C_7  and  C_43
   11  A    between atoms: C_10  and  C_32
   12  A    between atoms: C_11  and  C_29
   13  A    between atoms: C_11  and  C_38
   14  A    between atoms: C_12  and  O_14
   15  A    between atoms: O_14  and  C_46
   16  A    between atoms: C_16  and  N_17
   17  A    between atoms: C_16  and  C_26
   18  A    between atoms: N_17  and  C_37
   19  A    between atoms: C_19  and  C_45
   20  A    between atoms: C_19  and  C_49
   21  A    between atoms: O_20  and  N_30
   22  A    between atoms: C_26  and  C_45
   23  A    between atoms: C_28  and  C_33
   24  A    between atoms: C_33  and  C_49
   25  A    between atoms: C_33  and  C_52
   26  A    between atoms: C_37  and  O_40
                            x       y       z     vdW  Elec       q    Type
                         _______ _______ _______ _____ _____    ______ ____

>  <TORSDO>
F 26

$$$$
=
 OpenBabel10272401443D

 55 57  0  0  1  0  0  0  0  0999 V2000
  186.4320  178.7960  140.3610 O   0  0  0  0  0  0  0  0  0  0  0  0
  186.8350  177.5950  142.3320 N   0  0  0  0  0  0  0  0  0  0  0  0
  185.9620  178.3030  141.4230 C   0  0  0  0  0  0  0  0  0  0  0  0
  188.1640  177.1490  141.8730 C   0  0  2  0  0  3  0  0  0  0  0  0
  188.8420  176.2530  142.9090 C   0  0  0  0  0  1  0  0  0  0  0  0
  188.5710  179.6230  141.9650 C   0  0  0  0  0  1  0  0  0  0  0  0
  189.0790  178.3000  141.4180 C   0  0  2  0  0  3  0  0  0  0  0  0
  189.2110  178.3730  139.8960 C   0  0  0  0  0  2  0  0  0  0  0  0
  190.4840  177.6910  139.4120 C   0  0  0  0  0  2  0  0  0  0  0  0
  190.2110  176.2460  139.0180 C   0  0  0  0  0  2  0  0  0  0  0  0
  190.7550  175.9440  137.6260 C   0  0  1  0  0  3  0  0  0  0  0  0
  192.9940  176.5070  136.6300 C   0  0  0  0  0  3  0  0  0  0  0  0
  194.8660  174.9310  136.7660 C   0  0  0  0  0  0  0  0  0  0  0  0
  192.6340  174.2010  137.5620 C   0  0  0  0  0  2  0  0  0  0  0  0
  194.1220  174.0310  137.4260 C   0  0  0  0  0  3  0  0  0  0  0  0
  194.2260  176.1610  136.2440 C   0  0  0  0  0  3  0  0  0  0  0  0
  192.2680  175.6910  137.6660 C   0  0  2  0  0  3  0  0  0  0  0  0
  196.3120  174.7050  136.5800 C   0  0  0  0  0  0  0  0  0  0  0  0
  196.9140  173.8400  137.2690 O   0  0  0  0  0  0  0  0  0  0  0  0
  197.2460  175.6480  135.3770 S   0  0  0  0  0  1  0  0  0  0  0  0
  189.9750  174.7890  137.0140 C   0  0  0  0  0  2  0  0  0  0  0  0
  188.4960  174.9290  137.3280 C   0  0  0  0  0  2  0  0  0  0  0  0
  186.6090  174.3880  135.7790 C   0  0  0  0  0  3  0  0  0  0  0  0
  187.3110  171.6800  135.7830 C   0  0  0  0  0  0  0  0  0  0  0  0
  188.0580  172.5970  136.5310 C   0  0  0  0  0  3  0  0  0  0  0  0
  185.8610  173.4720  135.0350 C   0  0  0  0  0  3  0  0  0  0  0  0
  187.7110  173.9530  136.5250 C   0  0  0  0  0  0  0  0  0  0  0  0
  187.6440  170.3680  135.7930 F   0  0  0  0  0  0  0  0  0  0  0  0
  186.2130  172.1180  135.0360 C   0  0  0  0  0  3  0  0  0  0  0  0
  186.4540  177.4600  143.7370 C   0  0  0  0  0  2  0  0  0  0  0  0
  186.8990  177.9900  145.8350 C   0  0  0  0  0  1  0  0  0  0  0  0
  187.4350  178.0330  144.5480 O   0  0  0  0  0  0  0  0  0  0  0  0
  184.4920  178.4870  141.6920 C   0  0  2  0  0  3  0  0  0  0  0  0
  182.1950  178.7830  144.8150 C   0  0  0  0  0  1  0  0  0  0  0  0
  184.2620  179.8500  143.7730 C   0  0  0  0  0  2  0  0  0  0  0  0
  182.9220  179.1940  143.5510 C   0  0  1  0  0  0  0  0  0  0  0  0
  184.1910  178.4420  143.1870 C   0  0  1  0  0  3  0  0  0  0  0  0
  182.1810  179.7710  142.5170 O   0  0  0  0  0  1  0  0  0  0  0  0
  183.6190  177.4780  140.9380 C   0  0  0  0  0  2  0  0  0  0  0  0
  182.9970  178.0270  139.6470 C   0  0  2  0  0  0  0  0  0  0  0  0
  180.7070  177.7420  140.8610 C   0  0  0  0  0  1  0  0  0  0  0  0
  181.5430  177.4650  139.6130 C   0  0  2  0  0  3  0  0  0  0  0  0
  181.4760  175.9870  139.1930 C   0  0  1  0  0  3  0  0  0  0  0  0
  180.7660  175.2230  140.1250 O   0  0  0  0  0  1  0  0  0  0  0  0
  180.7760  174.6760  137.3290 O   0  0  0  0  0  1  0  0  0  0  0  0
  180.8840  175.8250  137.8310 C   0  0  0  0  0  0  0  0  0  0  0  0
  180.4560  176.9350  137.1110 O   0  0  0  0  0  0  0  0  0  0  0  0
  183.8680  177.4670  138.5010 C   0  0  0  0  0  2  0  0  0  0  0  0
  184.9030  178.3280  138.1290 O   0  0  0  0  0  0  0  0  0  0  0  0
  185.8210  177.5090  137.4760 C   0  0  0  0  0  2  0  0  0  0  0  0
  186.9060  178.3610  136.8540 C   0  0  0  0  0  1  0  0  0  0  0  0
  183.0420  179.4450  139.7220 O   0  0  0  0  0  0  0  0  0  0  0  0
  182.3550  179.9650  138.6720 N   0  0  0  0  0  2  0  0  0  0  0  0
  181.5970  181.0970  139.1770 C   0  0  0  0  0  2  0  0  0  0  0  0
  181.5020  182.1750  138.1150 C   0  0  0  0  0  1  0  0  0  0  0  0
  1  3  2  0  0  0  0
  2 30  1  0  0  0  0
  3 33  1  0  0  0  0
  3  2  1  0  0  0  0
  4  2  1  0  0  0  0
  4  5  1  1  0  0  0
  7  4  1  0  0  0  0
  7  6  1  6  0  0  0
  8  7  1  0  0  0  0
  9  8  1  0  0  0  0
 10  9  1  0  0  0  0
 11 21  1  1  0  0  0
 11 10  1  0  0  0  0
 12 17  1  0  0  0  0
 13 15  2  0  0  0  0
 14 17  1  0  0  0  0
 15 14  1  0  0  0  0
 16 12  2  0  0  0  0
 16 13  1  0  0  0  0
 17 11  1  6  0  0  0
 18 13  1  0  0  0  0
 18 19  2  0  0  0  0
 20 18  1  0  0  0  0
 21 22  1  0  0  0  0
 23 27  1  0  0  0  0
 24 28  1  0  0  0  0
 24 25  1  0  0  0  0
 26 29  1  0  0  0  0
 26 23  2  0  0  0  0
 27 25  2  0  0  0  0
 27 22  1  0  0  0  0
 29 24  2  0  0  0  0
 30 32  1  0  0  0  0
 32 31  1  0  0  0  0
 33 39  1  6  0  0  0
 36 35  1  0  0  0  0
 36 34  1  1  0  0  0
 37 33  1  6  0  0  0
 37 36  1  0  0  0  0
 37 35  1  0  0  0  0
 38 36  1  0  0  0  0
 40 48  1  6  0  0  0
 40 52  1  0  0  0  0
 40 39  1  0  0  0  0
 42 40  1  0  0  0  0
 42 41  1  1  0  0  0
 43 42  1  0  0  0  0
 43 44  1  1  0  0  0
 45 46  1  0  0  0  0
 46 43  1  0  0  0  0
 47 46  2  0  0  0  0
 49 48  1  0  0  0  0
 50 49  1  0  0  0  0
 51 50  1  0  0  0  0
 53 54  1  0  0  0  0
 53 52  1  0  0  0  0
 55 54  1  0  0  0  0
M  END
>  <MODEL>
8

>  <REMARK>
 VINA RESULT:      -5.3      4.421     12.232
  Name = 
  26 active torsions:
  status: ('A' for Active; 'I' for Inactive)
    1  A    between atoms: C_1  and  N_30
    2  A    between atoms: C_2  and  C_28
    3  A    between atoms: C_2  and  C_44
    4  A    between atoms: C_6  and  C_8
    5  A    between atoms: C_6  and  O_20
    6  A    between atoms: C_6  and  C_38
    7  A    between atoms: C_6  and  C_46
    8  A    between atoms: C_7  and  C_8
    9  A    between atoms: C_7  and  C_23
   10  A    between atoms: C_7  and  C_43
   11  A    between atoms: C_10  and  C_32
   12  A    between atoms: C_11  and  C_29
   13  A    between atoms: C_11  and  C_38
   14  A    between atoms: C_12  and  O_14
   15  A    between atoms: O_14  and  C_46
   16  A    between atoms: C_16  and  N_17
   17  A    between atoms: C_16  and  C_26
   18  A    between atoms: N_17  and  C_37
   19  A    between atoms: C_19  and  C_45
   20  A    between atoms: C_19  and  C_49
   21  A    between atoms: O_20  and  N_30
   22  A    between atoms: C_26  and  C_45
   23  A    between atoms: C_28  and  C_33
   24  A    between atoms: C_33  and  C_49
   25  A    between atoms: C_33  and  C_52
   26  A    between atoms: C_37  and  O_40
                            x       y       z     vdW  Elec       q    Type
                         _______ _______ _______ _____ _____    ______ ____

>  <TORSDO>
F 26

$$$$
=
 OpenBabel10272401443D

 55 57  0  0  1  0  0  0  0  0999 V2000
  187.2870  176.6040  142.7600 O   0  0  0  0  0  0  0  0  0  0  0  0
  188.5700  178.3250  141.8230 N   0  0  0  0  0  0  0  0  0  0  0  0
  187.3100  177.6660  142.0820 C   0  0  0  0  0  0  0  0  0  0  0  0
  189.7590  177.9690  142.6210 C   0  0  2  0  0  3  0  0  0  0  0  0
  190.4740  179.2140  143.1450 C   0  0  0  0  0  1  0  0  0  0  0  0
  192.0550  177.6970  141.6470 C   0  0  0  0  0  1  0  0  0  0  0  0
  190.7240  177.0110  141.8980 C   0  0  2  0  0  3  0  0  0  0  0  0
  190.1450  176.4820  140.5860 C   0  0  0  0  0  2  0  0  0  0  0  0
  191.1730  176.5270  139.4630 C   0  0  0  0  0  2  0  0  0  0  0  0
  190.9030  175.4390  138.4330 C   0  0  0  0  0  2  0  0  0  0  0  0
  191.1740  175.9400  137.0190 C   0  0  1  0  0  3  0  0  0  0  0  0
  192.9180  174.1400  137.2190 C   0  0  0  0  0  3  0  0  0  0  0  0
  195.2180  174.5230  136.4630 C   0  0  0  0  0  0  0  0  0  0  0  0
  193.6270  176.4250  136.4480 C   0  0  0  0  0  2  0  0  0  0  0  0
  194.9340  175.7780  136.0830 C   0  0  0  0  0  3  0  0  0  0  0  0
  194.1890  173.7290  137.1740 C   0  0  0  0  0  3  0  0  0  0  0  0
  192.4970  175.3820  136.4790 C   0  0  2  0  0  3  0  0  0  0  0  0
  196.5370  173.9360  136.1580 C   0  0  0  0  0  0  0  0  0  0  0  0
  196.7940  172.7480  136.4870 O   0  0  0  0  0  0  0  0  0  0  0  0
  197.8000  174.8900  135.3210 S   0  0  0  0  0  1  0  0  0  0  0  0
  189.9840  175.6170  136.1270 C   0  0  0  0  0  2  0  0  0  0  0  0
  188.7690  175.2830  136.9740 C   0  0  0  0  0  2  0  0  0  0  0  0
  188.6980  172.7940  136.7510 C   0  0  0  0  0  3  0  0  0  0  0  0
  186.3620  172.9440  135.2180 C   0  0  0  0  0  0  0  0  0  0  0  0
  186.9590  174.1140  135.6980 C   0  0  0  0  0  3  0  0  0  0  0  0
  188.1020  171.6250  136.2680 C   0  0  0  0  0  3  0  0  0  0  0  0
  188.1250  174.0400  136.4710 C   0  0  0  0  0  0  0  0  0  0  0  0
  185.2380  173.0170  134.4680 F   0  0  0  0  0  0  0  0  0  0  0  0
  186.9340  171.6990  135.5030 C   0  0  0  0  0  3  0  0  0  0  0  0
  188.6900  179.2260  140.6780 C   0  0  0  0  0  2  0  0  0  0  0  0
  189.1190  179.1150  138.5150 C   0  0  0  0  0  1  0  0  0  0  0  0
  188.3190  178.5560  139.5110 O   0  0  0  0  0  0  0  0  0  0  0  0
  185.9990  178.1990  141.5660 C   0  0  2  0  0  3  0  0  0  0  0  0
  183.3710  179.6650  144.0280 C   0  0  0  0  0  1  0  0  0  0  0  0
  185.5130  178.2850  144.0150 C   0  0  0  0  0  2  0  0  0  0  0  0
  184.7210  179.4060  143.3910 C   0  0  1  0  0  0  0  0  0  0  0  0
  184.9060  178.1060  142.6260 C   0  0  1  0  0  3  0  0  0  0  0  0
  185.5010  180.5040  143.0190 O   0  0  0  0  0  1  0  0  0  0  0  0
  185.5500  177.5180  140.2690 C   0  0  0  0  0  2  0  0  0  0  0  0
  184.7130  178.4130  139.3460 C   0  0  2  0  0  0  0  0  0  0  0  0
  182.6900  177.2700  140.5290 C   0  0  0  0  0  1  0  0  0  0  0  0
  183.3330  177.7010  139.2120 C   0  0  2  0  0  3  0  0  0  0  0  0
  183.3390  176.5640  138.1760 C   0  0  1  0  0  3  0  0  0  0  0  0
  183.1120  175.3220  138.7790 O   0  0  0  0  0  1  0  0  0  0  0  0
  181.2310  177.3230  137.3630 O   0  0  0  0  0  1  0  0  0  0  0  0
  182.3420  176.8010  137.0890 C   0  0  0  0  0  0  0  0  0  0  0  0
  182.6310  176.4460  135.7750 O   0  0  0  0  0  0  0  0  0  0  0  0
  185.4830  178.4570  138.0070 C   0  0  0  0  0  2  0  0  0  0  0  0
  185.9540  177.2060  137.6060 O   0  0  0  0  0  0  0  0  0  0  0  0
  186.0530  177.2980  136.2200 C   0  0  0  0  0  2  0  0  0  0  0  0
  186.9210  178.4830  135.8520 C   0  0  0  0  0  1  0  0  0  0  0  0
  184.6200  179.6910  139.9620 O   0  0  0  0  0  0  0  0  0  0  0  0
  184.1860  180.5940  139.0430 N   0  0  0  0  0  2  0  0  0  0  0  0
  182.7370  180.4900  138.9970 C   0  0  0  0  0  2  0  0  0  0  0  0
  182.1380  181.7960  138.5140 C   0  0  0  0  0  1  0  0  0  0  0  0
  2  3  1  0  0  0  0
  2  4  1  0  0  0  0
  3  1  2  0  0  0  0
  4  5  1  6  0  0  0
  7  6  1  6  0  0  0
  7  4  1  0  0  0  0
  8  7  1  0  0  0  0
  9  8  1  0  0  0  0
 10  9  1  0  0  0  0
 11 21  1  6  0  0  0
 11 10  1  0  0  0  0
 13 16  1  0  0  0  0
 14 17  1  0  0  0  0
 15 14  1  0  0  0  0
 15 13  2  0  0  0  0
 16 12  2  0  0  0  0
 17 11  1  1  0  0  0
 17 12  1  0  0  0  0
 18 13  1  0  0  0  0
 18 19  2  0  0  0  0
 20 18  1  0  0  0  0
 21 22  1  0  0  0  0
 24 29  2  0  0  0  0
 24 25  1  0  0  0  0
 25 27  2  0  0  0  0
 26 23  2  0  0  0  0
 27 23  1  0  0  0  0
 27 22  1  0  0  0  0
 28 24  1  0  0  0  0
 29 26  1  0  0  0  0
 30  2  1  0  0  0  0
 31 32  1  0  0  0  0
 32 30  1  0  0  0  0
 33 39  1  6  0  0  0
 33  3  1  0  0  0  0
 36 35  1  0  0  0  0
 36 34  1  1  0  0  0
 37 33  1  6  0  0  0
 37 36  1  0  0  0  0
 37 35  1  0  0  0  0
 38 36  1  0  0  0  0
 40 48  1  6  0  0  0
 40 52  1  0  0  0  0
 40 39  1  0  0  0  0
 42 40  1  0  0  0  0
 42 41  1  1  0  0  0
 43 44  1  1  0  0  0
 43 42  1  0  0  0  0
 46 45  1  0  0  0  0
 46 43  1  0  0  0  0
 47 46  2  0  0  0  0
 49 48  1  0  0  0  0
 50 49  1  0  0  0  0
 51 50  1  0  0  0  0
 53 52  1  0  0  0  0
 54 53  1  0  0  0  0
 55 54  1  0  0  0  0
M  END
>  <MODEL>
9

>  <REMARK>
 VINA RESULT:      -5.0      4.456     11.644
  Name = 
  26 active torsions:
  status: ('A' for Active; 'I' for Inactive)
    1  A    between atoms: C_1  and  N_30
    2  A    between atoms: C_2  and  C_28
    3  A    between atoms: C_2  and  C_44
    4  A    between atoms: C_6  and  C_8
    5  A    between atoms: C_6  and  O_20
    6  A    between atoms: C_6  and  C_38
    7  A    between atoms: C_6  and  C_46
    8  A    between atoms: C_7  and  C_8
    9  A    between atoms: C_7  and  C_23
   10  A    between atoms: C_7  and  C_43
   11  A    between atoms: C_10  and  C_32
   12  A    between atoms: C_11  and  C_29
   13  A    between atoms: C_11  and  C_38
   14  A    between atoms: C_12  and  O_14
   15  A    between atoms: O_14  and  C_46
   16  A    between atoms: C_16  and  N_17
   17  A    between atoms: C_16  and  C_26
   18  A    between atoms: N_17  and  C_37
   19  A    between atoms: C_19  and  C_45
   20  A    between atoms: C_19  and  C_49
   21  A    between atoms: O_20  and  N_30
   22  A    between atoms: C_26  and  C_45
   23  A    between atoms: C_28  and  C_33
   24  A    between atoms: C_33  and  C_49
   25  A    between atoms: C_33  and  C_52
   26  A    between atoms: C_37  and  O_40
                            x       y       z     vdW  Elec       q    Type
                         _______ _______ _______ _____ _____    ______ ____

>  <TORSDO>
F 26

$$$$
