=
 OpenBabel10272414253D

 43 46  0  0  1  0  0  0  0  0999 V2000
  187.4110  177.7830  142.9310 C   0  0  0  0  0  0  0  0  0  0  0  0
  185.1890  179.2360  143.9950 C   0  0  2  0  0  3  0  0  0  0  0  0
  188.0190  177.9030  140.1650 C   0  0  2  0  0  3  0  0  0  0  0  0
  187.1070  178.7940  140.8110 O   0  0  0  0  0  0  0  0  0  0  0  0
  185.5660  179.2690  142.6170 O   0  0  0  0  0  0  0  0  0  0  0  0
  186.7030  178.6070  142.1380 C   0  0  0  0  0  0  0  0  0  0  0  0
  188.5940  177.1580  142.4160 N   0  0  0  0  0  0  0  0  0  0  0  0
  187.0360  177.5890  144.3800 C   0  0  2  0  0  3  0  0  0  0  0  0
  185.5530  177.8870  144.6150 C   0  0  0  0  0  2  0  0  0  0  0  0
  188.9210  177.2260  141.1590 C   0  0  0  0  0  3  0  0  0  0  0  0
  183.7010  179.5100  144.1510 C   0  0  2  0  0  3  0  0  0  0  0  0
  183.2630  179.0920  145.3980 F   0  0  0  0  0  0  0  0  0  0  0  0
  182.9250  178.8010  143.0550 C   0  0  0  0  0  2  0  0  0  0  0  0
  181.4610  178.7040  143.4280 C   0  0  0  0  0  2  0  0  0  0  0  0
  180.6180  179.3450  142.3440 C   0  0  0  0  0  2  0  0  0  0  0  0
  180.8820  178.6710  141.0080 C   0  0  0  0  0  2  0  0  0  0  0  0
  180.4570  179.5690  139.8500 C   0  0  0  0  0  2  0  0  0  0  0  0
  181.6210  180.1750  139.2160 N   0  0  0  0  0  0  0  0  0  0  0  0
  182.2470  182.2850  138.4480 O   0  0  0  0  0  1  0  0  0  0  0  0
  181.1700  181.4070  138.5900 C   0  0  0  0  0  2  0  0  0  0  0  0
  182.0310  179.2890  138.1380 C   0  0  0  0  0  2  0  0  0  0  0  0
  183.9280  177.6020  137.6310 C   0  0  2  0  0  3  0  0  0  0  0  0
  183.4470  178.7910  138.3760 C   0  0  2  0  0  0  0  0  0  0  0  0
  183.4860  177.5220  138.9730 O   0  0  0  0  0  0  0  0  0  0  0  0
  184.3850  179.6600  138.9410 O   0  0  0  0  0  1  0  0  0  0  0  0
  185.4470  177.4980  137.5990 C   0  0  0  0  0  2  0  0  0  0  0  0
  185.8940  176.4980  136.5460 C   0  0  0  0  0  2  0  0  0  0  0  0
  187.4610  174.7050  136.3070 O   0  0  0  0  0  1  0  0  0  0  0  0
  186.5350  175.2750  137.1830 C   0  0  0  0  0  2  0  0  0  0  0  0
  187.8920  178.4620  145.2980 C   0  0  0  0  0  2  0  0  0  0  0  0
  190.3730  176.2240  147.0780 C   0  0  0  0  0  2  0  0  0  0  0  0
  191.3570  176.0350  145.9320 C   0  0  1  0  0  3  0  0  0  0  0  0
  190.3870  178.0320  144.7990 C   0  0  0  0  0  2  0  0  0  0  0  0
  189.1840  176.9300  146.6380 N   0  0  0  0  0  0  0  0  0  0  0  0
  189.1740  177.7860  145.6690 C   0  0  0  0  0  0  0  0  0  0  0  0
  191.6620  177.4090  145.3610 C   0  0  0  0  0  2  0  0  0  0  0  0
  192.5310  175.4550  146.4110 O   0  0  0  0  0  0  0  0  0  0  0  0
  192.5510  175.8340  148.0870 S   0  0  0  0  0  1  0  0  0  0  0  0
  188.8510  178.6430  139.1310 C   0  0  0  0  0  2  0  0  0  0  0  0
  189.1720  177.7500  137.9390 C   0  0  2  0  0  3  0  0  0  0  0  0
  190.4630  177.2380  138.0660 O   0  0  0  0  0  1  0  0  0  0  0  0
  189.0240  178.4840  136.6080 C   0  0  0  0  0  2  0  0  0  0  0  0
  189.3330  177.5850  135.4200 C   0  0  0  0  0  1  0  0  0  0  0  0
  1  8  1  0  0  0  0
  2 11  1  6  0  0  0
  2  9  1  0  0  0  0
  3 39  1  6  0  0  0
  3  4  1  0  0  0  0
  3 10  1  0  0  0  0
  4  6  1  0  0  0  0
  5  2  1  0  0  0  0
  6  5  1  0  0  0  0
  6  1  2  0  0  0  0
  7  1  1  0  0  0  0
  8  9  1  0  0  0  0
  8 30  1  1  0  0  0
 10  7  2  0  0  0  0
 11 12  1  1  0  0  0
 13 14  1  0  0  0  0
 13 11  1  0  0  0  0
 15 14  1  0  0  0  0
 16 15  1  0  0  0  0
 17 16  1  0  0  0  0
 18 17  1  0  0  0  0
 19 20  1  0  0  0  0
 20 18  1  0  0  0  0
 21 23  1  0  0  0  0
 21 18  1  0  0  0  0
 22 26  1  1  0  0  0
 22 23  1  0  0  0  0
 22 24  1  0  0  0  0
 23 25  1  1  0  0  0
 23 24  1  0  0  0  0
 27 29  1  0  0  0  0
 27 26  1  0  0  0  0
 28 29  1  0  0  0  0
 30 35  1  0  0  0  0
 32 37  1  1  0  0  0
 32 31  1  0  0  0  0
 33 36  1  0  0  0  0
 33 35  1  0  0  0  0
 34 31  1  0  0  0  0
 35 34  2  0  0  0  0
 36 32  1  0  0  0  0
 37 38  1  0  0  0  0
 40 41  1  1  0  0  0
 40 39  1  0  0  0  0
 42 40  1  0  0  0  0
 43 42  1  0  0  0  0
M  END
>  <MODEL>
1

>  <REMARK>
 VINA RESULT:      -6.6      0.000      0.000
  Name = 
  19 active torsions:
  status: ('A' for Active; 'I' for Inactive)
    1  A    between atoms: C_1  and  C_34
    2  A    between atoms: C_1  and  C_35
    3  A    between atoms: C_2  and  C_6
    4  A    between atoms: C_2  and  C_13
    5  A    between atoms: C_3  and  C_12
    6  A    between atoms: C_3  and  C_15
    7  A    between atoms: N_4  and  C_15
    8  A    between atoms: N_4  and  C_22
    9  A    between atoms: N_4  and  C_42
   10  A    between atoms: C_5  and  C_18
   11  A    between atoms: C_5  and  C_23
   12  A    between atoms: C_6  and  C_17
   13  A    between atoms: C_11  and  C_36
   14  A    between atoms: C_12  and  C_17
   15  A    between atoms: C_14  and  C_22
   16  A    between atoms: C_16  and  C_23
   17  A    between atoms: C_19  and  O_25
   18  A    between atoms: C_29  and  C_31
   19  A    between atoms: C_29  and  C_36
                            x       y       z     vdW  Elec       q    Type
                         _______ _______ _______ _____ _____    ______ ____

>  <TORSDO>
F 19

$$$$
=
 OpenBabel10272414253D

 43 46  0  0  1  0  0  0  0  0999 V2000
  190.1510  177.3040  139.5800 C   0  0  0  0  0  0  0  0  0  0  0  0
  187.9640  177.4580  137.7440 C   0  0  2  0  0  3  0  0  0  0  0  0
  189.7600  177.8430  142.3350 C   0  0  2  0  0  3  0  0  0  0  0  0
  188.6870  177.6390  141.4110 O   0  0  0  0  0  0  0  0  0  0  0  0
  187.8330  177.6950  139.1470 O   0  0  0  0  0  0  0  0  0  0  0  0
  188.9070  177.5390  140.0330 C   0  0  0  0  0  0  0  0  0  0  0  0
  191.2150  177.1080  140.5210 N   0  0  0  0  0  0  0  0  0  0  0  0
  190.4220  177.1440  138.1040 C   0  0  2  0  0  3  0  0  0  0  0  0
  189.3590  177.8560  137.2630 C   0  0  0  0  0  2  0  0  0  0  0  0
  191.0580  177.3100  141.7950 C   0  0  0  0  0  3  0  0  0  0  0  0
  186.8970  178.2180  136.9710 C   0  0  2  0  0  3  0  0  0  0  0  0
  186.0210  178.8410  137.8460 F   0  0  0  0  0  0  0  0  0  0  0  0
  186.1410  177.2670  136.0590 C   0  0  0  0  0  2  0  0  0  0  0  0
  185.4650  176.1850  136.8740 C   0  0  0  0  0  2  0  0  0  0  0  0
  183.9610  176.3020  136.7240 C   0  0  0  0  0  2  0  0  0  0  0  0
  183.3460  176.8370  138.0060 C   0  0  0  0  0  2  0  0  0  0  0  0
  182.7660  178.2310  137.7930 C   0  0  0  0  0  2  0  0  0  0  0  0
  182.1970  178.7460  139.0320 N   0  0  0  0  0  0  0  0  0  0  0  0
  182.1200  180.9930  138.4190 O   0  0  0  0  0  1  0  0  0  0  0  0
  181.3400  179.8640  138.6740 C   0  0  0  0  0  2  0  0  0  0  0  0
  183.2940  179.2990  139.8100 C   0  0  0  0  0  2  0  0  0  0  0  0
  184.4860  178.8040  142.0540 C   0  0  2  0  0  3  0  0  0  0  0  0
  183.2520  178.7650  141.2320 C   0  0  2  0  0  0  0  0  0  0  0  0
  184.0480  177.6230  141.4110 O   0  0  0  0  0  0  0  0  0  0  0  0
  182.0160  178.6420  141.8740 O   0  0  0  0  0  1  0  0  0  0  0  0
  184.2070  178.6920  143.5470 C   0  0  0  0  0  2  0  0  0  0  0  0
  185.4720  178.3250  144.3040 C   0  0  0  0  0  2  0  0  0  0  0  0
  184.0240  179.0230  146.0770 O   0  0  0  0  0  1  0  0  0  0  0  0
  185.2900  178.5010  145.8030 C   0  0  0  0  0  2  0  0  0  0  0  0
  190.4940  175.6690  137.7080 C   0  0  0  0  0  2  0  0  0  0  0  0
  193.0050  174.4860  135.1350 C   0  0  0  0  0  2  0  0  0  0  0  0
  194.1880  175.3380  135.5770 C   0  0  1  0  0  3  0  0  0  0  0  0
  193.0730  175.7040  137.7760 C   0  0  0  0  0  2  0  0  0  0  0  0
  191.7990  174.8490  135.8550 N   0  0  0  0  0  0  0  0  0  0  0  0
  191.7960  175.3320  137.0550 C   0  0  0  0  0  0  0  0  0  0  0  0
  194.3270  175.1790  137.0810 C   0  0  0  0  0  2  0  0  0  0  0  0
  195.3490  174.8910  134.9480 O   0  0  0  0  0  0  0  0  0  0  0  0
  195.8580  173.5410  135.8810 S   0  0  0  0  0  1  0  0  0  0  0  0
  189.4470  177.1920  143.6720 C   0  0  0  0  0  2  0  0  0  0  0  0
  189.9430  178.0470  144.8320 C   0  0  2  0  0  3  0  0  0  0  0  0
  191.2190  177.6320  145.2130 O   0  0  0  0  0  1  0  0  0  0  0  0
  188.9950  178.0070  146.0280 C   0  0  0  0  0  2  0  0  0  0  0  0
  189.3630  176.9080  147.0140 C   0  0  0  0  0  1  0  0  0  0  0  0
  1  6  2  0  0  0  0
  1  7  1  0  0  0  0
  2 11  1  6  0  0  0
  2  5  1  0  0  0  0
  3 39  1  1  0  0  0
  4  3  1  0  0  0  0
  5  6  1  0  0  0  0
  6  4  1  0  0  0  0
  7 10  2  0  0  0  0
  8 30  1  6  0  0  0
  8  1  1  0  0  0  0
  9  2  1  0  0  0  0
  9  8  1  0  0  0  0
 10  3  1  0  0  0  0
 11 12  1  1  0  0  0
 13 14  1  0  0  0  0
 13 11  1  0  0  0  0
 15 14  1  0  0  0  0
 15 16  1  0  0  0  0
 17 16  1  0  0  0  0
 17 18  1  0  0  0  0
 18 21  1  0  0  0  0
 19 20  1  0  0  0  0
 20 18  1  0  0  0  0
 21 23  1  0  0  0  0
 22 26  1  1  0  0  0
 23 24  1  0  0  0  0
 23 25  1  1  0  0  0
 23 22  1  0  0  0  0
 24 22  1  0  0  0  0
 26 27  1  0  0  0  0
 27 29  1  0  0  0  0
 29 28  1  0  0  0  0
 31 32  1  0  0  0  0
 31 34  1  0  0  0  0
 32 37  1  6  0  0  0
 32 36  1  0  0  0  0
 34 35  2  0  0  0  0
 35 30  1  0  0  0  0
 35 33  1  0  0  0  0
 36 33  1  0  0  0  0
 37 38  1  0  0  0  0
 39 40  1  0  0  0  0
 40 41  1  1  0  0  0
 40 42  1  0  0  0  0
 42 43  1  0  0  0  0
M  END
>  <MODEL>
2

>  <REMARK>
 VINA RESULT:      -6.4      3.606      7.327
  Name = 
  19 active torsions:
  status: ('A' for Active; 'I' for Inactive)
    1  A    between atoms: C_1  and  C_34
    2  A    between atoms: C_1  and  C_35
    3  A    between atoms: C_2  and  C_6
    4  A    between atoms: C_2  and  C_13
    5  A    between atoms: C_3  and  C_12
    6  A    between atoms: C_3  and  C_15
    7  A    between atoms: N_4  and  C_15
    8  A    between atoms: N_4  and  C_22
    9  A    between atoms: N_4  and  C_42
   10  A    between atoms: C_5  and  C_18
   11  A    between atoms: C_5  and  C_23
   12  A    between atoms: C_6  and  C_17
   13  A    between atoms: C_11  and  C_36
   14  A    between atoms: C_12  and  C_17
   15  A    between atoms: C_14  and  C_22
   16  A    between atoms: C_16  and  C_23
   17  A    between atoms: C_19  and  O_25
   18  A    between atoms: C_29  and  C_31
   19  A    between atoms: C_29  and  C_36
                            x       y       z     vdW  Elec       q    Type
                         _______ _______ _______ _____ _____    ______ ____

>  <TORSDO>
F 19

$$$$
=
 OpenBabel10272414253D

 43 46  0  0  1  0  0  0  0  0999 V2000
  187.0500  178.5700  140.9200 C   0  0  0  0  0  0  0  0  0  0  0  0
  188.2080  177.9950  138.3700 C   0  0  2  0  0  3  0  0  0  0  0  0
  184.2730  179.0790  141.1610 C   0  0  2  0  0  3  0  0  0  0  0  0
  184.8750  178.5290  139.9860 O   0  0  0  0  0  0  0  0  0  0  0  0
  186.8140  178.2380  138.5660 O   0  0  0  0  0  0  0  0  0  0  0  0
  186.2640  178.4430  139.8370 C   0  0  0  0  0  0  0  0  0  0  0  0
  186.4470  178.7360  142.2110 N   0  0  0  0  0  0  0  0  0  0  0  0
  188.5500  178.4390  140.8100 C   0  0  2  0  0  3  0  0  0  0  0  0
  189.0340  178.7690  139.3960 C   0  0  0  0  0  2  0  0  0  0  0  0
  185.1710  178.9330  142.3570 C   0  0  0  0  0  3  0  0  0  0  0  0
  188.6240  178.3720  136.9560 C   0  0  2  0  0  3  0  0  0  0  0  0
  189.2940  179.5860  136.9600 F   0  0  0  0  0  0  0  0  0  0  0  0
  187.4010  178.4490  136.0580 C   0  0  0  0  0  2  0  0  0  0  0  0
  187.4220  177.3220  135.0460 C   0  0  0  0  0  2  0  0  0  0  0  0
  186.2920  176.3570  135.3410 C   0  0  0  0  0  2  0  0  0  0  0  0
  186.7780  174.9230  135.2030 C   0  0  0  0  0  2  0  0  0  0  0  0
  187.7340  174.5600  136.3350 C   0  0  0  0  0  2  0  0  0  0  0  0
  189.0180  174.1230  135.8020 N   0  0  0  0  0  0  0  0  0  0  0  0
  189.9870  172.1320  135.0750 O   0  0  0  0  0  1  0  0  0  0  0  0
  188.7910  172.8490  135.1390 C   0  0  0  0  0  2  0  0  0  0  0  0
  189.8830  173.8480  136.9400 C   0  0  0  0  0  2  0  0  0  0  0  0
  192.1580  174.6680  137.8620 C   0  0  2  0  0  3  0  0  0  0  0  0
  190.9270  174.9430  137.0820 C   0  0  2  0  0  0  0  0  0  0  0  0
  191.0710  175.3930  138.4030 O   0  0  0  0  0  0  0  0  0  0  0  0
  190.9280  176.0020  136.1690 O   0  0  0  0  0  1  0  0  0  0  0  0
  193.2910  175.6330  137.5410 C   0  0  0  0  0  2  0  0  0  0  0  0
  194.5030  174.8830  137.0150 C   0  0  0  0  0  2  0  0  0  0  0  0
  195.4620  175.1930  139.1850 O   0  0  0  0  0  1  0  0  0  0  0  0
  195.3090  174.2690  138.1490 C   0  0  0  0  0  2  0  0  0  0  0  0
  189.0160  177.0370  141.2030 C   0  0  0  0  0  2  0  0  0  0  0  0
  190.9990  178.3220  144.1600 C   0  0  0  0  0  2  0  0  0  0  0  0
  191.0530  177.0300  144.9650 C   0  0  1  0  0  3  0  0  0  0  0  0
  190.4660  175.7510  142.9070 C   0  0  0  0  0  2  0  0  0  0  0  0
  190.1330  178.1850  143.0050 N   0  0  0  0  0  0  0  0  0  0  0  0
  189.9270  177.0670  142.3890 C   0  0  0  0  0  0  0  0  0  0  0  0
  191.4940  175.9240  144.0220 C   0  0  0  0  0  2  0  0  0  0  0  0
  191.9770  177.1600  146.0010 O   0  0  0  0  0  0  0  0  0  0  0  0
  191.1790  176.5180  147.3800 S   0  0  0  0  0  1  0  0  0  0  0  0
  182.9320  178.4190  141.4350 C   0  0  0  0  0  2  0  0  0  0  0  0
  181.9850  178.5800  140.2510 C   0  0  2  0  0  3  0  0  0  0  0  0
  181.0250  179.5490  140.5420 O   0  0  0  0  0  1  0  0  0  0  0  0
  181.3100  177.2660  139.8670 C   0  0  0  0  0  2  0  0  0  0  0  0
  182.3120  176.1310  139.7130 C   0  0  0  0  0  1  0  0  0  0  0  0
  1  7  1  0  0  0  0
  2 11  1  6  0  0  0
  2  5  1  0  0  0  0
  2  9  1  0  0  0  0
  3 39  1  1  0  0  0
  3 10  1  0  0  0  0
  4  3  1  0  0  0  0
  5  6  1  0  0  0  0
  6  4  1  0  0  0  0
  6  1  2  0  0  0  0
  7 10  2  0  0  0  0
  8  1  1  0  0  0  0
  8 30  1  6  0  0  0
  9  8  1  0  0  0  0
 11 12  1  1  0  0  0
 13 11  1  0  0  0  0
 14 15  1  0  0  0  0
 14 13  1  0  0  0  0
 16 15  1  0  0  0  0
 16 17  1  0  0  0  0
 18 17  1  0  0  0  0
 18 21  1  0  0  0  0
 19 20  1  0  0  0  0
 20 18  1  0  0  0  0
 21 23  1  0  0  0  0
 22 26  1  6  0  0  0
 22 24  1  0  0  0  0
 23 25  1  6  0  0  0
 23 22  1  0  0  0  0
 23 24  1  0  0  0  0
 27 26  1  0  0  0  0
 27 29  1  0  0  0  0
 29 28  1  0  0  0  0
 30 35  1  0  0  0  0
 31 32  1  0  0  0  0
 32 37  1  1  0  0  0
 33 36  1  0  0  0  0
 34 31  1  0  0  0  0
 35 33  1  0  0  0  0
 35 34  2  0  0  0  0
 36 32  1  0  0  0  0
 37 38  1  0  0  0  0
 40 41  1  1  0  0  0
 40 39  1  0  0  0  0
 42 40  1  0  0  0  0
 43 42  1  0  0  0  0
M  END
>  <MODEL>
3

>  <REMARK>
 VINA RESULT:      -6.2      3.351      7.320
  Name = 
  19 active torsions:
  status: ('A' for Active; 'I' for Inactive)
    1  A    between atoms: C_1  and  C_34
    2  A    between atoms: C_1  and  C_35
    3  A    between atoms: C_2  and  C_6
    4  A    between atoms: C_2  and  C_13
    5  A    between atoms: C_3  and  C_12
    6  A    between atoms: C_3  and  C_15
    7  A    between atoms: N_4  and  C_15
    8  A    between atoms: N_4  and  C_22
    9  A    between atoms: N_4  and  C_42
   10  A    between atoms: C_5  and  C_18
   11  A    between atoms: C_5  and  C_23
   12  A    between atoms: C_6  and  C_17
   13  A    between atoms: C_11  and  C_36
   14  A    between atoms: C_12  and  C_17
   15  A    between atoms: C_14  and  C_22
   16  A    between atoms: C_16  and  C_23
   17  A    between atoms: C_19  and  O_25
   18  A    between atoms: C_29  and  C_31
   19  A    between atoms: C_29  and  C_36
                            x       y       z     vdW  Elec       q    Type
                         _______ _______ _______ _____ _____    ______ ____

>  <TORSDO>
F 19

$$$$
=
 OpenBabel10272414253D

 43 46  0  0  1  0  0  0  0  0999 V2000
  188.2500  177.6160  140.8470 C   0  0  0  0  0  0  0  0  0  0  0  0
  186.1240  178.8720  142.2900 C   0  0  2  0  0  3  0  0  0  0  0  0
  188.3270  177.7170  138.0160 C   0  0  2  0  0  3  0  0  0  0  0  0
  187.4610  178.5320  138.8110 O   0  0  0  0  0  0  0  0  0  0  0  0
  186.2370  178.9030  140.8660 O   0  0  0  0  0  0  0  0  0  0  0  0
  187.3290  178.3430  140.1910 C   0  0  0  0  0  0  0  0  0  0  0  0
  189.3770  177.0960  140.1280 N   0  0  0  0  0  0  0  0  0  0  0  0
  188.1680  177.4270  142.3420 C   0  0  2  0  0  3  0  0  0  0  0  0
  186.7310  177.5840  142.8450 C   0  0  0  0  0  2  0  0  0  0  0  0
  189.4600  177.1600  138.8320 C   0  0  0  0  0  3  0  0  0  0  0  0
  184.6700  179.0030  142.7150 C   0  0  2  0  0  3  0  0  0  0  0  0
  184.4270  178.2330  143.8430 F   0  0  0  0  0  0  0  0  0  0  0  0
  183.7560  178.5760  141.5800 C   0  0  0  0  0  2  0  0  0  0  0  0
  182.3070  178.6760  142.0070 C   0  0  0  0  0  2  0  0  0  0  0  0
  181.4290  178.8480  140.7840 C   0  0  0  0  0  2  0  0  0  0  0  0
  182.2870  179.0810  139.5510 C   0  0  0  0  0  2  0  0  0  0  0  0
  181.4500  178.9950  138.2790 C   0  0  0  0  0  2  0  0  0  0  0  0
  182.1760  178.2860  137.2330 N   0  0  0  0  0  0  0  0  0  0  0  0
  182.2450  178.0700  134.9140 O   0  0  0  0  0  1  0  0  0  0  0  0
  181.4850  178.5500  135.9820 C   0  0  0  0  0  2  0  0  0  0  0  0
  182.0260  176.8630  137.4970 C   0  0  0  0  0  2  0  0  0  0  0  0
  183.5860  174.8170  137.2100 C   0  0  2  0  0  3  0  0  0  0  0  0
  183.3890  176.2140  137.6690 C   0  0  2  0  0  0  0  0  0  0  0  0
  183.3720  175.1390  138.5710 O   0  0  0  0  0  0  0  0  0  0  0  0
  184.5100  177.0290  137.8540 O   0  0  0  0  0  1  0  0  0  0  0  0
  185.0530  174.4620  137.0050 C   0  0  0  0  0  2  0  0  0  0  0  0
  185.3750  173.1240  137.6470 C   0  0  0  0  0  2  0  0  0  0  0  0
  186.7240  172.0470  135.9900 O   0  0  0  0  0  1  0  0  0  0  0  0
  186.7620  172.6420  137.2520 C   0  0  0  0  0  2  0  0  0  0  0  0
  189.0850  178.4060  143.0770 C   0  0  0  0  0  2  0  0  0  0  0  0
  191.5290  176.8630  145.5220 C   0  0  0  0  0  2  0  0  0  0  0  0
  190.8750  177.3380  146.8130 C   0  0  1  0  0  3  0  0  0  0  0  0
  188.7650  177.7700  145.5580 C   0  0  0  0  0  2  0  0  0  0  0  0
  190.8900  177.4540  144.3620 N   0  0  0  0  0  0  0  0  0  0  0  0
  189.6460  177.8080  144.3290 C   0  0  0  0  0  0  0  0  0  0  0  0
  189.3950  177.0090  146.7210 C   0  0  0  0  0  2  0  0  0  0  0  0
  191.4380  176.6680  147.8990 O   0  0  0  0  0  0  0  0  0  0  0  0
  192.3770  175.4130  147.1970 S   0  0  0  0  0  1  0  0  0  0  0  0
  188.8750  178.5060  136.8380 C   0  0  0  0  0  2  0  0  0  0  0  0
  188.5830  177.8020  135.5180 C   0  0  2  0  0  3  0  0  0  0  0  0
  187.4630  176.9830  135.6560 O   0  0  0  0  0  1  0  0  0  0  0  0
  189.7760  176.9890  135.0210 C   0  0  0  0  0  2  0  0  0  0  0  0
  189.6300  175.5070  135.3360 C   0  0  0  0  0  1  0  0  0  0  0  0
  1  8  1  0  0  0  0
  2 11  1  6  0  0  0
  2  9  1  0  0  0  0
  3 39  1  6  0  0  0
  3  4  1  0  0  0  0
  3 10  1  0  0  0  0
  4  6  1  0  0  0  0
  5  2  1  0  0  0  0
  6  1  2  0  0  0  0
  6  5  1  0  0  0  0
  7  1  1  0  0  0  0
  8  9  1  0  0  0  0
  8 30  1  1  0  0  0
 10  7  2  0  0  0  0
 11 12  1  1  0  0  0
 13 14  1  0  0  0  0
 13 11  1  0  0  0  0
 15 14  1  0  0  0  0
 16 15  1  0  0  0  0
 17 16  1  0  0  0  0
 18 21  1  0  0  0  0
 18 17  1  0  0  0  0
 19 20  1  0  0  0  0
 20 18  1  0  0  0  0
 21 23  1  0  0  0  0
 22 26  1  1  0  0  0
 22 23  1  0  0  0  0
 22 24  1  0  0  0  0
 23 25  1  1  0  0  0
 23 24  1  0  0  0  0
 26 27  1  0  0  0  0
 28 29  1  0  0  0  0
 29 27  1  0  0  0  0
 30 35  1  0  0  0  0
 31 32  1  0  0  0  0
 32 37  1  1  0  0  0
 33 36  1  0  0  0  0
 34 31  1  0  0  0  0
 35 34  2  0  0  0  0
 35 33  1  0  0  0  0
 36 32  1  0  0  0  0
 38 37  1  0  0  0  0
 40 41  1  1  0  0  0
 40 39  1  0  0  0  0
 42 43  1  0  0  0  0
 42 40  1  0  0  0  0
M  END
>  <MODEL>
4

>  <REMARK>
 VINA RESULT:      -6.2      1.887      2.525
  Name = 
  19 active torsions:
  status: ('A' for Active; 'I' for Inactive)
    1  A    between atoms: C_1  and  C_34
    2  A    between atoms: C_1  and  C_35
    3  A    between atoms: C_2  and  C_6
    4  A    between atoms: C_2  and  C_13
    5  A    between atoms: C_3  and  C_12
    6  A    between atoms: C_3  and  C_15
    7  A    between atoms: N_4  and  C_15
    8  A    between atoms: N_4  and  C_22
    9  A    between atoms: N_4  and  C_42
   10  A    between atoms: C_5  and  C_18
   11  A    between atoms: C_5  and  C_23
   12  A    between atoms: C_6  and  C_17
   13  A    between atoms: C_11  and  C_36
   14  A    between atoms: C_12  and  C_17
   15  A    between atoms: C_14  and  C_22
   16  A    between atoms: C_16  and  C_23
   17  A    between atoms: C_19  and  O_25
   18  A    between atoms: C_29  and  C_31
   19  A    between atoms: C_29  and  C_36
                            x       y       z     vdW  Elec       q    Type
                         _______ _______ _______ _____ _____    ______ ____

>  <TORSDO>
F 19

$$$$
=
 OpenBabel10272414253D

 43 46  0  0  1  0  0  0  0  0999 V2000
  184.5770  178.5350  140.1830 C   0  0  0  0  0  0  0  0  0  0  0  0
  184.1880  178.6470  143.0140 C   0  0  2  0  0  3  0  0  0  0  0  0
  187.1900  178.5830  139.0850 C   0  0  2  0  0  3  0  0  0  0  0  0
  186.9220  178.3680  140.4740 O   0  0  0  0  0  0  0  0  0  0  0  0
  185.4750  178.6450  142.3950 O   0  0  0  0  0  0  0  0  0  0  0  0
  185.6380  178.5130  141.0100 C   0  0  0  0  0  0  0  0  0  0  0  0
  184.7810  178.3540  138.7750 N   0  0  0  0  0  0  0  0  0  0  0  0
  183.1730  178.6440  140.7250 C   0  0  2  0  0  3  0  0  0  0  0  0
  183.1580  179.3130  142.1010 C   0  0  0  0  0  2  0  0  0  0  0  0
  185.9680  178.3330  138.2460 C   0  0  0  0  0  3  0  0  0  0  0  0
  184.2420  179.3520  144.3610 C   0  0  2  0  0  3  0  0  0  0  0  0
  185.1090  180.4330  144.3040 F   0  0  0  0  0  0  0  0  0  0  0  0
  184.6850  178.3790  145.4390 C   0  0  0  0  0  2  0  0  0  0  0  0
  186.0210  178.8040  146.0120 C   0  0  0  0  0  2  0  0  0  0  0  0
  187.0600  177.7400  145.7160 C   0  0  0  0  0  2  0  0  0  0  0  0
  187.9280  177.5010  146.9400 C   0  0  0  0  0  2  0  0  0  0  0  0
  189.3470  178.0120  146.7110 C   0  0  0  0  0  2  0  0  0  0  0  0
  190.1850  176.9640  146.1430 N   0  0  0  0  0  0  0  0  0  0  0  0
  192.2970  176.1450  146.6920 O   0  0  0  0  0  1  0  0  0  0  0  0
  191.0450  176.4820  147.2110 C   0  0  0  0  0  2  0  0  0  0  0  0
  191.0560  177.5950  145.1630 C   0  0  0  0  0  2  0  0  0  0  0  0
  191.2380  177.9430  142.6050 C   0  0  2  0  0  3  0  0  0  0  0  0
  190.5790  177.2780  143.7550 C   0  0  2  0  0  0  0  0  0  0  0  0
  189.9930  178.3800  143.1150 O   0  0  0  0  0  0  0  0  0  0  0  0
  189.8550  176.1030  143.5330 O   0  0  0  0  0  1  0  0  0  0  0  0
  191.0080  177.2130  141.2880 C   0  0  0  0  0  2  0  0  0  0  0  0
  192.1900  177.4050  140.3540 C   0  0  0  0  0  2  0  0  0  0  0  0
  190.9240  175.7450  139.1840 O   0  0  0  0  0  1  0  0  0  0  0  0
  192.0160  176.6070  139.0710 C   0  0  0  0  0  2  0  0  0  0  0  0
  182.5010  177.2730  140.8080 C   0  0  0  0  0  2  0  0  0  0  0  0
  180.4930  177.7550  137.6360 C   0  0  0  0  0  2  0  0  0  0  0  0
  180.8260  176.4300  136.9630 C   0  0  1  0  0  3  0  0  0  0  0  0
  181.5550  175.5210  139.1670 C   0  0  0  0  0  2  0  0  0  0  0  0
  181.2740  177.9420  138.8430 N   0  0  0  0  0  0  0  0  0  0  0  0
  181.7050  176.9690  139.5780 C   0  0  0  0  0  0  0  0  0  0  0  0
  180.6050  175.3310  137.9870 C   0  0  0  0  0  2  0  0  0  0  0  0
  179.9820  176.2320  135.8710 O   0  0  0  0  0  0  0  0  0  0  0  0
  180.8080  176.9460  134.5450 S   0  0  0  0  0  1  0  0  0  0  0  0
  188.3320  177.6970  138.6170 C   0  0  0  0  0  2  0  0  0  0  0  0
  189.3020  178.4690  137.7310 C   0  0  2  0  0  3  0  0  0  0  0  0
  188.9020  179.8020  137.6410 O   0  0  0  0  0  1  0  0  0  0  0  0
  189.4250  177.8580  136.3370 C   0  0  0  0  0  2  0  0  0  0  0  0
  188.0670  177.5130  135.7410 C   0  0  0  0  0  1  0  0  0  0  0  0
  1  8  1  0  0  0  0
  1  6  2  0  0  0  0
  2 11  1  1  0  0  0
  3 39  1  6  0  0  0
  3  4  1  0  0  0  0
  4  6  1  0  0  0  0
  5  2  1  0  0  0  0
  6  5  1  0  0  0  0
  7  1  1  0  0  0  0
  8 30  1  1  0  0  0
  8  9  1  0  0  0  0
  9  2  1  0  0  0  0
 10  7  2  0  0  0  0
 10  3  1  0  0  0  0
 11 12  1  6  0  0  0
 11 13  1  0  0  0  0
 13 14  1  0  0  0  0
 15 14  1  0  0  0  0
 15 16  1  0  0  0  0
 17 16  1  0  0  0  0
 18 17  1  0  0  0  0
 18 20  1  0  0  0  0
 19 20  1  0  0  0  0
 21 18  1  0  0  0  0
 22 26  1  6  0  0  0
 22 24  1  0  0  0  0
 22 23  1  0  0  0  0
 23 25  1  6  0  0  0
 23 21  1  0  0  0  0
 24 23  1  0  0  0  0
 27 26  1  0  0  0  0
 29 28  1  0  0  0  0
 29 27  1  0  0  0  0
 31 34  1  0  0  0  0
 32 37  1  6  0  0  0
 32 31  1  0  0  0  0
 32 36  1  0  0  0  0
 33 35  1  0  0  0  0
 34 35  2  0  0  0  0
 35 30  1  0  0  0  0
 36 33  1  0  0  0  0
 38 37  1  0  0  0  0
 40 41  1  6  0  0  0
 40 39  1  0  0  0  0
 42 40  1  0  0  0  0
 43 42  1  0  0  0  0
M  END
>  <MODEL>
5

>  <REMARK>
 VINA RESULT:      -6.1      3.563      8.475
  Name = 
  19 active torsions:
  status: ('A' for Active; 'I' for Inactive)
    1  A    between atoms: C_1  and  C_34
    2  A    between atoms: C_1  and  C_35
    3  A    between atoms: C_2  and  C_6
    4  A    between atoms: C_2  and  C_13
    5  A    between atoms: C_3  and  C_12
    6  A    between atoms: C_3  and  C_15
    7  A    between atoms: N_4  and  C_15
    8  A    between atoms: N_4  and  C_22
    9  A    between atoms: N_4  and  C_42
   10  A    between atoms: C_5  and  C_18
   11  A    between atoms: C_5  and  C_23
   12  A    between atoms: C_6  and  C_17
   13  A    between atoms: C_11  and  C_36
   14  A    between atoms: C_12  and  C_17
   15  A    between atoms: C_14  and  C_22
   16  A    between atoms: C_16  and  C_23
   17  A    between atoms: C_19  and  O_25
   18  A    between atoms: C_29  and  C_31
   19  A    between atoms: C_29  and  C_36
                            x       y       z     vdW  Elec       q    Type
                         _______ _______ _______ _____ _____    ______ ____

>  <TORSDO>
F 19

$$$$
=
 OpenBabel10272414253D

 43 46  0  0  1  0  0  0  0  0999 V2000
  189.2180  177.2290  141.9440 C   0  0  0  0  0  0  0  0  0  0  0  0
  191.4490  177.4220  140.1640 C   0  0  2  0  0  3  0  0  0  0  0  0
  189.6090  177.2300  144.7500 C   0  0  2  0  0  3  0  0  0  0  0  0
  190.6280  177.5860  143.8120 O   0  0  0  0  0  0  0  0  0  0  0  0
  191.5720  177.4390  141.5880 O   0  0  0  0  0  0  0  0  0  0  0  0
  190.4560  177.4180  142.4340 C   0  0  0  0  0  0  0  0  0  0  0  0
  188.0970  177.2590  142.8370 N   0  0  0  0  0  0  0  0  0  0  0  0
  188.9840  177.0900  140.4590 C   0  0  2  0  0  3  0  0  0  0  0  0
  190.2400  176.5860  139.7440 C   0  0  0  0  0  2  0  0  0  0  0  0
  188.2420  177.2970  144.1280 C   0  0  0  0  0  3  0  0  0  0  0  0
  192.7190  176.8830  139.5230 C   0  0  2  0  0  3  0  0  0  0  0  0
  193.7380  177.8180  139.6170 F   0  0  0  0  0  0  0  0  0  0  0  0
  192.4570  176.5340  138.0680 C   0  0  0  0  0  2  0  0  0  0  0  0
  193.1770  175.2540  137.6990 C   0  0  0  0  0  2  0  0  0  0  0  0
  192.3020  174.4270  136.7790 C   0  0  0  0  0  2  0  0  0  0  0  0
  190.9610  175.1130  136.5750 C   0  0  0  0  0  2  0  0  0  0  0  0
  190.6220  175.2210  135.0920 C   0  0  0  0  0  2  0  0  0  0  0  0
  189.2030  175.4970  134.9080 N   0  0  0  0  0  0  0  0  0  0  0  0
  189.2990  177.7830  135.3500 O   0  0  0  0  0  1  0  0  0  0  0  0
  189.0990  176.8330  134.3470 C   0  0  0  0  0  2  0  0  0  0  0  0
  188.6030  175.5560  136.2320 C   0  0  0  0  0  2  0  0  0  0  0  0
  186.9950  173.7610  137.1770 C   0  0  2  0  0  3  0  0  0  0  0  0
  187.2470  174.8700  136.2260 C   0  0  2  0  0  0  0  0  0  0  0  0
  187.3140  173.5290  135.8180 O   0  0  0  0  0  0  0  0  0  0  0  0
  186.1550  175.5320  135.6550 O   0  0  0  0  0  1  0  0  0  0  0  0
  185.5120  173.4910  137.3950 C   0  0  0  0  0  2  0  0  0  0  0  0
  185.1140  172.1580  136.7850 C   0  0  0  0  0  2  0  0  0  0  0  0
  183.2920  170.6500  136.4190 O   0  0  0  0  0  1  0  0  0  0  0  0
  183.6360  171.8720  137.0000 C   0  0  0  0  0  2  0  0  0  0  0  0
  188.5310  178.4130  139.8410 C   0  0  0  0  0  2  0  0  0  0  0  0
  184.7900  178.8470  140.2240 C   0  0  0  0  0  2  0  0  0  0  0  0
  184.4420  179.0480  138.7550 C   0  0  1  0  0  3  0  0  0  0  0  0
  186.6400  178.0550  138.1220 C   0  0  0  0  0  2  0  0  0  0  0  0
  186.2260  178.8150  140.4240 N   0  0  0  0  0  0  0  0  0  0  0  0
  187.0680  178.4080  139.5300 C   0  0  0  0  0  0  0  0  0  0  0  0
  185.1250  177.9420  137.9690 C   0  0  0  0  0  2  0  0  0  0  0  0
  183.0610  178.9630  138.5830 O   0  0  0  0  0  0  0  0  0  0  0  0
  182.6970  177.2980  138.8000 S   0  0  0  0  0  1  0  0  0  0  0  0
  189.6680  178.1300  145.9730 C   0  0  0  0  0  2  0  0  0  0  0  0
  189.7670  177.3140  147.2560 C   0  0  2  0  0  3  0  0  0  0  0  0
  190.5170  176.1610  147.0260 O   0  0  0  0  0  1  0  0  0  0  0  0
  188.3950  176.9500  147.8180 C   0  0  0  0  0  2  0  0  0  0  0  0
  187.4750  178.1580  147.9100 C   0  0  0  0  0  1  0  0  0  0  0  0
  1  6  2  0  0  0  0
  1  7  1  0  0  0  0
  2 11  1  6  0  0  0
  2  5  1  0  0  0  0
  3 39  1  1  0  0  0
  4  3  1  0  0  0  0
  5  6  1  0  0  0  0
  6  4  1  0  0  0  0
  7 10  2  0  0  0  0
  8 30  1  6  0  0  0
  8  1  1  0  0  0  0
  9  2  1  0  0  0  0
  9  8  1  0  0  0  0
 10  3  1  0  0  0  0
 11 12  1  6  0  0  0
 13 11  1  0  0  0  0
 14 13  1  0  0  0  0
 15 14  1  0  0  0  0
 16 15  1  0  0  0  0
 17 16  1  0  0  0  0
 18 17  1  0  0  0  0
 18 21  1  0  0  0  0
 20 18  1  0  0  0  0
 20 19  1  0  0  0  0
 22 26  1  6  0  0  0
 23 25  1  6  0  0  0
 23 21  1  0  0  0  0
 23 22  1  0  0  0  0
 24 23  1  0  0  0  0
 24 22  1  0  0  0  0
 27 29  1  0  0  0  0
 27 26  1  0  0  0  0
 28 29  1  0  0  0  0
 31 34  1  0  0  0  0
 32 37  1  1  0  0  0
 32 31  1  0  0  0  0
 33 35  1  0  0  0  0
 35 30  1  0  0  0  0
 35 34  2  0  0  0  0
 36 33  1  0  0  0  0
 36 32  1  0  0  0  0
 37 38  1  0  0  0  0
 39 40  1  0  0  0  0
 40 41  1  6  0  0  0
 40 42  1  0  0  0  0
 42 43  1  0  0  0  0
M  END
>  <MODEL>
6

>  <REMARK>
 VINA RESULT:      -6.1      3.937      8.567
  Name = 
  19 active torsions:
  status: ('A' for Active; 'I' for Inactive)
    1  A    between atoms: C_1  and  C_34
    2  A    between atoms: C_1  and  C_35
    3  A    between atoms: C_2  and  C_6
    4  A    between atoms: C_2  and  C_13
    5  A    between atoms: C_3  and  C_12
    6  A    between atoms: C_3  and  C_15
    7  A    between atoms: N_4  and  C_15
    8  A    between atoms: N_4  and  C_22
    9  A    between atoms: N_4  and  C_42
   10  A    between atoms: C_5  and  C_18
   11  A    between atoms: C_5  and  C_23
   12  A    between atoms: C_6  and  C_17
   13  A    between atoms: C_11  and  C_36
   14  A    between atoms: C_12  and  C_17
   15  A    between atoms: C_14  and  C_22
   16  A    between atoms: C_16  and  C_23
   17  A    between atoms: C_19  and  O_25
   18  A    between atoms: C_29  and  C_31
   19  A    between atoms: C_29  and  C_36
                            x       y       z     vdW  Elec       q    Type
                         _______ _______ _______ _____ _____    ______ ____

>  <TORSDO>
F 19

$$$$
=
 OpenBabel10272414253D

 43 46  0  0  1  0  0  0  0  0999 V2000
  185.0220  177.8340  137.8370 C   0  0  0  0  0  0  0  0  0  0  0  0
  184.5200  178.3250  140.6090 C   0  0  2  0  0  3  0  0  0  0  0  0
  187.5130  178.5290  136.6780 C   0  0  2  0  0  3  0  0  0  0  0  0
  187.2820  178.4950  138.0890 O   0  0  0  0  0  0  0  0  0  0  0  0
  185.7590  178.6300  139.9660 O   0  0  0  0  0  0  0  0  0  0  0  0
  186.0030  178.3090  138.6250 C   0  0  0  0  0  0  0  0  0  0  0  0
  185.3220  177.4760  136.4810 N   0  0  0  0  0  0  0  0  0  0  0  0
  183.6400  177.5750  138.3880 C   0  0  2  0  0  3  0  0  0  0  0  0
  183.3620  178.4420  139.6180 C   0  0  0  0  0  2  0  0  0  0  0  0
  186.4680  177.7470  135.9320 C   0  0  0  0  0  3  0  0  0  0  0  0
  184.2960  179.2420  141.8020 C   0  0  2  0  0  3  0  0  0  0  0  0
  185.5040  179.7580  142.2460 F   0  0  0  0  0  0  0  0  0  0  0  0
  183.6070  178.4790  142.9210 C   0  0  0  0  0  2  0  0  0  0  0  0
  183.2680  179.4150  144.0620 C   0  0  0  0  0  2  0  0  0  0  0  0
  183.7110  178.7970  145.3730 C   0  0  0  0  0  2  0  0  0  0  0  0
  185.1980  179.0250  145.5840 C   0  0  0  0  0  2  0  0  0  0  0  0
  185.7640  178.0330  146.5960 C   0  0  0  0  0  2  0  0  0  0  0  0
  186.9210  177.3410  146.0440 N   0  0  0  0  0  0  0  0  0  0  0  0
  187.6400  178.3200  148.0330 O   0  0  0  0  0  1  0  0  0  0  0  0
  187.9590  177.3690  147.0610 C   0  0  0  0  0  2  0  0  0  0  0  0
  187.4110  178.1420  144.9320 C   0  0  0  0  0  2  0  0  0  0  0  0
  189.7690  177.5950  144.0160 C   0  0  2  0  0  3  0  0  0  0  0  0
  188.3150  177.3070  144.0400 C   0  0  2  0  0  0  0  0  0  0  0  0
  188.8950  178.0510  143.0010 O   0  0  0  0  0  0  0  0  0  0  0  0
  187.8650  176.0600  143.5970 O   0  0  0  0  0  1  0  0  0  0  0  0
  190.5950  176.4340  143.4790 C   0  0  0  0  0  2  0  0  0  0  0  0
  191.6230  175.9870  144.5050 C   0  0  0  0  0  2  0  0  0  0  0  0
  192.3580  176.2700  146.7650 O   0  0  0  0  0  1  0  0  0  0  0  0
  191.3200  176.5640  145.8790 C   0  0  0  0  0  2  0  0  0  0  0  0
  183.4480  176.1000  138.7380 C   0  0  0  0  0  2  0  0  0  0  0  0
  184.5860  173.4680  136.2670 C   0  0  0  0  0  2  0  0  0  0  0  0
  183.2340  173.1610  135.6370 C   0  0  1  0  0  3  0  0  0  0  0  0
  182.3510  175.3110  136.5400 C   0  0  0  0  0  2  0  0  0  0  0  0
  184.4460  174.3560  137.4050 N   0  0  0  0  0  0  0  0  0  0  0  0
  183.4980  175.2290  137.5230 C   0  0  0  0  0  0  0  0  0  0  0  0
  182.5870  174.4870  135.2770 C   0  0  0  0  0  2  0  0  0  0  0  0
  183.4140  172.3990  134.4840 O   0  0  0  0  0  0  0  0  0  0  0  0
  184.0450  170.9030  135.0450 S   0  0  0  0  0  1  0  0  0  0  0  0
  188.8960  177.9940  136.3480 C   0  0  0  0  0  2  0  0  0  0  0  0
  188.9100  176.4700  136.3340 C   0  0  2  0  0  3  0  0  0  0  0  0
  188.6610  175.9830  137.6170 O   0  0  0  0  0  1  0  0  0  0  0  0
  190.2260  175.9090  135.8010 C   0  0  0  0  0  2  0  0  0  0  0  0
  191.1630  175.4840  136.9230 C   0  0  0  0  0  1  0  0  0  0  0  0
  1  8  1  0  0  0  0
  1  6  2  0  0  0  0
  2 11  1  1  0  0  0
  3 39  1  1  0  0  0
  3  4  1  0  0  0  0
  4  6  1  0  0  0  0
  5  2  1  0  0  0  0
  6  5  1  0  0  0  0
  7  1  1  0  0  0  0
  8 30  1  1  0  0  0
  8  9  1  0  0  0  0
  9  2  1  0  0  0  0
 10  7  2  0  0  0  0
 10  3  1  0  0  0  0
 11 12  1  1  0  0  0
 11 13  1  0  0  0  0
 13 14  1  0  0  0  0
 14 15  1  0  0  0  0
 15 16  1  0  0  0  0
 16 17  1  0  0  0  0
 18 17  1  0  0  0  0
 18 20  1  0  0  0  0
 20 19  1  0  0  0  0
 21 18  1  0  0  0  0
 22 26  1  6  0  0  0
 22 23  1  0  0  0  0
 23 25  1  6  0  0  0
 23 21  1  0  0  0  0
 24 22  1  0  0  0  0
 24 23  1  0  0  0  0
 26 27  1  0  0  0  0
 27 29  1  0  0  0  0
 29 28  1  0  0  0  0
 31 34  1  0  0  0  0
 32 37  1  6  0  0  0
 32 31  1  0  0  0  0
 33 35  1  0  0  0  0
 34 35  2  0  0  0  0
 35 30  1  0  0  0  0
 36 32  1  0  0  0  0
 36 33  1  0  0  0  0
 37 38  1  0  0  0  0
 40 39  1  0  0  0  0
 40 41  1  1  0  0  0
 42 40  1  0  0  0  0
 42 43  1  0  0  0  0
M  END
>  <MODEL>
7

>  <REMARK>
 VINA RESULT:      -5.9      3.674      8.282
  Name = 
  19 active torsions:
  status: ('A' for Active; 'I' for Inactive)
    1  A    between atoms: C_1  and  C_34
    2  A    between atoms: C_1  and  C_35
    3  A    between atoms: C_2  and  C_6
    4  A    between atoms: C_2  and  C_13
    5  A    between atoms: C_3  and  C_12
    6  A    between atoms: C_3  and  C_15
    7  A    between atoms: N_4  and  C_15
    8  A    between atoms: N_4  and  C_22
    9  A    between atoms: N_4  and  C_42
   10  A    between atoms: C_5  and  C_18
   11  A    between atoms: C_5  and  C_23
   12  A    between atoms: C_6  and  C_17
   13  A    between atoms: C_11  and  C_36
   14  A    between atoms: C_12  and  C_17
   15  A    between atoms: C_14  and  C_22
   16  A    between atoms: C_16  and  C_23
   17  A    between atoms: C_19  and  O_25
   18  A    between atoms: C_29  and  C_31
   19  A    between atoms: C_29  and  C_36
                            x       y       z     vdW  Elec       q    Type
                         _______ _______ _______ _____ _____    ______ ____

>  <TORSDO>
F 19

$$$$
=
 OpenBabel10272414253D

 43 46  0  0  1  0  0  0  0  0999 V2000
  184.5310  177.8850  138.3530 C   0  0  0  0  0  0  0  0  0  0  0  0
  184.4060  178.3670  141.1690 C   0  0  2  0  0  3  0  0  0  0  0  0
  186.9010  178.4360  136.9010 C   0  0  2  0  0  3  0  0  0  0  0  0
  186.8430  178.3960  138.3290 O   0  0  0  0  0  0  0  0  0  0  0  0
  185.5750  178.6010  140.3810 O   0  0  0  0  0  0  0  0  0  0  0  0
  185.6300  178.2850  139.0170 C   0  0  0  0  0  0  0  0  0  0  0  0
  184.6380  177.5290  136.9680 N   0  0  0  0  0  0  0  0  0  0  0  0
  183.2140  177.7090  139.0680 C   0  0  2  0  0  3  0  0  0  0  0  0
  183.1460  178.5730  140.3300 C   0  0  0  0  0  2  0  0  0  0  0  0
  185.7240  177.7340  136.2840 C   0  0  0  0  0  3  0  0  0  0  0  0
  184.3910  179.2780  142.3870 C   0  0  2  0  0  3  0  0  0  0  0  0
  185.6270  179.8860  142.5490 F   0  0  0  0  0  0  0  0  0  0  0  0
  184.0310  178.4800  143.6290 C   0  0  0  0  0  2  0  0  0  0  0  0
  184.1960  179.3350  144.8680 C   0  0  0  0  0  2  0  0  0  0  0  0
  184.6200  178.4620  146.0320 C   0  0  0  0  0  2  0  0  0  0  0  0
  186.0140  178.8500  146.4960 C   0  0  0  0  0  2  0  0  0  0  0  0
  186.9850  177.6840  146.3430 C   0  0  0  0  0  2  0  0  0  0  0  0
  188.0610  178.0290  145.4230 N   0  0  0  0  0  0  0  0  0  0  0  0
  187.0650  176.4840  143.9890 O   0  0  0  0  0  1  0  0  0  0  0  0
  187.5640  177.7850  144.0780 C   0  0  0  0  0  2  0  0  0  0  0  0
  189.1380  177.0760  145.6450 C   0  0  0  0  0  2  0  0  0  0  0  0
  191.0110  176.5620  143.9340 C   0  0  2  0  0  3  0  0  0  0  0  0
  190.3850  177.5060  144.8910 C   0  0  2  0  0  0  0  0  0  0  0  0
  191.5200  176.7590  145.2400 O   0  0  0  0  0  0  0  0  0  0  0  0
  190.6750  178.8700  144.7820 O   0  0  0  0  0  1  0  0  0  0  0  0
  191.9260  177.2530  142.9320 C   0  0  0  0  0  2  0  0  0  0  0  0
  191.3330  177.1960  141.5350 C   0  0  0  0  0  2  0  0  0  0  0  0
  189.0100  176.8560  141.0710 O   0  0  0  0  0  1  0  0  0  0  0  0
  189.9400  177.8040  141.5020 C   0  0  0  0  0  2  0  0  0  0  0  0
  182.9690  176.2430  139.4300 C   0  0  0  0  0  2  0  0  0  0  0  0
  182.5160  174.0670  136.3660 C   0  0  0  0  0  2  0  0  0  0  0  0
  181.1050  173.5730  136.6560 C   0  0  1  0  0  3  0  0  0  0  0  0
  180.8050  175.4490  138.2700 C   0  0  0  0  0  2  0  0  0  0  0  0
  183.0490  174.8210  137.4840 N   0  0  0  0  0  0  0  0  0  0  0  0
  182.3170  175.4960  138.3100 C   0  0  0  0  0  0  0  0  0  0  0  0
  180.2610  174.7860  137.0070 C   0  0  0  0  0  2  0  0  0  0  0  0
  180.5830  172.9510  135.5230 O   0  0  0  0  0  0  0  0  0  0  0  0
  181.9390  172.2180  134.7640 S   0  0  0  0  0  1  0  0  0  0  0  0
  188.1960  177.8180  136.3990 C   0  0  0  0  0  2  0  0  0  0  0  0
  188.9050  177.0460  137.5060 C   0  0  2  0  0  3  0  0  0  0  0  0
  189.8230  177.8760  138.1470 O   0  0  0  0  0  1  0  0  0  0  0  0
  189.6000  175.7910  136.9830 C   0  0  0  0  0  2  0  0  0  0  0  0
  190.7230  175.3340  137.9020 C   0  0  0  0  0  1  0  0  0  0  0  0
  1  6  2  0  0  0  0
  1  8  1  0  0  0  0
  2 11  1  1  0  0  0
  3 39  1  6  0  0  0
  3  4  1  0  0  0  0
  4  6  1  0  0  0  0
  5  2  1  0  0  0  0
  6  5  1  0  0  0  0
  7  1  1  0  0  0  0
  8 30  1  1  0  0  0
  8  9  1  0  0  0  0
  9  2  1  0  0  0  0
 10  3  1  0  0  0  0
 10  7  2  0  0  0  0
 11 12  1  1  0  0  0
 11 13  1  0  0  0  0
 13 14  1  0  0  0  0
 14 15  1  0  0  0  0
 15 16  1  0  0  0  0
 17 16  1  0  0  0  0
 18 21  1  0  0  0  0
 18 17  1  0  0  0  0
 19 20  1  0  0  0  0
 20 18  1  0  0  0  0
 22 26  1  6  0  0  0
 22 23  1  0  0  0  0
 22 24  1  0  0  0  0
 23 25  1  6  0  0  0
 23 24  1  0  0  0  0
 23 21  1  0  0  0  0
 27 26  1  0  0  0  0
 28 29  1  0  0  0  0
 29 27  1  0  0  0  0
 31 32  1  0  0  0  0
 31 34  1  0  0  0  0
 32 37  1  6  0  0  0
 32 36  1  0  0  0  0
 33 35  1  0  0  0  0
 34 35  2  0  0  0  0
 35 30  1  0  0  0  0
 36 33  1  0  0  0  0
 38 37  1  0  0  0  0
 39 40  1  0  0  0  0
 40 41  1  6  0  0  0
 42 40  1  0  0  0  0
 42 43  1  0  0  0  0
M  END
>  <MODEL>
8

>  <REMARK>
 VINA RESULT:      -5.9      3.823      8.313
  Name = 
  19 active torsions:
  status: ('A' for Active; 'I' for Inactive)
    1  A    between atoms: C_1  and  C_34
    2  A    between atoms: C_1  and  C_35
    3  A    between atoms: C_2  and  C_6
    4  A    between atoms: C_2  and  C_13
    5  A    between atoms: C_3  and  C_12
    6  A    between atoms: C_3  and  C_15
    7  A    between atoms: N_4  and  C_15
    8  A    between atoms: N_4  and  C_22
    9  A    between atoms: N_4  and  C_42
   10  A    between atoms: C_5  and  C_18
   11  A    between atoms: C_5  and  C_23
   12  A    between atoms: C_6  and  C_17
   13  A    between atoms: C_11  and  C_36
   14  A    between atoms: C_12  and  C_17
   15  A    between atoms: C_14  and  C_22
   16  A    between atoms: C_16  and  C_23
   17  A    between atoms: C_19  and  O_25
   18  A    between atoms: C_29  and  C_31
   19  A    between atoms: C_29  and  C_36
                            x       y       z     vdW  Elec       q    Type
                         _______ _______ _______ _____ _____    ______ ____

>  <TORSDO>
F 19

$$$$
=
 OpenBabel10272414253D

 43 46  0  0  1  0  0  0  0  0999 V2000
  189.5830  175.6080  135.9190 C   0  0  0  0  0  0  0  0  0  0  0  0
  188.7350  176.8880  138.3310 C   0  0  2  0  0  3  0  0  0  0  0  0
  192.2750  175.8020  135.0550 C   0  0  2  0  0  3  0  0  0  0  0  0
  191.8380  176.1790  136.3630 O   0  0  0  0  0  0  0  0  0  0  0  0
  190.0790  176.9260  137.8500 O   0  0  0  0  0  0  0  0  0  0  0  0
  190.4820  176.2270  136.7040 C   0  0  0  0  0  0  0  0  0  0  0  0
  190.0400  174.8670  134.7790 N   0  0  0  0  0  0  0  0  0  0  0  0
  188.1170  175.5980  136.2760 C   0  0  2  0  0  3  0  0  0  0  0  0
  187.7530  176.7900  137.1640 C   0  0  0  0  0  2  0  0  0  0  0  0
  191.2760  174.9040  134.3800 C   0  0  0  0  0  3  0  0  0  0  0  0
  188.4340  178.1150  139.1790 C   0  0  2  0  0  3  0  0  0  0  0  0
  189.2930  179.1520  138.8460 F   0  0  0  0  0  0  0  0  0  0  0  0
  188.5700  177.7730  140.6530 C   0  0  0  0  0  2  0  0  0  0  0  0
  187.8300  178.7900  141.4970 C   0  0  0  0  0  2  0  0  0  0  0  0
  186.3610  178.7850  141.1230 C   0  0  0  0  0  2  0  0  0  0  0  0
  185.5260  179.3320  142.2690 C   0  0  0  0  0  2  0  0  0  0  0  0
  184.3500  178.4100  142.5750 C   0  0  0  0  0  2  0  0  0  0  0  0
  184.0530  178.4140  144.0020 N   0  0  0  0  0  0  0  0  0  0  0  0
  182.1410  179.1830  142.9130 O   0  0  0  0  0  1  0  0  0  0  0  0
  182.7450  179.0290  144.1620 C   0  0  0  0  0  2  0  0  0  0  0  0
  185.0100  179.3060  144.6370 C   0  0  0  0  0  2  0  0  0  0  0  0
  187.0850  178.0870  145.5910 C   0  0  2  0  0  3  0  0  0  0  0  0
  185.7060  178.5980  145.7870 C   0  0  2  0  0  0  0  0  0  0  0  0
  185.9520  177.2410  145.5250 O   0  0  0  0  0  0  0  0  0  0  0  0
  185.2390  178.7980  147.0890 O   0  0  0  0  0  1  0  0  0  0  0  0
  187.8170  177.8380  146.9030 C   0  0  0  0  0  2  0  0  0  0  0  0
  189.3050  177.6530  146.6610 C   0  0  0  0  0  2  0  0  0  0  0  0
  190.5020  176.9230  144.7210 O   0  0  0  0  0  1  0  0  0  0  0  0
  189.6670  177.9290  145.2090 C   0  0  0  0  0  2  0  0  0  0  0  0
  187.7240  174.2940  136.9710 C   0  0  0  0  0  2  0  0  0  0  0  0
  184.3810  172.5190  137.0350 C   0  0  0  0  0  2  0  0  0  0  0  0
  183.5840  173.5240  136.2150 C   0  0  1  0  0  3  0  0  0  0  0  0
  185.7200  174.4810  135.3560 C   0  0  0  0  0  2  0  0  0  0  0  0
  185.7090  173.0190  137.3330 N   0  0  0  0  0  0  0  0  0  0  0  0
  186.3540  173.8430  136.5720 C   0  0  0  0  0  0  0  0  0  0  0  0
  184.3920  173.8360  134.9670 C   0  0  0  0  0  2  0  0  0  0  0  0
  182.3580  172.9690  135.8530 O   0  0  0  0  0  0  0  0  0  0  0  0
  182.1160  171.6820  136.9650 S   0  0  0  0  0  1  0  0  0  0  0  0
  193.6290  175.1150  135.1200 C   0  0  0  0  0  2  0  0  0  0  0  0
  194.3410  175.4190  136.4330 C   0  0  2  0  0  3  0  0  0  0  0  0
  195.6110  175.9340  136.1730 O   0  0  0  0  0  1  0  0  0  0  0  0
  194.4420  174.1920  137.3350 C   0  0  0  0  0  2  0  0  0  0  0  0
  195.6430  174.2630  138.2680 C   0  0  0  0  0  1  0  0  0  0  0  0
  1  8  1  0  0  0  0
  1  6  2  0  0  0  0
  2 11  1  6  0  0  0
  3 39  1  1  0  0  0
  3  4  1  0  0  0  0
  4  6  1  0  0  0  0
  5  2  1  0  0  0  0
  6  5  1  0  0  0  0
  7  1  1  0  0  0  0
  8 30  1  1  0  0  0
  8  9  1  0  0  0  0
  9  2  1  0  0  0  0
 10  7  2  0  0  0  0
 10  3  1  0  0  0  0
 11 12  1  6  0  0  0
 11 13  1  0  0  0  0
 13 14  1  0  0  0  0
 15 14  1  0  0  0  0
 15 16  1  0  0  0  0
 16 17  1  0  0  0  0
 17 18  1  0  0  0  0
 18 20  1  0  0  0  0
 18 21  1  0  0  0  0
 19 20  1  0  0  0  0
 21 23  1  0  0  0  0
 22 23  1  0  0  0  0
 22 26  1  1  0  0  0
 23 25  1  1  0  0  0
 24 22  1  0  0  0  0
 24 23  1  0  0  0  0
 27 26  1  0  0  0  0
 28 29  1  0  0  0  0
 29 27  1  0  0  0  0
 31 34  1  0  0  0  0
 32 37  1  6  0  0  0
 32 31  1  0  0  0  0
 33 35  1  0  0  0  0
 35 30  1  0  0  0  0
 35 34  2  0  0  0  0
 36 33  1  0  0  0  0
 36 32  1  0  0  0  0
 37 38  1  0  0  0  0
 39 40  1  0  0  0  0
 40 41  1  6  0  0  0
 40 42  1  0  0  0  0
 42 43  1  0  0  0  0
M  END
>  <MODEL>
9

>  <REMARK>
 VINA RESULT:      -5.8      4.437      8.682
  Name = 
  19 active torsions:
  status: ('A' for Active; 'I' for Inactive)
    1  A    between atoms: C_1  and  C_34
    2  A    between atoms: C_1  and  C_35
    3  A    between atoms: C_2  and  C_6
    4  A    between atoms: C_2  and  C_13
    5  A    between atoms: C_3  and  C_12
    6  A    between atoms: C_3  and  C_15
    7  A    between atoms: N_4  and  C_15
    8  A    between atoms: N_4  and  C_22
    9  A    between atoms: N_4  and  C_42
   10  A    between atoms: C_5  and  C_18
   11  A    between atoms: C_5  and  C_23
   12  A    between atoms: C_6  and  C_17
   13  A    between atoms: C_11  and  C_36
   14  A    between atoms: C_12  and  C_17
   15  A    between atoms: C_14  and  C_22
   16  A    between atoms: C_16  and  C_23
   17  A    between atoms: C_19  and  O_25
   18  A    between atoms: C_29  and  C_31
   19  A    between atoms: C_29  and  C_36
                            x       y       z     vdW  Elec       q    Type
                         _______ _______ _______ _____ _____    ______ ____

>  <TORSDO>
F 19

$$$$
