=
 OpenBabel10272415073D

 37 40  0  0  1  0  0  0  0  0999 V2000
  186.9990  177.9730  146.7780 C   0  0  1  0  0  3  0  0  0  0  0  0
  192.4830  175.3400  146.8750 C   0  0  0  0  0  2  0  0  0  0  0  0
  191.1350  175.3890  146.1460 C   0  0  0  0  0  2  0  0  0  0  0  0
  191.3900  177.5860  145.2550 C   0  0  0  0  0  2  0  0  0  0  0  0
  188.8260  177.2690  141.6000 C   0  0  2  0  0  3  0  0  0  0  0  0
  190.5570  176.7420  146.1040 N   0  0  2  0  0  0  0  0  0  0  0  0
  190.5270  178.6140  144.5300 C   0  0  0  0  0  2  0  0  0  0  0  0
  190.4230  177.3800  147.4310 C   0  0  1  0  0  3  0  0  0  0  0  0
  188.9550  177.5610  147.7770 C   0  0  0  0  0  2  0  0  0  0  0  0
  192.0690  178.7540  142.5360 C   0  0  0  0  0  1  0  0  0  0  0  0
  186.7640  176.8380  145.7710 C   0  0  0  0  0  2  0  0  0  0  0  0
  190.6450  178.5230  143.0110 C   0  0  1  0  0  3  0  0  0  0  0  0
  188.3390  178.3740  146.8210 O   0  0  0  0  0  0  0  0  0  0  0  0
  187.6640  176.9580  144.5520 C   0  0  2  0  0  3  0  0  0  0  0  0
  190.6240  176.1830  142.6670 O   0  0  0  0  0  0  0  0  0  0  0  0
  187.6550  177.9780  142.2910 C   0  0  0  0  0  2  0  0  0  0  0  0
  192.5210  176.2140  148.1320 C   0  0  0  0  0  2  0  0  0  0  0  0
  191.1220  176.6250  148.5690 C   0  0  0  0  0  2  0  0  0  0  0  0
  186.8380  177.1460  143.2940 C   0  0  1  0  0  3  0  0  0  0  0  0
  187.4270  175.7830  143.6320 C   0  0  0  0  0  2  0  0  0  0  0  0
  190.0710  177.2510  142.4500 C   0  0  0  0  0  0  0  0  0  0  0  0
  189.9780  176.9110  139.3290 C   0  0  2  0  0  3  0  0  0  0  0  0
  188.5920  177.3470  137.3900 O   0  0  0  0  0  0  0  0  0  0  0  0
  187.7220  178.0780  139.4920 C   0  0  0  0  0  2  0  0  0  0  0  0
  189.9230  177.3320  137.8470 C   0  0  2  0  0  3  0  0  0  0  0  0
  189.0620  177.8100  140.1820 C   0  0  1  0  0  3  0  0  0  0  0  0
  187.9630  178.4270  138.0280 C   0  0  0  0  0  2  0  0  0  0  0  0
  191.2770  176.9960  139.7960 F   0  0  0  0  0  0  0  0  0  0  0  0
  190.7590  175.1150  137.4190 O   0  0  0  0  0  1  0  0  0  0  0  0
  190.2890  176.4520  135.4930 C   0  0  0  0  0  1  0  0  0  0  0  0
  190.7620  176.4250  136.9390 C   0  0  1  0  0  3  0  0  0  0  0  0
  186.1290  179.1540  146.4890 C   0  0  0  0  0  0  0  0  0  0  0  0
  186.0310  180.0700  147.3450 O   0  0  0  0  0  0  0  0  0  0  0  0
  185.4890  179.2710  145.2600 O   0  0  0  0  0  0  0  0  0  0  0  0
  184.0810  179.1410  145.1300 C   0  0  0  0  0  2  0  0  0  0  0  0
  183.7200  178.9500  143.6690 C   0  0  0  0  0  2  0  0  0  0  0  0
  182.2100  178.9470  143.5020 C   0  0  0  0  0  1  0  0  0  0  0  0
  1 32  1  6  0  0  0
  1 13  1  0  0  0  0
  2 17  1  0  0  0  0
  3  2  1  0  0  0  0
  5 16  1  1  0  0  0
  5 21  1  0  0  0  0
  6  4  1  6  0  0  0
  6  3  1  0  0  0  0
  6  8  1  0  0  0  0
  7  4  1  0  0  0  0
  8  9  1  1  0  0  0
  8 18  1  0  0  0  0
 11  1  1  0  0  0  0
 12 10  1  1  0  0  0
 12  7  1  0  0  0  0
 13  9  1  0  0  0  0
 14 20  1  6  0  0  0
 14 11  1  0  0  0  0
 17 18  1  0  0  0  0
 19 16  1  6  0  0  0
 19 20  1  0  0  0  0
 19 14  1  0  0  0  0
 21 15  2  0  0  0  0
 21 12  1  0  0  0  0
 22 28  1  1  0  0  0
 22 26  1  0  0  0  0
 23 25  1  0  0  0  0
 23 27  1  0  0  0  0
 25 31  1  6  0  0  0
 25 22  1  0  0  0  0
 26 24  1  6  0  0  0
 26  5  1  0  0  0  0
 27 24  1  0  0  0  0
 31 30  1  6  0  0  0
 31 29  1  0  0  0  0
 32 33  2  0  0  0  0
 34 32  1  0  0  0  0
 35 34  1  0  0  0  0
 36 35  1  0  0  0  0
 37 36  1  0  0  0  0
M  END
>  <MODEL>
1

>  <REMARK>
 VINA RESULT:      -6.0      0.000      0.000
  Name = 
  6 active torsions:
  status: ('A' for Active; 'I' for Inactive)
    1  A    between atoms: C_1  and  C_12
    2  A    between atoms: O_5  and  C_12
    3  A    between atoms: O_5  and  C_26
    4  A    between atoms: C_8  and  C_19
    5  A    between atoms: C_10  and  C_14
    6  A    between atoms: C_11  and  C_26
                            x       y       z     vdW  Elec       q    Type
                         _______ _______ _______ _____ _____    ______ ____

>  <TORSDO>
F 6

$$$$
=
 OpenBabel10272415073D

 37 40  0  0  1  0  0  0  0  0999 V2000
  180.8780  175.9960  138.5450 C   0  0  1  0  0  3  0  0  0  0  0  0
  182.0820  171.5560  134.5630 C   0  0  0  0  0  2  0  0  0  0  0  0
  182.2030  173.0610  134.8280 C   0  0  0  0  0  2  0  0  0  0  0  0
  183.7770  172.8950  136.6120 C   0  0  0  0  0  2  0  0  0  0  0  0
  185.8350  176.8520  136.2330 C   0  0  2  0  0  3  0  0  0  0  0  0
  182.4490  173.3740  136.2450 N   0  0  2  0  0  0  0  0  0  0  0  0
  184.3970  173.8190  137.6550 C   0  0  0  0  0  2  0  0  0  0  0  0
  181.4560  172.7890  137.1700 C   0  0  1  0  0  3  0  0  0  0  0  0
  180.6430  173.8920  137.8290 C   0  0  0  0  0  2  0  0  0  0  0  0
  186.7640  173.3490  136.9130 C   0  0  0  0  0  1  0  0  0  0  0  0
  181.2920  176.8370  137.3290 C   0  0  0  0  0  2  0  0  0  0  0  0
  185.7260  174.4190  137.2030 C   0  0  1  0  0  3  0  0  0  0  0  0
  181.4910  174.7370  138.5510 O   0  0  0  0  0  0  0  0  0  0  0  0
  182.7340  176.5810  136.9190 C   0  0  2  0  0  3  0  0  0  0  0  0
  185.2650  174.9620  134.9470 O   0  0  0  0  0  0  0  0  0  0  0  0
  185.0100  177.4540  137.3780 C   0  0  0  0  0  2  0  0  0  0  0  0
  181.2910  170.8150  135.6450 C   0  0  0  0  0  2  0  0  0  0  0  0
  180.5020  171.7800  136.5190 C   0  0  0  0  0  2  0  0  0  0  0  0
  183.5600  177.8470  137.0510 C   0  0  1  0  0  3  0  0  0  0  0  0
  183.0600  177.3920  135.6860 C   0  0  0  0  0  2  0  0  0  0  0  0
  185.5790  175.3770  136.0530 C   0  0  0  0  0  0  0  0  0  0  0  0
  187.9650  176.6910  137.6640 C   0  0  2  0  0  3  0  0  0  0  0  0
  189.9840  176.1330  136.4480 O   0  0  0  0  0  0  0  0  0  0  0  0
  188.0860  176.7210  135.1220 C   0  0  0  0  0  2  0  0  0  0  0  0
  189.5020  176.7960  137.5920 C   0  0  2  0  0  3  0  0  0  0  0  0
  187.3250  177.2030  136.3600 C   0  0  1  0  0  3  0  0  0  0  0  0
  189.5840  176.8990  135.3430 C   0  0  0  0  0  2  0  0  0  0  0  0
  187.4920  177.4300  138.7350 F   0  0  0  0  0  0  0  0  0  0  0  0
  191.1120  175.2430  138.4810 O   0  0  0  0  0  1  0  0  0  0  0  0
  190.8860  177.3130  139.6570 C   0  0  0  0  0  1  0  0  0  0  0  0
  190.1960  176.2330  138.8370 C   0  0  1  0  0  3  0  0  0  0  0  0
  181.1690  176.7040  139.8290 C   0  0  0  0  0  0  0  0  0  0  0  0
  180.2260  176.9430  140.6260 O   0  0  0  0  0  0  0  0  0  0  0  0
  182.4750  177.0340  140.1690 O   0  0  0  0  0  0  0  0  0  0  0  0
  182.8120  178.2950  140.7270 C   0  0  0  0  0  2  0  0  0  0  0  0
  184.0930  178.1710  141.5310 C   0  0  0  0  0  2  0  0  0  0  0  0
  185.2140  178.9340  140.8460 C   0  0  0  0  0  1  0  0  0  0  0  0
  1 13  1  0  0  0  0
  1 32  1  1  0  0  0
  2  3  1  0  0  0  0
  2 17  1  0  0  0  0
  4  7  1  0  0  0  0
  5 26  1  0  0  0  0
  5 16  1  1  0  0  0
  6  3  1  6  0  0  0
  6  4  1  0  0  0  0
  6  8  1  0  0  0  0
  8 18  1  6  0  0  0
  8  9  1  0  0  0  0
  9 13  1  0  0  0  0
 11  1  1  0  0  0  0
 12 10  1  6  0  0  0
 12  7  1  0  0  0  0
 14 20  1  6  0  0  0
 14 19  1  0  0  0  0
 14 11  1  0  0  0  0
 15 21  2  0  0  0  0
 17 18  1  0  0  0  0
 19 20  1  6  0  0  0
 19 16  1  0  0  0  0
 21  5  1  0  0  0  0
 21 12  1  0  0  0  0
 22 28  1  1  0  0  0
 23 25  1  0  0  0  0
 24 27  1  0  0  0  0
 25 22  1  0  0  0  0
 25 31  1  1  0  0  0
 26 24  1  6  0  0  0
 26 22  1  0  0  0  0
 27 23  1  0  0  0  0
 29 31  1  0  0  0  0
 31 30  1  6  0  0  0
 32 34  1  0  0  0  0
 32 33  2  0  0  0  0
 34 35  1  0  0  0  0
 35 36  1  0  0  0  0
 37 36  1  0  0  0  0
M  END
>  <MODEL>
2

>  <REMARK>
 VINA RESULT:      -5.8      5.843      9.297
  Name = 
  6 active torsions:
  status: ('A' for Active; 'I' for Inactive)
    1  A    between atoms: C_1  and  C_12
    2  A    between atoms: O_5  and  C_12
    3  A    between atoms: O_5  and  C_26
    4  A    between atoms: C_8  and  C_19
    5  A    between atoms: C_10  and  C_14
    6  A    between atoms: C_11  and  C_26
                            x       y       z     vdW  Elec       q    Type
                         _______ _______ _______ _____ _____    ______ ____

>  <TORSDO>
F 6

$$$$
=
 OpenBabel10272415073D

 37 40  0  0  1  0  0  0  0  0999 V2000
  184.5720  178.5090  139.1870 C   0  0  1  0  0  3  0  0  0  0  0  0
  182.1710  175.7130  134.3460 C   0  0  0  0  0  2  0  0  0  0  0  0
  183.3450  176.5670  134.8390 C   0  0  0  0  0  2  0  0  0  0  0  0
  184.3190  174.9020  136.2410 C   0  0  0  0  0  2  0  0  0  0  0  0
  188.6020  176.2040  136.1710 C   0  0  2  0  0  3  0  0  0  0  0  0
  183.7480  176.2440  136.2170 N   0  0  2  0  0  0  0  0  0  0  0  0
  185.4210  174.8210  137.2930 C   0  0  0  0  0  2  0  0  0  0  0  0
  182.6440  176.3120  137.1980 C   0  0  1  0  0  3  0  0  0  0  0  0
  182.8840  177.4490  138.1770 C   0  0  0  0  0  2  0  0  0  0  0  0
  186.7110  173.0400  136.0510 C   0  0  0  0  0  1  0  0  0  0  0  0
  185.4610  179.0910  138.0790 C   0  0  0  0  0  2  0  0  0  0  0  0
  186.7700  174.4070  136.7100 C   0  0  1  0  0  3  0  0  0  0  0  0
  184.0840  177.2380  138.8620 O   0  0  0  0  0  0  0  0  0  0  0  0
  186.2690  178.0170  137.3690 C   0  0  2  0  0  3  0  0  0  0  0  0
  186.8340  175.6670  134.7090 O   0  0  0  0  0  0  0  0  0  0  0  0
  188.4730  176.8920  137.5360 C   0  0  0  0  0  2  0  0  0  0  0  0
  181.0940  175.4950  135.4130 C   0  0  0  0  0  2  0  0  0  0  0  0
  181.2520  176.4690  136.5720 C   0  0  0  0  0  2  0  0  0  0  0  0
  187.7550  178.2520  137.5600 C   0  0  1  0  0  3  0  0  0  0  0  0
  187.0750  178.6440  136.2550 C   0  0  0  0  0  2  0  0  0  0  0  0
  187.3560  175.4430  135.7910 C   0  0  0  0  0  0  0  0  0  0  0  0
  191.1240  176.1880  135.6750 C   0  0  2  0  0  3  0  0  0  0  0  0
  192.4710  174.9010  137.2240 O   0  0  0  0  0  0  0  0  0  0  0  0
  190.1060  174.5920  137.3780 C   0  0  0  0  0  2  0  0  0  0  0  0
  192.4130  175.3700  135.8990 C   0  0  2  0  0  3  0  0  0  0  0  0
  189.8850  175.3650  136.0750 C   0  0  1  0  0  3  0  0  0  0  0  0
  191.4740  173.9200  137.3460 C   0  0  0  0  0  2  0  0  0  0  0  0
  191.0270  176.5590  134.3460 F   0  0  0  0  0  0  0  0  0  0  0  0
  194.2010  176.7420  136.7460 O   0  0  0  0  0  1  0  0  0  0  0  0
  194.7490  175.3170  134.9060 C   0  0  0  0  0  1  0  0  0  0  0  0
  193.6840  176.1660  135.5850 C   0  0  1  0  0  3  0  0  0  0  0  0
  185.2910  178.4520  140.4970 C   0  0  0  0  0  0  0  0  0  0  0  0
  186.4890  178.8290  140.5570 O   0  0  0  0  0  0  0  0  0  0  0  0
  184.6230  178.0510  141.6480 O   0  0  0  0  0  0  0  0  0  0  0  0
  185.1910  178.2030  142.9400 C   0  0  0  0  0  2  0  0  0  0  0  0
  184.3130  179.1120  143.7780 C   0  0  0  0  0  2  0  0  0  0  0  0
  184.4900  178.7920  145.2530 C   0  0  0  0  0  1  0  0  0  0  0  0
  1 32  1  1  0  0  0
  2  3  1  0  0  0  0
  2 17  1  0  0  0  0
  4  7  1  0  0  0  0
  5 16  1  1  0  0  0
  6  3  1  6  0  0  0
  6  4  1  0  0  0  0
  6  8  1  0  0  0  0
  8 18  1  6  0  0  0
  8  9  1  0  0  0  0
  9 13  1  0  0  0  0
 11  1  1  0  0  0  0
 12 10  1  6  0  0  0
 12  7  1  0  0  0  0
 13  1  1  0  0  0  0
 14 20  1  6  0  0  0
 14 19  1  0  0  0  0
 14 11  1  0  0  0  0
 15 21  2  0  0  0  0
 16 19  1  0  0  0  0
 17 18  1  0  0  0  0
 19 20  1  6  0  0  0
 21  5  1  0  0  0  0
 21 12  1  0  0  0  0
 22 28  1  6  0  0  0
 22 25  1  0  0  0  0
 22 26  1  0  0  0  0
 23 27  1  0  0  0  0
 25 31  1  1  0  0  0
 25 23  1  0  0  0  0
 26  5  1  0  0  0  0
 26 24  1  1  0  0  0
 27 24  1  0  0  0  0
 31 30  1  1  0  0  0
 31 29  1  0  0  0  0
 32 33  2  0  0  0  0
 32 34  1  0  0  0  0
 34 35  1  0  0  0  0
 35 36  1  0  0  0  0
 36 37  1  0  0  0  0
M  END
>  <MODEL>
3

>  <REMARK>
 VINA RESULT:      -5.2      4.993      8.555
  Name = 
  6 active torsions:
  status: ('A' for Active; 'I' for Inactive)
    1  A    between atoms: C_1  and  C_12
    2  A    between atoms: O_5  and  C_12
    3  A    between atoms: O_5  and  C_26
    4  A    between atoms: C_8  and  C_19
    5  A    between atoms: C_10  and  C_14
    6  A    between atoms: C_11  and  C_26
                            x       y       z     vdW  Elec       q    Type
                         _______ _______ _______ _____ _____    ______ ____

>  <TORSDO>
F 6

$$$$
=
 OpenBabel10272415073D

 37 40  0  0  1  0  0  0  0  0999 V2000
  188.5760  172.8120  135.2060 C   0  0  1  0  0  3  0  0  0  0  0  0
  193.6710  176.1050  134.7440 C   0  0  0  0  0  2  0  0  0  0  0  0
  192.1390  176.1690  134.7420 C   0  0  0  0  0  2  0  0  0  0  0  0
  191.8420  175.5920  137.0370 C   0  0  0  0  0  2  0  0  0  0  0  0
  187.9400  177.6210  137.8730 C   0  0  2  0  0  3  0  0  0  0  0  0
  191.5250  175.2030  135.6670 N   0  0  2  0  0  0  0  0  0  0  0  0
  190.6880  175.2270  137.9650 C   0  0  0  0  0  2  0  0  0  0  0  0
  191.9600  173.8060  135.4530 C   0  0  1  0  0  3  0  0  0  0  0  0
  190.7920  172.9640  134.9660 C   0  0  0  0  0  2  0  0  0  0  0  0
  191.1680  177.1070  139.5810 C   0  0  0  0  0  1  0  0  0  0  0  0
  187.9830  174.1500  134.7440 C   0  0  0  0  0  2  0  0  0  0  0  0
  190.1210  176.4330  138.7120 C   0  0  1  0  0  3  0  0  0  0  0  0
  189.7690  172.9780  135.9180 O   0  0  0  0  0  0  0  0  0  0  0  0
  188.2370  175.2650  135.7450 C   0  0  2  0  0  3  0  0  0  0  0  0
  190.0850  178.0760  137.0110 O   0  0  0  0  0  0  0  0  0  0  0  0
  187.1610  176.3080  137.7220 C   0  0  0  0  0  2  0  0  0  0  0  0
  194.2140  174.6750  134.8070 C   0  0  0  0  0  2  0  0  0  0  0  0
  193.1350  173.6520  134.4800 C   0  0  0  0  0  2  0  0  0  0  0  0
  186.9270  175.8040  136.2890 C   0  0  1  0  0  3  0  0  0  0  0  0
  187.6830  176.5640  135.2060 C   0  0  0  0  0  2  0  0  0  0  0  0
  189.4330  177.4150  137.8050 C   0  0  0  0  0  0  0  0  0  0  0  0
  185.9690  178.3360  139.3610 C   0  0  2  0  0  3  0  0  0  0  0  0
  186.3780  178.2080  141.7450 O   0  0  0  0  0  0  0  0  0  0  0  0
  188.2940  177.9820  140.3350 C   0  0  0  0  0  2  0  0  0  0  0  0
  185.6250  178.8770  140.7630 C   0  0  2  0  0  3  0  0  0  0  0  0
  187.4870  178.4130  139.1080 C   0  0  1  0  0  3  0  0  0  0  0  0
  187.7070  178.6280  141.5850 C   0  0  0  0  0  2  0  0  0  0  0  0
  185.2990  179.0670  138.3960 F   0  0  0  0  0  0  0  0  0  0  0  0
  183.5980  177.5960  140.5410 O   0  0  0  0  0  1  0  0  0  0  0  0
  183.8690  178.7890  142.5950 C   0  0  0  0  0  1  0  0  0  0  0  0
  184.1340  178.7580  141.0970 C   0  0  1  0  0  3  0  0  0  0  0  0
  187.6010  172.0330  136.0310 C   0  0  0  0  0  0  0  0  0  0  0  0
  187.7400  172.0030  137.2800 O   0  0  0  0  0  0  0  0  0  0  0  0
  186.5160  171.4060  135.4300 O   0  0  0  0  0  0  0  0  0  0  0  0
  185.2180  171.4310  136.0050 C   0  0  0  0  0  2  0  0  0  0  0  0
  184.6620  172.8400  135.9440 C   0  0  0  0  0  2  0  0  0  0  0  0
  184.3670  173.3440  137.3470 C   0  0  0  0  0  1  0  0  0  0  0  0
  1 13  1  0  0  0  0
  1 32  1  1  0  0  0
  2 17  1  0  0  0  0
  3  2  1  0  0  0  0
  4  7  1  0  0  0  0
  5 16  1  1  0  0  0
  5 26  1  0  0  0  0
  6  3  1  6  0  0  0
  6  4  1  0  0  0  0
  7 12  1  0  0  0  0
  8 18  1  6  0  0  0
  8  6  1  0  0  0  0
  9  8  1  0  0  0  0
  9 13  1  0  0  0  0
 11  1  1  0  0  0  0
 12 10  1  6  0  0  0
 14 11  1  6  0  0  0
 14 19  1  0  0  0  0
 15 21  2  0  0  0  0
 18 17  1  0  0  0  0
 19 20  1  6  0  0  0
 19 16  1  0  0  0  0
 20 14  1  0  0  0  0
 21  5  1  0  0  0  0
 21 12  1  0  0  0  0
 22 28  1  6  0  0  0
 22 25  1  0  0  0  0
 24 27  1  0  0  0  0
 25 31  1  1  0  0  0
 25 23  1  0  0  0  0
 26 22  1  0  0  0  0
 26 24  1  1  0  0  0
 27 23  1  0  0  0  0
 29 31  1  0  0  0  0
 31 30  1  1  0  0  0
 32 33  2  0  0  0  0
 34 35  1  0  0  0  0
 34 32  1  0  0  0  0
 36 35  1  0  0  0  0
 36 37  1  0  0  0  0
M  END
>  <MODEL>
4

>  <REMARK>
 VINA RESULT:      -5.2      4.612      9.313
  Name = 
  6 active torsions:
  status: ('A' for Active; 'I' for Inactive)
    1  A    between atoms: C_1  and  C_12
    2  A    between atoms: O_5  and  C_12
    3  A    between atoms: O_5  and  C_26
    4  A    between atoms: C_8  and  C_19
    5  A    between atoms: C_10  and  C_14
    6  A    between atoms: C_11  and  C_26
                            x       y       z     vdW  Elec       q    Type
                         _______ _______ _______ _____ _____    ______ ____

>  <TORSDO>
F 6

$$$$
=
 OpenBabel10272415073D

 37 40  0  0  1  0  0  0  0  0999 V2000
  190.4710  177.2490  141.6240 C   0  0  1  0  0  3  0  0  0  0  0  0
  188.1580  178.2970  136.0950 C   0  0  0  0  0  2  0  0  0  0  0  0
  189.4440  178.2920  136.9290 C   0  0  0  0  0  2  0  0  0  0  0  0
  189.5520  175.9310  137.2460 C   0  0  0  0  0  2  0  0  0  0  0  0
  193.9670  175.3940  137.7530 C   0  0  2  0  0  3  0  0  0  0  0  0
  189.4720  177.2160  137.9320 N   0  0  2  0  0  0  0  0  0  0  0  0
  190.3640  174.9430  138.0770 C   0  0  0  0  0  2  0  0  0  0  0  0
  188.3000  177.2050  138.8340 C   0  0  1  0  0  3  0  0  0  0  0  0
  188.7300  177.5350  140.2530 C   0  0  0  0  0  2  0  0  0  0  0  0
  191.1850  173.6610  136.0630 C   0  0  0  0  0  1  0  0  0  0  0  0
  191.6810  177.9170  140.9540 C   0  0  0  0  0  2  0  0  0  0  0  0
  191.5790  174.3970  137.3320 C   0  0  1  0  0  3  0  0  0  0  0  0
  189.6530  176.5870  140.7010 O   0  0  0  0  0  0  0  0  0  0  0  0
  192.1970  177.1130  139.7720 C   0  0  2  0  0  3  0  0  0  0  0  0
  192.4030  176.3420  136.2680 O   0  0  0  0  0  0  0  0  0  0  0  0
  193.8390  175.3200  139.2810 C   0  0  0  0  0  2  0  0  0  0  0  0
  186.9020  178.0080  136.9220 C   0  0  0  0  0  2  0  0  0  0  0  0
  187.1700  178.1530  138.4140 C   0  0  0  0  0  2  0  0  0  0  0  0
  193.6200  176.6500  140.0200 C   0  0  1  0  0  3  0  0  0  0  0  0
  193.3460  177.8500  139.1230 C   0  0  0  0  0  2  0  0  0  0  0  0
  192.6260  175.4430  137.0650 C   0  0  0  0  0  0  0  0  0  0  0  0
  196.0820  174.8530  136.3960 C   0  0  2  0  0  3  0  0  0  0  0  0
  197.5240  173.1630  137.3630 O   0  0  0  0  0  0  0  0  0  0  0  0
  195.3560  173.3840  138.3430 C   0  0  0  0  0  2  0  0  0  0  0  0
  197.1300  173.7490  136.1460 C   0  0  2  0  0  3  0  0  0  0  0  0
  194.8950  174.2990  137.2070 C   0  0  1  0  0  3  0  0  0  0  0  0
  196.4230  172.4260  137.8270 C   0  0  0  0  0  2  0  0  0  0  0  0
  195.6280  175.3530  135.1890 F   0  0  0  0  0  0  0  0  0  0  0  0
  198.6460  175.5810  135.7670 O   0  0  0  0  0  1  0  0  0  0  0  0
  199.5920  173.3880  135.6410 C   0  0  0  0  0  1  0  0  0  0  0  0
  198.3690  174.2620  135.4050 C   0  0  1  0  0  3  0  0  0  0  0  0
  190.8910  176.2980  142.6980 C   0  0  0  0  0  0  0  0  0  0  0  0
  190.4300  175.1290  142.6990 O   0  0  0  0  0  0  0  0  0  0  0  0
  191.8320  176.6820  143.6470 O   0  0  0  0  0  0  0  0  0  0  0  0
  191.5610  176.6330  145.0400 C   0  0  0  0  0  2  0  0  0  0  0  0
  190.4330  177.5910  145.3720 C   0  0  0  0  0  2  0  0  0  0  0  0
  189.7810  177.1920  146.6850 C   0  0  0  0  0  1  0  0  0  0  0  0
  1 32  1  1  0  0  0
  2 17  1  0  0  0  0
  2  3  1  0  0  0  0
  4  6  1  0  0  0  0
  4  7  1  0  0  0  0
  5 16  1  1  0  0  0
  6  3  1  6  0  0  0
  6  8  1  0  0  0  0
  8 18  1  6  0  0  0
  8  9  1  0  0  0  0
  9 13  1  0  0  0  0
 11  1  1  0  0  0  0
 12 10  1  6  0  0  0
 12  7  1  0  0  0  0
 13  1  1  0  0  0  0
 14 20  1  6  0  0  0
 14 19  1  0  0  0  0
 14 11  1  0  0  0  0
 15 21  2  0  0  0  0
 16 19  1  0  0  0  0
 17 18  1  0  0  0  0
 19 20  1  6  0  0  0
 21 12  1  0  0  0  0
 21  5  1  0  0  0  0
 22 28  1  6  0  0  0
 22 26  1  0  0  0  0
 23 27  1  0  0  0  0
 25 31  1  1  0  0  0
 25 22  1  0  0  0  0
 25 23  1  0  0  0  0
 26  5  1  0  0  0  0
 26 24  1  1  0  0  0
 27 24  1  0  0  0  0
 31 30  1  1  0  0  0
 31 29  1  0  0  0  0
 32 33  2  0  0  0  0
 32 34  1  0  0  0  0
 34 35  1  0  0  0  0
 35 36  1  0  0  0  0
 36 37  1  0  0  0  0
M  END
>  <MODEL>
5

>  <REMARK>
 VINA RESULT:      -5.2      4.280      8.240
  Name = 
  6 active torsions:
  status: ('A' for Active; 'I' for Inactive)
    1  A    between atoms: C_1  and  C_12
    2  A    between atoms: O_5  and  C_12
    3  A    between atoms: O_5  and  C_26
    4  A    between atoms: C_8  and  C_19
    5  A    between atoms: C_10  and  C_14
    6  A    between atoms: C_11  and  C_26
                            x       y       z     vdW  Elec       q    Type
                         _______ _______ _______ _____ _____    ______ ____

>  <TORSDO>
F 6

$$$$
=
 OpenBabel10272415073D

 37 40  0  0  1  0  0  0  0  0999 V2000
  183.2090  176.8230  137.7780 C   0  0  1  0  0  3  0  0  0  0  0  0
  183.2340  171.4910  134.8480 C   0  0  0  0  0  2  0  0  0  0  0  0
  183.6790  172.9560  134.7770 C   0  0  0  0  0  2  0  0  0  0  0  0
  185.2850  172.8360  136.5360 C   0  0  0  0  0  2  0  0  0  0  0  0
  188.0930  176.0870  135.2790 C   0  0  2  0  0  3  0  0  0  0  0  0
  184.0660  173.5010  136.0880 N   0  0  2  0  0  0  0  0  0  0  0  0
  186.1430  173.8040  137.3450 C   0  0  0  0  0  2  0  0  0  0  0  0
  183.0280  173.3520  137.1310 C   0  0  1  0  0  3  0  0  0  0  0  0
  182.5020  174.7160  137.5430 C   0  0  0  0  0  2  0  0  0  0  0  0
  188.3140  172.6900  136.6970 C   0  0  0  0  0  1  0  0  0  0  0  0
  183.7170  177.2800  136.4030 C   0  0  0  0  0  2  0  0  0  0  0  0
  187.5380  173.9950  136.7580 C   0  0  1  0  0  3  0  0  0  0  0  0
  183.5460  175.4930  138.0520 O   0  0  0  0  0  0  0  0  0  0  0  0
  185.0480  176.6400  136.0430 C   0  0  2  0  0  3  0  0  0  0  0  0
  187.0700  174.1360  134.4430 O   0  0  0  0  0  0  0  0  0  0  0  0
  187.4780  177.0800  136.2740 C   0  0  0  0  0  2  0  0  0  0  0  0
  182.3700  171.1820  136.0750 C   0  0  0  0  0  2  0  0  0  0  0  0
  181.8500  172.4560  136.7270 C   0  0  0  0  0  2  0  0  0  0  0  0
  186.1240  177.6980  135.8860 C   0  0  1  0  0  3  0  0  0  0  0  0
  185.4630  177.0830  134.6590 C   0  0  0  0  0  2  0  0  0  0  0  0
  187.5260  174.6980  135.4280 C   0  0  0  0  0  0  0  0  0  0  0  0
  190.2080  176.2900  136.7270 C   0  0  2  0  0  3  0  0  0  0  0  0
  191.9920  174.7510  136.1670 O   0  0  0  0  0  0  0  0  0  0  0  0
  190.2010  174.9040  134.5920 C   0  0  0  0  0  2  0  0  0  0  0  0
  191.7250  176.0130  136.7270 C   0  0  2  0  0  3  0  0  0  0  0  0
  189.6280  176.1290  135.3080 C   0  0  1  0  0  3  0  0  0  0  0  0
  191.7110  174.8540  134.7960 C   0  0  0  0  0  2  0  0  0  0  0  0
  189.9630  177.5720  137.1860 F   0  0  0  0  0  0  0  0  0  0  0  0
  193.4650  176.9180  138.1240 O   0  0  0  0  0  1  0  0  0  0  0  0
  191.3480  176.5620  139.1780 C   0  0  0  0  0  1  0  0  0  0  0  0
  192.3430  176.0890  138.1280 C   0  0  1  0  0  3  0  0  0  0  0  0
  183.7130  177.7070  138.8740 C   0  0  0  0  0  0  0  0  0  0  0  0
  184.3690  178.7380  138.5780 O   0  0  0  0  0  0  0  0  0  0  0  0
  183.4040  177.4270  140.2000 O   0  0  0  0  0  0  0  0  0  0  0  0
  183.4240  178.4300  141.2050 C   0  0  0  0  0  2  0  0  0  0  0  0
  184.5520  178.1520  142.1800 C   0  0  0  0  0  2  0  0  0  0  0  0
  185.7330  179.0600  141.8820 C   0  0  0  0  0  1  0  0  0  0  0  0
  1 13  1  0  0  0  0
  1 32  1  1  0  0  0
  2 17  1  0  0  0  0
  3  2  1  0  0  0  0
  4  7  1  0  0  0  0
  5 26  1  0  0  0  0
  5 21  1  0  0  0  0
  5 16  1  1  0  0  0
  6  3  1  6  0  0  0
  6  4  1  0  0  0  0
  6  8  1  0  0  0  0
  8 18  1  6  0  0  0
  8  9  1  0  0  0  0
  9 13  1  0  0  0  0
 11  1  1  0  0  0  0
 12 10  1  6  0  0  0
 12  7  1  0  0  0  0
 14 20  1  6  0  0  0
 14 11  1  0  0  0  0
 15 21  2  0  0  0  0
 17 18  1  0  0  0  0
 19 20  1  6  0  0  0
 19 14  1  0  0  0  0
 19 16  1  0  0  0  0
 21 12  1  0  0  0  0
 22 25  1  0  0  0  0
 22 28  1  6  0  0  0
 23 25  1  0  0  0  0
 24 27  1  0  0  0  0
 25 31  1  1  0  0  0
 26 24  1  1  0  0  0
 26 22  1  0  0  0  0
 27 23  1  0  0  0  0
 29 31  1  0  0  0  0
 31 30  1  1  0  0  0
 32 34  1  0  0  0  0
 33 32  2  0  0  0  0
 34 35  1  0  0  0  0
 35 36  1  0  0  0  0
 37 36  1  0  0  0  0
M  END
>  <MODEL>
6

>  <REMARK>
 VINA RESULT:      -5.2      5.321      8.948
  Name = 
  6 active torsions:
  status: ('A' for Active; 'I' for Inactive)
    1  A    between atoms: C_1  and  C_12
    2  A    between atoms: O_5  and  C_12
    3  A    between atoms: O_5  and  C_26
    4  A    between atoms: C_8  and  C_19
    5  A    between atoms: C_10  and  C_14
    6  A    between atoms: C_11  and  C_26
                            x       y       z     vdW  Elec       q    Type
                         _______ _______ _______ _____ _____    ______ ____

>  <TORSDO>
F 6

$$$$
=
 OpenBabel10272415073D

 37 40  0  0  1  0  0  0  0  0999 V2000
  190.5260  177.4130  139.9770 C   0  0  1  0  0  3  0  0  0  0  0  0
  187.3460  177.5230  134.7910 C   0  0  0  0  0  2  0  0  0  0  0  0
  188.7570  177.4770  135.3890 C   0  0  0  0  0  2  0  0  0  0  0  0
  188.5910  175.2830  136.3070 C   0  0  0  0  0  2  0  0  0  0  0  0
  192.8980  174.0670  136.2590 C   0  0  2  0  0  3  0  0  0  0  0  0
  188.8290  176.6860  136.6280 N   0  0  2  0  0  0  0  0  0  0  0  0
  189.4020  174.3880  137.2390 C   0  0  0  0  0  2  0  0  0  0  0  0
  187.8660  177.1100  137.6670 C   0  0  1  0  0  3  0  0  0  0  0  0
  188.6080  177.6840  138.8630 C   0  0  0  0  0  2  0  0  0  0  0  0
  189.6230  172.5320  135.5430 C   0  0  0  0  0  1  0  0  0  0  0  0
  191.6630  177.6630  138.9760 C   0  0  0  0  0  2  0  0  0  0  0  0
  190.3580  173.4620  136.4910 C   0  0  1  0  0  3  0  0  0  0  0  0
  189.4590  176.7140  139.4020 O   0  0  0  0  0  0  0  0  0  0  0  0
  191.8190  176.5180  137.9880 C   0  0  2  0  0  3  0  0  0  0  0  0
  191.2240  174.9080  134.8310 O   0  0  0  0  0  0  0  0  0  0  0  0
  193.0630  174.3860  137.7510 C   0  0  0  0  0  2  0  0  0  0  0  0
  186.2490  177.6790  135.8480 C   0  0  0  0  0  2  0  0  0  0  0  0
  186.8210  178.1240  137.1860 C   0  0  0  0  0  2  0  0  0  0  0  0
  193.1830  175.8710  138.1310 C   0  0  1  0  0  3  0  0  0  0  0  0
  192.9110  176.8510  136.9970 C   0  0  0  0  0  2  0  0  0  0  0  0
  191.4690  174.2010  135.7970 C   0  0  0  0  0  0  0  0  0  0  0  0
  194.4890  172.1780  136.9750 C   0  0  2  0  0  3  0  0  0  0  0  0
  193.6780  169.9340  136.5580 O   0  0  0  0  0  0  0  0  0  0  0  0
  192.4510  171.7050  135.5250 C   0  0  0  0  0  2  0  0  0  0  0  0
  194.8470  170.7050  136.6950 C   0  0  2  0  0  3  0  0  0  0  0  0
  193.5370  172.7200  135.8910 C   0  0  1  0  0  3  0  0  0  0  0  0
  193.0790  170.3260  135.3520 C   0  0  0  0  0  2  0  0  0  0  0  0
  195.6410  172.9450  137.0080 F   0  0  0  0  0  0  0  0  0  0  0  0
  194.9940  169.8390  138.9370 O   0  0  0  0  0  1  0  0  0  0  0  0
  196.4290  168.8180  137.3180 C   0  0  0  0  0  1  0  0  0  0  0  0
  195.7360  170.0910  137.7830 C   0  0  1  0  0  3  0  0  0  0  0  0
  191.0100  176.6850  141.1900 C   0  0  0  0  0  0  0  0  0  0  0  0
  192.1500  176.9490  141.6510 O   0  0  0  0  0  0  0  0  0  0  0  0
  190.1840  175.7750  141.8390 O   0  0  0  0  0  0  0  0  0  0  0  0
  189.6720  176.0180  143.1410 C   0  0  0  0  0  2  0  0  0  0  0  0
  188.2970  176.6480  143.0380 C   0  0  0  0  0  2  0  0  0  0  0  0
  187.9410  177.3370  144.3440 C   0  0  0  0  0  1  0  0  0  0  0  0
  1 32  1  1  0  0  0
  2  3  1  0  0  0  0
  2 17  1  0  0  0  0
  4  6  1  0  0  0  0
  4  7  1  0  0  0  0
  5 16  1  1  0  0  0
  6  3  1  6  0  0  0
  6  8  1  0  0  0  0
  8 18  1  6  0  0  0
  8  9  1  0  0  0  0
  9 13  1  0  0  0  0
 11  1  1  0  0  0  0
 12 10  1  6  0  0  0
 12  7  1  0  0  0  0
 13  1  1  0  0  0  0
 14 20  1  6  0  0  0
 14 19  1  0  0  0  0
 14 11  1  0  0  0  0
 15 21  2  0  0  0  0
 16 19  1  0  0  0  0
 17 18  1  0  0  0  0
 19 20  1  6  0  0  0
 21  5  1  0  0  0  0
 21 12  1  0  0  0  0
 22 28  1  6  0  0  0
 23 25  1  0  0  0  0
 25 22  1  0  0  0  0
 25 31  1  1  0  0  0
 26 24  1  1  0  0  0
 26  5  1  0  0  0  0
 26 22  1  0  0  0  0
 27 24  1  0  0  0  0
 27 23  1  0  0  0  0
 31 30  1  6  0  0  0
 31 29  1  0  0  0  0
 32 33  2  0  0  0  0
 32 34  1  0  0  0  0
 34 35  1  0  0  0  0
 36 35  1  0  0  0  0
 36 37  1  0  0  0  0
M  END
>  <MODEL>
7

>  <REMARK>
 VINA RESULT:      -4.9      4.305      8.802
  Name = 
  6 active torsions:
  status: ('A' for Active; 'I' for Inactive)
    1  A    between atoms: C_1  and  C_12
    2  A    between atoms: O_5  and  C_12
    3  A    between atoms: O_5  and  C_26
    4  A    between atoms: C_8  and  C_19
    5  A    between atoms: C_10  and  C_14
    6  A    between atoms: C_11  and  C_26
                            x       y       z     vdW  Elec       q    Type
                         _______ _______ _______ _____ _____    ______ ____

>  <TORSDO>
F 6

$$$$
=
 OpenBabel10272415073D

 37 40  0  0  1  0  0  0  0  0999 V2000
  190.6420  177.3620  139.9150 C   0  0  1  0  0  3  0  0  0  0  0  0
  188.1880  177.2440  134.3490 C   0  0  0  0  0  2  0  0  0  0  0  0
  189.5060  177.2870  135.1310 C   0  0  0  0  0  2  0  0  0  0  0  0
  189.3460  175.0930  136.0520 C   0  0  0  0  0  2  0  0  0  0  0  0
  193.6850  174.1390  136.5990 C   0  0  2  0  0  3  0  0  0  0  0  0
  189.4560  176.5100  136.3800 N   0  0  2  0  0  0  0  0  0  0  0  0
  190.0760  174.2560  137.0970 C   0  0  0  0  0  2  0  0  0  0  0  0
  188.3390  176.8830  137.2750 C   0  0  1  0  0  3  0  0  0  0  0  0
  188.8790  177.5090  138.5500 C   0  0  0  0  0  2  0  0  0  0  0  0
  190.6320  172.4040  135.4730 C   0  0  0  0  0  1  0  0  0  0  0  0
  191.8870  177.6730  139.0710 C   0  0  0  0  0  2  0  0  0  0  0  0
  191.1760  173.3840  136.4970 C   0  0  1  0  0  3  0  0  0  0  0  0
  189.7040  176.5960  139.2130 O   0  0  0  0  0  0  0  0  0  0  0  0
  192.2410  176.5320  138.1310 C   0  0  2  0  0  3  0  0  0  0  0  0
  192.1710  174.8670  134.9460 O   0  0  0  0  0  0  0  0  0  0  0  0
  193.6290  174.4770  138.0940 C   0  0  0  0  0  2  0  0  0  0  0  0
  186.9510  177.3420  135.2470 C   0  0  0  0  0  2  0  0  0  0  0  0
  187.3110  177.8290  136.6430 C   0  0  0  0  0  2  0  0  0  0  0  0
  193.6090  175.9690  138.4640 C   0  0  1  0  0  3  0  0  0  0  0  0
  193.4340  176.9230  137.2900 C   0  0  0  0  0  2  0  0  0  0  0  0
  192.3260  174.1830  135.9470 C   0  0  0  0  0  0  0  0  0  0  0  0
  195.8160  173.0410  135.6680 C   0  0  2  0  0  3  0  0  0  0  0  0
  196.7560  171.2840  137.0450 O   0  0  0  0  0  0  0  0  0  0  0  0
  194.5620  172.0230  137.6350 C   0  0  0  0  0  2  0  0  0  0  0  0
  196.6510  171.7460  135.7200 C   0  0  2  0  0  3  0  0  0  0  0  0
  194.4450  172.8290  136.3400 C   0  0  1  0  0  3  0  0  0  0  0  0
  195.4810  170.8280  137.4120 C   0  0  0  0  0  2  0  0  0  0  0  0
  195.6340  173.4320  134.3540 F   0  0  0  0  0  0  0  0  0  0  0  0
  198.8720  172.6290  136.0100 O   0  0  0  0  0  1  0  0  0  0  0  0
  198.7040  170.5900  134.7720 C   0  0  0  0  0  1  0  0  0  0  0  0
  198.0550  171.9200  135.1300 C   0  0  1  0  0  3  0  0  0  0  0  0
  191.0010  176.6730  141.1920 C   0  0  0  0  0  0  0  0  0  0  0  0
  192.1190  176.9010  141.7210 O   0  0  0  0  0  0  0  0  0  0  0  0
  190.0830  175.8410  141.8230 O   0  0  0  0  0  0  0  0  0  0  0  0
  189.7180  176.0170  143.1840 C   0  0  0  0  0  2  0  0  0  0  0  0
  188.8540  177.2560  143.3230 C   0  0  0  0  0  2  0  0  0  0  0  0
  187.5690  176.9150  144.0580 C   0  0  0  0  0  1  0  0  0  0  0  0
  1 32  1  1  0  0  0
  2  3  1  0  0  0  0
  2 17  1  0  0  0  0
  4  6  1  0  0  0  0
  4  7  1  0  0  0  0
  5 16  1  1  0  0  0
  6  3  1  6  0  0  0
  6  8  1  0  0  0  0
  8 18  1  6  0  0  0
  8  9  1  0  0  0  0
  9 13  1  0  0  0  0
 11  1  1  0  0  0  0
 12 10  1  6  0  0  0
 12  7  1  0  0  0  0
 13  1  1  0  0  0  0
 14 20  1  6  0  0  0
 14 19  1  0  0  0  0
 14 11  1  0  0  0  0
 15 21  2  0  0  0  0
 16 19  1  0  0  0  0
 17 18  1  0  0  0  0
 19 20  1  6  0  0  0
 21 12  1  0  0  0  0
 21  5  1  0  0  0  0
 22 28  1  6  0  0  0
 22 25  1  0  0  0  0
 22 26  1  0  0  0  0
 23 27  1  0  0  0  0
 25 31  1  1  0  0  0
 25 23  1  0  0  0  0
 26  5  1  0  0  0  0
 26 24  1  1  0  0  0
 27 24  1  0  0  0  0
 31 30  1  1  0  0  0
 31 29  1  0  0  0  0
 32 33  2  0  0  0  0
 32 34  1  0  0  0  0
 34 35  1  0  0  0  0
 35 36  1  0  0  0  0
 36 37  1  0  0  0  0
M  END
>  <MODEL>
8

>  <REMARK>
 VINA RESULT:      -4.8      4.707      9.090
  Name = 
  6 active torsions:
  status: ('A' for Active; 'I' for Inactive)
    1  A    between atoms: C_1  and  C_12
    2  A    between atoms: O_5  and  C_12
    3  A    between atoms: O_5  and  C_26
    4  A    between atoms: C_8  and  C_19
    5  A    between atoms: C_10  and  C_14
    6  A    between atoms: C_11  and  C_26
                            x       y       z     vdW  Elec       q    Type
                         _______ _______ _______ _____ _____    ______ ____

>  <TORSDO>
F 6

$$$$
=
 OpenBabel10272415073D

 37 40  0  0  1  0  0  0  0  0999 V2000
  190.3960  177.2160  141.6110 C   0  0  1  0  0  3  0  0  0  0  0  0
  188.2080  178.1980  136.0190 C   0  0  0  0  0  2  0  0  0  0  0  0
  189.4640  178.2570  136.8960 C   0  0  0  0  0  2  0  0  0  0  0  0
  189.6990  175.9030  137.1900 C   0  0  0  0  0  2  0  0  0  0  0  0
  194.1190  175.6150  137.8400 C   0  0  2  0  0  3  0  0  0  0  0  0
  189.5220  177.1710  137.8870 N   0  0  2  0  0  0  0  0  0  0  0  0
  190.5400  174.9530  138.0370 C   0  0  0  0  0  2  0  0  0  0  0  0
  188.3230  177.0810  138.7490 C   0  0  1  0  0  3  0  0  0  0  0  0
  188.6860  177.4180  140.1850 C   0  0  0  0  0  2  0  0  0  0  0  0
  191.5000  173.7460  136.0390 C   0  0  0  0  0  1  0  0  0  0  0  0
  191.5860  177.9610  140.9890 C   0  0  0  0  0  2  0  0  0  0  0  0
  191.8080  174.4870  137.3270 C   0  0  1  0  0  3  0  0  0  0  0  0
  189.6490  176.5200  140.6540 O   0  0  0  0  0  0  0  0  0  0  0  0
  192.1860  177.2030  139.8160 C   0  0  2  0  0  3  0  0  0  0  0  0
  192.5520  176.4900  136.3120 O   0  0  0  0  0  0  0  0  0  0  0  0
  193.9450  175.5150  139.3610 C   0  0  0  0  0  2  0  0  0  0  0  0
  186.9450  177.8260  136.8000 C   0  0  0  0  0  2  0  0  0  0  0  0
  187.1550  177.9680  138.3010 C   0  0  0  0  0  2  0  0  0  0  0  0
  193.6250  176.8200  140.1070 C   0  0  1  0  0  3  0  0  0  0  0  0
  193.3110  178.0140  139.2140 C   0  0  0  0  0  2  0  0  0  0  0  0
  192.8010  175.5960  137.1080 C   0  0  0  0  0  0  0  0  0  0  0  0
  194.7590  173.1310  137.6730 C   0  0  2  0  0  3  0  0  0  0  0  0
  195.5100  172.4040  135.4870 O   0  0  0  0  0  0  0  0  0  0  0  0
  195.3270  174.7650  135.8060 C   0  0  0  0  0  2  0  0  0  0  0  0
  195.6180  172.1370  136.8640 C   0  0  2  0  0  3  0  0  0  0  0  0
  195.1270  174.5830  137.3130 C   0  0  1  0  0  3  0  0  0  0  0  0
  196.1730  173.6200  135.2620 C   0  0  0  0  0  2  0  0  0  0  0  0
  194.9500  172.9250  139.0270 F   0  0  0  0  0  0  0  0  0  0  0  0
  195.2730  170.4020  138.4970 O   0  0  0  0  0  1  0  0  0  0  0  0
  193.8850  170.3070  136.5520 C   0  0  0  0  0  1  0  0  0  0  0  0
  195.2450  170.6750  137.1300 C   0  0  1  0  0  3  0  0  0  0  0  0
  190.8350  176.2780  142.6880 C   0  0  0  0  0  0  0  0  0  0  0  0
  190.3500  175.1180  142.7280 O   0  0  0  0  0  0  0  0  0  0  0  0
  191.8170  176.6600  143.5940 O   0  0  0  0  0  0  0  0  0  0  0  0
  191.5300  176.8810  144.9670 C   0  0  0  0  0  2  0  0  0  0  0  0
  190.3430  177.8160  145.0950 C   0  0  0  0  0  2  0  0  0  0  0  0
  189.2750  177.1840  145.9720 C   0  0  0  0  0  1  0  0  0  0  0  0
  1 32  1  1  0  0  0
  2 17  1  0  0  0  0
  2  3  1  0  0  0  0
  4  6  1  0  0  0  0
  4  7  1  0  0  0  0
  5 16  1  1  0  0  0
  6  3  1  6  0  0  0
  6  8  1  0  0  0  0
  8 18  1  6  0  0  0
  8  9  1  0  0  0  0
  9 13  1  0  0  0  0
 11  1  1  0  0  0  0
 12 10  1  6  0  0  0
 12  7  1  0  0  0  0
 13  1  1  0  0  0  0
 14 20  1  6  0  0  0
 14 19  1  0  0  0  0
 14 11  1  0  0  0  0
 15 21  2  0  0  0  0
 16 19  1  0  0  0  0
 17 18  1  0  0  0  0
 19 20  1  6  0  0  0
 21 12  1  0  0  0  0
 21  5  1  0  0  0  0
 22 28  1  1  0  0  0
 23 25  1  0  0  0  0
 25 31  1  6  0  0  0
 25 22  1  0  0  0  0
 26 24  1  6  0  0  0
 26 22  1  0  0  0  0
 26  5  1  0  0  0  0
 27 23  1  0  0  0  0
 27 24  1  0  0  0  0
 31 30  1  1  0  0  0
 31 29  1  0  0  0  0
 32 33  2  0  0  0  0
 32 34  1  0  0  0  0
 34 35  1  0  0  0  0
 35 36  1  0  0  0  0
 36 37  1  0  0  0  0
M  END
>  <MODEL>
9

>  <REMARK>
 VINA RESULT:      -4.7      3.872      7.992
  Name = 
  6 active torsions:
  status: ('A' for Active; 'I' for Inactive)
    1  A    between atoms: C_1  and  C_12
    2  A    between atoms: O_5  and  C_12
    3  A    between atoms: O_5  and  C_26
    4  A    between atoms: C_8  and  C_19
    5  A    between atoms: C_10  and  C_14
    6  A    between atoms: C_11  and  C_26
                            x       y       z     vdW  Elec       q    Type
                         _______ _______ _______ _____ _____    ______ ____

>  <TORSDO>
F 6

$$$$
