=
 OpenBabel10272400503D

 25 28  0  0  0  0  0  0  0  0999 V2000
  187.5530  177.7850  145.7350 C   0  0  0  0  0  0  0  0  0  0  0  0
  188.8670  177.3190  145.5550 C   0  0  0  0  0  0  0  0  0  0  0  0
  187.8920  177.9260  148.1480 C   0  0  0  0  0  3  0  0  0  0  0  0
  186.5710  178.0140  144.7560 C   0  0  0  0  0  0  0  0  0  0  0  0
  184.3830  178.5800  143.1130 C   0  0  0  0  0  3  0  0  0  0  0  0
  189.2020  177.4610  147.9770 C   0  0  0  0  0  3  0  0  0  0  0  0
  185.3720  178.4790  145.2950 C   0  0  0  0  0  0  0  0  0  0  0  0
  184.2670  178.7680  144.4990 C   0  0  0  0  0  3  0  0  0  0  0  0
  191.0030  176.6850  146.4930 C   0  0  0  0  0  0  0  0  0  0  0  0
  191.9430  176.4780  147.6340 C   0  0  0  0  0  1  0  0  0  0  0  0
  189.3510  177.0230  144.3210 N   0  0  0  0  0  0  0  0  0  0  0  0
  185.5860  178.1110  142.5550 C   0  0  0  0  0  3  0  0  0  0  0  0
  187.0930  178.0780  147.0200 C   0  0  0  0  0  0  0  0  0  0  0  0
  185.4950  178.6160  146.9690 S   0  0  0  0  0  0  0  0  0  0  0  0
  191.4320  176.4040  145.2340 N   0  0  0  0  0  0  0  0  0  0  0  0
  186.6890  177.8250  143.3750 C   0  0  0  0  0  3  0  0  0  0  0  0
  190.6230  176.5760  144.1550 C   0  0  0  0  0  0  0  0  0  0  0  0
  189.6970  177.1560  146.6920 C   0  0  0  0  0  0  0  0  0  0  0  0
  191.1190  176.2340  142.7950 C   0  0  0  0  0  2  0  0  0  0  0  0
  191.3700  177.5030  142.0070 C   0  0  0  0  0  2  0  0  0  0  0  0
  190.7650  177.3680  140.6230 C   0  0  0  0  0  2  0  0  0  0  0  0
  189.2530  177.2700  140.7150 C   0  0  0  0  0  2  0  0  0  0  0  0
  188.6010  178.3500  139.8680 C   0  0  0  0  0  2  0  0  0  0  0  0
  189.0110  178.8680  137.3240 C   0  0  0  0  0  1  0  0  0  0  0  0
  188.0670  177.6490  138.2810 S   0  0  0  0  0  0  0  0  0  0  0  0
  1 13  1  0  0  0  0
  2  1  2  0  0  0  0
  2 18  1  0  0  0  0
  4  7  1  0  0  0  0
  4  1  1  0  0  0  0
  5  8  1  0  0  0  0
  6  3  1  0  0  0  0
  7 14  1  0  0  0  0
  8  7  2  0  0  0  0
  9 18  1  0  0  0  0
  9 10  1  0  0  0  0
 11  2  1  0  0  0  0
 12  5  2  0  0  0  0
 12 16  1  0  0  0  0
 13  3  2  0  0  0  0
 14 13  1  0  0  0  0
 15  9  2  0  0  0  0
 16  4  2  0  0  0  0
 17 11  2  0  0  0  0
 17 15  1  0  0  0  0
 18  6  2  0  0  0  0
 19 17  1  0  0  0  0
 20 19  1  0  0  0  0
 21 22  1  0  0  0  0
 21 20  1  0  0  0  0
 23 22  1  0  0  0  0
 24 25  1  0  0  0  0
 25 23  1  0  0  0  0
M  END
>  <MODEL>
1

>  <REMARK>
 VINA RESULT:      -9.2      0.000      0.000
  Name = 
  6 active torsions:
  status: ('A' for Active; 'I' for Inactive)
    1  A    between atoms: C_2  and  S_12
    2  A    between atoms: C_2  and  C_25
    3  A    between atoms: C_6  and  C_15
    4  A    between atoms: C_6  and  C_23
    5  A    between atoms: C_15  and  C_21
    6  A    between atoms: C_21  and  C_25
                            x       y       z     vdW  Elec       q    Type
                         _______ _______ _______ _____ _____    ______ ____

>  <TORSDO>
F 6

$$$$
=
 OpenBabel10272400503D

 25 28  0  0  0  0  0  0  0  0999 V2000
  187.5890  177.8140  145.7290 C   0  0  0  0  0  0  0  0  0  0  0  0
  186.7840  178.1070  144.6140 C   0  0  0  0  0  0  0  0  0  0  0  0
  185.7310  178.2780  147.2430 C   0  0  0  0  0  3  0  0  0  0  0  0
  188.9390  177.4210  145.7460 C   0  0  0  0  0  0  0  0  0  0  0  0
  191.5830  176.6310  146.1780 C   0  0  0  0  0  3  0  0  0  0  0  0
  184.9230  178.5730  146.1370 C   0  0  0  0  0  3  0  0  0  0  0  0
  189.4220  177.2130  147.0370 C   0  0  0  0  0  0  0  0  0  0  0  0
  190.7350  176.8190  147.2800 C   0  0  0  0  0  3  0  0  0  0  0  0
  184.6500  178.7840  143.7020 C   0  0  0  0  0  0  0  0  0  0  0  0
  183.2230  179.2020  143.8330 C   0  0  0  0  0  1  0  0  0  0  0  0
  187.2710  178.0310  143.3480 N   0  0  0  0  0  0  0  0  0  0  0  0
  191.1090  176.8360  144.8700 C   0  0  0  0  0  3  0  0  0  0  0  0
  187.0520  177.9040  147.0140 C   0  0  0  0  0  0  0  0  0  0  0  0
  188.2120  177.5060  148.1720 S   0  0  0  0  0  0  0  0  0  0  0  0
  185.1930  178.6910  142.4590 N   0  0  0  0  0  0  0  0  0  0  0  0
  189.7820  177.2340  144.6460 C   0  0  0  0  0  3  0  0  0  0  0  0
  186.4850  178.3130  142.2770 C   0  0  0  0  0  0  0  0  0  0  0  0
  185.4360  178.4900  144.8260 C   0  0  0  0  0  0  0  0  0  0  0  0
  187.0520  178.2470  140.9030 C   0  0  0  0  0  2  0  0  0  0  0  0
  188.5420  178.5200  140.9490 C   0  0  0  0  0  2  0  0  0  0  0  0
  189.2970  177.2840  140.5000 C   0  0  0  0  0  2  0  0  0  0  0  0
  189.8080  177.4620  139.0820 C   0  0  0  0  0  2  0  0  0  0  0  0
  189.0250  176.5820  138.1230 C   0  0  0  0  0  2  0  0  0  0  0  0
  188.9900  179.0350  137.1780 C   0  0  0  0  0  1  0  0  0  0  0  0
  187.8790  177.6000  137.1480 S   0  0  0  0  0  0  0  0  0  0  0  0
  1  4  1  0  0  0  0
  1 13  2  0  0  0  0
  2 18  2  0  0  0  0
  2  1  1  0  0  0  0
  4  7  1  0  0  0  0
  5  8  1  0  0  0  0
  6  3  2  0  0  0  0
  7  8  2  0  0  0  0
  7 14  1  0  0  0  0
  9 10  1  0  0  0  0
  9 18  1  0  0  0  0
 11  2  1  0  0  0  0
 12  5  2  0  0  0  0
 13  3  1  0  0  0  0
 13 14  1  0  0  0  0
 15  9  2  0  0  0  0
 16 12  1  0  0  0  0
 16  4  2  0  0  0  0
 17 15  1  0  0  0  0
 17 11  2  0  0  0  0
 18  6  1  0  0  0  0
 19 20  1  0  0  0  0
 19 17  1  0  0  0  0
 21 20  1  0  0  0  0
 22 21  1  0  0  0  0
 23 22  1  0  0  0  0
 25 24  1  0  0  0  0
 25 23  1  0  0  0  0
M  END
>  <MODEL>
2

>  <REMARK>
 VINA RESULT:      -8.7      1.626      4.660
  Name = 
  6 active torsions:
  status: ('A' for Active; 'I' for Inactive)
    1  A    between atoms: C_2  and  S_12
    2  A    between atoms: C_2  and  C_25
    3  A    between atoms: C_6  and  C_15
    4  A    between atoms: C_6  and  C_23
    5  A    between atoms: C_15  and  C_21
    6  A    between atoms: C_21  and  C_25
                            x       y       z     vdW  Elec       q    Type
                         _______ _______ _______ _____ _____    ______ ____

>  <TORSDO>
F 6

$$$$
=
 OpenBabel10272400503D

 25 28  0  0  0  0  0  0  0  0999 V2000
  187.1460  177.8730  145.3230 C   0  0  0  0  0  0  0  0  0  0  0  0
  188.4120  177.4460  144.8840 C   0  0  0  0  0  0  0  0  0  0  0  0
  187.8840  177.8020  147.6480 C   0  0  0  0  0  3  0  0  0  0  0  0
  186.0130  178.1720  144.5460 C   0  0  0  0  0  0  0  0  0  0  0  0
  183.5800  178.8470  143.3500 C   0  0  0  0  0  3  0  0  0  0  0  0
  189.1480  177.3750  147.2190 C   0  0  0  0  0  3  0  0  0  0  0  0
  184.9210  178.5670  145.3180 C   0  0  0  0  0  0  0  0  0  0  0  0
  183.6980  178.9090  144.7470 C   0  0  0  0  0  3  0  0  0  0  0  0
  190.6760  176.7660  145.3910 C   0  0  0  0  0  0  0  0  0  0  0  0
  191.7940  176.4730  146.3360 C   0  0  0  0  0  1  0  0  0  0  0  0
  188.6820  177.2700  143.5640 N   0  0  0  0  0  0  0  0  0  0  0  0
  184.6740  178.4510  142.5590 C   0  0  0  0  0  3  0  0  0  0  0  0
  186.9070  178.0420  146.6880 C   0  0  0  0  0  0  0  0  0  0  0  0
  185.3230  178.5560  146.9540 S   0  0  0  0  0  0  0  0  0  0  0  0
  190.8870  176.6070  144.0580 N   0  0  0  0  0  0  0  0  0  0  0  0
  185.8990  178.1100  143.1540 C   0  0  0  0  0  3  0  0  0  0  0  0
  189.9090  176.8610  143.1490 C   0  0  0  0  0  0  0  0  0  0  0  0
  189.4210  177.1960  145.8470 C   0  0  0  0  0  0  0  0  0  0  0  0
  190.1700  176.6510  141.7000 C   0  0  0  0  0  2  0  0  0  0  0  0
  189.0980  177.3400  140.8810 C   0  0  0  0  0  2  0  0  0  0  0  0
  189.4220  177.2010  139.4050 C   0  0  0  0  0  2  0  0  0  0  0  0
  190.7740  176.5370  139.2210 C   0  0  0  0  0  2  0  0  0  0  0  0
  191.2450  176.6850  137.7850 C   0  0  0  0  0  2  0  0  0  0  0  0
  192.8760  175.6460  136.0030 C   0  0  0  0  0  1  0  0  0  0  0  0
  193.0220  176.3280  137.6790 S   0  0  0  0  0  0  0  0  0  0  0  0
  1 13  1  0  0  0  0
  2  1  2  0  0  0  0
  2 18  1  0  0  0  0
  4  7  1  0  0  0  0
  4  1  1  0  0  0  0
  5  8  1  0  0  0  0
  6  3  1  0  0  0  0
  7 14  1  0  0  0  0
  8  7  2  0  0  0  0
  9 18  1  0  0  0  0
  9 10  1  0  0  0  0
 11  2  1  0  0  0  0
 12 16  1  0  0  0  0
 12  5  2  0  0  0  0
 13 14  1  0  0  0  0
 13  3  2  0  0  0  0
 15  9  2  0  0  0  0
 16  4  2  0  0  0  0
 17 11  2  0  0  0  0
 17 15  1  0  0  0  0
 18  6  2  0  0  0  0
 19 17  1  0  0  0  0
 20 19  1  0  0  0  0
 21 20  1  0  0  0  0
 22 21  1  0  0  0  0
 23 22  1  0  0  0  0
 24 25  1  0  0  0  0
 25 23  1  0  0  0  0
M  END
>  <MODEL>
3

>  <REMARK>
 VINA RESULT:      -8.7      1.794      1.987
  Name = 
  6 active torsions:
  status: ('A' for Active; 'I' for Inactive)
    1  A    between atoms: C_2  and  S_12
    2  A    between atoms: C_2  and  C_25
    3  A    between atoms: C_6  and  C_15
    4  A    between atoms: C_6  and  C_23
    5  A    between atoms: C_15  and  C_21
    6  A    between atoms: C_21  and  C_25
                            x       y       z     vdW  Elec       q    Type
                         _______ _______ _______ _____ _____    ______ ____

>  <TORSDO>
F 6

$$$$
=
 OpenBabel10272400503D

 25 28  0  0  0  0  0  0  0  0999 V2000
  189.3260  177.4700  144.2160 C   0  0  0  0  0  0  0  0  0  0  0  0
  188.3330  177.7210  145.1790 C   0  0  0  0  0  0  0  0  0  0  0  0
  190.9290  176.8900  145.9640 C   0  0  0  0  0  3  0  0  0  0  0  0
  189.2270  177.5750  142.8180 C   0  0  0  0  0  0  0  0  0  0  0  0
  189.4120  177.6690  140.0320 C   0  0  0  0  0  3  0  0  0  0  0  0
  189.9450  177.1400  146.9300 C   0  0  0  0  0  3  0  0  0  0  0  0
  190.4160  177.2480  142.1680 C   0  0  0  0  0  0  0  0  0  0  0  0
  190.5350  177.2860  140.7820 C   0  0  0  0  0  3  0  0  0  0  0  0
  187.6480  177.8150  147.4960 C   0  0  0  0  0  0  0  0  0  0  0  0
  187.8980  177.6700  148.9610 C   0  0  0  0  0  1  0  0  0  0  0  0
  187.0840  178.1200  144.8220 N   0  0  0  0  0  0  0  0  0  0  0  0
  188.2060  178.0020  140.6740 C   0  0  0  0  0  3  0  0  0  0  0  0
  190.5970  177.0620  144.6240 C   0  0  0  0  0  0  0  0  0  0  0  0
  191.6010  176.8270  143.2890 S   0  0  0  0  0  0  0  0  0  0  0  0
  186.4180  178.2120  147.0790 N   0  0  0  0  0  0  0  0  0  0  0  0
  188.1060  177.9570  142.0740 C   0  0  0  0  0  3  0  0  0  0  0  0
  186.1300  178.3590  145.7580 C   0  0  0  0  0  0  0  0  0  0  0  0
  188.6510  177.5540  146.5500 C   0  0  0  0  0  0  0  0  0  0  0  0
  184.7790  178.8200  145.3410 C   0  0  0  0  0  2  0  0  0  0  0  0
  184.8160  179.2760  143.8960 C   0  0  0  0  0  2  0  0  0  0  0  0
  183.8760  178.4200  143.0710 C   0  0  0  0  0  2  0  0  0  0  0  0
  184.4590  178.1720  141.6920 C   0  0  0  0  0  2  0  0  0  0  0  0
  183.4030  178.3920  140.6230 C   0  0  0  0  0  2  0  0  0  0  0  0
  184.8790  178.0750  138.4700 C   0  0  0  0  0  1  0  0  0  0  0  0
  184.0650  179.4620  139.3130 S   0  0  0  0  0  0  0  0  0  0  0  0
  1 13  1  0  0  0  0
  1  2  2  0  0  0  0
  2 18  1  0  0  0  0
  3  6  1  0  0  0  0
  4  1  1  0  0  0  0
  5 12  2  0  0  0  0
  5  8  1  0  0  0  0
  7  4  1  0  0  0  0
  7 14  1  0  0  0  0
  8  7  2  0  0  0  0
  9 10  1  0  0  0  0
 11  2  1  0  0  0  0
 11 17  2  0  0  0  0
 12 16  1  0  0  0  0
 13  3  2  0  0  0  0
 14 13  1  0  0  0  0
 15  9  2  0  0  0  0
 16  4  2  0  0  0  0
 17 15  1  0  0  0  0
 18  6  2  0  0  0  0
 18  9  1  0  0  0  0
 19 17  1  0  0  0  0
 20 19  1  0  0  0  0
 21 20  1  0  0  0  0
 22 21  1  0  0  0  0
 23 22  1  0  0  0  0
 24 25  1  0  0  0  0
 25 23  1  0  0  0  0
M  END
>  <MODEL>
4

>  <REMARK>
 VINA RESULT:      -8.5      2.320      4.886
  Name = 
  6 active torsions:
  status: ('A' for Active; 'I' for Inactive)
    1  A    between atoms: C_2  and  S_12
    2  A    between atoms: C_2  and  C_25
    3  A    between atoms: C_6  and  C_15
    4  A    between atoms: C_6  and  C_23
    5  A    between atoms: C_15  and  C_21
    6  A    between atoms: C_21  and  C_25
                            x       y       z     vdW  Elec       q    Type
                         _______ _______ _______ _____ _____    ______ ____

>  <TORSDO>
F 6

$$$$
=
 OpenBabel10272400503D

 25 28  0  0  0  0  0  0  0  0999 V2000
  187.6160  177.8010  145.5830 C   0  0  0  0  0  0  0  0  0  0  0  0
  186.7980  178.1270  144.4880 C   0  0  0  0  0  0  0  0  0  0  0  0
  185.7730  178.2080  147.1320 C   0  0  0  0  0  3  0  0  0  0  0  0
  188.9670  177.4130  145.5730 C   0  0  0  0  0  0  0  0  0  0  0  0
  191.6190  176.6190  145.9510 C   0  0  0  0  0  3  0  0  0  0  0  0
  184.9510  178.5360  146.0450 C   0  0  0  0  0  3  0  0  0  0  0  0
  189.4650  177.1640  146.8520 C   0  0  0  0  0  0  0  0  0  0  0  0
  190.7820  176.7680  147.0680 C   0  0  0  0  0  3  0  0  0  0  0  0
  184.6510  178.8260  143.6210 C   0  0  0  0  0  0  0  0  0  0  0  0
  183.2240  179.2330  143.7810 C   0  0  0  0  0  1  0  0  0  0  0  0
  187.2710  178.0940  143.2150 N   0  0  0  0  0  0  0  0  0  0  0  0
  191.1300  176.8660  144.6550 C   0  0  0  0  0  3  0  0  0  0  0  0
  187.0920  177.8470  146.8760 C   0  0  0  0  0  0  0  0  0  0  0  0
  188.2660  177.4150  148.0090 S   0  0  0  0  0  0  0  0  0  0  0  0
  185.1810  178.7750  142.3710 N   0  0  0  0  0  0  0  0  0  0  0  0
  189.7980  177.2650  144.4590 C   0  0  0  0  0  3  0  0  0  0  0  0
  186.4730  178.4080  142.1620 C   0  0  0  0  0  0  0  0  0  0  0  0
  185.4510  178.4980  144.7270 C   0  0  0  0  0  0  0  0  0  0  0  0
  187.0250  178.3890  140.7810 C   0  0  0  0  0  2  0  0  0  0  0  0
  188.5390  178.3810  140.8330 C   0  0  0  0  0  2  0  0  0  0  0  0
  189.0750  177.4140  139.7950 C   0  0  0  0  0  2  0  0  0  0  0  0
  189.0500  178.0510  138.4170 C   0  0  0  0  0  2  0  0  0  0  0  0
  190.0360  177.3560  137.4950 C   0  0  0  0  0  2  0  0  0  0  0  0
  192.4950  176.4430  137.6760 C   0  0  0  0  0  1  0  0  0  0  0  0
  190.8800  176.0190  138.3890 S   0  0  0  0  0  0  0  0  0  0  0  0
  1 13  2  0  0  0  0
  2 18  2  0  0  0  0
  2  1  1  0  0  0  0
  4  1  1  0  0  0  0
  4  7  1  0  0  0  0
  5  8  1  0  0  0  0
  6  3  2  0  0  0  0
  7  8  2  0  0  0  0
  7 14  1  0  0  0  0
  9 10  1  0  0  0  0
  9 18  1  0  0  0  0
 11  2  1  0  0  0  0
 12  5  2  0  0  0  0
 13  3  1  0  0  0  0
 13 14  1  0  0  0  0
 15  9  2  0  0  0  0
 16 12  1  0  0  0  0
 16  4  2  0  0  0  0
 17 15  1  0  0  0  0
 17 11  2  0  0  0  0
 18  6  1  0  0  0  0
 19 20  1  0  0  0  0
 19 17  1  0  0  0  0
 21 20  1  0  0  0  0
 22 21  1  0  0  0  0
 23 25  1  0  0  0  0
 23 22  1  0  0  0  0
 24 25  1  0  0  0  0
M  END
>  <MODEL>
5

>  <REMARK>
 VINA RESULT:      -8.5      1.833      4.816
  Name = 
  6 active torsions:
  status: ('A' for Active; 'I' for Inactive)
    1  A    between atoms: C_2  and  S_12
    2  A    between atoms: C_2  and  C_25
    3  A    between atoms: C_6  and  C_15
    4  A    between atoms: C_6  and  C_23
    5  A    between atoms: C_15  and  C_21
    6  A    between atoms: C_21  and  C_25
                            x       y       z     vdW  Elec       q    Type
                         _______ _______ _______ _____ _____    ______ ____

>  <TORSDO>
F 6

$$$$
=
 OpenBabel10272400503D

 25 28  0  0  0  0  0  0  0  0999 V2000
  186.8590  177.9370  144.9750 C   0  0  0  0  0  0  0  0  0  0  0  0
  188.0810  177.5880  144.3730 C   0  0  0  0  0  0  0  0  0  0  0  0
  187.8310  177.6650  147.1980 C   0  0  0  0  0  3  0  0  0  0  0  0
  185.6490  178.2800  144.3480 C   0  0  0  0  0  0  0  0  0  0  0  0
  183.0960  179.0020  143.4720 C   0  0  0  0  0  3  0  0  0  0  0  0
  189.0520  177.3140  146.6050 C   0  0  0  0  0  3  0  0  0  0  0  0
  184.6340  178.5710  145.2590 C   0  0  0  0  0  0  0  0  0  0  0  0
  183.3540  178.9330  144.8490 C   0  0  0  0  0  3  0  0  0  0  0  0
  190.3960  176.9210  144.5830 C   0  0  0  0  0  0  0  0  0  0  0  0
  191.6090  176.5700  145.3790 C   0  0  0  0  0  1  0  0  0  0  0  0
  188.2190  177.5460  143.0220 N   0  0  0  0  0  0  0  0  0  0  0  0
  184.1100  178.7110  142.5410 C   0  0  0  0  0  3  0  0  0  0  0  0
  186.7580  177.9700  146.3670 C   0  0  0  0  0  0  0  0  0  0  0  0
  185.2000  178.4140  146.8380 S   0  0  0  0  0  0  0  0  0  0  0  0
  190.4730  176.8960  143.2270 N   0  0  0  0  0  0  0  0  0  0  0  0
  185.3950  178.3480  142.9740 C   0  0  0  0  0  3  0  0  0  0  0  0
  189.4030  177.2090  142.4490 C   0  0  0  0  0  0  0  0  0  0  0  0
  189.1860  177.2730  145.2020 C   0  0  0  0  0  0  0  0  0  0  0  0
  189.5190  177.1450  140.9680 C   0  0  0  0  0  2  0  0  0  0  0  0
  188.5530  178.1270  140.3350 C   0  0  0  0  0  2  0  0  0  0  0  0
  188.9870  178.4160  138.9100 C   0  0  0  0  0  2  0  0  0  0  0  0
  188.1440  177.6220  137.9300 C   0  0  0  0  0  2  0  0  0  0  0  0
  186.6880  178.0430  138.0210 C   0  0  0  0  0  2  0  0  0  0  0  0
  186.9060  175.6870  136.8750 C   0  0  0  0  0  1  0  0  0  0  0  0
  185.6800  177.0260  136.9040 S   0  0  0  0  0  0  0  0  0  0  0  0
  1 13  1  0  0  0  0
  2  1  2  0  0  0  0
  2 18  1  0  0  0  0
  4  1  1  0  0  0  0
  4  7  1  0  0  0  0
  5  8  1  0  0  0  0
  6  3  1  0  0  0  0
  7 14  1  0  0  0  0
  8  7  2  0  0  0  0
  9 18  1  0  0  0  0
  9 10  1  0  0  0  0
 11  2  1  0  0  0  0
 12 16  1  0  0  0  0
 12  5  2  0  0  0  0
 13 14  1  0  0  0  0
 13  3  2  0  0  0  0
 15  9  2  0  0  0  0
 16  4  2  0  0  0  0
 17 11  2  0  0  0  0
 17 15  1  0  0  0  0
 18  6  2  0  0  0  0
 19 17  1  0  0  0  0
 20 19  1  0  0  0  0
 21 20  1  0  0  0  0
 22 23  1  0  0  0  0
 22 21  1  0  0  0  0
 24 25  1  0  0  0  0
 25 23  1  0  0  0  0
M  END
>  <MODEL>
6

>  <REMARK>
 VINA RESULT:      -8.5      1.466      2.050
  Name = 
  6 active torsions:
  status: ('A' for Active; 'I' for Inactive)
    1  A    between atoms: C_2  and  S_12
    2  A    between atoms: C_2  and  C_25
    3  A    between atoms: C_6  and  C_15
    4  A    between atoms: C_6  and  C_23
    5  A    between atoms: C_15  and  C_21
    6  A    between atoms: C_21  and  C_25
                            x       y       z     vdW  Elec       q    Type
                         _______ _______ _______ _____ _____    ______ ____

>  <TORSDO>
F 6

$$$$
=
 OpenBabel10272400503D

 25 28  0  0  0  0  0  0  0  0999 V2000
  189.3760  177.5270  144.2060 C   0  0  0  0  0  0  0  0  0  0  0  0
  188.9020  177.7600  142.9040 C   0  0  0  0  0  0  0  0  0  0  0  0
  191.5630  176.8790  143.3380 C   0  0  0  0  0  3  0  0  0  0  0  0
  188.6840  177.6720  145.4210 C   0  0  0  0  0  0  0  0  0  0  0  0
  187.6470  177.8400  148.0100 C   0  0  0  0  0  3  0  0  0  0  0  0
  191.0980  177.1080  142.0360 C   0  0  0  0  0  3  0  0  0  0  0  0
  189.4680  177.3520  146.5290 C   0  0  0  0  0  0  0  0  0  0  0  0
  188.9760  177.4270  147.8290 C   0  0  0  0  0  3  0  0  0  0  0  0
  189.2840  177.7790  140.5160 C   0  0  0  0  0  0  0  0  0  0  0  0
  190.1340  177.5740  139.3060 C   0  0  0  0  0  1  0  0  0  0  0  0
  187.6310  178.1820  142.6770 N   0  0  0  0  0  0  0  0  0  0  0  0
  186.8440  178.1670  146.9020 C   0  0  0  0  0  3  0  0  0  0  0  0
  190.6890  177.0940  144.3980 C   0  0  0  0  0  0  0  0  0  0  0  0
  191.0120  176.8880  146.0410 S   0  0  0  0  0  0  0  0  0  0  0  0
  188.0030  178.2000  140.3510 N   0  0  0  0  0  0  0  0  0  0  0  0
  187.3590  178.0840  145.5990 C   0  0  0  0  0  3  0  0  0  0  0  0
  187.1820  178.4070  141.4150 C   0  0  0  0  0  0  0  0  0  0  0  0
  189.7770  177.5470  141.8090 C   0  0  0  0  0  0  0  0  0  0  0  0
  185.7770  178.8430  141.1930 C   0  0  0  0  0  2  0  0  0  0  0  0
  185.1580  179.2650  142.5100 C   0  0  0  0  0  2  0  0  0  0  0  0
  183.7240  178.7750  142.5750 C   0  0  0  0  0  2  0  0  0  0  0  0
  183.2230  178.7930  144.0070 C   0  0  0  0  0  2  0  0  0  0  0  0
  181.7040  178.7770  144.0370 C   0  0  0  0  0  2  0  0  0  0  0  0
  179.9830  180.2770  142.7350 C   0  0  0  0  0  1  0  0  0  0  0  0
  181.0540  178.8650  142.3440 S   0  0  0  0  0  0  0  0  0  0  0  0
  1 13  2  0  0  0  0
  1  4  1  0  0  0  0
  2  1  1  0  0  0  0
  3 13  1  0  0  0  0
  4 16  2  0  0  0  0
  4  7  1  0  0  0  0
  6  3  2  0  0  0  0
  7  8  2  0  0  0  0
  8  5  1  0  0  0  0
  9 18  1  0  0  0  0
 10  9  1  0  0  0  0
 11  2  1  0  0  0  0
 12  5  2  0  0  0  0
 13 14  1  0  0  0  0
 14  7  1  0  0  0  0
 15  9  2  0  0  0  0
 15 17  1  0  0  0  0
 16 12  1  0  0  0  0
 17 11  2  0  0  0  0
 18  6  1  0  0  0  0
 18  2  2  0  0  0  0
 19 17  1  0  0  0  0
 19 20  1  0  0  0  0
 20 21  1  0  0  0  0
 21 22  1  0  0  0  0
 22 23  1  0  0  0  0
 25 24  1  0  0  0  0
 25 23  1  0  0  0  0
M  END
>  <MODEL>
7

>  <REMARK>
 VINA RESULT:      -8.5      2.606      6.005
  Name = 
  6 active torsions:
  status: ('A' for Active; 'I' for Inactive)
    1  A    between atoms: C_2  and  S_12
    2  A    between atoms: C_2  and  C_25
    3  A    between atoms: C_6  and  C_15
    4  A    between atoms: C_6  and  C_23
    5  A    between atoms: C_15  and  C_21
    6  A    between atoms: C_21  and  C_25
                            x       y       z     vdW  Elec       q    Type
                         _______ _______ _______ _____ _____    ______ ____

>  <TORSDO>
F 6

$$$$
=
 OpenBabel10272400503D

 25 28  0  0  0  0  0  0  0  0999 V2000
  187.2890  177.8860  145.3600 C   0  0  0  0  0  0  0  0  0  0  0  0
  186.3480  178.2000  144.3640 C   0  0  0  0  0  0  0  0  0  0  0  0
  185.6030  178.1770  147.1010 C   0  0  0  0  0  3  0  0  0  0  0  0
  188.6460  177.5580  145.1990 C   0  0  0  0  0  0  0  0  0  0  0  0
  191.3530  176.8720  145.2790 C   0  0  0  0  0  3  0  0  0  0  0  0
  184.6590  178.4930  146.1140 C   0  0  0  0  0  3  0  0  0  0  0  0
  189.2850  177.3030  146.4120 C   0  0  0  0  0  0  0  0  0  0  0  0
  190.6320  176.9600  146.4790 C   0  0  0  0  0  3  0  0  0  0  0  0
  184.0950  178.8240  143.7430 C   0  0  0  0  0  0  0  0  0  0  0  0
  182.6770  179.1650  144.0610 C   0  0  0  0  0  1  0  0  0  0  0  0
  186.6860  178.2170  143.0480 N   0  0  0  0  0  0  0  0  0  0  0  0
  190.7220  177.1260  144.0470 C   0  0  0  0  0  3  0  0  0  0  0  0
  186.9020  177.8800  146.7010 C   0  0  0  0  0  0  0  0  0  0  0  0
  188.2050  177.4750  147.6930 S   0  0  0  0  0  0  0  0  0  0  0  0
  184.4930  178.8240  142.4440 N   0  0  0  0  0  0  0  0  0  0  0  0
  189.3620  177.4710  144.0000 C   0  0  0  0  0  3  0  0  0  0  0  0
  185.7700  178.5190  142.0930 C   0  0  0  0  0  0  0  0  0  0  0  0
  185.0190  178.5070  144.7510 C   0  0  0  0  0  0  0  0  0  0  0  0
  186.1740  178.5550  140.6620 C   0  0  0  0  0  2  0  0  0  0  0  0
  184.9540  178.7700  139.7890 C   0  0  0  0  0  2  0  0  0  0  0  0
  185.2810  178.3860  138.3590 C   0  0  0  0  0  2  0  0  0  0  0  0
  186.7380  177.9770  138.2410 C   0  0  0  0  0  2  0  0  0  0  0  0
  187.2900  178.3680  136.8820 C   0  0  0  0  0  2  0  0  0  0  0  0
  189.1470  178.2830  138.7400 C   0  0  0  0  0  1  0  0  0  0  0  0
  189.0040  178.9410  137.0550 S   0  0  0  0  0  0  0  0  0  0  0  0
  1 13  2  0  0  0  0
  2 18  2  0  0  0  0
  2  1  1  0  0  0  0
  4  1  1  0  0  0  0
  4  7  1  0  0  0  0
  5  8  1  0  0  0  0
  6  3  2  0  0  0  0
  7  8  2  0  0  0  0
  7 14  1  0  0  0  0
  9 10  1  0  0  0  0
  9 18  1  0  0  0  0
 11  2  1  0  0  0  0
 12  5  2  0  0  0  0
 13  3  1  0  0  0  0
 13 14  1  0  0  0  0
 15  9  2  0  0  0  0
 16 12  1  0  0  0  0
 16  4  2  0  0  0  0
 17 15  1  0  0  0  0
 17 11  2  0  0  0  0
 18  6  1  0  0  0  0
 19 17  1  0  0  0  0
 20 19  1  0  0  0  0
 21 20  1  0  0  0  0
 22 21  1  0  0  0  0
 23 25  1  0  0  0  0
 23 22  1  0  0  0  0
 25 24  1  0  0  0  0
M  END
>  <MODEL>
8

>  <REMARK>
 VINA RESULT:      -8.3      2.042      5.132
  Name = 
  6 active torsions:
  status: ('A' for Active; 'I' for Inactive)
    1  A    between atoms: C_2  and  S_12
    2  A    between atoms: C_2  and  C_25
    3  A    between atoms: C_6  and  C_15
    4  A    between atoms: C_6  and  C_23
    5  A    between atoms: C_15  and  C_21
    6  A    between atoms: C_21  and  C_25
                            x       y       z     vdW  Elec       q    Type
                         _______ _______ _______ _____ _____    ______ ____

>  <TORSDO>
F 6

$$$$
=
 OpenBabel10272400503D

 25 28  0  0  0  0  0  0  0  0999 V2000
  186.8460  177.9640  144.8190 C   0  0  0  0  0  0  0  0  0  0  0  0
  188.0520  177.6220  144.1830 C   0  0  0  0  0  0  0  0  0  0  0  0
  187.8690  177.6500  147.0130 C   0  0  0  0  0  3  0  0  0  0  0  0
  185.6220  178.3210  144.2270 C   0  0  0  0  0  0  0  0  0  0  0  0
  183.0520  179.0650  143.4240 C   0  0  0  0  0  3  0  0  0  0  0  0
  189.0750  177.3060  146.3860 C   0  0  0  0  0  3  0  0  0  0  0  0
  184.6310  178.5990  145.1670 C   0  0  0  0  0  0  0  0  0  0  0  0
  183.3430  178.9720  144.7940 C   0  0  0  0  0  3  0  0  0  0  0  0
  190.3690  176.9450  144.3260 C   0  0  0  0  0  0  0  0  0  0  0  0
  191.5990  176.5760  145.0870 C   0  0  0  0  0  1  0  0  0  0  0  0
  188.1580  177.6020  142.8290 N   0  0  0  0  0  0  0  0  0  0  0  0
  184.0430  178.7880  142.4640 C   0  0  0  0  0  3  0  0  0  0  0  0
  186.7780  177.9720  146.2130 C   0  0  0  0  0  0  0  0  0  0  0  0
  185.2330  178.4130  146.7290 S   0  0  0  0  0  0  0  0  0  0  0  0
  190.4140  176.9420  142.9680 N   0  0  0  0  0  0  0  0  0  0  0  0
  185.3360  178.4130  142.8610 C   0  0  0  0  0  3  0  0  0  0  0  0
  189.3270  177.2720  142.2220 C   0  0  0  0  0  0  0  0  0  0  0  0
  189.1760  177.2890  144.9800 C   0  0  0  0  0  0  0  0  0  0  0  0
  189.4080  177.2340  140.7370 C   0  0  0  0  0  2  0  0  0  0  0  0
  188.6570  178.4130  140.1520 C   0  0  0  0  0  2  0  0  0  0  0  0
  188.8160  178.4140  138.6430 C   0  0  0  0  0  2  0  0  0  0  0  0
  189.0230  177.0000  138.1320 C   0  0  0  0  0  2  0  0  0  0  0  0
  189.9810  176.9990  136.9530 C   0  0  0  0  0  2  0  0  0  0  0  0
  191.8560  175.3810  137.8340 C   0  0  0  0  0  1  0  0  0  0  0  0
  190.5240  175.3020  136.6040 S   0  0  0  0  0  0  0  0  0  0  0  0
  1 13  1  0  0  0  0
  2  1  2  0  0  0  0
  2 18  1  0  0  0  0
  4  1  1  0  0  0  0
  4  7  1  0  0  0  0
  5  8  1  0  0  0  0
  6  3  1  0  0  0  0
  7 14  1  0  0  0  0
  8  7  2  0  0  0  0
  9 18  1  0  0  0  0
  9 10  1  0  0  0  0
 11  2  1  0  0  0  0
 12 16  1  0  0  0  0
 12  5  2  0  0  0  0
 13 14  1  0  0  0  0
 13  3  2  0  0  0  0
 15  9  2  0  0  0  0
 16  4  2  0  0  0  0
 17 11  2  0  0  0  0
 17 15  1  0  0  0  0
 18  6  2  0  0  0  0
 19 17  1  0  0  0  0
 20 19  1  0  0  0  0
 21 20  1  0  0  0  0
 22 21  1  0  0  0  0
 23 22  1  0  0  0  0
 25 23  1  0  0  0  0
 25 24  1  0  0  0  0
M  END
>  <MODEL>
9

>  <REMARK>
 VINA RESULT:      -8.3      1.548      2.306
  Name = 
  6 active torsions:
  status: ('A' for Active; 'I' for Inactive)
    1  A    between atoms: C_2  and  S_12
    2  A    between atoms: C_2  and  C_25
    3  A    between atoms: C_6  and  C_15
    4  A    between atoms: C_6  and  C_23
    5  A    between atoms: C_15  and  C_21
    6  A    between atoms: C_21  and  C_25
                            x       y       z     vdW  Elec       q    Type
                         _______ _______ _______ _____ _____    ______ ____

>  <TORSDO>
F 6

$$$$
