=
 OpenBabel10272401053D

 27 30  0  0  1  0  0  0  0  0999 V2000
  189.5150  178.7140  143.2370 C   0  0  0  0  0  2  0  0  0  0  0  0
  191.0230  177.6300  141.5030 C   0  0  0  0  0  0  0  0  0  0  0  0
  188.5560  177.8980  141.1660 C   0  0  0  0  0  2  0  0  0  0  0  0
  191.2950  175.6950  138.0240 N   0  0  0  0  0  0  0  0  0  0  0  0
  189.5890  174.2790  136.8840 C   0  0  0  0  0  1  0  0  0  0  0  0
  192.2550  177.5160  140.9750 C   0  0  0  0  0  3  0  0  0  0  0  0
  189.0450  176.2040  138.4950 C   0  0  2  0  0  3  0  0  0  0  0  0
  188.1010  176.9990  137.6130 C   0  0  0  0  0  1  0  0  0  0  0  0
  189.9670  177.1610  139.2550 C   0  0  2  0  0  3  0  0  0  0  0  0
  190.8910  178.1010  142.9230 C   0  0  2  0  0  3  0  0  0  0  0  0
  189.9710  175.4370  137.6730 N   0  0  0  0  0  0  0  0  0  0  0  0
  191.3130  176.6460  138.8860 C   0  0  0  0  0  0  0  0  0  0  0  0
  188.3780  178.0190  142.6170 N   0  0  0  0  0  0  0  0  0  0  0  0
  189.7990  177.0930  140.7760 C   0  0  1  0  0  3  0  0  0  0  0  0
  192.4590  176.9570  139.6720 N   0  0  0  0  0  2  0  0  0  0  0  0
  192.0580  175.2250  145.9140 C   0  0  0  0  0  3  0  0  0  0  0  0
  191.3150  177.0830  143.9480 C   0  0  0  0  0  0  0  0  0  0  0  0
  191.6520  175.7670  143.5900 C   0  0  0  0  0  3  0  0  0  0  0  0
  192.0240  174.8420  144.5690 C   0  0  0  0  0  3  0  0  0  0  0  0
  191.7190  176.5320  146.2770 C   0  0  0  0  0  3  0  0  0  0  0  0
  191.3470  177.4570  145.2970 C   0  0  0  0  0  3  0  0  0  0  0  0
  188.1610  176.7130  143.2340 C   0  0  0  0  0  2  0  0  0  0  0  0
  187.7520  176.8700  144.6910 C   0  0  0  0  0  2  0  0  0  0  0  0
  186.4230  177.6000  144.8210 C   0  0  0  0  0  2  0  0  0  0  0  0
  186.1160  177.9430  146.2680 C   0  0  1  0  0  3  0  0  0  0  0  0
  187.4040  177.9350  147.0650 C   0  0  0  0  0  1  0  0  0  0  0  0
  185.5420  179.2120  146.3420 O   0  0  0  0  0  1  0  0  0  0  0  0
  2 10  1  0  0  0  0
  3 13  1  0  0  0  0
  4 12  2  0  0  0  0
  5 11  1  0  0  0  0
  6  2  2  0  0  0  0
  7  8  1  6  0  0  0
  7  9  1  0  0  0  0
  9 12  1  1  0  0  0
  9 14  1  0  0  0  0
 10  1  1  0  0  0  0
 10 17  1  1  0  0  0
 11  4  1  0  0  0  0
 11  7  1  0  0  0  0
 12 15  1  0  0  0  0
 13 22  1  0  0  0  0
 13  1  1  0  0  0  0
 14  3  1  6  0  0  0
 14  2  1  0  0  0  0
 15  6  1  0  0  0  0
 16 20  1  0  0  0  0
 17 21  1  0  0  0  0
 18 17  2  0  0  0  0
 18 19  1  0  0  0  0
 19 16  2  0  0  0  0
 21 20  2  0  0  0  0
 22 23  1  0  0  0  0
 23 24  1  0  0  0  0
 24 25  1  0  0  0  0
 25 27  1  0  0  0  0
 25 26  1  1  0  0  0
M  END
>  <MODEL>
1

>  <REMARK>
 VINA RESULT:      -7.6      0.000      0.000
  Name = 
  5 active torsions:
  status: ('A' for Active; 'I' for Inactive)
    1  A    between atoms: C_9  and  C_15
    2  A    between atoms: C_10  and  C_13
    3  A    between atoms: C_10  and  C_20
    4  A    between atoms: N_18  and  C_26
    5  A    between atoms: C_20  and  C_26
                            x       y       z     vdW  Elec       q    Type
                         _______ _______ _______ _____ _____    ______ ____

>  <TORSDO>
F 5

$$$$
=
 OpenBabel10272401053D

 27 30  0  0  1  0  0  0  0  0999 V2000
  189.4930  178.6120  142.9950 C   0  0  0  0  0  2  0  0  0  0  0  0
  191.1970  177.5800  141.4180 C   0  0  0  0  0  0  0  0  0  0  0  0
  188.7550  177.7030  140.8720 C   0  0  0  0  0  2  0  0  0  0  0  0
  191.8610  175.5940  138.0210 N   0  0  0  0  0  0  0  0  0  0  0  0
  190.3350  174.0620  136.7800 C   0  0  0  0  0  1  0  0  0  0  0  0
  192.4720  177.5250  140.9950 C   0  0  0  0  0  3  0  0  0  0  0  0
  189.5560  175.9860  138.2930 C   0  0  2  0  0  3  0  0  0  0  0  0
  188.6470  176.7090  137.3180 C   0  0  0  0  0  1  0  0  0  0  0  0
  190.3590  177.0080  139.1020 C   0  0  2  0  0  3  0  0  0  0  0  0
  190.9210  178.0710  142.8100 C   0  0  2  0  0  3  0  0  0  0  0  0
  190.5870  175.2560  137.5680 N   0  0  0  0  0  0  0  0  0  0  0  0
  191.7560  176.5620  138.8580 C   0  0  0  0  0  0  0  0  0  0  0  0
  188.4510  177.8430  142.3000 N   0  0  0  0  0  0  0  0  0  0  0  0
  190.0680  176.9610  140.6060 C   0  0  1  0  0  3  0  0  0  0  0  0
  192.8140  176.9510  139.7270 N   0  0  0  0  0  2  0  0  0  0  0  0
  192.0890  175.2470  145.8490 C   0  0  0  0  0  3  0  0  0  0  0  0
  191.3130  177.0990  143.8910 C   0  0  0  0  0  0  0  0  0  0  0  0
  191.3950  177.4850  145.2390 C   0  0  0  0  0  3  0  0  0  0  0  0
  191.7800  176.5610  146.2150 C   0  0  0  0  0  3  0  0  0  0  0  0
  192.0130  174.8590  144.5080 C   0  0  0  0  0  3  0  0  0  0  0  0
  191.6280  175.7830  143.5330 C   0  0  0  0  0  3  0  0  0  0  0  0
  188.2540  176.5400  142.9290 C   0  0  0  0  0  2  0  0  0  0  0  0
  187.7200  176.7030  144.3440 C   0  0  0  0  0  2  0  0  0  0  0  0
  186.5160  177.6350  144.3810 C   0  0  0  0  0  2  0  0  0  0  0  0
  185.9620  177.7700  145.7890 C   0  0  1  0  0  3  0  0  0  0  0  0
  187.0770  178.1850  146.7260 C   0  0  0  0  0  1  0  0  0  0  0  0
  184.9620  178.7430  145.8110 O   0  0  0  0  0  1  0  0  0  0  0  0
  2 10  1  0  0  0  0
  3 13  1  0  0  0  0
  4 12  2  0  0  0  0
  5 11  1  0  0  0  0
  6  2  2  0  0  0  0
  7  8  1  6  0  0  0
  7  9  1  0  0  0  0
  9 12  1  1  0  0  0
  9 14  1  0  0  0  0
 10  1  1  0  0  0  0
 10 17  1  1  0  0  0
 11  4  1  0  0  0  0
 11  7  1  0  0  0  0
 12 15  1  0  0  0  0
 13 22  1  0  0  0  0
 13  1  1  0  0  0  0
 14  3  1  6  0  0  0
 14  2  1  0  0  0  0
 15  6  1  0  0  0  0
 16 19  1  0  0  0  0
 17 18  1  0  0  0  0
 18 19  2  0  0  0  0
 20 16  2  0  0  0  0
 21 17  2  0  0  0  0
 21 20  1  0  0  0  0
 22 23  1  0  0  0  0
 23 24  1  0  0  0  0
 24 25  1  0  0  0  0
 25 27  1  0  0  0  0
 25 26  1  1  0  0  0
M  END
>  <MODEL>
2

>  <REMARK>
 VINA RESULT:      -7.2      0.440      1.031
  Name = 
  5 active torsions:
  status: ('A' for Active; 'I' for Inactive)
    1  A    between atoms: C_9  and  C_15
    2  A    between atoms: C_10  and  C_13
    3  A    between atoms: C_10  and  C_20
    4  A    between atoms: N_18  and  C_26
    5  A    between atoms: C_20  and  C_26
                            x       y       z     vdW  Elec       q    Type
                         _______ _______ _______ _____ _____    ______ ____

>  <TORSDO>
F 5

$$$$
=
 OpenBabel10272401053D

 27 30  0  0  1  0  0  0  0  0999 V2000
  189.3160  178.8300  139.5410 C   0  0  0  0  0  2  0  0  0  0  0  0
  190.0910  176.5530  138.7230 C   0  0  0  0  0  0  0  0  0  0  0  0
  187.8580  177.5140  138.1200 C   0  0  0  0  0  2  0  0  0  0  0  0
  189.1810  173.1990  136.7590 N   0  0  0  0  0  0  0  0  0  0  0  0
  186.9460  172.1600  136.3890 C   0  0  0  0  0  1  0  0  0  0  0  0
  191.1170  175.7400  138.4170 C   0  0  0  0  0  3  0  0  0  0  0  0
  187.3460  174.6720  136.7400 C   0  0  2  0  0  3  0  0  0  0  0  0
  186.6350  175.2060  135.5100 C   0  0  0  0  0  1  0  0  0  0  0  0
  188.6420  175.4560  136.9650 C   0  0  2  0  0  3  0  0  0  0  0  0
  190.3280  177.6800  139.6860 C   0  0  2  0  0  3  0  0  0  0  0  0
  187.8180  173.3170  136.4970 N   0  0  0  0  0  0  0  0  0  0  0  0
  189.6540  174.3670  137.0100 C   0  0  0  0  0  0  0  0  0  0  0  0
  187.9340  178.4010  139.2860 N   0  0  0  0  0  0  0  0  0  0  0  0
  188.6680  176.2270  138.2880 C   0  0  1  0  0  3  0  0  0  0  0  0
  190.9300  174.5740  137.6050 N   0  0  0  0  0  2  0  0  0  0  0  0
  190.8380  176.4940  143.7980 C   0  0  0  0  0  3  0  0  0  0  0  0
  190.4980  177.2390  141.1150 C   0  0  0  0  0  0  0  0  0  0  0  0
  189.7250  176.2030  141.6680 C   0  0  0  0  0  3  0  0  0  0  0  0
  189.8970  175.8310  143.0040 C   0  0  0  0  0  3  0  0  0  0  0  0
  191.6050  177.5290  143.2550 C   0  0  0  0  0  3  0  0  0  0  0  0
  191.4340  177.9000  141.9180 C   0  0  0  0  0  3  0  0  0  0  0  0
  187.3530  177.7710  140.4680 C   0  0  0  0  0  2  0  0  0  0  0  0
  187.1590  178.7920  141.5790 C   0  0  0  0  0  2  0  0  0  0  0  0
  186.8560  178.1170  142.9100 C   0  0  0  0  0  2  0  0  0  0  0  0
  185.4090  178.3260  143.3220 C   0  0  1  0  0  3  0  0  0  0  0  0
  185.3360  178.4640  144.8280 C   0  0  0  0  0  1  0  0  0  0  0  0
  184.9120  179.4880  142.7320 O   0  0  0  0  0  1  0  0  0  0  0  0
  1 10  1  0  0  0  0
  2 10  1  0  0  0  0
  3 13  1  0  0  0  0
  4 12  2  0  0  0  0
  5 11  1  0  0  0  0
  6  2  2  0  0  0  0
  7  8  1  6  0  0  0
  7  9  1  0  0  0  0
  9 12  1  1  0  0  0
  9 14  1  0  0  0  0
 10 17  1  1  0  0  0
 11  7  1  0  0  0  0
 11  4  1  0  0  0  0
 12 15  1  0  0  0  0
 13  1  1  0  0  0  0
 13 22  1  0  0  0  0
 14  3  1  6  0  0  0
 14  2  1  0  0  0  0
 15  6  1  0  0  0  0
 17 18  2  0  0  0  0
 17 21  1  0  0  0  0
 18 19  1  0  0  0  0
 19 16  2  0  0  0  0
 20 16  1  0  0  0  0
 21 20  2  0  0  0  0
 22 23  1  0  0  0  0
 23 24  1  0  0  0  0
 24 25  1  0  0  0  0
 25 26  1  1  0  0  0
 27 25  1  0  0  0  0
M  END
>  <MODEL>
3

>  <REMARK>
 VINA RESULT:      -5.9      1.949      3.189
  Name = 
  5 active torsions:
  status: ('A' for Active; 'I' for Inactive)
    1  A    between atoms: C_9  and  C_15
    2  A    between atoms: C_10  and  C_13
    3  A    between atoms: C_10  and  C_20
    4  A    between atoms: N_18  and  C_26
    5  A    between atoms: C_20  and  C_26
                            x       y       z     vdW  Elec       q    Type
                         _______ _______ _______ _____ _____    ______ ____

>  <TORSDO>
F 5

$$$$
=
 OpenBabel10272401053D

 27 30  0  0  1  0  0  0  0  0999 V2000
  185.5140  180.0770  143.2410 C   0  0  0  0  0  2  0  0  0  0  0  0
  184.8410  178.8630  141.1130 C   0  0  0  0  0  0  0  0  0  0  0  0
  183.2390  179.2780  142.9930 C   0  0  0  0  0  2  0  0  0  0  0  0
  182.0190  176.8380  139.1480 N   0  0  0  0  0  0  0  0  0  0  0  0
  180.1230  175.5070  140.0660 C   0  0  0  0  0  1  0  0  0  0  0  0
  185.0530  178.6600  139.8010 C   0  0  0  0  0  3  0  0  0  0  0  0
  181.2200  177.4970  141.2610 C   0  0  2  0  0  3  0  0  0  0  0  0
  179.9820  178.3310  141.5330 C   0  0  0  0  0  1  0  0  0  0  0  0
  182.3700  178.4110  140.8290 C   0  0  2  0  0  3  0  0  0  0  0  0
  185.9760  179.3720  141.9540 C   0  0  2  0  0  3  0  0  0  0  0  0
  181.0100  176.6560  140.0910 N   0  0  0  0  0  0  0  0  0  0  0  0
  182.7720  177.8050  139.5320 C   0  0  0  0  0  0  0  0  0  0  0  0
  184.3710  179.4420  143.9120 N   0  0  0  0  0  0  0  0  0  0  0  0
  183.5630  178.3880  141.7900 C   0  0  1  0  0  3  0  0  0  0  0  0
  184.0540  178.0600  138.9680 N   0  0  0  0  0  2  0  0  0  0  0  0
  189.1180  176.5120  142.6800 C   0  0  0  0  0  3  0  0  0  0  0  0
  187.0540  178.3530  142.2120 C   0  0  0  0  0  0  0  0  0  0  0  0
  186.8450  177.2530  143.0610 C   0  0  0  0  0  3  0  0  0  0  0  0
  187.8730  176.3350  143.2920 C   0  0  0  0  0  3  0  0  0  0  0  0
  189.3330  177.6080  141.8380 C   0  0  0  0  0  3  0  0  0  0  0  0
  188.3040  178.5260  141.6070 C   0  0  0  0  0  3  0  0  0  0  0  0
  184.7560  178.1660  144.5090 C   0  0  0  0  0  2  0  0  0  0  0  0
  184.9220  178.3080  146.0150 C   0  0  0  0  0  2  0  0  0  0  0  0
  186.3020  178.8420  146.3750 C   0  0  0  0  0  2  0  0  0  0  0  0
  187.1910  177.7470  146.9380 C   0  0  1  0  0  3  0  0  0  0  0  0
  188.5550  177.8270  146.2840 C   0  0  0  0  0  1  0  0  0  0  0  0
  187.3360  177.9170  148.3150 O   0  0  0  0  0  1  0  0  0  0  0  0
  1 13  1  0  0  0  0
  2 14  1  0  0  0  0
  2 10  1  0  0  0  0
  3 13  1  0  0  0  0
  4 12  2  0  0  0  0
  4 11  1  0  0  0  0
  5 11  1  0  0  0  0
  6  2  2  0  0  0  0
  7  8  1  6  0  0  0
  9 12  1  6  0  0  0
  9  7  1  0  0  0  0
  9 14  1  0  0  0  0
 10 17  1  1  0  0  0
 10  1  1  0  0  0  0
 11  7  1  0  0  0  0
 13 22  1  0  0  0  0
 14  3  1  1  0  0  0
 15 12  1  0  0  0  0
 15  6  1  0  0  0  0
 16 19  1  0  0  0  0
 17 18  1  0  0  0  0
 18 19  2  0  0  0  0
 20 16  2  0  0  0  0
 21 20  1  0  0  0  0
 21 17  2  0  0  0  0
 22 23  1  0  0  0  0
 23 24  1  0  0  0  0
 24 25  1  0  0  0  0
 25 26  1  6  0  0  0
 25 27  1  0  0  0  0
M  END
>  <MODEL>
4

>  <REMARK>
 VINA RESULT:      -5.8      4.308      6.260
  Name = 
  5 active torsions:
  status: ('A' for Active; 'I' for Inactive)
    1  A    between atoms: C_9  and  C_15
    2  A    between atoms: C_10  and  C_13
    3  A    between atoms: C_10  and  C_20
    4  A    between atoms: N_18  and  C_26
    5  A    between atoms: C_20  and  C_26
                            x       y       z     vdW  Elec       q    Type
                         _______ _______ _______ _____ _____    ______ ____

>  <TORSDO>
F 5

$$$$
=
 OpenBabel10272401053D

 27 30  0  0  1  0  0  0  0  0999 V2000
  190.0150  177.4930  136.9920 C   0  0  0  0  0  2  0  0  0  0  0  0
  187.9870  177.9060  138.4670 C   0  0  0  0  0  0  0  0  0  0  0  0
  190.2850  177.5580  139.4010 C   0  0  0  0  0  2  0  0  0  0  0  0
  186.5090  178.1110  142.1680 N   0  0  0  0  0  0  0  0  0  0  0  0
  187.3320  177.0050  144.2450 C   0  0  0  0  0  1  0  0  0  0  0  0
  186.7590  178.4380  138.5930 C   0  0  0  0  0  3  0  0  0  0  0  0
  188.8120  177.6280  142.2410 C   0  0  2  0  0  3  0  0  0  0  0  0
  189.8760  178.4310  142.9640 C   0  0  0  0  0  1  0  0  0  0  0  0
  188.4630  178.3120  140.9170 C   0  0  2  0  0  3  0  0  0  0  0  0
  188.4810  177.5540  137.0930 C   0  0  2  0  0  3  0  0  0  0  0  0
  187.5570  177.6790  142.9780 N   0  0  0  0  0  0  0  0  0  0  0  0
  186.9890  178.4720  141.0330 C   0  0  0  0  0  0  0  0  0  0  0  0
  190.6820  176.8910  138.1550 N   0  0  0  0  0  0  0  0  0  0  0  0
  188.7840  177.4590  139.6850 C   0  0  1  0  0  3  0  0  0  0  0  0
  186.1790  178.6800  139.8810 N   0  0  0  0  0  2  0  0  0  0  0  0
  186.6460  174.0740  135.3340 C   0  0  0  0  0  3  0  0  0  0  0  0
  187.8160  176.3430  136.4940 C   0  0  0  0  0  0  0  0  0  0  0  0
  186.8730  175.5860  137.2100 C   0  0  0  0  0  3  0  0  0  0  0  0
  186.2890  174.4570  136.6300 C   0  0  0  0  0  3  0  0  0  0  0  0
  187.5870  174.8200  134.6180 C   0  0  0  0  0  3  0  0  0  0  0  0
  188.1710  175.9500  135.1990 C   0  0  0  0  0  3  0  0  0  0  0  0
  190.4280  175.4540  138.2210 C   0  0  0  0  0  2  0  0  0  0  0  0
  191.2720  174.7140  137.1940 C   0  0  0  0  0  2  0  0  0  0  0  0
  192.7510  174.7590  137.5520 C   0  0  0  0  0  2  0  0  0  0  0  0
  193.5600  175.4750  136.4840 C   0  0  1  0  0  3  0  0  0  0  0  0
  192.7010  175.6620  135.2510 C   0  0  0  0  0  1  0  0  0  0  0  0
  193.9610  176.7250  136.9540 O   0  0  0  0  0  1  0  0  0  0  0  0
  1 10  1  0  0  0  0
  1 13  1  0  0  0  0
  2  6  2  0  0  0  0
  2 14  1  0  0  0  0
  4 11  1  0  0  0  0
  6 15  1  0  0  0  0
  7  8  1  1  0  0  0
  7 11  1  0  0  0  0
  9 12  1  1  0  0  0
  9  7  1  0  0  0  0
 10 17  1  1  0  0  0
 10  2  1  0  0  0  0
 11  5  1  0  0  0  0
 12  4  2  0  0  0  0
 13 22  1  0  0  0  0
 13  3  1  0  0  0  0
 14  3  1  6  0  0  0
 14  9  1  0  0  0  0
 15 12  1  0  0  0  0
 16 19  1  0  0  0  0
 17 18  1  0  0  0  0
 19 18  2  0  0  0  0
 20 21  1  0  0  0  0
 20 16  2  0  0  0  0
 21 17  2  0  0  0  0
 23 24  1  0  0  0  0
 23 22  1  0  0  0  0
 25 26  1  6  0  0  0
 25 27  1  0  0  0  0
 25 24  1  0  0  0  0
M  END
>  <MODEL>
5

>  <REMARK>
 VINA RESULT:      -5.8      3.357      8.143
  Name = 
  5 active torsions:
  status: ('A' for Active; 'I' for Inactive)
    1  A    between atoms: C_9  and  C_15
    2  A    between atoms: C_10  and  C_13
    3  A    between atoms: C_10  and  C_20
    4  A    between atoms: N_18  and  C_26
    5  A    between atoms: C_20  and  C_26
                            x       y       z     vdW  Elec       q    Type
                         _______ _______ _______ _____ _____    ______ ____

>  <TORSDO>
F 5

$$$$
=
 OpenBabel10272401053D

 27 30  0  0  1  0  0  0  0  0999 V2000
  187.6070  179.6300  141.7740 C   0  0  0  0  0  2  0  0  0  0  0  0
  188.6420  178.2720  139.8930 C   0  0  0  0  0  0  0  0  0  0  0  0
  186.1720  178.6370  140.0910 C   0  0  0  0  0  2  0  0  0  0  0  0
  188.0460  175.9390  136.7100 N   0  0  0  0  0  0  0  0  0  0  0  0
  186.0850  174.5000  136.1700 C   0  0  0  0  0  1  0  0  0  0  0  0
  189.7140  178.0300  139.1180 C   0  0  0  0  0  3  0  0  0  0  0  0
  185.9820  176.6240  137.6110 C   0  0  2  0  0  3  0  0  0  0  0  0
  184.8820  177.3650  136.8740 C   0  0  0  0  0  1  0  0  0  0  0  0
  187.0820  177.6080  138.0170 C   0  0  2  0  0  3  0  0  0  0  0  0
  188.8550  178.9090  141.2360 C   0  0  2  0  0  3  0  0  0  0  0  0
  186.6710  175.7180  136.7020 N   0  0  0  0  0  0  0  0  0  0  0  0
  188.2910  176.9810  137.4200 C   0  0  0  0  0  0  0  0  0  0  0  0
  186.3380  178.9330  141.5180 N   0  0  0  0  0  0  0  0  0  0  0  0
  187.2680  177.7250  139.5340 C   0  0  1  0  0  3  0  0  0  0  0  0
  189.5950  177.3140  137.8820 N   0  0  0  0  0  2  0  0  0  0  0  0
  190.6550  176.2350  144.0970 C   0  0  0  0  0  3  0  0  0  0  0  0
  189.4760  177.9930  142.2570 C   0  0  0  0  0  0  0  0  0  0  0  0
  190.0190  178.4810  143.4570 C   0  0  0  0  0  3  0  0  0  0  0  0
  190.6040  177.6040  144.3740 C   0  0  0  0  0  3  0  0  0  0  0  0
  190.1210  175.7440  142.9020 C   0  0  0  0  0  3  0  0  0  0  0  0
  189.5350  176.6210  141.9840 C   0  0  0  0  0  3  0  0  0  0  0  0
  186.2330  177.7210  142.3260 C   0  0  0  0  0  2  0  0  0  0  0  0
  185.9440  178.0680  143.7780 C   0  0  0  0  0  2  0  0  0  0  0  0
  186.8020  177.2440  144.7290 C   0  0  0  0  0  2  0  0  0  0  0  0
  187.2120  178.0520  145.9490 C   0  0  1  0  0  3  0  0  0  0  0  0
  185.9740  178.6280  146.6040 C   0  0  0  0  0  1  0  0  0  0  0  0
  187.8700  177.2280  146.8610 O   0  0  0  0  0  1  0  0  0  0  0  0
  2 10  1  0  0  0  0
  3 13  1  0  0  0  0
  4 12  2  0  0  0  0
  5 11  1  0  0  0  0
  6  2  2  0  0  0  0
  7  8  1  6  0  0  0
  7  9  1  0  0  0  0
  9 12  1  6  0  0  0
  9 14  1  0  0  0  0
 10  1  1  0  0  0  0
 10 17  1  1  0  0  0
 11  4  1  0  0  0  0
 11  7  1  0  0  0  0
 12 15  1  0  0  0  0
 13  1  1  0  0  0  0
 13 22  1  0  0  0  0
 14  2  1  0  0  0  0
 14  3  1  6  0  0  0
 15  6  1  0  0  0  0
 16 19  1  0  0  0  0
 17 18  1  0  0  0  0
 18 19  2  0  0  0  0
 20 16  2  0  0  0  0
 21 17  2  0  0  0  0
 21 20  1  0  0  0  0
 22 23  1  0  0  0  0
 23 24  1  0  0  0  0
 24 25  1  0  0  0  0
 25 26  1  1  0  0  0
 25 27  1  0  0  0  0
M  END
>  <MODEL>
6

>  <REMARK>
 VINA RESULT:      -5.7      1.959      2.945
  Name = 
  5 active torsions:
  status: ('A' for Active; 'I' for Inactive)
    1  A    between atoms: C_9  and  C_15
    2  A    between atoms: C_10  and  C_13
    3  A    between atoms: C_10  and  C_20
    4  A    between atoms: N_18  and  C_26
    5  A    between atoms: C_20  and  C_26
                            x       y       z     vdW  Elec       q    Type
                         _______ _______ _______ _____ _____    ______ ____

>  <TORSDO>
F 5

$$$$
=
 OpenBabel10272401053D

 27 30  0  0  1  0  0  0  0  0999 V2000
  188.6460  177.6560  135.5000 C   0  0  0  0  0  2  0  0  0  0  0  0
  187.7550  177.8720  137.8690 C   0  0  0  0  0  0  0  0  0  0  0  0
  190.1400  177.2900  137.3740 C   0  0  0  0  0  2  0  0  0  0  0  0
  188.4650  177.4760  141.7770 N   0  0  0  0  0  0  0  0  0  0  0  0
  190.1100  175.9980  142.9260 C   0  0  0  0  0  1  0  0  0  0  0  0
  186.8480  178.4140  138.7010 C   0  0  0  0  0  3  0  0  0  0  0  0
  190.3880  176.9120  140.5420 C   0  0  2  0  0  3  0  0  0  0  0  0
  191.7610  177.5420  140.6820 C   0  0  0  0  0  1  0  0  0  0  0  0
  189.4850  177.8280  139.7130 C   0  0  2  0  0  3  0  0  0  0  0  0
  187.4110  177.7490  136.4130 C   0  0  2  0  0  3  0  0  0  0  0  0
  189.7210  176.8760  141.8360 N   0  0  0  0  0  0  0  0  0  0  0  0
  188.3210  178.0140  140.6190 C   0  0  0  0  0  0  0  0  0  0  0  0
  189.7440  176.8390  136.0360 N   0  0  0  0  0  0  0  0  0  0  0  0
  189.0090  177.1940  138.4010 C   0  0  1  0  0  3  0  0  0  0  0  0
  187.0610  178.4470  140.1180 N   0  0  0  0  0  2  0  0  0  0  0  0
  184.5130  174.7020  135.4700 C   0  0  0  0  0  3  0  0  0  0  0  0
  186.3910  176.6840  136.1110 C   0  0  0  0  0  0  0  0  0  0  0  0
  186.0270  175.7160  137.0630 C   0  0  0  0  0  3  0  0  0  0  0  0
  185.0890  174.7300  136.7430 C   0  0  0  0  0  3  0  0  0  0  0  0
  184.8750  175.6590  134.5170 C   0  0  0  0  0  3  0  0  0  0  0  0
  185.8130  176.6450  134.8370 C   0  0  0  0  0  3  0  0  0  0  0  0
  189.3900  175.4220  136.0390 C   0  0  0  0  0  2  0  0  0  0  0  0
  189.1130  174.9360  134.6240 C   0  0  0  0  0  2  0  0  0  0  0  0
  188.2090  173.7100  134.6230 C   0  0  0  0  0  2  0  0  0  0  0  0
  188.6430  172.6990  135.6700 C   0  0  1  0  0  3  0  0  0  0  0  0
  187.4160  172.0410  136.2660 C   0  0  0  0  0  1  0  0  0  0  0  0
  189.4430  171.7210  135.0790 O   0  0  0  0  0  1  0  0  0  0  0  0
  1 13  1  0  0  0  0
  1 10  1  0  0  0  0
  2 14  1  0  0  0  0
  2  6  2  0  0  0  0
  4 11  1  0  0  0  0
  6 15  1  0  0  0  0
  7  8  1  1  0  0  0
  7 11  1  0  0  0  0
  9  7  1  0  0  0  0
  9 12  1  1  0  0  0
 10 17  1  1  0  0  0
 10  2  1  0  0  0  0
 11  5  1  0  0  0  0
 12  4  2  0  0  0  0
 13 22  1  0  0  0  0
 13  3  1  0  0  0  0
 14  3  1  6  0  0  0
 14  9  1  0  0  0  0
 15 12  1  0  0  0  0
 16 19  1  0  0  0  0
 17 18  1  0  0  0  0
 19 18  2  0  0  0  0
 20 21  1  0  0  0  0
 20 16  2  0  0  0  0
 21 17  2  0  0  0  0
 23 22  1  0  0  0  0
 24 23  1  0  0  0  0
 24 25  1  0  0  0  0
 25 26  1  6  0  0  0
 27 25  1  0  0  0  0
M  END
>  <MODEL>
7

>  <REMARK>
 VINA RESULT:      -5.6      3.806      8.494
  Name = 
  5 active torsions:
  status: ('A' for Active; 'I' for Inactive)
    1  A    between atoms: C_9  and  C_15
    2  A    between atoms: C_10  and  C_13
    3  A    between atoms: C_10  and  C_20
    4  A    between atoms: N_18  and  C_26
    5  A    between atoms: C_20  and  C_26
                            x       y       z     vdW  Elec       q    Type
                         _______ _______ _______ _____ _____    ______ ____

>  <TORSDO>
F 5

$$$$
=
 OpenBabel10272401053D

 27 30  0  0  1  0  0  0  0  0999 V2000
  189.2350  178.7660  137.9290 C   0  0  0  0  0  2  0  0  0  0  0  0
  187.9460  177.2630  136.3360 C   0  0  0  0  0  0  0  0  0  0  0  0
  186.8750  178.3640  138.3160 C   0  0  0  0  0  2  0  0  0  0  0  0
  184.5090  175.4150  135.5000 N   0  0  0  0  0  0  0  0  0  0  0  0
  182.7040  174.6870  137.0580 C   0  0  0  0  0  1  0  0  0  0  0  0
  187.8280  176.7450  135.1010 C   0  0  0  0  0  3  0  0  0  0  0  0
  184.3000  176.6530  137.4910 C   0  0  2  0  0  3  0  0  0  0  0  0
  183.2780  177.7390  137.7700 C   0  0  0  0  0  1  0  0  0  0  0  0
  185.4350  177.2230  136.6380 C   0  0  2  0  0  3  0  0  0  0  0  0
  189.2980  177.7250  136.7970 C   0  0  2  0  0  3  0  0  0  0  0  0
  183.7220  175.6310  136.6290 N   0  0  0  0  0  0  0  0  0  0  0  0
  185.4510  176.2870  135.4830 C   0  0  0  0  0  0  0  0  0  0  0  0
  188.1960  178.5120  138.9370 N   0  0  0  0  0  0  0  0  0  0  0  0
  186.7990  177.1900  137.3360 C   0  0  1  0  0  3  0  0  0  0  0  0
  186.5960  176.1730  134.6450 N   0  0  0  0  0  2  0  0  0  0  0  0
  192.0780  174.5640  137.7210 C   0  0  0  0  0  3  0  0  0  0  0  0
  190.2580  176.6050  137.0980 C   0  0  0  0  0  0  0  0  0  0  0  0
  189.9410  175.2640  136.8250 C   0  0  0  0  0  3  0  0  0  0  0  0
  190.8490  174.2480  137.1330 C   0  0  0  0  0  3  0  0  0  0  0  0
  192.3970  175.8960  137.9990 C   0  0  0  0  0  3  0  0  0  0  0  0
  191.4880  176.9130  137.6900 C   0  0  0  0  0  3  0  0  0  0  0  0
  188.5300  177.3480  139.7540 C   0  0  0  0  0  2  0  0  0  0  0  0
  189.0980  177.7810  141.0970 C   0  0  0  0  0  2  0  0  0  0  0  0
  190.2770  176.9120  141.5100 C   0  0  0  0  0  2  0  0  0  0  0  0
  190.1090  176.3810  142.9230 C   0  0  1  0  0  3  0  0  0  0  0  0
  188.6560  176.5070  143.3320 C   0  0  0  0  0  1  0  0  0  0  0  0
  190.4820  175.0380  142.9710 O   0  0  0  0  0  1  0  0  0  0  0  0
  1 13  1  0  0  0  0
  2 10  1  0  0  0  0
  2 14  1  0  0  0  0
  3 13  1  0  0  0  0
  4 11  1  0  0  0  0
  6  2  2  0  0  0  0
  7  8  1  6  0  0  0
  9 12  1  6  0  0  0
  9 14  1  0  0  0  0
  9  7  1  0  0  0  0
 10 17  1  1  0  0  0
 10  1  1  0  0  0  0
 11  5  1  0  0  0  0
 11  7  1  0  0  0  0
 12  4  2  0  0  0  0
 13 22  1  0  0  0  0
 14  3  1  1  0  0  0
 15  6  1  0  0  0  0
 15 12  1  0  0  0  0
 16 20  1  0  0  0  0
 17 21  1  0  0  0  0
 18 17  2  0  0  0  0
 18 19  1  0  0  0  0
 19 16  2  0  0  0  0
 21 20  2  0  0  0  0
 22 23  1  0  0  0  0
 23 24  1  0  0  0  0
 24 25  1  0  0  0  0
 25 27  1  0  0  0  0
 25 26  1  6  0  0  0
M  END
>  <MODEL>
8

>  <REMARK>
 VINA RESULT:      -5.6      3.336      6.179
  Name = 
  5 active torsions:
  status: ('A' for Active; 'I' for Inactive)
    1  A    between atoms: C_9  and  C_15
    2  A    between atoms: C_10  and  C_13
    3  A    between atoms: C_10  and  C_20
    4  A    between atoms: N_18  and  C_26
    5  A    between atoms: C_20  and  C_26
                            x       y       z     vdW  Elec       q    Type
                         _______ _______ _______ _____ _____    ______ ____

>  <TORSDO>
F 5

$$$$
=
 OpenBabel10272401053D

 27 30  0  0  1  0  0  0  0  0999 V2000
  187.5440  177.9440  136.4380 C   0  0  0  0  0  2  0  0  0  0  0  0
  186.2760  178.4160  138.5880 C   0  0  0  0  0  0  0  0  0  0  0  0
  188.6580  177.6400  138.5700 C   0  0  0  0  0  2  0  0  0  0  0  0
  186.2670  178.3050  142.5780 N   0  0  0  0  0  0  0  0  0  0  0  0
  187.5660  176.8240  144.1050 C   0  0  0  0  0  1  0  0  0  0  0  0
  185.2850  179.0840  139.2050 C   0  0  0  0  0  3  0  0  0  0  0  0
  188.3240  177.5150  141.7500 C   0  0  2  0  0  3  0  0  0  0  0  0
  189.6980  178.0620  142.0870 C   0  0  0  0  0  1  0  0  0  0  0  0
  187.6530  178.4150  140.7090 C   0  0  2  0  0  3  0  0  0  0  0  0
  186.1810  178.1940  137.1070 C   0  0  2  0  0  3  0  0  0  0  0  0
  187.4420  177.6300  142.9030 N   0  0  0  0  0  0  0  0  0  0  0  0
  186.3680  178.7520  141.3780 C   0  0  0  0  0  0  0  0  0  0  0  0
  188.4650  177.1050  137.2180 N   0  0  0  0  0  0  0  0  0  0  0  0
  187.3630  177.7040  139.3830 C   0  0  1  0  0  3  0  0  0  0  0  0
  185.2520  179.2220  140.6310 N   0  0  0  0  0  2  0  0  0  0  0  0
  183.1800  175.2970  136.0250 C   0  0  0  0  0  3  0  0  0  0  0  0
  185.1470  177.1760  136.7040 C   0  0  0  0  0  0  0  0  0  0  0  0
  184.8630  176.9030  135.3560 C   0  0  0  0  0  3  0  0  0  0  0  0
  183.8840  175.9640  135.0180 C   0  0  0  0  0  3  0  0  0  0  0  0
  183.4550  175.5690  137.3680 C   0  0  0  0  0  3  0  0  0  0  0  0
  184.4350  176.5070  137.7060 C   0  0  0  0  0  3  0  0  0  0  0  0
  188.0050  175.7190  137.2590 C   0  0  0  0  0  2  0  0  0  0  0  0
  187.8920  175.1500  135.8520 C   0  0  0  0  0  2  0  0  0  0  0  0
  187.1040  173.8480  135.8390 C   0  0  0  0  0  2  0  0  0  0  0  0
  187.0000  173.2470  137.2300 C   0  0  1  0  0  3  0  0  0  0  0  0
  185.5670  172.8330  137.4880 C   0  0  0  0  0  1  0  0  0  0  0  0
  187.8230  172.1250  137.3220 O   0  0  0  0  0  1  0  0  0  0  0  0
  1 10  1  0  0  0  0
  1 13  1  0  0  0  0
  2  6  2  0  0  0  0
  2 14  1  0  0  0  0
  4 11  1  0  0  0  0
  6 15  1  0  0  0  0
  7  8  1  1  0  0  0
  7 11  1  0  0  0  0
  9 12  1  1  0  0  0
  9  7  1  0  0  0  0
 10 17  1  1  0  0  0
 10  2  1  0  0  0  0
 11  5  1  0  0  0  0
 12  4  2  0  0  0  0
 13 22  1  0  0  0  0
 13  3  1  0  0  0  0
 14  3  1  6  0  0  0
 14  9  1  0  0  0  0
 15 12  1  0  0  0  0
 16 20  1  0  0  0  0
 17 21  1  0  0  0  0
 18 17  2  0  0  0  0
 19 18  1  0  0  0  0
 19 16  2  0  0  0  0
 20 21  2  0  0  0  0
 23 22  1  0  0  0  0
 24 23  1  0  0  0  0
 24 25  1  0  0  0  0
 25 27  1  0  0  0  0
 25 26  1  6  0  0  0
M  END
>  <MODEL>
9

>  <REMARK>
 VINA RESULT:      -5.4      3.679      8.393
  Name = 
  5 active torsions:
  status: ('A' for Active; 'I' for Inactive)
    1  A    between atoms: C_9  and  C_15
    2  A    between atoms: C_10  and  C_13
    3  A    between atoms: C_10  and  C_20
    4  A    between atoms: N_18  and  C_26
    5  A    between atoms: C_20  and  C_26
                            x       y       z     vdW  Elec       q    Type
                         _______ _______ _______ _____ _____    ______ ____

>  <TORSDO>
F 5

$$$$
