=
 OpenBabel10272402083D

 32 38  0  0  1  0  0  0  0  0999 V2000
  189.7680  175.9590  143.4870 C   0  0  1  0  0  3  0  0  0  0  0  0
  188.6420  177.5880  144.8080 C   0  0  1  0  0  0  0  0  0  0  0  0
  188.9810  178.0050  139.2180 C   0  0  1  0  0  3  0  0  0  0  0  0
  190.8380  176.0330  142.5050 N   0  0  0  0  0  2  0  0  0  0  0  0
  190.0040  177.0060  144.5630 C   0  0  1  0  0  3  0  0  0  0  0  0
  188.3540  178.2860  146.0830 C   0  0  2  0  0  3  0  0  0  0  0  0
  188.6280  179.2990  138.5030 C   0  0  0  0  0  1  0  0  0  0  0  0
  187.8330  177.5560  143.5290 C   0  0  1  0  0  3  0  0  0  0  0  0
  189.5550  178.2920  147.0620 C   0  0  1  0  0  3  0  0  0  0  0  0
  190.5000  177.7020  139.1040 C   0  0  1  0  0  3  0  0  0  0  0  0
  190.3190  176.5230  141.2860 C   0  0  0  0  0  0  0  0  0  0  0  0
  187.9510  176.9500  145.8600 O   0  0  0  0  0  0  0  0  0  0  0  0
  190.6110  176.4750  145.7780 N   0  0  0  0  0  0  0  0  0  0  0  0
  191.0870  176.9880  140.3020 C   0  0  0  0  0  3  0  0  0  0  0  0
  188.4470  178.0110  140.6590 C   0  0  2  0  0  3  0  0  0  0  0  0
  188.9870  179.0910  141.3710 O   0  0  0  0  0  1  0  0  0  0  0  0
  188.4590  176.3800  142.7560 C   0  0  1  0  0  3  0  0  0  0  0  0
  188.9800  178.4250  148.4630 C   0  0  0  0  0  1  0  0  0  0  0  0
  188.8500  176.6750  141.2960 C   0  0  2  0  0  3  0  0  0  0  0  0
  190.4870  177.0750  146.9290 C   0  0  0  0  0  0  0  0  0  0  0  0
  184.4430  178.8270  144.4320 C   0  0  0  0  0  2  0  0  0  0  0  0
  184.2720  178.5940  142.9350 C   0  0  2  0  0  3  0  0  0  0  0  0
  185.4780  177.8150  142.4420 C   0  0  2  0  0  3  0  0  0  0  0  0
  186.3030  177.4790  143.6900 C   0  0  2  0  0  3  0  0  0  0  0  0
  185.3630  179.3060  142.1600 C   0  0  0  0  0  2  0  0  0  0  0  0
  185.8110  178.3220  144.8460 C   0  0  0  0  0  2  0  0  0  0  0  0
  191.2470  176.5850  147.9980 O   0  0  0  0  0  0  0  0  0  0  0  0
  192.3650  175.7250  147.8390 C   0  0  0  0  0  2  0  0  0  0  0  0
  193.3130  175.9070  149.0060 C   0  0  0  0  0  1  0  0  0  0  0  0
  190.7900  176.8860  137.8540 C   0  0  0  0  0  2  0  0  0  0  0  0
  190.4750  174.5300  137.8330 O   0  0  0  0  0  1  0  0  0  0  0  0
  189.8010  175.7430  137.7180 C   0  0  0  0  0  2  0  0  0  0  0  0
  1  4  1  6  0  0  0
  1  5  1  0  0  0  0
  2 12  1  1  0  0  0
  2  6  1  0  0  0  0
  3  7  1  1  0  0  0
  3 15  1  0  0  0  0
  5  2  1  0  0  0  0
  5 13  1  1  0  0  0
  6 12  1  1  0  0  0
  6  9  1  0  0  0  0
  8 24  1  1  0  0  0
  8  2  1  0  0  0  0
  9 18  1  1  0  0  0
 10 30  1  6  0  0  0
 10  3  1  0  0  0  0
 10 14  1  0  0  0  0
 11 19  1  0  0  0  0
 11  4  1  0  0  0  0
 13 20  2  0  0  0  0
 14 11  2  0  0  0  0
 15 19  1  0  0  0  0
 15 16  1  1  0  0  0
 17  1  1  0  0  0  0
 17  8  1  0  0  0  0
 19 17  1  0  0  0  0
 20  9  1  0  0  0  0
 20 27  1  0  0  0  0
 21 26  1  0  0  0  0
 22 21  1  0  0  0  0
 23 22  1  0  0  0  0
 23 24  1  0  0  0  0
 24 26  1  0  0  0  0
 25 23  1  0  0  0  0
 25 22  1  0  0  0  0
 28 27  1  0  0  0  0
 28 29  1  0  0  0  0
 32 31  1  0  0  0  0
 32 30  1  0  0  0  0
M  END
>  <MODEL>
1

>  <REMARK>
 VINA RESULT:      -8.1      0.000      0.000
  Name = 
  5 active torsions:
  status: ('A' for Active; 'I' for Inactive)
    1  A    between atoms: C_10  and  C_28
    2  A    between atoms: O_14  and  C_21
    3  A    between atoms: O_14  and  C_29
    4  A    between atoms: C_15  and  C_19
    5  A    between atoms: C_19  and  C_26
                            x       y       z     vdW  Elec       q    Type
                         _______ _______ _______ _____ _____    ______ ____

>  <TORSDO>
F 5

$$$$
=
 OpenBabel10272402083D

 32 38  0  0  1  0  0  0  0  0999 V2000
  191.1230  178.0050  141.7010 C   0  0  1  0  0  3  0  0  0  0  0  0
  189.3210  177.2730  140.3290 C   0  0  1  0  0  0  0  0  0  0  0  0
  189.0130  177.2030  145.9360 C   0  0  1  0  0  3  0  0  0  0  0  0
  191.8720  177.3870  142.7840 N   0  0  0  0  0  2  0  0  0  0  0  0
  190.7400  176.9420  140.6860 C   0  0  1  0  0  3  0  0  0  0  0  0
  188.7450  176.7850  139.0540 C   0  0  2  0  0  3  0  0  0  0  0  0
  187.9090  176.4440  146.6540 C   0  0  0  0  0  1  0  0  0  0  0  0
  188.6230  177.8900  141.5230 C   0  0  1  0  0  3  0  0  0  0  0  0
  189.7520  175.9780  138.1970 C   0  0  1  0  0  3  0  0  0  0  0  0
  190.3970  176.5430  146.1860 C   0  0  1  0  0  3  0  0  0  0  0  0
  191.0930  177.4090  143.9610 C   0  0  0  0  0  0  0  0  0  0  0  0
  189.2190  178.1080  139.1960 O   0  0  0  0  0  0  0  0  0  0  0  0
  191.6150  176.8990  139.5190 N   0  0  0  0  0  0  0  0  0  0  0  0
  191.3640  176.6600  145.0290 C   0  0  0  0  0  3  0  0  0  0  0  0
  188.6690  177.3980  144.4510 C   0  0  2  0  0  3  0  0  0  0  0  0
  188.4870  176.1560  143.8290 O   0  0  0  0  0  1  0  0  0  0  0  0
  189.7850  178.5160  142.3160 C   0  0  1  0  0  3  0  0  0  0  0  0
  189.2970  176.1020  136.7520 C   0  0  0  0  0  1  0  0  0  0  0  0
  189.8330  178.1680  143.8150 C   0  0  2  0  0  3  0  0  0  0  0  0
  191.2200  176.4000  138.3820 C   0  0  0  0  0  0  0  0  0  0  0  0
  185.2050  178.8320  140.3570 C   0  0  0  0  0  2  0  0  0  0  0  0
  185.1370  179.2610  141.8190 C   0  0  2  0  0  3  0  0  0  0  0  0
  186.5440  179.2010  142.3890 C   0  0  2  0  0  3  0  0  0  0  0  0
  187.4630  178.8560  141.2120 C   0  0  2  0  0  3  0  0  0  0  0  0
  185.5340  178.1130  142.7260 C   0  0  0  0  0  2  0  0  0  0  0  0
  186.6180  178.3730  140.0540 C   0  0  0  0  0  2  0  0  0  0  0  0
  192.1830  176.2460  137.3760 O   0  0  0  0  0  0  0  0  0  0  0  0
  193.4230  175.5820  137.5690 C   0  0  0  0  0  2  0  0  0  0  0  0
  193.2230  174.0880  137.4260 C   0  0  0  0  0  1  0  0  0  0  0  0
  191.0480  177.1230  147.4320 C   0  0  0  0  0  2  0  0  0  0  0  0
  192.9540  176.9210  148.8370 O   0  0  0  0  0  1  0  0  0  0  0  0
  192.1700  176.2260  147.9190 C   0  0  0  0  0  2  0  0  0  0  0  0
  1 17  1  0  0  0  0
  1  4  1  1  0  0  0
  2 12  1  6  0  0  0
  2  5  1  0  0  0  0
  2  8  1  0  0  0  0
  3 10  1  0  0  0  0
  3  7  1  6  0  0  0
  4 11  1  0  0  0  0
  5 13  1  6  0  0  0
  5  1  1  0  0  0  0
  6 12  1  6  0  0  0
  6  2  1  0  0  0  0
  8 24  1  6  0  0  0
  8 17  1  0  0  0  0
  9 18  1  6  0  0  0
  9 20  1  0  0  0  0
  9  6  1  0  0  0  0
 10 30  1  1  0  0  0
 11 14  2  0  0  0  0
 14 10  1  0  0  0  0
 15 16  1  6  0  0  0
 15  3  1  0  0  0  0
 17 19  1  0  0  0  0
 19 11  1  0  0  0  0
 19 15  1  0  0  0  0
 20 13  2  0  0  0  0
 21 22  1  0  0  0  0
 22 23  1  0  0  0  0
 22 25  1  0  0  0  0
 23 25  1  0  0  0  0
 24 23  1  0  0  0  0
 26 21  1  0  0  0  0
 26 24  1  0  0  0  0
 27 28  1  0  0  0  0
 27 20  1  0  0  0  0
 29 28  1  0  0  0  0
 30 32  1  0  0  0  0
 32 31  1  0  0  0  0
M  END
>  <MODEL>
2

>  <REMARK>
 VINA RESULT:      -7.3      1.722      6.830
  Name = 
  5 active torsions:
  status: ('A' for Active; 'I' for Inactive)
    1  A    between atoms: C_10  and  C_28
    2  A    between atoms: O_14  and  C_21
    3  A    between atoms: O_14  and  C_29
    4  A    between atoms: C_15  and  C_19
    5  A    between atoms: C_19  and  C_26
                            x       y       z     vdW  Elec       q    Type
                         _______ _______ _______ _____ _____    ______ ____

>  <TORSDO>
F 5

$$$$
=
 OpenBabel10272402083D

 32 38  0  0  1  0  0  0  0  0999 V2000
  192.1150  177.6640  139.9200 C   0  0  1  0  0  3  0  0  0  0  0  0
  191.2050  176.0930  138.3790 C   0  0  1  0  0  0  0  0  0  0  0  0
  188.6200  177.3790  143.1960 C   0  0  1  0  0  3  0  0  0  0  0  0
  192.4450  177.6020  141.3340 N   0  0  0  0  0  2  0  0  0  0  0  0
  192.3830  176.3100  139.2830 C   0  0  1  0  0  3  0  0  0  0  0  0
  191.3050  175.1420  137.2470 C   0  0  2  0  0  3  0  0  0  0  0  0
  187.4730  176.5330  143.7240 C   0  0  0  0  0  1  0  0  0  0  0  0
  189.9780  176.7550  138.9690 C   0  0  1  0  0  3  0  0  0  0  0  0
  192.7040  174.4860  137.1220 C   0  0  1  0  0  3  0  0  0  0  0  0
  189.8690  177.2560  144.1120 C   0  0  1  0  0  3  0  0  0  0  0  0
  191.2570  177.6890  142.0940 C   0  0  0  0  0  0  0  0  0  0  0  0
  191.4340  176.5360  137.0590 O   0  0  0  0  0  0  0  0  0  0  0  0
  193.6540  176.2360  138.5720 N   0  0  0  0  0  0  0  0  0  0  0  0
  191.1910  177.3590  143.3830 C   0  0  0  0  0  3  0  0  0  0  0  0
  188.8930  177.0720  141.7160 C   0  0  2  0  0  3  0  0  0  0  0  0
  189.2100  175.7160  141.5530 O   0  0  0  0  0  1  0  0  0  0  0  0
  190.5750  177.8850  139.8270 C   0  0  1  0  0  3  0  0  0  0  0  0
  192.8740  174.0900  135.6640 C   0  0  0  0  0  1  0  0  0  0  0  0
  190.0590  177.9660  141.2760 C   0  0  2  0  0  3  0  0  0  0  0  0
  193.8620  175.3660  137.6240 C   0  0  0  0  0  0  0  0  0  0  0  0
  186.6170  176.7210  137.3450 C   0  0  0  0  0  2  0  0  0  0  0  0
  186.6430  178.1330  137.9200 C   0  0  2  0  0  3  0  0  0  0  0  0
  188.0590  178.4210  138.3880 C   0  0  2  0  0  3  0  0  0  0  0  0
  188.8980  177.2100  137.9670 C   0  0  2  0  0  3  0  0  0  0  0  0
  186.9680  178.0970  139.4000 C   0  0  0  0  0  2  0  0  0  0  0  0
  187.9700  176.0790  137.5820 C   0  0  0  0  0  2  0  0  0  0  0  0
  195.1650  175.2560  137.1220 O   0  0  0  0  0  0  0  0  0  0  0  0
  196.0060  174.1370  137.3550 C   0  0  0  0  0  2  0  0  0  0  0  0
  196.1500  173.9140  138.8460 C   0  0  0  0  0  1  0  0  0  0  0  0
  189.8300  178.3070  145.2110 C   0  0  0  0  0  2  0  0  0  0  0  0
  190.4930  176.6810  146.8130 O   0  0  0  0  0  1  0  0  0  0  0  0
  189.5430  177.6660  146.5560 C   0  0  0  0  0  2  0  0  0  0  0  0
  1  4  1  1  0  0  0
  2 12  1  6  0  0  0
  2  8  1  0  0  0  0
  2  5  1  0  0  0  0
  3  7  1  1  0  0  0
  3 10  1  0  0  0  0
  4 11  1  0  0  0  0
  5 13  1  6  0  0  0
  5  1  1  0  0  0  0
  6 12  1  6  0  0  0
  6  2  1  0  0  0  0
  8 24  1  6  0  0  0
  8 17  1  0  0  0  0
  9 18  1  6  0  0  0
  9  6  1  0  0  0  0
  9 20  1  0  0  0  0
 10 30  1  1  0  0  0
 11 14  2  0  0  0  0
 14 10  1  0  0  0  0
 15 16  1  1  0  0  0
 15  3  1  0  0  0  0
 17  1  1  0  0  0  0
 17 19  1  0  0  0  0
 19 15  1  0  0  0  0
 19 11  1  0  0  0  0
 20 13  2  0  0  0  0
 21 26  1  0  0  0  0
 21 22  1  0  0  0  0
 22 23  1  0  0  0  0
 22 25  1  0  0  0  0
 23 25  1  0  0  0  0
 24 23  1  0  0  0  0
 26 24  1  0  0  0  0
 27 28  1  0  0  0  0
 27 20  1  0  0  0  0
 28 29  1  0  0  0  0
 30 32  1  0  0  0  0
 32 31  1  0  0  0  0
M  END
>  <MODEL>
3

>  <REMARK>
 VINA RESULT:      -7.0      2.698      7.413
  Name = 
  5 active torsions:
  status: ('A' for Active; 'I' for Inactive)
    1  A    between atoms: C_10  and  C_28
    2  A    between atoms: O_14  and  C_21
    3  A    between atoms: O_14  and  C_29
    4  A    between atoms: C_15  and  C_19
    5  A    between atoms: C_19  and  C_26
                            x       y       z     vdW  Elec       q    Type
                         _______ _______ _______ _____ _____    ______ ____

>  <TORSDO>
F 5

$$$$
=
 OpenBabel10272402083D

 32 38  0  0  1  0  0  0  0  0999 V2000
  188.3660  178.4940  139.2070 C   0  0  1  0  0  3  0  0  0  0  0  0
  189.8990  176.8410  139.9720 C   0  0  1  0  0  0  0  0  0  0  0  0
  186.5160  175.9570  135.5770 C   0  0  1  0  0  3  0  0  0  0  0  0
  186.9310  178.4960  138.9730 N   0  0  0  0  0  2  0  0  0  0  0  0
  188.6780  177.6020  140.3980 C   0  0  1  0  0  3  0  0  0  0  0  0
  190.7830  176.2300  140.9920 C   0  0  2  0  0  3  0  0  0  0  0  0
  186.3140  174.5630  135.0070 C   0  0  0  0  0  1  0  0  0  0  0  0
  189.8720  176.6260  138.4740 C   0  0  1  0  0  3  0  0  0  0  0  0
  190.3200  176.5030  142.4460 C   0  0  1  0  0  3  0  0  0  0  0  0
  185.2130  176.4810  136.2420 C   0  0  1  0  0  3  0  0  0  0  0  0
  186.6550  177.8180  137.7650 C   0  0  0  0  0  0  0  0  0  0  0  0
  191.1020  177.4590  140.3740 O   0  0  0  0  0  0  0  0  0  0  0  0
  188.8810  178.3330  141.6430 N   0  0  0  0  0  0  0  0  0  0  0  0
  185.4390  177.3870  137.4320 C   0  0  0  0  0  3  0  0  0  0  0  0
  187.7500  176.0040  136.4910 C   0  0  2  0  0  3  0  0  0  0  0  0
  187.6060  175.0940  137.5470 O   0  0  0  0  0  1  0  0  0  0  0  0
  189.0210  177.8070  137.9720 C   0  0  1  0  0  3  0  0  0  0  0  0
  191.5570  176.4150  143.3250 C   0  0  0  0  0  1  0  0  0  0  0  0
  187.8710  177.4400  137.0160 C   0  0  2  0  0  3  0  0  0  0  0  0
  189.5680  177.8320  142.6310 C   0  0  0  0  0  0  0  0  0  0  0  0
  192.6140  174.8000  136.7180 C   0  0  0  0  0  2  0  0  0  0  0  0
  192.2070  175.8060  135.6470 C   0  0  2  0  0  3  0  0  0  0  0  0
  191.2770  176.8210  136.2870 C   0  0  2  0  0  3  0  0  0  0  0  0
  191.2410  176.4780  137.7800 C   0  0  2  0  0  3  0  0  0  0  0  0
  190.7160  175.7290  135.3870 C   0  0  0  0  0  2  0  0  0  0  0  0
  191.8330  175.1010  137.9830 C   0  0  0  0  0  2  0  0  0  0  0  0
  189.5610  178.5330  143.8440 O   0  0  0  0  0  0  0  0  0  0  0  0
  189.0510  178.0010  145.0570 C   0  0  0  0  0  2  0  0  0  0  0  0
  187.6320  177.5190  144.8400 C   0  0  0  0  0  1  0  0  0  0  0  0
  184.3510  177.2120  135.2240 C   0  0  0  0  0  2  0  0  0  0  0  0
  182.9300  175.4060  135.8320 O   0  0  0  0  0  1  0  0  0  0  0  0
  182.9390  176.6560  135.2180 C   0  0  0  0  0  2  0  0  0  0  0  0
  1  4  1  6  0  0  0
  1  5  1  0  0  0  0
  2 12  1  6  0  0  0
  2  5  1  0  0  0  0
  2  6  1  0  0  0  0
  3  7  1  1  0  0  0
  3 10  1  0  0  0  0
  3 15  1  0  0  0  0
  5 13  1  1  0  0  0
  6 12  1  1  0  0  0
  6  9  1  0  0  0  0
  8 24  1  6  0  0  0
  8  2  1  0  0  0  0
  9 20  1  0  0  0  0
  9 18  1  1  0  0  0
 10 30  1  6  0  0  0
 10 14  1  0  0  0  0
 11  4  1  0  0  0  0
 13 20  2  0  0  0  0
 14 11  2  0  0  0  0
 15 19  1  0  0  0  0
 15 16  1  1  0  0  0
 17  8  1  0  0  0  0
 17  1  1  0  0  0  0
 19 11  1  0  0  0  0
 19 17  1  0  0  0  0
 20 27  1  0  0  0  0
 21 26  1  0  0  0  0
 22 23  1  0  0  0  0
 22 21  1  0  0  0  0
 23 24  1  0  0  0  0
 24 26  1  0  0  0  0
 25 22  1  0  0  0  0
 25 23  1  0  0  0  0
 27 28  1  0  0  0  0
 29 28  1  0  0  0  0
 32 30  1  0  0  0  0
 32 31  1  0  0  0  0
M  END
>  <MODEL>
4

>  <REMARK>
 VINA RESULT:      -7.0      3.317      6.687
  Name = 
  5 active torsions:
  status: ('A' for Active; 'I' for Inactive)
    1  A    between atoms: C_10  and  C_28
    2  A    between atoms: O_14  and  C_21
    3  A    between atoms: O_14  and  C_29
    4  A    between atoms: C_15  and  C_19
    5  A    between atoms: C_19  and  C_26
                            x       y       z     vdW  Elec       q    Type
                         _______ _______ _______ _____ _____    ______ ____

>  <TORSDO>
F 5

$$$$
=
 OpenBabel10272402083D

 32 38  0  0  1  0  0  0  0  0999 V2000
  186.3190  179.0100  140.0610 C   0  0  1  0  0  3  0  0  0  0  0  0
  184.4890  178.1250  141.3010 C   0  0  1  0  0  0  0  0  0  0  0  0
  189.8220  177.2320  142.8180 C   0  0  1  0  0  3  0  0  0  0  0  0
  187.4960  178.4130  139.4510 N   0  0  0  0  0  2  0  0  0  0  0  0
  185.1540  178.0390  139.9580 C   0  0  1  0  0  3  0  0  0  0  0  0
  183.0750  177.7080  141.4540 C   0  0  2  0  0  3  0  0  0  0  0  0
  190.1800  176.1760  143.8510 C   0  0  0  0  0  1  0  0  0  0  0  0
  185.5220  178.4210  142.3670 C   0  0  1  0  0  3  0  0  0  0  0  0
  182.4260  177.2450  140.1260 C   0  0  1  0  0  3  0  0  0  0  0  0
  190.3480  176.8350  141.4110 C   0  0  1  0  0  3  0  0  0  0  0  0
  188.4430  178.1180  140.4560 C   0  0  0  0  0  0  0  0  0  0  0  0
  183.4400  179.0680  141.3370 O   0  0  0  0  0  0  0  0  0  0  0  0
  184.2390  178.3320  138.8610 N   0  0  0  0  0  0  0  0  0  0  0  0
  189.4780  177.3000  140.2640 C   0  0  0  0  0  3  0  0  0  0  0  0
  188.3200  177.5540  142.8600 C   0  0  2  0  0  3  0  0  0  0  0  0
  187.5690  176.3970  142.6120 O   0  0  0  0  0  1  0  0  0  0  0  0
  186.6270  179.1530  141.5820 C   0  0  1  0  0  3  0  0  0  0  0  0
  180.9300  177.4700  140.2660 C   0  0  0  0  0  1  0  0  0  0  0  0
  188.0570  178.6210  141.7900 C   0  0  2  0  0  3  0  0  0  0  0  0
  183.0010  177.9240  138.8700 C   0  0  0  0  0  0  0  0  0  0  0  0
  183.6870  178.7890  145.5950 C   0  0  0  0  0  2  0  0  0  0  0  0
  185.1200  179.0450  146.0500 C   0  0  2  0  0  3  0  0  0  0  0  0
  185.9820  179.2040  144.8100 C   0  0  2  0  0  3  0  0  0  0  0  0
  185.0190  179.1670  143.6180 C   0  0  2  0  0  3  0  0  0  0  0  0
  186.0250  177.9110  145.6120 C   0  0  0  0  0  2  0  0  0  0  0  0
  183.6780  178.6480  144.0860 C   0  0  0  0  0  2  0  0  0  0  0  0
  182.2530  178.1040  137.7000 O   0  0  0  0  0  0  0  0  0  0  0  0
  182.5990  177.5280  136.4490 C   0  0  0  0  0  2  0  0  0  0  0  0
  182.5580  176.0180  136.5600 C   0  0  0  0  0  1  0  0  0  0  0  0
  191.7600  177.3590  141.2010 C   0  0  0  0  0  2  0  0  0  0  0  0
  193.5350  177.2880  139.6230 O   0  0  0  0  0  1  0  0  0  0  0  0
  192.1480  177.2880  139.7370 C   0  0  0  0  0  2  0  0  0  0  0  0
  1  4  1  6  0  0  0
  1 17  1  0  0  0  0
  2 12  1  6  0  0  0
  2  6  1  0  0  0  0
  2  8  1  0  0  0  0
  3 15  1  0  0  0  0
  3  7  1  1  0  0  0
  4 11  1  0  0  0  0
  5 13  1  6  0  0  0
  5  1  1  0  0  0  0
  5  2  1  0  0  0  0
  6 12  1  6  0  0  0
  8 24  1  1  0  0  0
  9 18  1  1  0  0  0
  9  6  1  0  0  0  0
 10 30  1  6  0  0  0
 10  3  1  0  0  0  0
 11 19  1  0  0  0  0
 13 20  2  0  0  0  0
 14 11  2  0  0  0  0
 14 10  1  0  0  0  0
 15 16  1  6  0  0  0
 17 19  1  0  0  0  0
 17  8  1  0  0  0  0
 19 15  1  0  0  0  0
 20  9  1  0  0  0  0
 21 22  1  0  0  0  0
 23 25  1  0  0  0  0
 23 22  1  0  0  0  0
 24 26  1  0  0  0  0
 24 23  1  0  0  0  0
 25 22  1  0  0  0  0
 26 21  1  0  0  0  0
 27 20  1  0  0  0  0
 28 29  1  0  0  0  0
 28 27  1  0  0  0  0
 31 32  1  0  0  0  0
 32 30  1  0  0  0  0
M  END
>  <MODEL>
5

>  <REMARK>
 VINA RESULT:      -7.0      3.487      6.992
  Name = 
  5 active torsions:
  status: ('A' for Active; 'I' for Inactive)
    1  A    between atoms: C_10  and  C_28
    2  A    between atoms: O_14  and  C_21
    3  A    between atoms: O_14  and  C_29
    4  A    between atoms: C_15  and  C_19
    5  A    between atoms: C_19  and  C_26
                            x       y       z     vdW  Elec       q    Type
                         _______ _______ _______ _____ _____    ______ ____

>  <TORSDO>
F 5

$$$$
=
 OpenBabel10272402083D

 32 38  0  0  1  0  0  0  0  0999 V2000
  187.5130  178.5630  139.0030 C   0  0  1  0  0  3  0  0  0  0  0  0
  189.3210  177.0700  139.4150 C   0  0  1  0  0  0  0  0  0  0  0  0
  185.2940  175.9100  135.6760 C   0  0  1  0  0  3  0  0  0  0  0  0
  186.0670  178.4150  139.0340 N   0  0  0  0  0  2  0  0  0  0  0  0
  188.1280  177.6880  140.0830 C   0  0  1  0  0  3  0  0  0  0  0  0
  190.4360  176.5390  140.2340 C   0  0  2  0  0  3  0  0  0  0  0  0
  185.1340  174.5120  135.1000 C   0  0  0  0  0  1  0  0  0  0  0  0
  189.0410  176.8810  137.9390 C   0  0  1  0  0  3  0  0  0  0  0  0
  190.2240  176.7340  141.7560 C   0  0  1  0  0  3  0  0  0  0  0  0
  184.0900  176.2780  136.5850 C   0  0  1  0  0  3  0  0  0  0  0  0
  185.6440  177.7340  137.8710 C   0  0  0  0  0  0  0  0  0  0  0  0
  190.5080  177.8070  139.6150 O   0  0  0  0  0  0  0  0  0  0  0  0
  188.4820  178.4140  141.2980 N   0  0  0  0  0  0  0  0  0  0  0  0
  184.4370  177.1810  137.7480 C   0  0  0  0  0  3  0  0  0  0  0  0
  186.6650  176.0710  136.3520 C   0  0  2  0  0  3  0  0  0  0  0  0
  186.8110  175.1320  137.3810 O   0  0  0  0  0  1  0  0  0  0  0  0
  187.9960  177.9720  137.6450 C   0  0  1  0  0  3  0  0  0  0  0  0
  191.6040  176.7630  142.3930 C   0  0  0  0  0  1  0  0  0  0  0  0
  186.7330  177.5020  136.9000 C   0  0  2  0  0  3  0  0  0  0  0  0
  189.3870  177.9710  142.1250 C   0  0  0  0  0  0  0  0  0  0  0  0
  191.5630  175.3990  135.6210 C   0  0  0  0  0  2  0  0  0  0  0  0
  190.8790  176.4010  134.6970 C   0  0  2  0  0  3  0  0  0  0  0  0
  189.9960  177.2960  135.5500 C   0  0  2  0  0  3  0  0  0  0  0  0
  190.2660  176.8940  137.0040 C   0  0  2  0  0  3  0  0  0  0  0  0
  189.3780  176.1900  134.7060 C   0  0  0  0  0  2  0  0  0  0  0  0
  191.0050  175.5740  137.0200 C   0  0  0  0  0  2  0  0  0  0  0  0
  189.5320  178.6450  143.3440 O   0  0  0  0  0  0  0  0  0  0  0  0
  189.3400  178.0310  144.6100 C   0  0  0  0  0  2  0  0  0  0  0  0
  187.9420  177.4540  144.6840 C   0  0  0  0  0  1  0  0  0  0  0  0
  182.9850  176.9300  135.7690 C   0  0  0  0  0  2  0  0  0  0  0  0
  180.8520  177.5630  136.6060 O   0  0  0  0  0  1  0  0  0  0  0  0
  182.2000  177.9140  136.6160 C   0  0  0  0  0  2  0  0  0  0  0  0
  1  4  1  6  0  0  0
  1  5  1  0  0  0  0
  2 12  1  6  0  0  0
  2  5  1  0  0  0  0
  2  6  1  0  0  0  0
  3  7  1  1  0  0  0
  3 15  1  0  0  0  0
  3 10  1  0  0  0  0
  5 13  1  1  0  0  0
  6 12  1  6  0  0  0
  6  9  1  0  0  0  0
  8 24  1  6  0  0  0
  8  2  1  0  0  0  0
  9 20  1  0  0  0  0
  9 18  1  1  0  0  0
 10 30  1  6  0  0  0
 10 14  1  0  0  0  0
 11  4  1  0  0  0  0
 13 20  2  0  0  0  0
 14 11  2  0  0  0  0
 15 19  1  0  0  0  0
 15 16  1  1  0  0  0
 17  8  1  0  0  0  0
 17  1  1  0  0  0  0
 19 17  1  0  0  0  0
 19 11  1  0  0  0  0
 20 27  1  0  0  0  0
 21 26  1  0  0  0  0
 22 25  1  0  0  0  0
 22 23  1  0  0  0  0
 22 21  1  0  0  0  0
 23 24  1  0  0  0  0
 24 26  1  0  0  0  0
 25 23  1  0  0  0  0
 27 28  1  0  0  0  0
 28 29  1  0  0  0  0
 30 32  1  0  0  0  0
 31 32  1  0  0  0  0
M  END
>  <MODEL>
6

>  <REMARK>
 VINA RESULT:      -6.6      3.765      7.081
  Name = 
  5 active torsions:
  status: ('A' for Active; 'I' for Inactive)
    1  A    between atoms: C_10  and  C_28
    2  A    between atoms: O_14  and  C_21
    3  A    between atoms: O_14  and  C_29
    4  A    between atoms: C_15  and  C_19
    5  A    between atoms: C_19  and  C_26
                            x       y       z     vdW  Elec       q    Type
                         _______ _______ _______ _____ _____    ______ ____

>  <TORSDO>
F 5

$$$$
=
 OpenBabel10272402083D

 32 38  0  0  1  0  0  0  0  0999 V2000
  191.7040  177.6640  140.5290 C   0  0  1  0  0  3  0  0  0  0  0  0
  190.3560  176.6470  138.8500 C   0  0  1  0  0  0  0  0  0  0  0  0
  188.4500  177.5520  144.0540 C   0  0  1  0  0  3  0  0  0  0  0  0
  192.0970  177.2690  141.8720 N   0  0  0  0  0  2  0  0  0  0  0  0
  191.6060  176.4270  139.6510 C   0  0  1  0  0  3  0  0  0  0  0  0
  190.1600  175.9250  137.5710 C   0  0  2  0  0  3  0  0  0  0  0  0
  187.1710  176.8970  144.5490 C   0  0  0  0  0  1  0  0  0  0  0  0
  189.3590  177.4420  139.6650 C   0  0  1  0  0  3  0  0  0  0  0  0
  191.3550  175.0120  137.1950 C   0  0  1  0  0  3  0  0  0  0  0  0
  189.6890  176.9890  144.8030 C   0  0  1  0  0  3  0  0  0  0  0  0
  191.0130  177.4730  142.7540 C   0  0  0  0  0  0  0  0  0  0  0  0
  190.6010  177.2670  137.6060 O   0  0  0  0  0  0  0  0  0  0  0  0
  192.7780  176.2080  138.8100 N   0  0  0  0  0  0  0  0  0  0  0  0
  190.9500  176.9320  143.9700 C   0  0  0  0  0  3  0  0  0  0  0  0
  188.5510  177.4730  142.5230 C   0  0  2  0  0  3  0  0  0  0  0  0
  188.5300  176.1360  142.1050 O   0  0  0  0  0  1  0  0  0  0  0  0
  190.2570  178.2330  140.6340 C   0  0  1  0  0  3  0  0  0  0  0  0
  191.3360  174.8660  135.6820 C   0  0  0  0  0  1  0  0  0  0  0  0
  189.8650  178.1550  142.1210 C   0  0  2  0  0  3  0  0  0  0  0  0
  192.7160  175.5050  137.7150 C   0  0  0  0  0  0  0  0  0  0  0  0
  187.8450  178.9310  136.5960 C   0  0  0  0  0  2  0  0  0  0  0  0
  186.6780  178.0960  137.1150 C   0  0  2  0  0  3  0  0  0  0  0  0
  187.0260  177.6280  138.5170 C   0  0  2  0  0  3  0  0  0  0  0  0
  188.3570  178.3010  138.8700 C   0  0  2  0  0  3  0  0  0  0  0  0
  187.1130  176.6620  137.3430 C   0  0  0  0  0  2  0  0  0  0  0  0
  188.9710  178.8670  137.6080 C   0  0  0  0  0  2  0  0  0  0  0  0
  193.9240  175.2070  137.0700 O   0  0  0  0  0  0  0  0  0  0  0  0
  195.0120  174.5520  137.7040 C   0  0  0  0  0  2  0  0  0  0  0  0
  194.6410  173.1100  137.9810 C   0  0  0  0  0  1  0  0  0  0  0  0
  189.9670  177.7990  146.0600 C   0  0  0  0  0  2  0  0  0  0  0  0
  191.7090  176.9030  147.4050 O   0  0  0  0  0  1  0  0  0  0  0  0
  190.3300  176.8880  147.2170 C   0  0  0  0  0  2  0  0  0  0  0  0
  1 17  1  0  0  0  0
  1  4  1  1  0  0  0
  2 12  1  6  0  0  0
  2  5  1  0  0  0  0
  2  8  1  0  0  0  0
  3  7  1  1  0  0  0
  3 10  1  0  0  0  0
  4 11  1  0  0  0  0
  5 13  1  6  0  0  0
  5  1  1  0  0  0  0
  6 12  1  6  0  0  0
  6  2  1  0  0  0  0
  8 24  1  6  0  0  0
  8 17  1  0  0  0  0
  9 18  1  6  0  0  0
  9  6  1  0  0  0  0
  9 20  1  0  0  0  0
 10 30  1  1  0  0  0
 11 14  2  0  0  0  0
 14 10  1  0  0  0  0
 15 16  1  1  0  0  0
 15  3  1  0  0  0  0
 17 19  1  0  0  0  0
 19 15  1  0  0  0  0
 19 11  1  0  0  0  0
 20 13  2  0  0  0  0
 21 22  1  0  0  0  0
 21 26  1  0  0  0  0
 22 25  1  0  0  0  0
 22 23  1  0  0  0  0
 23 24  1  0  0  0  0
 25 23  1  0  0  0  0
 26 24  1  0  0  0  0
 27 28  1  0  0  0  0
 27 20  1  0  0  0  0
 28 29  1  0  0  0  0
 30 32  1  0  0  0  0
 32 31  1  0  0  0  0
M  END
>  <MODEL>
7

>  <REMARK>
 VINA RESULT:      -6.6      2.278      7.353
  Name = 
  5 active torsions:
  status: ('A' for Active; 'I' for Inactive)
    1  A    between atoms: C_10  and  C_28
    2  A    between atoms: O_14  and  C_21
    3  A    between atoms: O_14  and  C_29
    4  A    between atoms: C_15  and  C_19
    5  A    between atoms: C_19  and  C_26
                            x       y       z     vdW  Elec       q    Type
                         _______ _______ _______ _____ _____    ______ ____

>  <TORSDO>
F 5

$$$$
=
 OpenBabel10272402083D

 32 38  0  0  1  0  0  0  0  0999 V2000
  185.9440  178.5000  138.6710 C   0  0  1  0  0  3  0  0  0  0  0  0
  184.4810  177.0900  137.4300 C   0  0  1  0  0  0  0  0  0  0  0  0
  183.1310  179.0370  142.5220 C   0  0  1  0  0  3  0  0  0  0  0  0
  186.5140  178.4230  140.0060 N   0  0  0  0  0  2  0  0  0  0  0  0
  185.8260  177.0990  138.0950 C   0  0  1  0  0  3  0  0  0  0  0  0
  184.1860  176.0980  136.3690 C   0  0  2  0  0  3  0  0  0  0  0  0
  181.9630  178.4570  143.3020 C   0  0  0  0  0  1  0  0  0  0  0  0
  183.5340  178.0040  138.1780 C   0  0  1  0  0  3  0  0  0  0  0  0
  185.3860  175.1720  136.0470 C   0  0  1  0  0  3  0  0  0  0  0  0
  184.4830  178.6990  143.2100 C   0  0  1  0  0  3  0  0  0  0  0  0
  185.5270  178.7740  140.9540 C   0  0  0  0  0  0  0  0  0  0  0  0
  184.5410  177.4310  136.0620 O   0  0  0  0  0  0  0  0  0  0  0  0
  186.9050  176.7460  137.1790 N   0  0  0  0  0  0  0  0  0  0  0  0
  185.6410  178.5090  142.2560 C   0  0  0  0  0  3  0  0  0  0  0  0
  183.0600  178.6290  141.0420 C   0  0  2  0  0  3  0  0  0  0  0  0
  183.0780  177.2330  140.9230 O   0  0  0  0  0  1  0  0  0  0  0  0
  184.4850  179.0220  138.8350 C   0  0  1  0  0  3  0  0  0  0  0  0
  185.2030  174.6980  134.6150 C   0  0  0  0  0  1  0  0  0  0  0  0
  184.2730  179.2560  140.3420 C   0  0  2  0  0  3  0  0  0  0  0  0
  186.7640  175.8190  136.2740 C   0  0  0  0  0  0  0  0  0  0  0  0
  179.9850  178.6120  137.1980 C   0  0  0  0  0  2  0  0  0  0  0  0
  180.4060  180.0120  137.6300 C   0  0  2  0  0  3  0  0  0  0  0  0
  181.9140  180.0130  137.8070 C   0  0  2  0  0  3  0  0  0  0  0  0
  182.3940  178.6300  137.3510 C   0  0  2  0  0  3  0  0  0  0  0  0
  181.0000  179.9800  139.0240 C   0  0  0  0  0  2  0  0  0  0  0  0
  181.2000  177.7070  137.2420 C   0  0  0  0  0  2  0  0  0  0  0  0
  187.9060  175.4330  135.5600 O   0  0  0  0  0  0  0  0  0  0  0  0
  189.2180  175.4600  136.1020 C   0  0  0  0  0  2  0  0  0  0  0  0
  189.5970  174.0730  136.5770 C   0  0  0  0  0  1  0  0  0  0  0  0
  184.8500  179.7740  144.2210 C   0  0  0  0  0  2  0  0  0  0  0  0
  184.3260  178.7770  146.3140 O   0  0  0  0  0  1  0  0  0  0  0  0
  185.3880  179.1520  145.4960 C   0  0  0  0  0  2  0  0  0  0  0  0
  1 17  1  0  0  0  0
  1  4  1  1  0  0  0
  2 12  1  6  0  0  0
  2  5  1  0  0  0  0
  2  8  1  0  0  0  0
  3 10  1  0  0  0  0
  3  7  1  1  0  0  0
  4 11  1  0  0  0  0
  5 13  1  6  0  0  0
  5  1  1  0  0  0  0
  6 12  1  6  0  0  0
  6  2  1  0  0  0  0
  8 24  1  6  0  0  0
  8 17  1  0  0  0  0
  9 18  1  6  0  0  0
  9 20  1  0  0  0  0
  9  6  1  0  0  0  0
 10 30  1  1  0  0  0
 11 14  2  0  0  0  0
 14 10  1  0  0  0  0
 15 16  1  1  0  0  0
 15  3  1  0  0  0  0
 17 19  1  0  0  0  0
 19 11  1  0  0  0  0
 19 15  1  0  0  0  0
 20 13  2  0  0  0  0
 21 26  1  0  0  0  0
 21 22  1  0  0  0  0
 22 23  1  0  0  0  0
 22 25  1  0  0  0  0
 23 25  1  0  0  0  0
 24 23  1  0  0  0  0
 26 24  1  0  0  0  0
 27 28  1  0  0  0  0
 27 20  1  0  0  0  0
 28 29  1  0  0  0  0
 30 32  1  0  0  0  0
 32 31  1  0  0  0  0
M  END
>  <MODEL>
8

>  <REMARK>
 VINA RESULT:      -6.5      4.525      8.913
  Name = 
  5 active torsions:
  status: ('A' for Active; 'I' for Inactive)
    1  A    between atoms: C_10  and  C_28
    2  A    between atoms: O_14  and  C_21
    3  A    between atoms: O_14  and  C_29
    4  A    between atoms: C_15  and  C_19
    5  A    between atoms: C_19  and  C_26
                            x       y       z     vdW  Elec       q    Type
                         _______ _______ _______ _____ _____    ______ ____

>  <TORSDO>
F 5

$$$$
=
 OpenBabel10272402083D

 32 38  0  0  1  0  0  0  0  0999 V2000
  192.2910  176.8040  138.3900 C   0  0  1  0  0  3  0  0  0  0  0  0
  190.9370  175.1630  137.3200 C   0  0  1  0  0  0  0  0  0  0  0  0
  189.2400  177.8770  141.9360 C   0  0  1  0  0  3  0  0  0  0  0  0
  192.7810  176.9650  139.7500 N   0  0  0  0  0  2  0  0  0  0  0  0
  192.2390  175.3240  138.0500 C   0  0  1  0  0  3  0  0  0  0  0  0
  190.7290  174.0020  136.4240 C   0  0  2  0  0  3  0  0  0  0  0  0
  188.0390  177.3960  142.7340 C   0  0  0  0  0  1  0  0  0  0  0  0
  189.9270  176.1580  137.8520 C   0  0  1  0  0  3  0  0  0  0  0  0
  191.9660  173.0740  136.3280 C   0  0  1  0  0  3  0  0  0  0  0  0
  190.5540  177.6990  142.7450 C   0  0  1  0  0  3  0  0  0  0  0  0
  191.7310  177.4360  140.5700 C   0  0  0  0  0  0  0  0  0  0  0  0
  191.0720  175.2770  135.9200 O   0  0  0  0  0  0  0  0  0  0  0  0
  193.3790  174.8590  137.2660 N   0  0  0  0  0  0  0  0  0  0  0  0
  191.7710  177.3920  141.9020 C   0  0  0  0  0  3  0  0  0  0  0  0
  189.2670  177.2300  140.5420 C   0  0  2  0  0  3  0  0  0  0  0  0
  189.3220  175.8340  140.6580 O   0  0  0  0  0  1  0  0  0  0  0  0
  190.8140  177.2990  138.3840 C   0  0  1  0  0  3  0  0  0  0  0  0
  191.8800  172.3660  134.9860 C   0  0  0  0  0  1  0  0  0  0  0  0
  190.5060  177.7710  139.8170 C   0  0  2  0  0  3  0  0  0  0  0  0
  193.3120  173.7920  136.5210 C   0  0  0  0  0  0  0  0  0  0  0  0
  186.6320  177.6130  136.8730 C   0  0  0  0  0  2  0  0  0  0  0  0
  187.5880  178.5960  136.2070 C   0  0  2  0  0  3  0  0  0  0  0  0
  188.9860  178.0060  136.2720 C   0  0  2  0  0  3  0  0  0  0  0  0
  188.8260  176.6040  136.8700 C   0  0  2  0  0  3  0  0  0  0  0  0
  188.5850  179.1310  137.2160 C   0  0  0  0  0  2  0  0  0  0  0  0
  187.4440  176.4830  137.4750 C   0  0  0  0  0  2  0  0  0  0  0  0
  194.5040  173.3310  135.9470 O   0  0  0  0  0  0  0  0  0  0  0  0
  195.5620  172.7480  136.6920 C   0  0  0  0  0  2  0  0  0  0  0  0
  195.4960  171.2400  136.5680 C   0  0  0  0  0  1  0  0  0  0  0  0
  190.8360  178.9370  143.5830 C   0  0  0  0  0  2  0  0  0  0  0  0
  190.5320  177.3310  145.3080 O   0  0  0  0  0  1  0  0  0  0  0  0
  191.1280  178.5560  145.0220 C   0  0  0  0  0  2  0  0  0  0  0  0
  1  4  1  1  0  0  0
  2 12  1  6  0  0  0
  2  8  1  0  0  0  0
  2  5  1  0  0  0  0
  3  7  1  1  0  0  0
  3 10  1  0  0  0  0
  4 11  1  0  0  0  0
  5 13  1  6  0  0  0
  5  1  1  0  0  0  0
  6 12  1  6  0  0  0
  6  2  1  0  0  0  0
  8 24  1  6  0  0  0
  8 17  1  0  0  0  0
  9 18  1  6  0  0  0
  9  6  1  0  0  0  0
  9 20  1  0  0  0  0
 10 30  1  6  0  0  0
 11 14  2  0  0  0  0
 14 10  1  0  0  0  0
 15 16  1  1  0  0  0
 15  3  1  0  0  0  0
 17  1  1  0  0  0  0
 17 19  1  0  0  0  0
 19 15  1  0  0  0  0
 19 11  1  0  0  0  0
 20 13  2  0  0  0  0
 21 26  1  0  0  0  0
 22 23  1  0  0  0  0
 22 21  1  0  0  0  0
 22 25  1  0  0  0  0
 23 24  1  0  0  0  0
 23 25  1  0  0  0  0
 24 26  1  0  0  0  0
 27 20  1  0  0  0  0
 27 28  1  0  0  0  0
 29 28  1  0  0  0  0
 30 32  1  0  0  0  0
 32 31  1  0  0  0  0
M  END
>  <MODEL>
9

>  <REMARK>
 VINA RESULT:      -6.4      3.116      8.066
  Name = 
  5 active torsions:
  status: ('A' for Active; 'I' for Inactive)
    1  A    between atoms: C_10  and  C_28
    2  A    between atoms: O_14  and  C_21
    3  A    between atoms: O_14  and  C_29
    4  A    between atoms: C_15  and  C_19
    5  A    between atoms: C_19  and  C_26
                            x       y       z     vdW  Elec       q    Type
                         _______ _______ _______ _____ _____    ______ ____

>  <TORSDO>
F 5

$$$$
