=
 OpenBabel10272400103D

 34 38  0  0  1  0  0  0  0  0999 V2000
  190.8100  175.5290  136.3590 C   0  0  1  0  0  3  0  0  0  0  0  0
  189.2500  176.9150  135.1460 C   0  0  1  0  0  3  0  0  0  0  0  0
  188.4300  175.7110  137.2450 C   0  0  1  0  0  3  0  0  0  0  0  0
  191.5590  176.1060  135.1560 C   0  0  2  0  0  3  0  0  0  0  0  0
  190.5420  176.9080  134.3510 C   0  0  0  0  0  2  0  0  0  0  0  0
  188.8520  178.1430  137.2850 C   0  0  0  0  0  3  0  0  0  0  0  0
  189.3440  175.6650  136.0110 C   0  0  2  0  0  3  0  0  0  0  0  0
  192.0820  175.0940  134.3460 O   0  0  0  0  0  1  0  0  0  0  0  0
  189.2130  178.1090  135.9330 O   0  0  0  0  0  0  0  0  0  0  0  0
  188.5040  177.0370  137.9590 C   0  0  0  0  0  0  0  0  0  0  0  0
  186.5410  173.9590  137.3510 C   0  0  1  0  0  3  0  0  0  0  0  0
  184.6420  172.5220  137.6260 O   0  0  0  0  0  1  0  0  0  0  0  0
  184.1490  174.6920  136.7610 C   0  0  0  0  0  2  0  0  0  0  0  0
  184.2160  174.6920  134.3470 O   0  0  0  0  0  1  0  0  0  0  0  0
  186.9730  175.3630  136.8810 C   0  0  2  0  0  3  0  0  0  0  0  0
  185.1570  173.5450  136.8300 C   0  0  1  0  0  3  0  0  0  0  0  0
  185.5880  176.3350  135.4490 C   0  0  0  0  0  2  0  0  0  0  0  0
  184.2990  175.5120  135.4750 C   0  0  2  0  0  3  0  0  0  0  0  0
  186.7210  175.5120  135.5100 O   0  0  0  0  0  0  0  0  0  0  0  0
  187.5510  172.8980  136.9370 C   0  0  0  0  0  1  0  0  0  0  0  0
  188.1800  177.0630  139.4340 C   0  0  2  0  0  3  0  0  0  0  0  0
  187.8770  178.4870  139.8690 C   0  0  2  0  0  3  0  0  0  0  0  0
  189.1820  177.8370  140.2780 C   0  0  0  0  0  2  0  0  0  0  0  0
  186.9120  178.4560  141.0400 C   0  0  0  0  0  2  0  0  0  0  0  0
  187.6720  178.3930  142.3550 C   0  0  0  0  0  2  0  0  0  0  0  0
  187.3430  177.1080  143.1360 C   0  0  2  0  0  3  0  0  0  0  0  0
  186.9010  177.3600  144.5130 N   0  0  0  0  0  0  0  0  0  0  0  0
  188.3380  177.7430  145.4740 S   0  0  0  0  0  0  0  0  0  0  0  0
  189.4140  176.7610  144.3810 C   0  0  0  0  0  2  0  0  0  0  0  0
  188.5730  176.2310  143.2370 C   0  0  0  0  0  2  0  0  0  0  0  0
  184.8080  178.1810  143.8850 O   0  0  0  0  0  1  0  0  0  0  0  0
  185.9670  178.4770  144.6040 C   0  0  0  0  0  2  0  0  0  0  0  0
  191.1360  174.1890  136.5940 O   0  0  0  0  0  0  0  0  0  0  0  0
  192.2110  174.2340  137.4800 C   0  0  0  0  0  1  0  0  0  0  0  0
  1 33  1  6  0  0  0
  2  5  1  6  0  0  0
  2  9  1  0  0  0  0
  2  7  1  0  0  0  0
  3 10  1  6  0  0  0
  4  8  1  6  0  0  0
  4  1  1  0  0  0  0
  5  4  1  0  0  0  0
  6 10  2  0  0  0  0
  7  1  1  0  0  0  0
  7  3  1  0  0  0  0
  9  6  1  0  0  0  0
 10 21  1  0  0  0  0
 13 16  1  0  0  0  0
 14 18  1  0  0  0  0
 15  3  1  0  0  0  0
 15 11  1  0  0  0  0
 16 11  1  0  0  0  0
 16 12  1  0  0  0  0
 17 18  1  0  0  0  0
 17 19  1  0  0  0  0
 18 13  1  0  0  0  0
 19 15  1  0  0  0  0
 20 11  1  0  0  0  0
 21 22  1  0  0  0  0
 21 23  1  0  0  0  0
 22 23  1  0  0  0  0
 22 24  1  0  0  0  0
 24 25  1  0  0  0  0
 25 26  1  0  0  0  0
 26 30  1  0  0  0  0
 26 27  1  0  0  0  0
 27 32  1  0  0  0  0
 27 28  1  0  0  0  0
 29 28  1  0  0  0  0
 30 29  1  0  0  0  0
 31 32  1  0  0  0  0
 33 34  1  0  0  0  0
M  END
>  <MODEL>
1

>  <REMARK>
 VINA RESULT:      -5.7      0.000      0.000
  Name = 
  7 active torsions:
  status: ('A' for Active; 'I' for Inactive)
    1  A    between atoms: C_1  and  O_24
    2  A    between atoms: C_3  and  C_13
    3  A    between atoms: C_3  and  C_17
    4  A    between atoms: C_4  and  C_21
    5  A    between atoms: C_5  and  C_31
    6  A    between atoms: N_14  and  C_34
    7  A    between atoms: C_17  and  C_18
                            x       y       z     vdW  Elec       q    Type
                         _______ _______ _______ _____ _____    ______ ____

>  <TORSDO>
F 7

$$$$
=
 OpenBabel10272400103D

 34 38  0  0  1  0  0  0  0  0999 V2000
  190.7260  175.4820  136.3660 C   0  0  1  0  0  3  0  0  0  0  0  0
  189.1910  176.8960  135.1540 C   0  0  1  0  0  3  0  0  0  0  0  0
  188.3620  175.7370  137.2750 C   0  0  1  0  0  3  0  0  0  0  0  0
  191.4780  176.0250  135.1490 C   0  0  2  0  0  3  0  0  0  0  0  0
  190.4740  176.8450  134.3460 C   0  0  0  0  0  2  0  0  0  0  0  0
  188.8500  178.1570  137.2830 C   0  0  0  0  0  3  0  0  0  0  0  0
  189.2610  175.6530  136.0320 C   0  0  2  0  0  3  0  0  0  0  0  0
  191.9650  174.9910  134.3460 O   0  0  0  0  0  1  0  0  0  0  0  0
  189.1940  178.0990  135.9280 O   0  0  0  0  0  0  0  0  0  0  0  0
  188.4790  177.0690  137.9730 C   0  0  0  0  0  0  0  0  0  0  0  0
  186.4400  174.0240  137.3870 C   0  0  1  0  0  3  0  0  0  0  0  0
  184.5160  172.6210  137.6730 O   0  0  0  0  0  1  0  0  0  0  0  0
  184.0530  174.8140  136.8470 C   0  0  0  0  0  2  0  0  0  0  0  0
  184.0810  174.8490  134.4330 O   0  0  0  0  0  1  0  0  0  0  0  0
  186.8930  175.4250  136.9310 C   0  0  2  0  0  3  0  0  0  0  0  0
  185.0390  173.6450  136.8830 C   0  0  1  0  0  3  0  0  0  0  0  0
  185.5040  176.4470  135.5360 C   0  0  0  0  0  2  0  0  0  0  0  0
  184.1990  175.6500  135.5710 C   0  0  2  0  0  3  0  0  0  0  0  0
  186.6210  175.5990  135.5660 O   0  0  0  0  0  0  0  0  0  0  0  0
  187.4210  172.9480  136.9400 C   0  0  0  0  0  1  0  0  0  0  0  0
  188.1720  177.1210  139.4510 C   0  0  2  0  0  3  0  0  0  0  0  0
  188.5700  178.4750  140.0130 C   0  0  2  0  0  3  0  0  0  0  0  0
  189.4010  177.2520  140.3390 C   0  0  0  0  0  2  0  0  0  0  0  0
  187.6790  178.8070  141.1950 C   0  0  0  0  0  2  0  0  0  0  0  0
  186.3300  178.1200  141.0540 C   0  0  0  0  0  2  0  0  0  0  0  0
  185.2160  179.1280  140.7170 C   0  0  2  0  0  3  0  0  0  0  0  0
  183.9520  178.8520  141.4110 N   0  0  0  0  0  0  0  0  0  0  0  0
  183.1700  177.4980  140.5810 S   0  0  0  0  0  0  0  0  0  0  0  0
  183.9750  177.9140  139.0010 C   0  0  0  0  0  2  0  0  0  0  0  0
  184.9070  179.0850  139.2360 C   0  0  0  0  0  2  0  0  0  0  0  0
  184.5240  179.6190  143.5400 O   0  0  0  0  0  1  0  0  0  0  0  0
  184.1510  178.4900  142.8110 C   0  0  0  0  0  2  0  0  0  0  0  0
  191.0190  174.1360  136.6130 O   0  0  0  0  0  0  0  0  0  0  0  0
  192.0190  174.1620  137.5850 C   0  0  0  0  0  1  0  0  0  0  0  0
  1 33  1  6  0  0  0
  2  5  1  6  0  0  0
  2  9  1  0  0  0  0
  2  7  1  0  0  0  0
  3 10  1  6  0  0  0
  4  8  1  6  0  0  0
  4  1  1  0  0  0  0
  5  4  1  0  0  0  0
  6 10  2  0  0  0  0
  7  1  1  0  0  0  0
  7  3  1  0  0  0  0
  9  6  1  0  0  0  0
 10 21  1  0  0  0  0
 13 16  1  0  0  0  0
 14 18  1  0  0  0  0
 15  3  1  0  0  0  0
 15 11  1  0  0  0  0
 16 11  1  0  0  0  0
 16 12  1  0  0  0  0
 17 19  1  0  0  0  0
 17 18  1  0  0  0  0
 18 13  1  0  0  0  0
 19 15  1  0  0  0  0
 20 11  1  0  0  0  0
 21 22  1  0  0  0  0
 21 23  1  0  0  0  0
 22 23  1  0  0  0  0
 22 24  1  0  0  0  0
 25 24  1  0  0  0  0
 26 25  1  0  0  0  0
 26 27  1  0  0  0  0
 27 32  1  0  0  0  0
 28 27  1  0  0  0  0
 29 30  1  0  0  0  0
 29 28  1  0  0  0  0
 30 26  1  0  0  0  0
 32 31  1  0  0  0  0
 33 34  1  0  0  0  0
M  END
>  <MODEL>
2

>  <REMARK>
 VINA RESULT:      -5.5      1.850      2.411
  Name = 
  7 active torsions:
  status: ('A' for Active; 'I' for Inactive)
    1  A    between atoms: C_1  and  O_24
    2  A    between atoms: C_3  and  C_13
    3  A    between atoms: C_3  and  C_17
    4  A    between atoms: C_4  and  C_21
    5  A    between atoms: C_5  and  C_31
    6  A    between atoms: N_14  and  C_34
    7  A    between atoms: C_17  and  C_18
                            x       y       z     vdW  Elec       q    Type
                         _______ _______ _______ _____ _____    ______ ____

>  <TORSDO>
F 7

$$$$
=
 OpenBabel10272400103D

 34 38  0  0  1  0  0  0  0  0999 V2000
  182.0880  179.9650  138.8420 C   0  0  1  0  0  3  0  0  0  0  0  0
  181.6640  177.5930  138.9740 C   0  0  1  0  0  3  0  0  0  0  0  0
  184.0900  178.3930  138.9160 C   0  0  1  0  0  3  0  0  0  0  0  0
  180.5700  179.7780  138.8470 C   0  0  2  0  0  3  0  0  0  0  0  0
  180.3150  178.2750  138.8420 C   0  0  0  0  0  2  0  0  0  0  0  0
  183.0980  177.5650  141.0190 C   0  0  0  0  0  3  0  0  0  0  0  0
  182.6490  178.6210  138.4330 C   0  0  2  0  0  3  0  0  0  0  0  0
  179.9820  180.3420  137.7110 O   0  0  0  0  0  1  0  0  0  0  0  0
  181.8910  177.3100  140.3570 O   0  0  0  0  0  0  0  0  0  0  0  0
  184.1550  178.1020  140.3940 C   0  0  0  0  0  0  0  0  0  0  0  0
  186.3060  177.4970  137.9520 C   0  0  1  0  0  3  0  0  0  0  0  0
  188.3370  176.4370  137.2440 O   0  0  0  0  0  1  0  0  0  0  0  0
  186.3770  175.0840  137.0680 C   0  0  0  0  0  2  0  0  0  0  0  0
  185.3560  175.3270  134.8930 O   0  0  0  0  0  1  0  0  0  0  0  0
  184.7870  177.2830  138.1060 C   0  0  2  0  0  3  0  0  0  0  0  0
  186.9660  176.4930  136.9940 C   0  0  1  0  0  3  0  0  0  0  0  0
  183.9260  175.7200  136.7890 C   0  0  0  0  0  2  0  0  0  0  0  0
  185.1120  174.9440  136.2140 C   0  0  2  0  0  3  0  0  0  0  0  0
  184.1960  177.0950  136.8490 O   0  0  0  0  0  0  0  0  0  0  0  0
  186.6240  178.9060  137.4680 C   0  0  0  0  0  1  0  0  0  0  0  0
  185.4340  178.4400  141.1240 C   0  0  2  0  0  3  0  0  0  0  0  0
  185.2980  178.0830  142.5940 C   0  0  2  0  0  3  0  0  0  0  0  0
  185.2850  179.5360  142.1690 C   0  0  0  0  0  2  0  0  0  0  0  0
  186.6650  177.7350  143.1520 C   0  0  0  0  0  2  0  0  0  0  0  0
  187.6990  177.6920  142.0380 C   0  0  0  0  0  2  0  0  0  0  0  0
  189.0450  178.2860  142.4950 C   0  0  2  0  0  3  0  0  0  0  0  0
  190.2060  177.6670  141.8430 N   0  0  0  0  0  0  0  0  0  0  0  0
  190.4770  176.0960  142.6140 S   0  0  0  0  0  0  0  0  0  0  0  0
  189.7370  176.6610  144.1800 C   0  0  0  0  0  2  0  0  0  0  0  0
  189.2270  178.0750  143.9820 C   0  0  0  0  0  2  0  0  0  0  0  0
  190.3940  176.1640  140.0660 O   0  0  0  0  0  1  0  0  0  0  0  0
  189.9970  177.4560  140.4140 C   0  0  0  0  0  2  0  0  0  0  0  0
  182.4980  180.9600  137.9470 O   0  0  0  0  0  0  0  0  0  0  0  0
  182.2300  182.1610  138.6030 C   0  0  0  0  0  1  0  0  0  0  0  0
  1 33  1  6  0  0  0
  1  4  1  0  0  0  0
  2  5  1  1  0  0  0
  2  9  1  0  0  0  0
  3 10  1  1  0  0  0
  4  8  1  6  0  0  0
  5  4  1  0  0  0  0
  7  1  1  0  0  0  0
  7  3  1  0  0  0  0
  7  2  1  0  0  0  0
  9  6  1  0  0  0  0
 10  6  2  0  0  0  0
 10 21  1  0  0  0  0
 11 15  1  0  0  0  0
 14 18  1  0  0  0  0
 15  3  1  0  0  0  0
 16 13  1  0  0  0  0
 16 12  1  0  0  0  0
 16 11  1  0  0  0  0
 17 19  1  0  0  0  0
 18 17  1  0  0  0  0
 18 13  1  0  0  0  0
 19 15  1  0  0  0  0
 20 11  1  0  0  0  0
 21 23  1  0  0  0  0
 21 22  1  0  0  0  0
 22 24  1  0  0  0  0
 23 22  1  0  0  0  0
 25 26  1  0  0  0  0
 25 24  1  0  0  0  0
 26 30  1  0  0  0  0
 27 26  1  0  0  0  0
 27 28  1  0  0  0  0
 28 29  1  0  0  0  0
 30 29  1  0  0  0  0
 31 32  1  0  0  0  0
 32 27  1  0  0  0  0
 33 34  1  0  0  0  0
M  END
>  <MODEL>
3

>  <REMARK>
 VINA RESULT:      -5.5      3.693      6.559
  Name = 
  7 active torsions:
  status: ('A' for Active; 'I' for Inactive)
    1  A    between atoms: C_1  and  O_24
    2  A    between atoms: C_3  and  C_13
    3  A    between atoms: C_3  and  C_17
    4  A    between atoms: C_4  and  C_21
    5  A    between atoms: C_5  and  C_31
    6  A    between atoms: N_14  and  C_34
    7  A    between atoms: C_17  and  C_18
                            x       y       z     vdW  Elec       q    Type
                         _______ _______ _______ _____ _____    ______ ____

>  <TORSDO>
F 7

$$$$
=
 OpenBabel10272400103D

 34 38  0  0  1  0  0  0  0  0999 V2000
  190.4380  175.4460  135.2100 C   0  0  1  0  0  3  0  0  0  0  0  0
  190.5080  174.0220  137.1570 C   0  0  1  0  0  3  0  0  0  0  0  0
  189.0750  176.1350  137.2480 C   0  0  1  0  0  3  0  0  0  0  0  0
  191.3720  174.2800  134.8830 C   0  0  2  0  0  3  0  0  0  0  0  0
  191.4760  173.4350  136.1480 C   0  0  0  0  0  2  0  0  0  0  0  0
  188.0160  173.9160  137.0300 C   0  0  0  0  0  3  0  0  0  0  0  0
  190.3570  175.4730  136.7210 C   0  0  2  0  0  3  0  0  0  0  0  0
  192.6470  174.7300  134.5300 O   0  0  0  0  0  1  0  0  0  0  0  0
  189.2740  173.3050  137.0660 O   0  0  0  0  0  0  0  0  0  0  0  0
  187.8670  175.2470  137.0820 C   0  0  0  0  0  0  0  0  0  0  0  0
  188.2940  177.7400  139.1070 C   0  0  1  0  0  3  0  0  0  0  0  0
  187.4610  178.9930  140.9740 O   0  0  0  0  0  1  0  0  0  0  0  0
  188.9880  177.2440  141.5330 C   0  0  0  0  0  2  0  0  0  0  0  0
  191.2590  178.0640  141.5720 O   0  0  0  0  0  1  0  0  0  0  0  0
  189.2320  176.5810  138.7150 C   0  0  2  0  0  3  0  0  0  0  0  0
  188.5800  178.3030  140.5080 C   0  0  1  0  0  3  0  0  0  0  0  0
  190.8440  176.1490  140.1740 C   0  0  0  0  0  2  0  0  0  0  0  0
  190.4810  176.9100  141.4500 C   0  0  2  0  0  3  0  0  0  0  0  0
  190.5590  176.9060  139.0290 O   0  0  0  0  0  0  0  0  0  0  0  0
  188.3700  178.8830  138.1030 C   0  0  0  0  0  1  0  0  0  0  0  0
  186.5140  175.9100  136.9750 C   0  0  2  0  0  3  0  0  0  0  0  0
  185.4840  174.9020  136.4950 C   0  0  2  0  0  3  0  0  0  0  0  0
  185.9680  175.9870  135.5570 C   0  0  0  0  0  2  0  0  0  0  0  0
  184.1210  175.2820  137.0420 C   0  0  0  0  0  2  0  0  0  0  0  0
  184.2180  176.5460  137.8830 C   0  0  0  0  0  2  0  0  0  0  0  0
  182.9600  177.4210  137.7340 C   0  0  2  0  0  3  0  0  0  0  0  0
  182.9660  178.6030  138.6030 N   0  0  0  0  0  0  0  0  0  0  0  0
  182.5690  178.0640  140.2420 S   0  0  0  0  0  0  0  0  0  0  0  0
  181.6130  176.6460  139.6160 C   0  0  0  0  0  2  0  0  0  0  0  0
  181.7270  176.6250  138.1050 C   0  0  0  0  0  2  0  0  0  0  0  0
  184.4610  179.8650  139.8780 O   0  0  0  0  0  1  0  0  0  0  0  0
  184.2660  179.2680  138.6320 C   0  0  0  0  0  2  0  0  0  0  0  0
  190.9210  176.6660  134.7240 O   0  0  0  0  0  0  0  0  0  0  0  0
  189.7810  177.3760  134.3470 C   0  0  0  0  0  1  0  0  0  0  0  0
  1 33  1  1  0  0  0
  1  7  1  0  0  0  0
  2  5  1  6  0  0  0
  3 10  1  1  0  0  0
  3 15  1  0  0  0  0
  4  8  1  1  0  0  0
  4  1  1  0  0  0  0
  4  5  1  0  0  0  0
  6  9  1  0  0  0  0
  6 10  2  0  0  0  0
  7  2  1  0  0  0  0
  7  3  1  0  0  0  0
  9  2  1  0  0  0  0
 11 16  1  0  0  0  0
 15 19  1  0  0  0  0
 15 11  1  0  0  0  0
 16 12  1  0  0  0  0
 16 13  1  0  0  0  0
 17 18  1  0  0  0  0
 18 13  1  0  0  0  0
 18 14  1  0  0  0  0
 19 17  1  0  0  0  0
 20 11  1  0  0  0  0
 21 10  1  0  0  0  0
 22 21  1  0  0  0  0
 22 24  1  0  0  0  0
 23 22  1  0  0  0  0
 23 21  1  0  0  0  0
 24 25  1  0  0  0  0
 26 25  1  0  0  0  0
 26 30  1  0  0  0  0
 26 27  1  0  0  0  0
 27 32  1  0  0  0  0
 27 28  1  0  0  0  0
 29 28  1  0  0  0  0
 30 29  1  0  0  0  0
 32 31  1  0  0  0  0
 34 33  1  0  0  0  0
M  END
>  <MODEL>
4

>  <REMARK>
 VINA RESULT:      -5.4      2.953      5.791
  Name = 
  7 active torsions:
  status: ('A' for Active; 'I' for Inactive)
    1  A    between atoms: C_1  and  O_24
    2  A    between atoms: C_3  and  C_13
    3  A    between atoms: C_3  and  C_17
    4  A    between atoms: C_4  and  C_21
    5  A    between atoms: C_5  and  C_31
    6  A    between atoms: N_14  and  C_34
    7  A    between atoms: C_17  and  C_18
                            x       y       z     vdW  Elec       q    Type
                         _______ _______ _______ _____ _____    ______ ____

>  <TORSDO>
F 7

$$$$
=
 OpenBabel10272400103D

 34 38  0  0  1  0  0  0  0  0999 V2000
  193.3250  176.0200  136.5550 C   0  0  1  0  0  3  0  0  0  0  0  0
  192.2290  174.3910  137.9590 C   0  0  1  0  0  3  0  0  0  0  0  0
  191.0590  176.6240  137.5470 C   0  0  1  0  0  3  0  0  0  0  0  0
  194.2470  174.8020  136.6380 C   0  0  2  0  0  3  0  0  0  0  0  0
  193.5850  173.8160  137.5950 C   0  0  0  0  0  2  0  0  0  0  0  0
  190.2580  174.5710  136.4340 C   0  0  0  0  0  3  0  0  0  0  0  0
  192.3940  175.8890  137.7410 C   0  0  2  0  0  3  0  0  0  0  0  0
  195.5060  175.1460  137.1390 O   0  0  0  0  0  1  0  0  0  0  0  0
  191.2520  173.8260  137.0800 O   0  0  0  0  0  0  0  0  0  0  0  0
  190.1410  175.8970  136.5960 C   0  0  0  0  0  0  0  0  0  0  0  0
  189.0990  177.7680  138.7690 C   0  0  1  0  0  3  0  0  0  0  0  0
  187.1780  178.5580  139.9660 O   0  0  0  0  0  1  0  0  0  0  0  0
  188.6030  177.0920  141.2000 C   0  0  0  0  0  2  0  0  0  0  0  0
  190.2810  178.3390  142.4090 O   0  0  0  0  0  1  0  0  0  0  0  0
  190.3580  176.8860  138.8940 C   0  0  2  0  0  3  0  0  0  0  0  0
  188.5100  178.1780  140.1270 C   0  0  1  0  0  3  0  0  0  0  0  0
  191.0900  176.5910  140.9660 C   0  0  0  0  0  2  0  0  0  0  0  0
  189.9730  177.0810  141.8880 C   0  0  2  0  0  3  0  0  0  0  0  0
  191.2320  177.4250  139.8480 O   0  0  0  0  0  0  0  0  0  0  0  0
  189.3790  179.0290  137.9640 C   0  0  0  0  0  1  0  0  0  0  0  0
  189.1120  176.7100  135.8470 C   0  0  2  0  0  3  0  0  0  0  0  0
  188.3350  175.8110  134.9010 C   0  0  2  0  0  3  0  0  0  0  0  0
  189.3510  176.7880  134.3470 C   0  0  0  0  0  2  0  0  0  0  0  0
  186.9400  176.3750  134.7100 C   0  0  0  0  0  2  0  0  0  0  0  0
  185.9050  175.4680  135.3580 C   0  0  0  0  0  2  0  0  0  0  0  0
  185.7910  175.7320  136.8700 C   0  0  2  0  0  3  0  0  0  0  0  0
  184.6790  175.0140  137.5050 N   0  0  0  0  0  0  0  0  0  0  0  0
  183.1860  175.8730  137.0990 S   0  0  0  0  0  0  0  0  0  0  0  0
  184.0660  177.4580  136.9250 C   0  0  0  0  0  2  0  0  0  0  0  0
  185.5470  177.2050  137.1230 C   0  0  0  0  0  2  0  0  0  0  0  0
  185.1740  172.7770  137.9550 O   0  0  0  0  0  1  0  0  0  0  0  0
  184.5660  173.6360  137.0380 C   0  0  0  0  0  2  0  0  0  0  0  0
  194.0320  177.2260  136.6180 O   0  0  0  0  0  0  0  0  0  0  0  0
  194.7300  177.2930  135.4130 C   0  0  0  0  0  1  0  0  0  0  0  0
  1 33  1  1  0  0  0
  1  4  1  0  0  0  0
  1  7  1  0  0  0  0
  2  5  1  6  0  0  0
  3 10  1  6  0  0  0
  3  7  1  0  0  0  0
  3 15  1  0  0  0  0
  4  8  1  1  0  0  0
  4  5  1  0  0  0  0
  6 10  2  0  0  0  0
  6  9  1  0  0  0  0
  7  2  1  0  0  0  0
  9  2  1  0  0  0  0
 11 15  1  0  0  0  0
 11 16  1  0  0  0  0
 12 16  1  0  0  0  0
 13 18  1  0  0  0  0
 15 19  1  0  0  0  0
 16 13  1  0  0  0  0
 17 18  1  0  0  0  0
 18 14  1  0  0  0  0
 19 17  1  0  0  0  0
 20 11  1  0  0  0  0
 21 10  1  0  0  0  0
 22 21  1  0  0  0  0
 23 22  1  0  0  0  0
 23 21  1  0  0  0  0
 24 22  1  0  0  0  0
 24 25  1  0  0  0  0
 25 26  1  0  0  0  0
 26 30  1  0  0  0  0
 26 27  1  0  0  0  0
 28 27  1  0  0  0  0
 29 28  1  0  0  0  0
 29 30  1  0  0  0  0
 32 27  1  0  0  0  0
 32 31  1  0  0  0  0
 34 33  1  0  0  0  0
M  END
>  <MODEL>
5

>  <REMARK>
 VINA RESULT:      -5.3      3.137      6.364
  Name = 
  7 active torsions:
  status: ('A' for Active; 'I' for Inactive)
    1  A    between atoms: C_1  and  O_24
    2  A    between atoms: C_3  and  C_13
    3  A    between atoms: C_3  and  C_17
    4  A    between atoms: C_4  and  C_21
    5  A    between atoms: C_5  and  C_31
    6  A    between atoms: N_14  and  C_34
    7  A    between atoms: C_17  and  C_18
                            x       y       z     vdW  Elec       q    Type
                         _______ _______ _______ _____ _____    ______ ____

>  <TORSDO>
F 7

$$$$
=
 OpenBabel10272400103D

 34 38  0  0  1  0  0  0  0  0999 V2000
  181.8720  179.9370  138.7130 C   0  0  1  0  0  3  0  0  0  0  0  0
  181.2550  177.6270  138.3800 C   0  0  1  0  0  3  0  0  0  0  0  0
  183.6990  178.1710  138.8890 C   0  0  1  0  0  3  0  0  0  0  0  0
  180.3720  179.9090  138.4140 C   0  0  2  0  0  3  0  0  0  0  0  0
  180.0120  178.4570  138.1200 C   0  0  0  0  0  2  0  0  0  0  0  0
  182.2590  177.1540  140.6180 C   0  0  0  0  0  3  0  0  0  0  0  0
  182.4000  178.6150  138.1990 C   0  0  2  0  0  3  0  0  0  0  0  0
  180.0590  180.6900  137.2980 O   0  0  0  0  0  1  0  0  0  0  0  0
  181.1880  177.1240  139.7170 O   0  0  0  0  0  0  0  0  0  0  0  0
  183.4550  177.6640  140.2890 C   0  0  0  0  0  0  0  0  0  0  0  0
  185.9820  177.3380  138.0310 C   0  0  1  0  0  3  0  0  0  0  0  0
  188.0600  176.3220  137.3990 O   0  0  0  0  0  1  0  0  0  0  0  0
  186.1170  175.0030  136.9630 C   0  0  0  0  0  2  0  0  0  0  0  0
  185.2690  175.4280  134.7430 O   0  0  0  0  0  1  0  0  0  0  0  0
  184.4550  177.1240  138.0490 C   0  0  2  0  0  3  0  0  0  0  0  0
  186.7120  176.4090  137.0490 C   0  0  1  0  0  3  0  0  0  0  0  0
  183.6960  175.6790  136.5480 C   0  0  0  0  0  2  0  0  0  0  0  0
  184.9220  174.9430  136.0060 C   0  0  2  0  0  3  0  0  0  0  0  0
  183.9630  177.0430  136.7390 O   0  0  0  0  0  0  0  0  0  0  0  0
  186.3390  178.7780  137.6890 C   0  0  0  0  0  1  0  0  0  0  0  0
  184.5890  177.7580  141.2810 C   0  0  2  0  0  3  0  0  0  0  0  0
  184.1570  178.5850  142.4800 C   0  0  2  0  0  3  0  0  0  0  0  0
  185.1310  179.1660  141.4770 C   0  0  0  0  0  2  0  0  0  0  0  0
  184.9180  178.1200  143.7070 C   0  0  0  0  0  2  0  0  0  0  0  0
  186.4130  178.3190  143.5150 C   0  0  0  0  0  2  0  0  0  0  0  0
  187.2050  177.0550  143.8960 C   0  0  2  0  0  3  0  0  0  0  0  0
  188.1120  177.2560  145.0330 N   0  0  0  0  0  0  0  0  0  0  0  0
  189.5290  178.1340  144.4370 S   0  0  0  0  0  0  0  0  0  0  0  0
  189.3270  177.4580  142.7580 C   0  0  0  0  0  2  0  0  0  0  0  0
  188.0690  176.6130  142.7340 C   0  0  0  0  0  2  0  0  0  0  0  0
  187.5050  177.2880  147.2870 O   0  0  0  0  0  1  0  0  0  0  0  0
  187.4980  178.0310  146.1060 C   0  0  0  0  0  2  0  0  0  0  0  0
  182.5200  181.0030  138.0790 O   0  0  0  0  0  0  0  0  0  0  0  0
  182.1070  182.1370  138.7780 C   0  0  0  0  0  1  0  0  0  0  0  0
  1 33  1  6  0  0  0
  2  5  1  1  0  0  0
  2  9  1  0  0  0  0
  3 10  1  1  0  0  0
  4  8  1  6  0  0  0
  4  1  1  0  0  0  0
  5  4  1  0  0  0  0
  7  2  1  0  0  0  0
  7  1  1  0  0  0  0
  7  3  1  0  0  0  0
  9  6  1  0  0  0  0
 10  6  2  0  0  0  0
 10 21  1  0  0  0  0
 11 15  1  0  0  0  0
 13 16  1  0  0  0  0
 14 18  1  0  0  0  0
 15  3  1  0  0  0  0
 16 12  1  0  0  0  0
 16 11  1  0  0  0  0
 17 19  1  0  0  0  0
 18 17  1  0  0  0  0
 18 13  1  0  0  0  0
 19 15  1  0  0  0  0
 20 11  1  0  0  0  0
 21 23  1  0  0  0  0
 21 22  1  0  0  0  0
 22 24  1  0  0  0  0
 23 22  1  0  0  0  0
 25 24  1  0  0  0  0
 25 26  1  0  0  0  0
 26 27  1  0  0  0  0
 27 32  1  0  0  0  0
 28 27  1  0  0  0  0
 29 28  1  0  0  0  0
 30 29  1  0  0  0  0
 30 26  1  0  0  0  0
 32 31  1  0  0  0  0
 33 34  1  0  0  0  0
M  END
>  <MODEL>
6

>  <REMARK>
 VINA RESULT:      -5.2      3.762      6.451
  Name = 
  7 active torsions:
  status: ('A' for Active; 'I' for Inactive)
    1  A    between atoms: C_1  and  O_24
    2  A    between atoms: C_3  and  C_13
    3  A    between atoms: C_3  and  C_17
    4  A    between atoms: C_4  and  C_21
    5  A    between atoms: C_5  and  C_31
    6  A    between atoms: N_14  and  C_34
    7  A    between atoms: C_17  and  C_18
                            x       y       z     vdW  Elec       q    Type
                         _______ _______ _______ _____ _____    ______ ____

>  <TORSDO>
F 7

$$$$
=
 OpenBabel10272400103D

 34 38  0  0  1  0  0  0  0  0999 V2000
  190.9310  176.0120  137.5470 C   0  0  1  0  0  3  0  0  0  0  0  0
  191.0460  175.3680  135.2230 C   0  0  1  0  0  3  0  0  0  0  0  0
  188.8170  175.1160  136.4460 C   0  0  1  0  0  3  0  0  0  0  0  0
  192.3690  176.2520  137.0820 C   0  0  2  0  0  3  0  0  0  0  0  0
  192.4500  175.7620  135.6400 C   0  0  0  0  0  2  0  0  0  0  0  0
  189.1460  176.9370  134.8120 C   0  0  0  0  0  3  0  0  0  0  0  0
  190.3490  175.0460  136.5380 C   0  0  2  0  0  3  0  0  0  0  0  0
  193.2840  175.5360  137.8580 O   0  0  0  0  0  1  0  0  0  0  0  0
  190.4450  176.4830  134.5590 O   0  0  0  0  0  0  0  0  0  0  0  0
  188.3470  176.3480  135.7130 C   0  0  0  0  0  0  0  0  0  0  0  0
  186.7620  173.5790  136.2020 C   0  0  1  0  0  3  0  0  0  0  0  0
  184.8450  172.2330  135.6910 O   0  0  0  0  0  1  0  0  0  0  0  0
  186.7710  171.7990  134.3470 C   0  0  0  0  0  2  0  0  0  0  0  0
  188.1370  170.0680  135.3310 O   0  0  0  0  0  1  0  0  0  0  0  0
  188.2300  173.8410  135.8100 C   0  0  2  0  0  3  0  0  0  0  0  0
  186.2400  172.2180  135.7180 C   0  0  1  0  0  3  0  0  0  0  0  0
  189.2510  172.1400  134.8200 C   0  0  0  0  0  2  0  0  0  0  0  0
  188.1530  171.1440  134.4410 C   0  0  2  0  0  3  0  0  0  0  0  0
  189.0120  172.7090  136.0790 O   0  0  0  0  0  0  0  0  0  0  0  0
  186.5650  173.6630  137.7100 C   0  0  0  0  0  1  0  0  0  0  0  0
  186.9700  176.8790  136.0350 C   0  0  2  0  0  3  0  0  0  0  0  0
  186.0370  176.6350  134.8620 C   0  0  2  0  0  3  0  0  0  0  0  0
  186.5270  178.0370  135.1540 C   0  0  0  0  0  2  0  0  0  0  0  0
  184.6180  176.4810  135.3760 C   0  0  0  0  0  2  0  0  0  0  0  0
  184.5550  176.7870  136.8650 C   0  0  0  0  0  2  0  0  0  0  0  0
  183.3890  177.7370  137.1960 C   0  0  2  0  0  3  0  0  0  0  0  0
  183.5010  178.3550  138.5230 N   0  0  0  0  0  0  0  0  0  0  0  0
  183.0340  177.1370  139.7210 S   0  0  0  0  0  0  0  0  0  0  0  0
  181.9520  176.2830  138.5300 C   0  0  0  0  0  2  0  0  0  0  0  0
  182.0810  176.9760  137.1880 C   0  0  0  0  0  2  0  0  0  0  0  0
  184.8640  179.5360  140.0050 O   0  0  0  0  0  1  0  0  0  0  0  0
  184.8580  178.8030  138.8180 C   0  0  0  0  0  2  0  0  0  0  0  0
  190.8740  175.4690  138.8350 O   0  0  0  0  0  0  0  0  0  0  0  0
  190.5040  176.5350  139.6540 C   0  0  0  0  0  1  0  0  0  0  0  0
  1 33  1  1  0  0  0
  2  5  1  1  0  0  0
  2  7  1  0  0  0  0
  3 10  1  6  0  0  0
  3  7  1  0  0  0  0
  4  1  1  0  0  0  0
  4  8  1  1  0  0  0
  5  4  1  0  0  0  0
  6 10  2  0  0  0  0
  7  1  1  0  0  0  0
  9  6  1  0  0  0  0
  9  2  1  0  0  0  0
 10 21  1  0  0  0  0
 11 20  1  0  0  0  0
 12 16  1  0  0  0  0
 13 18  1  0  0  0  0
 13 16  1  0  0  0  0
 15 19  1  0  0  0  0
 15 11  1  0  0  0  0
 15  3  1  0  0  0  0
 16 11  1  0  0  0  0
 17 19  1  0  0  0  0
 18 17  1  0  0  0  0
 18 14  1  0  0  0  0
 22 23  1  0  0  0  0
 22 24  1  0  0  0  0
 22 21  1  0  0  0  0
 23 21  1  0  0  0  0
 24 25  1  0  0  0  0
 25 26  1  0  0  0  0
 26 27  1  0  0  0  0
 27 32  1  0  0  0  0
 27 28  1  0  0  0  0
 29 28  1  0  0  0  0
 30 26  1  0  0  0  0
 30 29  1  0  0  0  0
 32 31  1  0  0  0  0
 33 34  1  0  0  0  0
M  END
>  <MODEL>
7

>  <REMARK>
 VINA RESULT:      -5.0      3.210      4.771
  Name = 
  7 active torsions:
  status: ('A' for Active; 'I' for Inactive)
    1  A    between atoms: C_1  and  O_24
    2  A    between atoms: C_3  and  C_13
    3  A    between atoms: C_3  and  C_17
    4  A    between atoms: C_4  and  C_21
    5  A    between atoms: C_5  and  C_31
    6  A    between atoms: N_14  and  C_34
    7  A    between atoms: C_17  and  C_18
                            x       y       z     vdW  Elec       q    Type
                         _______ _______ _______ _____ _____    ______ ____

>  <TORSDO>
F 7

$$$$
=
 OpenBabel10272400103D

 34 38  0  0  1  0  0  0  0  0999 V2000
  182.2010  174.1400  135.9520 C   0  0  1  0  0  3  0  0  0  0  0  0
  181.4810  176.3100  135.1790 C   0  0  1  0  0  3  0  0  0  0  0  0
  183.1960  176.2000  137.0690 C   0  0  1  0  0  3  0  0  0  0  0  0
  181.1750  173.9060  134.8400 C   0  0  2  0  0  3  0  0  0  0  0  0
  180.6650  175.2800  134.4200 C   0  0  0  0  0  2  0  0  0  0  0  0
  183.8900  176.8440  134.7900 C   0  0  0  0  0  3  0  0  0  0  0  0
  181.9620  175.5600  136.4140 C   0  0  2  0  0  3  0  0  0  0  0  0
  180.0980  173.1390  135.2920 O   0  0  0  0  0  1  0  0  0  0  0  0
  182.5680  176.7230  134.3460 O   0  0  0  0  0  0  0  0  0  0  0  0
  184.2450  176.5810  136.0550 C   0  0  0  0  0  0  0  0  0  0  0  0
  182.9790  177.1580  139.4520 C   0  0  1  0  0  3  0  0  0  0  0  0
  182.9940  178.2370  141.5930 O   0  0  0  0  0  1  0  0  0  0  0  0
  182.6280  179.6890  139.7330 C   0  0  0  0  0  2  0  0  0  0  0  0
  180.2690  179.9130  139.2670 O   0  0  0  0  0  1  0  0  0  0  0  0
  182.8080  177.4100  137.9410 C   0  0  2  0  0  3  0  0  0  0  0  0
  182.4210  178.2940  140.3230 C   0  0  1  0  0  3  0  0  0  0  0  0
  181.6570  179.2330  137.4220 C   0  0  0  0  0  2  0  0  0  0  0  0
  181.5430  180.0480  138.7120 C   0  0  2  0  0  3  0  0  0  0  0  0
  181.5080  177.8610  137.6700 O   0  0  0  0  0  0  0  0  0  0  0  0
  182.3180  175.8540  139.8780 C   0  0  0  0  0  1  0  0  0  0  0  0
  185.6820  176.6470  136.5170 C   0  0  2  0  0  3  0  0  0  0  0  0
  186.5720  175.8970  135.5410 C   0  0  2  0  0  3  0  0  0  0  0  0
  186.2760  175.3000  136.9010 C   0  0  0  0  0  2  0  0  0  0  0  0
  187.9570  176.5140  135.5540 C   0  0  0  0  0  2  0  0  0  0  0  0
  188.5710  176.4180  136.9420 C   0  0  0  0  0  2  0  0  0  0  0  0
  189.5880  177.5470  137.1890 C   0  0  2  0  0  3  0  0  0  0  0  0
  190.7670  177.1120  137.9480 N   0  0  0  0  0  0  0  0  0  0  0  0
  190.2900  176.9790  139.6470 S   0  0  0  0  0  0  0  0  0  0  0  0
  188.9920  178.2410  139.4520 C   0  0  0  0  0  2  0  0  0  0  0  0
  188.9470  178.6560  137.9950 C   0  0  0  0  0  2  0  0  0  0  0  0
  192.5260  175.5810  138.0680 O   0  0  0  0  0  1  0  0  0  0  0  0
  191.2730  175.8180  137.5020 C   0  0  0  0  0  2  0  0  0  0  0  0
  182.0430  173.2450  137.0160 O   0  0  0  0  0  0  0  0  0  0  0  0
  183.1830  172.4420  136.9780 C   0  0  0  0  0  1  0  0  0  0  0  0
  1  7  1  0  0  0  0
  1 33  1  1  0  0  0
  2  5  1  6  0  0  0
  2  7  1  0  0  0  0
  3 10  1  6  0  0  0
  3 15  1  0  0  0  0
  4  8  1  1  0  0  0
  4  1  1  0  0  0  0
  5  4  1  0  0  0  0
  6 10  2  0  0  0  0
  7  3  1  0  0  0  0
  9  6  1  0  0  0  0
  9  2  1  0  0  0  0
 10 21  1  0  0  0  0
 11 20  1  0  0  0  0
 11 16  1  0  0  0  0
 13 16  1  0  0  0  0
 15 11  1  0  0  0  0
 16 12  1  0  0  0  0
 17 19  1  0  0  0  0
 17 18  1  0  0  0  0
 18 14  1  0  0  0  0
 18 13  1  0  0  0  0
 19 15  1  0  0  0  0
 21 23  1  0  0  0  0
 22 24  1  0  0  0  0
 22 21  1  0  0  0  0
 22 23  1  0  0  0  0
 24 25  1  0  0  0  0
 25 26  1  0  0  0  0
 26 27  1  0  0  0  0
 26 30  1  0  0  0  0
 27 28  1  0  0  0  0
 29 28  1  0  0  0  0
 30 29  1  0  0  0  0
 32 27  1  0  0  0  0
 32 31  1  0  0  0  0
 34 33  1  0  0  0  0
M  END
>  <MODEL>
8

>  <REMARK>
 VINA RESULT:      -4.9      3.559      7.211
  Name = 
  7 active torsions:
  status: ('A' for Active; 'I' for Inactive)
    1  A    between atoms: C_1  and  O_24
    2  A    between atoms: C_3  and  C_13
    3  A    between atoms: C_3  and  C_17
    4  A    between atoms: C_4  and  C_21
    5  A    between atoms: C_5  and  C_31
    6  A    between atoms: N_14  and  C_34
    7  A    between atoms: C_17  and  C_18
                            x       y       z     vdW  Elec       q    Type
                         _______ _______ _______ _____ _____    ______ ____

>  <TORSDO>
F 7

$$$$
=
 OpenBabel10272400103D

 34 38  0  0  1  0  0  0  0  0999 V2000
  192.6720  174.7550  136.5000 C   0  0  1  0  0  3  0  0  0  0  0  0
  190.9480  175.8120  135.1820 C   0  0  1  0  0  3  0  0  0  0  0  0
  190.3080  174.8150  137.4460 C   0  0  1  0  0  3  0  0  0  0  0  0
  193.3270  175.2410  135.2060 C   0  0  2  0  0  3  0  0  0  0  0  0
  192.2140  175.8290  134.3460 C   0  0  0  0  0  2  0  0  0  0  0  0
  190.4810  177.2610  137.1620 C   0  0  0  0  0  3  0  0  0  0  0  0
  191.1910  174.6990  136.1940 C   0  0  2  0  0  3  0  0  0  0  0  0
  193.9310  174.1890  134.5120 O   0  0  0  0  0  1  0  0  0  0  0  0
  190.8090  177.0880  135.8130 O   0  0  0  0  0  0  0  0  0  0  0  0
  190.2640  176.2240  137.9830 C   0  0  0  0  0  0  0  0  0  0  0  0
  188.8600  172.8300  136.6650 C   0  0  1  0  0  3  0  0  0  0  0  0
  187.4130  170.9720  136.2180 O   0  0  0  0  0  1  0  0  0  0  0  0
  186.3290  172.9060  137.1070 C   0  0  0  0  0  2  0  0  0  0  0  0
  185.5630  174.3550  135.3340 O   0  0  0  0  0  1  0  0  0  0  0  0
  188.8860  174.2820  137.1850 C   0  0  2  0  0  3  0  0  0  0  0  0
  187.4610  172.3670  136.2330 C   0  0  1  0  0  3  0  0  0  0  0  0
  186.9630  175.3710  137.0080 C   0  0  0  0  0  2  0  0  0  0  0  0
  185.9020  174.3170  136.6880 C   0  0  2  0  0  3  0  0  0  0  0  0
  188.1600  175.1160  136.3230 O   0  0  0  0  0  0  0  0  0  0  0  0
  189.8160  172.6400  135.4950 C   0  0  0  0  0  1  0  0  0  0  0  0
  189.9770  176.4090  139.4540 C   0  0  2  0  0  3  0  0  0  0  0  0
  189.3060  177.7530  139.6830 C   0  0  2  0  0  3  0  0  0  0  0  0
  190.7470  177.5510  140.1010 C   0  0  0  0  0  2  0  0  0  0  0  0
  188.4110  177.6630  140.9040 C   0  0  0  0  0  2  0  0  0  0  0  0
  189.2350  177.7730  142.1770 C   0  0  0  0  0  2  0  0  0  0  0  0
  189.0850  176.5170  143.0570 C   0  0  2  0  0  3  0  0  0  0  0  0
  188.6280  176.8130  144.4200 N   0  0  0  0  0  0  0  0  0  0  0  0
  190.0110  177.4510  145.3220 S   0  0  0  0  0  0  0  0  0  0  0  0
  191.1960  176.5380  144.2830 C   0  0  0  0  0  2  0  0  0  0  0  0
  190.4210  175.8190  143.1970 C   0  0  0  0  0  2  0  0  0  0  0  0
  187.1020  177.9700  145.7560 O   0  0  0  0  0  1  0  0  0  0  0  0
  187.5560  177.8020  144.4470 C   0  0  0  0  0  2  0  0  0  0  0  0
  193.1380  173.4940  136.8900 O   0  0  0  0  0  0  0  0  0  0  0  0
  194.2290  173.7590  137.7190 C   0  0  0  0  0  1  0  0  0  0  0  0
  1 33  1  6  0  0  0
  2  5  1  6  0  0  0
  2  9  1  0  0  0  0
  2  7  1  0  0  0  0
  3 10  1  6  0  0  0
  4  8  1  6  0  0  0
  4  1  1  0  0  0  0
  5  4  1  0  0  0  0
  6 10  2  0  0  0  0
  7  1  1  0  0  0  0
  7  3  1  0  0  0  0
  9  6  1  0  0  0  0
 10 21  1  0  0  0  0
 11 15  1  0  0  0  0
 12 16  1  0  0  0  0
 14 18  1  0  0  0  0
 15  3  1  0  0  0  0
 16 11  1  0  0  0  0
 16 13  1  0  0  0  0
 18 17  1  0  0  0  0
 18 13  1  0  0  0  0
 19 17  1  0  0  0  0
 19 15  1  0  0  0  0
 20 11  1  0  0  0  0
 21 22  1  0  0  0  0
 21 23  1  0  0  0  0
 22 23  1  0  0  0  0
 22 24  1  0  0  0  0
 24 25  1  0  0  0  0
 25 26  1  0  0  0  0
 26 30  1  0  0  0  0
 26 27  1  0  0  0  0
 27 32  1  0  0  0  0
 27 28  1  0  0  0  0
 29 28  1  0  0  0  0
 30 29  1  0  0  0  0
 32 31  1  0  0  0  0
 33 34  1  0  0  0  0
M  END
>  <MODEL>
9

>  <REMARK>
 VINA RESULT:      -4.9      1.713      2.132
  Name = 
  7 active torsions:
  status: ('A' for Active; 'I' for Inactive)
    1  A    between atoms: C_1  and  O_24
    2  A    between atoms: C_3  and  C_13
    3  A    between atoms: C_3  and  C_17
    4  A    between atoms: C_4  and  C_21
    5  A    between atoms: C_5  and  C_31
    6  A    between atoms: N_14  and  C_34
    7  A    between atoms: C_17  and  C_18
                            x       y       z     vdW  Elec       q    Type
                         _______ _______ _______ _____ _____    ______ ____

>  <TORSDO>
F 7

$$$$
