=
 OpenBabel10272415243D

 34 39  0  0  1  0  0  0  0  0999 V2000
  188.8900  177.4020  138.5530 C   0  0  0  0  0  0  0  0  0  0  0  0
  186.9240  175.9900  136.3670 C   0  0  0  0  0  2  0  0  0  0  0  0
  188.8890  177.3830  135.6350 C   0  0  0  0  0  2  0  0  0  0  0  0
  191.0630  176.3660  139.9460 N   0  0  0  0  0  0  0  0  0  0  0  0
  188.9520  177.4780  139.9520 C   0  0  0  0  0  3  0  0  0  0  0  0
  191.0560  176.2940  138.5900 C   0  0  0  0  0  0  0  0  0  0  0  0
  192.1350  175.6400  136.5230 C   0  0  0  0  0  3  0  0  0  0  0  0
  192.1280  175.7000  137.9190 C   0  0  0  0  0  3  0  0  0  0  0  0
  190.0470  176.9460  140.6450 C   0  0  0  0  0  0  0  0  0  0  0  0
  189.9850  176.7610  136.4490 C   0  0  0  0  0  0  0  0  0  0  0  0
  189.9720  176.8270  137.8580 C   0  0  0  0  0  0  0  0  0  0  0  0
  191.0710  176.1750  135.7910 C   0  0  0  0  0  3  0  0  0  0  0  0
  185.5370  175.9140  137.0170 C   0  0  0  0  0  2  0  0  0  0  0  0
  184.7280  177.2050  136.8510 C   0  0  2  0  0  3  0  0  0  0  0  0
  185.1730  178.3350  137.8030 C   0  0  0  0  0  2  0  0  0  0  0  0
  187.5600  177.3890  136.3890 C   0  0  2  0  0  3  0  0  0  0  0  0
  186.4270  178.0180  138.6260 C   0  0  0  0  0  2  0  0  0  0  0  0
  187.7240  178.0070  137.7960 C   0  0  1  0  0  3  0  0  0  0  0  0
  191.3900  176.8180  144.2030 C   0  0  0  0  0  3  0  0  0  0  0  0
  188.9510  177.3190  142.8600 C   0  0  0  0  0  3  0  0  0  0  0  0
  188.3670  177.6450  146.4750 C   0  0  0  0  0  0  0  0  0  0  0  0
  190.0140  177.2630  146.5550 S   0  0  0  0  0  0  0  0  0  0  0  0
  190.2250  177.1270  144.8980 C   0  0  0  0  0  0  0  0  0  0  0  0
  187.9680  177.6680  145.1280 C   0  0  0  0  0  0  0  0  0  0  0  0
  189.0230  177.3750  144.2540 C   0  0  0  0  0  0  0  0  0  0  0  0
  186.3370  178.0210  144.5690 Cl  0  0  0  0  0  0  0  0  0  0  0  0
  190.1100  177.0090  142.1200 C   0  0  0  0  0  0  0  0  0  0  0  0
  191.3230  176.7610  142.8040 C   0  0  0  0  0  3  0  0  0  0  0  0
  187.5300  177.9030  147.6580 C   0  0  0  0  0  0  0  0  0  0  0  0
  186.3820  178.4040  147.5420 O   0  0  0  0  0  0  0  0  0  0  0  0
  188.0100  177.5910  148.9230 O   0  0  0  0  0  1  0  0  0  0  0  0
  183.2550  176.9010  137.0610 C   0  0  0  0  0  2  0  0  0  0  0  0
  183.0880  175.6740  137.9380 C   0  0  0  0  0  2  0  0  0  0  0  0
  182.6200  176.0980  139.3140 C   0  0  0  0  0  1  0  0  0  0  0  0
  1  5  1  0  0  0  0
  2 16  1  0  0  0  0
  2 13  1  0  0  0  0
  3 10  1  0  0  0  0
  4  9  1  0  0  0  0
  5  9  2  0  0  0  0
  6  4  2  0  0  0  0
  7  8  2  0  0  0  0
  8  6  1  0  0  0  0
  9 27  1  0  0  0  0
 10 11  1  0  0  0  0
 11  1  2  0  0  0  0
 11  6  1  0  0  0  0
 12 10  2  0  0  0  0
 12  7  1  0  0  0  0
 14 13  1  0  0  0  0
 14 32  1  1  0  0  0
 14 15  1  0  0  0  0
 15 17  1  0  0  0  0
 16  3  1  1  0  0  0
 16 18  1  0  0  0  0
 18  1  1  0  0  0  0
 18 17  1  1  0  0  0
 19 23  1  0  0  0  0
 20 25  1  0  0  0  0
 21 22  1  0  0  0  0
 21 29  1  0  0  0  0
 23 22  1  0  0  0  0
 24 21  2  0  0  0  0
 25 23  2  0  0  0  0
 25 24  1  0  0  0  0
 26 24  1  0  0  0  0
 27 28  1  0  0  0  0
 27 20  2  0  0  0  0
 28 19  2  0  0  0  0
 29 31  1  0  0  0  0
 30 29  2  0  0  0  0
 32 33  1  0  0  0  0
 33 34  1  0  0  0  0
M  END
>  <MODEL>
1

>  <REMARK>
 VINA RESULT:      -9.2      0.000      0.000
  Name = 
  4 active torsions:
  status: ('A' for Active; 'I' for Inactive)
    1  A    between atoms: C_3  and  C_13
    2  A    between atoms: C_3  and  C_25
    3  A    between atoms: C_7  and  C_11
    4  A    between atoms: C_18  and  C_30
                            x       y       z     vdW  Elec       q    Type
                         _______ _______ _______ _____ _____    ______ ____

>  <TORSDO>
F 4

$$$$
=
 OpenBabel10272415243D

 34 39  0  0  1  0  0  0  0  0999 V2000
  185.4260  178.4160  140.5400 C   0  0  0  0  0  0  0  0  0  0  0  0
  183.4520  176.7960  138.5100 C   0  0  0  0  0  2  0  0  0  0  0  0
  184.6390  178.8890  137.7690 C   0  0  0  0  0  2  0  0  0  0  0  0
  188.1010  177.9840  141.1660 N   0  0  0  0  0  0  0  0  0  0  0  0
  185.8390  178.2720  141.8710 C   0  0  0  0  0  3  0  0  0  0  0  0
  187.7480  178.1440  139.8650 C   0  0  0  0  0  0  0  0  0  0  0  0
  188.3690  178.2650  137.5270 C   0  0  0  0  0  3  0  0  0  0  0  0
  188.7240  178.0830  138.8670 C   0  0  0  0  0  3  0  0  0  0  0  0
  187.1880  178.0470  142.1770 C   0  0  0  0  0  0  0  0  0  0  0  0
  186.0480  178.5610  138.1660 C   0  0  0  0  0  0  0  0  0  0  0  0
  186.3980  178.3800  139.5200 C   0  0  0  0  0  0  0  0  0  0  0  0
  187.0370  178.5100  137.1800 C   0  0  0  0  0  3  0  0  0  0  0  0
  182.3810  176.1320  139.3840 C   0  0  0  0  0  2  0  0  0  0  0  0
  181.2120  177.0680  139.7100 C   0  0  2  0  0  3  0  0  0  0  0  0
  181.5420  178.1050  140.8040 C   0  0  0  0  0  2  0  0  0  0  0  0
  183.6250  178.3030  138.7510 C   0  0  2  0  0  3  0  0  0  0  0  0
  183.0070  178.1120  141.2550 C   0  0  0  0  0  2  0  0  0  0  0  0
  183.9730  178.6940  140.2060 C   0  0  1  0  0  3  0  0  0  0  0  0
  187.1450  177.9620  145.9800 C   0  0  0  0  0  3  0  0  0  0  0  0
  188.9480  177.4750  143.8570 C   0  0  0  0  0  3  0  0  0  0  0  0
  190.7060  176.8640  147.0270 C   0  0  0  0  0  0  0  0  0  0  0  0
  189.2090  177.2970  147.6880 S   0  0  0  0  0  0  0  0  0  0  0  0
  188.4560  177.5620  146.2150 C   0  0  0  0  0  0  0  0  0  0  0  0
  190.6210  176.9260  145.6260 C   0  0  0  0  0  0  0  0  0  0  0  0
  189.3510  177.3200  145.1850 C   0  0  0  0  0  0  0  0  0  0  0  0
  191.9420  176.5580  144.5220 Cl  0  0  0  0  0  0  0  0  0  0  0  0
  187.6270  177.8790  143.5780 C   0  0  0  0  0  0  0  0  0  0  0  0
  186.7350  178.1200  144.6490 C   0  0  0  0  0  3  0  0  0  0  0  0
  191.8780  176.4910  147.8340 C   0  0  0  0  0  0  0  0  0  0  0  0
  192.4490  175.3810  147.6720 O   0  0  0  0  0  0  0  0  0  0  0  0
  192.3660  177.3720  148.7910 O   0  0  0  0  0  1  0  0  0  0  0  0
  180.0110  176.2380  140.1290 C   0  0  0  0  0  2  0  0  0  0  0  0
  180.1790  174.7990  139.6790 C   0  0  0  0  0  2  0  0  0  0  0  0
  179.9820  173.8750  140.8630 C   0  0  0  0  0  1  0  0  0  0  0  0
  1  5  1  0  0  0  0
  2 16  1  0  0  0  0
  2 13  1  0  0  0  0
  3 10  1  0  0  0  0
  4  9  1  0  0  0  0
  5  9  2  0  0  0  0
  6  4  2  0  0  0  0
  7  8  2  0  0  0  0
  8  6  1  0  0  0  0
  9 27  1  0  0  0  0
 10 11  1  0  0  0  0
 11  6  1  0  0  0  0
 11  1  2  0  0  0  0
 12  7  1  0  0  0  0
 12 10  2  0  0  0  0
 13 14  1  0  0  0  0
 14 32  1  1  0  0  0
 14 15  1  0  0  0  0
 15 17  1  0  0  0  0
 16  3  1  6  0  0  0
 16 18  1  0  0  0  0
 18  1  1  0  0  0  0
 18 17  1  1  0  0  0
 19 23  1  0  0  0  0
 20 25  1  0  0  0  0
 21 22  1  0  0  0  0
 21 29  1  0  0  0  0
 23 22  1  0  0  0  0
 24 21  2  0  0  0  0
 25 24  1  0  0  0  0
 25 23  2  0  0  0  0
 26 24  1  0  0  0  0
 27 20  2  0  0  0  0
 27 28  1  0  0  0  0
 28 19  2  0  0  0  0
 29 31  1  0  0  0  0
 30 29  2  0  0  0  0
 33 32  1  0  0  0  0
 33 34  1  0  0  0  0
M  END
>  <MODEL>
2

>  <REMARK>
 VINA RESULT:      -8.8      2.654      4.145
  Name = 
  4 active torsions:
  status: ('A' for Active; 'I' for Inactive)
    1  A    between atoms: C_3  and  C_13
    2  A    between atoms: C_3  and  C_25
    3  A    between atoms: C_7  and  C_11
    4  A    between atoms: C_18  and  C_30
                            x       y       z     vdW  Elec       q    Type
                         _______ _______ _______ _____ _____    ______ ____

>  <TORSDO>
F 4

$$$$
=
 OpenBabel10272415243D

 34 39  0  0  1  0  0  0  0  0999 V2000
  188.1610  178.2090  143.7340 C   0  0  0  0  0  0  0  0  0  0  0  0
  190.6150  176.1660  143.0640 C   0  0  0  0  0  2  0  0  0  0  0  0
  190.8470  177.9330  144.8430 C   0  0  0  0  0  2  0  0  0  0  0  0
  185.9420  177.8700  145.3750 N   0  0  0  0  0  0  0  0  0  0  0  0
  186.8650  178.4200  143.2440 C   0  0  0  0  0  3  0  0  0  0  0  0
  187.1810  177.6810  145.8970 C   0  0  0  0  0  0  0  0  0  0  0  0
  188.5960  177.1350  147.7850 C   0  0  0  0  0  3  0  0  0  0  0  0
  187.3230  177.3140  147.2380 C   0  0  0  0  0  3  0  0  0  0  0  0
  185.7530  178.2400  144.0770 C   0  0  0  0  0  0  0  0  0  0  0  0
  189.6080  177.6760  145.6480 C   0  0  0  0  0  0  0  0  0  0  0  0
  188.3260  177.8610  145.0890 C   0  0  0  0  0  0  0  0  0  0  0  0
  189.7340  177.3230  146.9950 C   0  0  0  0  0  3  0  0  0  0  0  0
  190.4860  175.8050  141.5790 C   0  0  0  0  0  2  0  0  0  0  0  0
  191.1450  176.8360  140.6550 C   0  0  2  0  0  3  0  0  0  0  0  0
  190.3090  178.1200  140.4730 C   0  0  0  0  0  2  0  0  0  0  0  0
  190.6160  177.6750  143.3550 C   0  0  2  0  0  3  0  0  0  0  0  0
  189.0590  178.1980  141.3570 C   0  0  0  0  0  2  0  0  0  0  0  0
  189.3700  178.4360  142.8460 C   0  0  1  0  0  3  0  0  0  0  0  0
  181.9900  178.7910  143.9680 C   0  0  0  0  0  3  0  0  0  0  0  0
  184.1540  178.4940  142.1720 C   0  0  0  0  0  3  0  0  0  0  0  0
  181.0820  178.9630  140.2100 C   0  0  0  0  0  0  0  0  0  0  0  0
  180.3740  179.0500  141.7450 S   0  0  0  0  0  0  0  0  0  0  0  0
  181.8040  178.8320  142.5900 C   0  0  0  0  0  0  0  0  0  0  0  0
  182.4640  178.7590  140.3540 C   0  0  0  0  0  0  0  0  0  0  0  0
  182.8550  178.6880  141.6980 C   0  0  0  0  0  0  0  0  0  0  0  0
  183.6030  178.6070  139.0210 Cl  0  0  0  0  0  0  0  0  0  0  0  0
  184.3830  178.4460  143.5620 C   0  0  0  0  0  0  0  0  0  0  0  0
  183.2920  178.5960  144.4500 C   0  0  0  0  0  3  0  0  0  0  0  0
  180.3250  179.0870  138.9530 C   0  0  0  0  0  0  0  0  0  0  0  0
  179.9820  180.2150  138.5130 O   0  0  0  0  0  1  0  0  0  0  0  0
  179.9820  177.9460  138.2390 O   0  0  0  0  0  0  0  0  0  0  0  0
  191.4110  176.1950  139.3050 C   0  0  0  0  0  2  0  0  0  0  0  0
  190.4780  176.7670  138.2540 C   0  0  0  0  0  2  0  0  0  0  0  0
  189.6660  175.6470  137.6380 C   0  0  0  0  0  1  0  0  0  0  0  0
  1 11  1  0  0  0  0
  3 10  1  0  0  0  0
  4  6  1  0  0  0  0
  5  1  2  0  0  0  0
  5  9  1  0  0  0  0
  6  8  1  0  0  0  0
  8  7  2  0  0  0  0
  9  4  2  0  0  0  0
 10 12  2  0  0  0  0
 11 10  1  0  0  0  0
 11  6  2  0  0  0  0
 12  7  1  0  0  0  0
 13  2  1  0  0  0  0
 14 32  1  6  0  0  0
 14 13  1  0  0  0  0
 15 14  1  0  0  0  0
 15 17  1  0  0  0  0
 16  2  1  1  0  0  0
 16  3  1  0  0  0  0
 18 17  1  6  0  0  0
 18 16  1  0  0  0  0
 18  1  1  0  0  0  0
 19 28  1  0  0  0  0
 20 27  1  0  0  0  0
 21 24  2  0  0  0  0
 21 22  1  0  0  0  0
 22 23  1  0  0  0  0
 23 19  2  0  0  0  0
 24 25  1  0  0  0  0
 25 20  2  0  0  0  0
 25 23  1  0  0  0  0
 26 24  1  0  0  0  0
 27  9  1  0  0  0  0
 27 28  2  0  0  0  0
 29 21  1  0  0  0  0
 30 29  1  0  0  0  0
 31 29  2  0  0  0  0
 33 32  1  0  0  0  0
 34 33  1  0  0  0  0
M  END
>  <MODEL>
3

>  <REMARK>
 VINA RESULT:      -8.7      4.528      8.370
  Name = 
  4 active torsions:
  status: ('A' for Active; 'I' for Inactive)
    1  A    between atoms: C_3  and  C_13
    2  A    between atoms: C_3  and  C_25
    3  A    between atoms: C_7  and  C_11
    4  A    between atoms: C_18  and  C_30
                            x       y       z     vdW  Elec       q    Type
                         _______ _______ _______ _____ _____    ______ ____

>  <TORSDO>
F 4

$$$$
=
 OpenBabel10272415243D

 34 39  0  0  1  0  0  0  0  0999 V2000
  188.7100  177.1200  138.1060 C   0  0  0  0  0  0  0  0  0  0  0  0
  187.4940  175.3410  135.6580 C   0  0  0  0  0  2  0  0  0  0  0  0
  189.3740  176.9690  135.2680 C   0  0  0  0  0  2  0  0  0  0  0  0
  190.6260  176.4740  140.0150 N   0  0  0  0  0  0  0  0  0  0  0  0
  188.4420  177.2670  139.4740 C   0  0  0  0  0  3  0  0  0  0  0  0
  190.9370  176.3410  138.7000 C   0  0  0  0  0  0  0  0  0  0  0  0
  192.5330  175.7580  136.9740 C   0  0  0  0  0  3  0  0  0  0  0  0
  192.2020  175.8790  138.3270 C   0  0  0  0  0  3  0  0  0  0  0  0
  189.4110  176.9320  140.4290 C   0  0  0  0  0  0  0  0  0  0  0  0
  190.3280  176.5500  136.3470 C   0  0  0  0  0  0  0  0  0  0  0  0
  189.9870  176.6770  137.7100 C   0  0  0  0  0  0  0  0  0  0  0  0
  191.6020  176.0990  135.9890 C   0  0  0  0  0  3  0  0  0  0  0  0
  186.0180  175.0930  135.9920 C   0  0  0  0  0  2  0  0  0  0  0  0
  185.1060  176.2440  135.5560 C   0  0  2  0  0  3  0  0  0  0  0  0
  185.1710  177.4690  136.4920 C   0  0  0  0  0  2  0  0  0  0  0  0
  187.9200  176.8160  135.7110 C   0  0  2  0  0  3  0  0  0  0  0  0
  186.2350  177.3750  137.5920 C   0  0  0  0  0  2  0  0  0  0  0  0
  187.6760  177.5150  137.0690 C   0  0  1  0  0  3  0  0  0  0  0  0
  189.8060  176.7640  144.2090 C   0  0  0  0  0  3  0  0  0  0  0  0
  187.9110  177.6360  142.3000 C   0  0  0  0  0  3  0  0  0  0  0  0
  186.5510  178.2800  145.6530 C   0  0  0  0  0  0  0  0  0  0  0  0
  188.0220  177.6000  146.1420 S   0  0  0  0  0  0  0  0  0  0  0  0
  188.5930  177.3280  144.5910 C   0  0  0  0  0  0  0  0  0  0  0  0
  186.5000  178.2980  144.2500 C   0  0  0  0  0  0  0  0  0  0  0  0
  187.6550  177.7600  143.6670 C   0  0  0  0  0  0  0  0  0  0  0  0
  185.1530  178.9180  143.3000 Cl  0  0  0  0  0  0  0  0  0  0  0  0
  189.1280  177.0690  141.8730 C   0  0  0  0  0  0  0  0  0  0  0  0
  190.0690  176.6370  142.8380 C   0  0  0  0  0  3  0  0  0  0  0  0
  185.5220  178.7610  146.5900 C   0  0  0  0  0  0  0  0  0  0  0  0
  185.8250  179.5050  147.5580 O   0  0  0  0  0  1  0  0  0  0  0  0
  184.1950  178.3930  146.4060 O   0  0  0  0  0  0  0  0  0  0  0  0
  183.6770  175.7400  135.4620 C   0  0  0  0  0  2  0  0  0  0  0  0
  183.5200  174.4470  136.2400 C   0  0  0  0  0  2  0  0  0  0  0  0
  182.2130  174.4750  137.0050 C   0  0  0  0  0  1  0  0  0  0  0  0
  1  5  1  0  0  0  0
  2 16  1  0  0  0  0
  2 13  1  0  0  0  0
  3 10  1  0  0  0  0
  4  9  1  0  0  0  0
  5  9  2  0  0  0  0
  6  4  2  0  0  0  0
  7  8  2  0  0  0  0
  8  6  1  0  0  0  0
  9 27  1  0  0  0  0
 10 11  1  0  0  0  0
 11  1  2  0  0  0  0
 11  6  1  0  0  0  0
 12 10  2  0  0  0  0
 12  7  1  0  0  0  0
 14 32  1  1  0  0  0
 14 13  1  0  0  0  0
 14 15  1  0  0  0  0
 15 17  1  0  0  0  0
 16  3  1  1  0  0  0
 16 18  1  0  0  0  0
 18 17  1  1  0  0  0
 18  1  1  0  0  0  0
 19 23  1  0  0  0  0
 20 25  1  0  0  0  0
 21 22  1  0  0  0  0
 21 29  1  0  0  0  0
 23 22  1  0  0  0  0
 24 21  2  0  0  0  0
 25 24  1  0  0  0  0
 25 23  2  0  0  0  0
 26 24  1  0  0  0  0
 27 20  2  0  0  0  0
 27 28  1  0  0  0  0
 28 19  2  0  0  0  0
 29 30  1  0  0  0  0
 31 29  2  0  0  0  0
 32 33  1  0  0  0  0
 33 34  1  0  0  0  0
M  END
>  <MODEL>
4

>  <REMARK>
 VINA RESULT:      -8.5      1.365      1.610
  Name = 
  4 active torsions:
  status: ('A' for Active; 'I' for Inactive)
    1  A    between atoms: C_3  and  C_13
    2  A    between atoms: C_3  and  C_25
    3  A    between atoms: C_7  and  C_11
    4  A    between atoms: C_18  and  C_30
                            x       y       z     vdW  Elec       q    Type
                         _______ _______ _______ _____ _____    ______ ____

>  <TORSDO>
F 4

$$$$
=
 OpenBabel10272415243D

 34 39  0  0  1  0  0  0  0  0999 V2000
  187.9670  177.1890  144.3100 C   0  0  0  0  0  0  0  0  0  0  0  0
  185.9830  179.2700  145.8480 C   0  0  0  0  0  2  0  0  0  0  0  0
  186.7940  177.1740  146.9820 C   0  0  0  0  0  2  0  0  0  0  0  0
  190.7320  177.2340  144.0090 N   0  0  0  0  0  0  0  0  0  0  0  0
  188.5550  177.1100  143.0390 C   0  0  0  0  0  3  0  0  0  0  0  0
  190.2050  177.2870  145.2600 C   0  0  0  0  0  0  0  0  0  0  0  0
  190.5160  177.4050  147.6590 C   0  0  0  0  0  3  0  0  0  0  0  0
  191.0520  177.3690  146.3680 C   0  0  0  0  0  3  0  0  0  0  0  0
  189.9490  177.1410  142.8980 C   0  0  0  0  0  0  0  0  0  0  0  0
  188.2710  177.2880  146.7460 C   0  0  0  0  0  0  0  0  0  0  0  0
  188.8050  177.2500  145.4410 C   0  0  0  0  0  0  0  0  0  0  0  0
  189.1320  177.3570  147.8460 C   0  0  0  0  0  3  0  0  0  0  0  0
  185.1200  179.9290  144.7650 C   0  0  0  0  0  2  0  0  0  0  0  0
  183.8900  179.0940  144.3930 C   0  0  2  0  0  3  0  0  0  0  0  0
  184.2170  177.8920  143.4820 C   0  0  0  0  0  2  0  0  0  0  0  0
  185.9910  177.7340  145.8090 C   0  0  2  0  0  3  0  0  0  0  0  0
  185.7130  177.6630  143.2400 C   0  0  0  0  0  2  0  0  0  0  0  0
  186.4610  177.1200  144.4710 C   0  0  1  0  0  3  0  0  0  0  0  0
  192.5610  177.2270  140.1330 C   0  0  0  0  0  3  0  0  0  0  0  0
  189.7820  176.7950  140.4280 C   0  0  0  0  0  3  0  0  0  0  0  0
  190.6270  176.4810  136.8640 C   0  0  0  0  0  0  0  0  0  0  0  0
  192.1870  176.8170  137.4290 S   0  0  0  0  0  0  0  0  0  0  0  0
  191.7470  176.9500  139.0400 C   0  0  0  0  0  0  0  0  0  0  0  0
  189.7390  176.4710  137.9530 C   0  0  0  0  0  0  0  0  0  0  0  0
  190.3830  176.7360  139.1690 C   0  0  0  0  0  0  0  0  0  0  0  0
  188.0100  176.1640  137.8370 Cl  0  0  0  0  0  0  0  0  0  0  0  0
  190.5730  177.0740  141.5600 C   0  0  0  0  0  0  0  0  0  0  0  0
  191.9630  177.2890  141.3990 C   0  0  0  0  0  3  0  0  0  0  0  0
  190.3040  176.2440  135.4480 C   0  0  0  0  0  0  0  0  0  0  0  0
  190.7610  175.2420  134.8390 O   0  0  0  0  0  1  0  0  0  0  0  0
  189.4840  177.1360  134.7690 O   0  0  0  0  0  0  0  0  0  0  0  0
  182.8650  179.9900  143.7210 C   0  0  0  0  0  2  0  0  0  0  0  0
  181.8880  179.1610  142.9090 C   0  0  0  0  0  2  0  0  0  0  0  0
  180.7000  178.7920  143.7740 C   0  0  0  0  0  1  0  0  0  0  0  0
  1 18  1  0  0  0  0
  1 11  1  0  0  0  0
  4  6  1  0  0  0  0
  5  1  2  0  0  0  0
  6 11  2  0  0  0  0
  6  8  1  0  0  0  0
  7 12  1  0  0  0  0
  8  7  2  0  0  0  0
  9  5  1  0  0  0  0
  9  4  2  0  0  0  0
 10  3  1  0  0  0  0
 10 12  2  0  0  0  0
 11 10  1  0  0  0  0
 13  2  1  0  0  0  0
 14 32  1  6  0  0  0
 14 13  1  0  0  0  0
 15 14  1  0  0  0  0
 16  2  1  6  0  0  0
 16  3  1  0  0  0  0
 17 15  1  0  0  0  0
 18 17  1  6  0  0  0
 18 16  1  0  0  0  0
 19 28  1  0  0  0  0
 20 27  1  0  0  0  0
 21 22  1  0  0  0  0
 21 24  2  0  0  0  0
 22 23  1  0  0  0  0
 23 25  1  0  0  0  0
 23 19  2  0  0  0  0
 24 25  1  0  0  0  0
 25 20  2  0  0  0  0
 26 24  1  0  0  0  0
 27  9  1  0  0  0  0
 28 27  2  0  0  0  0
 29 21  1  0  0  0  0
 30 29  1  0  0  0  0
 31 29  2  0  0  0  0
 33 32  1  0  0  0  0
 33 34  1  0  0  0  0
M  END
>  <MODEL>
5

>  <REMARK>
 VINA RESULT:      -8.5      4.756      8.163
  Name = 
  4 active torsions:
  status: ('A' for Active; 'I' for Inactive)
    1  A    between atoms: C_3  and  C_13
    2  A    between atoms: C_3  and  C_25
    3  A    between atoms: C_7  and  C_11
    4  A    between atoms: C_18  and  C_30
                            x       y       z     vdW  Elec       q    Type
                         _______ _______ _______ _____ _____    ______ ____

>  <TORSDO>
F 4

$$$$
=
 OpenBabel10272415243D

 34 39  0  0  1  0  0  0  0  0999 V2000
  187.7390  178.3590  140.3190 C   0  0  0  0  0  0  0  0  0  0  0  0
  186.5660  177.3640  143.1950 C   0  0  0  0  0  2  0  0  0  0  0  0
  185.6570  179.4230  142.0670 C   0  0  0  0  0  2  0  0  0  0  0  0
  187.0980  177.5400  137.7400 N   0  0  0  0  0  0  0  0  0  0  0  0
  188.7350  177.9250  139.4330 C   0  0  0  0  0  3  0  0  0  0  0  0
  186.1050  177.9770  138.5560 C   0  0  0  0  0  0  0  0  0  0  0  0
  183.7630  178.4690  138.9260 C   0  0  0  0  0  3  0  0  0  0  0  0
  184.7860  178.0030  138.0960 C   0  0  0  0  0  3  0  0  0  0  0  0
  188.4010  177.5080  138.1380 C   0  0  0  0  0  0  0  0  0  0  0  0
  185.3670  178.8810  140.6980 C   0  0  0  0  0  0  0  0  0  0  0  0
  186.4050  178.4130  139.8660 C   0  0  0  0  0  0  0  0  0  0  0  0
  184.0540  178.9130  140.2190 C   0  0  0  0  0  3  0  0  0  0  0  0
  187.7240  176.6640  143.9170 C   0  0  0  0  0  2  0  0  0  0  0  0
  188.6340  177.6390  144.6710 C   0  0  2  0  0  3  0  0  0  0  0  0
  189.6020  178.4120  143.7500 C   0  0  0  0  0  2  0  0  0  0  0  0
  186.8970  178.7730  142.6800 C   0  0  2  0  0  3  0  0  0  0  0  0
  189.3770  178.1810  142.2520 C   0  0  0  0  0  2  0  0  0  0  0  0
  188.0980  178.8450  141.7100 C   0  0  1  0  0  3  0  0  0  0  0  0
  190.1410  176.3910  134.9440 C   0  0  0  0  0  3  0  0  0  0  0  0
  190.7450  176.7710  137.6800 C   0  0  0  0  0  3  0  0  0  0  0  0
  193.7840  175.5940  135.9790 C   0  0  0  0  0  0  0  0  0  0  0  0
  192.7670  175.6040  134.6250 S   0  0  0  0  0  0  0  0  0  0  0  0
  191.4120  176.1420  135.4510 C   0  0  0  0  0  0  0  0  0  0  0  0
  193.0540  176.0190  137.1020 C   0  0  0  0  0  0  0  0  0  0  0  0
  191.7230  176.3230  136.7890 C   0  0  0  0  0  0  0  0  0  0  0  0
  193.7080  176.1640  138.7300 Cl  0  0  0  0  0  0  0  0  0  0  0  0
  189.4450  177.0340  137.2050 C   0  0  0  0  0  0  0  0  0  0  0  0
  189.1550  176.8400  135.8340 C   0  0  0  0  0  3  0  0  0  0  0  0
  195.2000  175.1950  135.9340 C   0  0  0  0  0  0  0  0  0  0  0  0
  195.5330  173.9820  135.9700 O   0  0  0  0  0  1  0  0  0  0  0  0
  196.1880  176.1680  135.8510 O   0  0  0  0  0  0  0  0  0  0  0  0
  189.4190  176.8760  145.7230 C   0  0  0  0  0  2  0  0  0  0  0  0
  189.3550  177.5960  147.0570 C   0  0  0  0  0  2  0  0  0  0  0  0
  187.9170  177.6650  147.5250 C   0  0  0  0  0  1  0  0  0  0  0  0
  1 18  1  0  0  0  0
  2 13  1  0  0  0  0
  4  9  2  0  0  0  0
  4  6  1  0  0  0  0
  5  1  2  0  0  0  0
  6 11  1  0  0  0  0
  7 12  2  0  0  0  0
  8  6  2  0  0  0  0
  8  7  1  0  0  0  0
  9  5  1  0  0  0  0
 10  3  1  0  0  0  0
 11  1  1  0  0  0  0
 11 10  2  0  0  0  0
 12 10  1  0  0  0  0
 13 14  1  0  0  0  0
 14 32  1  1  0  0  0
 15 14  1  0  0  0  0
 16  3  1  6  0  0  0
 16  2  1  0  0  0  0
 17 15  1  0  0  0  0
 18 17  1  1  0  0  0
 18 16  1  0  0  0  0
 19 23  2  0  0  0  0
 19 28  1  0  0  0  0
 21 24  2  0  0  0  0
 22 23  1  0  0  0  0
 22 21  1  0  0  0  0
 23 25  1  0  0  0  0
 24 26  1  0  0  0  0
 25 24  1  0  0  0  0
 25 20  2  0  0  0  0
 27 20  1  0  0  0  0
 27  9  1  0  0  0  0
 28 27  2  0  0  0  0
 29 30  1  0  0  0  0
 29 21  1  0  0  0  0
 31 29  2  0  0  0  0
 32 33  1  0  0  0  0
 33 34  1  0  0  0  0
M  END
>  <MODEL>
6

>  <REMARK>
 VINA RESULT:      -8.4      4.917      8.688
  Name = 
  4 active torsions:
  status: ('A' for Active; 'I' for Inactive)
    1  A    between atoms: C_3  and  C_13
    2  A    between atoms: C_3  and  C_25
    3  A    between atoms: C_7  and  C_11
    4  A    between atoms: C_18  and  C_30
                            x       y       z     vdW  Elec       q    Type
                         _______ _______ _______ _____ _____    ______ ____

>  <TORSDO>
F 4

$$$$
=
 OpenBabel10272415243D

 34 39  0  0  1  0  0  0  0  0999 V2000
  190.4430  177.3980  139.7810 C   0  0  0  0  0  0  0  0  0  0  0  0
  188.7070  176.6820  142.4470 C   0  0  0  0  0  2  0  0  0  0  0  0
  188.1010  178.6470  140.9950 C   0  0  0  0  0  2  0  0  0  0  0  0
  190.2820  176.3640  137.2040 N   0  0  0  0  0  0  0  0  0  0  0  0
  191.5750  176.8710  139.1440 C   0  0  0  0  0  3  0  0  0  0  0  0
  189.1660  176.8880  137.7720 C   0  0  0  0  0  0  0  0  0  0  0  0
  186.8140  177.4500  137.6380 C   0  0  0  0  0  3  0  0  0  0  0  0
  187.9620  176.8950  137.0640 C   0  0  0  0  0  3  0  0  0  0  0  0
  191.4830  176.3460  137.8490 C   0  0  0  0  0  0  0  0  0  0  0  0
  188.0610  177.9900  139.6470 C   0  0  0  0  0  0  0  0  0  0  0  0
  189.2240  177.4340  139.0740 C   0  0  0  0  0  0  0  0  0  0  0  0
  186.8670  178.0010  138.9210 C   0  0  0  0  0  3  0  0  0  0  0  0
  189.6800  176.0290  143.4370 C   0  0  0  0  0  2  0  0  0  0  0  0
  190.4610  177.0520  144.2680 C   0  0  2  0  0  3  0  0  0  0  0  0
  191.6130  177.7250  143.4920 C   0  0  0  0  0  2  0  0  0  0  0  0
  189.1770  178.0340  141.8900 C   0  0  2  0  0  3  0  0  0  0  0  0
  191.6730  177.3650  142.0030 C   0  0  0  0  0  2  0  0  0  0  0  0
  190.5450  178.0000  141.1690 C   0  0  1  0  0  3  0  0  0  0  0  0
  193.8070  175.0330  135.1380 C   0  0  0  0  0  3  0  0  0  0  0  0
  193.8040  175.4220  137.9390 C   0  0  0  0  0  3  0  0  0  0  0  0
  197.0450  173.9800  136.9780 C   0  0  0  0  0  0  0  0  0  0  0  0
  196.3670  174.0400  135.4280 S   0  0  0  0  0  0  0  0  0  0  0  0
  194.9060  174.6970  135.9220 C   0  0  0  0  0  0  0  0  0  0  0  0
  196.1160  174.4830  137.9040 C   0  0  0  0  0  0  0  0  0  0  0  0
  194.9190  174.8820  137.2950 C   0  0  0  0  0  0  0  0  0  0  0  0
  196.3930  174.6100  139.6370 Cl  0  0  0  0  0  0  0  0  0  0  0  0
  192.6700  175.7740  137.1790 C   0  0  0  0  0  0  0  0  0  0  0  0
  192.6850  175.5750  135.7790 C   0  0  0  0  0  3  0  0  0  0  0  0
  198.3990  173.4720  137.2580 C   0  0  0  0  0  0  0  0  0  0  0  0
  198.6350  172.2370  137.2810 O   0  0  0  0  0  0  0  0  0  0  0  0
  199.4340  174.3660  137.5010 O   0  0  0  0  0  1  0  0  0  0  0  0
  191.0030  176.3730  145.5130 C   0  0  0  0  0  2  0  0  0  0  0  0
  190.4100  177.0000  146.7600 C   0  0  0  0  0  2  0  0  0  0  0  0
  189.0880  177.6540  146.4160 C   0  0  0  0  0  1  0  0  0  0  0  0
  1 18  1  0  0  0  0
  2 13  1  0  0  0  0
  4  6  2  0  0  0  0
  4  9  1  0  0  0  0
  5  1  1  0  0  0  0
  6 11  1  0  0  0  0
  7 12  1  0  0  0  0
  8  7  2  0  0  0  0
  8  6  1  0  0  0  0
  9  5  2  0  0  0  0
 10  3  1  0  0  0  0
 11 10  1  0  0  0  0
 11  1  2  0  0  0  0
 12 10  2  0  0  0  0
 13 14  1  0  0  0  0
 14 32  1  1  0  0  0
 15 14  1  0  0  0  0
 16  3  1  6  0  0  0
 16  2  1  0  0  0  0
 17 15  1  0  0  0  0
 18 16  1  0  0  0  0
 18 17  1  1  0  0  0
 19 28  2  0  0  0  0
 19 23  1  0  0  0  0
 21 29  1  0  0  0  0
 21 24  2  0  0  0  0
 22 23  1  0  0  0  0
 22 21  1  0  0  0  0
 23 25  2  0  0  0  0
 24 26  1  0  0  0  0
 25 24  1  0  0  0  0
 25 20  1  0  0  0  0
 27  9  1  0  0  0  0
 27 20  2  0  0  0  0
 28 27  1  0  0  0  0
 29 30  2  0  0  0  0
 29 31  1  0  0  0  0
 32 33  1  0  0  0  0
 34 33  1  0  0  0  0
M  END
>  <MODEL>
7

>  <REMARK>
 VINA RESULT:      -8.3      5.450      8.969
  Name = 
  4 active torsions:
  status: ('A' for Active; 'I' for Inactive)
    1  A    between atoms: C_3  and  C_13
    2  A    between atoms: C_3  and  C_25
    3  A    between atoms: C_7  and  C_11
    4  A    between atoms: C_18  and  C_30
                            x       y       z     vdW  Elec       q    Type
                         _______ _______ _______ _____ _____    ______ ____

>  <TORSDO>
F 4

$$$$
=
 OpenBabel10272415243D

 34 39  0  0  1  0  0  0  0  0999 V2000
  188.1940  177.4500  138.3200 C   0  0  0  0  0  0  0  0  0  0  0  0
  187.5840  175.4130  135.8460 C   0  0  0  0  0  2  0  0  0  0  0  0
  189.3620  177.1860  135.6590 C   0  0  0  0  0  2  0  0  0  0  0  0
  189.7880  177.1090  140.5740 N   0  0  0  0  0  0  0  0  0  0  0  0
  187.6750  177.6550  139.6070 C   0  0  0  0  0  3  0  0  0  0  0  0
  190.3370  176.9250  139.3460 C   0  0  0  0  0  0  0  0  0  0  0  0
  192.2570  176.3910  137.9710 C   0  0  0  0  0  3  0  0  0  0  0  0
  191.6820  176.5640  139.2320 C   0  0  0  0  0  3  0  0  0  0  0  0
  188.4840  177.4740  140.7360 C   0  0  0  0  0  0  0  0  0  0  0  0
  190.1410  176.9280  136.9150 C   0  0  0  0  0  0  0  0  0  0  0  0
  189.5540  177.1070  138.1850 C   0  0  0  0  0  0  0  0  0  0  0  0
  191.4910  176.5800  136.8170 C   0  0  0  0  0  3  0  0  0  0  0  0
  186.0980  175.0470  135.9410 C   0  0  0  0  0  2  0  0  0  0  0  0
  185.1860  176.0760  135.2660 C   0  0  2  0  0  3  0  0  0  0  0  0
  184.9810  177.3570  136.1020 C   0  0  0  0  0  2  0  0  0  0  0  0
  187.8700  176.9230  135.8560 C   0  0  2  0  0  3  0  0  0  0  0  0
  185.8370  177.4340  137.3710 C   0  0  0  0  0  2  0  0  0  0  0  0
  187.3320  177.6780  137.0930 C   0  0  1  0  0  3  0  0  0  0  0  0
  186.0530  178.1940  143.5730 C   0  0  0  0  0  3  0  0  0  0  0  0
  188.7800  177.5370  143.2170 C   0  0  0  0  0  3  0  0  0  0  0  0
  188.1360  177.8790  146.8200 C   0  0  0  0  0  0  0  0  0  0  0  0
  186.5650  178.2180  146.2850 S   0  0  0  0  0  0  0  0  0  0  0  0
  186.9150  178.0500  144.6550 C   0  0  0  0  0  0  0  0  0  0  0  0
  188.9540  177.6290  145.7060 C   0  0  0  0  0  0  0  0  0  0  0  0
  188.2530  177.7280  144.4960 C   0  0  0  0  0  0  0  0  0  0  0  0
  190.6670  177.2320  145.7860 Cl  0  0  0  0  0  0  0  0  0  0  0  0
  187.9390  177.6740  142.0950 C   0  0  0  0  0  0  0  0  0  0  0  0
  186.5760  178.0030  142.2860 C   0  0  0  0  0  3  0  0  0  0  0  0
  188.5290  177.8620  148.2380 C   0  0  0  0  0  0  0  0  0  0  0  0
  187.7790  177.3560  149.1120 O   0  0  0  0  0  1  0  0  0  0  0  0
  189.7460  178.4110  148.6230 O   0  0  0  0  0  0  0  0  0  0  0  0
  183.8440  175.4320  134.9680 C   0  0  0  0  0  2  0  0  0  0  0  0
  183.5870  174.2780  135.9190 C   0  0  0  0  0  2  0  0  0  0  0  0
  182.4700  174.6480  136.8720 C   0  0  0  0  0  1  0  0  0  0  0  0
  1  5  1  0  0  0  0
  2 16  1  0  0  0  0
  2 13  1  0  0  0  0
  3 10  1  0  0  0  0
  4  9  1  0  0  0  0
  5  9  2  0  0  0  0
  6  4  2  0  0  0  0
  7  8  2  0  0  0  0
  8  6  1  0  0  0  0
  9 27  1  0  0  0  0
 10 11  1  0  0  0  0
 11  1  2  0  0  0  0
 11  6  1  0  0  0  0
 12 10  2  0  0  0  0
 12  7  1  0  0  0  0
 14 32  1  1  0  0  0
 14 13  1  0  0  0  0
 14 15  1  0  0  0  0
 15 17  1  0  0  0  0
 16  3  1  1  0  0  0
 16 18  1  0  0  0  0
 18 17  1  1  0  0  0
 18  1  1  0  0  0  0
 19 23  1  0  0  0  0
 20 25  1  0  0  0  0
 21 29  1  0  0  0  0
 22 21  1  0  0  0  0
 23 22  1  0  0  0  0
 24 26  1  0  0  0  0
 24 21  2  0  0  0  0
 25 23  2  0  0  0  0
 25 24  1  0  0  0  0
 27 28  1  0  0  0  0
 27 20  2  0  0  0  0
 28 19  2  0  0  0  0
 29 31  2  0  0  0  0
 29 30  1  0  0  0  0
 32 33  1  0  0  0  0
 33 34  1  0  0  0  0
M  END
>  <MODEL>
8

>  <REMARK>
 VINA RESULT:      -8.3      1.697      2.248
  Name = 
  4 active torsions:
  status: ('A' for Active; 'I' for Inactive)
    1  A    between atoms: C_3  and  C_13
    2  A    between atoms: C_3  and  C_25
    3  A    between atoms: C_7  and  C_11
    4  A    between atoms: C_18  and  C_30
                            x       y       z     vdW  Elec       q    Type
                         _______ _______ _______ _____ _____    ______ ____

>  <TORSDO>
F 4

$$$$
=
 OpenBabel10272415243D

 34 39  0  0  1  0  0  0  0  0999 V2000
  187.6250  177.7050  137.8540 C   0  0  0  0  0  0  0  0  0  0  0  0
  185.1470  176.2450  136.3160 C   0  0  0  0  0  2  0  0  0  0  0  0
  186.7610  177.7180  135.0660 C   0  0  0  0  0  2  0  0  0  0  0  0
  190.1450  176.7350  138.5200 N   0  0  0  0  0  0  0  0  0  0  0  0
  188.0950  177.7670  139.1740 C   0  0  0  0  0  3  0  0  0  0  0  0
  189.7400  176.6790  137.2260 C   0  0  0  0  0  0  0  0  0  0  0  0
  190.1790  176.0880  134.9190 C   0  0  0  0  0  3  0  0  0  0  0  0
  190.5840  176.1320  136.2560 C   0  0  0  0  0  3  0  0  0  0  0  0
  189.3630  177.2700  139.5010 C   0  0  0  0  0  0  0  0  0  0  0  0
  188.0690  177.1280  135.5070 C   0  0  0  0  0  0  0  0  0  0  0  0
  188.4710  177.1780  136.8580 C   0  0  0  0  0  0  0  0  0  0  0  0
  188.9300  176.5910  134.5460 C   0  0  0  0  0  3  0  0  0  0  0  0
  184.0170  176.1090  137.3440 C   0  0  0  0  0  2  0  0  0  0  0  0
  183.1540  177.3700  137.4530 C   0  0  2  0  0  3  0  0  0  0  0  0
  183.8240  178.5060  138.2550 C   0  0  0  0  0  2  0  0  0  0  0  0
  185.7160  177.6660  136.1790 C   0  0  2  0  0  3  0  0  0  0  0  0
  185.2750  178.2270  138.6640 C   0  0  0  0  0  2  0  0  0  0  0  0
  186.2680  178.2740  137.4890 C   0  0  1  0  0  3  0  0  0  0  0  0
  191.7200  177.4200  142.4840 C   0  0  0  0  0  3  0  0  0  0  0  0
  188.9420  177.3090  141.9640 C   0  0  0  0  0  3  0  0  0  0  0  0
  189.4320  177.4060  145.6060 C   0  0  0  0  0  0  0  0  0  0  0  0
  191.0660  177.4560  145.1660 S   0  0  0  0  0  0  0  0  0  0  0  0
  190.7850  177.4090  143.5140 C   0  0  0  0  0  0  0  0  0  0  0  0
  188.6460  177.3520  144.4430 C   0  0  0  0  0  0  0  0  0  0  0  0
  189.4210  177.3540  143.2750 C   0  0  0  0  0  0  0  0  0  0  0  0
  186.8880  177.2880  144.4190 Cl  0  0  0  0  0  0  0  0  0  0  0  0
  189.8570  177.3190  140.8930 C   0  0  0  0  0  0  0  0  0  0  0  0
  191.2440  177.3750  141.1660 C   0  0  0  0  0  3  0  0  0  0  0  0
  188.9610  177.4200  147.0010 C   0  0  0  0  0  0  0  0  0  0  0  0
  188.5580  178.4850  147.5370 O   0  0  0  0  0  0  0  0  0  0  0  0
  188.9590  176.2440  147.7400 O   0  0  0  0  0  1  0  0  0  0  0  0
  181.8210  177.0090  138.0820 C   0  0  0  0  0  2  0  0  0  0  0  0
  182.0340  176.2110  139.3540 C   0  0  0  0  0  2  0  0  0  0  0  0
  180.7340  175.5480  139.7570 C   0  0  0  0  0  1  0  0  0  0  0  0
  1  5  1  0  0  0  0
  2 13  1  0  0  0  0
  3 10  1  0  0  0  0
  4  9  1  0  0  0  0
  5  9  2  0  0  0  0
  6  4  2  0  0  0  0
  7  8  2  0  0  0  0
  8  6  1  0  0  0  0
  9 27  1  0  0  0  0
 10 11  1  0  0  0  0
 11  6  1  0  0  0  0
 11  1  2  0  0  0  0
 12  7  1  0  0  0  0
 12 10  2  0  0  0  0
 13 14  1  0  0  0  0
 14 32  1  1  0  0  0
 14 15  1  0  0  0  0
 15 17  1  0  0  0  0
 16  3  1  6  0  0  0
 16  2  1  0  0  0  0
 16 18  1  0  0  0  0
 18  1  1  0  0  0  0
 18 17  1  1  0  0  0
 19 23  1  0  0  0  0
 20 25  1  0  0  0  0
 21 29  1  0  0  0  0
 22 21  1  0  0  0  0
 23 22  1  0  0  0  0
 24 21  2  0  0  0  0
 25 23  2  0  0  0  0
 25 24  1  0  0  0  0
 26 24  1  0  0  0  0
 27 28  1  0  0  0  0
 27 20  2  0  0  0  0
 28 19  2  0  0  0  0
 29 30  2  0  0  0  0
 29 31  1  0  0  0  0
 32 33  1  0  0  0  0
 33 34  1  0  0  0  0
M  END
>  <MODEL>
9

>  <REMARK>
 VINA RESULT:      -8.3      1.225      1.738
  Name = 
  4 active torsions:
  status: ('A' for Active; 'I' for Inactive)
    1  A    between atoms: C_3  and  C_13
    2  A    between atoms: C_3  and  C_25
    3  A    between atoms: C_7  and  C_11
    4  A    between atoms: C_18  and  C_30
                            x       y       z     vdW  Elec       q    Type
                         _______ _______ _______ _____ _____    ______ ____

>  <TORSDO>
F 4

$$$$
