=
 OpenBabel10272400493D

 25 29  0  0  0  0  0  0  0  0999 V2000
  187.2330  177.9960  145.4800 C   0  0  0  0  0  0  0  0  0  0  0  0
  188.5410  177.6710  145.0600 C   0  0  0  0  0  0  0  0  0  0  0  0
  187.9130  177.9150  147.8220 C   0  0  0  0  0  3  0  0  0  0  0  0
  186.0920  178.2360  144.6870 C   0  0  0  0  0  0  0  0  0  0  0  0
  183.6360  178.7720  143.4620 C   0  0  0  0  0  3  0  0  0  0  0  0
  189.2120  177.5940  147.4160 C   0  0  0  0  0  3  0  0  0  0  0  0
  184.9590  178.5300  145.4460 C   0  0  0  0  0  0  0  0  0  0  0  0
  183.7250  178.8010  144.8610 C   0  0  0  0  0  3  0  0  0  0  0  0
  190.9050  177.1430  145.6410 C   0  0  0  0  0  0  0  0  0  0  0  0
  191.8030  176.9380  146.5000 O   0  0  0  0  0  0  0  0  0  0  0  0
  188.8690  177.5140  143.5930 C   0  0  0  0  0  2  0  0  0  0  0  0
  184.7680  178.4790  142.6810 C   0  0  0  0  0  3  0  0  0  0  0  0
  186.9480  178.1110  146.8420 C   0  0  0  0  0  0  0  0  0  0  0  0
  185.3260  178.5010  147.0880 S   0  0  0  0  0  0  0  0  0  0  0  0
  191.2390  177.0660  144.2180 C   0  0  0  0  0  3  0  0  0  0  0  0
  186.0030  178.2090  143.2910 C   0  0  0  0  0  3  0  0  0  0  0  0
  190.3240  177.2470  143.2570 C   0  0  0  0  0  0  0  0  0  0  0  0
  189.5310  177.4710  146.0490 C   0  0  0  0  0  0  0  0  0  0  0  0
  192.4350  177.2480  140.0980 C   0  0  0  0  0  0  0  0  0  0  0  0
  190.7250  177.1620  141.8310 C   0  0  0  0  0  0  0  0  0  0  0  0
  192.0660  177.3290  141.4440 C   0  0  0  0  0  3  0  0  0  0  0  0
  193.7630  177.4160  139.7310 O   0  0  0  0  0  1  0  0  0  0  0  0
  189.7630  176.9120  140.8380 C   0  0  0  0  0  3  0  0  0  0  0  0
  191.4670  177.0000  139.1230 C   0  0  0  0  0  3  0  0  0  0  0  0
  190.1310  176.8310  139.4930 C   0  0  0  0  0  3  0  0  0  0  0  0
  1 13  1  0  0  0  0
  2  1  2  0  0  0  0
  2 18  1  0  0  0  0
  4  7  1  0  0  0  0
  4  1  1  0  0  0  0
  5  8  1  0  0  0  0
  6  3  1  0  0  0  0
  7 14  1  0  0  0  0
  8  7  2  0  0  0  0
  9 18  1  0  0  0  0
  9 10  2  0  0  0  0
 11  2  1  0  0  0  0
 12 16  1  0  0  0  0
 12  5  2  0  0  0  0
 13 14  1  0  0  0  0
 13  3  2  0  0  0  0
 15  9  1  0  0  0  0
 16  4  2  0  0  0  0
 17 11  1  0  0  0  0
 17 15  2  0  0  0  0
 18  6  2  0  0  0  0
 19 21  1  0  0  0  0
 20 17  1  0  0  0  0
 21 20  2  0  0  0  0
 22 19  1  0  0  0  0
 23 20  1  0  0  0  0
 24 25  1  0  0  0  0
 24 19  2  0  0  0  0
 25 23  2  0  0  0  0
M  END
>  <MODEL>
1

>  <REMARK>
 VINA RESULT:     -11.8      0.000      0.000
  Name = 
  1 active torsions:
  status: ('A' for Active; 'I' for Inactive)
    1  A    between atoms: C_6  and  C_23
                            x       y       z     vdW  Elec       q    Type
                         _______ _______ _______ _____ _____    ______ ____

>  <TORSDO>
F 1

$$$$
=
 OpenBabel10272400493D

 25 29  0  0  0  0  0  0  0  0999 V2000
  186.8670  177.9650  144.7980 C   0  0  0  0  0  0  0  0  0  0  0  0
  188.0650  177.6510  144.1220 C   0  0  0  0  0  0  0  0  0  0  0  0
  187.9490  177.6470  146.9620 C   0  0  0  0  0  3  0  0  0  0  0  0
  185.6130  178.3050  144.2490 C   0  0  0  0  0  0  0  0  0  0  0  0
  183.0030  179.0120  143.5400 C   0  0  0  0  0  3  0  0  0  0  0  0
  189.1420  177.3360  146.3010 C   0  0  0  0  0  3  0  0  0  0  0  0
  184.6470  178.5520  145.2230 C   0  0  0  0  0  0  0  0  0  0  0  0
  183.3400  178.9060  144.8970 C   0  0  0  0  0  3  0  0  0  0  0  0
  190.4720  177.0160  144.2160 C   0  0  0  0  0  0  0  0  0  0  0  0
  191.5010  176.7100  144.8770 O   0  0  0  0  0  0  0  0  0  0  0  0
  188.1210  177.6260  142.6110 C   0  0  0  0  0  2  0  0  0  0  0  0
  183.9650  178.7670  142.5450 C   0  0  0  0  0  3  0  0  0  0  0  0
  186.8340  177.9570  146.1930 C   0  0  0  0  0  0  0  0  0  0  0  0
  185.2980  178.3600  146.7620 S   0  0  0  0  0  0  0  0  0  0  0  0
  190.5450  177.0660  142.7550 C   0  0  0  0  0  3  0  0  0  0  0  0
  185.2770  178.4120  142.8950 C   0  0  0  0  0  3  0  0  0  0  0  0
  189.4810  177.3580  141.9960 C   0  0  0  0  0  0  0  0  0  0  0  0
  189.2070  177.3350  144.8930 C   0  0  0  0  0  0  0  0  0  0  0  0
  188.9720  178.2990  138.3500 C   0  0  0  0  0  0  0  0  0  0  0  0
  189.6190  177.3990  140.5190 C   0  0  0  0  0  0  0  0  0  0  0  0
  188.8350  178.2690  139.7400 C   0  0  0  0  0  3  0  0  0  0  0  0
  188.1900  179.1630  137.5950 O   0  0  0  0  0  1  0  0  0  0  0  0
  190.5420  176.5610  139.8700 C   0  0  0  0  0  3  0  0  0  0  0  0
  189.8930  177.4600  137.7190 C   0  0  0  0  0  3  0  0  0  0  0  0
  190.6790  176.5920  138.4800 C   0  0  0  0  0  3  0  0  0  0  0  0
  1 13  1  0  0  0  0
  2  1  2  0  0  0  0
  2 18  1  0  0  0  0
  4  1  1  0  0  0  0
  4  7  1  0  0  0  0
  5  8  1  0  0  0  0
  6  3  1  0  0  0  0
  7 14  1  0  0  0  0
  8  7  2  0  0  0  0
  9 10  2  0  0  0  0
  9 18  1  0  0  0  0
 11  2  1  0  0  0  0
 12 16  1  0  0  0  0
 12  5  2  0  0  0  0
 13 14  1  0  0  0  0
 13  3  2  0  0  0  0
 15  9  1  0  0  0  0
 16  4  2  0  0  0  0
 17 11  1  0  0  0  0
 17 15  2  0  0  0  0
 18  6  2  0  0  0  0
 19 21  1  0  0  0  0
 20 17  1  0  0  0  0
 21 20  2  0  0  0  0
 22 19  1  0  0  0  0
 23 20  1  0  0  0  0
 24 19  2  0  0  0  0
 24 25  1  0  0  0  0
 25 23  2  0  0  0  0
M  END
>  <MODEL>
2

>  <REMARK>
 VINA RESULT:     -11.5      1.621      1.998
  Name = 
  1 active torsions:
  status: ('A' for Active; 'I' for Inactive)
    1  A    between atoms: C_6  and  C_23
                            x       y       z     vdW  Elec       q    Type
                         _______ _______ _______ _____ _____    ______ ____

>  <TORSDO>
F 1

$$$$
=
 OpenBabel10272400493D

 25 29  0  0  0  0  0  0  0  0999 V2000
  187.9330  177.6400  145.2090 C   0  0  0  0  0  0  0  0  0  0  0  0
  186.6740  178.0050  144.6870 C   0  0  0  0  0  0  0  0  0  0  0  0
  187.1710  178.0800  147.4850 C   0  0  0  0  0  3  0  0  0  0  0  0
  189.0810  177.2110  144.5110 C   0  0  0  0  0  0  0  0  0  0  0  0
  191.5300  176.3320  143.4870 C   0  0  0  0  0  3  0  0  0  0  0  0
  185.9190  178.4430  146.9770 C   0  0  0  0  0  3  0  0  0  0  0  0
  190.1550  176.9340  145.3560 C   0  0  0  0  0  0  0  0  0  0  0  0
  191.3850  176.4940  144.8720 C   0  0  0  0  0  3  0  0  0  0  0  0
  184.3400  178.7850  145.0780 C   0  0  0  0  0  0  0  0  0  0  0  0
  183.4290  179.1690  145.8580 O   0  0  0  0  0  0  0  0  0  0  0  0
  186.4170  177.9930  143.1980 C   0  0  0  0  0  2  0  0  0  0  0  0
  190.4580  176.6060  142.6200 C   0  0  0  0  0  3  0  0  0  0  0  0
  188.1540  177.6830  146.5860 C   0  0  0  0  0  0  0  0  0  0  0  0
  189.7270  177.2060  146.9610 S   0  0  0  0  0  0  0  0  0  0  0  0
  184.0690  178.6990  143.6420 C   0  0  0  0  0  3  0  0  0  0  0  0
  189.2260  177.0470  143.1290 C   0  0  0  0  0  3  0  0  0  0  0  0
  185.0040  178.3240  142.7590 C   0  0  0  0  0  0  0  0  0  0  0  0
  185.6650  178.4090  145.5920 C   0  0  0  0  0  0  0  0  0  0  0  0
  185.2740  178.5510  138.9750 C   0  0  0  0  0  0  0  0  0  0  0  0
  184.6670  178.2510  141.3150 C   0  0  0  0  0  0  0  0  0  0  0  0
  185.6010  178.6220  140.3320 C   0  0  0  0  0  3  0  0  0  0  0  0
  186.2070  178.9210  138.0170 O   0  0  0  0  0  1  0  0  0  0  0  0
  183.3970  177.8080  140.9060 C   0  0  0  0  0  3  0  0  0  0  0  0
  184.0090  178.1090  138.5840 C   0  0  0  0  0  3  0  0  0  0  0  0
  183.0700  177.7370  139.5490 C   0  0  0  0  0  3  0  0  0  0  0  0
  1 13  1  0  0  0  0
  2  1  2  0  0  0  0
  2 18  1  0  0  0  0
  4  1  1  0  0  0  0
  4  7  1  0  0  0  0
  5  8  1  0  0  0  0
  6  3  1  0  0  0  0
  7 14  1  0  0  0  0
  8  7  2  0  0  0  0
  9 18  1  0  0  0  0
  9 10  2  0  0  0  0
 11  2  1  0  0  0  0
 12 16  1  0  0  0  0
 12  5  2  0  0  0  0
 13 14  1  0  0  0  0
 13  3  2  0  0  0  0
 15  9  1  0  0  0  0
 16  4  2  0  0  0  0
 17 11  1  0  0  0  0
 17 15  2  0  0  0  0
 18  6  2  0  0  0  0
 19 21  1  0  0  0  0
 20 17  1  0  0  0  0
 21 20  2  0  0  0  0
 22 19  1  0  0  0  0
 23 20  1  0  0  0  0
 24 19  2  0  0  0  0
 24 25  1  0  0  0  0
 25 23  2  0  0  0  0
M  END
>  <MODEL>
3

>  <REMARK>
 VINA RESULT:     -11.4      3.018      5.782
  Name = 
  1 active torsions:
  status: ('A' for Active; 'I' for Inactive)
    1  A    between atoms: C_6  and  C_23
                            x       y       z     vdW  Elec       q    Type
                         _______ _______ _______ _____ _____    ______ ____

>  <TORSDO>
F 1

$$$$
=
 OpenBabel10272400493D

 25 29  0  0  0  0  0  0  0  0999 V2000
  189.2160  177.5660  143.4220 C   0  0  0  0  0  0  0  0  0  0  0  0
  188.0260  177.8030  144.1430 C   0  0  0  0  0  0  0  0  0  0  0  0
  190.4690  177.2760  145.4960 C   0  0  0  0  0  3  0  0  0  0  0  0
  189.4080  177.5500  142.0260 C   0  0  0  0  0  0  0  0  0  0  0  0
  190.1700  177.4340  139.3380 C   0  0  0  0  0  3  0  0  0  0  0  0
  189.2950  177.5080  146.2190 C   0  0  0  0  0  3  0  0  0  0  0  0
  190.7270  177.2820  141.6650 C   0  0  0  0  0  0  0  0  0  0  0  0
  191.1340  177.2180  140.3340 C   0  0  0  0  0  3  0  0  0  0  0  0
  186.8530  178.0020  146.3320 C   0  0  0  0  0  0  0  0  0  0  0  0
  186.8750  178.0010  147.5910 O   0  0  0  0  0  0  0  0  0  0  0  0
  186.7320  178.1110  143.4250 C   0  0  0  0  0  2  0  0  0  0  0  0
  188.8350  177.7050  139.6840 C   0  0  0  0  0  3  0  0  0  0  0  0
  190.4040  177.3090  144.1080 C   0  0  0  0  0  0  0  0  0  0  0  0
  191.6800  177.0620  143.0340 S   0  0  0  0  0  0  0  0  0  0  0  0
  185.5850  178.2250  145.6340 C   0  0  0  0  0  3  0  0  0  0  0  0
  188.4470  177.7640  141.0320 C   0  0  0  0  0  3  0  0  0  0  0  0
  185.5020  178.2650  144.2980 C   0  0  0  0  0  0  0  0  0  0  0  0
  188.0800  177.7710  145.5560 C   0  0  0  0  0  0  0  0  0  0  0  0
  182.8060  178.6510  141.6480 C   0  0  0  0  0  0  0  0  0  0  0  0
  184.1860  178.4890  143.6490 C   0  0  0  0  0  0  0  0  0  0  0  0
  184.0490  178.4380  142.2510 C   0  0  0  0  0  3  0  0  0  0  0  0
  182.6870  178.5980  140.2660 O   0  0  0  0  0  1  0  0  0  0  0  0
  183.0490  178.7590  144.4290 C   0  0  0  0  0  3  0  0  0  0  0  0
  181.6850  178.9190  142.4360 C   0  0  0  0  0  3  0  0  0  0  0  0
  181.8060  178.9720  143.8260 C   0  0  0  0  0  3  0  0  0  0  0  0
  1 13  1  0  0  0  0
  1  2  2  0  0  0  0
  2 18  1  0  0  0  0
  3  6  1  0  0  0  0
  4  1  1  0  0  0  0
  5 12  2  0  0  0  0
  5  8  1  0  0  0  0
  7  4  1  0  0  0  0
  7 14  1  0  0  0  0
  8  7  2  0  0  0  0
  9 10  2  0  0  0  0
 11  2  1  0  0  0  0
 11 17  1  0  0  0  0
 12 16  1  0  0  0  0
 13  3  2  0  0  0  0
 14 13  1  0  0  0  0
 15  9  1  0  0  0  0
 16  4  2  0  0  0  0
 17 15  2  0  0  0  0
 18  6  2  0  0  0  0
 18  9  1  0  0  0  0
 19 21  2  0  0  0  0
 19 24  1  0  0  0  0
 20 17  1  0  0  0  0
 20 23  2  0  0  0  0
 21 20  1  0  0  0  0
 22 19  1  0  0  0  0
 24 25  2  0  0  0  0
 25 23  1  0  0  0  0
M  END
>  <MODEL>
4

>  <REMARK>
 VINA RESULT:     -11.1      3.083      6.508
  Name = 
  1 active torsions:
  status: ('A' for Active; 'I' for Inactive)
    1  A    between atoms: C_6  and  C_23
                            x       y       z     vdW  Elec       q    Type
                         _______ _______ _______ _____ _____    ______ ____

>  <TORSDO>
F 1

$$$$
=
 OpenBabel10272400493D

 25 29  0  0  0  0  0  0  0  0999 V2000
  188.0120  177.6460  145.4540 C   0  0  0  0  0  0  0  0  0  0  0  0
  187.3950  177.9790  144.2290 C   0  0  0  0  0  0  0  0  0  0  0  0
  185.9590  178.1420  146.6770 C   0  0  0  0  0  3  0  0  0  0  0  0
  189.3350  177.2130  145.6800 C   0  0  0  0  0  0  0  0  0  0  0  0
  191.8550  176.3370  146.5170 C   0  0  0  0  0  3  0  0  0  0  0  0
  185.3390  178.4730  145.4680 C   0  0  0  0  0  3  0  0  0  0  0  0
  189.6010  176.9750  147.0280 C   0  0  0  0  0  0  0  0  0  0  0  0
  190.8480  176.5380  147.4710 C   0  0  0  0  0  3  0  0  0  0  0  0
  185.3720  178.7380  142.9890 C   0  0  0  0  0  0  0  0  0  0  0  0
  184.1750  179.1320  142.9800 O   0  0  0  0  0  0  0  0  0  0  0  0
  188.1650  177.9190  142.9300 C   0  0  0  0  0  2  0  0  0  0  0  0
  191.6030  176.5710  145.1530 C   0  0  0  0  0  3  0  0  0  0  0  0
  187.2870  177.7330  146.6440 C   0  0  0  0  0  0  0  0  0  0  0  0
  188.2380  177.2880  147.9630 S   0  0  0  0  0  0  0  0  0  0  0  0
  186.0960  178.6060  141.7240 C   0  0  0  0  0  3  0  0  0  0  0  0
  190.3390  177.0110  144.7280 C   0  0  0  0  0  3  0  0  0  0  0  0
  187.3760  178.2180  141.6690 C   0  0  0  0  0  0  0  0  0  0  0  0
  186.0440  178.3950  144.2510 C   0  0  0  0  0  0  0  0  0  0  0  0
  188.0310  178.2970  137.9270 C   0  0  0  0  0  0  0  0  0  0  0  0
  188.0550  178.0980  140.3550 C   0  0  0  0  0  0  0  0  0  0  0  0
  187.3840  178.4130  139.1600 C   0  0  0  0  0  3  0  0  0  0  0  0
  187.3550  178.6120  136.7570 O   0  0  0  0  0  1  0  0  0  0  0  0
  189.3890  177.6630  140.2840 C   0  0  0  0  0  3  0  0  0  0  0  0
  189.3570  177.8630  137.8720 C   0  0  0  0  0  3  0  0  0  0  0  0
  190.0370  177.5470  139.0510 C   0  0  0  0  0  3  0  0  0  0  0  0
  1  4  1  0  0  0  0
  1 13  2  0  0  0  0
  2 18  2  0  0  0  0
  2  1  1  0  0  0  0
  4  7  1  0  0  0  0
  5  8  1  0  0  0  0
  6  3  2  0  0  0  0
  7  8  2  0  0  0  0
  7 14  1  0  0  0  0
  9 18  1  0  0  0  0
 10  9  2  0  0  0  0
 11  2  1  0  0  0  0
 12  5  2  0  0  0  0
 13  3  1  0  0  0  0
 13 14  1  0  0  0  0
 15  9  1  0  0  0  0
 16 12  1  0  0  0  0
 16  4  2  0  0  0  0
 17 15  2  0  0  0  0
 17 11  1  0  0  0  0
 18  6  1  0  0  0  0
 19 21  1  0  0  0  0
 20 17  1  0  0  0  0
 21 20  2  0  0  0  0
 22 19  1  0  0  0  0
 23 20  1  0  0  0  0
 24 19  2  0  0  0  0
 24 25  1  0  0  0  0
 25 23  2  0  0  0  0
M  END
>  <MODEL>
5

>  <REMARK>
 VINA RESULT:     -10.9      2.748      4.922
  Name = 
  1 active torsions:
  status: ('A' for Active; 'I' for Inactive)
    1  A    between atoms: C_6  and  C_23
                            x       y       z     vdW  Elec       q    Type
                         _______ _______ _______ _____ _____    ______ ____

>  <TORSDO>
F 1

$$$$
=
 OpenBabel10272400493D

 25 29  0  0  0  0  0  0  0  0999 V2000
  187.6130  177.8380  144.7660 C   0  0  0  0  0  0  0  0  0  0  0  0
  188.5720  177.5680  143.7660 C   0  0  0  0  0  0  0  0  0  0  0  0
  189.2460  177.3890  146.5220 C   0  0  0  0  0  3  0  0  0  0  0  0
  186.2620  178.2100  144.6070 C   0  0  0  0  0  0  0  0  0  0  0  0
  183.5690  178.9570  144.6930 C   0  0  0  0  0  3  0  0  0  0  0  0
  190.2040  177.1210  145.5390 C   0  0  0  0  0  3  0  0  0  0  0  0
  185.6070  178.3960  145.8230 C   0  0  0  0  0  0  0  0  0  0  0  0
  184.2660  178.7680  145.8940 C   0  0  0  0  0  3  0  0  0  0  0  0
  190.9010  176.9300  143.1520 C   0  0  0  0  0  0  0  0  0  0  0  0
  192.0660  176.5850  143.4830 O   0  0  0  0  0  0  0  0  0  0  0  0
  188.2080  177.6360  142.3010 C   0  0  0  0  0  2  0  0  0  0  0  0
  184.2140  178.7750  143.4570 C   0  0  0  0  0  3  0  0  0  0  0  0
  187.9670  177.7450  146.1130 C   0  0  0  0  0  0  0  0  0  0  0  0
  186.6560  178.1110  147.1080 S   0  0  0  0  0  0  0  0  0  0  0  0
  190.5670  177.0700  141.7340 C   0  0  0  0  0  3  0  0  0  0  0  0
  185.5660  178.4000  143.4080 C   0  0  0  0  0  3  0  0  0  0  0  0
  189.3390  177.4080  141.3180 C   0  0  0  0  0  0  0  0  0  0  0  0
  189.8780  177.2060  144.1710 C   0  0  0  0  0  0  0  0  0  0  0  0
  187.5970  178.1910  138.0330 C   0  0  0  0  0  0  0  0  0  0  0  0
  189.0640  177.5390  139.8660 C   0  0  0  0  0  0  0  0  0  0  0  0
  187.8470  178.0720  139.4030 C   0  0  0  0  0  3  0  0  0  0  0  0
  186.3910  178.7180  137.5920 O   0  0  0  0  0  1  0  0  0  0  0  0
  190.0220  177.1290  138.9230 C   0  0  0  0  0  3  0  0  0  0  0  0
  188.5580  177.7780  137.1090 C   0  0  0  0  0  3  0  0  0  0  0  0
  189.7720  177.2480  137.5540 C   0  0  0  0  0  3  0  0  0  0  0  0
  1 13  2  0  0  0  0
  2 18  2  0  0  0  0
  2  1  1  0  0  0  0
  4  1  1  0  0  0  0
  4  7  1  0  0  0  0
  5  8  1  0  0  0  0
  6  3  2  0  0  0  0
  7  8  2  0  0  0  0
  7 14  1  0  0  0  0
  9 10  2  0  0  0  0
  9 18  1  0  0  0  0
 11  2  1  0  0  0  0
 12  5  2  0  0  0  0
 13  3  1  0  0  0  0
 13 14  1  0  0  0  0
 15  9  1  0  0  0  0
 16 12  1  0  0  0  0
 16  4  2  0  0  0  0
 17 15  2  0  0  0  0
 17 11  1  0  0  0  0
 18  6  1  0  0  0  0
 19 21  1  0  0  0  0
 20 17  1  0  0  0  0
 21 20  2  0  0  0  0
 22 19  1  0  0  0  0
 23 20  1  0  0  0  0
 24 25  1  0  0  0  0
 24 19  2  0  0  0  0
 25 23  2  0  0  0  0
M  END
>  <MODEL>
6

>  <REMARK>
 VINA RESULT:     -10.9      2.128      2.767
  Name = 
  1 active torsions:
  status: ('A' for Active; 'I' for Inactive)
    1  A    between atoms: C_6  and  C_23
                            x       y       z     vdW  Elec       q    Type
                         _______ _______ _______ _____ _____    ______ ____

>  <TORSDO>
F 1

$$$$
=
 OpenBabel10272400493D

 25 29  0  0  0  0  0  0  0  0999 V2000
  188.4580  177.5980  144.5000 C   0  0  0  0  0  0  0  0  0  0  0  0
  187.1030  177.9190  144.7330 C   0  0  0  0  0  0  0  0  0  0  0  0
  188.9020  177.5250  146.8990 C   0  0  0  0  0  3  0  0  0  0  0  0
  189.1200  177.4300  143.2660 C   0  0  0  0  0  0  0  0  0  0  0  0
  190.7600  177.0190  141.0390 C   0  0  0  0  0  3  0  0  0  0  0  0
  187.5610  177.8420  147.1390 C   0  0  0  0  0  3  0  0  0  0  0  0
  190.4700  177.1150  143.4170 C   0  0  0  0  0  0  0  0  0  0  0  0
  191.3080  176.9050  142.3250 C   0  0  0  0  0  3  0  0  0  0  0  0
  185.2560  178.3620  146.3440 C   0  0  0  0  0  0  0  0  0  0  0  0
  184.8400  178.4970  147.5250 O   0  0  0  0  0  0  0  0  0  0  0  0
  186.1530  178.1570  143.5820 C   0  0  0  0  0  2  0  0  0  0  0  0
  189.4010  177.3340  140.8690 C   0  0  0  0  0  3  0  0  0  0  0  0
  189.3230  177.4080  145.5790 C   0  0  0  0  0  0  0  0  0  0  0  0
  190.8790  177.0380  145.0470 S   0  0  0  0  0  0  0  0  0  0  0  0
  184.3190  178.5160  145.2290 C   0  0  0  0  0  3  0  0  0  0  0  0
  188.5730  177.5420  141.9840 C   0  0  0  0  0  3  0  0  0  0  0  0
  184.7040  178.4120  143.9510 C   0  0  0  0  0  0  0  0  0  0  0  0
  186.6630  178.0400  146.0710 C   0  0  0  0  0  0  0  0  0  0  0  0
  181.4450  179.0890  142.1180 C   0  0  0  0  0  0  0  0  0  0  0  0
  183.7060  178.5740  142.8650 C   0  0  0  0  0  0  0  0  0  0  0  0
  182.3790  178.9400  143.1480 C   0  0  0  0  0  3  0  0  0  0  0  0
  180.1380  179.4510  142.4140 O   0  0  0  0  0  1  0  0  0  0  0  0
  184.0760  178.3600  141.5260 C   0  0  0  0  0  3  0  0  0  0  0  0
  181.8270  178.8730  140.7930 C   0  0  0  0  0  3  0  0  0  0  0  0
  183.1430  178.5090  140.4960 C   0  0  0  0  0  3  0  0  0  0  0  0
  1  2  2  0  0  0  0
  1 13  1  0  0  0  0
  2 18  1  0  0  0  0
  3  6  1  0  0  0  0
  4  7  1  0  0  0  0
  4  1  1  0  0  0  0
  5  8  1  0  0  0  0
  7 14  1  0  0  0  0
  8  7  2  0  0  0  0
  9 10  2  0  0  0  0
 11 17  1  0  0  0  0
 11  2  1  0  0  0  0
 12  5  2  0  0  0  0
 12 16  1  0  0  0  0
 13  3  2  0  0  0  0
 14 13  1  0  0  0  0
 15  9  1  0  0  0  0
 16  4  2  0  0  0  0
 17 15  2  0  0  0  0
 18  9  1  0  0  0  0
 18  6  2  0  0  0  0
 19 22  1  0  0  0  0
 19 21  1  0  0  0  0
 20 21  2  0  0  0  0
 20 17  1  0  0  0  0
 23 20  1  0  0  0  0
 24 19  2  0  0  0  0
 25 24  1  0  0  0  0
 25 23  2  0  0  0  0
M  END
>  <MODEL>
7

>  <REMARK>
 VINA RESULT:     -10.9      3.388      6.679
  Name = 
  1 active torsions:
  status: ('A' for Active; 'I' for Inactive)
    1  A    between atoms: C_6  and  C_23
                            x       y       z     vdW  Elec       q    Type
                         _______ _______ _______ _____ _____    ______ ____

>  <TORSDO>
F 1

$$$$
=
 OpenBabel10272400493D

 25 29  0  0  0  0  0  0  0  0999 V2000
  188.1460  177.6980  144.2330 C   0  0  0  0  0  0  0  0  0  0  0  0
  188.1980  177.8210  142.8280 C   0  0  0  0  0  0  0  0  0  0  0  0
  185.8060  178.3890  144.2540 C   0  0  0  0  0  3  0  0  0  0  0  0
  189.1730  177.3100  145.1180 C   0  0  0  0  0  0  0  0  0  0  0  0
  190.9370  176.5900  147.1640 C   0  0  0  0  0  3  0  0  0  0  0  0
  185.8470  178.5120  142.8620 C   0  0  0  0  0  3  0  0  0  0  0  0
  188.7620  177.3020  146.4510 C   0  0  0  0  0  0  0  0  0  0  0  0
  189.6210  176.9470  147.4890 C   0  0  0  0  0  3  0  0  0  0  0  0
  187.0510  178.3590  140.6830 C   0  0  0  0  0  0  0  0  0  0  0  0
  186.0310  178.7450  140.0520 O   0  0  0  0  0  0  0  0  0  0  0  0
  189.4770  177.5460  142.0710 C   0  0  0  0  0  2  0  0  0  0  0  0
  191.3680  176.5920  145.8260 C   0  0  0  0  0  3  0  0  0  0  0  0
  186.9600  177.9820  144.9120 C   0  0  0  0  0  0  0  0  0  0  0  0
  187.1490  177.7650  146.5740 S   0  0  0  0  0  0  0  0  0  0  0  0
  188.2690  178.0190  139.9450 C   0  0  0  0  0  3  0  0  0  0  0  0
  190.4860  176.9530  144.7950 C   0  0  0  0  0  3  0  0  0  0  0  0
  189.3920  177.6280  140.5600 C   0  0  0  0  0  0  0  0  0  0  0  0
  187.0300  178.2330  142.1470 C   0  0  0  0  0  0  0  0  0  0  0  0
  193.0080  177.0480  139.5450 C   0  0  0  0  0  0  0  0  0  0  0  0
  190.5930  177.2920  139.7550 C   0  0  0  0  0  0  0  0  0  0  0  0
  191.8830  177.3670  140.3100 C   0  0  0  0  0  3  0  0  0  0  0  0
  194.2750  177.1280  140.1070 O   0  0  0  0  0  1  0  0  0  0  0  0
  190.4580  176.8910  138.4150 C   0  0  0  0  0  3  0  0  0  0  0  0
  192.8580  176.6520  138.2140 C   0  0  0  0  0  3  0  0  0  0  0  0
  191.5830  176.5730  137.6490 C   0  0  0  0  0  3  0  0  0  0  0  0
  1 13  2  0  0  0  0
  1  4  1  0  0  0  0
  2  1  1  0  0  0  0
  3 13  1  0  0  0  0
  4  7  1  0  0  0  0
  5  8  1  0  0  0  0
  6  3  2  0  0  0  0
  7 14  1  0  0  0  0
  7  8  2  0  0  0  0
  9 18  1  0  0  0  0
 10  9  2  0  0  0  0
 11  2  1  0  0  0  0
 12  5  2  0  0  0  0
 13 14  1  0  0  0  0
 15 17  2  0  0  0  0
 15  9  1  0  0  0  0
 16  4  2  0  0  0  0
 16 12  1  0  0  0  0
 17 11  1  0  0  0  0
 18  2  2  0  0  0  0
 18  6  1  0  0  0  0
 19 22  1  0  0  0  0
 19 21  1  0  0  0  0
 20 21  2  0  0  0  0
 20 17  1  0  0  0  0
 23 20  1  0  0  0  0
 24 19  2  0  0  0  0
 25 24  1  0  0  0  0
 25 23  2  0  0  0  0
M  END
>  <MODEL>
8

>  <REMARK>
 VINA RESULT:     -10.7      2.003      4.440
  Name = 
  1 active torsions:
  status: ('A' for Active; 'I' for Inactive)
    1  A    between atoms: C_6  and  C_23
                            x       y       z     vdW  Elec       q    Type
                         _______ _______ _______ _____ _____    ______ ____

>  <TORSDO>
F 1

$$$$
=
 OpenBabel10272400493D

 25 29  0  0  0  0  0  0  0  0999 V2000
  188.9060  177.7140  144.0100 C   0  0  0  0  0  0  0  0  0  0  0  0
  187.9410  177.9580  143.0090 C   0  0  0  0  0  0  0  0  0  0  0  0
  190.6890  177.6620  142.3440 C   0  0  0  0  0  3  0  0  0  0  0  0
  188.7130  177.5790  145.4000 C   0  0  0  0  0  0  0  0  0  0  0  0
  188.7280  177.2590  148.1780 C   0  0  0  0  0  3  0  0  0  0  0  0
  189.7410  177.9050  141.3460 C   0  0  0  0  0  3  0  0  0  0  0  0
  189.9020  177.3400  146.0890 C   0  0  0  0  0  0  0  0  0  0  0  0
  189.9370  177.1770  147.4720 C   0  0  0  0  0  3  0  0  0  0  0  0
  187.3960  178.3160  140.6050 C   0  0  0  0  0  0  0  0  0  0  0  0
  187.7510  178.3830  139.3980 O   0  0  0  0  0  0  0  0  0  0  0  0
  186.4770  178.0870  143.3580 C   0  0  0  0  0  2  0  0  0  0  0  0
  187.5200  177.5000  147.4990 C   0  0  0  0  0  3  0  0  0  0  0  0
  190.2500  177.5730  143.6600 C   0  0  0  0  0  0  0  0  0  0  0  0
  191.2020  177.2880  145.0220 S   0  0  0  0  0  0  0  0  0  0  0  0
  185.9880  178.5170  140.9530 C   0  0  0  0  0  3  0  0  0  0  0  0
  187.5080  177.6620  146.1040 C   0  0  0  0  0  3  0  0  0  0  0  0
  185.5430  178.4310  142.2130 C   0  0  0  0  0  0  0  0  0  0  0  0
  188.3770  178.0510  141.6670 C   0  0  0  0  0  0  0  0  0  0  0  0
  181.7870  178.7880  141.7670 C   0  0  0  0  0  0  0  0  0  0  0  0
  184.1040  178.6500  142.5030 C   0  0  0  0  0  0  0  0  0  0  0  0
  183.1390  178.5790  141.4830 C   0  0  0  0  0  3  0  0  0  0  0  0
  180.8460  178.7140  140.7490 O   0  0  0  0  0  1  0  0  0  0  0  0
  183.6820  178.9360  143.8130 C   0  0  0  0  0  3  0  0  0  0  0  0
  181.3820  179.0710  143.0720 C   0  0  0  0  0  3  0  0  0  0  0  0
  182.3290  179.1440  144.0960 C   0  0  0  0  0  3  0  0  0  0  0  0
  1  4  1  0  0  0  0
  2 11  1  0  0  0  0
  2  1  1  0  0  0  0
  3 13  1  0  0  0  0
  4  7  2  0  0  0  0
  4 16  1  0  0  0  0
  6 18  1  0  0  0  0
  6  3  2  0  0  0  0
  7  8  1  0  0  0  0
  8  5  2  0  0  0  0
  9 15  1  0  0  0  0
  9 18  1  0  0  0  0
 10  9  2  0  0  0  0
 12  5  1  0  0  0  0
 13  1  2  0  0  0  0
 13 14  1  0  0  0  0
 14  7  1  0  0  0  0
 15 17  2  0  0  0  0
 16 12  2  0  0  0  0
 17 20  1  0  0  0  0
 17 11  1  0  0  0  0
 18  2  2  0  0  0  0
 19 24  1  0  0  0  0
 20 23  2  0  0  0  0
 21 19  2  0  0  0  0
 21 20  1  0  0  0  0
 22 19  1  0  0  0  0
 23 25  1  0  0  0  0
 24 25  2  0  0  0  0
M  END
>  <MODEL>
9

>  <REMARK>
 VINA RESULT:     -10.6      3.323      6.918
  Name = 
  1 active torsions:
  status: ('A' for Active; 'I' for Inactive)
    1  A    between atoms: C_6  and  C_23
                            x       y       z     vdW  Elec       q    Type
                         _______ _______ _______ _____ _____    ______ ____

>  <TORSDO>
F 1

$$$$
