=
 OpenBabel10272401153D

 27 29  0  0  1  0  0  0  0  0999 V2000
  189.4640  177.3490  144.3650 C   0  0  1  0  0  3  0  0  0  0  0  0
  189.8770  178.1790  143.1590 C   0  0  1  0  0  3  0  0  0  0  0  0
  190.7590  177.7250  145.0620 C   0  0  2  0  0  3  0  0  0  0  0  0
  191.1790  179.8940  144.1680 O   0  0  0  0  0  1  0  0  0  0  0  0
  191.1820  178.5360  143.8480 C   0  0  2  0  0  3  0  0  0  0  0  0
  191.3420  177.6160  140.9460 O   0  0  0  0  0  0  0  0  0  0  0  0
  190.1580  177.1320  141.7360 S   0  0  0  0  0  0  0  0  0  0  0  0
  190.4100  175.7200  142.1860 O   0  0  0  0  0  0  0  0  0  0  0  0
  188.7080  177.1690  140.6980 C   0  0  0  0  0  2  0  0  0  0  0  0
  189.7650  177.6860  136.5730 C   0  0  0  0  0  3  0  0  0  0  0  0
  189.0890  177.3550  139.2690 C   0  0  0  0  0  0  0  0  0  0  0  0
  189.6420  176.2900  138.5480 C   0  0  0  0  0  3  0  0  0  0  0  0
  189.9820  176.4560  137.2020 C   0  0  0  0  0  3  0  0  0  0  0  0
  189.2090  178.7500  137.2890 C   0  0  0  0  0  3  0  0  0  0  0  0
  188.8700  178.5840  138.6360 C   0  0  0  0  0  3  0  0  0  0  0  0
  191.6240  176.5150  145.2070 C   0  0  0  0  0  3  0  0  0  0  0  0
  192.0210  176.1710  146.3070 O   0  0  0  0  0  0  0  0  0  0  0  0
  188.3430  177.9860  145.0410 N   0  0  0  0  0  2  0  0  0  0  0  0
  187.1190  177.5110  144.4080 C   0  0  0  0  0  2  0  0  0  0  0  0
  183.9470  178.8090  143.1750 C   0  0  0  0  0  3  0  0  0  0  0  0
  183.0760  178.6420  144.3860 C   0  0  0  0  0  2  0  0  0  0  0  0
  183.8250  179.0260  145.6540 C   0  0  0  0  0  2  0  0  0  0  0  0
  186.0220  178.5600  144.5350 C   0  0  2  0  0  3  0  0  0  0  0  0
  185.1090  178.2140  145.7170 C   0  0  0  0  0  2  0  0  0  0  0  0
  185.2890  178.7250  143.2200 C   0  0  0  0  0  0  0  0  0  0  0  0
  185.4800  178.9550  140.7550 C   0  0  0  0  0  1  0  0  0  0  0  0
  186.0510  178.8730  142.0550 O   0  0  0  0  0  0  0  0  0  0  0  0
  1 18  1  1  0  0  0
  1  3  1  0  0  0  0
  2  7  1  6  0  0  0
  2  5  1  0  0  0  0
  2  1  1  0  0  0  0
  3 16  1  6  0  0  0
  5  4  1  1  0  0  0
  5  3  1  0  0  0  0
  6  7  2  0  0  0  0
  7  8  2  0  0  0  0
  9  7  1  0  0  0  0
 10 13  2  0  0  0  0
 10 14  1  0  0  0  0
 11  9  1  0  0  0  0
 12 11  2  0  0  0  0
 13 12  1  0  0  0  0
 14 15  2  0  0  0  0
 15 11  1  0  0  0  0
 16 17  2  0  0  0  0
 19 18  1  0  0  0  0
 20 25  2  0  0  0  0
 20 21  1  0  0  0  0
 21 22  1  0  0  0  0
 22 24  1  0  0  0  0
 23 19  1  6  0  0  0
 23 24  1  0  0  0  0
 25 23  1  0  0  0  0
 26 27  1  0  0  0  0
 27 25  1  0  0  0  0
M  END
>  <MODEL>
1

>  <REMARK>
 VINA RESULT:      -7.6      0.000      0.000
  Name = 
  8 active torsions:
  status: ('A' for Active; 'I' for Inactive)
    1  A    between atoms: S_2  and  C_15
    2  A    between atoms: S_2  and  C_18
    3  A    between atoms: C_3  and  N_26
    4  A    between atoms: C_9  and  C_15
    5  A    between atoms: C_10  and  C_20
    6  A    between atoms: C_12  and  C_14
    7  A    between atoms: C_12  and  N_26
    8  A    between atoms: C_17  and  O_21
                            x       y       z     vdW  Elec       q    Type
                         _______ _______ _______ _____ _____    ______ ____

>  <TORSDO>
F 8

$$$$
=
 OpenBabel10272401153D

 27 29  0  0  1  0  0  0  0  0999 V2000
  189.4130  177.5270  142.6980 C   0  0  1  0  0  3  0  0  0  0  0  0
  189.6030  176.6190  143.9040 C   0  0  1  0  0  3  0  0  0  0  0  0
  190.4490  176.7210  141.9340 C   0  0  2  0  0  3  0  0  0  0  0  0
  190.1660  174.5510  142.8750 O   0  0  0  0  0  1  0  0  0  0  0  0
  190.6550  175.8280  143.1480 C   0  0  2  0  0  3  0  0  0  0  0  0
  191.7870  177.2000  145.4050 O   0  0  0  0  0  0  0  0  0  0  0  0
  190.3250  177.5220  145.2690 S   0  0  0  0  0  0  0  0  0  0  0  0
  190.1630  178.9990  145.0430 O   0  0  0  0  0  0  0  0  0  0  0  0
  189.4830  177.0610  146.7740 C   0  0  0  0  0  2  0  0  0  0  0  0
  185.5500  178.7660  146.9270 C   0  0  0  0  0  3  0  0  0  0  0  0
  188.1220  177.6670  146.8210 C   0  0  0  0  0  0  0  0  0  0  0  0
  187.2020  177.4010  145.8000 C   0  0  0  0  0  3  0  0  0  0  0  0
  185.9180  177.9520  145.8520 C   0  0  0  0  0  3  0  0  0  0  0  0
  186.4650  179.0300  147.9510 C   0  0  0  0  0  3  0  0  0  0  0  0
  187.7500  178.4800  147.8980 C   0  0  0  0  0  3  0  0  0  0  0  0
  191.6630  177.5590  141.6940 C   0  0  0  0  0  3  0  0  0  0  0  0
  192.2020  177.5610  140.6010 O   0  0  0  0  0  0  0  0  0  0  0  0
  188.0970  177.3060  142.1160 N   0  0  0  0  0  2  0  0  0  0  0  0
  187.9040  178.3040  141.0720 C   0  0  0  0  0  2  0  0  0  0  0  0
  184.3870  178.2550  140.1230 C   0  0  0  0  0  3  0  0  0  0  0  0
  183.7320  178.0290  141.4550 C   0  0  0  0  0  2  0  0  0  0  0  0
  184.4050  178.8540  142.5420 C   0  0  0  0  0  2  0  0  0  0  0  0
  186.5270  178.9410  141.2040 C   0  0  2  0  0  3  0  0  0  0  0  0
  185.8920  178.5310  142.5380 C   0  0  0  0  0  2  0  0  0  0  0  0
  185.6750  178.6230  139.9940 C   0  0  0  0  0  0  0  0  0  0  0  0
  185.8890  178.0130  137.5960 C   0  0  0  0  0  1  0  0  0  0  0  0
  186.2390  178.8040  138.7240 O   0  0  0  0  0  0  0  0  0  0  0  0
  1 18  1  6  0  0  0
  1  2  1  0  0  0  0
  2  7  1  1  0  0  0
  3 16  1  1  0  0  0
  3  1  1  0  0  0  0
  3  5  1  0  0  0  0
  5  4  1  6  0  0  0
  5  2  1  0  0  0  0
  7  6  2  0  0  0  0
  7  9  1  0  0  0  0
  8  7  2  0  0  0  0
  9 11  1  0  0  0  0
 10 14  1  0  0  0  0
 11 15  1  0  0  0  0
 12 13  1  0  0  0  0
 12 11  2  0  0  0  0
 13 10  2  0  0  0  0
 15 14  2  0  0  0  0
 17 16  2  0  0  0  0
 19 18  1  0  0  0  0
 20 21  1  0  0  0  0
 21 22  1  0  0  0  0
 23 19  1  6  0  0  0
 23 24  1  0  0  0  0
 24 22  1  0  0  0  0
 25 20  2  0  0  0  0
 25 23  1  0  0  0  0
 26 27  1  0  0  0  0
 27 25  1  0  0  0  0
M  END
>  <MODEL>
2

>  <REMARK>
 VINA RESULT:      -7.4      2.339      5.595
  Name = 
  8 active torsions:
  status: ('A' for Active; 'I' for Inactive)
    1  A    between atoms: S_2  and  C_15
    2  A    between atoms: S_2  and  C_18
    3  A    between atoms: C_3  and  N_26
    4  A    between atoms: C_9  and  C_15
    5  A    between atoms: C_10  and  C_20
    6  A    between atoms: C_12  and  C_14
    7  A    between atoms: C_12  and  N_26
    8  A    between atoms: C_17  and  O_21
                            x       y       z     vdW  Elec       q    Type
                         _______ _______ _______ _____ _____    ______ ____

>  <TORSDO>
F 8

$$$$
=
 OpenBabel10272401153D

 27 29  0  0  1  0  0  0  0  0999 V2000
  189.6570  177.5500  142.5200 C   0  0  1  0  0  3  0  0  0  0  0  0
  189.6190  176.6720  143.7620 C   0  0  1  0  0  3  0  0  0  0  0  0
  190.7530  176.6750  141.9390 C   0  0  2  0  0  3  0  0  0  0  0  0
  190.2240  174.5490  142.8770 O   0  0  0  0  0  1  0  0  0  0  0  0
  190.7310  175.8110  143.1900 C   0  0  2  0  0  3  0  0  0  0  0  0
  191.5920  177.2160  145.5430 O   0  0  0  0  0  0  0  0  0  0  0  0
  190.1750  177.5820  145.1980 S   0  0  0  0  0  0  0  0  0  0  0  0
  190.1010  179.0580  144.9240 O   0  0  0  0  0  0  0  0  0  0  0  0
  189.1160  177.1850  146.5770 C   0  0  0  0  0  2  0  0  0  0  0  0
  185.1520  178.7030  145.9600 C   0  0  0  0  0  3  0  0  0  0  0  0
  187.7450  177.7270  146.3590 C   0  0  0  0  0  0  0  0  0  0  0  0
  187.0950  177.5170  145.1370 C   0  0  0  0  0  3  0  0  0  0  0  0
  185.8010  178.0070  144.9370 C   0  0  0  0  0  3  0  0  0  0  0  0
  185.7960  178.9110  147.1840 C   0  0  0  0  0  3  0  0  0  0  0  0
  187.0910  178.4220  147.3840 C   0  0  0  0  0  3  0  0  0  0  0  0
  192.0290  177.4480  141.8630 C   0  0  0  0  0  3  0  0  0  0  0  0
  192.5680  177.6410  140.7870 O   0  0  0  0  0  0  0  0  0  0  0  0
  188.4320  177.3730  141.7530 N   0  0  0  0  0  2  0  0  0  0  0  0
  188.4510  178.3390  140.6630 C   0  0  0  0  0  2  0  0  0  0  0  0
  187.4560  178.4520  137.1610 C   0  0  0  0  0  3  0  0  0  0  0  0
  188.7830  178.2920  136.4790 C   0  0  0  0  0  2  0  0  0  0  0  0
  189.6390  177.2500  137.1840 C   0  0  0  0  0  2  0  0  0  0  0  0
  188.3780  177.6200  139.3220 C   0  0  2  0  0  3  0  0  0  0  0  0
  189.7560  177.6390  138.6500 C   0  0  0  0  0  2  0  0  0  0  0  0
  187.2690  178.1960  138.4680 C   0  0  0  0  0  0  0  0  0  0  0  0
  184.7980  178.3950  138.3150 C   0  0  0  0  0  1  0  0  0  0  0  0
  186.0110  178.3780  139.0570 O   0  0  0  0  0  0  0  0  0  0  0  0
  1 18  1  6  0  0  0
  1  2  1  0  0  0  0
  2  7  1  1  0  0  0
  3 16  1  1  0  0  0
  3  1  1  0  0  0  0
  3  5  1  0  0  0  0
  5  4  1  6  0  0  0
  5  2  1  0  0  0  0
  7  6  2  0  0  0  0
  7  9  1  0  0  0  0
  8  7  2  0  0  0  0
 10 14  1  0  0  0  0
 11  9  1  0  0  0  0
 11 15  1  0  0  0  0
 12 11  2  0  0  0  0
 13 12  1  0  0  0  0
 13 10  2  0  0  0  0
 14 15  2  0  0  0  0
 17 16  2  0  0  0  0
 19 18  1  0  0  0  0
 20 25  2  0  0  0  0
 21 20  1  0  0  0  0
 21 22  1  0  0  0  0
 22 24  1  0  0  0  0
 23 19  1  1  0  0  0
 24 23  1  0  0  0  0
 25 27  1  0  0  0  0
 25 23  1  0  0  0  0
 26 27  1  0  0  0  0
M  END
>  <MODEL>
3

>  <REMARK>
 VINA RESULT:      -7.2      1.880      6.383
  Name = 
  8 active torsions:
  status: ('A' for Active; 'I' for Inactive)
    1  A    between atoms: S_2  and  C_15
    2  A    between atoms: S_2  and  C_18
    3  A    between atoms: C_3  and  N_26
    4  A    between atoms: C_9  and  C_15
    5  A    between atoms: C_10  and  C_20
    6  A    between atoms: C_12  and  C_14
    7  A    between atoms: C_12  and  N_26
    8  A    between atoms: C_17  and  O_21
                            x       y       z     vdW  Elec       q    Type
                         _______ _______ _______ _____ _____    ______ ____

>  <TORSDO>
F 8

$$$$
=
 OpenBabel10272401153D

 27 29  0  0  1  0  0  0  0  0999 V2000
  189.9020  176.5330  143.9020 C   0  0  1  0  0  3  0  0  0  0  0  0
  190.2780  177.7230  143.0330 C   0  0  1  0  0  3  0  0  0  0  0  0
  191.3090  176.5060  144.4690 C   0  0  2  0  0  3  0  0  0  0  0  0
  191.9130  178.8100  144.3750 O   0  0  0  0  0  1  0  0  0  0  0  0
  191.6920  177.6820  143.5840 C   0  0  2  0  0  3  0  0  0  0  0  0
  191.4450  177.8300  140.5860 O   0  0  0  0  0  0  0  0  0  0  0  0
  190.2420  177.2800  141.3000 S   0  0  0  0  0  0  0  0  0  0  0  0
  190.2270  175.7830  141.1590 O   0  0  0  0  0  0  0  0  0  0  0  0
  188.7650  177.9550  140.5630 C   0  0  0  0  0  2  0  0  0  0  0  0
  188.9240  177.7280  136.2830 C   0  0  0  0  0  3  0  0  0  0  0  0
  188.8360  177.8760  139.0760 C   0  0  0  0  0  0  0  0  0  0  0  0
  188.6950  176.6400  138.4340 C   0  0  0  0  0  3  0  0  0  0  0  0
  188.7410  176.5660  137.0380 C   0  0  0  0  0  3  0  0  0  0  0  0
  189.0610  178.9640  136.9210 C   0  0  0  0  0  3  0  0  0  0  0  0
  189.0150  179.0390  138.3170 C   0  0  0  0  0  3  0  0  0  0  0  0
  192.0120  175.2670  144.0190 C   0  0  0  0  0  3  0  0  0  0  0  0
  192.4030  174.4510  144.8360 O   0  0  0  0  0  0  0  0  0  0  0  0
  188.9660  176.9520  144.9350 N   0  0  0  0  0  2  0  0  0  0  0  0
  188.1430  178.0180  144.3790 C   0  0  0  0  0  2  0  0  0  0  0  0
  184.9800  178.5700  146.1000 C   0  0  0  0  0  3  0  0  0  0  0  0
  184.1280  179.0870  144.9770 C   0  0  0  0  0  2  0  0  0  0  0  0
  184.3820  178.3080  143.6950 C   0  0  0  0  0  2  0  0  0  0  0  0
  186.6680  177.6630  144.5040 C   0  0  2  0  0  3  0  0  0  0  0  0
  185.8720  178.3550  143.3920 C   0  0  0  0  0  2  0  0  0  0  0  0
  186.1640  177.9620  145.9000 C   0  0  0  0  0  0  0  0  0  0  0  0
  187.4540  178.3840  147.9800 C   0  0  0  0  0  1  0  0  0  0  0  0
  186.9260  177.5140  146.9860 O   0  0  0  0  0  0  0  0  0  0  0  0
  1  3  1  0  0  0  0
  1 18  1  1  0  0  0
  2  7  1  6  0  0  0
  2  5  1  0  0  0  0
  2  1  1  0  0  0  0
  3 16  1  6  0  0  0
  5  4  1  1  0  0  0
  5  3  1  0  0  0  0
  6  7  2  0  0  0  0
  8  7  2  0  0  0  0
  9  7  1  0  0  0  0
 10 14  2  0  0  0  0
 10 13  1  0  0  0  0
 11  9  1  0  0  0  0
 12 11  1  0  0  0  0
 13 12  2  0  0  0  0
 14 15  1  0  0  0  0
 15 11  2  0  0  0  0
 16 17  2  0  0  0  0
 19 18  1  0  0  0  0
 21 20  1  0  0  0  0
 22 21  1  0  0  0  0
 23 19  1  1  0  0  0
 23 25  1  0  0  0  0
 24 22  1  0  0  0  0
 24 23  1  0  0  0  0
 25 20  2  0  0  0  0
 25 27  1  0  0  0  0
 27 26  1  0  0  0  0
M  END
>  <MODEL>
4

>  <REMARK>
 VINA RESULT:      -7.1      1.535      2.270
  Name = 
  8 active torsions:
  status: ('A' for Active; 'I' for Inactive)
    1  A    between atoms: S_2  and  C_15
    2  A    between atoms: S_2  and  C_18
    3  A    between atoms: C_3  and  N_26
    4  A    between atoms: C_9  and  C_15
    5  A    between atoms: C_10  and  C_20
    6  A    between atoms: C_12  and  C_14
    7  A    between atoms: C_12  and  N_26
    8  A    between atoms: C_17  and  O_21
                            x       y       z     vdW  Elec       q    Type
                         _______ _______ _______ _____ _____    ______ ____

>  <TORSDO>
F 8

$$$$
=
 OpenBabel10272401153D

 27 29  0  0  1  0  0  0  0  0999 V2000
  190.5790  177.5530  142.2710 C   0  0  1  0  0  3  0  0  0  0  0  0
  190.0250  176.3450  143.0110 C   0  0  1  0  0  3  0  0  0  0  0  0
  191.6360  177.7230  143.3460 C   0  0  2  0  0  3  0  0  0  0  0  0
  191.9780  175.4730  144.0500 O   0  0  0  0  0  1  0  0  0  0  0  0
  191.0690  176.5300  144.0980 C   0  0  2  0  0  3  0  0  0  0  0  0
  187.4630  175.5200  143.3490 O   0  0  0  0  0  0  0  0  0  0  0  0
  188.3790  176.6790  143.6270 S   0  0  0  0  0  0  0  0  0  0  0  0
  188.4320  176.9220  145.1090 O   0  0  0  0  0  0  0  0  0  0  0  0
  187.7440  178.1340  142.8140 C   0  0  0  0  0  2  0  0  0  0  0  0
  183.6430  178.7620  143.9030 C   0  0  0  0  0  3  0  0  0  0  0  0
  186.3210  178.3690  143.1920 C   0  0  0  0  0  0  0  0  0  0  0  0
  185.3260  178.3680  142.2080 C   0  0  0  0  0  3  0  0  0  0  0  0
  183.9880  178.5670  142.5630 C   0  0  0  0  0  3  0  0  0  0  0  0
  184.6340  178.7600  144.8900 C   0  0  0  0  0  3  0  0  0  0  0  0
  185.9720  178.5610  144.5350 C   0  0  0  0  0  3  0  0  0  0  0  0
  191.3840  178.9840  144.1070 C   0  0  0  0  0  3  0  0  0  0  0  0
  192.3170  179.6840  144.4640 O   0  0  0  0  0  0  0  0  0  0  0  0
  191.2090  177.1250  141.0300 N   0  0  0  0  0  2  0  0  0  0  0  0
  190.1470  176.8070  140.0840 C   0  0  0  0  0  2  0  0  0  0  0  0
  190.0500  176.9790  136.4460 C   0  0  0  0  0  3  0  0  0  0  0  0
  188.9150  177.9390  136.2340 C   0  0  0  0  0  2  0  0  0  0  0  0
  188.9750  179.0860  137.2320 C   0  0  0  0  0  2  0  0  0  0  0  0
  190.2850  177.6640  138.8320 C   0  0  2  0  0  3  0  0  0  0  0  0
  189.0150  178.4990  138.6350 C   0  0  0  0  0  2  0  0  0  0  0  0
  190.6500  176.8080  137.6380 C   0  0  0  0  0  0  0  0  0  0  0  0
  193.0660  176.2290  137.6310 C   0  0  0  0  0  1  0  0  0  0  0  0
  191.6940  175.8850  137.7830 O   0  0  0  0  0  0  0  0  0  0  0  0
  1 18  1  6  0  0  0
  1  2  1  0  0  0  0
  1  3  1  0  0  0  0
  2  7  1  1  0  0  0
  2  5  1  0  0  0  0
  3  5  1  0  0  0  0
  3 16  1  1  0  0  0
  5  4  1  6  0  0  0
  6  7  2  0  0  0  0
  7  8  2  0  0  0  0
  9 11  1  0  0  0  0
  9  7  1  0  0  0  0
 10 14  1  0  0  0  0
 11 15  1  0  0  0  0
 12 13  1  0  0  0  0
 12 11  2  0  0  0  0
 13 10  2  0  0  0  0
 15 14  2  0  0  0  0
 16 17  2  0  0  0  0
 19 18  1  0  0  0  0
 20 25  2  0  0  0  0
 21 20  1  0  0  0  0
 21 22  1  0  0  0  0
 22 24  1  0  0  0  0
 23 19  1  1  0  0  0
 24 23  1  0  0  0  0
 25 27  1  0  0  0  0
 25 23  1  0  0  0  0
 26 27  1  0  0  0  0
M  END
>  <MODEL>
5

>  <REMARK>
 VINA RESULT:      -6.9      1.998      6.408
  Name = 
  8 active torsions:
  status: ('A' for Active; 'I' for Inactive)
    1  A    between atoms: S_2  and  C_15
    2  A    between atoms: S_2  and  C_18
    3  A    between atoms: C_3  and  N_26
    4  A    between atoms: C_9  and  C_15
    5  A    between atoms: C_10  and  C_20
    6  A    between atoms: C_12  and  C_14
    7  A    between atoms: C_12  and  N_26
    8  A    between atoms: C_17  and  O_21
                            x       y       z     vdW  Elec       q    Type
                         _______ _______ _______ _____ _____    ______ ____

>  <TORSDO>
F 8

$$$$
=
 OpenBabel10272401153D

 27 29  0  0  1  0  0  0  0  0999 V2000
  187.9120  177.7350  139.2700 C   0  0  1  0  0  3  0  0  0  0  0  0
  187.5380  178.2360  137.8840 C   0  0  1  0  0  3  0  0  0  0  0  0
  189.3540  178.1410  139.0240 C   0  0  2  0  0  3  0  0  0  0  0  0
  189.0890  180.0110  137.5710 O   0  0  0  0  0  1  0  0  0  0  0  0
  188.9840  178.6210  137.6290 C   0  0  2  0  0  3  0  0  0  0  0  0
  187.8960  176.8060  135.6070 O   0  0  0  0  0  0  0  0  0  0  0  0
  187.0320  176.8790  136.8350 S   0  0  0  0  0  0  0  0  0  0  0  0
  187.1400  175.5850  137.5910 O   0  0  0  0  0  0  0  0  0  0  0  0
  185.3360  177.1320  136.3420 C   0  0  0  0  0  2  0  0  0  0  0  0
  182.7380  176.6600  139.7220 C   0  0  0  0  0  3  0  0  0  0  0  0
  184.4210  176.9750  137.5080 C   0  0  0  0  0  0  0  0  0  0  0  0
  183.7570  175.7610  137.7190 C   0  0  0  0  0  3  0  0  0  0  0  0
  182.9150  175.6040  138.8230 C   0  0  0  0  0  3  0  0  0  0  0  0
  183.4020  177.8730  139.5180 C   0  0  0  0  0  3  0  0  0  0  0  0
  184.2450  178.0300  138.4120 C   0  0  0  0  0  3  0  0  0  0  0  0
  190.2140  176.9220  138.9420 C   0  0  0  0  0  3  0  0  0  0  0  0
  191.2420  176.8510  139.5940 O   0  0  0  0  0  0  0  0  0  0  0  0
  187.3270  178.6020  140.2830 N   0  0  0  0  0  2  0  0  0  0  0  0
  187.8420  178.1780  141.5780 C   0  0  0  0  0  2  0  0  0  0  0  0
  186.4990  177.9480  144.9570 C   0  0  0  0  0  3  0  0  0  0  0  0
  185.2630  178.7910  144.8330 C   0  0  0  0  0  2  0  0  0  0  0  0
  184.5520  178.5280  143.5140 C   0  0  0  0  0  2  0  0  0  0  0  0
  186.6970  177.7370  142.4800 C   0  0  2  0  0  3  0  0  0  0  0  0
  185.5440  178.7430  142.3830 C   0  0  0  0  0  2  0  0  0  0  0  0
  187.1900  177.5010  143.8920 C   0  0  0  0  0  0  0  0  0  0  0  0
  189.3810  177.0730  144.9800 C   0  0  0  0  0  1  0  0  0  0  0  0
  188.3470  176.7310  144.0660 O   0  0  0  0  0  0  0  0  0  0  0  0
  1 18  1  1  0  0  0
  2  7  1  6  0  0  0
  2  1  1  0  0  0  0
  3 16  1  6  0  0  0
  3  1  1  0  0  0  0
  5  4  1  1  0  0  0
  5  2  1  0  0  0  0
  5  3  1  0  0  0  0
  6  7  2  0  0  0  0
  7  8  2  0  0  0  0
  9  7  1  0  0  0  0
  9 11  1  0  0  0  0
 11 12  2  0  0  0  0
 11 15  1  0  0  0  0
 12 13  1  0  0  0  0
 13 10  2  0  0  0  0
 14 10  1  0  0  0  0
 15 14  2  0  0  0  0
 16 17  2  0  0  0  0
 18 19  1  0  0  0  0
 21 20  1  0  0  0  0
 22 21  1  0  0  0  0
 23 19  1  6  0  0  0
 23 25  1  0  0  0  0
 24 23  1  0  0  0  0
 24 22  1  0  0  0  0
 25 27  1  0  0  0  0
 25 20  2  0  0  0  0
 27 26  1  0  0  0  0
M  END
>  <MODEL>
6

>  <REMARK>
 VINA RESULT:      -6.9      3.256      5.371
  Name = 
  8 active torsions:
  status: ('A' for Active; 'I' for Inactive)
    1  A    between atoms: S_2  and  C_15
    2  A    between atoms: S_2  and  C_18
    3  A    between atoms: C_3  and  N_26
    4  A    between atoms: C_9  and  C_15
    5  A    between atoms: C_10  and  C_20
    6  A    between atoms: C_12  and  C_14
    7  A    between atoms: C_12  and  N_26
    8  A    between atoms: C_17  and  O_21
                            x       y       z     vdW  Elec       q    Type
                         _______ _______ _______ _____ _____    ______ ____

>  <TORSDO>
F 8

$$$$
=
 OpenBabel10272401153D

 27 29  0  0  1  0  0  0  0  0999 V2000
  189.6260  176.7800  142.8070 C   0  0  1  0  0  3  0  0  0  0  0  0
  190.2750  177.9010  142.0110 C   0  0  1  0  0  3  0  0  0  0  0  0
  190.8040  176.7830  143.7650 C   0  0  2  0  0  3  0  0  0  0  0  0
  191.4760  179.0680  143.6990 O   0  0  0  0  0  1  0  0  0  0  0  0
  191.4640  177.8880  142.9550 C   0  0  2  0  0  3  0  0  0  0  0  0
  192.1870  177.6220  140.1050 O   0  0  0  0  0  0  0  0  0  0  0  0
  190.7370  177.3340  140.3780 S   0  0  0  0  0  0  0  0  0  0  0  0
  190.4990  175.8540  140.2690 O   0  0  0  0  0  0  0  0  0  0  0  0
  189.7350  178.1810  139.1690 C   0  0  0  0  0  2  0  0  0  0  0  0
  188.6770  175.4970  135.9960 C   0  0  0  0  0  3  0  0  0  0  0  0
  189.3610  177.2610  138.0580 C   0  0  0  0  0  0  0  0  0  0  0  0
  190.3100  176.9090  137.0910 C   0  0  0  0  0  3  0  0  0  0  0  0
  189.9680  176.0300  136.0600 C   0  0  0  0  0  3  0  0  0  0  0  0
  187.7280  175.8420  136.9630 C   0  0  0  0  0  3  0  0  0  0  0  0
  188.0700  176.7230  137.9940 C   0  0  0  0  0  3  0  0  0  0  0  0
  191.5710  175.5080  143.6250 C   0  0  0  0  0  3  0  0  0  0  0  0
  192.1380  175.0230  144.5890 O   0  0  0  0  0  0  0  0  0  0  0  0
  188.4410  177.2810  143.4890 N   0  0  0  0  0  2  0  0  0  0  0  0
  188.3950  176.6600  144.8060 C   0  0  0  0  0  2  0  0  0  0  0  0
  186.9150  178.3920  147.6480 C   0  0  0  0  0  3  0  0  0  0  0  0
  187.8650  178.0090  148.7460 C   0  0  0  0  0  2  0  0  0  0  0  0
  189.3060  178.0520  148.2600 C   0  0  0  0  0  2  0  0  0  0  0  0
  188.5500  177.7170  145.8910 C   0  0  2  0  0  3  0  0  0  0  0  0
  189.4230  177.1710  147.0260 C   0  0  0  0  0  2  0  0  0  0  0  0
  187.1950  178.2180  146.3440 C   0  0  0  0  0  0  0  0  0  0  0  0
  184.8820  178.7780  145.6330 C   0  0  0  0  0  1  0  0  0  0  0  0
  186.2630  178.5780  145.3620 O   0  0  0  0  0  0  0  0  0  0  0  0
  1 18  1  1  0  0  0
  1  3  1  0  0  0  0
  2  7  1  6  0  0  0
  2  1  1  0  0  0  0
  2  5  1  0  0  0  0
  3 16  1  6  0  0  0
  5  4  1  1  0  0  0
  5  3  1  0  0  0  0
  6  7  2  0  0  0  0
  8  7  2  0  0  0  0
  9  7  1  0  0  0  0
 10 13  2  0  0  0  0
 10 14  1  0  0  0  0
 11  9  1  0  0  0  0
 12 11  2  0  0  0  0
 13 12  1  0  0  0  0
 14 15  2  0  0  0  0
 15 11  1  0  0  0  0
 16 17  2  0  0  0  0
 18 19  1  0  0  0  0
 20 21  1  0  0  0  0
 22 21  1  0  0  0  0
 23 19  1  6  0  0  0
 23 25  1  0  0  0  0
 23 24  1  0  0  0  0
 24 22  1  0  0  0  0
 25 20  2  0  0  0  0
 27 26  1  0  0  0  0
 27 25  1  0  0  0  0
M  END
>  <MODEL>
7

>  <REMARK>
 VINA RESULT:      -6.7      1.984      3.044
  Name = 
  8 active torsions:
  status: ('A' for Active; 'I' for Inactive)
    1  A    between atoms: S_2  and  C_15
    2  A    between atoms: S_2  and  C_18
    3  A    between atoms: C_3  and  N_26
    4  A    between atoms: C_9  and  C_15
    5  A    between atoms: C_10  and  C_20
    6  A    between atoms: C_12  and  C_14
    7  A    between atoms: C_12  and  N_26
    8  A    between atoms: C_17  and  O_21
                            x       y       z     vdW  Elec       q    Type
                         _______ _______ _______ _____ _____    ______ ____

>  <TORSDO>
F 8

$$$$
=
 OpenBabel10272401153D

 27 29  0  0  1  0  0  0  0  0999 V2000
  189.5040  177.4770  144.3830 C   0  0  1  0  0  3  0  0  0  0  0  0
  189.9550  178.2600  143.1590 C   0  0  1  0  0  3  0  0  0  0  0  0
  190.8380  177.7580  145.0500 C   0  0  2  0  0  3  0  0  0  0  0  0
  191.4060  179.8790  144.1230 O   0  0  0  0  0  1  0  0  0  0  0  0
  191.2980  178.5220  143.8180 C   0  0  2  0  0  3  0  0  0  0  0  0
  190.3910  175.7670  142.1810 O   0  0  0  0  0  0  0  0  0  0  0  0
  190.1250  177.1800  141.7430 S   0  0  0  0  0  0  0  0  0  0  0  0
  188.8650  177.2140  140.9250 O   0  0  0  0  0  0  0  0  0  0  0  0
  191.4900  177.7500  140.7450 C   0  0  0  0  0  2  0  0  0  0  0  0
  191.8610  175.4030  137.1740 C   0  0  0  0  0  3  0  0  0  0  0  0
  191.6210  176.9210  139.5130 C   0  0  0  0  0  0  0  0  0  0  0  0
  190.4750  176.4580  138.8560 C   0  0  0  0  0  3  0  0  0  0  0  0
  190.5950  175.6980  137.6890 C   0  0  0  0  0  3  0  0  0  0  0  0
  193.0080  175.8680  137.8250 C   0  0  0  0  0  3  0  0  0  0  0  0
  192.8870  176.6280  138.9930 C   0  0  0  0  0  3  0  0  0  0  0  0
  191.6100  176.4870  145.1910 C   0  0  0  0  0  3  0  0  0  0  0  0
  192.0000  176.1220  146.2880 O   0  0  0  0  0  0  0  0  0  0  0  0
  188.4490  178.2050  145.0740 N   0  0  0  0  0  2  0  0  0  0  0  0
  187.4950  177.2260  145.5770 C   0  0  0  0  0  2  0  0  0  0  0  0
  184.7600  179.5170  144.8400 C   0  0  0  0  0  3  0  0  0  0  0  0
  184.7930  179.5320  143.3390 C   0  0  0  0  0  2  0  0  0  0  0  0
  185.0310  178.1360  142.7830 C   0  0  0  0  0  2  0  0  0  0  0  0
  186.1340  177.4380  144.9270 C   0  0  2  0  0  3  0  0  0  0  0  0
  186.3010  177.5800  143.4100 C   0  0  0  0  0  2  0  0  0  0  0  0
  185.4070  178.5960  145.5770 C   0  0  0  0  0  0  0  0  0  0  0  0
  186.1850  179.4870  147.7610 C   0  0  0  0  0  1  0  0  0  0  0  0
  185.3550  178.6400  146.9760 O   0  0  0  0  0  0  0  0  0  0  0  0
  1  3  1  0  0  0  0
  1 18  1  1  0  0  0
  2  7  1  6  0  0  0
  2  5  1  0  0  0  0
  2  1  1  0  0  0  0
  3 16  1  6  0  0  0
  5  4  1  1  0  0  0
  5  3  1  0  0  0  0
  7  6  2  0  0  0  0
  8  7  2  0  0  0  0
  9  7  1  0  0  0  0
 10 13  2  0  0  0  0
 10 14  1  0  0  0  0
 11  9  1  0  0  0  0
 12 11  2  0  0  0  0
 13 12  1  0  0  0  0
 14 15  2  0  0  0  0
 15 11  1  0  0  0  0
 16 17  2  0  0  0  0
 18 19  1  0  0  0  0
 20 25  2  0  0  0  0
 21 20  1  0  0  0  0
 22 21  1  0  0  0  0
 22 24  1  0  0  0  0
 23 19  1  1  0  0  0
 23 25  1  0  0  0  0
 24 23  1  0  0  0  0
 25 27  1  0  0  0  0
 27 26  1  0  0  0  0
M  END
>  <MODEL>
8

>  <REMARK>
 VINA RESULT:      -6.5      1.794      2.664
  Name = 
  8 active torsions:
  status: ('A' for Active; 'I' for Inactive)
    1  A    between atoms: S_2  and  C_15
    2  A    between atoms: S_2  and  C_18
    3  A    between atoms: C_3  and  N_26
    4  A    between atoms: C_9  and  C_15
    5  A    between atoms: C_10  and  C_20
    6  A    between atoms: C_12  and  C_14
    7  A    between atoms: C_12  and  N_26
    8  A    between atoms: C_17  and  O_21
                            x       y       z     vdW  Elec       q    Type
                         _______ _______ _______ _____ _____    ______ ____

>  <TORSDO>
F 8

$$$$
=
 OpenBabel10272401153D

 27 29  0  0  1  0  0  0  0  0999 V2000
  189.4960  176.6090  142.7110 C   0  0  1  0  0  3  0  0  0  0  0  0
  189.9600  177.8130  141.9060 C   0  0  1  0  0  3  0  0  0  0  0  0
  190.5750  176.8870  143.7420 C   0  0  2  0  0  3  0  0  0  0  0  0
  190.7700  179.2590  143.6110 O   0  0  0  0  0  1  0  0  0  0  0  0
  191.0530  178.0780  142.9250 C   0  0  2  0  0  3  0  0  0  0  0  0
  192.1440  177.4280  140.3420 O   0  0  0  0  0  0  0  0  0  0  0  0
  190.6460  177.2990  140.3350 S   0  0  0  0  0  0  0  0  0  0  0  0
  190.2750  175.8680  140.0630 O   0  0  0  0  0  0  0  0  0  0  0  0
  189.9760  178.3360  139.0470 C   0  0  0  0  0  2  0  0  0  0  0  0
  185.6880  178.2410  139.0680 C   0  0  0  0  0  3  0  0  0  0  0  0
  188.4860  178.2870  139.0550 C   0  0  0  0  0  0  0  0  0  0  0  0
  187.7850  178.5020  140.2480 C   0  0  0  0  0  3  0  0  0  0  0  0
  186.3880  178.4770  140.2550 C   0  0  0  0  0  3  0  0  0  0  0  0
  186.3840  178.0300  137.8740 C   0  0  0  0  0  3  0  0  0  0  0  0
  187.7820  178.0540  137.8680 C   0  0  0  0  0  3  0  0  0  0  0  0
  191.5940  175.7950  143.7130 C   0  0  0  0  0  3  0  0  0  0  0  0
  192.0670  175.3680  144.7530 O   0  0  0  0  0  0  0  0  0  0  0  0
  188.1870  176.8770  143.2900 N   0  0  0  0  0  2  0  0  0  0  0  0
  188.3390  176.8840  144.7390 C   0  0  0  0  0  2  0  0  0  0  0  0
  186.3780  178.7830  147.1500 C   0  0  0  0  0  3  0  0  0  0  0  0
  185.3470  179.4080  146.2550 C   0  0  0  0  0  2  0  0  0  0  0  0
  184.8570  178.4170  145.2100 C   0  0  0  0  0  2  0  0  0  0  0  0
  186.9890  177.1090  145.4070 C   0  0  2  0  0  3  0  0  0  0  0  0
  186.0630  177.8770  144.4570 C   0  0  0  0  0  2  0  0  0  0  0  0
  187.1670  177.7650  146.7590 C   0  0  0  0  0  0  0  0  0  0  0  0
  189.1180  178.0180  148.2750 C   0  0  0  0  0  1  0  0  0  0  0  0
  188.1240  177.2310  147.6310 O   0  0  0  0  0  0  0  0  0  0  0  0
  1 18  1  1  0  0  0
  1  3  1  0  0  0  0
  2  7  1  6  0  0  0
  2  1  1  0  0  0  0
  2  5  1  0  0  0  0
  3 16  1  6  0  0  0
  5  4  1  1  0  0  0
  5  3  1  0  0  0  0
  7  6  2  0  0  0  0
  8  7  2  0  0  0  0
  9 11  1  0  0  0  0
  9  7  1  0  0  0  0
 10 13  1  0  0  0  0
 11 12  1  0  0  0  0
 12 13  2  0  0  0  0
 14 10  2  0  0  0  0
 15 14  1  0  0  0  0
 15 11  2  0  0  0  0
 16 17  2  0  0  0  0
 18 19  1  0  0  0  0
 21 20  1  0  0  0  0
 22 21  1  0  0  0  0
 23 19  1  6  0  0  0
 23 25  1  0  0  0  0
 24 22  1  0  0  0  0
 24 23  1  0  0  0  0
 25 20  2  0  0  0  0
 25 27  1  0  0  0  0
 27 26  1  0  0  0  0
M  END
>  <MODEL>
9

>  <REMARK>
 VINA RESULT:      -6.5      1.843      3.178
  Name = 
  8 active torsions:
  status: ('A' for Active; 'I' for Inactive)
    1  A    between atoms: S_2  and  C_15
    2  A    between atoms: S_2  and  C_18
    3  A    between atoms: C_3  and  N_26
    4  A    between atoms: C_9  and  C_15
    5  A    between atoms: C_10  and  C_20
    6  A    between atoms: C_12  and  C_14
    7  A    between atoms: C_12  and  N_26
    8  A    between atoms: C_17  and  O_21
                            x       y       z     vdW  Elec       q    Type
                         _______ _______ _______ _____ _____    ______ ____

>  <TORSDO>
F 8

$$$$
