=
 OpenBabel10272401473D

 28 31  0  0  1  0  0  0  0  0999 V2000
  190.8650  175.8290  143.4810 C   0  0  1  0  0  3  0  0  0  0  0  0
  191.7240  176.4170  142.5070 O   0  0  0  0  0  0  0  0  0  0  0  0
  191.4300  177.6210  141.8770 C   0  0  0  0  0  0  0  0  0  0  0  0
  192.5770  176.5190  147.9410 C   0  0  0  0  0  1  0  0  0  0  0  0
  192.0380  177.9400  140.8240 O   0  0  0  0  0  0  0  0  0  0  0  0
  190.7170  178.6000  144.2780 S   0  0  0  0  0  0  0  0  0  0  0  0
  190.4470  178.5600  142.4760 C   0  0  2  0  0  3  0  0  0  0  0  0
  191.3890  176.3310  145.7590 C   0  0  0  0  0  0  0  0  0  0  0  0
  191.9300  175.0470  145.3670 C   0  0  0  0  0  0  0  0  0  0  0  0
  191.6540  177.0110  146.8810 C   0  0  0  0  0  3  0  0  0  0  0  0
  192.6360  174.2900  146.0840 O   0  0  0  0  0  0  0  0  0  0  0  0
  191.5540  174.7390  144.0810 O   0  0  0  0  0  0  0  0  0  0  0  0
  190.4680  176.7920  144.6510 C   0  0  2  0  0  0  0  0  0  0  0  0
  189.0090  178.2050  142.1220 C   0  0  0  0  0  3  0  0  0  0  0  0
  188.4120  179.2910  141.5100 F   0  0  0  0  0  0  0  0  0  0  0  0
  188.9790  177.1330  141.2490 F   0  0  0  0  0  0  0  0  0  0  0  0
  189.1100  176.4990  144.9560 O   0  0  0  0  0  0  0  0  0  0  0  0
  186.5970  177.3480  144.2040 C   0  0  0  0  0  2  0  0  0  0  0  0
  186.1940  178.1200  146.5100 C   0  0  2  0  0  3  0  0  0  0  0  0
  188.5850  177.4230  145.8830 C   0  0  1  0  0  3  0  0  0  0  0  0
  184.6170  178.7750  144.6810 C   0  0  0  0  0  0  0  0  0  0  0  0
  187.2500  178.0430  145.4020 C   0  0  1  0  0  3  0  0  0  0  0  0
  187.9540  177.8140  148.2970 C   0  0  0  0  0  2  0  0  0  0  0  0
  185.0560  178.9020  146.0420 N   0  0  0  0  0  2  0  0  0  0  0  0
  186.7910  178.6870  147.7910 C   0  0  0  0  0  2  0  0  0  0  0  0
  183.1820  179.6230  144.1490 Cl  0  0  0  0  0  0  0  0  0  0  0  0
  185.3450  178.0840  143.7930 C   0  0  0  0  0  3  0  0  0  0  0  0
  188.4510  176.7840  147.2700 C   0  0  0  0  0  2  0  0  0  0  0  0
  1  2  1  6  0  0  0
  1 12  1  0  0  0  0
  1 13  1  0  0  0  0
  3  7  1  0  0  0  0
  3  2  1  0  0  0  0
  5  3  2  0  0  0  0
  6 13  1  0  0  0  0
  7 14  1  1  0  0  0
  7  6  1  0  0  0  0
  8 10  2  0  0  0  0
  9  8  1  0  0  0  0
  9 11  2  0  0  0  0
 10  4  1  0  0  0  0
 12  9  1  0  0  0  0
 13 17  1  1  0  0  0
 13  8  1  0  0  0  0
 15 14  1  0  0  0  0
 16 14  1  0  0  0  0
 19 25  1  1  0  0  0
 20 17  1  6  0  0  0
 20 28  1  0  0  0  0
 21 24  1  0  0  0  0
 22 18  1  6  0  0  0
 22 20  1  0  0  0  0
 22 19  1  0  0  0  0
 24 19  1  0  0  0  0
 25 23  1  0  0  0  0
 26 21  1  0  0  0  0
 27 18  1  0  0  0  0
 27 21  2  0  0  0  0
 28 23  1  0  0  0  0
M  END
>  <MODEL>
1

>  <REMARK>
 VINA RESULT:      -8.0      0.000      0.000
  Name = 
  3 active torsions:
  status: ('A' for Active; 'I' for Inactive)
    1  A    between atoms: C_6  and  C_11
    2  A    between atoms: C_10  and  O_17
    3  A    between atoms: O_17  and  C_27
                            x       y       z     vdW  Elec       q    Type
                         _______ _______ _______ _____ _____    ______ ____

>  <TORSDO>
F 3

$$$$
=
 OpenBabel10272401473D

 28 31  0  0  1  0  0  0  0  0999 V2000
  189.2660  176.3620  141.7470 C   0  0  1  0  0  3  0  0  0  0  0  0
  189.8780  176.9570  140.6060 O   0  0  0  0  0  0  0  0  0  0  0  0
  189.3390  178.0620  139.9570 C   0  0  0  0  0  0  0  0  0  0  0  0
  191.5750  177.6170  145.7970 C   0  0  0  0  0  1  0  0  0  0  0  0
  189.7260  178.3560  138.7970 O   0  0  0  0  0  0  0  0  0  0  0  0
  188.9060  179.1570  142.3750 S   0  0  0  0  0  0  0  0  0  0  0  0
  188.3560  178.9330  140.6510 C   0  0  2  0  0  3  0  0  0  0  0  0
  190.0830  177.1120  143.8650 C   0  0  0  0  0  0  0  0  0  0  0  0
  190.7090  175.8680  143.4730 C   0  0  0  0  0  0  0  0  0  0  0  0
  190.4380  177.9110  144.8790 C   0  0  0  0  0  3  0  0  0  0  0  0
  191.6100  175.2590  144.1070 O   0  0  0  0  0  0  0  0  0  0  0  0
  190.1720  175.4110  142.2920 O   0  0  0  0  0  0  0  0  0  0  0  0
  188.9460  177.3720  142.9020 C   0  0  2  0  0  0  0  0  0  0  0  0
  186.9350  178.3920  140.5700 C   0  0  0  0  0  3  0  0  0  0  0  0
  186.0490  179.3870  140.9380 F   0  0  0  0  0  0  0  0  0  0  0  0
  186.6450  177.9950  139.2780 F   0  0  0  0  0  0  0  0  0  0  0  0
  187.7020  176.9560  143.4520 O   0  0  0  0  0  0  0  0  0  0  0  0
  185.0580  177.6640  143.1210 C   0  0  0  0  0  2  0  0  0  0  0  0
  184.9780  178.3760  145.4800 C   0  0  2  0  0  3  0  0  0  0  0  0
  187.2780  177.8320  144.4720 C   0  0  1  0  0  3  0  0  0  0  0  0
  183.1000  178.9630  143.9350 C   0  0  0  0  0  0  0  0  0  0  0  0
  185.8500  178.3790  144.2200 C   0  0  1  0  0  3  0  0  0  0  0  0
  187.0110  178.1480  146.9630 C   0  0  0  0  0  2  0  0  0  0  0  0
  183.7390  179.0950  145.2140 N   0  0  0  0  0  2  0  0  0  0  0  0
  185.7360  178.9580  146.6660 C   0  0  0  0  0  2  0  0  0  0  0  0
  181.5530  179.7330  143.6550 Cl  0  0  0  0  0  0  0  0  0  0  0  0
  183.7180  178.3310  142.9280 C   0  0  0  0  0  3  0  0  0  0  0  0
  187.3990  177.1650  145.8470 C   0  0  0  0  0  2  0  0  0  0  0  0
  1  2  1  6  0  0  0
  1 12  1  0  0  0  0
  1 13  1  0  0  0  0
  3  2  1  0  0  0  0
  3  7  1  0  0  0  0
  5  3  2  0  0  0  0
  6 13  1  0  0  0  0
  7 14  1  1  0  0  0
  7  6  1  0  0  0  0
  8 10  2  0  0  0  0
  9  8  1  0  0  0  0
  9 11  2  0  0  0  0
 10  4  1  0  0  0  0
 12  9  1  0  0  0  0
 13 17  1  1  0  0  0
 13  8  1  0  0  0  0
 14 15  1  0  0  0  0
 16 14  1  0  0  0  0
 19 25  1  1  0  0  0
 20 17  1  6  0  0  0
 20 28  1  0  0  0  0
 21 24  1  0  0  0  0
 22 18  1  6  0  0  0
 22 20  1  0  0  0  0
 22 19  1  0  0  0  0
 24 19  1  0  0  0  0
 25 23  1  0  0  0  0
 26 21  1  0  0  0  0
 27 18  1  0  0  0  0
 27 21  2  0  0  0  0
 28 23  1  0  0  0  0
M  END
>  <MODEL>
2

>  <REMARK>
 VINA RESULT:      -7.0      1.781      2.307
  Name = 
  3 active torsions:
  status: ('A' for Active; 'I' for Inactive)
    1  A    between atoms: C_6  and  C_11
    2  A    between atoms: C_10  and  O_17
    3  A    between atoms: O_17  and  C_27
                            x       y       z     vdW  Elec       q    Type
                         _______ _______ _______ _____ _____    ______ ____

>  <TORSDO>
F 3

$$$$
=
 OpenBabel10272401473D

 28 31  0  0  1  0  0  0  0  0999 V2000
  188.8930  178.3880  144.9120 C   0  0  1  0  0  3  0  0  0  0  0  0
  187.8570  177.9870  145.8060 O   0  0  0  0  0  0  0  0  0  0  0  0
  186.5850  177.6350  145.3690 C   0  0  0  0  0  0  0  0  0  0  0  0
  192.0680  174.8150  144.2300 C   0  0  0  0  0  1  0  0  0  0  0  0
  185.6320  177.5930  146.1890 O   0  0  0  0  0  0  0  0  0  0  0  0
  187.7510  176.1970  143.4180 S   0  0  0  0  0  0  0  0  0  0  0  0
  186.3590  177.2460  143.9530 C   0  0  2  0  0  3  0  0  0  0  0  0
  190.3860  176.6540  144.2170 C   0  0  0  0  0  0  0  0  0  0  0  0
  190.9440  177.4200  145.3100 C   0  0  0  0  0  0  0  0  0  0  0  0
  190.8490  175.5030  143.7170 C   0  0  0  0  0  3  0  0  0  0  0  0
  192.0430  177.1990  145.8840 O   0  0  0  0  0  0  0  0  0  0  0  0
  190.1100  178.4600  145.6450 O   0  0  0  0  0  0  0  0  0  0  0  0
  189.1500  177.3840  143.7370 C   0  0  2  0  0  0  0  0  0  0  0  0
  186.1670  178.4500  143.0410 C   0  0  0  0  0  3  0  0  0  0  0  0
  185.4220  178.0700  141.9400 F   0  0  0  0  0  0  0  0  0  0  0  0
  185.4910  179.4560  143.7070 F   0  0  0  0  0  0  0  0  0  0  0  0
  189.4350  178.1820  142.5950 O   0  0  0  0  0  0  0  0  0  0  0  0
  188.1130  178.3400  140.1810 C   0  0  0  0  0  2  0  0  0  0  0  0
  190.1590  177.5760  139.0380 C   0  0  2  0  0  3  0  0  0  0  0  0
  190.0970  177.4320  141.6020 C   0  0  1  0  0  3  0  0  0  0  0  0
  187.9930  177.6700  137.7890 C   0  0  0  0  0  0  0  0  0  0  0  0
  189.2890  177.3640  140.2820 C   0  0  1  0  0  3  0  0  0  0  0  0
  192.2640  177.0960  140.3490 C   0  0  0  0  0  2  0  0  0  0  0  0
  189.3750  177.2870  137.8430 N   0  0  0  0  0  0  0  0  0  0  0  0
  191.4250  176.7330  139.1100 C   0  0  0  0  0  2  0  0  0  0  0  0
  187.0830  177.4290  136.3140 Cl  0  0  0  0  0  0  0  0  0  0  0  0
  187.3710  178.1280  138.8840 C   0  0  0  0  0  2  0  0  0  0  0  0
  191.5170  177.9630  141.3750 C   0  0  0  0  0  2  0  0  0  0  0  0
  1 12  1  1  0  0  0
  1  2  1  0  0  0  0
  3  2  1  0  0  0  0
  3  5  2  0  0  0  0
  6 13  1  0  0  0  0
  6  7  1  0  0  0  0
  7 14  1  6  0  0  0
  7  3  1  0  0  0  0
  8  9  1  0  0  0  0
  9 12  1  0  0  0  0
  9 11  2  0  0  0  0
 10  8  2  0  0  0  0
 10  4  1  0  0  0  0
 13 17  1  6  0  0  0
 13  8  1  0  0  0  0
 13  1  1  0  0  0  0
 14 16  1  0  0  0  0
 15 14  1  0  0  0  0
 19 25  1  1  0  0  0
 19 22  1  0  0  0  0
 20 17  1  1  0  0  0
 21 24  2  0  0  0  0
 21 27  1  0  0  0  0
 22 18  1  1  0  0  0
 22 20  1  0  0  0  0
 23 28  1  0  0  0  0
 24 19  1  0  0  0  0
 25 23  1  0  0  0  0
 26 21  1  0  0  0  0
 27 18  1  0  0  0  0
 28 20  1  0  0  0  0
M  END
>  <MODEL>
3

>  <REMARK>
 VINA RESULT:      -6.8      3.415      5.774
  Name = 
  3 active torsions:
  status: ('A' for Active; 'I' for Inactive)
    1  A    between atoms: C_6  and  C_11
    2  A    between atoms: C_10  and  O_17
    3  A    between atoms: O_17  and  C_27
                            x       y       z     vdW  Elec       q    Type
                         _______ _______ _______ _____ _____    ______ ____

>  <TORSDO>
F 3

$$$$
=
 OpenBabel10272401473D

 28 31  0  0  1  0  0  0  0  0999 V2000
  188.8410  178.5760  141.6170 C   0  0  1  0  0  3  0  0  0  0  0  0
  189.1920  177.6960  140.5520 O   0  0  0  0  0  0  0  0  0  0  0  0
  189.9360  176.5380  140.7510 C   0  0  0  0  0  0  0  0  0  0  0  0
  184.2250  177.9790  142.9010 C   0  0  0  0  0  1  0  0  0  0  0  0
  190.4810  175.9700  139.7700 O   0  0  0  0  0  0  0  0  0  0  0  0
  188.3960  176.0260  142.8950 S   0  0  0  0  0  0  0  0  0  0  0  0
  190.0360  175.9350  142.1050 C   0  0  2  0  0  3  0  0  0  0  0  0
  186.6870  178.2110  142.5890 C   0  0  0  0  0  0  0  0  0  0  0  0
  186.6470  179.2770  141.6110 C   0  0  0  0  0  0  0  0  0  0  0  0
  185.6430  177.6130  143.1760 C   0  0  0  0  0  3  0  0  0  0  0  0
  185.6220  179.9130  141.2500 O   0  0  0  0  0  0  0  0  0  0  0  0
  187.9060  179.5260  141.1190 O   0  0  0  0  0  0  0  0  0  0  0  0
  188.1410  177.8690  142.8280 C   0  0  2  0  0  0  0  0  0  0  0  0
  191.1170  176.5860  142.9560 C   0  0  0  0  0  3  0  0  0  0  0  0
  191.9660  175.6070  143.4380 F   0  0  0  0  0  0  0  0  0  0  0  0
  191.8550  177.4780  142.1990 F   0  0  0  0  0  0  0  0  0  0  0  0
  188.6360  178.5130  143.9970 O   0  0  0  0  0  0  0  0  0  0  0  0
  190.7720  177.6970  145.5360 C   0  0  0  0  0  2  0  0  0  0  0  0
  189.2620  177.4780  147.4720 C   0  0  2  0  0  3  0  0  0  0  0  0
  188.2000  177.8530  145.1640 C   0  0  1  0  0  3  0  0  0  0  0  0
  191.5830  176.5500  147.5880 C   0  0  0  0  0  0  0  0  0  0  0  0
  189.3750  177.2370  145.9630 C   0  0  1  0  0  3  0  0  0  0  0  0
  186.8090  178.0450  147.2630 C   0  0  0  0  0  2  0  0  0  0  0  0
  190.2770  176.6940  148.1650 N   0  0  0  0  0  2  0  0  0  0  0  0
  187.8570  177.1650  147.9690 C   0  0  0  0  0  2  0  0  0  0  0  0
  192.8350  175.7070  148.4730 Cl  0  0  0  0  0  0  0  0  0  0  0  0
  191.8260  176.9770  146.3410 C   0  0  0  0  0  3  0  0  0  0  0  0
  187.3480  178.7880  146.0310 C   0  0  0  0  0  2  0  0  0  0  0  0
  1  2  1  6  0  0  0
  1 13  1  0  0  0  0
  2  3  1  0  0  0  0
  3  7  1  0  0  0  0
  4 10  1  0  0  0  0
  5  3  2  0  0  0  0
  7  6  1  0  0  0  0
  7 14  1  1  0  0  0
  8 13  1  0  0  0  0
  8 10  2  0  0  0  0
  9  8  1  0  0  0  0
 11  9  2  0  0  0  0
 12  9  1  0  0  0  0
 12  1  1  0  0  0  0
 13  6  1  0  0  0  0
 13 17  1  1  0  0  0
 14 15  1  0  0  0  0
 16 14  1  0  0  0  0
 18 27  1  0  0  0  0
 19 25  1  1  0  0  0
 19 24  1  0  0  0  0
 20 17  1  6  0  0  0
 20 22  1  0  0  0  0
 20 28  1  0  0  0  0
 21 24  1  0  0  0  0
 21 26  1  0  0  0  0
 22 18  1  6  0  0  0
 22 19  1  0  0  0  0
 23 25  1  0  0  0  0
 27 21  2  0  0  0  0
 28 23  1  0  0  0  0
M  END
>  <MODEL>
4

>  <REMARK>
 VINA RESULT:      -6.3      3.337      5.474
  Name = 
  3 active torsions:
  status: ('A' for Active; 'I' for Inactive)
    1  A    between atoms: C_6  and  C_11
    2  A    between atoms: C_10  and  O_17
    3  A    between atoms: O_17  and  C_27
                            x       y       z     vdW  Elec       q    Type
                         _______ _______ _______ _____ _____    ______ ____

>  <TORSDO>
F 3

$$$$
=
 OpenBabel10272401473D

 28 31  0  0  1  0  0  0  0  0999 V2000
  188.6610  175.9180  138.4670 C   0  0  1  0  0  3  0  0  0  0  0  0
  188.0680  176.5800  137.3530 O   0  0  0  0  0  0  0  0  0  0  0  0
  187.3730  177.7780  137.4760 C   0  0  0  0  0  0  0  0  0  0  0  0
  193.4380  176.6070  138.5470 C   0  0  0  0  0  1  0  0  0  0  0  0
  186.6140  178.1580  136.5470 O   0  0  0  0  0  0  0  0  0  0  0  0
  189.3470  178.6550  139.0770 S   0  0  0  0  0  0  0  0  0  0  0  0
  187.5710  178.6410  138.6690 C   0  0  2  0  0  3  0  0  0  0  0  0
  190.9720  176.3980  138.8430 C   0  0  0  0  0  0  0  0  0  0  0  0
  190.8060  175.1590  138.1140 C   0  0  0  0  0  0  0  0  0  0  0  0
  192.1130  177.0660  139.0510 C   0  0  0  0  0  3  0  0  0  0  0  0
  191.7310  174.4310  137.6700 O   0  0  0  0  0  0  0  0  0  0  0  0
  189.4720  174.8580  137.9740 O   0  0  0  0  0  0  0  0  0  0  0  0
  189.6040  176.8280  139.3250 C   0  0  2  0  0  0  0  0  0  0  0  0
  186.7160  178.2070  139.8520 C   0  0  0  0  0  3  0  0  0  0  0  0
  186.9450  179.0610  140.9140 F   0  0  0  0  0  0  0  0  0  0  0  0
  185.3740  178.2610  139.5210 F   0  0  0  0  0  0  0  0  0  0  0  0
  189.3930  176.4450  140.6790 O   0  0  0  0  0  0  0  0  0  0  0  0
  187.8670  176.5890  142.9710 C   0  0  0  0  0  2  0  0  0  0  0  0
  189.7330  177.7270  144.1120 C   0  0  2  0  0  3  0  0  0  0  0  0
  189.8990  177.4150  141.5680 C   0  0  1  0  0  3  0  0  0  0  0  0
  187.4740  177.6510  145.1850 C   0  0  0  0  0  0  0  0  0  0  0  0
  188.9690  177.6370  142.7860 C   0  0  1  0  0  3  0  0  0  0  0  0
  191.9080  178.1640  142.9030 C   0  0  0  0  0  2  0  0  0  0  0  0
  188.8220  178.1450  145.1690 N   0  0  0  0  0  2  0  0  0  0  0  0
  190.9320  178.6570  143.9860 C   0  0  0  0  0  2  0  0  0  0  0  0
  186.4150  178.0610  146.5160 Cl  0  0  0  0  0  0  0  0  0  0  0  0
  186.9940  176.9540  144.1460 C   0  0  0  0  0  3  0  0  0  0  0  0
  191.3290  177.0650  141.9970 C   0  0  0  0  0  2  0  0  0  0  0  0
  1  2  1  6  0  0  0
  1 13  1  0  0  0  0
  2  3  1  0  0  0  0
  3  7  1  0  0  0  0
  4 10  1  0  0  0  0
  5  3  2  0  0  0  0
  6 13  1  0  0  0  0
  7  6  1  0  0  0  0
  7 14  1  1  0  0  0
  8 10  2  0  0  0  0
  8 13  1  0  0  0  0
  9  8  1  0  0  0  0
 11  9  2  0  0  0  0
 12  9  1  0  0  0  0
 12  1  1  0  0  0  0
 13 17  1  1  0  0  0
 14 15  1  0  0  0  0
 16 14  1  0  0  0  0
 18 27  1  0  0  0  0
 19 25  1  6  0  0  0
 19 24  1  0  0  0  0
 20 17  1  6  0  0  0
 20 28  1  0  0  0  0
 20 22  1  0  0  0  0
 21 26  1  0  0  0  0
 22 18  1  1  0  0  0
 22 19  1  0  0  0  0
 23 25  1  0  0  0  0
 24 21  1  0  0  0  0
 27 21  2  0  0  0  0
 28 23  1  0  0  0  0
M  END
>  <MODEL>
5

>  <REMARK>
 VINA RESULT:      -6.3      3.584      5.547
  Name = 
  3 active torsions:
  status: ('A' for Active; 'I' for Inactive)
    1  A    between atoms: C_6  and  C_11
    2  A    between atoms: C_10  and  O_17
    3  A    between atoms: O_17  and  C_27
                            x       y       z     vdW  Elec       q    Type
                         _______ _______ _______ _____ _____    ______ ____

>  <TORSDO>
F 3

$$$$
=
 OpenBabel10272401473D

 28 31  0  0  1  0  0  0  0  0999 V2000
  191.5780  177.9360  142.0050 C   0  0  1  0  0  3  0  0  0  0  0  0
  192.0530  177.1520  143.0970 O   0  0  0  0  0  0  0  0  0  0  0  0
  191.2130  176.6700  144.0950 C   0  0  0  0  0  0  0  0  0  0  0  0
  191.2710  175.2870  137.9810 C   0  0  0  0  0  1  0  0  0  0  0  0
  191.7020  176.2630  145.1800 O   0  0  0  0  0  0  0  0  0  0  0  0
  189.4770  175.9620  142.1680 S   0  0  0  0  0  0  0  0  0  0  0  0
  189.7490  176.5760  143.8630 C   0  0  2  0  0  3  0  0  0  0  0  0
  191.0720  176.7240  140.0080 C   0  0  0  0  0  0  0  0  0  0  0  0
  192.3900  177.3160  139.9420 C   0  0  0  0  0  0  0  0  0  0  0  0
  190.5460  175.8260  139.1660 C   0  0  0  0  0  3  0  0  0  0  0  0
  193.2140  177.1860  138.9990 O   0  0  0  0  0  0  0  0  0  0  0  0
  192.6350  178.0720  141.0630 O   0  0  0  0  0  0  0  0  0  0  0  0
  190.3800  177.2910  141.2280 C   0  0  2  0  0  0  0  0  0  0  0  0
  189.0310  177.8940  144.1150 C   0  0  0  0  0  3  0  0  0  0  0  0
  187.8740  177.6510  144.8310 F   0  0  0  0  0  0  0  0  0  0  0  0
  189.8350  178.7470  144.8500 F   0  0  0  0  0  0  0  0  0  0  0  0
  189.5170  178.3670  140.8760 O   0  0  0  0  0  0  0  0  0  0  0  0
  186.8890  178.7860  141.5950 C   0  0  0  0  0  2  0  0  0  0  0  0
  186.2510  178.7070  139.2160 C   0  0  2  0  0  3  0  0  0  0  0  0
  188.6400  177.9960  139.8360 C   0  0  1  0  0  3  0  0  0  0  0  0
  184.4830  178.6460  140.9850 C   0  0  0  0  0  0  0  0  0  0  0  0
  187.1550  178.0620  140.2720 C   0  0  1  0  0  3  0  0  0  0  0  0
  188.0000  178.3740  137.4230 C   0  0  0  0  0  2  0  0  0  0  0  0
  184.8560  178.5390  139.6030 N   0  0  0  0  0  0  0  0  0  0  0  0
  186.5350  178.1340  137.8340 C   0  0  0  0  0  2  0  0  0  0  0  0
  182.7940  178.5590  141.4380 Cl  0  0  0  0  0  0  0  0  0  0  0  0
  185.4210  178.7220  141.9380 C   0  0  0  0  0  2  0  0  0  0  0  0
  188.9030  178.8320  138.5780 C   0  0  0  0  0  2  0  0  0  0  0  0
  1 12  1  6  0  0  0
  1  2  1  0  0  0  0
  2  3  1  0  0  0  0
  3  5  2  0  0  0  0
  4 10  1  0  0  0  0
  6  7  1  0  0  0  0
  7  3  1  0  0  0  0
  7 14  1  6  0  0  0
  8 13  1  0  0  0  0
  9  8  1  0  0  0  0
  9 12  1  0  0  0  0
 10  8  2  0  0  0  0
 11  9  2  0  0  0  0
 13 17  1  6  0  0  0
 13  1  1  0  0  0  0
 13  6  1  0  0  0  0
 14 15  1  0  0  0  0
 14 16  1  0  0  0  0
 18 27  1  0  0  0  0
 19 25  1  6  0  0  0
 19 24  1  0  0  0  0
 19 22  1  0  0  0  0
 20 22  1  0  0  0  0
 20 17  1  1  0  0  0
 21 26  1  0  0  0  0
 21 27  1  0  0  0  0
 22 18  1  1  0  0  0
 23 25  1  0  0  0  0
 23 28  1  0  0  0  0
 24 21  2  0  0  0  0
 28 20  1  0  0  0  0
M  END
>  <MODEL>
6

>  <REMARK>
 VINA RESULT:      -6.2      3.066      5.752
  Name = 
  3 active torsions:
  status: ('A' for Active; 'I' for Inactive)
    1  A    between atoms: C_6  and  C_11
    2  A    between atoms: C_10  and  O_17
    3  A    between atoms: O_17  and  C_27
                            x       y       z     vdW  Elec       q    Type
                         _______ _______ _______ _____ _____    ______ ____

>  <TORSDO>
F 3

$$$$
=
 OpenBabel10272401473D

 28 31  0  0  1  0  0  0  0  0999 V2000
  182.8660  179.7050  138.8530 C   0  0  1  0  0  3  0  0  0  0  0  0
  182.5100  178.9600  137.6910 O   0  0  0  0  0  0  0  0  0  0  0  0
  183.2360  177.8560  137.2570 C   0  0  0  0  0  0  0  0  0  0  0  0
  179.9820  178.6000  142.5640 C   0  0  0  0  0  1  0  0  0  0  0  0
  183.0820  177.4290  136.0840 O   0  0  0  0  0  0  0  0  0  0  0  0
  183.3180  177.0200  139.8120 S   0  0  0  0  0  0  0  0  0  0  0  0
  184.1440  177.1420  138.1910 C   0  0  2  0  0  3  0  0  0  0  0  0
  181.7470  179.0700  140.8690 C   0  0  0  0  0  0  0  0  0  0  0  0
  181.1090  180.2130  140.2530 C   0  0  0  0  0  0  0  0  0  0  0  0
  181.2800  178.3330  141.8840 C   0  0  0  0  0  3  0  0  0  0  0  0
  180.0680  180.7900  140.6630 O   0  0  0  0  0  0  0  0  0  0  0  0
  181.8090  180.6130  139.1390 O   0  0  0  0  0  0  0  0  0  0  0  0
  183.0520  178.8330  140.1410 C   0  0  2  0  0  0  0  0  0  0  0  0
  185.5120  177.8020  138.2950 C   0  0  0  0  0  3  0  0  0  0  0  0
  186.4900  176.8640  138.0230 F   0  0  0  0  0  0  0  0  0  0  0  0
  185.6200  178.8330  137.3800 F   0  0  0  0  0  0  0  0  0  0  0  0
  184.1460  179.4060  140.8480 O   0  0  0  0  0  0  0  0  0  0  0  0
  186.8210  178.7530  140.9930 C   0  0  0  0  0  2  0  0  0  0  0  0
  186.5650  178.3480  143.4110 C   0  0  2  0  0  3  0  0  0  0  0  0
  184.4300  178.6810  142.0230 C   0  0  1  0  0  3  0  0  0  0  0  0
  188.6590  177.6360  142.2410 C   0  0  0  0  0  0  0  0  0  0  0  0
  185.8870  178.1560  142.0500 C   0  0  1  0  0  3  0  0  0  0  0  0
  184.3340  178.6910  144.5460 C   0  0  0  0  0  2  0  0  0  0  0  0
  187.8420  177.6440  143.4210 N   0  0  0  0  0  2  0  0  0  0  0  0
  185.6520  177.8950  144.5420 C   0  0  0  0  0  2  0  0  0  0  0  0
  190.2420  176.8910  142.2860 Cl  0  0  0  0  0  0  0  0  0  0  0  0
  188.1850  178.1140  141.0820 C   0  0  0  0  0  3  0  0  0  0  0  0
  184.0980  179.5110  143.2680 C   0  0  0  0  0  2  0  0  0  0  0  0
  1  2  1  6  0  0  0
  1 12  1  0  0  0  0
  1 13  1  0  0  0  0
  3  2  1  0  0  0  0
  3  7  1  0  0  0  0
  5  3  2  0  0  0  0
  6 13  1  0  0  0  0
  7 14  1  1  0  0  0
  7  6  1  0  0  0  0
  8 10  2  0  0  0  0
  9 11  2  0  0  0  0
  9  8  1  0  0  0  0
 10  4  1  0  0  0  0
 12  9  1  0  0  0  0
 13 17  1  1  0  0  0
 13  8  1  0  0  0  0
 15 14  1  0  0  0  0
 16 14  1  0  0  0  0
 18 27  1  0  0  0  0
 19 24  1  0  0  0  0
 19 25  1  1  0  0  0
 20 17  1  6  0  0  0
 20 22  1  0  0  0  0
 20 28  1  0  0  0  0
 21 26  1  0  0  0  0
 21 24  1  0  0  0  0
 22 18  1  6  0  0  0
 22 19  1  0  0  0  0
 25 23  1  0  0  0  0
 27 21  2  0  0  0  0
 28 23  1  0  0  0  0
M  END
>  <MODEL>
7

>  <REMARK>
 VINA RESULT:      -5.9      5.845      8.500
  Name = 
  3 active torsions:
  status: ('A' for Active; 'I' for Inactive)
    1  A    between atoms: C_6  and  C_11
    2  A    between atoms: C_10  and  O_17
    3  A    between atoms: O_17  and  C_27
                            x       y       z     vdW  Elec       q    Type
                         _______ _______ _______ _____ _____    ______ ____

>  <TORSDO>
F 3

$$$$
=
 OpenBabel10272401473D

 28 31  0  0  1  0  0  0  0  0999 V2000
  189.0980  178.6240  145.8190 C   0  0  1  0  0  3  0  0  0  0  0  0
  189.0600  178.0290  147.1140 O   0  0  0  0  0  0  0  0  0  0  0  0
  187.8720  177.6560  147.7330 C   0  0  0  0  0  0  0  0  0  0  0  0
  190.4580  175.4140  142.4800 C   0  0  0  0  0  1  0  0  0  0  0  0
  187.8560  177.4320  148.9710 O   0  0  0  0  0  0  0  0  0  0  0  0
  187.0890  176.5950  145.3890 S   0  0  0  0  0  0  0  0  0  0  0  0
  186.6380  177.4580  146.9300 C   0  0  2  0  0  3  0  0  0  0  0  0
  189.4530  177.1150  143.9990 C   0  0  0  0  0  0  0  0  0  0  0  0
  190.6880  177.7540  144.3990 C   0  0  0  0  0  0  0  0  0  0  0  0
  189.3130  176.0810  143.1610 C   0  0  0  0  0  3  0  0  0  0  0  0
  191.8290  177.5300  143.9160 O   0  0  0  0  0  0  0  0  0  0  0  0
  190.4540  178.6750  145.3930 O   0  0  0  0  0  0  0  0  0  0  0  0
  188.3250  177.8180  144.7210 C   0  0  2  0  0  0  0  0  0  0  0  0
  185.9020  178.7630  146.6590 C   0  0  0  0  0  3  0  0  0  0  0  0
  184.5400  178.5250  146.6610 F   0  0  0  0  0  0  0  0  0  0  0  0
  186.1910  179.6920  147.6430 F   0  0  0  0  0  0  0  0  0  0  0  0
  187.7060  178.7880  143.8840 O   0  0  0  0  0  0  0  0  0  0  0  0
  185.0370  179.0110  143.2290 C   0  0  0  0  0  2  0  0  0  0  0  0
  185.6200  178.7070  140.8540 C   0  0  2  0  0  3  0  0  0  0  0  0
  187.4520  178.2660  142.6000 C   0  0  1  0  0  3  0  0  0  0  0  0
  183.2260  178.6060  141.5740 C   0  0  0  0  0  0  0  0  0  0  0  0
  185.9380  178.2240  142.2730 C   0  0  1  0  0  3  0  0  0  0  0  0
  188.0280  178.4130  140.1460 C   0  0  0  0  0  2  0  0  0  0  0  0
  184.2200  178.4380  140.5520 N   0  0  0  0  0  0  0  0  0  0  0  0
  186.5590  178.0680  139.8390 C   0  0  0  0  0  2  0  0  0  0  0  0
  181.5340  178.3950  141.1820 Cl  0  0  0  0  0  0  0  0  0  0  0  0
  183.5890  178.8360  142.8430 C   0  0  0  0  0  2  0  0  0  0  0  0
  188.2450  179.0330  141.5350 C   0  0  0  0  0  2  0  0  0  0  0  0
  1 12  1  6  0  0  0
  1  2  1  0  0  0  0
  2  3  1  0  0  0  0
  3  5  2  0  0  0  0
  4 10  1  0  0  0  0
  6  7  1  0  0  0  0
  7 14  1  6  0  0  0
  7  3  1  0  0  0  0
  8  9  1  0  0  0  0
  8 13  1  0  0  0  0
  9 12  1  0  0  0  0
 10  8  2  0  0  0  0
 11  9  2  0  0  0  0
 13 17  1  6  0  0  0
 13  6  1  0  0  0  0
 13  1  1  0  0  0  0
 14 15  1  0  0  0  0
 14 16  1  0  0  0  0
 19 25  1  6  0  0  0
 19 22  1  0  0  0  0
 20 17  1  1  0  0  0
 21 27  1  0  0  0  0
 22 20  1  0  0  0  0
 22 18  1  1  0  0  0
 23 28  1  0  0  0  0
 24 19  1  0  0  0  0
 24 21  2  0  0  0  0
 25 23  1  0  0  0  0
 26 21  1  0  0  0  0
 27 18  1  0  0  0  0
 28 20  1  0  0  0  0
M  END
>  <MODEL>
8

>  <REMARK>
 VINA RESULT:      -5.8      3.092      5.255
  Name = 
  3 active torsions:
  status: ('A' for Active; 'I' for Inactive)
    1  A    between atoms: C_6  and  C_11
    2  A    between atoms: C_10  and  O_17
    3  A    between atoms: O_17  and  C_27
                            x       y       z     vdW  Elec       q    Type
                         _______ _______ _______ _____ _____    ______ ____

>  <TORSDO>
F 3

$$$$
=
 OpenBabel10272401473D

 28 31  0  0  1  0  0  0  0  0999 V2000
  190.7240  176.7910  135.7040 C   0  0  1  0  0  3  0  0  0  0  0  0
  191.4250  175.7890  134.9710 O   0  0  0  0  0  0  0  0  0  0  0  0
  192.4110  174.9940  135.5440 C   0  0  0  0  0  0  0  0  0  0  0  0
  186.2970  175.2830  136.8990 C   0  0  0  0  0  1  0  0  0  0  0  0
  193.2050  174.3560  134.8060 O   0  0  0  0  0  0  0  0  0  0  0  0
  190.7960  174.6800  137.6710 S   0  0  0  0  0  0  0  0  0  0  0  0
  192.4910  174.8450  137.0190 C   0  0  2  0  0  3  0  0  0  0  0  0
  188.6330  176.1130  136.6430 C   0  0  0  0  0  0  0  0  0  0  0  0
  188.4430  176.8070  135.3880 C   0  0  0  0  0  0  0  0  0  0  0  0
  187.7140  175.4290  137.3350 C   0  0  0  0  0  3  0  0  0  0  0  0
  187.3430  176.9980  134.8060 O   0  0  0  0  0  0  0  0  0  0  0  0
  189.6470  177.2580  134.9000 O   0  0  0  0  0  0  0  0  0  0  0  0
  190.0840  176.2790  137.0380 C   0  0  2  0  0  0  0  0  0  0  0  0
  193.2490  175.9860  137.6820 C   0  0  0  0  0  3  0  0  0  0  0  0
  194.2230  175.4630  138.5110 F   0  0  0  0  0  0  0  0  0  0  0  0
  193.8600  176.7780  136.7260 F   0  0  0  0  0  0  0  0  0  0  0  0
  190.2420  177.3350  137.9790 O   0  0  0  0  0  0  0  0  0  0  0  0
  191.3590  177.4150  140.4980 C   0  0  0  0  0  2  0  0  0  0  0  0
  189.1680  178.0650  141.4230 C   0  0  2  0  0  3  0  0  0  0  0  0
  189.2490  177.2800  138.9790 C   0  0  1  0  0  3  0  0  0  0  0  0
  191.0220  177.3900  142.9620 C   0  0  0  0  0  0  0  0  0  0  0  0
  189.8530  177.1530  140.3990 C   0  0  1  0  0  3  0  0  0  0  0  0
  187.1710  178.3730  139.9070 C   0  0  0  0  0  2  0  0  0  0  0  0
  189.6430  177.7360  142.7600 N   0  0  0  0  0  2  0  0  0  0  0  0
  187.6530  177.9660  141.3110 C   0  0  0  0  0  2  0  0  0  0  0  0
  191.6180  177.1070  144.5820 Cl  0  0  0  0  0  0  0  0  0  0  0  0
  191.8340  177.1960  141.9140 C   0  0  0  0  0  3  0  0  0  0  0  0
  188.2980  178.4770  138.8670 C   0  0  0  0  0  2  0  0  0  0  0  0
  1 12  1  6  0  0  0
  1 13  1  0  0  0  0
  2  3  1  0  0  0  0
  2  1  1  0  0  0  0
  3  7  1  0  0  0  0
  4 10  1  0  0  0  0
  5  3  2  0  0  0  0
  7  6  1  0  0  0  0
  7 14  1  1  0  0  0
  8 13  1  0  0  0  0
  8 10  2  0  0  0  0
  9  8  1  0  0  0  0
 11  9  2  0  0  0  0
 12  9  1  0  0  0  0
 13  6  1  0  0  0  0
 13 17  1  1  0  0  0
 14 15  1  0  0  0  0
 16 14  1  0  0  0  0
 18 27  1  0  0  0  0
 19 25  1  1  0  0  0
 19 24  1  0  0  0  0
 20 17  1  6  0  0  0
 20 22  1  0  0  0  0
 21 26  1  0  0  0  0
 22 18  1  6  0  0  0
 22 19  1  0  0  0  0
 23 25  1  0  0  0  0
 24 21  1  0  0  0  0
 27 21  2  0  0  0  0
 28 20  1  0  0  0  0
 28 23  1  0  0  0  0
M  END
>  <MODEL>
9

>  <REMARK>
 VINA RESULT:      -5.7      5.424      8.139
  Name = 
  3 active torsions:
  status: ('A' for Active; 'I' for Inactive)
    1  A    between atoms: C_6  and  C_11
    2  A    between atoms: C_10  and  O_17
    3  A    between atoms: O_17  and  C_27
                            x       y       z     vdW  Elec       q    Type
                         _______ _______ _______ _____ _____    ______ ____

>  <TORSDO>
F 3

$$$$
