=
 OpenBabel10262423543D

 34 39  0  0  1  0  0  0  0  0999 V2000
  192.2250  173.9460  136.2670 C   0  0  1  0  0  3  0  0  0  0  0  0
  193.3590  175.9020  137.3290 C   0  0  1  0  0  3  0  0  0  0  0  0
  190.7960  175.7490  137.1530 C   0  0  1  0  0  3  0  0  0  0  0  0
  189.3640  177.7910  137.8110 C   0  0  2  0  0  3  0  0  0  0  0  0
  194.7080  174.0190  136.3470 C   0  0  0  0  0  2  0  0  0  0  0  0
  194.6360  175.0710  137.4490 C   0  0  0  0  0  2  0  0  0  0  0  0
  190.5510  176.6780  139.5550 C   0  0  0  0  0  2  0  0  0  0  0  0
  192.1140  174.9910  137.3860 C   0  0  1  0  0  3  0  0  0  0  0  0
  189.2960  178.6100  139.0860 C   0  0  0  0  0  2  0  0  0  0  0  0
  193.4880  173.1090  136.4150 C   0  0  0  0  0  2  0  0  0  0  0  0
  189.5950  174.7990  137.2060 C   0  0  1  0  0  3  0  0  0  0  0  0
  191.0620  173.0860  136.1990 N   0  0  0  0  0  0  0  0  0  0  0  0
  193.3510  176.8180  138.3630 F   0  0  0  0  0  0  0  0  0  0  0  0
  187.8080  176.8200  137.7300 S   0  0  0  0  0  0  0  0  0  0  0  0
  188.3810  175.5100  136.5990 C   0  0  2  0  0  3  0  0  0  0  0  0
  189.9230  177.8430  140.1710 N   0  0  0  0  0  0  0  0  0  0  0  0
  190.5960  176.9580  138.0720 C   0  0  1  0  0  3  0  0  0  0  0  0
  189.8820  173.4590  136.5580 C   0  0  0  0  0  3  0  0  0  0  0  0
  185.4540  173.1520  137.1070 C   0  0  0  0  0  0  0  0  0  0  0  0
  185.0870  172.8600  135.7920 C   0  0  0  0  0  3  0  0  0  0  0  0
  187.2330  174.5880  136.2990 C   0  0  0  0  0  0  0  0  0  0  0  0
  185.7910  173.4300  134.7260 C   0  0  0  0  0  3  0  0  0  0  0  0
  186.5260  174.0130  137.3610 C   0  0  0  0  0  3  0  0  0  0  0  0
  186.8620  174.2910  134.9780 C   0  0  0  0  0  3  0  0  0  0  0  0
  184.7720  172.5990  138.1400 F   0  0  0  0  0  0  0  0  0  0  0  0
  188.8630  177.3440  141.0320 C   0  0  0  0  0  2  0  0  0  0  0  0
  189.3930  176.2250  141.9130 C   0  0  0  0  0  2  0  0  0  0  0  0
  191.1340  176.4970  144.4250 C   0  0  0  0  0  1  0  0  0  0  0  0
  188.9670  176.4390  143.2870 N   0  0  0  0  0  0  0  0  0  0  0  0
  189.9610  177.3220  143.9230 C   0  0  1  0  0  3  0  0  0  0  0  0
  188.1550  177.4640  145.6880 C   0  0  0  0  0  2  0  0  0  0  0  0
  187.0730  177.2810  144.6190 C   0  0  0  0  0  2  0  0  0  0  0  0
  187.6680  177.1110  143.2180 C   0  0  0  0  0  2  0  0  0  0  0  0
  189.3910  178.1370  145.0990 C   0  0  0  0  0  2  0  0  0  0  0  0
  1 10  1  1  0  0  0
  1  8  1  0  0  0  0
  2  8  1  0  0  0  0
  2  6  1  0  0  0  0
  2 13  1  1  0  0  0
  3 11  1  0  0  0  0
  3  8  1  0  0  0  0
  3 17  1  0  0  0  0
  4 17  1  0  0  0  0
  4  9  1  0  0  0  0
  5 10  1  0  0  0  0
  5  6  1  0  0  0  0
  7 16  1  0  0  0  0
  9 16  1  0  0  0  0
 12  1  1  0  0  0  0
 12 18  2  0  0  0  0
 14  4  1  0  0  0  0
 15 11  1  0  0  0  0
 15 14  1  0  0  0  0
 16 26  1  0  0  0  0
 17  7  1  0  0  0  0
 18 11  1  0  0  0  0
 19 23  1  0  0  0  0
 19 25  1  0  0  0  0
 20 19  2  0  0  0  0
 21 15  1  0  0  0  0
 21 23  2  0  0  0  0
 22 24  2  0  0  0  0
 22 20  1  0  0  0  0
 24 21  1  0  0  0  0
 26 27  1  0  0  0  0
 27 29  1  0  0  0  0
 29 30  1  0  0  0  0
 30 28  1  0  0  0  0
 30 34  1  0  0  0  0
 32 31  1  0  0  0  0
 33 29  1  0  0  0  0
 33 32  1  0  0  0  0
 34 31  1  0  0  0  0
M  END
>  <MODEL>
1

>  <REMARK>
 VINA RESULT:      -8.1      0.000      0.000
  Name = 
  4 active torsions:
  status: ('A' for Active; 'I' for Inactive)
    1  A    between atoms: C_3  and  N_13
    2  A    between atoms: C_3  and  C_17
    3  A    between atoms: C_12  and  C_28
    4  A    between atoms: C_17  and  N_29
                            x       y       z     vdW  Elec       q    Type
                         _______ _______ _______ _____ _____    ______ ____

>  <TORSDO>
F 4

$$$$
=
 OpenBabel10262423543D

 34 39  0  0  1  0  0  0  0  0999 V2000
  187.2610  178.0460  144.9730 C   0  0  1  0  0  3  0  0  0  0  0  0
  184.9420  178.9660  145.1000 C   0  0  1  0  0  3  0  0  0  0  0  0
  186.1250  178.5730  142.8480 C   0  0  1  0  0  3  0  0  0  0  0  0
  185.0210  179.4250  140.6790 C   0  0  2  0  0  3  0  0  0  0  0  0
  186.2240  178.4320  147.1970 C   0  0  0  0  0  2  0  0  0  0  0  0
  184.8460  178.4720  146.5430 C   0  0  0  0  0  2  0  0  0  0  0  0
  183.9360  177.6420  141.8320 C   0  0  0  0  0  2  0  0  0  0  0  0
  185.8900  178.0650  144.2810 C   0  0  1  0  0  3  0  0  0  0  0  0
  183.6500  179.1810  140.0790 C   0  0  0  0  0  2  0  0  0  0  0  0
  187.1530  177.5270  146.4000 C   0  0  0  0  0  2  0  0  0  0  0  0
  187.0810  177.6510  142.0850 C   0  0  1  0  0  3  0  0  0  0  0  0
  188.2400  177.2760  144.2340 N   0  0  0  0  0  0  0  0  0  0  0  0
  183.6680  178.9620  144.5650 F   0  0  0  0  0  0  0  0  0  0  0  0
  186.2220  178.5200  139.6240 S   0  0  0  0  0  0  0  0  0  0  0  0
  187.5780  178.3860  140.8350 C   0  0  2  0  0  3  0  0  0  0  0  0
  183.0590  177.9990  140.7220 N   0  0  0  0  0  0  0  0  0  0  0  0
  184.8400  178.8300  142.0540 C   0  0  1  0  0  3  0  0  0  0  0  0
  188.2100  177.1330  142.9540 C   0  0  0  0  0  3  0  0  0  0  0  0
  191.1300  177.2320  140.1760 C   0  0  0  0  0  0  0  0  0  0  0  0
  190.9830  176.5120  138.9880 C   0  0  0  0  0  3  0  0  0  0  0  0
  188.7550  177.7250  140.1780 C   0  0  0  0  0  0  0  0  0  0  0  0
  189.7240  176.3960  138.3910 C   0  0  0  0  0  3  0  0  0  0  0  0
  190.0180  177.8380  140.7690 C   0  0  0  0  0  3  0  0  0  0  0  0
  188.6120  177.0020  138.9830 C   0  0  0  0  0  3  0  0  0  0  0  0
  192.3500  177.3440  140.7540 F   0  0  0  0  0  0  0  0  0  0  0  0
  183.1150  176.9010  139.7700 C   0  0  0  0  0  2  0  0  0  0  0  0
  182.7880  177.4060  138.3750 C   0  0  0  0  0  2  0  0  0  0  0  0
  185.0310  177.0380  136.3150 C   0  0  0  0  0  1  0  0  0  0  0  0
  182.9590  176.3310  137.4110 N   0  0  0  0  0  0  0  0  0  0  0  0
  184.4050  176.0660  137.3010 C   0  0  1  0  0  3  0  0  0  0  0  0
  183.5580  174.0060  136.1040 C   0  0  0  0  0  2  0  0  0  0  0  0
  182.2980  173.9980  136.9730 C   0  0  0  0  0  2  0  0  0  0  0  0
  182.2740  175.1620  137.9680 C   0  0  0  0  0  2  0  0  0  0  0  0
  184.7310  174.6290  136.8550 C   0  0  0  0  0  2  0  0  0  0  0  0
  1 10  1  1  0  0  0
  2 13  1  6  0  0  0
  2  6  1  0  0  0  0
  3  8  1  0  0  0  0
  4 17  1  0  0  0  0
  6  5  1  0  0  0  0
  7 17  1  0  0  0  0
  8  1  1  0  0  0  0
  8  2  1  0  0  0  0
  9  4  1  0  0  0  0
  9 16  1  0  0  0  0
 10  5  1  0  0  0  0
 11  3  1  0  0  0  0
 11 18  1  0  0  0  0
 12  1  1  0  0  0  0
 14  4  1  0  0  0  0
 14 15  1  0  0  0  0
 15 11  1  0  0  0  0
 16  7  1  0  0  0  0
 17  3  1  0  0  0  0
 18 12  2  0  0  0  0
 19 25  1  0  0  0  0
 19 23  1  0  0  0  0
 20 19  2  0  0  0  0
 21 23  2  0  0  0  0
 21 15  1  0  0  0  0
 22 24  2  0  0  0  0
 22 20  1  0  0  0  0
 24 21  1  0  0  0  0
 26 16  1  0  0  0  0
 27 26  1  0  0  0  0
 28 30  1  0  0  0  0
 29 33  1  0  0  0  0
 29 27  1  0  0  0  0
 30 29  1  0  0  0  0
 31 34  1  0  0  0  0
 31 32  1  0  0  0  0
 32 33  1  0  0  0  0
 34 30  1  0  0  0  0
M  END
>  <MODEL>
2

>  <REMARK>
 VINA RESULT:      -7.9      3.561      8.746
  Name = 
  4 active torsions:
  status: ('A' for Active; 'I' for Inactive)
    1  A    between atoms: C_3  and  N_13
    2  A    between atoms: C_3  and  C_17
    3  A    between atoms: C_12  and  C_28
    4  A    between atoms: C_17  and  N_29
                            x       y       z     vdW  Elec       q    Type
                         _______ _______ _______ _____ _____    ______ ____

>  <TORSDO>
F 4

$$$$
=
 OpenBabel10262423543D

 34 39  0  0  1  0  0  0  0  0999 V2000
  191.9790  173.8020  135.9220 C   0  0  1  0  0  3  0  0  0  0  0  0
  193.1110  175.9160  136.6230 C   0  0  1  0  0  3  0  0  0  0  0  0
  190.5460  175.7110  136.5440 C   0  0  1  0  0  3  0  0  0  0  0  0
  189.1030  177.8180  136.9020 C   0  0  2  0  0  3  0  0  0  0  0  0
  194.4610  173.9130  135.9210 C   0  0  0  0  0  2  0  0  0  0  0  0
  194.4030  175.1290  136.8410 C   0  0  0  0  0  2  0  0  0  0  0  0
  190.3490  177.0140  138.7690 C   0  0  0  0  0  2  0  0  0  0  0  0
  191.8820  175.0140  136.8600 C   0  0  1  0  0  3  0  0  0  0  0  0
  189.0550  178.8310  138.0290 C   0  0  0  0  0  2  0  0  0  0  0  0
  193.2580  173.0140  136.1690 C   0  0  0  0  0  2  0  0  0  0  0  0
  189.3610  174.7700  136.7830 C   0  0  1  0  0  3  0  0  0  0  0  0
  190.8270  172.9310  136.0260 N   0  0  0  0  0  0  0  0  0  0  0  0
  193.1150  176.9880  137.4950 F   0  0  0  0  0  0  0  0  0  0  0  0
  187.5590  176.8300  137.0220 S   0  0  0  0  0  0  0  0  0  0  0  0
  188.1220  175.3600  136.1020 C   0  0  2  0  0  3  0  0  0  0  0  0
  189.7200  178.2570  139.2060 N   0  0  0  0  0  0  0  0  0  0  0  0
  190.3520  177.0510  137.2600 C   0  0  1  0  0  3  0  0  0  0  0  0
  189.6510  173.3460  136.3520 C   0  0  0  0  0  3  0  0  0  0  0  0
  185.3190  172.9970  137.0720 C   0  0  0  0  0  0  0  0  0  0  0  0
  184.8510  172.5770  135.8250 C   0  0  0  0  0  3  0  0  0  0  0  0
  186.9810  174.3900  135.9870 C   0  0  0  0  0  0  0  0  0  0  0  0
  185.4460  173.0610  134.6550 C   0  0  0  0  0  3  0  0  0  0  0  0
  186.3820  173.9010  137.1530 C   0  0  0  0  0  3  0  0  0  0  0  0
  186.5090  173.9640  134.7350 C   0  0  0  0  0  3  0  0  0  0  0  0
  184.7420  172.5270  138.2050 F   0  0  0  0  0  0  0  0  0  0  0  0
  188.6900  177.8940  140.1650 C   0  0  0  0  0  2  0  0  0  0  0  0
  189.2560  176.9310  141.1950 C   0  0  0  0  0  2  0  0  0  0  0  0
  187.3890  176.9830  143.6290 C   0  0  0  0  0  1  0  0  0  0  0  0
  189.4440  177.6210  142.4610 N   0  0  0  0  0  0  0  0  0  0  0  0
  188.8880  176.7580  143.5190 C   0  0  1  0  0  3  0  0  0  0  0  0
  190.1420  178.3880  144.9910 C   0  0  0  0  0  2  0  0  0  0  0  0
  191.1960  178.5890  143.8980 C   0  0  0  0  0  2  0  0  0  0  0  0
  190.8900  177.7690  142.6410 C   0  0  0  0  0  2  0  0  0  0  0  0
  189.5260  176.9940  144.9000 C   0  0  0  0  0  2  0  0  0  0  0  0
  1 12  1  0  0  0  0
  1 10  1  1  0  0  0
  1  8  1  0  0  0  0
  2  6  1  0  0  0  0
  2  8  1  0  0  0  0
  2 13  1  1  0  0  0
  3 11  1  0  0  0  0
  3  8  1  0  0  0  0
  3 17  1  0  0  0  0
  4 14  1  0  0  0  0
  4 17  1  0  0  0  0
  4  9  1  0  0  0  0
  5 10  1  0  0  0  0
  5  6  1  0  0  0  0
  7 16  1  0  0  0  0
  9 16  1  0  0  0  0
 12 18  2  0  0  0  0
 15 11  1  0  0  0  0
 15 14  1  0  0  0  0
 16 26  1  0  0  0  0
 17  7  1  0  0  0  0
 18 11  1  0  0  0  0
 19 23  1  0  0  0  0
 19 25  1  0  0  0  0
 20 19  2  0  0  0  0
 21 15  1  0  0  0  0
 21 23  2  0  0  0  0
 22 24  2  0  0  0  0
 22 20  1  0  0  0  0
 24 21  1  0  0  0  0
 26 27  1  0  0  0  0
 27 29  1  0  0  0  0
 29 33  1  0  0  0  0
 29 30  1  0  0  0  0
 30 28  1  0  0  0  0
 30 34  1  0  0  0  0
 32 31  1  0  0  0  0
 33 32  1  0  0  0  0
 34 31  1  0  0  0  0
M  END
>  <MODEL>
3

>  <REMARK>
 VINA RESULT:      -7.8      0.830      1.417
  Name = 
  4 active torsions:
  status: ('A' for Active; 'I' for Inactive)
    1  A    between atoms: C_3  and  N_13
    2  A    between atoms: C_3  and  C_17
    3  A    between atoms: C_12  and  C_28
    4  A    between atoms: C_17  and  N_29
                            x       y       z     vdW  Elec       q    Type
                         _______ _______ _______ _____ _____    ______ ____

>  <TORSDO>
F 4

$$$$
=
 OpenBabel10262423543D

 34 39  0  0  1  0  0  0  0  0999 V2000
  187.3470  178.0390  145.0700 C   0  0  1  0  0  3  0  0  0  0  0  0
  185.0330  178.9630  145.2560 C   0  0  1  0  0  3  0  0  0  0  0  0
  186.1640  178.5810  142.9750 C   0  0  1  0  0  3  0  0  0  0  0  0
  185.0110  179.4490  140.8380 C   0  0  2  0  0  3  0  0  0  0  0  0
  186.3620  178.4130  147.3200 C   0  0  0  0  0  2  0  0  0  0  0  0
  184.9700  178.4600  146.6980 C   0  0  0  0  0  2  0  0  0  0  0  0
  183.9500  177.6610  142.0040 C   0  0  0  0  0  2  0  0  0  0  0  0
  185.9610  178.0650  144.4110 C   0  0  1  0  0  3  0  0  0  0  0  0
  183.6270  179.2110  140.2670 C   0  0  0  0  0  2  0  0  0  0  0  0
  187.2710  177.5110  146.4960 C   0  0  0  0  0  2  0  0  0  0  0  0
  187.1010  177.6630  142.1850 C   0  0  1  0  0  3  0  0  0  0  0  0
  188.3070  177.2720  144.3050 N   0  0  0  0  0  0  0  0  0  0  0  0
  183.7470  178.9640  144.7500 F   0  0  0  0  0  0  0  0  0  0  0  0
  186.1860  178.5490  139.7500 S   0  0  0  0  0  0  0  0  0  0  0  0
  187.5700  178.4050  140.9290 C   0  0  2  0  0  3  0  0  0  0  0  0
  183.0490  178.0260  140.9160 N   0  0  0  0  0  0  0  0  0  0  0  0
  184.8620  178.8460  142.2130 C   0  0  1  0  0  3  0  0  0  0  0  0
  188.2480  177.1370  143.0240 C   0  0  0  0  0  3  0  0  0  0  0  0
  189.6110  176.5840  138.3020 C   0  0  0  0  0  0  0  0  0  0  0  0
  190.8650  176.5050  138.9150 C   0  0  0  0  0  3  0  0  0  0  0  0
  188.7310  177.7460  140.2400 C   0  0  0  0  0  0  0  0  0  0  0  0
  191.0550  177.0450  140.1910 C   0  0  0  0  0  3  0  0  0  0  0  0
  188.5470  177.2020  138.9640 C   0  0  0  0  0  3  0  0  0  0  0  0
  189.9910  177.6640  140.8530 C   0  0  0  0  0  3  0  0  0  0  0  0
  189.4270  176.0600  137.0660 F   0  0  0  0  0  0  0  0  0  0  0  0
  183.0810  176.9350  139.9570 C   0  0  0  0  0  2  0  0  0  0  0  0
  181.7360  176.8160  139.2590 C   0  0  0  0  0  2  0  0  0  0  0  0
  181.6340  178.4440  136.6610 C   0  0  0  0  0  1  0  0  0  0  0  0
  181.9300  176.3510  137.8950 N   0  0  0  0  0  0  0  0  0  0  0  0
  182.6360  177.4180  137.1630 C   0  0  1  0  0  3  0  0  0  0  0  0
  182.9240  175.5570  135.4760 C   0  0  0  0  0  2  0  0  0  0  0  0
  182.9470  174.5180  136.6000 C   0  0  0  0  0  2  0  0  0  0  0  0
  182.7740  175.1570  137.9820 C   0  0  0  0  0  2  0  0  0  0  0  0
  183.4550  176.9000  135.9670 C   0  0  0  0  0  2  0  0  0  0  0  0
  1 10  1  1  0  0  0
  2 13  1  6  0  0  0
  2  6  1  0  0  0  0
  3  8  1  0  0  0  0
  4 17  1  0  0  0  0
  6  5  1  0  0  0  0
  7 17  1  0  0  0  0
  8  1  1  0  0  0  0
  8  2  1  0  0  0  0
  9  4  1  0  0  0  0
  9 16  1  0  0  0  0
 10  5  1  0  0  0  0
 11  3  1  0  0  0  0
 11 18  1  0  0  0  0
 12  1  1  0  0  0  0
 14  4  1  0  0  0  0
 14 15  1  0  0  0  0
 15 11  1  0  0  0  0
 16  7  1  0  0  0  0
 17  3  1  0  0  0  0
 18 12  2  0  0  0  0
 19 20  2  0  0  0  0
 19 23  1  0  0  0  0
 20 22  1  0  0  0  0
 21 24  1  0  0  0  0
 21 15  1  0  0  0  0
 22 24  2  0  0  0  0
 23 21  2  0  0  0  0
 25 19  1  0  0  0  0
 26 16  1  0  0  0  0
 27 26  1  0  0  0  0
 28 30  1  0  0  0  0
 29 33  1  0  0  0  0
 29 27  1  0  0  0  0
 30 29  1  0  0  0  0
 31 34  1  0  0  0  0
 31 32  1  0  0  0  0
 32 33  1  0  0  0  0
 34 30  1  0  0  0  0
M  END
>  <MODEL>
4

>  <REMARK>
 VINA RESULT:      -7.6      3.942      8.885
  Name = 
  4 active torsions:
  status: ('A' for Active; 'I' for Inactive)
    1  A    between atoms: C_3  and  N_13
    2  A    between atoms: C_3  and  C_17
    3  A    between atoms: C_12  and  C_28
    4  A    between atoms: C_17  and  N_29
                            x       y       z     vdW  Elec       q    Type
                         _______ _______ _______ _____ _____    ______ ____

>  <TORSDO>
F 4

$$$$
=
 OpenBabel10262423543D

 34 39  0  0  1  0  0  0  0  0999 V2000
  185.3380  178.5410  142.3780 C   0  0  1  0  0  3  0  0  0  0  0  0
  184.9370  179.0390  139.9630 C   0  0  1  0  0  3  0  0  0  0  0  0
  187.2750  178.4380  140.8550 C   0  0  1  0  0  3  0  0  0  0  0  0
  189.3120  178.6460  139.2870 C   0  0  2  0  0  3  0  0  0  0  0  0
  183.0510  179.1560  141.6240 C   0  0  0  0  0  2  0  0  0  0  0  0
  183.4400  178.8230  140.1880 C   0  0  0  0  0  2  0  0  0  0  0  0
  187.7110  176.9530  138.7820 C   0  0  0  0  0  2  0  0  0  0  0  0
  185.7600  178.1820  140.9460 C   0  0  1  0  0  3  0  0  0  0  0  0
  189.6050  178.0500  137.9240 C   0  0  0  0  0  2  0  0  0  0  0  0
  183.8510  178.2950  142.5930 C   0  0  0  0  0  2  0  0  0  0  0  0
  188.0440  177.5730  141.8580 C   0  0  1  0  0  3  0  0  0  0  0  0
  186.1110  177.8320  143.3750 N   0  0  0  0  0  0  0  0  0  0  0  0
  185.2220  178.7040  138.6530 F   0  0  0  0  0  0  0  0  0  0  0  0
  190.4120  177.7860  140.4810 S   0  0  0  0  0  0  0  0  0  0  0  0
  189.4640  178.1310  141.9990 C   0  0  2  0  0  3  0  0  0  0  0  0
  188.6850  176.9280  137.6950 N   0  0  0  0  0  0  0  0  0  0  0  0
  187.8500  178.3040  139.4410 C   0  0  1  0  0  3  0  0  0  0  0  0
  187.3250  177.4420  143.1870 C   0  0  0  0  0  3  0  0  0  0  0  0
  191.5740  175.8130  144.1340 C   0  0  0  0  0  0  0  0  0  0  0  0
  191.6210  176.5020  145.3490 C   0  0  0  0  0  3  0  0  0  0  0  0
  190.2130  177.5780  143.1780 C   0  0  0  0  0  0  0  0  0  0  0  0
  190.9630  177.7300  145.4820 C   0  0  0  0  0  3  0  0  0  0  0  0
  190.8710  176.3500  143.0520 C   0  0  0  0  0  3  0  0  0  0  0  0
  190.2600  178.2660  144.4000 C   0  0  0  0  0  3  0  0  0  0  0  0
  192.2100  174.6240  144.0060 F   0  0  0  0  0  0  0  0  0  0  0  0
  189.4430  175.6960  137.8380 C   0  0  0  0  0  2  0  0  0  0  0  0
  190.3350  175.4920  136.6240 C   0  0  0  0  0  2  0  0  0  0  0  0
  191.4770  172.8040  135.6850 C   0  0  0  0  0  1  0  0  0  0  0  0
  191.5750  174.8480  137.0290 N   0  0  0  0  0  0  0  0  0  0  0  0
  192.1250  174.1690  135.8420 C   0  0  1  0  0  3  0  0  0  0  0  0
  194.1620  174.0210  137.3330 C   0  0  0  0  0  2  0  0  0  0  0  0
  193.7790  175.3350  138.0170 C   0  0  0  0  0  2  0  0  0  0  0  0
  192.4760  175.9190  137.4600 C   0  0  0  0  0  2  0  0  0  0  0  0
  193.6530  173.9890  135.8940 C   0  0  0  0  0  2  0  0  0  0  0  0
  1 10  1  6  0  0  0
  1 12  1  0  0  0  0
  2 13  1  6  0  0  0
  2  6  1  0  0  0  0
  2  8  1  0  0  0  0
  3  8  1  0  0  0  0
  3 11  1  0  0  0  0
  4 17  1  0  0  0  0
  4 14  1  0  0  0  0
  5 10  1  0  0  0  0
  6  5  1  0  0  0  0
  7 17  1  0  0  0  0
  8  1  1  0  0  0  0
  9  4  1  0  0  0  0
 11 15  1  0  0  0  0
 11 18  1  0  0  0  0
 14 15  1  0  0  0  0
 15 21  1  0  0  0  0
 16 26  1  0  0  0  0
 16  9  1  0  0  0  0
 16  7  1  0  0  0  0
 17  3  1  0  0  0  0
 18 12  2  0  0  0  0
 19 20  1  0  0  0  0
 20 22  2  0  0  0  0
 21 24  2  0  0  0  0
 23 21  1  0  0  0  0
 23 19  2  0  0  0  0
 24 22  1  0  0  0  0
 25 19  1  0  0  0  0
 27 29  1  0  0  0  0
 27 26  1  0  0  0  0
 28 30  1  0  0  0  0
 29 33  1  0  0  0  0
 30 34  1  0  0  0  0
 30 29  1  0  0  0  0
 31 32  1  0  0  0  0
 33 32  1  0  0  0  0
 34 31  1  0  0  0  0
M  END
>  <MODEL>
5

>  <REMARK>
 VINA RESULT:      -7.5      2.816      8.610
  Name = 
  4 active torsions:
  status: ('A' for Active; 'I' for Inactive)
    1  A    between atoms: C_3  and  N_13
    2  A    between atoms: C_3  and  C_17
    3  A    between atoms: C_12  and  C_28
    4  A    between atoms: C_17  and  N_29
                            x       y       z     vdW  Elec       q    Type
                         _______ _______ _______ _____ _____    ______ ____

>  <TORSDO>
F 4

$$$$
=
 OpenBabel10262423543D

 34 39  0  0  1  0  0  0  0  0999 V2000
  185.7090  178.2540  144.0740 C   0  0  1  0  0  3  0  0  0  0  0  0
  185.0590  179.2530  141.8790 C   0  0  1  0  0  3  0  0  0  0  0  0
  187.4350  178.3660  142.3160 C   0  0  1  0  0  3  0  0  0  0  0  0
  189.2780  178.7860  140.5610 C   0  0  2  0  0  3  0  0  0  0  0  0
  183.4020  179.1230  143.7670 C   0  0  0  0  0  2  0  0  0  0  0  0
  183.5880  179.0710  142.2540 C   0  0  0  0  0  2  0  0  0  0  0  0
  187.5030  177.3140  139.9530 C   0  0  0  0  0  2  0  0  0  0  0  0
  185.9270  178.1720  142.5560 C   0  0  1  0  0  3  0  0  0  0  0  0
  189.3570  178.4660  139.0810 C   0  0  0  0  0  2  0  0  0  0  0  0
  184.2450  178.0440  144.4340 C   0  0  0  0  0  2  0  0  0  0  0  0
  188.2510  177.2770  143.0180 C   0  0  1  0  0  3  0  0  0  0  0  0
  186.5410  177.3180  144.8010 N   0  0  0  0  0  0  0  0  0  0  0  0
  185.1570  179.1780  140.5020 F   0  0  0  0  0  0  0  0  0  0  0  0
  190.4450  177.6460  141.4060 S   0  0  0  0  0  0  0  0  0  0  0  0
  189.7160  177.7220  143.0750 C   0  0  2  0  0  3  0  0  0  0  0  0
  188.3340  177.4610  138.7620 N   0  0  0  0  0  0  0  0  0  0  0  0
  187.8240  178.4930  140.8390 C   0  0  1  0  0  3  0  0  0  0  0  0
  187.6900  176.9140  144.3800 C   0  0  0  0  0  3  0  0  0  0  0  0
  191.4760  176.5740  146.2320 C   0  0  0  0  0  0  0  0  0  0  0  0
  192.1170  175.4110  145.7980 C   0  0  0  0  0  3  0  0  0  0  0  0
  190.5570  176.9030  144.0120 C   0  0  0  0  0  0  0  0  0  0  0  0
  191.9820  174.9910  144.4710 C   0  0  0  0  0  3  0  0  0  0  0  0
  190.6980  177.3180  145.3410 C   0  0  0  0  0  3  0  0  0  0  0  0
  191.2050  175.7350  143.5790 C   0  0  0  0  0  3  0  0  0  0  0  0
  191.6080  176.9810  147.5180 F   0  0  0  0  0  0  0  0  0  0  0  0
  189.0080  176.1900  138.5580 C   0  0  0  0  0  2  0  0  0  0  0  0
  189.9130  176.2710  137.3400 C   0  0  0  0  0  2  0  0  0  0  0  0
  190.5480  173.3910  136.4960 C   0  0  0  0  0  1  0  0  0  0  0  0
  191.1280  175.5090  137.5800 N   0  0  0  0  0  0  0  0  0  0  0  0
  191.3620  174.6700  136.3900 C   0  0  1  0  0  3  0  0  0  0  0  0
  193.6180  174.3840  137.4950 C   0  0  0  0  0  2  0  0  0  0  0  0
  193.5200  175.7890  138.0960 C   0  0  0  0  0  2  0  0  0  0  0  0
  192.2080  176.4870  137.7260 C   0  0  0  0  0  2  0  0  0  0  0  0
  192.8420  174.3000  136.1840 C   0  0  0  0  0  2  0  0  0  0  0  0
  1 10  1  6  0  0  0
  1 12  1  0  0  0  0
  2 13  1  6  0  0  0
  2  6  1  0  0  0  0
  2  8  1  0  0  0  0
  3  8  1  0  0  0  0
  3 11  1  0  0  0  0
  4 17  1  0  0  0  0
  4 14  1  0  0  0  0
  5 10  1  0  0  0  0
  6  5  1  0  0  0  0
  7 17  1  0  0  0  0
  8  1  1  0  0  0  0
  9  4  1  0  0  0  0
 11 15  1  0  0  0  0
 11 18  1  0  0  0  0
 14 15  1  0  0  0  0
 15 21  1  0  0  0  0
 16  9  1  0  0  0  0
 16  7  1  0  0  0  0
 17  3  1  0  0  0  0
 18 12  2  0  0  0  0
 19 25  1  0  0  0  0
 20 19  1  0  0  0  0
 21 23  1  0  0  0  0
 22 20  2  0  0  0  0
 23 19  2  0  0  0  0
 24 21  2  0  0  0  0
 24 22  1  0  0  0  0
 26 16  1  0  0  0  0
 27 29  1  0  0  0  0
 27 26  1  0  0  0  0
 29 33  1  0  0  0  0
 30 28  1  0  0  0  0
 30 29  1  0  0  0  0
 31 32  1  0  0  0  0
 33 32  1  0  0  0  0
 34 30  1  0  0  0  0
 34 31  1  0  0  0  0
M  END
>  <MODEL>
6

>  <REMARK>
 VINA RESULT:      -7.4      3.093      8.914
  Name = 
  4 active torsions:
  status: ('A' for Active; 'I' for Inactive)
    1  A    between atoms: C_3  and  N_13
    2  A    between atoms: C_3  and  C_17
    3  A    between atoms: C_12  and  C_28
    4  A    between atoms: C_17  and  N_29
                            x       y       z     vdW  Elec       q    Type
                         _______ _______ _______ _____ _____    ______ ____

>  <TORSDO>
F 4

$$$$
=
 OpenBabel10262423543D

 34 39  0  0  1  0  0  0  0  0999 V2000
  185.3670  178.5690  142.2670 C   0  0  1  0  0  3  0  0  0  0  0  0
  185.0080  179.0170  139.8360 C   0  0  1  0  0  3  0  0  0  0  0  0
  187.3270  178.4180  140.7790 C   0  0  1  0  0  3  0  0  0  0  0  0
  189.3910  178.5760  139.2400 C   0  0  2  0  0  3  0  0  0  0  0  0
  183.0970  179.1850  141.4640 C   0  0  0  0  0  2  0  0  0  0  0  0
  183.5070  178.8170  140.0410 C   0  0  0  0  0  2  0  0  0  0  0  0
  187.7840  176.8850  138.7460 C   0  0  0  0  0  2  0  0  0  0  0  0
  185.8090  178.1750  140.8510 C   0  0  1  0  0  3  0  0  0  0  0  0
  189.7000  177.9480  137.8950 C   0  0  0  0  0  2  0  0  0  0  0  0
  183.8750  178.3400  142.4640 C   0  0  0  0  0  2  0  0  0  0  0  0
  188.0730  177.5690  141.8130 C   0  0  1  0  0  3  0  0  0  0  0  0
  186.1180  177.8760  143.2920 N   0  0  0  0  0  0  0  0  0  0  0  0
  185.3110  178.6520  138.5380 F   0  0  0  0  0  0  0  0  0  0  0  0
  190.4640  177.7330  140.4700 S   0  0  0  0  0  0  0  0  0  0  0  0
  189.4950  178.1190  141.9650 C   0  0  2  0  0  3  0  0  0  0  0  0
  188.7750  176.8280  137.6760 N   0  0  0  0  0  0  0  0  0  0  0  0
  187.9240  178.2490  139.3780 C   0  0  1  0  0  3  0  0  0  0  0  0
  187.3320  177.4730  143.1320 C   0  0  0  0  0  3  0  0  0  0  0  0
  191.6130  175.8680  144.1630 C   0  0  0  0  0  0  0  0  0  0  0  0
  191.5870  176.5490  145.3820 C   0  0  0  0  0  3  0  0  0  0  0  0
  190.2200  177.5860  143.1670 C   0  0  0  0  0  0  0  0  0  0  0  0
  190.8780  177.7490  145.4990 C   0  0  0  0  0  3  0  0  0  0  0  0
  190.9300  176.3860  143.0580 C   0  0  0  0  0  3  0  0  0  0  0  0
  190.1950  178.2660  144.3950 C   0  0  0  0  0  3  0  0  0  0  0  0
  192.3000  174.7050  144.0500 F   0  0  0  0  0  0  0  0  0  0  0  0
  189.5210  175.5940  137.8570 C   0  0  0  0  0  2  0  0  0  0  0  0
  190.9390  175.7630  137.3370 C   0  0  0  0  0  2  0  0  0  0  0  0
  193.6480  174.9760  136.1320 C   0  0  0  0  0  1  0  0  0  0  0  0
  191.2190  174.7470  136.3350 N   0  0  0  0  0  0  0  0  0  0  0  0
  192.5120  174.1310  136.6840 C   0  0  1  0  0  3  0  0  0  0  0  0
  191.7460  172.4400  134.9670 C   0  0  0  0  0  2  0  0  0  0  0  0
  190.2840  172.6940  135.3430 C   0  0  0  0  0  2  0  0  0  0  0  0
  190.1450  173.7570  136.4390 C   0  0  0  0  0  2  0  0  0  0  0  0
  192.6650  172.6920  136.1590 C   0  0  0  0  0  2  0  0  0  0  0  0
  1 10  1  6  0  0  0
  1 12  1  0  0  0  0
  2 13  1  6  0  0  0
  2  6  1  0  0  0  0
  2  8  1  0  0  0  0
  3  8  1  0  0  0  0
  3 11  1  0  0  0  0
  4 17  1  0  0  0  0
  4 14  1  0  0  0  0
  5 10  1  0  0  0  0
  6  5  1  0  0  0  0
  7 17  1  0  0  0  0
  8  1  1  0  0  0  0
  9  4  1  0  0  0  0
 11 15  1  0  0  0  0
 11 18  1  0  0  0  0
 14 15  1  0  0  0  0
 15 21  1  0  0  0  0
 16 26  1  0  0  0  0
 16  9  1  0  0  0  0
 16  7  1  0  0  0  0
 17  3  1  0  0  0  0
 18 12  2  0  0  0  0
 19 20  1  0  0  0  0
 20 22  2  0  0  0  0
 21 24  2  0  0  0  0
 23 21  1  0  0  0  0
 23 19  2  0  0  0  0
 24 22  1  0  0  0  0
 25 19  1  0  0  0  0
 27 26  1  0  0  0  0
 28 30  1  0  0  0  0
 29 33  1  0  0  0  0
 29 30  1  0  0  0  0
 29 27  1  0  0  0  0
 31 32  1  0  0  0  0
 31 34  1  0  0  0  0
 32 33  1  0  0  0  0
 34 30  1  0  0  0  0
M  END
>  <MODEL>
7

>  <REMARK>
 VINA RESULT:      -7.2      2.747      8.663
  Name = 
  4 active torsions:
  status: ('A' for Active; 'I' for Inactive)
    1  A    between atoms: C_3  and  N_13
    2  A    between atoms: C_3  and  C_17
    3  A    between atoms: C_12  and  C_28
    4  A    between atoms: C_17  and  N_29
                            x       y       z     vdW  Elec       q    Type
                         _______ _______ _______ _____ _____    ______ ____

>  <TORSDO>
F 4

$$$$
=
 OpenBabel10262423543D

 34 39  0  0  1  0  0  0  0  0999 V2000
  185.7280  178.2650  144.0890 C   0  0  1  0  0  3  0  0  0  0  0  0
  185.0760  179.2610  141.8930 C   0  0  1  0  0  3  0  0  0  0  0  0
  187.4480  178.3610  142.3240 C   0  0  1  0  0  3  0  0  0  0  0  0
  189.2870  178.7640  140.5610 C   0  0  2  0  0  3  0  0  0  0  0  0
  183.4260  179.1480  143.7890 C   0  0  0  0  0  2  0  0  0  0  0  0
  183.6050  179.0900  142.2750 C   0  0  0  0  0  2  0  0  0  0  0  0
  187.5000  177.3020  139.9640 C   0  0  0  0  0  2  0  0  0  0  0  0
  185.9400  178.1780  142.5710 C   0  0  1  0  0  3  0  0  0  0  0  0
  189.3580  178.4390  139.0820 C   0  0  0  0  0  2  0  0  0  0  0  0
  184.2640  178.0660  144.4550 C   0  0  0  0  0  2  0  0  0  0  0  0
  188.2600  177.2690  143.0270 C   0  0  1  0  0  3  0  0  0  0  0  0
  186.5570  177.3260  144.8150 N   0  0  0  0  0  0  0  0  0  0  0  0
  185.1680  179.1820  140.5170 F   0  0  0  0  0  0  0  0  0  0  0  0
  190.4500  177.6190  141.4040 S   0  0  0  0  0  0  0  0  0  0  0  0
  189.7280  177.7040  143.0760 C   0  0  2  0  0  3  0  0  0  0  0  0
  188.3270  177.4400  138.7690 N   0  0  0  0  0  0  0  0  0  0  0  0
  187.8320  178.4820  140.8450 C   0  0  1  0  0  3  0  0  0  0  0  0
  187.7020  176.9140  144.3910 C   0  0  0  0  0  3  0  0  0  0  0  0
  191.4930  176.5540  146.2300 C   0  0  0  0  0  0  0  0  0  0  0  0
  192.1250  175.3860  145.7960 C   0  0  0  0  0  3  0  0  0  0  0  0
  190.5670  176.8830  144.0120 C   0  0  0  0  0  0  0  0  0  0  0  0
  191.9820  174.9630  144.4710 C   0  0  0  0  0  3  0  0  0  0  0  0
  190.7160  177.3010  145.3390 C   0  0  0  0  0  3  0  0  0  0  0  0
  191.2060  175.7100  143.5800 C   0  0  0  0  0  3  0  0  0  0  0  0
  191.6320  176.9640  147.5140 F   0  0  0  0  0  0  0  0  0  0  0  0
  188.9920  176.1640  138.5660 C   0  0  0  0  0  2  0  0  0  0  0  0
  188.7850  175.6920  137.1370 C   0  0  0  0  0  2  0  0  0  0  0  0
  187.4040  177.6850  135.2570 C   0  0  0  0  0  1  0  0  0  0  0  0
  187.3740  175.7770  136.7920 N   0  0  0  0  0  0  0  0  0  0  0  0
  187.2930  176.1740  135.3740 C   0  0  1  0  0  3  0  0  0  0  0  0
  184.8830  175.4830  135.7070 C   0  0  0  0  0  2  0  0  0  0  0  0
  185.3070  174.4380  136.7410 C   0  0  0  0  0  2  0  0  0  0  0  0
  186.8220  174.4330  136.9710 C   0  0  0  0  0  2  0  0  0  0  0  0
  185.9930  175.7190  134.6860 C   0  0  0  0  0  2  0  0  0  0  0  0
  1 10  1  6  0  0  0
  1 12  1  0  0  0  0
  2 13  1  6  0  0  0
  2  6  1  0  0  0  0
  2  8  1  0  0  0  0
  3  8  1  0  0  0  0
  3 11  1  0  0  0  0
  4 17  1  0  0  0  0
  4 14  1  0  0  0  0
  5 10  1  0  0  0  0
  6  5  1  0  0  0  0
  7 17  1  0  0  0  0
  8  1  1  0  0  0  0
  9  4  1  0  0  0  0
 11 15  1  0  0  0  0
 11 18  1  0  0  0  0
 14 15  1  0  0  0  0
 15 21  1  0  0  0  0
 16  9  1  0  0  0  0
 16  7  1  0  0  0  0
 17  3  1  0  0  0  0
 18 12  2  0  0  0  0
 19 25  1  0  0  0  0
 20 19  1  0  0  0  0
 21 23  1  0  0  0  0
 22 20  2  0  0  0  0
 23 19  2  0  0  0  0
 24 21  2  0  0  0  0
 24 22  1  0  0  0  0
 26 16  1  0  0  0  0
 27 26  1  0  0  0  0
 28 30  1  0  0  0  0
 29 33  1  0  0  0  0
 29 27  1  0  0  0  0
 30 29  1  0  0  0  0
 31 32  1  0  0  0  0
 32 33  1  0  0  0  0
 34 30  1  0  0  0  0
 34 31  1  0  0  0  0
M  END
>  <MODEL>
8

>  <REMARK>
 VINA RESULT:      -7.1      3.349      9.016
  Name = 
  4 active torsions:
  status: ('A' for Active; 'I' for Inactive)
    1  A    between atoms: C_3  and  N_13
    2  A    between atoms: C_3  and  C_17
    3  A    between atoms: C_12  and  C_28
    4  A    between atoms: C_17  and  N_29
                            x       y       z     vdW  Elec       q    Type
                         _______ _______ _______ _____ _____    ______ ____

>  <TORSDO>
F 4

$$$$
=
 OpenBabel10262423543D

 34 39  0  0  1  0  0  0  0  0999 V2000
  187.4800  173.2190  135.7350 C   0  0  1  0  0  3  0  0  0  0  0  0
  189.7760  174.1960  135.6220 C   0  0  1  0  0  3  0  0  0  0  0  0
  187.7470  175.5820  136.3890 C   0  0  1  0  0  3  0  0  0  0  0  0
  188.0240  178.1190  136.7630 C   0  0  2  0  0  3  0  0  0  0  0  0
  189.3640  171.8110  134.9370 C   0  0  0  0  0  2  0  0  0  0  0  0
  190.3530  172.7820  135.5730 C   0  0  0  0  0  2  0  0  0  0  0  0
  189.1630  176.6600  138.2670 C   0  0  0  0  0  2  0  0  0  0  0  0
  188.4450  174.2100  136.4010 C   0  0  1  0  0  3  0  0  0  0  0  0
  188.9810  178.9150  137.6290 C   0  0  0  0  0  2  0  0  0  0  0  0
  188.0570  171.8110  135.7180 C   0  0  0  0  0  2  0  0  0  0  0  0
  186.4270  175.5380  137.1650 C   0  0  1  0  0  3  0  0  0  0  0  0
  186.1740  173.2160  136.3600 N   0  0  0  0  0  0  0  0  0  0  0  0
  190.7120  175.0170  136.2220 F   0  0  0  0  0  0  0  0  0  0  0  0
  186.3690  178.2580  137.5490 S   0  0  0  0  0  0  0  0  0  0  0  0
  185.6050  176.7800  136.8040 C   0  0  2  0  0  3  0  0  0  0  0  0
  189.5720  178.0140  138.6270 N   0  0  0  0  0  0  0  0  0  0  0  0
  188.6340  176.7410  136.8550 C   0  0  1  0  0  3  0  0  0  0  0  0
  185.6670  174.2440  136.9500 C   0  0  0  0  0  3  0  0  0  0  0  0
  182.5310  176.8260  139.0240 C   0  0  0  0  0  0  0  0  0  0  0  0
  181.5100  176.5570  138.1090 C   0  0  0  0  0  3  0  0  0  0  0  0
  184.1710  176.6990  137.2420 C   0  0  0  0  0  0  0  0  0  0  0  0
  181.8160  176.3570  136.7590 C   0  0  0  0  0  3  0  0  0  0  0  0
  183.8580  176.8970  138.5920 C   0  0  0  0  0  3  0  0  0  0  0  0
  183.1420  176.4280  136.3260 C   0  0  0  0  0  3  0  0  0  0  0  0
  182.2340  177.0190  140.3320 F   0  0  0  0  0  0  0  0  0  0  0  0
  188.9590  178.3110  139.9120 C   0  0  0  0  0  2  0  0  0  0  0  0
  189.3380  177.2450  140.9270 C   0  0  0  0  0  2  0  0  0  0  0  0
  187.2810  177.6480  143.1670 C   0  0  0  0  0  1  0  0  0  0  0  0
  189.5340  177.8570  142.2310 N   0  0  0  0  0  0  0  0  0  0  0  0
  188.7030  177.1120  143.1950 C   0  0  1  0  0  3  0  0  0  0  0  0
  190.1110  178.4130  144.8450 C   0  0  0  0  0  2  0  0  0  0  0  0
  191.2900  178.4060  143.8690 C   0  0  0  0  0  2  0  0  0  0  0  0
  190.9520  177.6920  142.5570 C   0  0  0  0  0  2  0  0  0  0  0  0
  189.2300  177.1830  144.6400 C   0  0  0  0  0  2  0  0  0  0  0  0
  1 10  1  1  0  0  0
  1 12  1  0  0  0  0
  1  8  1  0  0  0  0
  2 13  1  1  0  0  0
  2  8  1  0  0  0  0
  3  8  1  0  0  0  0
  3 17  1  0  0  0  0
  3 11  1  0  0  0  0
  4 17  1  0  0  0  0
  4 14  1  0  0  0  0
  4  9  1  0  0  0  0
  5  6  1  0  0  0  0
  5 10  1  0  0  0  0
  6  2  1  0  0  0  0
  7 16  1  0  0  0  0
  9 16  1  0  0  0  0
 12 18  2  0  0  0  0
 15 11  1  0  0  0  0
 15 21  1  0  0  0  0
 15 14  1  0  0  0  0
 16 26  1  0  0  0  0
 17  7  1  0  0  0  0
 18 11  1  0  0  0  0
 19 25  1  0  0  0  0
 20 19  2  0  0  0  0
 21 23  2  0  0  0  0
 22 20  1  0  0  0  0
 23 19  1  0  0  0  0
 24 22  2  0  0  0  0
 24 21  1  0  0  0  0
 26 27  1  0  0  0  0
 27 29  1  0  0  0  0
 28 30  1  0  0  0  0
 29 33  1  0  0  0  0
 29 30  1  0  0  0  0
 30 34  1  0  0  0  0
 32 31  1  0  0  0  0
 33 32  1  0  0  0  0
 34 31  1  0  0  0  0
M  END
>  <MODEL>
9

>  <REMARK>
 VINA RESULT:      -6.9      2.723      3.809
  Name = 
  4 active torsions:
  status: ('A' for Active; 'I' for Inactive)
    1  A    between atoms: C_3  and  N_13
    2  A    between atoms: C_3  and  C_17
    3  A    between atoms: C_12  and  C_28
    4  A    between atoms: C_17  and  N_29
                            x       y       z     vdW  Elec       q    Type
                         _______ _______ _______ _____ _____    ______ ____

>  <TORSDO>
F 4

$$$$
