=
 OpenBabel10272400553D

 25 28  0  0  1  0  0  0  0  0999 V2000
  186.2760  178.0970  145.0410 C   0  0  0  0  0  0  0  0  0  0  0  0
  186.1370  177.8310  143.7420 C   0  0  0  0  0  0  0  0  0  0  0  0
  184.1400  179.0530  145.2840 N   0  0  0  0  0  0  0  0  0  0  0  0
  187.3220  177.9040  145.9170 C   0  0  0  0  0  0  0  0  0  0  0  0
  189.0130  177.8360  148.1100 C   0  0  0  0  0  3  0  0  0  0  0  0
  183.7650  178.7330  143.8980 C   0  0  0  0  0  2  0  0  0  0  0  0
  186.9070  178.4270  147.1250 C   0  0  0  0  0  0  0  0  0  0  0  0
  187.7340  178.4070  148.2470 C   0  0  0  0  0  3  0  0  0  0  0  0
  189.4360  177.3070  146.8720 C   0  0  0  0  0  3  0  0  0  0  0  0
  185.2930  178.7180  145.7790 C   0  0  0  0  0  0  0  0  0  0  0  0
  185.6580  178.9380  147.0620 N   0  0  0  0  0  2  0  0  0  0  0  0
  188.5860  177.3390  145.7530 C   0  0  0  0  0  3  0  0  0  0  0  0
  184.9040  178.2370  143.1050 N   0  0  0  0  0  0  0  0  0  0  0  0
  184.6910  178.0420  141.6770 C   0  0  0  0  0  2  0  0  0  0  0  0
  184.7470  179.7540  140.0280 O   0  0  0  0  0  1  0  0  0  0  0  0
  183.9890  179.2480  141.0820 C   0  0  0  0  0  2  0  0  0  0  0  0
  187.2220  177.1420  142.9660 C   0  0  0  0  0  2  0  0  0  0  0  0
  188.9070  177.6200  139.9930 C   0  0  0  0  0  0  0  0  0  0  0  0
  187.9570  178.1060  142.1610 N   0  0  0  0  0  0  0  0  0  0  0  0
  188.7110  176.5270  138.9620 C   0  0  0  0  0  1  0  0  0  0  0  0
  189.3170  178.9150  139.3030 C   0  0  0  0  0  1  0  0  0  0  0  0
  189.3770  177.8080  142.3330 C   0  0  0  0  0  2  0  0  0  0  0  0
  191.1960  177.5810  140.7940 O   0  0  0  0  0  1  0  0  0  0  0  0
  187.6250  177.8490  140.7580 C   0  0  0  0  0  2  0  0  0  0  0  0
  189.8850  177.1750  141.0570 C   0  0  2  0  0  3  0  0  0  0  0  0
  1 10  1  0  0  0  0
  1  4  1  0  0  0  0
  2  1  2  0  0  0  0
  3 10  2  0  0  0  0
  4  7  1  0  0  0  0
  5  8  1  0  0  0  0
  6  3  1  0  0  0  0
  7  8  2  0  0  0  0
  9  5  2  0  0  0  0
 10 11  1  0  0  0  0
 11  7  1  0  0  0  0
 12  4  2  0  0  0  0
 12  9  1  0  0  0  0
 13  2  1  0  0  0  0
 13  6  1  0  0  0  0
 14 13  1  0  0  0  0
 15 16  1  0  0  0  0
 16 14  1  0  0  0  0
 17  2  1  0  0  0  0
 18 24  1  0  0  0  0
 18 25  1  0  0  0  0
 19 22  1  0  0  0  0
 19 17  1  0  0  0  0
 20 18  1  0  0  0  0
 21 18  1  0  0  0  0
 24 19  1  0  0  0  0
 25 23  1  6  0  0  0
 25 22  1  0  0  0  0
M  END
>  <MODEL>
1

>  <REMARK>
 VINA RESULT:      -8.5      0.000      0.000
  Name = 
  4 active torsions:
  status: ('A' for Active; 'I' for Inactive)
    1  A    between atoms: C_3  and  C_16
    2  A    between atoms: N_6  and  C_16
    3  A    between atoms: C_13  and  C_20
    4  A    between atoms: C_13  and  N_24
                            x       y       z     vdW  Elec       q    Type
                         _______ _______ _______ _____ _____    ______ ____

>  <TORSDO>
F 4

$$$$
=
 OpenBabel10272400553D

 25 28  0  0  1  0  0  0  0  0999 V2000
  186.7210  177.9150  144.7430 C   0  0  0  0  0  0  0  0  0  0  0  0
  187.8400  177.3070  144.3470 C   0  0  0  0  0  0  0  0  0  0  0  0
  187.4720  178.3190  146.9350 N   0  0  0  0  0  0  0  0  0  0  0  0
  185.5350  178.1810  144.0940 C   0  0  0  0  0  0  0  0  0  0  0  0
  182.9670  178.9520  143.3970 C   0  0  0  0  0  3  0  0  0  0  0  0
  188.8130  177.7850  146.6470 C   0  0  0  0  0  2  0  0  0  0  0  0
  184.7200  178.7890  145.0260 C   0  0  0  0  0  0  0  0  0  0  0  0
  183.4240  179.1890  144.7070 C   0  0  0  0  0  3  0  0  0  0  0  0
  183.8020  178.3250  142.4470 C   0  0  0  0  0  3  0  0  0  0  0  0
  186.5490  178.3870  146.0250 C   0  0  0  0  0  0  0  0  0  0  0  0
  185.3240  178.9230  146.2270 N   0  0  0  0  0  2  0  0  0  0  0  0
  185.1050  177.9280  142.7920 C   0  0  0  0  0  3  0  0  0  0  0  0
  188.8880  177.1330  145.3270 N   0  0  0  0  0  0  0  0  0  0  0  0
  190.1190  176.4260  145.0000 C   0  0  0  0  0  2  0  0  0  0  0  0
  192.0570  176.5810  146.3700 O   0  0  0  0  0  1  0  0  0  0  0  0
  191.3240  177.2580  145.3960 C   0  0  0  0  0  2  0  0  0  0  0  0
  188.0030  176.8130  142.9380 C   0  0  0  0  0  2  0  0  0  0  0  0
  188.9510  177.6390  139.7240 C   0  0  0  0  0  0  0  0  0  0  0  0
  188.5790  177.8560  142.1020 N   0  0  0  0  0  0  0  0  0  0  0  0
  188.4490  176.7000  138.6460 C   0  0  0  0  0  1  0  0  0  0  0  0
  189.2600  179.0040  139.1200 C   0  0  0  0  0  1  0  0  0  0  0  0
  189.9790  177.4990  141.8820 C   0  0  0  0  0  2  0  0  0  0  0  0
  191.3580  177.4300  139.9280 O   0  0  0  0  0  1  0  0  0  0  0  0
  187.9060  177.7990  140.8030 C   0  0  0  0  0  2  0  0  0  0  0  0
  190.1270  177.0280  140.4530 C   0  0  2  0  0  3  0  0  0  0  0  0
  1 10  1  0  0  0  0
  2  1  2  0  0  0  0
  2 13  1  0  0  0  0
  4  1  1  0  0  0  0
  4  7  1  0  0  0  0
  5  8  1  0  0  0  0
  6  3  1  0  0  0  0
  7 11  1  0  0  0  0
  8  7  2  0  0  0  0
  9 12  1  0  0  0  0
  9  5  2  0  0  0  0
 10 11  1  0  0  0  0
 10  3  2  0  0  0  0
 12  4  2  0  0  0  0
 13  6  1  0  0  0  0
 14 13  1  0  0  0  0
 14 16  1  0  0  0  0
 16 15  1  0  0  0  0
 17  2  1  0  0  0  0
 18 25  1  0  0  0  0
 18 24  1  0  0  0  0
 19 17  1  0  0  0  0
 20 18  1  0  0  0  0
 21 18  1  0  0  0  0
 22 19  1  0  0  0  0
 24 19  1  0  0  0  0
 25 23  1  6  0  0  0
 25 22  1  0  0  0  0
M  END
>  <MODEL>
2

>  <REMARK>
 VINA RESULT:      -8.5      1.825      4.403
  Name = 
  4 active torsions:
  status: ('A' for Active; 'I' for Inactive)
    1  A    between atoms: C_3  and  C_16
    2  A    between atoms: N_6  and  C_16
    3  A    between atoms: C_13  and  C_20
    4  A    between atoms: C_13  and  N_24
                            x       y       z     vdW  Elec       q    Type
                         _______ _______ _______ _____ _____    ______ ____

>  <TORSDO>
F 4

$$$$
=
 OpenBabel10272400553D

 25 28  0  0  1  0  0  0  0  0999 V2000
  186.4240  178.1720  145.1400 C   0  0  0  0  0  0  0  0  0  0  0  0
  186.4430  177.7760  143.8660 C   0  0  0  0  0  0  0  0  0  0  0  0
  184.6090  179.6440  144.8700 N   0  0  0  0  0  0  0  0  0  0  0  0
  187.2160  177.8480  146.2200 C   0  0  0  0  0  0  0  0  0  0  0  0
  188.4290  177.6630  148.7030 C   0  0  0  0  0  3  0  0  0  0  0  0
  184.4040  179.2430  143.4690 C   0  0  0  0  0  2  0  0  0  0  0  0
  186.7550  178.6130  147.2720 C   0  0  0  0  0  0  0  0  0  0  0  0
  187.3440  178.5420  148.5330 C   0  0  0  0  0  3  0  0  0  0  0  0
  188.9010  176.8860  147.6230 C   0  0  0  0  0  3  0  0  0  0  0  0
  185.5300  179.1080  145.6110 C   0  0  0  0  0  0  0  0  0  0  0  0
  185.7160  179.4010  146.9180 N   0  0  0  0  0  2  0  0  0  0  0  0
  188.2940  176.9750  146.3590 C   0  0  0  0  0  3  0  0  0  0  0  0
  185.4880  178.3830  142.9650 N   0  0  0  0  0  0  0  0  0  0  0  0
  185.4780  178.0560  141.5450 C   0  0  0  0  0  2  0  0  0  0  0  0
  184.9650  179.6290  139.8360 O   0  0  0  0  0  1  0  0  0  0  0  0
  184.3920  178.8420  140.8340 C   0  0  0  0  0  2  0  0  0  0  0  0
  187.4220  176.7460  143.3840 C   0  0  0  0  0  2  0  0  0  0  0  0
  190.8200  177.0560  142.8640 C   0  0  0  0  0  0  0  0  0  0  0  0
  188.4440  177.3690  142.5550 N   0  0  0  0  0  0  0  0  0  0  0  0
  191.6760  176.0530  143.6100 C   0  0  0  0  0  1  0  0  0  0  0  0
  191.5750  177.5830  141.6500 C   0  0  0  0  0  1  0  0  0  0  0  0
  188.9670  178.5060  143.3090 C   0  0  0  0  0  2  0  0  0  0  0  0
  191.1850  179.2730  143.7770 O   0  0  0  0  0  1  0  0  0  0  0  0
  189.5360  176.4050  142.4060 C   0  0  0  0  0  2  0  0  0  0  0  0
  190.3530  178.1500  143.7980 C   0  0  2  0  0  3  0  0  0  0  0  0
  1 10  1  0  0  0  0
  1  4  1  0  0  0  0
  2  1  2  0  0  0  0
  3 10  2  0  0  0  0
  4 12  2  0  0  0  0
  4  7  1  0  0  0  0
  6  3  1  0  0  0  0
  7  8  2  0  0  0  0
  8  5  1  0  0  0  0
  9  5  2  0  0  0  0
 10 11  1  0  0  0  0
 11  7  1  0  0  0  0
 12  9  1  0  0  0  0
 13  6  1  0  0  0  0
 13  2  1  0  0  0  0
 14 13  1  0  0  0  0
 15 16  1  0  0  0  0
 16 14  1  0  0  0  0
 17  2  1  0  0  0  0
 18 20  1  0  0  0  0
 18 25  1  0  0  0  0
 19 22  1  0  0  0  0
 19 17  1  0  0  0  0
 21 18  1  0  0  0  0
 22 25  1  0  0  0  0
 24 19  1  0  0  0  0
 24 18  1  0  0  0  0
 25 23  1  6  0  0  0
M  END
>  <MODEL>
3

>  <REMARK>
 VINA RESULT:      -8.4      1.570      1.934
  Name = 
  4 active torsions:
  status: ('A' for Active; 'I' for Inactive)
    1  A    between atoms: C_3  and  C_16
    2  A    between atoms: N_6  and  C_16
    3  A    between atoms: C_13  and  C_20
    4  A    between atoms: C_13  and  N_24
                            x       y       z     vdW  Elec       q    Type
                         _______ _______ _______ _____ _____    ______ ____

>  <TORSDO>
F 4

$$$$
=
 OpenBabel10272400553D

 25 28  0  0  1  0  0  0  0  0999 V2000
  188.0800  177.4510  145.1160 C   0  0  0  0  0  0  0  0  0  0  0  0
  187.4690  177.4010  143.9310 C   0  0  0  0  0  0  0  0  0  0  0  0
  186.2820  178.4790  146.2310 N   0  0  0  0  0  0  0  0  0  0  0  0
  189.3370  177.0610  145.5240 C   0  0  0  0  0  0  0  0  0  0  0  0
  191.6670  176.5500  146.9320 C   0  0  0  0  0  3  0  0  0  0  0  0
  185.4150  178.4040  145.0440 C   0  0  0  0  0  2  0  0  0  0  0  0
  189.4290  177.4100  146.8550 C   0  0  0  0  0  0  0  0  0  0  0  0
  190.5870  177.1650  147.5920 C   0  0  0  0  0  3  0  0  0  0  0  0
  191.5710  176.1990  145.5690 C   0  0  0  0  0  3  0  0  0  0  0  0
  187.4900  178.0040  146.2300 C   0  0  0  0  0  0  0  0  0  0  0  0
  188.3010  177.9970  147.3120 N   0  0  0  0  0  2  0  0  0  0  0  0
  190.3940  176.4560  144.8450 C   0  0  0  0  0  3  0  0  0  0  0  0
  186.1450  177.9730  143.8380 N   0  0  0  0  0  0  0  0  0  0  0  0
  185.4280  178.0180  142.5710 C   0  0  0  0  0  2  0  0  0  0  0  0
  185.1910  179.5110  140.7350 O   0  0  0  0  0  1  0  0  0  0  0  0
  185.2380  179.4570  142.1270 C   0  0  0  0  0  2  0  0  0  0  0  0
  188.1330  176.7800  142.7360 C   0  0  0  0  0  2  0  0  0  0  0  0
  189.1610  177.4840  139.5180 C   0  0  0  0  0  0  0  0  0  0  0  0
  188.6620  177.8140  141.8590 N   0  0  0  0  0  0  0  0  0  0  0  0
  188.7880  176.4410  138.4830 C   0  0  0  0  0  1  0  0  0  0  0  0
  189.3870  178.8290  138.8400 C   0  0  0  0  0  1  0  0  0  0  0  0
  190.0940  177.5630  141.7210 C   0  0  0  0  0  2  0  0  0  0  0  0
  191.5650  177.4890  139.8350 O   0  0  0  0  0  1  0  0  0  0  0  0
  188.0570  177.6210  140.5390 C   0  0  0  0  0  2  0  0  0  0  0  0
  190.3470  177.0190  140.3330 C   0  0  2  0  0  3  0  0  0  0  0  0
  1  4  1  0  0  0  0
  1 10  1  0  0  0  0
  2  1  2  0  0  0  0
  4  7  1  0  0  0  0
  5  8  1  0  0  0  0
  6  3  1  0  0  0  0
  7 11  1  0  0  0  0
  7  8  2  0  0  0  0
  9  5  2  0  0  0  0
 10  3  2  0  0  0  0
 10 11  1  0  0  0  0
 12  4  2  0  0  0  0
 12  9  1  0  0  0  0
 13  2  1  0  0  0  0
 13  6  1  0  0  0  0
 14 13  1  0  0  0  0
 15 16  1  0  0  0  0
 16 14  1  0  0  0  0
 17  2  1  0  0  0  0
 18 25  1  0  0  0  0
 18 24  1  0  0  0  0
 19 17  1  0  0  0  0
 20 18  1  0  0  0  0
 21 18  1  0  0  0  0
 22 19  1  0  0  0  0
 24 19  1  0  0  0  0
 25 23  1  6  0  0  0
 25 22  1  0  0  0  0
M  END
>  <MODEL>
4

>  <REMARK>
 VINA RESULT:      -8.3      1.330      1.860
  Name = 
  4 active torsions:
  status: ('A' for Active; 'I' for Inactive)
    1  A    between atoms: C_3  and  C_16
    2  A    between atoms: N_6  and  C_16
    3  A    between atoms: C_13  and  C_20
    4  A    between atoms: C_13  and  N_24
                            x       y       z     vdW  Elec       q    Type
                         _______ _______ _______ _____ _____    ______ ____

>  <TORSDO>
F 4

$$$$
=
 OpenBabel10272400553D

 25 28  0  0  1  0  0  0  0  0999 V2000
  186.9000  178.0750  142.8140 C   0  0  0  0  0  0  0  0  0  0  0  0
  186.7620  178.4070  141.5300 C   0  0  0  0  0  0  0  0  0  0  0  0
  188.9700  176.9950  142.5250 N   0  0  0  0  0  0  0  0  0  0  0  0
  186.0910  178.2740  143.9120 C   0  0  0  0  0  0  0  0  0  0  0  0
  184.9410  178.3060  146.4320 C   0  0  0  0  0  3  0  0  0  0  0  0
  189.0460  177.3730  141.1050 C   0  0  0  0  0  2  0  0  0  0  0  0
  186.7310  177.6610  144.9700 C   0  0  0  0  0  0  0  0  0  0  0  0
  186.1790  177.6610  146.2500 C   0  0  0  0  0  3  0  0  0  0  0  0
  184.2870  178.9260  145.3460 C   0  0  0  0  0  3  0  0  0  0  0  0
  187.9810  177.3610  143.2820 C   0  0  0  0  0  0  0  0  0  0  0  0
  187.8980  177.0880  144.6040 N   0  0  0  0  0  2  0  0  0  0  0  0
  184.8620  178.9130  144.0630 C   0  0  0  0  0  3  0  0  0  0  0  0
  187.7920  177.9730  140.6130 N   0  0  0  0  0  0  0  0  0  0  0  0
  187.6930  178.2370  139.1840 C   0  0  0  0  0  2  0  0  0  0  0  0
  188.9560  179.6130  137.7120 O   0  0  0  0  0  1  0  0  0  0  0  0
  189.0620  178.5540  138.6120 C   0  0  0  0  0  2  0  0  0  0  0  0
  185.5780  179.1960  141.0510 C   0  0  0  0  0  2  0  0  0  0  0  0
  182.7890  179.1920  139.0180 C   0  0  0  0  0  0  0  0  0  0  0  0
  184.7450  178.3790  140.1800 N   0  0  0  0  0  0  0  0  0  0  0  0
  182.2450  180.5630  138.6730 C   0  0  0  0  0  1  0  0  0  0  0  0
  182.3540  178.1810  137.9640 C   0  0  0  0  0  1  0  0  0  0  0  0
  183.5610  178.0080  140.9510 C   0  0  0  0  0  2  0  0  0  0  0  0
  181.2190  178.0330  140.4590 O   0  0  0  0  0  1  0  0  0  0  0  0
  184.2980  179.2300  139.0760 C   0  0  0  0  0  2  0  0  0  0  0  0
  182.3870  178.8010  140.4230 C   0  0  2  0  0  3  0  0  0  0  0  0
  1 10  1  0  0  0  0
  1  4  1  0  0  0  0
  2  1  2  0  0  0  0
  3 10  2  0  0  0  0
  4 12  2  0  0  0  0
  4  7  1  0  0  0  0
  6  3  1  0  0  0  0
  7  8  2  0  0  0  0
  8  5  1  0  0  0  0
  9  5  2  0  0  0  0
 10 11  1  0  0  0  0
 11  7  1  0  0  0  0
 12  9  1  0  0  0  0
 13  6  1  0  0  0  0
 13  2  1  0  0  0  0
 14 13  1  0  0  0  0
 15 16  1  0  0  0  0
 16 14  1  0  0  0  0
 17  2  1  0  0  0  0
 18 24  1  0  0  0  0
 18 25  1  0  0  0  0
 19 22  1  0  0  0  0
 19 17  1  0  0  0  0
 20 18  1  0  0  0  0
 21 18  1  0  0  0  0
 24 19  1  0  0  0  0
 25 23  1  6  0  0  0
 25 22  1  0  0  0  0
M  END
>  <MODEL>
5

>  <REMARK>
 VINA RESULT:      -8.2      2.299      5.186
  Name = 
  4 active torsions:
  status: ('A' for Active; 'I' for Inactive)
    1  A    between atoms: C_3  and  C_16
    2  A    between atoms: N_6  and  C_16
    3  A    between atoms: C_13  and  C_20
    4  A    between atoms: C_13  and  N_24
                            x       y       z     vdW  Elec       q    Type
                         _______ _______ _______ _____ _____    ______ ____

>  <TORSDO>
F 4

$$$$
=
 OpenBabel10272400553D

 25 28  0  0  1  0  0  0  0  0999 V2000
  188.1570  177.7730  144.0080 C   0  0  0  0  0  0  0  0  0  0  0  0
  187.9450  178.1460  142.7450 C   0  0  0  0  0  0  0  0  0  0  0  0
  185.8830  177.7860  144.6100 N   0  0  0  0  0  0  0  0  0  0  0  0
  189.3120  177.5070  144.7110 C   0  0  0  0  0  0  0  0  0  0  0  0
  191.2030  176.9000  146.6420 C   0  0  0  0  0  3  0  0  0  0  0  0
  185.4510  178.0850  143.2360 C   0  0  0  0  0  2  0  0  0  0  0  0
  188.9140  177.2200  146.0000 C   0  0  0  0  0  0  0  0  0  0  0  0
  189.8400  176.9100  146.9940 C   0  0  0  0  0  3  0  0  0  0  0  0
  191.6070  177.1990  145.3230 C   0  0  0  0  0  3  0  0  0  0  0  0
  187.1340  177.6230  144.9170 C   0  0  0  0  0  0  0  0  0  0  0  0
  187.5730  177.2890  146.1520 N   0  0  0  0  0  2  0  0  0  0  0  0
  190.6550  177.5110  144.3370 C   0  0  0  0  0  3  0  0  0  0  0  0
  186.5810  178.4130  142.3480 N   0  0  0  0  0  0  0  0  0  0  0  0
  186.2630  178.8840  141.0070 C   0  0  0  0  0  2  0  0  0  0  0  0
  184.5170  179.8970  139.7480 O   0  0  0  0  0  1  0  0  0  0  0  0
  184.7680  179.1080  140.8700 C   0  0  0  0  0  2  0  0  0  0  0  0
  189.0800  178.2910  141.7730 C   0  0  0  0  0  2  0  0  0  0  0  0
  190.7670  176.7350  139.1950 C   0  0  0  0  0  0  0  0  0  0  0  0
  188.9800  177.2850  140.7260 N   0  0  0  0  0  0  0  0  0  0  0  0
  192.2620  176.9790  139.1680 C   0  0  0  0  0  1  0  0  0  0  0  0
  190.4390  175.4430  138.4570 C   0  0  0  0  0  1  0  0  0  0  0  0
  188.7530  177.9990  139.4720 C   0  0  0  0  0  2  0  0  0  0  0  0
  189.7300  177.8260  137.2940 O   0  0  0  0  0  1  0  0  0  0  0  0
  190.2840  176.6270  140.6220 C   0  0  0  0  0  2  0  0  0  0  0  0
  190.0240  177.9360  138.6560 C   0  0  2  0  0  3  0  0  0  0  0  0
  1  4  1  0  0  0  0
  1 10  1  0  0  0  0
  2  1  2  0  0  0  0
  3 10  2  0  0  0  0
  4  7  1  0  0  0  0
  5  8  1  0  0  0  0
  6  3  1  0  0  0  0
  7 11  1  0  0  0  0
  7  8  2  0  0  0  0
  9  5  2  0  0  0  0
 10 11  1  0  0  0  0
 12  4  2  0  0  0  0
 12  9  1  0  0  0  0
 13  2  1  0  0  0  0
 13  6  1  0  0  0  0
 14 13  1  0  0  0  0
 15 16  1  0  0  0  0
 16 14  1  0  0  0  0
 17  2  1  0  0  0  0
 18 24  1  0  0  0  0
 19 17  1  0  0  0  0
 20 18  1  0  0  0  0
 21 18  1  0  0  0  0
 22 19  1  0  0  0  0
 24 19  1  0  0  0  0
 25 23  1  6  0  0  0
 25 18  1  0  0  0  0
 25 22  1  0  0  0  0
M  END
>  <MODEL>
6

>  <REMARK>
 VINA RESULT:      -7.9      1.793      2.529
  Name = 
  4 active torsions:
  status: ('A' for Active; 'I' for Inactive)
    1  A    between atoms: C_3  and  C_16
    2  A    between atoms: N_6  and  C_16
    3  A    between atoms: C_13  and  C_20
    4  A    between atoms: C_13  and  N_24
                            x       y       z     vdW  Elec       q    Type
                         _______ _______ _______ _____ _____    ______ ____

>  <TORSDO>
F 4

$$$$
=
 OpenBabel10272400553D

 25 28  0  0  1  0  0  0  0  0999 V2000
  185.5090  178.2170  144.8450 C   0  0  0  0  0  0  0  0  0  0  0  0
  186.7260  177.6970  145.0150 C   0  0  0  0  0  0  0  0  0  0  0  0
  185.2250  178.8180  147.1020 N   0  0  0  0  0  0  0  0  0  0  0  0
  184.7000  178.3300  143.7360 C   0  0  0  0  0  0  0  0  0  0  0  0
  182.6330  178.8090  141.9550 C   0  0  0  0  0  3  0  0  0  0  0  0
  186.5910  178.3990  147.4560 C   0  0  0  0  0  2  0  0  0  0  0  0
  183.5280  178.9100  144.1780 C   0  0  0  0  0  0  0  0  0  0  0  0
  182.4710  179.1640  143.3070 C   0  0  0  0  0  3  0  0  0  0  0  0
  183.8300  178.2110  141.5070 C   0  0  0  0  0  3  0  0  0  0  0  0
  184.7770  178.7440  145.8860 C   0  0  0  0  0  0  0  0  0  0  0  0
  183.5520  179.1710  145.5030 N   0  0  0  0  0  2  0  0  0  0  0  0
  184.8840  177.9610  142.4040 C   0  0  0  0  0  3  0  0  0  0  0  0
  187.2630  177.6830  146.3580 N   0  0  0  0  0  0  0  0  0  0  0  0
  188.5570  177.0790  146.6460 C   0  0  0  0  0  2  0  0  0  0  0  0
  190.5430  177.3400  147.9290 O   0  0  0  0  0  1  0  0  0  0  0  0
  189.2460  177.8270  147.7710 C   0  0  0  0  0  2  0  0  0  0  0  0
  187.5050  177.1410  143.8590 C   0  0  0  0  0  2  0  0  0  0  0  0
  190.4740  177.3020  142.1060 C   0  0  0  0  0  0  0  0  0  0  0  0
  188.8700  177.6450  143.8810 N   0  0  0  0  0  0  0  0  0  0  0  0
  190.3840  176.8790  140.6540 C   0  0  0  0  0  1  0  0  0  0  0  0
  191.6740  178.2190  142.3070 C   0  0  0  0  0  1  0  0  0  0  0  0
  189.7310  176.5230  144.2450 C   0  0  0  0  0  2  0  0  0  0  0  0
  191.7840  175.6820  143.3460 O   0  0  0  0  0  1  0  0  0  0  0  0
  189.2160  178.0350  142.5130 C   0  0  0  0  0  2  0  0  0  0  0  0
  190.4900  176.0900  143.0110 C   0  0  2  0  0  3  0  0  0  0  0  0
  1  2  2  0  0  0  0
  1 10  1  0  0  0  0
  2 13  1  0  0  0  0
  3  6  1  0  0  0  0
  4  7  1  0  0  0  0
  4  1  1  0  0  0  0
  5  8  1  0  0  0  0
  7 11  1  0  0  0  0
  8  7  2  0  0  0  0
  9  5  2  0  0  0  0
  9 12  1  0  0  0  0
 10  3  2  0  0  0  0
 11 10  1  0  0  0  0
 12  4  2  0  0  0  0
 13 14  1  0  0  0  0
 13  6  1  0  0  0  0
 14 16  1  0  0  0  0
 16 15  1  0  0  0  0
 17 19  1  0  0  0  0
 17  2  1  0  0  0  0
 18 21  1  0  0  0  0
 18 24  1  0  0  0  0
 18 25  1  0  0  0  0
 19 22  1  0  0  0  0
 20 18  1  0  0  0  0
 24 19  1  0  0  0  0
 25 23  1  1  0  0  0
 25 22  1  0  0  0  0
M  END
>  <MODEL>
7

>  <REMARK>
 VINA RESULT:      -7.8      2.311      4.811
  Name = 
  4 active torsions:
  status: ('A' for Active; 'I' for Inactive)
    1  A    between atoms: C_3  and  C_16
    2  A    between atoms: N_6  and  C_16
    3  A    between atoms: C_13  and  C_20
    4  A    between atoms: C_13  and  N_24
                            x       y       z     vdW  Elec       q    Type
                         _______ _______ _______ _____ _____    ______ ____

>  <TORSDO>
F 4

$$$$
=
 OpenBabel10272400553D

 25 28  0  0  1  0  0  0  0  0999 V2000
  187.4160  178.0380  142.1800 C   0  0  0  0  0  0  0  0  0  0  0  0
  186.6980  177.8870  143.2940 C   0  0  0  0  0  0  0  0  0  0  0  0
  185.8080  179.3520  141.0760 N   0  0  0  0  0  0  0  0  0  0  0  0
  188.6540  177.5590  141.8070 C   0  0  0  0  0  0  0  0  0  0  0  0
  190.9880  176.8990  140.4700 C   0  0  0  0  0  3  0  0  0  0  0  0
  184.9310  179.3930  142.2560 C   0  0  0  0  0  2  0  0  0  0  0  0
  188.8570  177.9980  140.5150 C   0  0  0  0  0  0  0  0  0  0  0  0
  190.0210  177.6840  139.8160 C   0  0  0  0  0  3  0  0  0  0  0  0
  190.7750  176.4470  141.7900 C   0  0  0  0  0  3  0  0  0  0  0  0
  186.9540  178.7420  141.0910 C   0  0  0  0  0  0  0  0  0  0  0  0
  187.8190  178.7280  140.0510 N   0  0  0  0  0  2  0  0  0  0  0  0
  189.5920  176.7740  142.4760 C   0  0  0  0  0  3  0  0  0  0  0  0
  185.3810  178.4820  143.3250 N   0  0  0  0  0  0  0  0  0  0  0  0
  184.5030  178.3160  144.4750 C   0  0  0  0  0  2  0  0  0  0  0  0
  182.1790  178.7850  144.2910 O   0  0  0  0  0  1  0  0  0  0  0  0
  183.4250  179.3830  144.4710 C   0  0  0  0  0  2  0  0  0  0  0  0
  187.2340  177.1230  144.4700 C   0  0  0  0  0  2  0  0  0  0  0  0
  189.3380  177.5050  147.1790 C   0  0  0  0  0  0  0  0  0  0  0  0
  187.6750  178.0410  145.5100 N   0  0  0  0  0  0  0  0  0  0  0  0
  190.3980  176.4310  147.3240 C   0  0  0  0  0  1  0  0  0  0  0  0
  189.7840  178.7740  147.8940 C   0  0  0  0  0  1  0  0  0  0  0  0
  186.9890  177.6510  146.7400 C   0  0  0  0  0  2  0  0  0  0  0  0
  187.7350  177.3130  148.9880 O   0  0  0  0  0  1  0  0  0  0  0  0
  189.1060  177.8130  145.7190 C   0  0  0  0  0  2  0  0  0  0  0  0
  187.9970  176.9920  147.6540 C   0  0  2  0  0  3  0  0  0  0  0  0
  1  2  2  0  0  0  0
  2 13  1  0  0  0  0
  2 17  1  0  0  0  0
  3 10  2  0  0  0  0
  3  6  1  0  0  0  0
  4  1  1  0  0  0  0
  4 12  1  0  0  0  0
  5  9  1  0  0  0  0
  6 13  1  0  0  0  0
  7  4  2  0  0  0  0
  8  5  2  0  0  0  0
  8  7  1  0  0  0  0
  9 12  2  0  0  0  0
 10  1  1  0  0  0  0
 11  7  1  0  0  0  0
 11 10  1  0  0  0  0
 13 14  1  0  0  0  0
 15 16  1  0  0  0  0
 16 14  1  0  0  0  0
 17 19  1  0  0  0  0
 18 20  1  0  0  0  0
 18 25  1  0  0  0  0
 18 21  1  0  0  0  0
 19 24  1  0  0  0  0
 19 22  1  0  0  0  0
 22 25  1  0  0  0  0
 24 18  1  0  0  0  0
 25 23  1  1  0  0  0
M  END
>  <MODEL>
8

>  <REMARK>
 VINA RESULT:      -7.7      2.455      5.646
  Name = 
  4 active torsions:
  status: ('A' for Active; 'I' for Inactive)
    1  A    between atoms: C_3  and  C_16
    2  A    between atoms: N_6  and  C_16
    3  A    between atoms: C_13  and  C_20
    4  A    between atoms: C_13  and  N_24
                            x       y       z     vdW  Elec       q    Type
                         _______ _______ _______ _____ _____    ______ ____

>  <TORSDO>
F 4

$$$$
=
 OpenBabel10272400553D

 25 28  0  0  1  0  0  0  0  0999 V2000
  186.7910  178.1110  142.7580 C   0  0  0  0  0  0  0  0  0  0  0  0
  187.9420  177.4510  142.9010 C   0  0  0  0  0  0  0  0  0  0  0  0
  187.2170  178.7890  140.5460 N   0  0  0  0  0  0  0  0  0  0  0  0
  185.7420  178.3360  143.6220 C   0  0  0  0  0  0  0  0  0  0  0  0
  183.3990  179.1630  144.8460 C   0  0  0  0  0  3  0  0  0  0  0  0
  188.4700  178.0200  140.4800 C   0  0  0  0  0  2  0  0  0  0  0  0
  184.8490  179.1340  142.9360 C   0  0  0  0  0  0  0  0  0  0  0  0
  183.6610  179.5650  143.5230 C   0  0  0  0  0  3  0  0  0  0  0  0
  184.3170  178.3520  145.5470 C   0  0  0  0  0  3  0  0  0  0  0  0
  186.4610  178.7820  141.6010 C   0  0  0  0  0  0  0  0  0  0  0  0
  185.2750  179.4240  141.6870 N   0  0  0  0  0  2  0  0  0  0  0  0
  185.5100  177.9300  144.9350 C   0  0  0  0  0  3  0  0  0  0  0  0
  188.8660  177.4730  141.7900 N   0  0  0  0  0  0  0  0  0  0  0  0
  190.1710  176.8320  141.8800 C   0  0  0  0  0  2  0  0  0  0  0  0
  192.1000  177.6600  140.7620 O   0  0  0  0  0  1  0  0  0  0  0  0
  190.9110  176.9600  140.5620 C   0  0  0  0  0  2  0  0  0  0  0  0
  188.2690  176.7200  144.1700 C   0  0  0  0  0  2  0  0  0  0  0  0
  190.1780  176.8750  147.0420 C   0  0  0  0  0  0  0  0  0  0  0  0
  188.9190  177.6150  145.1160 N   0  0  0  0  0  0  0  0  0  0  0  0
  190.7980  175.5610  147.4710 C   0  0  0  0  0  1  0  0  0  0  0  0
  190.9750  178.0380  147.6190 C   0  0  0  0  0  1  0  0  0  0  0  0
  188.0550  177.6910  146.2920 C   0  0  0  0  0  2  0  0  0  0  0  0
  188.4790  177.5330  148.6420 O   0  0  0  0  0  1  0  0  0  0  0  0
  190.1700  176.9790  145.5350 C   0  0  0  0  0  2  0  0  0  0  0  0
  188.7120  176.9140  147.4110 C   0  0  2  0  0  3  0  0  0  0  0  0
  1  2  2  0  0  0  0
  1  4  1  0  0  0  0
  2 17  1  0  0  0  0
  3 10  2  0  0  0  0
  4 12  1  0  0  0  0
  5  9  1  0  0  0  0
  6  3  1  0  0  0  0
  6 13  1  0  0  0  0
  7  8  1  0  0  0  0
  7  4  2  0  0  0  0
  8  5  2  0  0  0  0
 10 11  1  0  0  0  0
 10  1  1  0  0  0  0
 11  7  1  0  0  0  0
 12  9  2  0  0  0  0
 13 14  1  0  0  0  0
 13  2  1  0  0  0  0
 16 15  1  0  0  0  0
 16 14  1  0  0  0  0
 17 19  1  0  0  0  0
 18 25  1  0  0  0  0
 18 20  1  0  0  0  0
 18 21  1  0  0  0  0
 19 24  1  0  0  0  0
 19 22  1  0  0  0  0
 22 25  1  0  0  0  0
 24 18  1  0  0  0  0
 25 23  1  1  0  0  0
M  END
>  <MODEL>
9

>  <REMARK>
 VINA RESULT:      -7.7      2.259      5.703
  Name = 
  4 active torsions:
  status: ('A' for Active; 'I' for Inactive)
    1  A    between atoms: C_3  and  C_16
    2  A    between atoms: N_6  and  C_16
    3  A    between atoms: C_13  and  C_20
    4  A    between atoms: C_13  and  N_24
                            x       y       z     vdW  Elec       q    Type
                         _______ _______ _______ _____ _____    ______ ____

>  <TORSDO>
F 4

$$$$
