=
 OpenBabel10272400593D

 27 31  0  0  1  0  0  0  0  0999 V2000
  187.4130  177.7500  143.9840 C   0  0  0  0  0  3  0  0  0  0  0  0
  187.2980  178.1140  141.5170 C   0  0  0  0  0  0  0  0  0  0  0  0
  189.7140  178.1660  142.0370 C   0  0  0  0  0  3  0  0  0  0  0  0
  188.7550  177.3620  137.6830 O   0  0  0  0  0  0  0  0  0  0  0  0
  189.6040  175.3630  137.3460 O   0  0  0  0  0  1  0  0  0  0  0  0
  186.5850  178.6240  140.3670 N   0  0  0  0  0  0  0  0  0  0  0  0
  190.1070  176.4870  139.2560 C   0  0  1  0  0  3  0  0  0  0  0  0
  191.7540  178.3870  144.8630 C   0  0  0  0  0  3  0  0  0  0  0  0
  191.4490  177.0900  139.6260 C   0  0  0  0  0  1  0  0  0  0  0  0
  191.5220  177.0840  145.5110 C   0  0  0  0  0  3  0  0  0  0  0  0
  188.9860  177.2660  139.8690 C   0  0  1  0  0  3  0  0  0  0  0  0
  186.7430  178.2070  142.7460 C   0  0  0  0  0  0  0  0  0  0  0  0
  189.9050  176.6040  137.8000 N   0  0  0  0  0  0  0  0  0  0  0  0
  188.2370  177.7200  138.9040 C   0  0  0  0  0  0  0  0  0  0  0  0
  188.7250  177.7130  144.2650 C   0  0  0  0  0  0  0  0  0  0  0  0
  188.6360  177.4190  141.3260 C   0  0  0  0  0  0  0  0  0  0  0  0
  190.9790  178.9160  143.9110 C   0  0  0  0  0  3  0  0  0  0  0  0
  186.9990  178.4580  139.1460 C   0  0  0  0  0  3  0  0  0  0  0  0
  190.3220  176.5990  145.8330 C   0  0  0  0  0  3  0  0  0  0  0  0
  189.0540  177.3790  145.6850 C   0  0  0  0  0  2  0  0  0  0  0  0
  189.7740  178.2720  143.3640 C   0  0  0  0  0  0  0  0  0  0  0  0
  182.5680  179.0160  143.5130 C   0  0  0  0  0  3  0  0  0  0  0  0
  185.3560  178.7540  142.9540 C   0  0  1  0  0  3  0  0  0  0  0  0
  184.3450  178.1400  141.9810 C   0  0  0  0  0  2  0  0  0  0  0  0
  182.9220  178.5040  142.3220 C   0  0  0  0  0  3  0  0  0  0  0  0
  183.5750  179.3680  144.5770 C   0  0  0  0  0  2  0  0  0  0  0  0
  184.8850  178.6080  144.3990 C   0  0  0  0  0  2  0  0  0  0  0  0
  1 15  1  0  0  0  0
  2 12  1  0  0  0  0
  3 21  1  0  0  0  0
  4 13  1  0  0  0  0
  4 14  1  0  0  0  0
  5 13  1  0  0  0  0
  6  2  2  0  0  0  0
  7  9  1  6  0  0  0
  7 11  1  0  0  0  0
  8 10  1  0  0  0  0
 10 19  2  0  0  0  0
 11 14  1  6  0  0  0
 11 16  1  0  0  0  0
 12  1  2  0  0  0  0
 13  7  1  0  0  0  0
 14 18  2  0  0  0  0
 15 20  1  0  0  0  0
 16  2  1  0  0  0  0
 16  3  2  0  0  0  0
 17  8  2  0  0  0  0
 18  6  1  0  0  0  0
 20 19  1  0  0  0  0
 21 17  1  0  0  0  0
 21 15  2  0  0  0  0
 22 26  1  0  0  0  0
 23 12  1  1  0  0  0
 23 27  1  0  0  0  0
 24 25  1  0  0  0  0
 24 23  1  0  0  0  0
 25 22  2  0  0  0  0
 27 26  1  0  0  0  0
M  END
>  <MODEL>
1

>  <REMARK>
 VINA RESULT:     -10.3      0.000      0.000
  Name = 
  1 active torsions:
  status: ('A' for Active; 'I' for Inactive)
    1  A    between atoms: C_9  and  C_15
                            x       y       z     vdW  Elec       q    Type
                         _______ _______ _______ _____ _____    ______ ____

>  <TORSDO>
F 1

$$$$
=
 OpenBabel10272400593D

 27 31  0  0  1  0  0  0  0  0999 V2000
  188.1170  176.9210  143.5800 C   0  0  0  0  0  3  0  0  0  0  0  0
  185.9280  178.0140  144.0750 C   0  0  0  0  0  0  0  0  0  0  0  0
  186.4690  178.7280  141.7710 C   0  0  0  0  0  3  0  0  0  0  0  0
  182.0930  179.1260  142.8720 O   0  0  0  0  0  0  0  0  0  0  0  0
  181.0970  177.7770  141.4510 O   0  0  0  0  0  1  0  0  0  0  0  0
  185.0150  178.5930  145.0360 N   0  0  0  0  0  0  0  0  0  0  0  0
  183.2850  178.3090  141.1460 C   0  0  1  0  0  3  0  0  0  0  0  0
  189.2270  178.7000  139.6280 C   0  0  0  0  0  3  0  0  0  0  0  0
  183.8610  179.1830  140.0470 C   0  0  0  0  0  1  0  0  0  0  0  0
  189.3790  177.2610  139.3450 C   0  0  0  0  0  3  0  0  0  0  0  0
  184.1130  178.4000  142.3890 C   0  0  0  0  0  0  0  0  0  0  0  0
  187.1050  177.4970  144.4940 C   0  0  0  0  0  0  0  0  0  0  0  0
  181.9570  178.8210  141.5300 N   0  0  0  0  0  0  0  0  0  0  0  0
  183.3540  178.8560  143.3450 C   0  0  0  0  0  0  0  0  0  0  0  0
  188.3870  177.2520  142.3090 C   0  0  0  0  0  0  0  0  0  0  0  0
  185.5280  177.9320  142.6110 C   0  0  2  0  0  3  0  0  0  0  0  0
  188.5060  179.2080  140.6320 C   0  0  0  0  0  3  0  0  0  0  0  0
  183.8190  178.9940  144.7240 C   0  0  0  0  0  3  0  0  0  0  0  0
  189.4960  176.3130  140.2740 C   0  0  0  0  0  3  0  0  0  0  0  0
  189.6080  176.6050  141.7370 C   0  0  0  0  0  2  0  0  0  0  0  0
  187.7510  178.4040  141.6070 C   0  0  0  0  0  0  0  0  0  0  0  0
  188.6220  177.9230  148.5170 C   0  0  0  0  0  3  0  0  0  0  0  0
  187.4680  177.4260  145.9530 C   0  0  1  0  0  3  0  0  0  0  0  0
  188.9610  177.1500  146.1590 C   0  0  0  0  0  2  0  0  0  0  0  0
  189.3800  177.3010  147.5990 C   0  0  0  0  0  3  0  0  0  0  0  0
  187.2380  178.4350  148.2140 C   0  0  0  0  0  2  0  0  0  0  0  0
  187.0290  178.6700  146.7210 C   0  0  0  0  0  2  0  0  0  0  0  0
  1 12  1  0  0  0  0
  2 12  2  0  0  0  0
  2  6  1  0  0  0  0
  4 14  1  0  0  0  0
  5 13  1  0  0  0  0
  7  9  1  6  0  0  0
  7 13  1  0  0  0  0
  7 11  1  0  0  0  0
  8 17  2  0  0  0  0
 10  8  1  0  0  0  0
 10 19  2  0  0  0  0
 11 16  1  0  0  0  0
 11 14  2  0  0  0  0
 13  4  1  0  0  0  0
 14 18  1  0  0  0  0
 15  1  2  0  0  0  0
 16  3  1  6  0  0  0
 16  2  1  0  0  0  0
 17 21  1  0  0  0  0
 18  6  2  0  0  0  0
 19 20  1  0  0  0  0
 20 15  1  0  0  0  0
 21  3  2  0  0  0  0
 21 15  1  0  0  0  0
 23 12  1  6  0  0  0
 23 24  1  0  0  0  0
 23 27  1  0  0  0  0
 24 25  1  0  0  0  0
 25 22  2  0  0  0  0
 26 22  1  0  0  0  0
 27 26  1  0  0  0  0
M  END
>  <MODEL>
2

>  <REMARK>
 VINA RESULT:      -9.4      3.508      5.851
  Name = 
  1 active torsions:
  status: ('A' for Active; 'I' for Inactive)
    1  A    between atoms: C_9  and  C_15
                            x       y       z     vdW  Elec       q    Type
                         _______ _______ _______ _____ _____    ______ ____

>  <TORSDO>
F 1

$$$$
=
 OpenBabel10272400593D

 27 31  0  0  1  0  0  0  0  0999 V2000
  187.1870  178.4210  141.1430 C   0  0  0  0  0  3  0  0  0  0  0  0
  185.4980  178.4520  142.9810 C   0  0  0  0  0  0  0  0  0  0  0  0
  187.3990  177.1730  143.9100 C   0  0  0  0  0  3  0  0  0  0  0  0
  184.5690  178.8460  147.0270 O   0  0  0  0  0  0  0  0  0  0  0  0
  185.8500  180.2060  148.1840 O   0  0  0  0  0  1  0  0  0  0  0  0
  184.1130  178.4910  143.3980 N   0  0  0  0  0  2  0  0  0  0  0  0
  186.7960  178.7640  146.7050 C   0  0  1  0  0  3  0  0  0  0  0  0
  190.3220  175.6590  142.7440 C   0  0  0  0  0  3  0  0  0  0  0  0
  187.6380  177.5460  147.0380 C   0  0  0  0  0  1  0  0  0  0  0  0
  191.1390  176.8250  142.3630 C   0  0  0  0  0  3  0  0  0  0  0  0
  186.0490  178.5610  145.4240 C   0  0  0  0  0  0  0  0  0  0  0  0
  185.8040  178.4960  141.6650 C   0  0  0  0  0  0  0  0  0  0  0  0
  185.7540  178.9320  147.7350 N   0  0  0  0  0  0  0  0  0  0  0  0
  184.7750  178.6450  145.6840 C   0  0  0  0  0  0  0  0  0  0  0  0
  188.2480  177.7830  141.6620 C   0  0  0  0  0  0  0  0  0  0  0  0
  186.5990  178.4270  144.0280 C   0  0  0  0  0  0  0  0  0  0  0  0
  189.0040  175.6890  142.9640 C   0  0  0  0  0  3  0  0  0  0  0  0
  183.7510  178.5770  144.6430 C   0  0  0  0  0  3  0  0  0  0  0  0
  190.7440  177.7890  141.5300 C   0  0  0  0  0  3  0  0  0  0  0  0
  189.4530  177.7460  140.7770 C   0  0  0  0  0  2  0  0  0  0  0  0
  188.1690  176.8960  142.8580 C   0  0  0  0  0  0  0  0  0  0  0  0
  182.9970  178.2640  138.3880 C   0  0  0  0  0  3  0  0  0  0  0  0
  184.7470  178.6700  140.6070 C   0  0  1  0  0  3  0  0  0  0  0  0
  185.3390  178.6390  139.1950 C   0  0  0  0  0  2  0  0  0  0  0  0
  184.2750  178.5840  138.1270 C   0  0  0  0  0  3  0  0  0  0  0  0
  182.4890  178.0320  139.7870 C   0  0  0  0  0  2  0  0  0  0  0  0
  183.6120  177.6600  140.7500 C   0  0  0  0  0  2  0  0  0  0  0  0
  1 15  2  0  0  0  0
  1 12  1  0  0  0  0
  2  6  1  0  0  0  0
  2 16  1  0  0  0  0
  3 16  1  0  0  0  0
  4 13  1  0  0  0  0
  6 18  1  0  0  0  0
  7  9  1  1  0  0  0
  7 13  1  0  0  0  0
  8 17  2  0  0  0  0
 10  8  1  0  0  0  0
 11 14  1  0  0  0  0
 11  7  1  0  0  0  0
 12  2  2  0  0  0  0
 13  5  1  0  0  0  0
 14  4  1  0  0  0  0
 15 21  1  0  0  0  0
 16 11  2  0  0  0  0
 18 14  2  0  0  0  0
 19 10  2  0  0  0  0
 20 19  1  0  0  0  0
 20 15  1  0  0  0  0
 21 17  1  0  0  0  0
 21  3  2  0  0  0  0
 22 26  1  0  0  0  0
 23 27  1  0  0  0  0
 23 12  1  1  0  0  0
 24 23  1  0  0  0  0
 25 22  2  0  0  0  0
 25 24  1  0  0  0  0
 26 27  1  0  0  0  0
M  END
>  <MODEL>
3

>  <REMARK>
 VINA RESULT:      -9.2      3.854      5.831
  Name = 
  1 active torsions:
  status: ('A' for Active; 'I' for Inactive)
    1  A    between atoms: C_9  and  C_15
                            x       y       z     vdW  Elec       q    Type
                         _______ _______ _______ _____ _____    ______ ____

>  <TORSDO>
F 1

$$$$
=
 OpenBabel10272400593D

 27 31  0  0  1  0  0  0  0  0999 V2000
  191.0890  177.5180  140.6300 C   0  0  0  0  0  3  0  0  0  0  0  0
  189.0360  177.3230  139.2230 C   0  0  1  0  0  3  0  0  0  0  0  0
  188.1980  177.2880  141.5490 C   0  0  0  0  0  3  0  0  0  0  0  0
  185.0740  178.3690  138.4520 O   0  0  0  0  0  0  0  0  0  0  0  0
  184.4820  180.4050  139.0300 O   0  0  0  0  0  1  0  0  0  0  0  0
  188.4020  176.8770  138.0020 N   0  0  0  0  0  0  0  0  0  0  0  0
  185.7540  179.1630  140.4450 C   0  0  1  0  0  3  0  0  0  0  0  0
  189.4990  176.9170  144.7690 C   0  0  0  0  0  3  0  0  0  0  0  0
  185.3170  178.5660  141.7700 C   0  0  0  0  0  1  0  0  0  0  0  0
  190.2620  178.1670  144.9370 C   0  0  0  0  0  3  0  0  0  0  0  0
  186.8100  178.3200  139.8030 C   0  0  0  0  0  0  0  0  0  0  0  0
  190.3630  177.1330  139.3990 C   0  0  0  0  0  0  0  0  0  0  0  0
  184.6200  179.1430  139.5040 N   0  0  0  0  0  0  0  0  0  0  0  0
  186.3560  177.9170  138.6490 C   0  0  0  0  0  0  0  0  0  0  0  0
  190.6380  177.5640  141.8930 C   0  0  0  0  0  0  0  0  0  0  0  0
  188.2180  178.0580  140.2720 C   0  0  0  0  0  0  0  0  0  0  0  0
  189.0650  176.4390  143.5990 C   0  0  0  0  0  3  0  0  0  0  0  0
  187.1620  177.1370  137.7130 C   0  0  0  0  0  3  0  0  0  0  0  0
  191.2020  178.6010  144.0960 C   0  0  0  0  0  3  0  0  0  0  0  0
  191.6900  177.8060  142.9270 C   0  0  0  0  0  2  0  0  0  0  0  0
  189.2820  177.0920  142.2980 C   0  0  0  0  0  0  0  0  0  0  0  0
  193.1590  174.9870  136.8990 C   0  0  0  0  0  3  0  0  0  0  0  0
  191.2320  176.5420  138.3210 C   0  0  1  0  0  3  0  0  0  0  0  0
  192.7200  176.7850  138.5870 C   0  0  0  0  0  2  0  0  0  0  0  0
  193.6070  176.0110  137.6450 C   0  0  0  0  0  3  0  0  0  0  0  0
  191.7060  174.5880  136.8580 C   0  0  0  0  0  2  0  0  0  0  0  0
  190.9490  175.0590  138.0960 C   0  0  0  0  0  2  0  0  0  0  0  0
  1 15  1  0  0  0  0
  2  6  1  6  0  0  0
  2 12  1  0  0  0  0
  2 16  1  0  0  0  0
  3 21  1  0  0  0  0
  4 14  1  0  0  0  0
  4 13  1  0  0  0  0
  5 13  1  0  0  0  0
  7  9  1  1  0  0  0
  8 10  1  0  0  0  0
 11 16  1  0  0  0  0
 11  7  1  0  0  0  0
 12  1  2  0  0  0  0
 13  7  1  0  0  0  0
 14 11  2  0  0  0  0
 15 21  2  0  0  0  0
 15 20  1  0  0  0  0
 16  3  2  0  0  0  0
 17  8  2  0  0  0  0
 18  6  2  0  0  0  0
 18 14  1  0  0  0  0
 19 10  2  0  0  0  0
 20 19  1  0  0  0  0
 21 17  1  0  0  0  0
 22 25  2  0  0  0  0
 23 24  1  0  0  0  0
 23 12  1  1  0  0  0
 25 24  1  0  0  0  0
 26 22  1  0  0  0  0
 26 27  1  0  0  0  0
 27 23  1  0  0  0  0
M  END
>  <MODEL>
4

>  <REMARK>
 VINA RESULT:      -9.0      2.120      6.145
  Name = 
  1 active torsions:
  status: ('A' for Active; 'I' for Inactive)
    1  A    between atoms: C_9  and  C_15
                            x       y       z     vdW  Elec       q    Type
                         _______ _______ _______ _____ _____    ______ ____

>  <TORSDO>
F 1

$$$$
=
 OpenBabel10272400593D

 27 31  0  0  1  0  0  0  0  0999 V2000
  188.4830  177.2260  143.1880 C   0  0  0  0  0  3  0  0  0  0  0  0
  186.2860  178.3230  143.6370 C   0  0  0  0  0  0  0  0  0  0  0  0
  186.6970  178.7250  141.2330 C   0  0  0  0  0  3  0  0  0  0  0  0
  182.3670  179.1630  142.4870 O   0  0  0  0  0  0  0  0  0  0  0  0
  181.3480  177.6080  141.3160 O   0  0  0  0  0  1  0  0  0  0  0  0
  185.4010  179.0070  144.5540 N   0  0  0  0  0  0  0  0  0  0  0  0
  183.5020  178.1450  140.8320 C   0  0  1  0  0  3  0  0  0  0  0  0
  189.3520  178.4690  138.9780 C   0  0  0  0  0  3  0  0  0  0  0  0
  183.9990  178.8730  139.5960 C   0  0  0  0  0  1  0  0  0  0  0  0
  189.5360  177.0090  138.8870 C   0  0  0  0  0  3  0  0  0  0  0  0
  184.3840  178.4280  142.0070 C   0  0  0  0  0  0  0  0  0  0  0  0
  187.4960  177.8980  144.0630 C   0  0  0  0  0  0  0  0  0  0  0  0
  182.1780  178.6730  141.2080 N   0  0  0  0  0  0  0  0  0  0  0  0
  183.6560  178.9930  142.9290 C   0  0  0  0  0  0  0  0  0  0  0  0
  188.6830  177.3850  141.8710 C   0  0  0  0  0  0  0  0  0  0  0  0
  185.8210  178.0300  142.2200 C   0  0  2  0  0  3  0  0  0  0  0  0
  188.6630  179.0930  139.9380 C   0  0  0  0  0  3  0  0  0  0  0  0
  184.1800  179.3310  144.2510 C   0  0  0  0  0  3  0  0  0  0  0  0
  189.7250  176.2010  139.9310 C   0  0  0  0  0  3  0  0  0  0  0  0
  189.8960  176.6950  141.3320 C   0  0  0  0  0  2  0  0  0  0  0  0
  187.9800  178.4130  141.0510 C   0  0  0  0  0  0  0  0  0  0  0  0
  188.6070  177.5090  148.2210 C   0  0  0  0  0  3  0  0  0  0  0  0
  187.9290  178.0380  145.4980 C   0  0  1  0  0  3  0  0  0  0  0  0
  186.8170  177.6440  146.4740 C   0  0  0  0  0  2  0  0  0  0  0  0
  187.3040  177.5620  147.8990 C   0  0  0  0  0  3  0  0  0  0  0  0
  189.7020  177.6320  147.1930 C   0  0  0  0  0  2  0  0  0  0  0  0
  189.2160  177.2720  145.7930 C   0  0  0  0  0  2  0  0  0  0  0  0
  1 12  1  0  0  0  0
  2 12  2  0  0  0  0
  2  6  1  0  0  0  0
  4 14  1  0  0  0  0
  7  9  1  6  0  0  0
  7 13  1  0  0  0  0
  7 11  1  0  0  0  0
  8 17  2  0  0  0  0
 10  8  1  0  0  0  0
 10 19  2  0  0  0  0
 11 16  1  0  0  0  0
 11 14  2  0  0  0  0
 13  5  1  0  0  0  0
 13  4  1  0  0  0  0
 14 18  1  0  0  0  0
 15  1  2  0  0  0  0
 16  3  1  6  0  0  0
 16  2  1  0  0  0  0
 17 21  1  0  0  0  0
 18  6  2  0  0  0  0
 19 20  1  0  0  0  0
 20 15  1  0  0  0  0
 21  3  2  0  0  0  0
 21 15  1  0  0  0  0
 23 12  1  6  0  0  0
 23 27  1  0  0  0  0
 23 24  1  0  0  0  0
 24 25  1  0  0  0  0
 25 22  2  0  0  0  0
 26 22  1  0  0  0  0
 27 26  1  0  0  0  0
M  END
>  <MODEL>
5

>  <REMARK>
 VINA RESULT:      -8.6      3.317      5.740
  Name = 
  1 active torsions:
  status: ('A' for Active; 'I' for Inactive)
    1  A    between atoms: C_9  and  C_15
                            x       y       z     vdW  Elec       q    Type
                         _______ _______ _______ _____ _____    ______ ____

>  <TORSDO>
F 1

$$$$
=
 OpenBabel10272400593D

 27 31  0  0  1  0  0  0  0  0999 V2000
  183.8110  179.0320  142.7930 C   0  0  0  0  0  3  0  0  0  0  0  0
  186.0630  178.4510  141.8840 C   0  0  0  0  0  0  0  0  0  0  0  0
  184.4760  177.6410  140.1700 C   0  0  0  0  0  3  0  0  0  0  0  0
  188.7110  178.2240  138.6710 O   0  0  0  0  0  0  0  0  0  0  0  0
  188.4830  179.7640  137.1200 O   0  0  0  0  0  1  0  0  0  0  0  0
  187.4430  178.0860  142.1170 N   0  0  0  0  0  0  0  0  0  0  0  0
  186.6360  178.7600  137.9820 C   0  0  1  0  0  3  0  0  0  0  0  0
  181.0440  177.0620  139.8810 C   0  0  0  0  0  3  0  0  0  0  0  0
  185.7190  177.7830  137.2690 C   0  0  0  0  0  1  0  0  0  0  0  0
  180.4990  178.4320  139.9090 C   0  0  0  0  0  3  0  0  0  0  0  0
  186.6700  178.4830  139.4520 C   0  0  0  0  0  0  0  0  0  0  0  0
  185.2450  178.6920  142.9330 C   0  0  0  0  0  0  0  0  0  0  0  0
  188.0210  178.5550  137.5190 N   0  0  0  0  0  0  0  0  0  0  0  0
  187.9000  178.2040  139.7800 C   0  0  0  0  0  0  0  0  0  0  0  0
  182.9470  178.6520  141.8400 C   0  0  0  0  0  0  0  0  0  0  0  0
  185.5600  178.6240  140.4600 C   0  0  2  0  0  3  0  0  0  0  0  0
  182.2790  176.7240  140.2630 C   0  0  0  0  0  3  0  0  0  0  0  0
  188.3140  177.9630  141.1610 C   0  0  0  0  0  3  0  0  0  0  0  0
  180.7470  179.3280  140.8650 C   0  0  0  0  0  3  0  0  0  0  0  0
  181.5200  179.0130  142.1060 C   0  0  0  0  0  2  0  0  0  0  0  0
  183.2850  177.6720  140.7670 C   0  0  0  0  0  0  0  0  0  0  0  0
  186.2000  178.0090  147.0920 C   0  0  0  0  0  3  0  0  0  0  0  0
  185.7470  178.6760  144.3530 C   0  0  1  0  0  3  0  0  0  0  0  0
  184.6160  178.8890  145.3630 C   0  0  0  0  0  2  0  0  0  0  0  0
  185.0600  178.6500  146.7840 C   0  0  0  0  0  3  0  0  0  0  0  0
  187.1880  177.5620  146.0450 C   0  0  0  0  0  2  0  0  0  0  0  0
  186.5390  177.4110  144.6730 C   0  0  0  0  0  2  0  0  0  0  0  0
  1 12  1  0  0  0  0
  2  6  1  0  0  0  0
  2 12  2  0  0  0  0
  3 21  2  0  0  0  0
  4 14  1  0  0  0  0
  5 13  1  0  0  0  0
  7  9  1  6  0  0  0
  7 11  1  0  0  0  0
  8 10  1  0  0  0  0
  8 17  2  0  0  0  0
 10 19  2  0  0  0  0
 11 14  2  0  0  0  0
 11 16  1  0  0  0  0
 13  7  1  0  0  0  0
 13  4  1  0  0  0  0
 14 18  1  0  0  0  0
 15 20  1  0  0  0  0
 15  1  2  0  0  0  0
 16  3  1  6  0  0  0
 16  2  1  0  0  0  0
 17 21  1  0  0  0  0
 18  6  2  0  0  0  0
 19 20  1  0  0  0  0
 21 15  1  0  0  0  0
 23 12  1  6  0  0  0
 23 27  1  0  0  0  0
 23 24  1  0  0  0  0
 24 25  1  0  0  0  0
 25 22  2  0  0  0  0
 26 22  1  0  0  0  0
 27 26  1  0  0  0  0
M  END
>  <MODEL>
6

>  <REMARK>
 VINA RESULT:      -8.6      2.330      5.877
  Name = 
  1 active torsions:
  status: ('A' for Active; 'I' for Inactive)
    1  A    between atoms: C_9  and  C_15
                            x       y       z     vdW  Elec       q    Type
                         _______ _______ _______ _____ _____    ______ ____

>  <TORSDO>
F 1

$$$$
=
 OpenBabel10272400593D

 27 31  0  0  1  0  0  0  0  0999 V2000
  189.0480  176.6330  142.3800 C   0  0  0  0  0  3  0  0  0  0  0  0
  187.0290  177.7020  143.3870 C   0  0  0  0  0  0  0  0  0  0  0  0
  187.1360  178.6200  141.0940 C   0  0  0  0  0  3  0  0  0  0  0  0
  183.0690  178.9670  143.0590 O   0  0  0  0  0  0  0  0  0  0  0  0
  181.7770  177.7690  141.7470 O   0  0  0  0  0  1  0  0  0  0  0  0
  186.3370  178.2020  144.5550 N   0  0  0  0  0  0  0  0  0  0  0  0
  183.8800  178.2990  141.0680 C   0  0  1  0  0  3  0  0  0  0  0  0
  189.4250  178.7560  138.4600 C   0  0  0  0  0  3  0  0  0  0  0  0
  184.2590  179.2640  139.9600 C   0  0  0  0  0  1  0  0  0  0  0  0
  189.4770  177.3480  138.0260 C   0  0  0  0  0  3  0  0  0  0  0  0
  184.9350  178.2650  142.1290 C   0  0  0  0  0  0  0  0  0  0  0  0
  188.2490  177.1350  143.5210 C   0  0  0  0  0  0  0  0  0  0  0  0
  182.6670  178.7900  141.7480 N   0  0  0  0  0  0  0  0  0  0  0  0
  184.3900  178.6400  143.2520 C   0  0  0  0  0  0  0  0  0  0  0  0
  189.0770  177.0770  141.1150 C   0  0  0  0  0  0  0  0  0  0  0  0
  186.3510  177.7610  142.0280 C   0  0  2  0  0  3  0  0  0  0  0  0
  188.9270  179.1780  139.6260 C   0  0  0  0  0  3  0  0  0  0  0  0
  185.1160  178.6440  144.5190 C   0  0  0  0  0  3  0  0  0  0  0  0
  189.7420  176.3160  138.8280 C   0  0  0  0  0  3  0  0  0  0  0  0
  190.1440  176.4710  140.2610 C   0  0  0  0  0  2  0  0  0  0  0  0
  188.3520  178.2970  140.6550 C   0  0  0  0  0  0  0  0  0  0  0  0
  190.4980  177.1930  147.2100 C   0  0  0  0  0  3  0  0  0  0  0  0
  188.8850  176.9250  144.8690 C   0  0  1  0  0  3  0  0  0  0  0  0
  190.3940  176.6870  144.7590 C   0  0  0  0  0  2  0  0  0  0  0  0
  191.0780  176.7010  146.1030 C   0  0  0  0  0  3  0  0  0  0  0  0
  189.0720  177.6800  147.2300 C   0  0  0  0  0  2  0  0  0  0  0  0
  188.5780  178.0630  145.8390 C   0  0  0  0  0  2  0  0  0  0  0  0
  1 12  1  0  0  0  0
  2 12  2  0  0  0  0
  2  6  1  0  0  0  0
  4 14  1  0  0  0  0
  5 13  1  0  0  0  0
  7  9  1  6  0  0  0
  7 13  1  0  0  0  0
  7 11  1  0  0  0  0
  8 17  2  0  0  0  0
 10  8  1  0  0  0  0
 10 19  2  0  0  0  0
 11 14  2  0  0  0  0
 13  4  1  0  0  0  0
 14 18  1  0  0  0  0
 15  1  2  0  0  0  0
 16  3  1  6  0  0  0
 16 11  1  0  0  0  0
 16  2  1  0  0  0  0
 17 21  1  0  0  0  0
 18  6  2  0  0  0  0
 19 20  1  0  0  0  0
 20 15  1  0  0  0  0
 21  3  2  0  0  0  0
 21 15  1  0  0  0  0
 22 26  1  0  0  0  0
 23 12  1  6  0  0  0
 23 27  1  0  0  0  0
 24 23  1  0  0  0  0
 24 25  1  0  0  0  0
 25 22  2  0  0  0  0
 27 26  1  0  0  0  0
M  END
>  <MODEL>
7

>  <REMARK>
 VINA RESULT:      -8.3      3.172      6.013
  Name = 
  1 active torsions:
  status: ('A' for Active; 'I' for Inactive)
    1  A    between atoms: C_9  and  C_15
                            x       y       z     vdW  Elec       q    Type
                         _______ _______ _______ _____ _____    ______ ____

>  <TORSDO>
F 1

$$$$
=
 OpenBabel10272400593D

 27 31  0  0  1  0  0  0  0  0999 V2000
  186.3470  178.7260  140.2740 C   0  0  0  0  0  3  0  0  0  0  0  0
  187.4040  178.0380  142.4280 C   0  0  0  0  0  0  0  0  0  0  0  0
  188.9820  177.2630  140.6900 C   0  0  0  0  0  3  0  0  0  0  0  0
  190.7950  177.6460  144.8230 O   0  0  0  0  0  0  0  0  0  0  0  0
  192.3570  179.1660  144.5440 O   0  0  0  0  0  1  0  0  0  0  0  0
  187.2640  177.6210  143.8060 N   0  0  0  0  0  0  0  0  0  0  0  0
  191.3430  178.2540  142.7270 C   0  0  1  0  0  3  0  0  0  0  0  0
  189.0100  176.8190  137.2260 C   0  0  0  0  0  3  0  0  0  0  0  0
  191.9670  177.3020  141.7230 C   0  0  0  0  0  1  0  0  0  0  0  0
  188.9710  178.2100  136.7380 C   0  0  0  0  0  3  0  0  0  0  0  0
  189.8740  178.0020  142.8570 C   0  0  0  0  0  0  0  0  0  0  0  0
  186.3030  178.3310  141.7000 C   0  0  0  0  0  0  0  0  0  0  0  0
  191.9000  177.9840  144.0650 N   0  0  0  0  0  0  0  0  0  0  0  0
  189.6290  177.6790  144.0960 C   0  0  0  0  0  0  0  0  0  0  0  0
  187.2270  178.3650  139.3280 C   0  0  0  0  0  0  0  0  0  0  0  0
  188.7910  178.2060  141.8300 C   0  0  2  0  0  3  0  0  0  0  0  0
  188.7120  176.4380  138.4710 C   0  0  0  0  0  3  0  0  0  0  0  0
  188.2780  177.4460  144.5990 C   0  0  0  0  0  3  0  0  0  0  0  0
  188.0550  179.1120  137.0900 C   0  0  0  0  0  3  0  0  0  0  0  0
  186.8670  178.7880  137.9390 C   0  0  0  0  0  2  0  0  0  0  0  0
  188.3010  177.3530  139.5480 C   0  0  0  0  0  0  0  0  0  0  0  0
  182.3440  179.0840  143.2580 C   0  0  0  0  0  3  0  0  0  0  0  0
  184.9240  178.3190  142.3020 C   0  0  1  0  0  3  0  0  0  0  0  0
  184.8300  179.2210  143.5360 C   0  0  0  0  0  2  0  0  0  0  0  0
  183.4100  179.3980  144.0130 C   0  0  0  0  0  3  0  0  0  0  0  0
  182.4720  178.4310  141.9060 C   0  0  0  0  0  2  0  0  0  0  0  0
  183.8430  178.6690  141.2820 C   0  0  0  0  0  2  0  0  0  0  0  0
  1 12  1  0  0  0  0
  2  6  1  0  0  0  0
  6 18  2  0  0  0  0
  7  9  1  6  0  0  0
  7 11  1  0  0  0  0
  7 13  1  0  0  0  0
  8 17  2  0  0  0  0
 10 19  2  0  0  0  0
 10  8  1  0  0  0  0
 11 14  2  0  0  0  0
 12  2  2  0  0  0  0
 13  5  1  0  0  0  0
 13  4  1  0  0  0  0
 14 18  1  0  0  0  0
 14  4  1  0  0  0  0
 15 21  1  0  0  0  0
 15  1  2  0  0  0  0
 16  3  1  6  0  0  0
 16  2  1  0  0  0  0
 16 11  1  0  0  0  0
 17 21  1  0  0  0  0
 19 20  1  0  0  0  0
 20 15  1  0  0  0  0
 21  3  2  0  0  0  0
 22 25  2  0  0  0  0
 23 12  1  6  0  0  0
 23 24  1  0  0  0  0
 24 25  1  0  0  0  0
 26 22  1  0  0  0  0
 27 26  1  0  0  0  0
 27 23  1  0  0  0  0
M  END
>  <MODEL>
8

>  <REMARK>
 VINA RESULT:      -8.1      2.793      5.180
  Name = 
  1 active torsions:
  status: ('A' for Active; 'I' for Inactive)
    1  A    between atoms: C_9  and  C_15
                            x       y       z     vdW  Elec       q    Type
                         _______ _______ _______ _____ _____    ______ ____

>  <TORSDO>
F 1

$$$$
=
 OpenBabel10272400593D

 27 31  0  0  1  0  0  0  0  0999 V2000
  186.6400  178.4740  142.1500 C   0  0  0  0  0  3  0  0  0  0  0  0
  186.4750  177.8610  144.5650 C   0  0  0  0  0  0  0  0  0  0  0  0
  188.6580  176.9530  143.8440 C   0  0  0  0  0  3  0  0  0  0  0  0
  188.2410  177.4830  148.3230 O   0  0  0  0  0  0  0  0  0  0  0  0
  189.8150  178.9390  148.8020 O   0  0  0  0  0  1  0  0  0  0  0  0
  185.6590  177.5170  145.7090 N   0  0  0  0  0  0  0  0  0  0  0  0
  189.7730  177.9700  146.7480 C   0  0  1  0  0  3  0  0  0  0  0  0
  190.3510  176.3390  140.8510 C   0  0  0  0  0  3  0  0  0  0  0  0
  190.7580  176.9520  146.2050 C   0  0  0  0  0  1  0  0  0  0  0  0
  190.6250  177.7040  140.3690 C   0  0  0  0  0  3  0  0  0  0  0  0
  188.4160  177.7700  146.1490 C   0  0  0  0  0  0  0  0  0  0  0  0
  185.8860  178.1510  143.3830 C   0  0  0  0  0  0  0  0  0  0  0  0
  189.5910  177.7500  148.1940 N   0  0  0  0  0  0  0  0  0  0  0  0
  187.5820  177.5160  147.1180 C   0  0  0  0  0  0  0  0  0  0  0  0
  187.8500  178.0400  141.7670 C   0  0  0  0  0  0  0  0  0  0  0  0
  187.9840  177.9560  144.7180 C   0  0  2  0  0  3  0  0  0  0  0  0
  189.4640  176.0290  141.8010 C   0  0  0  0  0  3  0  0  0  0  0  0
  186.1470  177.3500  146.9010 C   0  0  0  0  0  3  0  0  0  0  0  0
  189.7010  178.6510  140.2010 C   0  0  0  0  0  3  0  0  0  0  0  0
  188.2350  178.4060  140.3690 C   0  0  0  0  0  2  0  0  0  0  0  0
  188.6270  177.0080  142.5130 C   0  0  0  0  0  0  0  0  0  0  0  0
  181.7130  179.1020  142.7870 C   0  0  0  0  0  3  0  0  0  0  0  0
  184.3900  178.2120  143.2330 C   0  0  1  0  0  3  0  0  0  0  0  0
  183.7500  179.1690  144.2430 C   0  0  0  0  0  2  0  0  0  0  0  0
  182.2890  179.4130  143.9600 C   0  0  0  0  0  3  0  0  0  0  0  0
  182.4520  178.3870  141.6850 C   0  0  0  0  0  2  0  0  0  0  0  0
  183.9630  178.5520  141.8070 C   0  0  0  0  0  2  0  0  0  0  0  0
  1 12  1  0  0  0  0
  2 16  1  0  0  0  0
  2  6  1  0  0  0  0
  6 18  2  0  0  0  0
  7  9  1  6  0  0  0
  7 13  1  0  0  0  0
  8 17  2  0  0  0  0
 10  8  1  0  0  0  0
 11  7  1  0  0  0  0
 11 14  2  0  0  0  0
 12  2  2  0  0  0  0
 13  4  1  0  0  0  0
 13  5  1  0  0  0  0
 14  4  1  0  0  0  0
 15  1  2  0  0  0  0
 15 21  1  0  0  0  0
 16  3  1  6  0  0  0
 16 11  1  0  0  0  0
 17 21  1  0  0  0  0
 18 14  1  0  0  0  0
 19 20  1  0  0  0  0
 19 10  2  0  0  0  0
 20 15  1  0  0  0  0
 21  3  2  0  0  0  0
 22 25  2  0  0  0  0
 23 12  1  6  0  0  0
 23 24  1  0  0  0  0
 25 24  1  0  0  0  0
 26 27  1  0  0  0  0
 26 22  1  0  0  0  0
 27 23  1  0  0  0  0
M  END
>  <MODEL>
9

>  <REMARK>
 VINA RESULT:      -8.1      3.822      5.699
  Name = 
  1 active torsions:
  status: ('A' for Active; 'I' for Inactive)
    1  A    between atoms: C_9  and  C_15
                            x       y       z     vdW  Elec       q    Type
                         _______ _______ _______ _____ _____    ______ ____

>  <TORSDO>
F 1

$$$$
