=
 OpenBabel10272413343D

 32 36  0  0  1  0  0  0  0  0999 V2000
  185.9120  178.1490  145.3880 C   0  0  0  0  0  0  0  0  0  0  0  0
  187.8200  178.0160  141.6860 C   0  0  0  0  0  0  0  0  0  0  0  0
  187.8990  177.7010  144.1040 C   0  0  0  0  0  0  0  0  0  0  0  0
  185.8430  178.4470  143.0190 C   0  0  0  0  0  3  0  0  0  0  0  0
  187.9240  177.3860  146.4880 N   0  0  0  0  0  0  0  0  0  0  0  0
  184.4830  178.5680  145.5250 C   0  0  0  0  0  1  0  0  0  0  0  0
  186.4710  178.4080  141.7690 C   0  0  0  0  0  0  0  0  0  0  0  0
  185.7910  178.7530  140.5870 C   0  0  0  0  0  0  0  0  0  0  0  0
  187.7480  178.3190  139.2900 C   0  0  0  0  0  0  0  0  0  0  0  0
  190.0360  176.9530  145.1340 C   0  0  0  0  0  1  0  0  0  0  0  0
  186.5350  178.0990  144.1920 C   0  0  0  0  0  0  0  0  0  0  0  0
  188.5910  177.3580  145.2120 C   0  0  0  0  0  0  0  0  0  0  0  0
  186.6090  177.8050  146.5470 O   0  0  0  0  0  0  0  0  0  0  0  0
  186.4410  178.6910  139.3930 N   0  0  0  0  0  0  0  0  0  0  0  0
  188.5200  177.6680  142.8410 C   0  0  0  0  0  3  0  0  0  0  0  0
  188.4580  177.9700  140.4490 C   0  0  0  0  0  3  0  0  0  0  0  0
  186.6440  177.6990  134.6750 O   0  0  0  0  0  1  0  0  0  0  0  0
  187.3610  178.2170  136.8610 C   0  0  0  0  0  3  0  0  0  0  0  0
  189.3280  177.0130  137.8400 C   0  0  1  0  0  3  0  0  0  0  0  0
  189.7380  176.7290  136.4190 C   0  0  0  0  0  3  0  0  0  0  0  0
  188.9040  177.0030  135.4110 C   0  0  0  0  0  3  0  0  0  0  0  0
  189.1930  179.4120  137.7410 O   0  0  0  0  0  1  0  0  0  0  0  0
  187.6110  177.6610  135.6700 C   0  0  0  0  0  0  0  0  0  0  0  0
  190.5070  177.1450  138.6820 N   0  0  0  0  0  1  0  0  0  0  0  0
  188.4190  178.2620  137.9390 C   0  0  2  0  0  0  0  0  0  0  0  0
  188.6380  177.0840  147.7270 C   0  0  0  0  0  3  0  0  0  0  0  0
  187.9470  177.7670  148.8930 C   0  0  0  0  0  2  0  0  0  0  0  0
  189.2190  178.3530  148.3270 C   0  0  0  0  0  2  0  0  0  0  0  0
  184.3510  179.1510  140.6020 C   0  0  0  0  0  2  0  0  0  0  0  0
  184.0520  179.9490  139.4250 N   0  0  0  0  0  2  0  0  0  0  0  0
  182.7990  179.4490  138.8910 C   0  0  0  0  0  2  0  0  0  0  0  0
  183.0710  178.2500  138.0070 C   0  0  0  0  0  1  0  0  0  0  0  0
  1  6  1  0  0  0  0
  1 13  1  0  0  0  0
  2  7  1  0  0  0  0
  2 15  2  0  0  0  0
  3 11  1  0  0  0  0
  3 12  2  0  0  0  0
  4 11  1  0  0  0  0
  5 13  1  0  0  0  0
  5 26  1  0  0  0  0
  7  4  2  0  0  0  0
  8 29  1  0  0  0  0
  8  7  1  0  0  0  0
  9 14  1  0  0  0  0
  9 16  2  0  0  0  0
 10 12  1  0  0  0  0
 11  1  2  0  0  0  0
 12  5  1  0  0  0  0
 14  8  2  0  0  0  0
 15  3  1  0  0  0  0
 16  2  1  0  0  0  0
 17 23  1  0  0  0  0
 18 25  1  0  0  0  0
 19 25  1  0  0  0  0
 19 24  1  1  0  0  0
 20 19  1  0  0  0  0
 21 23  1  0  0  0  0
 21 20  2  0  0  0  0
 23 18  2  0  0  0  0
 25 22  1  6  0  0  0
 25  9  1  0  0  0  0
 26 28  1  0  0  0  0
 26 27  1  0  0  0  0
 28 27  1  0  0  0  0
 30 29  1  0  0  0  0
 31 30  1  0  0  0  0
 32 31  1  0  0  0  0
M  END
>  <MODEL>
1

>  <REMARK>
 VINA RESULT:     -10.0      0.000      0.000
  Name = 
  5 active torsions:
  status: ('A' for Active; 'I' for Inactive)
    1  A    between atoms: C_1  and  N_10
    2  A    between atoms: N_4  and  C_5
    3  A    between atoms: N_4  and  C_13
    4  A    between atoms: C_13  and  C_15
    5  A    between atoms: C_16  and  C_32
                            x       y       z     vdW  Elec       q    Type
                         _______ _______ _______ _____ _____    ______ ____

>  <TORSDO>
F 5

$$$$
=
 OpenBabel10272413343D

 32 36  0  0  1  0  0  0  0  0999 V2000
  189.9720  177.4300  144.4230 C   0  0  0  0  0  0  0  0  0  0  0  0
  186.4750  178.2470  142.3100 C   0  0  0  0  0  0  0  0  0  0  0  0
  187.5910  177.7860  144.4300 C   0  0  0  0  0  0  0  0  0  0  0  0
  188.8710  177.8910  142.3540 C   0  0  0  0  0  3  0  0  0  0  0  0
  188.7360  177.3460  146.4990 N   0  0  0  0  0  0  0  0  0  0  0  0
  191.2990  177.3250  143.7430 C   0  0  0  0  0  1  0  0  0  0  0  0
  187.7040  178.1650  141.6310 C   0  0  0  0  0  0  0  0  0  0  0  0
  187.7250  178.3590  140.2380 C   0  0  0  0  0  0  0  0  0  0  0  0
  185.3630  178.7120  140.2160 C   0  0  0  0  0  0  0  0  0  0  0  0
  186.2130  177.6800  146.4980 C   0  0  0  0  0  1  0  0  0  0  0  0
  188.8360  177.6990  143.7460 C   0  0  0  0  0  0  0  0  0  0  0  0
  187.5230  177.6090  145.7670 C   0  0  0  0  0  0  0  0  0  0  0  0
  189.9260  177.2380  145.8050 O   0  0  0  0  0  0  0  0  0  0  0  0
  186.5660  178.6330  139.5790 N   0  0  0  0  0  0  0  0  0  0  0  0
  186.4250  178.0590  143.6910 C   0  0  0  0  0  3  0  0  0  0  0  0
  185.3060  178.5220  141.6040 C   0  0  0  0  0  3  0  0  0  0  0  0
  180.6450  179.1480  140.8890 O   0  0  0  0  0  1  0  0  0  0  0  0
  182.9520  179.1720  140.3970 C   0  0  0  0  0  3  0  0  0  0  0  0
  183.8120  177.8980  138.4190 C   0  0  1  0  0  3  0  0  0  0  0  0
  182.4110  177.9900  137.8730 C   0  0  0  0  0  3  0  0  0  0  0  0
  181.4180  178.4440  138.6430 C   0  0  0  0  0  3  0  0  0  0  0  0
  184.2620  180.2370  138.7510 O   0  0  0  0  0  1  0  0  0  0  0  0
  181.6940  178.9350  140.0050 C   0  0  0  0  0  0  0  0  0  0  0  0
  184.7720  177.8990  137.3270 N   0  0  0  0  0  1  0  0  0  0  0  0
  184.1090  179.0250  139.4360 C   0  0  2  0  0  0  0  0  0  0  0  0
  188.7170  177.0870  147.9360 C   0  0  0  0  0  3  0  0  0  0  0  0
  188.1530  178.2930  148.6650 C   0  0  0  0  0  2  0  0  0  0  0  0
  189.6440  178.0500  148.6610 C   0  0  0  0  0  2  0  0  0  0  0  0
  189.0000  178.3120  139.4610 C   0  0  0  0  0  2  0  0  0  0  0  0
  188.8740  179.1270  138.2650 N   0  0  0  0  0  2  0  0  0  0  0  0
  189.2860  178.2970  137.1490 C   0  0  0  0  0  2  0  0  0  0  0  0
  190.1770  177.1820  137.6540 C   0  0  0  0  0  1  0  0  0  0  0  0
  1 13  1  0  0  0  0
  2 15  2  0  0  0  0
  3 12  2  0  0  0  0
  4 11  1  0  0  0  0
  5 26  1  0  0  0  0
  6  1  1  0  0  0  0
  7  2  1  0  0  0  0
  7  4  2  0  0  0  0
  8  7  1  0  0  0  0
  9 16  2  0  0  0  0
 11  1  2  0  0  0  0
 11  3  1  0  0  0  0
 12 10  1  0  0  0  0
 12  5  1  0  0  0  0
 13  5  1  0  0  0  0
 14  9  1  0  0  0  0
 14  8  2  0  0  0  0
 15  3  1  0  0  0  0
 16  2  1  0  0  0  0
 19 24  1  6  0  0  0
 19 25  1  0  0  0  0
 20 19  1  0  0  0  0
 20 21  2  0  0  0  0
 21 23  1  0  0  0  0
 23 18  2  0  0  0  0
 23 17  1  0  0  0  0
 25 22  1  6  0  0  0
 25  9  1  0  0  0  0
 25 18  1  0  0  0  0
 26 28  1  0  0  0  0
 26 27  1  0  0  0  0
 28 27  1  0  0  0  0
 29  8  1  0  0  0  0
 30 29  1  0  0  0  0
 31 32  1  0  0  0  0
 31 30  1  0  0  0  0
M  END
>  <MODEL>
2

>  <REMARK>
 VINA RESULT:      -9.4      2.160      4.679
  Name = 
  5 active torsions:
  status: ('A' for Active; 'I' for Inactive)
    1  A    between atoms: C_1  and  N_10
    2  A    between atoms: N_4  and  C_5
    3  A    between atoms: N_4  and  C_13
    4  A    between atoms: C_13  and  C_15
    5  A    between atoms: C_16  and  C_32
                            x       y       z     vdW  Elec       q    Type
                         _______ _______ _______ _____ _____    ______ ____

>  <TORSDO>
F 5

$$$$
=
 OpenBabel10272413343D

 32 36  0  0  1  0  0  0  0  0999 V2000
  188.9880  177.9700  144.5170 C   0  0  0  0  0  0  0  0  0  0  0  0
  185.6290  178.4370  142.0970 C   0  0  0  0  0  0  0  0  0  0  0  0
  186.6070  178.2650  144.3250 C   0  0  0  0  0  0  0  0  0  0  0  0
  188.0220  178.1470  142.3400 C   0  0  0  0  0  3  0  0  0  0  0  0
  187.6160  178.1100  146.5030 N   0  0  0  0  0  0  0  0  0  0  0  0
  190.3600  177.8140  143.9430 C   0  0  0  0  0  1  0  0  0  0  0  0
  186.9030  178.3020  141.5140 C   0  0  0  0  0  0  0  0  0  0  0  0
  187.0140  178.3240  140.1120 C   0  0  0  0  0  0  0  0  0  0  0  0
  184.6540  178.6150  139.8930 C   0  0  0  0  0  0  0  0  0  0  0  0
  185.0940  178.3800  146.2970 C   0  0  0  0  0  1  0  0  0  0  0  0
  187.8960  178.1260  143.7400 C   0  0  0  0  0  0  0  0  0  0  0  0
  186.4520  178.2520  145.6670 C   0  0  0  0  0  0  0  0  0  0  0  0
  188.8520  177.9470  145.9060 O   0  0  0  0  0  0  0  0  0  0  0  0
  185.8980  178.4870  139.3500 N   0  0  0  0  0  0  0  0  0  0  0  0
  185.4890  178.4180  143.4840 C   0  0  0  0  0  3  0  0  0  0  0  0
  184.5060  178.5940  141.2880 C   0  0  0  0  0  3  0  0  0  0  0  0
  181.7240  182.0750  138.3600 O   0  0  0  0  0  1  0  0  0  0  0  0
  183.1700  180.2740  138.8440 C   0  0  0  0  0  3  0  0  0  0  0  0
  182.2160  178.0870  139.6070 C   0  0  1  0  0  3  0  0  0  0  0  0
  180.9360  178.5260  138.9460 C   0  0  0  0  0  3  0  0  0  0  0  0
  180.8050  179.7780  138.4990 C   0  0  0  0  0  3  0  0  0  0  0  0
  183.7110  178.2670  137.7320 O   0  0  0  0  0  1  0  0  0  0  0  0
  181.9380  180.7190  138.5700 C   0  0  0  0  0  0  0  0  0  0  0  0
  182.3450  176.6410  139.5320 N   0  0  0  0  0  1  0  0  0  0  0  0
  183.4500  178.7980  139.0010 C   0  0  2  0  0  0  0  0  0  0  0  0
  187.5050  178.0290  147.9570 C   0  0  0  0  0  3  0  0  0  0  0  0
  188.8820  178.1610  148.5830 C   0  0  0  0  0  2  0  0  0  0  0  0
  188.2330  176.8000  148.4770 C   0  0  0  0  0  2  0  0  0  0  0  0
  188.3390  178.2140  139.4310 C   0  0  0  0  0  2  0  0  0  0  0  0
  188.3360  177.0710  138.5360 N   0  0  0  0  0  2  0  0  0  0  0  0
  189.7020  176.5850  138.4750 C   0  0  0  0  0  2  0  0  0  0  0  0
  190.4050  176.8960  139.7790 C   0  0  0  0  0  1  0  0  0  0  0  0
  1 13  1  0  0  0  0
  2 15  2  0  0  0  0
  3 12  2  0  0  0  0
  4 11  1  0  0  0  0
  5 26  1  0  0  0  0
  6  1  1  0  0  0  0
  7  2  1  0  0  0  0
  7  4  2  0  0  0  0
  8  7  1  0  0  0  0
  9 16  2  0  0  0  0
 11  3  1  0  0  0  0
 11  1  2  0  0  0  0
 12 10  1  0  0  0  0
 12  5  1  0  0  0  0
 13  5  1  0  0  0  0
 14  9  1  0  0  0  0
 14  8  2  0  0  0  0
 15  3  1  0  0  0  0
 16  2  1  0  0  0  0
 17 23  1  0  0  0  0
 18 25  1  0  0  0  0
 19 24  1  6  0  0  0
 20 19  1  0  0  0  0
 21 23  1  0  0  0  0
 21 20  2  0  0  0  0
 23 18  2  0  0  0  0
 25 22  1  6  0  0  0
 25 19  1  0  0  0  0
 25  9  1  0  0  0  0
 26 28  1  0  0  0  0
 26 27  1  0  0  0  0
 28 27  1  0  0  0  0
 29  8  1  0  0  0  0
 30 29  1  0  0  0  0
 31 30  1  0  0  0  0
 31 32  1  0  0  0  0
M  END
>  <MODEL>
3

>  <REMARK>
 VINA RESULT:      -8.9      2.044      4.971
  Name = 
  5 active torsions:
  status: ('A' for Active; 'I' for Inactive)
    1  A    between atoms: C_1  and  N_10
    2  A    between atoms: N_4  and  C_5
    3  A    between atoms: N_4  and  C_13
    4  A    between atoms: C_13  and  C_15
    5  A    between atoms: C_16  and  C_32
                            x       y       z     vdW  Elec       q    Type
                         _______ _______ _______ _____ _____    ______ ____

>  <TORSDO>
F 5

$$$$
=
 OpenBabel10272413343D

 32 36  0  0  1  0  0  0  0  0999 V2000
  190.1430  177.4290  144.8140 C   0  0  0  0  0  0  0  0  0  0  0  0
  187.9720  177.8820  141.2870 C   0  0  0  0  0  0  0  0  0  0  0  0
  188.0400  177.8640  143.7250 C   0  0  0  0  0  0  0  0  0  0  0  0
  190.0670  177.4570  142.4270 C   0  0  0  0  0  3  0  0  0  0  0  0
  188.1590  177.8550  146.1270 N   0  0  0  0  0  0  0  0  0  0  0  0
  191.6070  177.1250  144.8070 C   0  0  0  0  0  1  0  0  0  0  0  0
  189.3510  177.6040  141.2340 C   0  0  0  0  0  0  0  0  0  0  0  0
  189.9710  177.4820  139.9780 C   0  0  0  0  0  0  0  0  0  0  0  0
  187.8980  177.9080  138.8710 C   0  0  0  0  0  0  0  0  0  0  0  0
  185.9290  178.2730  144.9740 C   0  0  0  0  0  1  0  0  0  0  0  0
  189.4340  177.5820  143.6760 C   0  0  0  0  0  0  0  0  0  0  0  0
  187.4030  177.9930  144.9090 C   0  0  0  0  0  0  0  0  0  0  0  0
  189.5050  177.5510  146.0490 O   0  0  0  0  0  0  0  0  0  0  0  0
  189.2360  177.6440  138.8440 N   0  0  0  0  0  0  0  0  0  0  0  0
  187.3310  178.0080  142.5180 C   0  0  0  0  0  3  0  0  0  0  0  0
  187.2470  178.0340  140.1070 C   0  0  0  0  0  3  0  0  0  0  0  0
  183.4130  177.6770  137.2180 O   0  0  0  0  0  1  0  0  0  0  0  0
  185.6500  178.0310  137.8770 C   0  0  0  0  0  3  0  0  0  0  0  0
  187.5100  176.9750  136.5740 C   0  0  1  0  0  3  0  0  0  0  0  0
  186.5360  176.9030  135.4280 C   0  0  0  0  0  3  0  0  0  0  0  0
  185.2440  177.1840  135.6240 C   0  0  0  0  0  3  0  0  0  0  0  0
  187.4190  179.3360  137.0240 O   0  0  0  0  0  1  0  0  0  0  0  0
  184.7730  177.6470  136.9430 C   0  0  0  0  0  0  0  0  0  0  0  0
  188.8620  177.1550  136.0680 N   0  0  0  0  0  1  0  0  0  0  0  0
  187.1310  178.0840  137.5840 C   0  0  2  0  0  0  0  0  0  0  0  0
  187.5130  177.9250  147.4360 C   0  0  0  0  0  3  0  0  0  0  0  0
  188.5250  178.3560  148.4820 C   0  0  0  0  0  2  0  0  0  0  0  0
  188.1220  176.9040  148.3830 C   0  0  0  0  0  2  0  0  0  0  0  0
  191.4360  177.2170  139.8510 C   0  0  0  0  0  2  0  0  0  0  0  0
  191.7000  176.5090  138.6110 N   0  0  0  0  0  2  0  0  0  0  0  0
  193.1370  176.5350  138.4140 C   0  0  0  0  0  2  0  0  0  0  0  0
  193.4570  176.1410  136.9870 C   0  0  0  0  0  1  0  0  0  0  0  0
  1 13  1  0  0  0  0
  2 15  2  0  0  0  0
  3 12  2  0  0  0  0
  4 11  1  0  0  0  0
  5 26  1  0  0  0  0
  6  1  1  0  0  0  0
  7  2  1  0  0  0  0
  7  4  2  0  0  0  0
  8  7  1  0  0  0  0
  9 16  2  0  0  0  0
 11  3  1  0  0  0  0
 11  1  2  0  0  0  0
 12 10  1  0  0  0  0
 12  5  1  0  0  0  0
 13  5  1  0  0  0  0
 14  9  1  0  0  0  0
 14  8  2  0  0  0  0
 15  3  1  0  0  0  0
 16  2  1  0  0  0  0
 19 24  1  6  0  0  0
 19 25  1  0  0  0  0
 20 21  2  0  0  0  0
 20 19  1  0  0  0  0
 21 23  1  0  0  0  0
 23 17  1  0  0  0  0
 23 18  2  0  0  0  0
 25 22  1  6  0  0  0
 25 18  1  0  0  0  0
 25  9  1  0  0  0  0
 26 28  1  0  0  0  0
 26 27  1  0  0  0  0
 28 27  1  0  0  0  0
 29  8  1  0  0  0  0
 30 29  1  0  0  0  0
 31 30  1  0  0  0  0
 32 31  1  0  0  0  0
M  END
>  <MODEL>
4

>  <REMARK>
 VINA RESULT:      -8.6      1.965      4.358
  Name = 
  5 active torsions:
  status: ('A' for Active; 'I' for Inactive)
    1  A    between atoms: C_1  and  N_10
    2  A    between atoms: N_4  and  C_5
    3  A    between atoms: N_4  and  C_13
    4  A    between atoms: C_13  and  C_15
    5  A    between atoms: C_16  and  C_32
                            x       y       z     vdW  Elec       q    Type
                         _______ _______ _______ _____ _____    ______ ____

>  <TORSDO>
F 5

$$$$
=
 OpenBabel10272413343D

 32 36  0  0  1  0  0  0  0  0999 V2000
  184.0380  178.8440  141.0160 C   0  0  0  0  0  0  0  0  0  0  0  0
  187.1480  178.0190  143.6630 C   0  0  0  0  0  0  0  0  0  0  0  0
  184.7980  178.5500  143.2820 C   0  0  0  0  0  0  0  0  0  0  0  0
  186.3350  178.3150  141.4000 C   0  0  0  0  0  3  0  0  0  0  0  0
  182.4850  179.0570  142.8570 N   0  0  0  0  0  0  0  0  0  0  0  0
  184.2490  178.8830  139.5360 C   0  0  0  0  0  1  0  0  0  0  0  0
  187.3900  178.0380  142.2770 C   0  0  0  0  0  0  0  0  0  0  0  0
  188.6910  177.7780  141.8110 C   0  0  0  0  0  0  0  0  0  0  0  0
  189.4730  177.4850  144.0490 C   0  0  0  0  0  0  0  0  0  0  0  0
  183.3000  178.7880  145.2530 C   0  0  0  0  0  1  0  0  0  0  0  0
  185.0390  178.5720  141.8790 C   0  0  0  0  0  0  0  0  0  0  0  0
  183.5640  178.7910  143.7740 C   0  0  0  0  0  0  0  0  0  0  0  0
  182.7550  179.1020  141.5020 O   0  0  0  0  0  0  0  0  0  0  0  0
  189.6830  177.5040  142.7020 N   0  0  0  0  0  0  0  0  0  0  0  0
  185.8670  178.2730  144.1530 C   0  0  0  0  0  3  0  0  0  0  0  0
  188.1870  177.7420  144.5480 C   0  0  0  0  0  3  0  0  0  0  0  0
  192.7320  174.0720  144.8460 O   0  0  0  0  0  1  0  0  0  0  0  0
  191.3380  175.9430  144.4960 C   0  0  0  0  0  3  0  0  0  0  0  0
  190.0690  176.9220  146.4210 C   0  0  1  0  0  3  0  0  0  0  0  0
  191.1010  176.2740  147.3060 C   0  0  0  0  0  3  0  0  0  0  0  0
  191.9840  175.4130  146.7900 C   0  0  0  0  0  3  0  0  0  0  0  0
  191.5160  178.2350  145.0200 O   0  0  0  0  0  1  0  0  0  0  0  0
  192.0110  175.1510  145.3390 C   0  0  0  0  0  0  0  0  0  0  0  0
  189.5930  178.1540  147.0310 N   0  0  0  0  0  1  0  0  0  0  0  0
  190.6080  177.1690  144.9920 C   0  0  2  0  0  0  0  0  0  0  0  0
  181.1430  179.3830  143.3330 C   0  0  0  0  0  3  0  0  0  0  0  0
  180.3820  178.1040  143.6300 C   0  0  0  0  0  2  0  0  0  0  0  0
  180.0950  178.8690  142.3590 C   0  0  0  0  0  2  0  0  0  0  0  0
  189.0100  177.7550  140.3520 C   0  0  0  0  0  2  0  0  0  0  0  0
  190.2580  177.0470  140.1340 N   0  0  0  0  0  2  0  0  0  0  0  0
  190.3390  176.7700  138.7120 C   0  0  0  0  0  2  0  0  0  0  0  0
  189.4280  177.7200  137.9630 C   0  0  0  0  0  1  0  0  0  0  0  0
  1 13  1  0  0  0  0
  1 11  2  0  0  0  0
  2 15  2  0  0  0  0
  2 16  1  0  0  0  0
  3 12  2  0  0  0  0
  3 15  1  0  0  0  0
  4 11  1  0  0  0  0
  4  7  2  0  0  0  0
  5 26  1  0  0  0  0
  5 12  1  0  0  0  0
  6  1  1  0  0  0  0
  7  2  1  0  0  0  0
  8  7  1  0  0  0  0
  8 14  2  0  0  0  0
  9 16  2  0  0  0  0
  9 25  1  0  0  0  0
 11  3  1  0  0  0  0
 12 10  1  0  0  0  0
 13  5  1  0  0  0  0
 14  9  1  0  0  0  0
 17 23  1  0  0  0  0
 18 25  1  0  0  0  0
 18 23  2  0  0  0  0
 19 24  1  1  0  0  0
 19 20  1  0  0  0  0
 21 20  2  0  0  0  0
 23 21  1  0  0  0  0
 25 22  1  1  0  0  0
 25 19  1  0  0  0  0
 26 27  1  0  0  0  0
 28 26  1  0  0  0  0
 28 27  1  0  0  0  0
 29  8  1  0  0  0  0
 30 29  1  0  0  0  0
 31 30  1  0  0  0  0
 32 31  1  0  0  0  0
M  END
>  <MODEL>
5

>  <REMARK>
 VINA RESULT:      -8.6      2.866      7.234
  Name = 
  5 active torsions:
  status: ('A' for Active; 'I' for Inactive)
    1  A    between atoms: C_1  and  N_10
    2  A    between atoms: N_4  and  C_5
    3  A    between atoms: N_4  and  C_13
    4  A    between atoms: C_13  and  C_15
    5  A    between atoms: C_16  and  C_32
                            x       y       z     vdW  Elec       q    Type
                         _______ _______ _______ _____ _____    ______ ____

>  <TORSDO>
F 5

$$$$
=
 OpenBabel10272413343D

 32 36  0  0  1  0  0  0  0  0999 V2000
  188.4620  177.9300  144.3660 C   0  0  0  0  0  0  0  0  0  0  0  0
  184.8160  178.5230  142.4390 C   0  0  0  0  0  0  0  0  0  0  0  0
  186.0850  178.2860  144.5080 C   0  0  0  0  0  0  0  0  0  0  0  0
  187.2110  178.1720  142.3450 C   0  0  0  0  0  3  0  0  0  0  0  0
  187.3800  178.0650  146.5230 N   0  0  0  0  0  0  0  0  0  0  0  0
  189.7380  177.7530  143.6050 C   0  0  0  0  0  1  0  0  0  0  0  0
  185.9940  178.3690  141.6840 C   0  0  0  0  0  0  0  0  0  0  0  0
  185.9120  178.4160  140.2810 C   0  0  0  0  0  0  0  0  0  0  0  0
  183.5520  178.7660  140.3940 C   0  0  0  0  0  0  0  0  0  0  0  0
  184.8610  178.3980  146.6710 C   0  0  0  0  0  1  0  0  0  0  0  0
  187.2780  178.1280  143.7490 C   0  0  0  0  0  0  0  0  0  0  0  0
  186.1160  178.2500  145.8580 C   0  0  0  0  0  0  0  0  0  0  0  0
  188.5180  177.8840  145.7590 O   0  0  0  0  0  0  0  0  0  0  0  0
  184.7070  178.6200  139.6830 N   0  0  0  0  0  0  0  0  0  0  0  0
  184.8670  178.4810  143.8320 C   0  0  0  0  0  3  0  0  0  0  0  0
  183.5970  178.7230  141.7950 C   0  0  0  0  0  3  0  0  0  0  0  0
  180.2900  176.3510  137.8590 O   0  0  0  0  0  1  0  0  0  0  0  0
  181.6760  177.6650  139.2430 C   0  0  0  0  0  3  0  0  0  0  0  0
  182.4520  179.9100  138.4490 C   0  0  1  0  0  3  0  0  0  0  0  0
  181.2650  179.8850  137.5230 C   0  0  0  0  0  3  0  0  0  0  0  0
  180.5450  178.7680  137.3830 C   0  0  0  0  0  3  0  0  0  0  0  0
  181.3230  179.5960  140.5490 O   0  0  0  0  0  1  0  0  0  0  0  0
  180.8520  177.5750  138.1930 C   0  0  0  0  0  0  0  0  0  0  0  0
  182.7450  181.2780  138.8460 N   0  0  0  0  0  1  0  0  0  0  0  0
  182.2430  178.9960  139.6790 C   0  0  2  0  0  0  0  0  0  0  0  0
  187.4680  177.9580  147.9780 C   0  0  0  0  0  3  0  0  0  0  0  0
  188.9200  178.0520  148.4100 C   0  0  0  0  0  2  0  0  0  0  0  0
  188.2340  176.7060  148.3730 C   0  0  0  0  0  2  0  0  0  0  0  0
  187.1280  178.2880  139.4220 C   0  0  0  0  0  2  0  0  0  0  0  0
  186.8190  178.7200  138.0700 N   0  0  0  0  0  2  0  0  0  0  0  0
  187.7110  177.9920  137.1870 C   0  0  0  0  0  2  0  0  0  0  0  0
  188.9740  178.7980  136.9700 C   0  0  0  0  0  1  0  0  0  0  0  0
  1 13  1  0  0  0  0
  2 15  2  0  0  0  0
  3 12  2  0  0  0  0
  4 11  1  0  0  0  0
  5 26  1  0  0  0  0
  6  1  1  0  0  0  0
  7  4  2  0  0  0  0
  7  2  1  0  0  0  0
  8  7  1  0  0  0  0
  9 16  2  0  0  0  0
 11  1  2  0  0  0  0
 11  3  1  0  0  0  0
 12  5  1  0  0  0  0
 12 10  1  0  0  0  0
 13  5  1  0  0  0  0
 14  8  2  0  0  0  0
 14  9  1  0  0  0  0
 15  3  1  0  0  0  0
 16  2  1  0  0  0  0
 17 23  1  0  0  0  0
 18 25  1  0  0  0  0
 19 24  1  1  0  0  0
 19 25  1  0  0  0  0
 20 19  1  0  0  0  0
 21 20  2  0  0  0  0
 21 23  1  0  0  0  0
 23 18  2  0  0  0  0
 25  9  1  0  0  0  0
 25 22  1  1  0  0  0
 26 28  1  0  0  0  0
 26 27  1  0  0  0  0
 28 27  1  0  0  0  0
 29  8  1  0  0  0  0
 30 29  1  0  0  0  0
 31 30  1  0  0  0  0
 32 31  1  0  0  0  0
M  END
>  <MODEL>
6

>  <REMARK>
 VINA RESULT:      -8.5      2.405      5.014
  Name = 
  5 active torsions:
  status: ('A' for Active; 'I' for Inactive)
    1  A    between atoms: C_1  and  N_10
    2  A    between atoms: N_4  and  C_5
    3  A    between atoms: N_4  and  C_13
    4  A    between atoms: C_13  and  C_15
    5  A    between atoms: C_16  and  C_32
                            x       y       z     vdW  Elec       q    Type
                         _______ _______ _______ _____ _____    ______ ____

>  <TORSDO>
F 5

$$$$
=
 OpenBabel10272413343D

 32 36  0  0  1  0  0  0  0  0999 V2000
  188.4350  177.7040  145.6220 C   0  0  0  0  0  0  0  0  0  0  0  0
  188.4940  177.6500  141.4570 C   0  0  0  0  0  0  0  0  0  0  0  0
  189.6250  177.2480  143.5800 C   0  0  0  0  0  0  0  0  0  0  0  0
  187.3330  178.0850  143.5380 C   0  0  0  0  0  3  0  0  0  0  0  0
  190.6950  176.8490  145.6970 N   0  0  0  0  0  0  0  0  0  0  0  0
  187.2330  178.1550  146.3900 C   0  0  0  0  0  1  0  0  0  0  0  0
  187.3380  178.0740  142.1390 C   0  0  0  0  0  0  0  0  0  0  0  0
  186.2180  178.4790  141.3910 C   0  0  0  0  0  0  0  0  0  0  0  0
  187.3770  178.0380  139.3490 C   0  0  0  0  0  0  0  0  0  0  0  0
  191.9660  176.4080  143.5370 C   0  0  0  0  0  1  0  0  0  0  0  0
  188.4600  177.6790  144.2730 C   0  0  0  0  0  0  0  0  0  0  0  0
  190.7230  176.8490  144.2570 C   0  0  0  0  0  0  0  0  0  0  0  0
  189.5600  177.3010  146.3430 O   0  0  0  0  0  0  0  0  0  0  0  0
  186.2670  178.4410  140.0310 N   0  0  0  0  0  0  0  0  0  0  0  0
  189.6190  177.2430  142.1730 C   0  0  0  0  0  3  0  0  0  0  0  0
  188.5130  177.6300  140.0640 C   0  0  0  0  0  3  0  0  0  0  0  0
  187.0960  174.9040  135.7430 O   0  0  0  0  0  1  0  0  0  0  0  0
  187.0510  176.6110  137.3700 C   0  0  0  0  0  3  0  0  0  0  0  0
  188.7540  178.4470  137.2910 C   0  0  1  0  0  3  0  0  0  0  0  0
  188.9080  178.1080  135.8320 C   0  0  0  0  0  3  0  0  0  0  0  0
  188.3310  177.0120  135.3310 C   0  0  0  0  0  3  0  0  0  0  0  0
  186.3870  178.8740  137.3480 O   0  0  0  0  0  1  0  0  0  0  0  0
  187.4690  176.1680  136.1790 C   0  0  0  0  0  0  0  0  0  0  0  0
  188.9840  179.8680  137.4980 N   0  0  0  0  0  1  0  0  0  0  0  0
  187.3750  178.0100  137.8400 C   0  0  2  0  0  0  0  0  0  0  0  0
  191.8720  176.4850  146.4820 C   0  0  0  0  0  3  0  0  0  0  0  0
  191.5080  175.3920  147.4710 C   0  0  0  0  0  2  0  0  0  0  0  0
  191.6550  176.8180  147.9490 C   0  0  0  0  0  2  0  0  0  0  0  0
  184.9510  178.9140  142.0520 C   0  0  0  0  0  2  0  0  0  0  0  0
  183.8520  178.0790  141.6010 N   0  0  0  0  0  2  0  0  0  0  0  0
  182.6280  178.7810  141.9420 C   0  0  0  0  0  2  0  0  0  0  0  0
  181.6100  178.5830  140.8390 C   0  0  0  0  0  1  0  0  0  0  0  0
  1 13  1  0  0  0  0
  1  6  1  0  0  0  0
  2  7  1  0  0  0  0
  2 15  2  0  0  0  0
  3 12  2  0  0  0  0
  3 11  1  0  0  0  0
  4 11  1  0  0  0  0
  5 13  1  0  0  0  0
  5 26  1  0  0  0  0
  7  4  2  0  0  0  0
  8 29  1  0  0  0  0
  8  7  1  0  0  0  0
  9 14  1  0  0  0  0
  9 16  2  0  0  0  0
 10 12  1  0  0  0  0
 11  1  2  0  0  0  0
 12  5  1  0  0  0  0
 14  8  2  0  0  0  0
 15  3  1  0  0  0  0
 16  2  1  0  0  0  0
 17 23  1  0  0  0  0
 18 25  1  0  0  0  0
 19 24  1  6  0  0  0
 19 25  1  0  0  0  0
 20 19  1  0  0  0  0
 21 20  2  0  0  0  0
 21 23  1  0  0  0  0
 23 18  2  0  0  0  0
 25 22  1  6  0  0  0
 25  9  1  0  0  0  0
 26 27  1  0  0  0  0
 26 28  1  0  0  0  0
 27 28  1  0  0  0  0
 30 31  1  0  0  0  0
 30 29  1  0  0  0  0
 32 31  1  0  0  0  0
M  END
>  <MODEL>
7

>  <REMARK>
 VINA RESULT:      -8.5      1.941      2.328
  Name = 
  5 active torsions:
  status: ('A' for Active; 'I' for Inactive)
    1  A    between atoms: C_1  and  N_10
    2  A    between atoms: N_4  and  C_5
    3  A    between atoms: N_4  and  C_13
    4  A    between atoms: C_13  and  C_15
    5  A    between atoms: C_16  and  C_32
                            x       y       z     vdW  Elec       q    Type
                         _______ _______ _______ _____ _____    ______ ____

>  <TORSDO>
F 5

$$$$
=
 OpenBabel10272413343D

 32 36  0  0  1  0  0  0  0  0999 V2000
  184.0680  178.6500  144.7490 C   0  0  0  0  0  0  0  0  0  0  0  0
  186.5040  178.1140  141.4110 C   0  0  0  0  0  0  0  0  0  0  0  0
  184.3090  178.6090  142.3540 C   0  0  0  0  0  0  0  0  0  0  0  0
  186.2140  178.1740  143.8160 C   0  0  0  0  0  3  0  0  0  0  0  0
  182.1680  179.1120  143.3270 N   0  0  0  0  0  0  0  0  0  0  0  0
  184.5960  178.5190  146.1420 C   0  0  0  0  0  1  0  0  0  0  0  0
  187.0450  177.9890  142.7050 C   0  0  0  0  0  0  0  0  0  0  0  0
  188.4100  177.6810  142.8430 C   0  0  0  0  0  0  0  0  0  0  0  0
  188.6760  177.6310  140.4710 C   0  0  0  0  0  0  0  0  0  0  0  0
  182.4150  179.0260  140.7960 C   0  0  0  0  0  1  0  0  0  0  0  0
  184.8520  178.4820  143.6630 C   0  0  0  0  0  0  0  0  0  0  0  0
  183.0040  178.9070  142.1730 C   0  0  0  0  0  0  0  0  0  0  0  0
  182.7150  178.9520  144.5860 O   0  0  0  0  0  0  0  0  0  0  0  0
  189.1800  177.5200  141.7330 N   0  0  0  0  0  0  0  0  0  0  0  0
  185.1540  178.4190  141.2440 C   0  0  0  0  0  3  0  0  0  0  0  0
  187.3190  177.9360  140.2960 C   0  0  0  0  0  3  0  0  0  0  0  0
  188.8680  175.1690  136.3710 O   0  0  0  0  0  1  0  0  0  0  0  0
  188.8640  176.6090  138.2390 C   0  0  0  0  0  3  0  0  0  0  0  0
  190.8990  176.7620  139.6920 C   0  0  1  0  0  3  0  0  0  0  0  0
  191.6680  176.2530  138.5020 C   0  0  0  0  0  3  0  0  0  0  0  0
  191.0190  175.8020  137.4250 C   0  0  0  0  0  3  0  0  0  0  0  0
  189.8660  178.6930  138.6990 O   0  0  0  0  0  1  0  0  0  0  0  0
  189.5480  175.8730  137.3550 C   0  0  0  0  0  0  0  0  0  0  0  0
  191.7350  177.6530  140.4810 N   0  0  0  0  0  1  0  0  0  0  0  0
  189.5770  177.4490  139.2730 C   0  0  2  0  0  0  0  0  0  0  0  0
  180.7370  179.3770  143.1940 C   0  0  0  0  0  3  0  0  0  0  0  0
  179.9820  178.6750  144.3090 C   0  0  0  0  0  2  0  0  0  0  0  0
  179.9820  178.0870  142.9170 C   0  0  0  0  0  2  0  0  0  0  0  0
  189.0520  177.5620  144.1860 C   0  0  0  0  0  2  0  0  0  0  0  0
  190.3750  176.9780  144.0470 N   0  0  0  0  0  2  0  0  0  0  0  0
  191.1380  177.3910  145.2100 C   0  0  0  0  0  2  0  0  0  0  0  0
  190.3780  177.0220  146.4670 C   0  0  0  0  0  1  0  0  0  0  0  0
  1  6  1  0  0  0  0
  2  7  1  0  0  0  0
  3 11  1  0  0  0  0
  5 13  1  0  0  0  0
  7  8  1  0  0  0  0
  7  4  2  0  0  0  0
  8 29  1  0  0  0  0
  9 14  1  0  0  0  0
 10 12  1  0  0  0  0
 11  4  1  0  0  0  0
 11  1  2  0  0  0  0
 12  3  2  0  0  0  0
 12  5  1  0  0  0  0
 13  1  1  0  0  0  0
 14  8  2  0  0  0  0
 15  2  2  0  0  0  0
 15  3  1  0  0  0  0
 16  9  2  0  0  0  0
 16  2  1  0  0  0  0
 17 23  1  0  0  0  0
 18 25  1  0  0  0  0
 19 24  1  6  0  0  0
 20 19  1  0  0  0  0
 21 20  2  0  0  0  0
 23 21  1  0  0  0  0
 23 18  2  0  0  0  0
 25 22  1  6  0  0  0
 25 19  1  0  0  0  0
 25  9  1  0  0  0  0
 26  5  1  0  0  0  0
 26 27  1  0  0  0  0
 28 26  1  0  0  0  0
 28 27  1  0  0  0  0
 30 29  1  0  0  0  0
 30 31  1  0  0  0  0
 31 32  1  0  0  0  0
M  END
>  <MODEL>
8

>  <REMARK>
 VINA RESULT:      -8.2      2.464      5.496
  Name = 
  5 active torsions:
  status: ('A' for Active; 'I' for Inactive)
    1  A    between atoms: C_1  and  N_10
    2  A    between atoms: N_4  and  C_5
    3  A    between atoms: N_4  and  C_13
    4  A    between atoms: C_13  and  C_15
    5  A    between atoms: C_16  and  C_32
                            x       y       z     vdW  Elec       q    Type
                         _______ _______ _______ _____ _____    ______ ____

>  <TORSDO>
F 5

$$$$
=
 OpenBabel10272413343D

 32 36  0  0  1  0  0  0  0  0999 V2000
  189.3940  176.9760  136.8400 C   0  0  0  0  0  0  0  0  0  0  0  0
  190.2380  177.2160  140.9130 C   0  0  0  0  0  0  0  0  0  0  0  0
  190.9650  176.6990  138.6430 C   0  0  0  0  0  0  0  0  0  0  0  0
  188.6950  177.4880  139.0660 C   0  0  0  0  0  3  0  0  0  0  0  0
  191.6450  176.2190  136.3860 N   0  0  0  0  0  0  0  0  0  0  0  0
  188.0520  177.3360  136.2890 C   0  0  0  0  0  1  0  0  0  0  0  0
  188.9620  177.5720  140.4370 C   0  0  0  0  0  0  0  0  0  0  0  0
  187.9890  178.0030  141.3560 C   0  0  0  0  0  0  0  0  0  0  0  0
  189.5260  177.7330  143.1640 C   0  0  0  0  0  0  0  0  0  0  0  0
  193.2910  175.8850  138.2990 C   0  0  0  0  0  1  0  0  0  0  0  0
  189.6760  177.0560  138.1570 C   0  0  0  0  0  0  0  0  0  0  0  0
  191.9310  176.2820  137.7970 C   0  0  0  0  0  0  0  0  0  0  0  0
  190.3750  176.5430  135.9470 O   0  0  0  0  0  0  0  0  0  0  0  0
  188.2990  178.0780  142.6800 N   0  0  0  0  0  0  0  0  0  0  0  0
  191.2220  176.7850  140.0240 C   0  0  0  0  0  3  0  0  0  0  0  0
  190.5200  177.2970  142.2750 C   0  0  0  0  0  3  0  0  0  0  0  0
  192.3670  175.7870  146.4880 O   0  0  0  0  0  1  0  0  0  0  0  0
  191.0300  177.0000  144.9690 C   0  0  0  0  0  3  0  0  0  0  0  0
  188.6020  177.3610  145.4680 C   0  0  1  0  0  3  0  0  0  0  0  0
  188.9630  177.1250  146.9110 C   0  0  0  0  0  3  0  0  0  0  0  0
  190.1810  176.6800  147.2350 C   0  0  0  0  0  3  0  0  0  0  0  0
  190.1080  179.1700  144.9750 O   0  0  0  0  0  1  0  0  0  0  0  0
  191.2100  176.4950  146.1950 C   0  0  0  0  0  0  0  0  0  0  0  0
  187.4950  178.3000  145.3800 N   0  0  0  0  0  1  0  0  0  0  0  0
  189.8190  177.8400  144.6410 C   0  0  2  0  0  0  0  0  0  0  0  0
  192.6300  175.7190  135.4300 C   0  0  0  0  0  3  0  0  0  0  0  0
  191.9300  174.9170  134.3480 C   0  0  0  0  0  2  0  0  0  0  0  0
  192.6690  174.2000  135.4530 C   0  0  0  0  0  2  0  0  0  0  0  0
  186.6260  178.4220  140.9130 C   0  0  0  0  0  2  0  0  0  0  0  0
  185.9920  179.2080  141.9580 N   0  0  0  0  0  2  0  0  0  0  0  0
  184.7950  178.4880  142.3520 C   0  0  0  0  0  2  0  0  0  0  0  0
  184.3220  178.9980  143.6970 C   0  0  0  0  0  1  0  0  0  0  0  0
  1 11  2  0  0  0  0
  2 16  1  0  0  0  0
  3 15  1  0  0  0  0
  4  7  2  0  0  0  0
  5 12  1  0  0  0  0
  6  1  1  0  0  0  0
  7  2  1  0  0  0  0
  7  8  1  0  0  0  0
  8 14  2  0  0  0  0
  9 25  1  0  0  0  0
 11  3  1  0  0  0  0
 11  4  1  0  0  0  0
 12 10  1  0  0  0  0
 12  3  2  0  0  0  0
 13  5  1  0  0  0  0
 13  1  1  0  0  0  0
 14  9  1  0  0  0  0
 15  2  2  0  0  0  0
 16  9  2  0  0  0  0
 18 23  2  0  0  0  0
 19 24  1  1  0  0  0
 19 20  1  0  0  0  0
 20 21  2  0  0  0  0
 23 17  1  0  0  0  0
 23 21  1  0  0  0  0
 25 18  1  0  0  0  0
 25 22  1  1  0  0  0
 25 19  1  0  0  0  0
 26 28  1  0  0  0  0
 26  5  1  0  0  0  0
 27 26  1  0  0  0  0
 27 28  1  0  0  0  0
 29  8  1  0  0  0  0
 29 30  1  0  0  0  0
 30 31  1  0  0  0  0
 31 32  1  0  0  0  0
M  END
>  <MODEL>
9

>  <REMARK>
 VINA RESULT:      -8.1      2.494      8.412
  Name = 
  5 active torsions:
  status: ('A' for Active; 'I' for Inactive)
    1  A    between atoms: C_1  and  N_10
    2  A    between atoms: N_4  and  C_5
    3  A    between atoms: N_4  and  C_13
    4  A    between atoms: C_13  and  C_15
    5  A    between atoms: C_16  and  C_32
                            x       y       z     vdW  Elec       q    Type
                         _______ _______ _______ _____ _____    ______ ____

>  <TORSDO>
F 5

$$$$
