=
 OpenBabel10272401003D

 27 31  0  0  1  0  0  0  0  0999 V2000
  189.4350  176.3020  143.2850 N   0  0  2  0  0  0  0  0  0  0  0  0
  188.2560  177.5430  144.8230 C   0  0  0  0  0  0  0  0  0  0  0  0
  188.2340  176.8810  142.5950 C   0  0  1  0  0  3  0  0  0  0  0  0
  184.3430  178.9860  145.0320 C   0  0  0  0  0  3  0  0  0  0  0  0
  182.2180  179.4110  143.9730 O   0  0  0  0  0  1  0  0  0  0  0  0
  187.8000  178.0660  146.0370 C   0  0  0  0  0  3  0  0  0  0  0  0
  185.3020  177.8880  142.6310 C   0  0  0  0  0  3  0  0  0  0  0  0
  188.6420  178.7890  139.3880 O   0  0  0  0  0  1  0  0  0  0  0  0
  183.9950  178.3790  142.7080 C   0  0  0  0  0  3  0  0  0  0  0  0
  190.0710  176.9590  139.9430 C   0  0  0  0  0  2  0  0  0  0  0  0
  187.4500  177.4680  143.7230 C   0  0  0  0  0  0  0  0  0  0  0  0
  189.5040  176.9240  144.5540 N   0  0  0  0  0  0  0  0  0  0  0  0
  183.5170  178.9260  143.9040 C   0  0  0  0  0  0  0  0  0  0  0  0
  185.6510  178.5000  144.9670 C   0  0  0  0  0  0  0  0  0  0  0  0
  190.7420  176.2690  142.6020 C   0  0  0  0  0  2  0  0  0  0  0  0
  186.1350  177.9450  143.7540 C   0  0  0  0  0  0  0  0  0  0  0  0
  188.7320  177.6550  140.1930 C   0  0  1  0  0  3  0  0  0  0  0  0
  186.4840  178.5550  146.1000 C   0  0  0  0  0  3  0  0  0  0  0  0
  191.2750  177.6630  140.5860 C   0  0  0  0  0  2  0  0  0  0  0  0
  191.2410  177.6250  142.1180 C   0  0  0  0  0  2  0  0  0  0  0  0
  188.5210  178.0560  141.6490 C   0  0  0  0  0  2  0  0  0  0  0  0
  192.2810  175.7950  147.5650 C   0  0  0  0  0  3  0  0  0  0  0  0
  190.4410  176.5360  145.5770 C   0  0  0  0  0  0  0  0  0  0  0  0
  190.3770  177.1090  146.8560 C   0  0  0  0  0  3  0  0  0  0  0  0
  191.2920  176.7390  147.8460 C   0  0  0  0  0  3  0  0  0  0  0  0
  192.3570  175.2200  146.2930 C   0  0  0  0  0  3  0  0  0  0  0  0
  191.4420  175.5900  145.3040 C   0  0  0  0  0  3  0  0  0  0  0  0
  1 15  1  6  0  0  0
  1 12  1  0  0  0  0
  2  6  1  0  0  0  0
  3 21  1  6  0  0  0
  3  1  1  0  0  0  0
  3 11  1  0  0  0  0
  6 18  2  0  0  0  0
  7  9  2  0  0  0  0
  7 16  1  0  0  0  0
  9 13  1  0  0  0  0
 10 17  1  0  0  0  0
 10 19  1  0  0  0  0
 11 16  1  0  0  0  0
 11  2  2  0  0  0  0
 12  2  1  0  0  0  0
 12 23  1  0  0  0  0
 13  5  1  0  0  0  0
 13  4  2  0  0  0  0
 14  4  1  0  0  0  0
 14 18  1  0  0  0  0
 16 14  2  0  0  0  0
 17  8  1  6  0  0  0
 17 21  1  0  0  0  0
 19 20  1  0  0  0  0
 20 15  1  0  0  0  0
 22 25  1  0  0  0  0
 23 24  1  0  0  0  0
 24 25  2  0  0  0  0
 26 22  2  0  0  0  0
 27 23  2  0  0  0  0
 27 26  1  0  0  0  0
M  END
>  <MODEL>
1

>  <REMARK>
 VINA RESULT:     -11.2      0.000      0.000
  Name = 
  1 active torsions:
  status: ('A' for Active; 'I' for Inactive)
    1  A    between atoms: C_9  and  N_15
                            x       y       z     vdW  Elec       q    Type
                         _______ _______ _______ _____ _____    ______ ____

>  <TORSDO>
F 1

$$$$
=
 OpenBabel10272401003D

 27 31  0  0  1  0  0  0  0  0999 V2000
  187.9130  177.0320  143.7370 N   0  0  2  0  0  0  0  0  0  0  0  0
  186.1670  178.3200  144.5030 C   0  0  0  0  0  0  0  0  0  0  0  0
  186.9960  177.3120  142.5810 C   0  0  1  0  0  3  0  0  0  0  0  0
  182.3370  179.1930  143.0880 C   0  0  0  0  0  3  0  0  0  0  0  0
  180.7050  179.1280  141.3120 O   0  0  0  0  0  1  0  0  0  0  0  0
  185.2660  178.9610  145.3610 C   0  0  0  0  0  3  0  0  0  0  0  0
  184.1750  177.8740  141.4240 C   0  0  0  0  0  3  0  0  0  0  0  0
  188.3720  178.7160  139.3830 O   0  0  0  0  0  1  0  0  0  0  0  0
  182.8930  178.1750  140.9560 C   0  0  0  0  0  3  0  0  0  0  0  0
  189.6480  177.2270  140.7440 C   0  0  0  0  0  2  0  0  0  0  0  0
  185.8170  177.9530  143.2360 C   0  0  0  0  0  0  0  0  0  0  0  0
  187.4730  177.8550  144.8010 N   0  0  0  0  0  0  0  0  0  0  0  0
  181.9760  178.8320  141.7840 C   0  0  0  0  0  0  0  0  0  0  0  0
  183.6160  178.8980  143.5660 C   0  0  0  0  0  0  0  0  0  0  0  0
  189.3760  177.0800  143.5550 C   0  0  0  0  0  2  0  0  0  0  0  0
  184.5440  178.2320  142.7250 C   0  0  0  0  0  0  0  0  0  0  0  0
  188.2580  177.7520  140.3830 C   0  0  1  0  0  3  0  0  0  0  0  0
  183.9810  179.2570  144.8770 C   0  0  0  0  0  3  0  0  0  0  0  0
  190.4830  178.1940  141.5990 C   0  0  0  0  0  2  0  0  0  0  0  0
  189.9060  178.3990  143.0030 C   0  0  0  0  0  2  0  0  0  0  0  0
  187.5090  178.3480  141.5700 C   0  0  0  0  0  2  0  0  0  0  0  0
  189.0630  177.6450  148.7360 C   0  0  0  0  0  3  0  0  0  0  0  0
  188.0110  177.7770  146.1360 C   0  0  0  0  0  0  0  0  0  0  0  0
  187.2130  178.1000  147.2440 C   0  0  0  0  0  3  0  0  0  0  0  0
  187.7360  178.0330  148.5390 C   0  0  0  0  0  3  0  0  0  0  0  0
  189.8680  177.3260  147.6400 C   0  0  0  0  0  3  0  0  0  0  0  0
  189.3440  177.3920  146.3460 C   0  0  0  0  0  3  0  0  0  0  0  0
  1 15  1  6  0  0  0
  1 12  1  0  0  0  0
  2 12  1  0  0  0  0
  2  6  1  0  0  0  0
  3 21  1  6  0  0  0
  3 11  1  0  0  0  0
  3  1  1  0  0  0  0
  4 14  1  0  0  0  0
  5 13  1  0  0  0  0
  7 16  1  0  0  0  0
  9  7  2  0  0  0  0
  9 13  1  0  0  0  0
 10 19  1  0  0  0  0
 11  2  2  0  0  0  0
 12 23  1  0  0  0  0
 13  4  2  0  0  0  0
 14 18  1  0  0  0  0
 16 11  1  0  0  0  0
 16 14  2  0  0  0  0
 17  8  1  6  0  0  0
 17 10  1  0  0  0  0
 17 21  1  0  0  0  0
 18  6  2  0  0  0  0
 19 20  1  0  0  0  0
 20 15  1  0  0  0  0
 23 27  2  0  0  0  0
 23 24  1  0  0  0  0
 24 25  2  0  0  0  0
 25 22  1  0  0  0  0
 26 22  2  0  0  0  0
 27 26  1  0  0  0  0
M  END
>  <MODEL>
2

>  <REMARK>
 VINA RESULT:     -10.3      1.602      2.404
  Name = 
  1 active torsions:
  status: ('A' for Active; 'I' for Inactive)
    1  A    between atoms: C_9  and  N_15
                            x       y       z     vdW  Elec       q    Type
                         _______ _______ _______ _____ _____    ______ ____

>  <TORSDO>
F 1

$$$$
=
 OpenBabel10272401003D

 27 31  0  0  1  0  0  0  0  0999 V2000
  186.4130  177.5050  143.0250 N   0  0  2  0  0  0  0  0  0  0  0  0
  188.6900  177.8370  143.0360 C   0  0  0  0  0  0  0  0  0  0  0  0
  186.8880  177.4400  144.4480 C   0  0  1  0  0  3  0  0  0  0  0  0
  191.7470  177.0480  145.7690 C   0  0  0  0  0  3  0  0  0  0  0  0
  192.4470  176.4080  147.9870 O   0  0  0  0  0  1  0  0  0  0  0  0
  190.0170  177.9530  142.6080 C   0  0  0  0  0  3  0  0  0  0  0  0
  189.0640  176.7950  146.5610 C   0  0  0  0  0  3  0  0  0  0  0  0
  185.2320  179.5380  147.0840 O   0  0  0  0  0  1  0  0  0  0  0  0
  190.0930  176.5380  147.4710 C   0  0  0  0  0  3  0  0  0  0  0  0
  184.0060  178.6610  145.2320 C   0  0  0  0  0  2  0  0  0  0  0  0
  188.3750  177.4500  144.3060 C   0  0  0  0  0  0  0  0  0  0  0  0
  187.5100  177.9700  142.2610 N   0  0  0  0  0  0  0  0  0  0  0  0
  191.4300  176.6640  147.0770 C   0  0  0  0  0  0  0  0  0  0  0  0
  190.7260  177.3080  144.8510 C   0  0  0  0  0  0  0  0  0  0  0  0
  185.1570  178.2020  142.6900 C   0  0  0  0  0  2  0  0  0  0  0  0
  189.3720  177.1800  145.2510 C   0  0  0  0  0  0  0  0  0  0  0  0
  185.2600  178.5500  146.1010 C   0  0  1  0  0  3  0  0  0  0  0  0
  191.0410  177.6920  143.5340 C   0  0  0  0  0  3  0  0  0  0  0  0
  184.0350  179.8300  144.2340 C   0  0  0  0  0  2  0  0  0  0  0  0
  185.0970  179.6560  143.1430 C   0  0  0  0  0  2  0  0  0  0  0  0
  186.5580  178.6680  145.3090 C   0  0  0  0  0  2  0  0  0  0  0  0
  187.4750  178.1460  138.0150 C   0  0  0  0  0  3  0  0  0  0  0  0
  187.5000  178.0360  140.8220 C   0  0  0  0  0  0  0  0  0  0  0  0
  186.3360  178.4130  140.1340 C   0  0  0  0  0  3  0  0  0  0  0  0
  186.3240  178.4690  138.7380 C   0  0  0  0  0  3  0  0  0  0  0  0
  188.6380  177.7650  138.6900 C   0  0  0  0  0  3  0  0  0  0  0  0
  188.6500  177.7100  140.0860 C   0  0  0  0  0  3  0  0  0  0  0  0
  1 15  1  1  0  0  0
  1  3  1  0  0  0  0
  2 11  1  0  0  0  0
  3 21  1  1  0  0  0
  4 13  2  0  0  0  0
  6  2  2  0  0  0  0
  6 18  1  0  0  0  0
  7  9  2  0  0  0  0
 10 17  1  0  0  0  0
 11  3  1  0  0  0  0
 11 16  2  0  0  0  0
 12  1  1  0  0  0  0
 12  2  1  0  0  0  0
 13  9  1  0  0  0  0
 13  5  1  0  0  0  0
 14 16  1  0  0  0  0
 14  4  1  0  0  0  0
 15 20  1  0  0  0  0
 16  7  1  0  0  0  0
 17  8  1  1  0  0  0
 18 14  2  0  0  0  0
 19 10  1  0  0  0  0
 20 19  1  0  0  0  0
 21 17  1  0  0  0  0
 22 26  2  0  0  0  0
 22 25  1  0  0  0  0
 23 12  1  0  0  0  0
 24 23  1  0  0  0  0
 25 24  2  0  0  0  0
 26 27  1  0  0  0  0
 27 23  2  0  0  0  0
M  END
>  <MODEL>
3

>  <REMARK>
 VINA RESULT:     -10.3      2.565      6.871
  Name = 
  1 active torsions:
  status: ('A' for Active; 'I' for Inactive)
    1  A    between atoms: C_9  and  N_15
                            x       y       z     vdW  Elec       q    Type
                         _______ _______ _______ _____ _____    ______ ____

>  <TORSDO>
F 1

$$$$
=
 OpenBabel10272401003D

 27 31  0  0  1  0  0  0  0  0999 V2000
  186.4150  177.0910  144.6330 N   0  0  2  0  0  0  0  0  0  0  0  0
  186.8770  178.1060  142.6190 C   0  0  0  0  0  0  0  0  0  0  0  0
  187.8700  176.8830  144.3280 C   0  0  1  0  0  3  0  0  0  0  0  0
  189.9420  177.7580  139.8050 C   0  0  0  0  0  3  0  0  0  0  0  0
  192.1170  176.9210  139.1850 O   0  0  0  0  0  1  0  0  0  0  0  0
  186.7120  178.7150  141.3710 C   0  0  0  0  0  3  0  0  0  0  0  0
  190.2010  176.5230  142.3150 C   0  0  0  0  0  3  0  0  0  0  0  0
  190.4750  177.7670  146.8830 O   0  0  0  0  0  1  0  0  0  0  0  0
  191.2250  176.4170  141.3690 C   0  0  0  0  0  3  0  0  0  0  0  0
  188.3230  176.9570  147.5220 C   0  0  0  0  0  2  0  0  0  0  0  0
  187.9940  177.3850  142.9260 C   0  0  0  0  0  0  0  0  0  0  0  0
  185.9380  178.0230  143.6800 N   0  0  0  0  0  0  0  0  0  0  0  0
  191.0960  177.0310  140.1180 C   0  0  0  0  0  0  0  0  0  0  0  0
  188.9130  177.8720  140.7430 C   0  0  0  0  0  0  0  0  0  0  0  0
  185.9810  177.4170  146.0050 C   0  0  0  0  0  2  0  0  0  0  0  0
  189.0440  177.2490  142.0100 C   0  0  0  0  0  0  0  0  0  0  0  0
  189.3680  177.0630  146.4110 C   0  0  1  0  0  3  0  0  0  0  0  0
  187.7490  178.5990  140.4310 C   0  0  0  0  0  3  0  0  0  0  0  0
  187.5430  178.2570  147.7780 C   0  0  0  0  0  2  0  0  0  0  0  0
  186.6420  178.6520  146.6050 C   0  0  0  0  0  2  0  0  0  0  0  0
  188.8440  177.7410  145.1490 C   0  0  0  0  0  2  0  0  0  0  0  0
  181.8460  179.0960  143.2880 C   0  0  0  0  0  3  0  0  0  0  0  0
  184.5490  178.3800  143.5490 C   0  0  0  0  0  0  0  0  0  0  0  0
  183.8960  178.2600  142.3120 C   0  0  0  0  0  3  0  0  0  0  0  0
  182.5510  178.6150  142.1820 C   0  0  0  0  0  3  0  0  0  0  0  0
  182.4860  179.2230  144.5230 C   0  0  0  0  0  3  0  0  0  0  0  0
  183.8310  178.8680  144.6520 C   0  0  0  0  0  3  0  0  0  0  0  0
  1 15  1  1  0  0  0
  2 11  1  0  0  0  0
  2 12  1  0  0  0  0
  3  1  1  0  0  0  0
  3 21  1  1  0  0  0
  4 13  2  0  0  0  0
  4 14  1  0  0  0  0
  5 13  1  0  0  0  0
  6  2  2  0  0  0  0
  9  7  2  0  0  0  0
 10 19  1  0  0  0  0
 11  3  1  0  0  0  0
 12  1  1  0  0  0  0
 13  9  1  0  0  0  0
 14 16  1  0  0  0  0
 15 20  1  0  0  0  0
 16  7  1  0  0  0  0
 16 11  2  0  0  0  0
 17  8  1  1  0  0  0
 17 10  1  0  0  0  0
 18 14  2  0  0  0  0
 18  6  1  0  0  0  0
 20 19  1  0  0  0  0
 21 17  1  0  0  0  0
 22 26  1  0  0  0  0
 23 12  1  0  0  0  0
 23 27  1  0  0  0  0
 24 23  2  0  0  0  0
 25 24  1  0  0  0  0
 25 22  2  0  0  0  0
 26 27  2  0  0  0  0
M  END
>  <MODEL>
4

>  <REMARK>
 VINA RESULT:     -10.2      2.532      7.047
  Name = 
  1 active torsions:
  status: ('A' for Active; 'I' for Inactive)
    1  A    between atoms: C_9  and  N_15
                            x       y       z     vdW  Elec       q    Type
                         _______ _______ _______ _____ _____    ______ ____

>  <TORSDO>
F 1

$$$$
=
 OpenBabel10272401003D

 27 31  0  0  1  0  0  0  0  0999 V2000
  186.8070  179.0010  141.0770 N   0  0  2  0  0  0  0  0  0  0  0  0
  186.8210  177.8460  143.0660 C   0  0  0  0  0  0  0  0  0  0  0  0
  188.2290  178.6470  141.4010 C   0  0  1  0  0  3  0  0  0  0  0  0
  189.7420  176.9710  145.9180 C   0  0  0  0  0  3  0  0  0  0  0  0
  192.0610  176.9260  146.5810 O   0  0  0  0  0  1  0  0  0  0  0  0
  186.4180  177.3160  144.2970 C   0  0  0  0  0  3  0  0  0  0  0  0
  190.4890  178.0720  143.4440 C   0  0  0  0  0  3  0  0  0  0  0  0
  190.3670  176.9120  138.8480 O   0  0  0  0  0  1  0  0  0  0  0  0
  191.4610  177.7700  144.4030 C   0  0  0  0  0  3  0  0  0  0  0  0
  188.6810  178.4780  138.2100 C   0  0  0  0  0  2  0  0  0  0  0  0
  188.1320  178.1070  142.7890 C   0  0  0  0  0  0  0  0  0  0  0  0
  186.0000  178.2940  142.0000 N   0  0  0  0  0  0  0  0  0  0  0  0
  191.0900  177.2220  145.6350 C   0  0  0  0  0  0  0  0  0  0  0  0
  188.7620  177.2670  144.9680 C   0  0  0  0  0  0  0  0  0  0  0  0
  186.3080  178.8900  139.6920 C   0  0  0  0  0  2  0  0  0  0  0  0
  189.1390  177.8230  143.7190 C   0  0  0  0  0  0  0  0  0  0  0  0
  189.5910  177.9670  139.3280 C   0  0  1  0  0  3  0  0  0  0  0  0
  187.4050  177.0180  145.2500 C   0  0  0  0  0  3  0  0  0  0  0  0
  187.4800  177.5660  137.9120 C   0  0  0  0  0  2  0  0  0  0  0  0
  186.4740  177.5100  139.0660 C   0  0  0  0  0  2  0  0  0  0  0  0
  188.8300  177.5060  140.5660 C   0  0  0  0  0  2  0  0  0  0  0  0
  181.7950  178.8140  142.3280 C   0  0  0  0  0  3  0  0  0  0  0  0
  184.5750  178.4770  142.1080 C   0  0  0  0  0  0  0  0  0  0  0  0
  184.0150  179.0370  143.2660 C   0  0  0  0  0  3  0  0  0  0  0  0
  182.6320  179.2060  143.3750 C   0  0  0  0  0  3  0  0  0  0  0  0
  182.3420  178.2510  141.1720 C   0  0  0  0  0  3  0  0  0  0  0  0
  183.7250  178.0820  141.0630 C   0  0  0  0  0  3  0  0  0  0  0  0
  1 15  1  6  0  0  0
  1  3  1  0  0  0  0
  1 12  1  0  0  0  0
  2  6  1  0  0  0  0
  3 21  1  6  0  0  0
  3 11  1  0  0  0  0
  6 18  2  0  0  0  0
  7 16  2  0  0  0  0
  7  9  1  0  0  0  0
  9 13  2  0  0  0  0
 10 17  1  0  0  0  0
 11  2  2  0  0  0  0
 11 16  1  0  0  0  0
 12 23  1  0  0  0  0
 12  2  1  0  0  0  0
 13  4  1  0  0  0  0
 13  5  1  0  0  0  0
 14 18  1  0  0  0  0
 14  4  2  0  0  0  0
 16 14  1  0  0  0  0
 17  8  1  6  0  0  0
 17 21  1  0  0  0  0
 19 10  1  0  0  0  0
 19 20  1  0  0  0  0
 20 15  1  0  0  0  0
 22 25  1  0  0  0  0
 23 24  1  0  0  0  0
 24 25  2  0  0  0  0
 26 22  2  0  0  0  0
 27 26  1  0  0  0  0
 27 23  2  0  0  0  0
M  END
>  <MODEL>
5

>  <REMARK>
 VINA RESULT:      -9.7      2.709      6.250
  Name = 
  1 active torsions:
  status: ('A' for Active; 'I' for Inactive)
    1  A    between atoms: C_9  and  N_15
                            x       y       z     vdW  Elec       q    Type
                         _______ _______ _______ _____ _____    ______ ____

>  <TORSDO>
F 1

$$$$
=
 OpenBabel10272401003D

 27 31  0  0  1  0  0  0  0  0999 V2000
  187.1770  178.6600  139.0920 N   0  0  2  0  0  0  0  0  0  0  0  0
  186.2410  178.1050  141.1200 C   0  0  0  0  0  0  0  0  0  0  0  0
  188.2880  178.3090  140.0390 C   0  0  1  0  0  3  0  0  0  0  0  0
  187.6780  177.8520  145.0320 C   0  0  0  0  0  3  0  0  0  0  0  0
  189.5320  177.8280  146.5740 O   0  0  0  0  0  1  0  0  0  0  0  0
  185.3200  177.9690  142.1640 C   0  0  0  0  0  3  0  0  0  0  0  0
  189.4780  178.1660  142.8990 C   0  0  0  0  0  3  0  0  0  0  0  0
  190.8840  175.7850  139.0460 O   0  0  0  0  0  1  0  0  0  0  0  0
  189.9510  178.0740  144.2110 C   0  0  0  0  0  3  0  0  0  0  0  0
  189.8650  177.2270  137.4390 C   0  0  0  0  0  2  0  0  0  0  0  0
  187.5840  178.1840  141.3500 C   0  0  0  0  0  0  0  0  0  0  0  0
  185.9720  178.2970  139.7400 N   0  0  0  0  0  0  0  0  0  0  0  0
  189.0550  177.9180  145.2740 C   0  0  0  0  0  0  0  0  0  0  0  0
  187.1940  177.9410  143.7240 C   0  0  0  0  0  0  0  0  0  0  0  0
  187.2220  178.2040  137.6900 C   0  0  0  0  0  2  0  0  0  0  0  0
  188.1030  178.1000  142.6470 C   0  0  0  0  0  0  0  0  0  0  0  0
  190.1850  176.9840  138.9150 C   0  0  1  0  0  3  0  0  0  0  0  0
  185.8100  177.8780  143.4770 C   0  0  0  0  0  3  0  0  0  0  0  0
  188.7220  176.3570  136.8920 C   0  0  0  0  0  2  0  0  0  0  0  0
  187.3640  176.6960  137.5160 C   0  0  0  0  0  2  0  0  0  0  0  0
  188.9460  176.9420  139.8040 C   0  0  0  0  0  2  0  0  0  0  0  0
  182.1140  179.1970  138.2050 C   0  0  0  0  0  3  0  0  0  0  0  0
  184.6670  178.6030  139.2130 C   0  0  0  0  0  0  0  0  0  0  0  0
  184.1700  179.9140  139.2620 C   0  0  0  0  0  3  0  0  0  0  0  0
  182.9000  180.2100  138.7590 C   0  0  0  0  0  3  0  0  0  0  0  0
  182.5980  177.8870  138.1550 C   0  0  0  0  0  3  0  0  0  0  0  0
  183.8670  177.5920  138.6580 C   0  0  0  0  0  3  0  0  0  0  0  0
  1 15  1  6  0  0  0
  1 12  1  0  0  0  0
  1  3  1  0  0  0  0
  2 11  2  0  0  0  0
  2  6  1  0  0  0  0
  3 21  1  6  0  0  0
  3 11  1  0  0  0  0
  4 13  1  0  0  0  0
  6 18  2  0  0  0  0
  7  9  1  0  0  0  0
  9 13  2  0  0  0  0
 10 17  1  0  0  0  0
 11 16  1  0  0  0  0
 12  2  1  0  0  0  0
 13  5  1  0  0  0  0
 14  4  2  0  0  0  0
 16  7  2  0  0  0  0
 16 14  1  0  0  0  0
 17  8  1  6  0  0  0
 17 21  1  0  0  0  0
 18 14  1  0  0  0  0
 19 10  1  0  0  0  0
 19 20  1  0  0  0  0
 20 15  1  0  0  0  0
 22 25  1  0  0  0  0
 23 24  1  0  0  0  0
 23 12  1  0  0  0  0
 25 24  2  0  0  0  0
 26 22  2  0  0  0  0
 26 27  1  0  0  0  0
 27 23  2  0  0  0  0
M  END
>  <MODEL>
6

>  <REMARK>
 VINA RESULT:      -9.4      3.268      6.814
  Name = 
  1 active torsions:
  status: ('A' for Active; 'I' for Inactive)
    1  A    between atoms: C_9  and  N_15
                            x       y       z     vdW  Elec       q    Type
                         _______ _______ _______ _____ _____    ______ ____

>  <TORSDO>
F 1

$$$$
=
 OpenBabel10272401003D

 27 31  0  0  1  0  0  0  0  0999 V2000
  186.1270  179.1110  142.1180 N   0  0  2  0  0  0  0  0  0  0  0  0
  187.8420  177.5830  142.2440 C   0  0  0  0  0  0  0  0  0  0  0  0
  186.6600  178.8910  140.7320 C   0  0  1  0  0  3  0  0  0  0  0  0
  191.0170  176.5380  139.7420 C   0  0  0  0  0  3  0  0  0  0  0  0
  192.1110  176.6690  137.5950 O   0  0  0  0  0  1  0  0  0  0  0  0
  188.8540  176.7610  142.7530 C   0  0  0  0  0  3  0  0  0  0  0  0
  188.9770  178.2160  138.7860 C   0  0  0  0  0  3  0  0  0  0  0  0
  184.3180  178.0230  137.9290 O   0  0  0  0  0  1  0  0  0  0  0  0
  190.0410  177.8570  137.9530 C   0  0  0  0  0  3  0  0  0  0  0  0
  183.6440  179.4460  139.7240 C   0  0  0  0  0  2  0  0  0  0  0  0
  187.8830  178.0680  140.9690 C   0  0  0  0  0  0  0  0  0  0  0  0
  186.7300  178.1270  142.9370 N   0  0  0  0  0  0  0  0  0  0  0  0
  191.0580  177.0210  138.4290 C   0  0  0  0  0  0  0  0  0  0  0  0
  189.9590  176.8900  140.5830 C   0  0  0  0  0  0  0  0  0  0  0  0
  184.6740  179.2210  142.3480 C   0  0  0  0  0  2  0  0  0  0  0  0
  188.9290  177.7370  140.1000 C   0  0  0  0  0  0  0  0  0  0  0  0
  184.8120  178.8420  138.9420 C   0  0  1  0  0  3  0  0  0  0  0  0
  189.9160  176.4090  141.9050 C   0  0  0  0  0  3  0  0  0  0  0  0
  182.9560  178.4630  140.6840 C   0  0  0  0  0  2  0  0  0  0  0  0
  183.8580  178.0350  141.8470 C   0  0  0  0  0  2  0  0  0  0  0  0
  185.7720  178.0380  139.8130 C   0  0  0  0  0  2  0  0  0  0  0  0
  186.3020  178.0380  147.1630 C   0  0  0  0  0  3  0  0  0  0  0  0
  186.5830  178.0900  144.3700 C   0  0  0  0  0  0  0  0  0  0  0  0
  185.3720  178.4670  144.9710 C   0  0  0  0  0  3  0  0  0  0  0  0
  185.2320  178.4400  146.3610 C   0  0  0  0  0  3  0  0  0  0  0  0
  187.5130  177.6640  146.5760 C   0  0  0  0  0  3  0  0  0  0  0  0
  187.6530  177.6910  145.1860 C   0  0  0  0  0  3  0  0  0  0  0  0
  1 15  1  6  0  0  0
  1 12  1  0  0  0  0
  2  6  1  0  0  0  0
  2 12  1  0  0  0  0
  3 21  1  6  0  0  0
  3 11  1  0  0  0  0
  3  1  1  0  0  0  0
  4 14  1  0  0  0  0
  5 13  1  0  0  0  0
  7 16  1  0  0  0  0
  9 13  1  0  0  0  0
  9  7  2  0  0  0  0
 10 19  1  0  0  0  0
 11  2  2  0  0  0  0
 12 23  1  0  0  0  0
 13  4  2  0  0  0  0
 14 18  1  0  0  0  0
 16 14  2  0  0  0  0
 16 11  1  0  0  0  0
 17  8  1  6  0  0  0
 17 10  1  0  0  0  0
 17 21  1  0  0  0  0
 18  6  2  0  0  0  0
 19 20  1  0  0  0  0
 20 15  1  0  0  0  0
 23 24  2  0  0  0  0
 23 27  1  0  0  0  0
 24 25  1  0  0  0  0
 25 22  2  0  0  0  0
 26 22  1  0  0  0  0
 27 26  2  0  0  0  0
M  END
>  <MODEL>
7

>  <REMARK>
 VINA RESULT:      -8.8      2.785      6.139
  Name = 
  1 active torsions:
  status: ('A' for Active; 'I' for Inactive)
    1  A    between atoms: C_9  and  N_15
                            x       y       z     vdW  Elec       q    Type
                         _______ _______ _______ _____ _____    ______ ____

>  <TORSDO>
F 1

$$$$
=
 OpenBabel10272401003D

 27 31  0  0  1  0  0  0  0  0999 V2000
  190.5330  177.8850  143.9260 N   0  0  2  0  0  0  0  0  0  0  0  0
  188.5280  177.5940  142.8350 C   0  0  0  0  0  0  0  0  0  0  0  0
  189.4300  177.9890  144.9400 C   0  0  1  0  0  3  0  0  0  0  0  0
  184.5520  178.4970  143.7340 C   0  0  0  0  0  3  0  0  0  0  0  0
  182.8820  179.1980  145.3280 O   0  0  0  0  0  1  0  0  0  0  0  0
  187.5720  177.4930  141.8180 C   0  0  0  0  0  3  0  0  0  0  0  0
  186.5210  178.7180  145.7250 C   0  0  0  0  0  3  0  0  0  0  0  0
  189.5450  175.9170  148.0680 O   0  0  0  0  0  1  0  0  0  0  0  0
  185.1860  179.0130  146.0190 C   0  0  0  0  0  3  0  0  0  0  0  0
  191.5370  176.7310  147.0350 C   0  0  0  0  0  2  0  0  0  0  0  0
  188.1980  178.0030  144.0950 C   0  0  0  0  0  0  0  0  0  0  0  0
  189.9320  177.4230  142.7310 N   0  0  0  0  0  0  0  0  0  0  0  0
  184.2050  178.9030  145.0280 C   0  0  0  0  0  0  0  0  0  0  0  0
  185.8820  178.1990  143.4290 C   0  0  0  0  0  0  0  0  0  0  0  0
  191.7750  177.1580  144.2500 C   0  0  0  0  0  2  0  0  0  0  0  0
  186.8760  178.3110  144.4350 C   0  0  0  0  0  0  0  0  0  0  0  0
  190.0230  176.8840  147.1850 C   0  0  1  0  0  3  0  0  0  0  0  0
  186.2350  177.7930  142.1280 C   0  0  0  0  0  3  0  0  0  0  0  0
  191.9650  175.5430  146.1600 C   0  0  0  0  0  2  0  0  0  0  0  0
  191.5700  175.7120  144.6890 C   0  0  0  0  0  2  0  0  0  0  0  0
  189.2690  176.7730  145.8650 C   0  0  0  0  0  2  0  0  0  0  0  0
  192.0120  177.1170  139.0380 C   0  0  0  0  0  3  0  0  0  0  0  0
  190.6360  177.3260  141.4770 C   0  0  0  0  0  0  0  0  0  0  0  0
  189.9620  176.9360  140.3100 C   0  0  0  0  0  3  0  0  0  0  0  0
  190.6460  176.8330  139.0960 C   0  0  0  0  0  3  0  0  0  0  0  0
  192.6950  177.5020  140.1950 C   0  0  0  0  0  3  0  0  0  0  0  0
  192.0100  177.6050  141.4080 C   0  0  0  0  0  3  0  0  0  0  0  0
  1 15  1  1  0  0  0
  1  3  1  0  0  0  0
  2 11  1  0  0  0  0
  3 21  1  1  0  0  0
  4 13  2  0  0  0  0
  6 18  1  0  0  0  0
  6  2  2  0  0  0  0
  7  9  2  0  0  0  0
 10 17  1  0  0  0  0
 11 16  2  0  0  0  0
 11  3  1  0  0  0  0
 12  2  1  0  0  0  0
 12  1  1  0  0  0  0
 13  5  1  0  0  0  0
 13  9  1  0  0  0  0
 14  4  1  0  0  0  0
 14 16  1  0  0  0  0
 15 20  1  0  0  0  0
 16  7  1  0  0  0  0
 17  8  1  1  0  0  0
 18 14  2  0  0  0  0
 19 10  1  0  0  0  0
 20 19  1  0  0  0  0
 21 17  1  0  0  0  0
 22 25  2  0  0  0  0
 22 26  1  0  0  0  0
 23 12  1  0  0  0  0
 24 23  2  0  0  0  0
 25 24  1  0  0  0  0
 26 27  2  0  0  0  0
 27 23  1  0  0  0  0
M  END
>  <MODEL>
8

>  <REMARK>
 VINA RESULT:      -8.6      2.059      4.804
  Name = 
  1 active torsions:
  status: ('A' for Active; 'I' for Inactive)
    1  A    between atoms: C_9  and  N_15
                            x       y       z     vdW  Elec       q    Type
                         _______ _______ _______ _____ _____    ______ ____

>  <TORSDO>
F 1

$$$$
=
 OpenBabel10272401003D

 27 31  0  0  1  0  0  0  0  0999 V2000
  188.4810  178.6050  141.4250 N   0  0  2  0  0  0  0  0  0  0  0  0
  186.3900  178.1340  140.5890 C   0  0  0  0  0  0  0  0  0  0  0  0
  187.5030  178.6510  142.5620 C   0  0  1  0  0  3  0  0  0  0  0  0
  182.4910  178.7520  141.9490 C   0  0  0  0  0  3  0  0  0  0  0  0
  180.9730  179.3640  143.7210 O   0  0  0  0  0  1  0  0  0  0  0  0
  185.3300  177.9340  139.6980 C   0  0  0  0  0  3  0  0  0  0  0  0
  184.6600  179.1750  143.6830 C   0  0  0  0  0  3  0  0  0  0  0  0
  188.1550  176.6760  145.6880 O   0  0  0  0  0  1  0  0  0  0  0  0
  183.3510  179.3740  144.1310 C   0  0  0  0  0  3  0  0  0  0  0  0
  189.9390  177.6130  144.4080 C   0  0  0  0  0  2  0  0  0  0  0  0
  186.1820  178.5490  141.8730 C   0  0  0  0  0  0  0  0  0  0  0  0
  187.7810  178.0680  140.3180 N   0  0  0  0  0  0  0  0  0  0  0  0
  182.2690  179.1640  143.2680 C   0  0  0  0  0  0  0  0  0  0  0  0
  183.7940  178.5490  141.4890 C   0  0  0  0  0  0  0  0  0  0  0  0
  189.8070  177.9840  141.6070 C   0  0  0  0  0  2  0  0  0  0  0  0
  184.8890  178.7630  142.3650 C   0  0  0  0  0  0  0  0  0  0  0  0
  188.4460  177.6530  144.7380 C   0  0  1  0  0  3  0  0  0  0  0  0
  184.0210  178.1380  140.1620 C   0  0  0  0  0  3  0  0  0  0  0  0
  190.3510  176.4390  143.5070 C   0  0  0  0  0  2  0  0  0  0  0  0
  189.7710  176.5400  142.0920 C   0  0  0  0  0  2  0  0  0  0  0  0
  187.5500  177.4510  143.5200 C   0  0  0  0  0  2  0  0  0  0  0  0
  189.3980  177.8470  136.3950 C   0  0  0  0  0  3  0  0  0  0  0  0
  188.3350  177.9930  138.9910 C   0  0  0  0  0  0  0  0  0  0  0  0
  188.5990  179.1630  138.2620 C   0  0  0  0  0  3  0  0  0  0  0  0
  189.1290  179.0910  136.9710 C   0  0  0  0  0  3  0  0  0  0  0  0
  189.1360  176.6760  137.1100 C   0  0  0  0  0  3  0  0  0  0  0  0
  188.6060  176.7490  138.4010 C   0  0  0  0  0  3  0  0  0  0  0  0
  1 15  1  1  0  0  0
  1  3  1  0  0  0  0
  2 11  1  0  0  0  0
  3 21  1  1  0  0  0
  4 13  2  0  0  0  0
  6 18  1  0  0  0  0
  6  2  2  0  0  0  0
  7  9  2  0  0  0  0
 10 17  1  0  0  0  0
 11 16  2  0  0  0  0
 11  3  1  0  0  0  0
 12  2  1  0  0  0  0
 12  1  1  0  0  0  0
 13  5  1  0  0  0  0
 13  9  1  0  0  0  0
 14  4  1  0  0  0  0
 14 16  1  0  0  0  0
 15 20  1  0  0  0  0
 16  7  1  0  0  0  0
 17  8  1  1  0  0  0
 18 14  2  0  0  0  0
 19 10  1  0  0  0  0
 20 19  1  0  0  0  0
 21 17  1  0  0  0  0
 22 25  2  0  0  0  0
 22 26  1  0  0  0  0
 23 12  1  0  0  0  0
 24 23  2  0  0  0  0
 25 24  1  0  0  0  0
 26 27  2  0  0  0  0
 27 23  1  0  0  0  0
M  END
>  <MODEL>
9

>  <REMARK>
 VINA RESULT:      -8.5      2.468      5.625
  Name = 
  1 active torsions:
  status: ('A' for Active; 'I' for Inactive)
    1  A    between atoms: C_9  and  N_15
                            x       y       z     vdW  Elec       q    Type
                         _______ _______ _______ _____ _____    ______ ____

>  <TORSDO>
F 1

$$$$
