=
 OpenBabel10262423463D

 34 37  0  0  1  0  0  0  0  0999 V2000
  192.2620  175.0970  136.6450 C   0  0  2  0  0  3  0  0  0  0  0  0
  189.9900  174.2530  136.9610 C   0  0  0  0  0  0  0  0  0  0  0  0
  190.8610  175.5140  138.6800 N   0  0  1  0  0  0  0  0  0  0  0  0
  193.8450  176.8820  136.5790 O   0  0  0  0  0  1  0  0  0  0  0  0
  189.7730  173.2540  136.2250 O   0  0  0  0  0  0  0  0  0  0  0  0
  189.0180  175.2360  137.2460 N   0  0  0  0  0  0  0  0  0  0  0  0
  191.2630  174.5220  137.6570 C   0  0  2  0  0  3  0  0  0  0  0  0
  192.6770  174.1030  135.7580 O   0  0  0  0  0  1  0  0  0  0  0  0
  191.8980  176.4010  139.0730 N   0  0  0  0  0  0  0  0  0  0  0  0
  193.4860  175.7360  137.2910 C   0  0  1  0  0  3  0  0  0  0  0  0
  187.5920  174.9690  137.2040 C   0  0  0  0  0  1  0  0  0  0  0  0
  192.4530  178.2980  140.3070 O   0  0  0  0  0  0  0  0  0  0  0  0
  191.7110  177.2820  140.1980 C   0  0  0  0  0  0  0  0  0  0  0  0
  189.6120  176.1680  138.1890 C   0  0  2  0  0  3  0  0  0  0  0  0
  193.2920  176.0830  138.7600 C   0  0  0  0  0  2  0  0  0  0  0  0
  188.5060  177.6510  142.4130 C   0  0  2  0  0  3  0  0  0  0  0  0
  188.4700  176.1980  142.8730 C   0  0  0  0  0  2  0  0  0  0  0  0
  190.6720  177.0330  141.2240 C   0  0  0  0  0  0  0  0  0  0  0  0
  189.8810  175.7260  143.2100 C   0  0  0  0  0  2  0  0  0  0  0  0
  189.3550  177.7740  141.1480 C   0  0  0  0  0  2  0  0  0  0  0  0
  190.8560  176.0440  142.1110 C   0  0  0  0  0  3  0  0  0  0  0  0
  189.0150  178.4640  143.4110 F   0  0  0  0  0  0  0  0  0  0  0  0
  189.4130  178.6070  138.3460 O   0  0  0  0  0  1  0  0  0  0  0  0
  189.7550  177.5470  137.5070 C   0  0  2  0  0  3  0  0  0  0  0  0
  189.0020  177.6440  136.1910 C   0  0  0  0  0  2  0  0  0  0  0  0
  187.7800  178.5440  136.3150 C   0  0  0  0  0  2  0  0  0  0  0  0
  186.5030  177.7200  136.3150 C   0  0  0  0  0  2  0  0  0  0  0  0
  184.3210  176.2250  137.6820 O   0  0  0  0  0  1  0  0  0  0  0  0
  185.4600  178.3110  137.2520 C   0  0  1  0  0  3  0  0  0  0  0  0
  184.1450  177.5230  137.1940 C   0  0  2  0  0  3  0  0  0  0  0  0
  183.5280  179.4880  139.1630 S   0  0  0  0  0  0  0  0  0  0  0  0
  184.9580  178.5250  139.7510 C   0  0  0  0  0  2  0  0  0  0  0  0
  186.0340  178.4110  138.6700 C   0  0  0  0  0  2  0  0  0  0  0  0
  183.0020  178.2120  137.9520 C   0  0  0  0  0  2  0  0  0  0  0  0
  1  8  1  6  0  0  0
  1 10  1  0  0  0  0
  1  7  1  0  0  0  0
  2  6  1  0  0  0  0
  3  9  1  6  0  0  0
  5  2  2  0  0  0  0
  6 14  1  0  0  0  0
  7  2  1  6  0  0  0
  7  3  1  0  0  0  0
  9 13  1  0  0  0  0
 10  4  1  6  0  0  0
 10 15  1  0  0  0  0
 11  6  1  0  0  0  0
 13 12  2  0  0  0  0
 13 18  1  0  0  0  0
 14 24  1  6  0  0  0
 14  3  1  0  0  0  0
 15  9  1  0  0  0  0
 16 17  1  0  0  0  0
 16 22  1  1  0  0  0
 17 19  1  0  0  0  0
 18 21  2  0  0  0  0
 20 18  1  0  0  0  0
 20 16  1  0  0  0  0
 21 19  1  0  0  0  0
 24 23  1  1  0  0  0
 25 26  1  0  0  0  0
 25 24  1  0  0  0  0
 26 27  1  0  0  0  0
 29 27  1  6  0  0  0
 29 33  1  0  0  0  0
 30 29  1  0  0  0  0
 30 28  1  1  0  0  0
 30 34  1  0  0  0  0
 31 32  1  0  0  0  0
 33 32  1  0  0  0  0
 34 31  1  0  0  0  0
M  END
>  <MODEL>
1

>  <REMARK>
 VINA RESULT:      -5.8      0.000      0.000
  Name = 
  6 active torsions:
  status: ('A' for Active; 'I' for Inactive)
    1  A    between atoms: C_3  and  C_13
    2  A    between atoms: C_3  and  C_17
    3  A    between atoms: C_12  and  C_28
    4  A    between atoms: C_17  and  C_29
    5  A    between atoms: C_18  and  C_29
    6  A    between atoms: C_18  and  C_31
                            x       y       z     vdW  Elec       q    Type
                         _______ _______ _______ _____ _____    ______ ____

>  <TORSDO>
F 6

$$$$
=
 OpenBabel10262423463D

 34 37  0  0  1  0  0  0  0  0999 V2000
  186.6750  175.2410  136.1620 C   0  0  2  0  0  3  0  0  0  0  0  0
  186.9940  177.5690  135.4870 C   0  0  0  0  0  0  0  0  0  0  0  0
  185.0690  177.0990  136.6600 N   0  0  1  0  0  0  0  0  0  0  0  0
  186.2680  173.5780  137.8240 O   0  0  0  0  0  1  0  0  0  0  0  0
  187.7910  177.6520  134.5140 O   0  0  0  0  0  0  0  0  0  0  0  0
  186.9450  178.5110  136.5360 N   0  0  0  0  0  0  0  0  0  0  0  0
  185.9790  176.5110  135.6520 C   0  0  2  0  0  3  0  0  0  0  0  0
  187.4500  174.6760  135.1490 O   0  0  0  0  0  1  0  0  0  0  0  0
  184.3900  176.1450  137.4630 N   0  0  0  0  0  0  0  0  0  0  0  0
  185.7100  174.1910  136.7010 C   0  0  1  0  0  3  0  0  0  0  0  0
  187.3700  179.8900  136.3770 C   0  0  0  0  0  1  0  0  0  0  0  0
  182.9980  175.8070  139.3010 O   0  0  0  0  0  0  0  0  0  0  0  0
  183.3290  176.5610  138.3430 C   0  0  0  0  0  0  0  0  0  0  0  0
  185.8520  178.1250  137.4110 C   0  0  2  0  0  3  0  0  0  0  0  0
  184.3340  174.7430  137.0460 C   0  0  0  0  0  2  0  0  0  0  0  0
  181.7970  180.0960  139.0390 C   0  0  2  0  0  3  0  0  0  0  0  0
  181.6900  180.5050  137.5750 C   0  0  0  0  0  2  0  0  0  0  0  0
  182.6210  177.8500  138.1630 C   0  0  0  0  0  0  0  0  0  0  0  0
  181.1820  179.3320  136.7430 C   0  0  0  0  0  2  0  0  0  0  0  0
  182.8000  178.9510  139.1850 C   0  0  0  0  0  2  0  0  0  0  0  0
  181.9570  178.0730  137.0180 C   0  0  0  0  0  3  0  0  0  0  0  0
  180.5610  179.7120  139.5280 F   0  0  0  0  0  0  0  0  0  0  0  0
  186.1190  178.6140  139.7990 O   0  0  0  0  0  1  0  0  0  0  0  0
  186.4300  177.7110  138.7830 C   0  0  2  0  0  3  0  0  0  0  0  0
  187.9260  177.4440  138.7450 C   0  0  0  0  0  2  0  0  0  0  0  0
  188.6460  178.1550  139.8830 C   0  0  0  0  0  2  0  0  0  0  0  0
  189.6500  177.2250  140.5470 C   0  0  0  0  0  2  0  0  0  0  0  0
  188.4020  175.8010  142.8440 O   0  0  0  0  0  1  0  0  0  0  0  0
  189.8320  177.5650  142.0190 C   0  0  1  0  0  3  0  0  0  0  0  0
  188.5900  177.1860  142.8370 C   0  0  2  0  0  3  0  0  0  0  0  0
  190.3120  178.1890  144.8730 S   0  0  0  0  0  0  0  0  0  0  0  0
  191.1430  176.7810  144.0710 C   0  0  0  0  0  2  0  0  0  0  0  0
  191.1150  176.9150  142.5470 C   0  0  0  0  0  2  0  0  0  0  0  0
  188.6420  177.7100  144.2790 C   0  0  0  0  0  2  0  0  0  0  0  0
  1  8  1  6  0  0  0
  1 10  1  0  0  0  0
  2  6  1  0  0  0  0
  3 14  1  0  0  0  0
  3  9  1  1  0  0  0
  5  2  2  0  0  0  0
  6 14  1  0  0  0  0
  7  2  1  1  0  0  0
  7  1  1  0  0  0  0
  7  3  1  0  0  0  0
  9 13  1  0  0  0  0
 10 15  1  0  0  0  0
 10  4  1  1  0  0  0
 11  6  1  0  0  0  0
 13 12  2  0  0  0  0
 14 24  1  1  0  0  0
 15  9  1  0  0  0  0
 16 20  1  0  0  0  0
 16 22  1  6  0  0  0
 17 16  1  0  0  0  0
 18 13  1  0  0  0  0
 18 20  1  0  0  0  0
 19 21  1  0  0  0  0
 19 17  1  0  0  0  0
 21 18  2  0  0  0  0
 24 23  1  1  0  0  0
 25 24  1  0  0  0  0
 25 26  1  0  0  0  0
 26 27  1  0  0  0  0
 29 27  1  6  0  0  0
 29 33  1  0  0  0  0
 29 30  1  0  0  0  0
 30 28  1  1  0  0  0
 30 34  1  0  0  0  0
 32 31  1  0  0  0  0
 33 32  1  0  0  0  0
 34 31  1  0  0  0  0
M  END
>  <MODEL>
2

>  <REMARK>
 VINA RESULT:      -5.7      3.892      7.205
  Name = 
  6 active torsions:
  status: ('A' for Active; 'I' for Inactive)
    1  A    between atoms: C_3  and  C_13
    2  A    between atoms: C_3  and  C_17
    3  A    between atoms: C_12  and  C_28
    4  A    between atoms: C_17  and  C_29
    5  A    between atoms: C_18  and  C_29
    6  A    between atoms: C_18  and  C_31
                            x       y       z     vdW  Elec       q    Type
                         _______ _______ _______ _____ _____    ______ ____

>  <TORSDO>
F 6

$$$$
=
 OpenBabel10262423463D

 34 37  0  0  1  0  0  0  0  0999 V2000
  189.6280  174.9750  135.6130 C   0  0  2  0  0  3  0  0  0  0  0  0
  187.9590  173.7680  136.9310 C   0  0  0  0  0  0  0  0  0  0  0  0
  188.4680  175.9020  137.6330 N   0  0  1  0  0  0  0  0  0  0  0  0
  190.3250  176.8730  134.3460 O   0  0  0  0  0  1  0  0  0  0  0  0
  188.0690  172.5240  136.7670 O   0  0  0  0  0  0  0  0  0  0  0  0
  186.7210  174.4280  137.0810 N   0  0  0  0  0  0  0  0  0  0  0  0
  189.0950  174.7050  137.0270 C   0  0  2  0  0  3  0  0  0  0  0  0
  190.2860  173.8470  135.1220 O   0  0  0  0  0  1  0  0  0  0  0  0
  189.0990  177.1280  137.2910 N   0  0  0  0  0  0  0  0  0  0  0  0
  190.5620  176.1770  135.5320 C   0  0  1  0  0  3  0  0  0  0  0  0
  185.5340  173.7680  137.5950 C   0  0  0  0  0  1  0  0  0  0  0  0
  188.9980  179.4520  137.4170 O   0  0  0  0  0  0  0  0  0  0  0  0
  188.7250  178.3470  137.9630 C   0  0  0  0  0  0  0  0  0  0  0  0
  187.0070  175.8300  137.3330 C   0  0  2  0  0  3  0  0  0  0  0  0
  190.4450  177.1240  136.7180 C   0  0  0  0  0  2  0  0  0  0  0  0
  188.0110  178.0610  141.8000 C   0  0  2  0  0  3  0  0  0  0  0  0
  186.7070  178.8490  141.7720 C   0  0  0  0  0  2  0  0  0  0  0  0
  188.0260  178.3400  139.2680 C   0  0  0  0  0  0  0  0  0  0  0  0
  185.8790  178.4390  140.5580 C   0  0  0  0  0  2  0  0  0  0  0  0
  188.8320  178.3700  140.5480 C   0  0  0  0  0  2  0  0  0  0  0  0
  186.6900  178.4630  139.2920 C   0  0  0  0  0  3  0  0  0  0  0  0
  187.7560  176.7030  141.8810 F   0  0  0  0  0  0  0  0  0  0  0  0
  185.7170  177.7610  136.5480 O   0  0  0  0  0  1  0  0  0  0  0  0
  186.4840  176.6690  136.1460 C   0  0  2  0  0  3  0  0  0  0  0  0
  185.7360  175.8420  135.1130 C   0  0  0  0  0  2  0  0  0  0  0  0
  184.3440  176.4020  134.8560 C   0  0  0  0  0  2  0  0  0  0  0  0
  183.2770  175.4440  135.3630 C   0  0  0  0  0  2  0  0  0  0  0  0
  183.2860  176.3570  138.1970 O   0  0  0  0  0  1  0  0  0  0  0  0
  182.1540  176.1890  136.0700 C   0  0  1  0  0  3  0  0  0  0  0  0
  182.1330  175.8740  137.5720 C   0  0  2  0  0  3  0  0  0  0  0  0
  179.9910  177.7410  137.3650 S   0  0  0  0  0  0  0  0  0  0  0  0
  181.5120  178.5590  136.7880 C   0  0  0  0  0  2  0  0  0  0  0  0
  182.2600  177.6890  135.7760 C   0  0  0  0  0  2  0  0  0  0  0  0
  180.8880  176.4270  138.2800 C   0  0  0  0  0  2  0  0  0  0  0  0
  1  8  1  1  0  0  0
  1  7  1  0  0  0  0
  2  6  1  0  0  0  0
  3  9  1  6  0  0  0
  5  2  2  0  0  0  0
  6 14  1  0  0  0  0
  6 11  1  0  0  0  0
  7  2  1  6  0  0  0
  7  3  1  0  0  0  0
  9 13  1  0  0  0  0
 10  4  1  6  0  0  0
 10  1  1  0  0  0  0
 10 15  1  0  0  0  0
 12 13  2  0  0  0  0
 13 18  1  0  0  0  0
 14 24  1  6  0  0  0
 14  3  1  0  0  0  0
 15  9  1  0  0  0  0
 16 22  1  6  0  0  0
 17 16  1  0  0  0  0
 18 21  2  0  0  0  0
 18 20  1  0  0  0  0
 19 17  1  0  0  0  0
 20 16  1  0  0  0  0
 21 19  1  0  0  0  0
 24 23  1  1  0  0  0
 25 24  1  0  0  0  0
 26 25  1  0  0  0  0
 26 27  1  0  0  0  0
 29 27  1  6  0  0  0
 29 30  1  0  0  0  0
 30 28  1  1  0  0  0
 30 34  1  0  0  0  0
 31 34  1  0  0  0  0
 32 31  1  0  0  0  0
 33 29  1  0  0  0  0
 33 32  1  0  0  0  0
M  END
>  <MODEL>
3

>  <REMARK>
 VINA RESULT:      -5.0      2.464      3.495
  Name = 
  6 active torsions:
  status: ('A' for Active; 'I' for Inactive)
    1  A    between atoms: C_3  and  C_13
    2  A    between atoms: C_3  and  C_17
    3  A    between atoms: C_12  and  C_28
    4  A    between atoms: C_17  and  C_29
    5  A    between atoms: C_18  and  C_29
    6  A    between atoms: C_18  and  C_31
                            x       y       z     vdW  Elec       q    Type
                         _______ _______ _______ _____ _____    ______ ____

>  <TORSDO>
F 6

$$$$
=
 OpenBabel10262423463D

 34 37  0  0  1  0  0  0  0  0999 V2000
  185.8950  177.4470  136.2320 C   0  0  2  0  0  3  0  0  0  0  0  0
  183.7510  177.2480  135.0730 C   0  0  0  0  0  0  0  0  0  0  0  0
  184.7060  175.2830  135.8050 N   0  0  1  0  0  0  0  0  0  0  0  0
  187.3060  177.0440  138.1130 O   0  0  0  0  0  1  0  0  0  0  0  0
  183.5360  178.2540  134.3460 O   0  0  0  0  0  0  0  0  0  0  0  0
  182.7410  176.5750  135.7930 N   0  0  0  0  0  0  0  0  0  0  0  0
  185.0690  176.6060  135.2490 C   0  0  2  0  0  3  0  0  0  0  0  0
  186.2880  178.6440  135.6320 O   0  0  0  0  0  1  0  0  0  0  0  0
  185.7030  174.7030  136.6330 N   0  0  0  0  0  0  0  0  0  0  0  0
  187.1270  176.7270  136.7670 C   0  0  1  0  0  3  0  0  0  0  0  0
  181.3460  176.5880  135.3900 C   0  0  0  0  0  1  0  0  0  0  0  0
  186.2350  172.9580  138.0830 O   0  0  0  0  0  0  0  0  0  0  0  0
  185.5730  173.3390  137.0760 C   0  0  0  0  0  0  0  0  0  0  0  0
  183.3590  175.4270  136.4330 C   0  0  2  0  0  3  0  0  0  0  0  0
  187.0730  175.2150  136.5970 C   0  0  0  0  0  2  0  0  0  0  0  0
  182.7170  170.7530  136.3890 C   0  0  2  0  0  3  0  0  0  0  0  0
  182.7140  170.9280  134.8750 C   0  0  0  0  0  2  0  0  0  0  0  0
  184.6820  172.3730  136.3920 C   0  0  0  0  0  0  0  0  0  0  0  0
  184.1480  171.0090  134.3590 C   0  0  0  0  0  2  0  0  0  0  0  0
  183.3840  171.9590  137.0490 C   0  0  0  0  0  2  0  0  0  0  0  0
  184.9670  172.0020  135.1340 C   0  0  0  0  0  3  0  0  0  0  0  0
  183.3780  169.5890  136.7420 F   0  0  0  0  0  0  0  0  0  0  0  0
  182.2600  174.9260  138.5670 O   0  0  0  0  0  1  0  0  0  0  0  0
  183.3080  175.6220  137.9650 C   0  0  2  0  0  3  0  0  0  0  0  0
  183.2880  177.0830  138.3820 C   0  0  0  0  0  2  0  0  0  0  0  0
  183.1750  177.2280  139.8930 C   0  0  0  0  0  2  0  0  0  0  0  0
  183.9950  178.4120  140.3820 C   0  0  0  0  0  2  0  0  0  0  0  0
  186.3510  179.8900  141.4450 O   0  0  0  0  0  1  0  0  0  0  0  0
  184.7830  178.0620  141.6350 C   0  0  1  0  0  3  0  0  0  0  0  0
  186.2500  178.4980  141.5130 C   0  0  2  0  0  3  0  0  0  0  0  0
  186.2110  177.4110  144.1470 S   0  0  0  0  0  0  0  0  0  0  0  0
  185.0110  178.7780  144.0800 C   0  0  0  0  0  2  0  0  0  0  0  0
  184.0870  178.6490  142.8680 C   0  0  0  0  0  2  0  0  0  0  0  0
  187.1270  177.9690  142.6570 C   0  0  0  0  0  2  0  0  0  0  0  0
  1  8  1  6  0  0  0
  1 10  1  0  0  0  0
  2  6  1  0  0  0  0
  3 14  1  0  0  0  0
  3  9  1  1  0  0  0
  5  2  2  0  0  0  0
  6 14  1  0  0  0  0
  7  2  1  1  0  0  0
  7  3  1  0  0  0  0
  7  1  1  0  0  0  0
  9 13  1  0  0  0  0
 10  4  1  1  0  0  0
 11  6  1  0  0  0  0
 13 12  2  0  0  0  0
 14 24  1  1  0  0  0
 15  9  1  0  0  0  0
 15 10  1  0  0  0  0
 16 22  1  6  0  0  0
 16 20  1  0  0  0  0
 17 16  1  0  0  0  0
 18 20  1  0  0  0  0
 18 13  1  0  0  0  0
 19 17  1  0  0  0  0
 19 21  1  0  0  0  0
 21 18  2  0  0  0  0
 24 25  1  0  0  0  0
 24 23  1  6  0  0  0
 25 26  1  0  0  0  0
 26 27  1  0  0  0  0
 29 27  1  6  0  0  0
 29 33  1  0  0  0  0
 30 28  1  1  0  0  0
 30 29  1  0  0  0  0
 30 34  1  0  0  0  0
 32 31  1  0  0  0  0
 33 32  1  0  0  0  0
 34 31  1  0  0  0  0
M  END
>  <MODEL>
4

>  <REMARK>
 VINA RESULT:      -4.9      4.540      7.596
  Name = 
  6 active torsions:
  status: ('A' for Active; 'I' for Inactive)
    1  A    between atoms: C_3  and  C_13
    2  A    between atoms: C_3  and  C_17
    3  A    between atoms: C_12  and  C_28
    4  A    between atoms: C_17  and  C_29
    5  A    between atoms: C_18  and  C_29
    6  A    between atoms: C_18  and  C_31
                            x       y       z     vdW  Elec       q    Type
                         _______ _______ _______ _____ _____    ______ ____

>  <TORSDO>
F 6

$$$$
=
 OpenBabel10262423463D

 34 37  0  0  1  0  0  0  0  0999 V2000
  180.7200  180.8780  139.0970 C   0  0  2  0  0  3  0  0  0  0  0  0
  180.9940  179.2950  140.9410 C   0  0  0  0  0  0  0  0  0  0  0  0
  181.0840  178.4140  138.8140 N   0  0  1  0  0  0  0  0  0  0  0  0
  181.4670  181.8750  137.0630 O   0  0  0  0  0  1  0  0  0  0  0  0
  180.5030  179.7540  142.0070 O   0  0  0  0  0  0  0  0  0  0  0  0
  182.1720  178.5200  140.8960 N   0  0  0  0  0  0  0  0  0  0  0  0
  180.3980  179.4640  139.6010 C   0  0  2  0  0  3  0  0  0  0  0  0
  179.9820  181.8240  139.8100 O   0  0  0  0  0  1  0  0  0  0  0  0
  181.2050  178.7060  137.4300 N   0  0  0  0  0  0  0  0  0  0  0  0
  180.4680  181.0660  137.6050 C   0  0  1  0  0  3  0  0  0  0  0  0
  182.6370  177.7280  142.0210 C   0  0  0  0  0  1  0  0  0  0  0  0
  182.1220  178.0510  135.3900 O   0  0  0  0  0  0  0  0  0  0  0  0
  181.6660  177.6950  136.5130 C   0  0  0  0  0  0  0  0  0  0  0  0
  182.3660  178.1080  139.5170 C   0  0  2  0  0  3  0  0  0  0  0  0
  180.3850  179.7590  136.8290 C   0  0  0  0  0  2  0  0  0  0  0  0
  180.4300  174.1950  137.7540 C   0  0  2  0  0  3  0  0  0  0  0  0
  181.4770  173.3870  136.9960 C   0  0  0  0  0  2  0  0  0  0  0  0
  181.6290  176.2540  136.8520 C   0  0  0  0  0  0  0  0  0  0  0  0
  182.8360  174.0710  137.0980 C   0  0  0  0  0  2  0  0  0  0  0  0
  180.3010  175.5870  137.1350 C   0  0  0  0  0  2  0  0  0  0  0  0
  182.7560  175.5320  136.7510 C   0  0  0  0  0  3  0  0  0  0  0  0
  180.7720  174.2980  139.0920 F   0  0  0  0  0  0  0  0  0  0  0  0
  184.4690  177.8840  138.2770 O   0  0  0  0  0  1  0  0  0  0  0  0
  183.6500  178.7720  138.9720 C   0  0  2  0  0  3  0  0  0  0  0  0
  184.4430  179.5070  140.0400 C   0  0  0  0  0  2  0  0  0  0  0  0
  185.7520  178.7920  140.3490 C   0  0  0  0  0  2  0  0  0  0  0  0
  186.0420  178.8250  141.8420 C   0  0  0  0  0  2  0  0  0  0  0  0
  187.1040  176.5030  143.3720 O   0  0  0  0  0  1  0  0  0  0  0  0
  187.5070  178.5350  142.1290 C   0  0  1  0  0  3  0  0  0  0  0  0
  187.6780  177.7750  143.4510 C   0  0  2  0  0  3  0  0  0  0  0  0
  190.3780  177.9480  142.5580 S   0  0  0  0  0  0  0  0  0  0  0  0
  189.4190  177.0540  141.2940 C   0  0  0  0  0  2  0  0  0  0  0  0
  188.1350  177.8050  140.9360 C   0  0  0  0  0  2  0  0  0  0  0  0
  189.1450  177.6570  143.8870 C   0  0  0  0  0  2  0  0  0  0  0  0
  1  7  1  0  0  0  0
  1  8  1  1  0  0  0
  2  5  2  0  0  0  0
  3  9  1  6  0  0  0
  3 14  1  0  0  0  0
  3  7  1  0  0  0  0
  6  2  1  0  0  0  0
  6 11  1  0  0  0  0
  7  2  1  1  0  0  0
 10  4  1  6  0  0  0
 10  1  1  0  0  0  0
 12 13  2  0  0  0  0
 13 18  1  0  0  0  0
 13  9  1  0  0  0  0
 14 24  1  6  0  0  0
 14  6  1  0  0  0  0
 15  9  1  0  0  0  0
 15 10  1  0  0  0  0
 16 22  1  1  0  0  0
 17 19  1  0  0  0  0
 17 16  1  0  0  0  0
 18 20  1  0  0  0  0
 20 16  1  0  0  0  0
 21 18  2  0  0  0  0
 21 19  1  0  0  0  0
 24 23  1  1  0  0  0
 24 25  1  0  0  0  0
 25 26  1  0  0  0  0
 26 27  1  0  0  0  0
 29 27  1  6  0  0  0
 29 30  1  0  0  0  0
 30 28  1  6  0  0  0
 30 34  1  0  0  0  0
 31 34  1  0  0  0  0
 32 31  1  0  0  0  0
 33 32  1  0  0  0  0
 33 29  1  0  0  0  0
M  END
>  <MODEL>
5

>  <REMARK>
 VINA RESULT:      -4.7      5.470      9.679
  Name = 
  6 active torsions:
  status: ('A' for Active; 'I' for Inactive)
    1  A    between atoms: C_3  and  C_13
    2  A    between atoms: C_3  and  C_17
    3  A    between atoms: C_12  and  C_28
    4  A    between atoms: C_17  and  C_29
    5  A    between atoms: C_18  and  C_29
    6  A    between atoms: C_18  and  C_31
                            x       y       z     vdW  Elec       q    Type
                         _______ _______ _______ _____ _____    ______ ____

>  <TORSDO>
F 6

$$$$
=
 OpenBabel10262423463D

 34 37  0  0  1  0  0  0  0  0999 V2000
  188.5220  178.3230  138.2660 C   0  0  2  0  0  3  0  0  0  0  0  0
  190.0710  176.5560  138.9430 C   0  0  0  0  0  0  0  0  0  0  0  0
  188.4930  175.9850  137.3650 N   0  0  1  0  0  0  0  0  0  0  0  0
  187.4790  179.6680  136.5940 O   0  0  0  0  0  1  0  0  0  0  0  0
  190.5730  176.8040  140.0720 O   0  0  0  0  0  0  0  0  0  0  0  0
  190.7850  175.9480  137.8890 N   0  0  0  0  0  0  0  0  0  0  0  0
  188.6680  176.8260  138.5710 C   0  0  2  0  0  3  0  0  0  0  0  0
  188.6060  179.0660  139.4440 O   0  0  0  0  0  1  0  0  0  0  0  0
  187.5240  176.4710  136.4490 N   0  0  0  0  0  0  0  0  0  0  0  0
  187.2280  178.6750  137.5420 C   0  0  1  0  0  3  0  0  0  0  0  0
  191.9260  175.0780  138.1110 C   0  0  0  0  0  1  0  0  0  0  0  0
  186.5520  176.2130  134.3470 O   0  0  0  0  0  0  0  0  0  0  0  0
  187.1040  175.6570  135.3370 C   0  0  0  0  0  0  0  0  0  0  0  0
  189.8530  175.7510  136.7940 C   0  0  2  0  0  3  0  0  0  0  0  0
  186.5570  177.4830  136.8750 C   0  0  0  0  0  2  0  0  0  0  0  0
  186.9330  171.8630  136.2850 C   0  0  2  0  0  3  0  0  0  0  0  0
  187.3350  171.3440  134.9100 C   0  0  0  0  0  2  0  0  0  0  0  0
  187.3090  174.1900  135.3180 C   0  0  0  0  0  0  0  0  0  0  0  0
  188.4700  172.1930  134.3470 C   0  0  0  0  0  2  0  0  0  0  0  0
  186.4290  173.3020  136.1700 C   0  0  0  0  0  2  0  0  0  0  0  0
  188.1670  173.6630  134.4310 C   0  0  0  0  0  3  0  0  0  0  0  0
  188.0040  171.8020  137.1600 F   0  0  0  0  0  0  0  0  0  0  0  0
  189.3540  177.6310  135.3010 O   0  0  0  0  0  1  0  0  0  0  0  0
  190.2830  176.6370  135.6040 C   0  0  2  0  0  3  0  0  0  0  0  0
  190.6350  175.8380  134.3600 C   0  0  0  0  0  2  0  0  0  0  0  0
  191.8460  174.9460  134.5960 C   0  0  0  0  0  2  0  0  0  0  0  0
  193.1200  175.7750  134.6550 C   0  0  0  0  0  2  0  0  0  0  0  0
  195.0350  175.7880  136.9340 O   0  0  0  0  0  1  0  0  0  0  0  0
  194.3510  174.8920  134.7980 C   0  0  1  0  0  3  0  0  0  0  0  0
  195.4470  175.5900  135.6140 C   0  0  2  0  0  3  0  0  0  0  0  0
  196.6660  173.0690  135.0870 S   0  0  0  0  0  0  0  0  0  0  0  0
  195.1210  172.7710  136.0030 C   0  0  0  0  0  2  0  0  0  0  0  0
  193.9490  173.5320  135.3790 C   0  0  0  0  0  2  0  0  0  0  0  0
  196.7810  174.8300  135.5950 C   0  0  0  0  0  2  0  0  0  0  0  0
  1  7  1  0  0  0  0
  1  8  1  1  0  0  0
  2  5  2  0  0  0  0
  3  9  1  6  0  0  0
  3  7  1  0  0  0  0
  6 11  1  0  0  0  0
  6  2  1  0  0  0  0
  7  2  1  6  0  0  0
  9 15  1  0  0  0  0
 10  4  1  6  0  0  0
 10  1  1  0  0  0  0
 12 13  2  0  0  0  0
 13  9  1  0  0  0  0
 14 24  1  6  0  0  0
 14  3  1  0  0  0  0
 14  6  1  0  0  0  0
 15 10  1  0  0  0  0
 16 22  1  1  0  0  0
 17 16  1  0  0  0  0
 18 13  1  0  0  0  0
 18 20  1  0  0  0  0
 19 21  1  0  0  0  0
 19 17  1  0  0  0  0
 20 16  1  0  0  0  0
 21 18  2  0  0  0  0
 24 23  1  6  0  0  0
 25 26  1  0  0  0  0
 25 24  1  0  0  0  0
 26 27  1  0  0  0  0
 29 27  1  1  0  0  0
 29 33  1  0  0  0  0
 29 30  1  0  0  0  0
 30 28  1  1  0  0  0
 31 34  1  0  0  0  0
 31 32  1  0  0  0  0
 33 32  1  0  0  0  0
 34 30  1  0  0  0  0
M  END
>  <MODEL>
6

>  <REMARK>
 VINA RESULT:      -4.4      3.901      7.892
  Name = 
  6 active torsions:
  status: ('A' for Active; 'I' for Inactive)
    1  A    between atoms: C_3  and  C_13
    2  A    between atoms: C_3  and  C_17
    3  A    between atoms: C_12  and  C_28
    4  A    between atoms: C_17  and  C_29
    5  A    between atoms: C_18  and  C_29
    6  A    between atoms: C_18  and  C_31
                            x       y       z     vdW  Elec       q    Type
                         _______ _______ _______ _____ _____    ______ ____

>  <TORSDO>
F 6

$$$$
=
 OpenBabel10262423463D

 34 37  0  0  1  0  0  0  0  0999 V2000
  189.5160  176.2460  138.1480 C   0  0  2  0  0  3  0  0  0  0  0  0
  188.5740  174.3350  136.9480 C   0  0  0  0  0  0  0  0  0  0  0  0
  187.0870  175.9680  137.5990 N   0  0  1  0  0  0  0  0  0  0  0  0
  189.8480  178.5930  138.4200 O   0  0  0  0  0  1  0  0  0  0  0  0
  189.3340  173.3320  137.0290 O   0  0  0  0  0  0  0  0  0  0  0  0
  187.8310  174.6580  135.7940 N   0  0  0  0  0  0  0  0  0  0  0  0
  188.3220  175.2860  138.0470 C   0  0  2  0  0  3  0  0  0  0  0  0
  190.6300  175.5780  138.6590 O   0  0  0  0  0  1  0  0  0  0  0  0
  186.9420  177.2950  138.0830 N   0  0  0  0  0  0  0  0  0  0  0  0
  189.2380  177.4800  138.9990 C   0  0  1  0  0  3  0  0  0  0  0  0
  187.4240  173.6650  134.8150 C   0  0  0  0  0  1  0  0  0  0  0  0
  185.7010  179.2650  137.9800 O   0  0  0  0  0  0  0  0  0  0  0  0
  185.7020  178.0040  137.8950 C   0  0  0  0  0  0  0  0  0  0  0  0
  187.0190  175.8180  136.1150 C   0  0  2  0  0  3  0  0  0  0  0  0
  187.7550  177.7560  139.2090 C   0  0  0  0  0  2  0  0  0  0  0  0
  182.5250  175.7490  138.2620 C   0  0  2  0  0  3  0  0  0  0  0  0
  181.7460  176.3970  137.1240 C   0  0  0  0  0  2  0  0  0  0  0  0
  184.4330  177.3000  137.5990 C   0  0  0  0  0  0  0  0  0  0  0  0
  182.6720  176.6510  135.9390 C   0  0  0  0  0  2  0  0  0  0  0  0
  183.6380  176.6870  138.7300 C   0  0  0  0  0  2  0  0  0  0  0  0
  183.9350  177.3530  136.3540 C   0  0  0  0  0  3  0  0  0  0  0  0
  183.0600  174.5390  137.8550 F   0  0  0  0  0  0  0  0  0  0  0  0
  186.4600  177.6070  134.5330 O   0  0  0  0  0  1  0  0  0  0  0  0
  187.4930  177.0140  135.2590 C   0  0  2  0  0  3  0  0  0  0  0  0
  188.6590  176.6710  134.3460 C   0  0  0  0  0  2  0  0  0  0  0  0
  189.9930  176.9840  135.0090 C   0  0  0  0  0  2  0  0  0  0  0  0
  191.1090  176.1600  134.3840 C   0  0  0  0  0  2  0  0  0  0  0  0
  192.5710  173.5690  134.4750 O   0  0  0  0  0  1  0  0  0  0  0  0
  192.1430  175.7490  135.4220 C   0  0  1  0  0  3  0  0  0  0  0  0
  192.1490  174.2290  135.6320 C   0  0  2  0  0  3  0  0  0  0  0  0
  194.2360  175.0420  137.3940 S   0  0  0  0  0  0  0  0  0  0  0  0
  194.6790  175.5720  135.7090 C   0  0  0  0  0  2  0  0  0  0  0  0
  193.5170  176.3040  135.0330 C   0  0  0  0  0  2  0  0  0  0  0  0
  193.0160  173.7940  136.8220 C   0  0  0  0  0  2  0  0  0  0  0  0
  1  8  1  1  0  0  0
  1 10  1  0  0  0  0
  2  5  2  0  0  0  0
  3  7  1  0  0  0  0
  3  9  1  6  0  0  0
  6 14  1  0  0  0  0
  6  2  1  0  0  0  0
  7  2  1  6  0  0  0
  7  1  1  0  0  0  0
  9 15  1  0  0  0  0
 10  4  1  6  0  0  0
 10 15  1  0  0  0  0
 11  6  1  0  0  0  0
 13 12  2  0  0  0  0
 13  9  1  0  0  0  0
 14 24  1  6  0  0  0
 14  3  1  0  0  0  0
 16 22  1  6  0  0  0
 16 20  1  0  0  0  0
 17 16  1  0  0  0  0
 18 13  1  0  0  0  0
 18 20  1  0  0  0  0
 19 21  1  0  0  0  0
 19 17  1  0  0  0  0
 21 18  2  0  0  0  0
 24 23  1  6  0  0  0
 25 26  1  0  0  0  0
 25 24  1  0  0  0  0
 27 26  1  0  0  0  0
 29 27  1  6  0  0  0
 29 30  1  0  0  0  0
 30 28  1  6  0  0  0
 30 34  1  0  0  0  0
 32 31  1  0  0  0  0
 33 29  1  0  0  0  0
 33 32  1  0  0  0  0
 34 31  1  0  0  0  0
M  END
>  <MODEL>
7

>  <REMARK>
 VINA RESULT:      -4.4      3.557      6.682
  Name = 
  6 active torsions:
  status: ('A' for Active; 'I' for Inactive)
    1  A    between atoms: C_3  and  C_13
    2  A    between atoms: C_3  and  C_17
    3  A    between atoms: C_12  and  C_28
    4  A    between atoms: C_17  and  C_29
    5  A    between atoms: C_18  and  C_29
    6  A    between atoms: C_18  and  C_31
                            x       y       z     vdW  Elec       q    Type
                         _______ _______ _______ _____ _____    ______ ____

>  <TORSDO>
F 6

$$$$
=
 OpenBabel10262423463D

 34 37  0  0  1  0  0  0  0  0999 V2000
  180.7230  180.3590  140.6360 C   0  0  2  0  0  3  0  0  0  0  0  0
  182.0310  178.6670  141.8210 C   0  0  0  0  0  0  0  0  0  0  0  0
  181.7380  178.3350  139.5610 N   0  0  1  0  0  0  0  0  0  0  0  0
  180.4600  181.9530  138.8810 O   0  0  0  0  0  1  0  0  0  0  0  0
  181.7710  178.6780  143.0540 O   0  0  0  0  0  0  0  0  0  0  0  0
  183.3200  178.4290  141.2980 N   0  0  0  0  0  0  0  0  0  0  0  0
  181.0330  178.8600  140.7520 C   0  0  2  0  0  3  0  0  0  0  0  0
  179.9820  180.7850  141.7380 O   0  0  0  0  0  1  0  0  0  0  0  0
  181.3320  178.9230  138.3340 N   0  0  0  0  0  0  0  0  0  0  0  0
  179.9820  180.7320  139.3570 C   0  0  1  0  0  3  0  0  0  0  0  0
  184.3300  177.6670  142.0100 C   0  0  0  0  0  1  0  0  0  0  0  0
  181.7370  179.0950  136.0460 O   0  0  0  0  0  0  0  0  0  0  0  0
  181.7830  178.3730  137.0820 C   0  0  0  0  0  0  0  0  0  0  0  0
  183.2010  178.4100  139.8510 C   0  0  2  0  0  3  0  0  0  0  0  0
  180.0800  179.6790  138.2630 C   0  0  0  0  0  2  0  0  0  0  0  0
  182.2420  174.5190  137.5850 C   0  0  2  0  0  3  0  0  0  0  0  0
  183.0560  174.2960  136.3160 C   0  0  0  0  0  2  0  0  0  0  0  0
  182.3060  176.9910  136.9750 C   0  0  0  0  0  0  0  0  0  0  0  0
  184.0740  175.4200  136.1480 C   0  0  0  0  0  2  0  0  0  0  0  0
  181.4720  175.8360  137.4820 C   0  0  0  0  0  2  0  0  0  0  0  0
  183.4410  176.7750  136.2920 C   0  0  0  0  0  3  0  0  0  0  0  0
  183.0680  174.5340  138.6950 F   0  0  0  0  0  0  0  0  0  0  0  0
  183.1460  180.6340  138.8220 O   0  0  0  0  0  1  0  0  0  0  0  0
  183.9800  179.6100  139.2690 C   0  0  2  0  0  3  0  0  0  0  0  0
  184.9660  179.2130  138.1830 C   0  0  0  0  0  2  0  0  0  0  0  0
  186.1250  178.4080  138.7530 C   0  0  0  0  0  2  0  0  0  0  0  0
  186.6660  177.4360  137.7160 C   0  0  0  0  0  2  0  0  0  0  0  0
  189.1860  178.5720  136.6100 O   0  0  0  0  0  1  0  0  0  0  0  0
  188.0790  176.9870  138.0590 C   0  0  1  0  0  3  0  0  0  0  0  0
  189.0370  177.2090  136.8800 C   0  0  2  0  0  3  0  0  0  0  0  0
  190.8100  176.1610  138.8490 S   0  0  0  0  0  0  0  0  0  0  0  0
  190.0660  177.6850  139.5110 C   0  0  0  0  0  2  0  0  0  0  0  0
  188.5450  177.6780  139.3450 C   0  0  0  0  0  2  0  0  0  0  0  0
  190.4150  176.5710  137.1030 C   0  0  0  0  0  2  0  0  0  0  0  0
  1  7  1  0  0  0  0
  1  8  1  1  0  0  0
  2  5  2  0  0  0  0
  3  9  1  6  0  0  0
  3 14  1  0  0  0  0
  3  7  1  0  0  0  0
  6  2  1  0  0  0  0
  6 11  1  0  0  0  0
  7  2  1  1  0  0  0
 10  4  1  6  0  0  0
 10  1  1  0  0  0  0
 12 13  2  0  0  0  0
 13  9  1  0  0  0  0
 14 24  1  6  0  0  0
 14  6  1  0  0  0  0
 15  9  1  0  0  0  0
 15 10  1  0  0  0  0
 16 22  1  1  0  0  0
 17 16  1  0  0  0  0
 18 13  1  0  0  0  0
 18 20  1  0  0  0  0
 19 21  1  0  0  0  0
 19 17  1  0  0  0  0
 20 16  1  0  0  0  0
 21 18  2  0  0  0  0
 24 23  1  6  0  0  0
 25 26  1  0  0  0  0
 25 24  1  0  0  0  0
 27 26  1  0  0  0  0
 29 27  1  6  0  0  0
 29 33  1  0  0  0  0
 30 28  1  1  0  0  0
 30 34  1  0  0  0  0
 30 29  1  0  0  0  0
 31 32  1  0  0  0  0
 33 32  1  0  0  0  0
 34 31  1  0  0  0  0
M  END
>  <MODEL>
8

>  <REMARK>
 VINA RESULT:      -4.4      4.445      9.251
  Name = 
  6 active torsions:
  status: ('A' for Active; 'I' for Inactive)
    1  A    between atoms: C_3  and  C_13
    2  A    between atoms: C_3  and  C_17
    3  A    between atoms: C_12  and  C_28
    4  A    between atoms: C_17  and  C_29
    5  A    between atoms: C_18  and  C_29
    6  A    between atoms: C_18  and  C_31
                            x       y       z     vdW  Elec       q    Type
                         _______ _______ _______ _____ _____    ______ ____

>  <TORSDO>
F 6

$$$$
=
 OpenBabel10262423463D

 34 37  0  0  1  0  0  0  0  0999 V2000
  188.7700  178.0500  139.4550 C   0  0  2  0  0  3  0  0  0  0  0  0
  188.4560  178.6040  137.0950 C   0  0  0  0  0  0  0  0  0  0  0  0
  190.3850  177.4650  137.6310 N   0  0  1  0  0  0  0  0  0  0  0  0
  189.1780  176.4770  141.2020 O   0  0  0  0  0  1  0  0  0  0  0  0
  187.6550  179.5670  136.9600 O   0  0  0  0  0  0  0  0  0  0  0  0
  188.5130  177.5080  136.2080 N   0  0  0  0  0  0  0  0  0  0  0  0
  189.4680  178.4980  138.1640 C   0  0  2  0  0  3  0  0  0  0  0  0
  187.9880  179.0870  139.9660 O   0  0  0  0  0  1  0  0  0  0  0  0
  191.0630  176.7150  138.6270 N   0  0  0  0  0  0  0  0  0  0  0  0
  189.7330  177.5700  140.5350 C   0  0  1  0  0  3  0  0  0  0  0  0
  188.0930  177.5950  134.8210 C   0  0  0  0  0  1  0  0  0  0  0  0
  192.4630  174.9040  139.0630 O   0  0  0  0  0  0  0  0  0  0  0  0
  192.1310  175.8200  138.2600 C   0  0  0  0  0  0  0  0  0  0  0  0
  189.6090  176.6590  136.6420 C   0  0  2  0  0  3  0  0  0  0  0  0
  191.1120  177.2040  140.0050 C   0  0  0  0  0  2  0  0  0  0  0  0
  193.3500  175.1250  134.6060 C   0  0  2  0  0  3  0  0  0  0  0  0
  193.8650  176.5350  134.3460 C   0  0  0  0  0  2  0  0  0  0  0  0
  192.8420  175.9380  136.9660 C   0  0  0  0  0  0  0  0  0  0  0  0
  194.6050  177.0530  135.5760 C   0  0  0  0  0  2  0  0  0  0  0  0
  192.3640  175.1390  135.7740 C   0  0  0  0  0  2  0  0  0  0  0  0
  193.8020  176.8670  136.8330 C   0  0  0  0  0  3  0  0  0  0  0  0
  194.4020  174.2670  134.8800 F   0  0  0  0  0  0  0  0  0  0  0  0
  189.3160  174.2560  136.2510 O   0  0  0  0  0  1  0  0  0  0  0  0
  189.0350  175.3080  137.1230 C   0  0  2  0  0  3  0  0  0  0  0  0
  187.5480  175.3650  137.4300 C   0  0  0  0  0  2  0  0  0  0  0  0
  186.7770  174.3120  136.6440 C   0  0  0  0  0  2  0  0  0  0  0  0
  185.6710  174.9570  135.8250 C   0  0  0  0  0  2  0  0  0  0  0  0
  182.8700  175.6790  135.1200 O   0  0  0  0  0  1  0  0  0  0  0  0
  184.6860  175.7030  136.7130 C   0  0  1  0  0  3  0  0  0  0  0  0
  183.6890  176.5200  135.8780 C   0  0  2  0  0  3  0  0  0  0  0  0
  182.7680  177.0510  138.5220 S   0  0  0  0  0  0  0  0  0  0  0  0
  182.6870  175.2530  138.2440 C   0  0  0  0  0  2  0  0  0  0  0  0
  184.0000  174.7200  137.6680 C   0  0  0  0  0  2  0  0  0  0  0  0
  182.8230  177.4570  136.7320 C   0  0  0  0  0  2  0  0  0  0  0  0
  1  8  1  1  0  0  0
  1 10  1  0  0  0  0
  3  7  1  0  0  0  0
  3  9  1  1  0  0  0
  5  2  2  0  0  0  0
  6 14  1  0  0  0  0
  6  2  1  0  0  0  0
  7  2  1  6  0  0  0
  7  1  1  0  0  0  0
  9 15  1  0  0  0  0
 10  4  1  6  0  0  0
 11  6  1  0  0  0  0
 13  9  1  0  0  0  0
 13 12  2  0  0  0  0
 14 24  1  1  0  0  0
 14  3  1  0  0  0  0
 15 10  1  0  0  0  0
 16 22  1  1  0  0  0
 16 20  1  0  0  0  0
 17 16  1  0  0  0  0
 17 19  1  0  0  0  0
 18 13  1  0  0  0  0
 19 21  1  0  0  0  0
 20 18  1  0  0  0  0
 21 18  2  0  0  0  0
 24 23  1  6  0  0  0
 24 25  1  0  0  0  0
 26 25  1  0  0  0  0
 27 26  1  0  0  0  0
 29 27  1  6  0  0  0
 29 33  1  0  0  0  0
 30 28  1  1  0  0  0
 30 29  1  0  0  0  0
 30 34  1  0  0  0  0
 32 31  1  0  0  0  0
 33 32  1  0  0  0  0
 34 31  1  0  0  0  0
M  END
>  <MODEL>
9

>  <REMARK>
 VINA RESULT:      -4.3      2.838      5.248
  Name = 
  6 active torsions:
  status: ('A' for Active; 'I' for Inactive)
    1  A    between atoms: C_3  and  C_13
    2  A    between atoms: C_3  and  C_17
    3  A    between atoms: C_12  and  C_28
    4  A    between atoms: C_17  and  C_29
    5  A    between atoms: C_18  and  C_29
    6  A    between atoms: C_18  and  C_31
                            x       y       z     vdW  Elec       q    Type
                         _______ _______ _______ _____ _____    ______ ____

>  <TORSDO>
F 6

$$$$
