=
 OpenBabel10272401493D

 28 30  0  0  1  0  0  0  0  0999 V2000
  190.7400  175.5820  136.4430 C   0  0  2  0  0  3  0  0  0  0  0  0
  194.8050  175.3630  137.7910 O   0  0  0  0  0  1  0  0  0  0  0  0
  190.7030  176.6290  140.2120 C   0  0  1  0  0  3  0  0  0  0  0  0
  192.6610  176.4470  137.9250 C   0  0  1  0  0  3  0  0  0  0  0  0
  190.4770  175.7090  138.9990 C   0  0  0  0  0  2  0  0  0  0  0  0
  193.1130  174.4960  136.3660 C   0  0  0  0  0  2  0  0  0  0  0  0
  193.0230  177.0310  139.3080 C   0  0  0  0  0  2  0  0  0  0  0  0
  193.4300  175.1290  137.7170 C   0  0  1  0  0  3  0  0  0  0  0  0
  191.8270  177.6610  140.0250 C   0  0  0  0  0  2  0  0  0  0  0  0
  191.4010  173.8840  136.3540 S   0  0  0  0  0  0  0  0  0  0  0  0
  191.1350  176.2890  137.7450 C   0  0  2  0  0  3  0  0  0  0  0  0
  189.2610  175.6620  136.1720 C   0  0  0  0  0  0  0  0  0  0  0  0
  188.3890  174.7260  136.7530 C   0  0  0  0  0  3  0  0  0  0  0  0
  187.3420  176.7860  135.1720 C   0  0  0  0  0  0  0  0  0  0  0  0
  187.0140  174.8120  136.5400 C   0  0  0  0  0  3  0  0  0  0  0  0
  189.6430  177.7370  134.7820 C   0  0  0  0  0  1  0  0  0  0  0  0
  188.7330  176.7070  135.3820 C   0  0  0  0  0  0  0  0  0  0  0  0
  186.7360  177.8740  134.3460 C   0  0  0  0  0  1  0  0  0  0  0  0
  186.4940  175.8380  135.7500 C   0  0  0  0  0  3  0  0  0  0  0  0
  189.4570  177.2660  140.6450 N   0  0  0  0  0  0  0  0  0  0  0  0
  188.1530  178.2730  142.3170 O   0  0  0  0  0  0  0  0  0  0  0  0
  189.1460  177.5480  142.0270 C   0  0  0  0  0  0  0  0  0  0  0  0
  188.5810  177.6960  139.6340 C   0  0  0  0  0  0  0  0  0  0  0  0
  187.8250  178.0600  138.7680 C   0  0  0  0  0  3  0  0  0  0  0  0
  189.9510  176.9680  143.1440 C   0  0  0  0  0  2  0  0  0  0  0  0
  189.6010  177.3290  145.5400 C   0  0  0  0  0  3  0  0  0  0  0  0
  189.1220  176.8860  144.3800 C   0  0  0  0  0  3  0  0  0  0  0  0
  188.7590  177.2470  146.7680 C   0  0  0  0  0  1  0  0  0  0  0  0
  1 12  1  1  0  0  0
  1 11  1  0  0  0  0
  3 20  1  6  0  0  0
  4  7  1  1  0  0  0
  5  3  1  0  0  0  0
  6  8  1  0  0  0  0
  7  9  1  0  0  0  0
  8  2  1  6  0  0  0
  8  4  1  0  0  0  0
  9  3  1  0  0  0  0
 10  6  1  0  0  0  0
 10  1  1  0  0  0  0
 11  4  1  0  0  0  0
 11  5  1  1  0  0  0
 12 13  1  0  0  0  0
 14 17  1  0  0  0  0
 14 19  2  0  0  0  0
 15 13  2  0  0  0  0
 16 17  1  0  0  0  0
 17 12  2  0  0  0  0
 18 14  1  0  0  0  0
 19 15  1  0  0  0  0
 20 22  1  0  0  0  0
 22 21  2  0  0  0  0
 22 25  1  0  0  0  0
 23 20  1  0  0  0  0
 24 23  3  0  0  0  0
 25 27  1  0  0  0  0
 26 28  1  0  0  0  0
 27 26  2  0  0  0  0
M  END
>  <MODEL>
1

>  <REMARK>
 VINA RESULT:      -6.0      0.000      0.000
  Name = 
  5 active torsions:
  status: ('A' for Active; 'I' for Inactive)
    1  A    between atoms: C_1  and  C_2
    2  A    between atoms: C_4  and  N_13
    3  A    between atoms: C_9  and  C_15
    4  A    between atoms: C_9  and  C_18
    5  A    between atoms: C_10  and  N_13
                            x       y       z     vdW  Elec       q    Type
                         _______ _______ _______ _____ _____    ______ ____

>  <TORSDO>
F 5

$$$$
=
 OpenBabel10272401493D

 28 30  0  0  1  0  0  0  0  0999 V2000
  182.4730  178.1300  139.8810 C   0  0  2  0  0  3  0  0  0  0  0  0
  180.3170  180.2120  142.9470 O   0  0  0  0  0  1  0  0  0  0  0  0
  185.0920  179.0310  142.6430 C   0  0  1  0  0  3  0  0  0  0  0  0
  182.1060  178.7130  142.3630 C   0  0  1  0  0  3  0  0  0  0  0  0
  184.3700  179.1480  141.2880 C   0  0  0  0  0  2  0  0  0  0  0  0
  180.5510  179.7290  140.6320 C   0  0  0  0  0  2  0  0  0  0  0  0
  182.8070  178.9970  143.7090 C   0  0  0  0  0  2  0  0  0  0  0  0
  181.2680  179.9420  141.9610 C   0  0  1  0  0  3  0  0  0  0  0  0
  184.2320  178.4420  143.7720 C   0  0  0  0  0  2  0  0  0  0  0  0
  181.7580  179.6940  139.2730 S   0  0  0  0  0  0  0  0  0  0  0  0
  183.1070  178.2830  141.2680 C   0  0  2  0  0  3  0  0  0  0  0  0
  183.4020  177.4750  138.8930 C   0  0  0  0  0  0  0  0  0  0  0  0
  184.4450  178.2160  138.3110 C   0  0  0  0  0  3  0  0  0  0  0  0
  184.1760  175.5000  137.6900 C   0  0  0  0  0  0  0  0  0  0  0  0
  185.3340  177.6120  137.4250 C   0  0  0  0  0  3  0  0  0  0  0  0
  182.1880  175.2850  139.2250 C   0  0  0  0  0  1  0  0  0  0  0  0
  183.2720  176.1020  138.5880 C   0  0  0  0  0  0  0  0  0  0  0  0
  184.0790  174.0510  137.3370 C   0  0  0  0  0  1  0  0  0  0  0  0
  185.1970  176.2590  137.1150 C   0  0  0  0  0  3  0  0  0  0  0  0
  186.3670  178.3220  142.5140 N   0  0  0  0  0  0  0  0  0  0  0  0
  187.9370  176.7800  143.3320 O   0  0  0  0  0  0  0  0  0  0  0  0
  186.9430  177.5220  143.5700 C   0  0  0  0  0  0  0  0  0  0  0  0
  186.9920  178.3660  141.2570 C   0  0  0  0  0  0  0  0  0  0  0  0
  187.5330  178.3970  140.1790 C   0  0  0  0  0  3  0  0  0  0  0  0
  186.4170  177.5770  144.9680 C   0  0  0  0  0  2  0  0  0  0  0  0
  187.3320  177.9100  147.2140 C   0  0  0  0  0  3  0  0  0  0  0  0
  187.5480  177.6020  145.9380 C   0  0  0  0  0  3  0  0  0  0  0  0
  188.4710  177.9250  148.1760 C   0  0  0  0  0  1  0  0  0  0  0  0
  1 12  1  6  0  0  0
  1 11  1  0  0  0  0
  3 20  1  6  0  0  0
  3  9  1  0  0  0  0
  4  7  1  1  0  0  0
  5  3  1  0  0  0  0
  6  8  1  0  0  0  0
  7  9  1  0  0  0  0
  8  4  1  0  0  0  0
  8  2  1  1  0  0  0
 10  1  1  0  0  0  0
 10  6  1  0  0  0  0
 11  5  1  6  0  0  0
 11  4  1  0  0  0  0
 13 12  2  0  0  0  0
 14 17  2  0  0  0  0
 15 13  1  0  0  0  0
 17 12  1  0  0  0  0
 17 16  1  0  0  0  0
 18 14  1  0  0  0  0
 19 15  2  0  0  0  0
 19 14  1  0  0  0  0
 20 22  1  0  0  0  0
 21 22  2  0  0  0  0
 22 25  1  0  0  0  0
 23 20  1  0  0  0  0
 24 23  3  0  0  0  0
 25 27  1  0  0  0  0
 26 28  1  0  0  0  0
 27 26  2  0  0  0  0
M  END
>  <MODEL>
2

>  <REMARK>
 VINA RESULT:      -6.0      4.959      7.825
  Name = 
  5 active torsions:
  status: ('A' for Active; 'I' for Inactive)
    1  A    between atoms: C_1  and  C_2
    2  A    between atoms: C_4  and  N_13
    3  A    between atoms: C_9  and  C_15
    4  A    between atoms: C_9  and  C_18
    5  A    between atoms: C_10  and  N_13
                            x       y       z     vdW  Elec       q    Type
                         _______ _______ _______ _____ _____    ______ ____

>  <TORSDO>
F 5

$$$$
=
 OpenBabel10272401493D

 28 30  0  0  1  0  0  0  0  0999 V2000
  188.5830  177.6520  143.3990 C   0  0  2  0  0  3  0  0  0  0  0  0
  185.3730  179.3560  141.1230 O   0  0  0  0  0  1  0  0  0  0  0  0
  189.4510  177.0220  139.6370 C   0  0  1  0  0  3  0  0  0  0  0  0
  187.7210  178.8560  141.2910 C   0  0  1  0  0  3  0  0  0  0  0  0
  188.9850  176.6620  141.0590 C   0  0  0  0  0  2  0  0  0  0  0  0
  186.0610  178.2620  143.1180 C   0  0  0  0  0  2  0  0  0  0  0  0
  187.8760  178.9880  139.7610 C   0  0  0  0  0  2  0  0  0  0  0  0
  186.2810  178.4160  141.6160 C   0  0  1  0  0  3  0  0  0  0  0  0
  189.2320  178.4940  139.2510 C   0  0  0  0  0  2  0  0  0  0  0  0
  186.9920  176.8290  143.7380 S   0  0  0  0  0  0  0  0  0  0  0  0
  188.7890  177.9230  141.9040 C   0  0  2  0  0  3  0  0  0  0  0  0
  189.7620  176.9530  144.0230 C   0  0  0  0  0  0  0  0  0  0  0  0
  190.6000  176.1470  143.2320 C   0  0  0  0  0  3  0  0  0  0  0  0
  191.2000  176.5120  145.9420 C   0  0  0  0  0  0  0  0  0  0  0  0
  191.7160  175.5250  143.7890 C   0  0  0  0  0  3  0  0  0  0  0  0
  189.2100  178.0290  146.2400 C   0  0  0  0  0  1  0  0  0  0  0  0
  190.0700  177.1450  145.3870 C   0  0  0  0  0  0  0  0  0  0  0  0
  191.5670  176.6860  147.3800 C   0  0  0  0  0  1  0  0  0  0  0  0
  192.0120  175.7050  145.1410 C   0  0  0  0  0  3  0  0  0  0  0  0
  190.8360  176.6070  139.4020 N   0  0  0  0  0  0  0  0  0  0  0  0
  192.4550  175.5580  138.0640 O   0  0  0  0  0  0  0  0  0  0  0  0
  191.2320  175.7180  138.3350 C   0  0  0  0  0  0  0  0  0  0  0  0
  191.8200  177.1940  140.2170 C   0  0  0  0  0  0  0  0  0  0  0  0
  192.6670  177.6990  140.9100 C   0  0  0  0  0  3  0  0  0  0  0  0
  190.2240  174.9390  137.5540 C   0  0  0  0  0  2  0  0  0  0  0  0
  189.6360  176.6850  135.9420 C   0  0  0  0  0  3  0  0  0  0  0  0
  190.1340  175.4710  136.1650 C   0  0  0  0  0  3  0  0  0  0  0  0
  189.5570  177.2080  134.5480 C   0  0  0  0  0  1  0  0  0  0  0  0
  1 10  1  0  0  0  0
  1 12  1  6  0  0  0
  3 20  1  1  0  0  0
  3  5  1  0  0  0  0
  4  7  1  6  0  0  0
  4  8  1  0  0  0  0
  4 11  1  0  0  0  0
  6 10  1  0  0  0  0
  8  2  1  1  0  0  0
  8  6  1  0  0  0  0
  9  3  1  0  0  0  0
  9  7  1  0  0  0  0
 11  5  1  6  0  0  0
 11  1  1  0  0  0  0
 12 17  1  0  0  0  0
 13 15  1  0  0  0  0
 13 12  2  0  0  0  0
 14 18  1  0  0  0  0
 15 19  2  0  0  0  0
 17 14  2  0  0  0  0
 17 16  1  0  0  0  0
 19 14  1  0  0  0  0
 20 23  1  0  0  0  0
 21 22  2  0  0  0  0
 22 20  1  0  0  0  0
 23 24  3  0  0  0  0
 25 22  1  0  0  0  0
 26 27  2  0  0  0  0
 27 25  1  0  0  0  0
 28 26  1  0  0  0  0
M  END
>  <MODEL>
3

>  <REMARK>
 VINA RESULT:      -5.8      2.486      8.194
  Name = 
  5 active torsions:
  status: ('A' for Active; 'I' for Inactive)
    1  A    between atoms: C_1  and  C_2
    2  A    between atoms: C_4  and  N_13
    3  A    between atoms: C_9  and  C_15
    4  A    between atoms: C_9  and  C_18
    5  A    between atoms: C_10  and  N_13
                            x       y       z     vdW  Elec       q    Type
                         _______ _______ _______ _____ _____    ______ ____

>  <TORSDO>
F 5

$$$$
=
 OpenBabel10272401493D

 28 30  0  0  1  0  0  0  0  0999 V2000
  189.5420  177.1300  143.3080 C   0  0  2  0  0  3  0  0  0  0  0  0
  192.2810  177.0370  140.0110 O   0  0  0  0  0  1  0  0  0  0  0  0
  187.6270  178.6400  140.2490 C   0  0  1  0  0  3  0  0  0  0  0  0
  190.0100  176.8720  140.7880 C   0  0  1  0  0  3  0  0  0  0  0  0
  188.3830  178.6540  141.5900 C   0  0  0  0  0  2  0  0  0  0  0  0
  191.9670  177.2710  142.3550 C   0  0  0  0  0  2  0  0  0  0  0  0
  189.4840  177.1780  139.3690 C   0  0  0  0  0  2  0  0  0  0  0  0
  191.3910  177.5310  140.9670 C   0  0  1  0  0  3  0  0  0  0  0  0
  187.9790  177.4560  139.3340 C   0  0  0  0  0  2  0  0  0  0  0  0
  191.0070  178.1740  143.6060 S   0  0  0  0  0  0  0  0  0  0  0  0
  189.0000  177.2840  141.8820 C   0  0  2  0  0  3  0  0  0  0  0  0
  188.4680  177.2960  144.3500 C   0  0  0  0  0  0  0  0  0  0  0  0
  187.1130  177.2440  143.9780 C   0  0  0  0  0  3  0  0  0  0  0  0
  187.7870  177.5620  146.6770 C   0  0  0  0  0  0  0  0  0  0  0  0
  186.1100  177.3590  144.9390 C   0  0  0  0  0  3  0  0  0  0  0  0
  190.2460  177.4690  146.1350 C   0  0  0  0  0  1  0  0  0  0  0  0
  188.8080  177.4470  145.7130 C   0  0  0  0  0  0  0  0  0  0  0  0
  188.0970  177.7220  148.1300 C   0  0  0  0  0  1  0  0  0  0  0  0
  186.4470  177.5200  146.2830 C   0  0  0  0  0  3  0  0  0  0  0  0
  186.1800  178.7540  140.4440 N   0  0  0  0  0  0  0  0  0  0  0  0
  183.9840  178.2820  139.7610 O   0  0  0  0  0  0  0  0  0  0  0  0
  185.2080  178.3430  139.4580 C   0  0  0  0  0  0  0  0  0  0  0  0
  185.7450  179.2050  141.7020 C   0  0  0  0  0  0  0  0  0  0  0  0
  185.3640  179.5900  142.7790 C   0  0  0  0  0  3  0  0  0  0  0  0
  185.6080  178.0200  138.0540 C   0  0  0  0  0  2  0  0  0  0  0  0
  185.2070  175.8440  137.0070 C   0  0  0  0  0  3  0  0  0  0  0  0
  184.7040  176.9760  137.4940 C   0  0  0  0  0  3  0  0  0  0  0  0
  184.2920  174.8050  136.4550 C   0  0  0  0  0  1  0  0  0  0  0  0
  1 10  1  0  0  0  0
  1 12  1  1  0  0  0
  3 20  1  1  0  0  0
  3  5  1  0  0  0  0
  4  7  1  6  0  0  0
  4  8  1  0  0  0  0
  4 11  1  0  0  0  0
  6 10  1  0  0  0  0
  8  2  1  6  0  0  0
  8  6  1  0  0  0  0
  9  7  1  0  0  0  0
  9  3  1  0  0  0  0
 11  5  1  6  0  0  0
 11  1  1  0  0  0  0
 12 17  1  0  0  0  0
 13 12  2  0  0  0  0
 13 15  1  0  0  0  0
 14 18  1  0  0  0  0
 15 19  2  0  0  0  0
 17 16  1  0  0  0  0
 17 14  2  0  0  0  0
 19 14  1  0  0  0  0
 20 23  1  0  0  0  0
 22 21  2  0  0  0  0
 22 20  1  0  0  0  0
 23 24  3  0  0  0  0
 25 22  1  0  0  0  0
 26 27  2  0  0  0  0
 27 25  1  0  0  0  0
 28 26  1  0  0  0  0
M  END
>  <MODEL>
4

>  <REMARK>
 VINA RESULT:      -5.7      3.322      7.612
  Name = 
  5 active torsions:
  status: ('A' for Active; 'I' for Inactive)
    1  A    between atoms: C_1  and  C_2
    2  A    between atoms: C_4  and  N_13
    3  A    between atoms: C_9  and  C_15
    4  A    between atoms: C_9  and  C_18
    5  A    between atoms: C_10  and  N_13
                            x       y       z     vdW  Elec       q    Type
                         _______ _______ _______ _____ _____    ______ ____

>  <TORSDO>
F 5

$$$$
=
 OpenBabel10272401493D

 28 30  0  0  1  0  0  0  0  0999 V2000
  187.3340  174.8960  135.5760 C   0  0  2  0  0  3  0  0  0  0  0  0
  191.1490  176.4700  134.4130 O   0  0  0  0  0  1  0  0  0  0  0  0
  188.2740  177.5850  138.2570 C   0  0  1  0  0  3  0  0  0  0  0  0
  188.9990  176.8550  135.4220 C   0  0  1  0  0  3  0  0  0  0  0  0
  188.0660  176.1700  137.6870 C   0  0  0  0  0  2  0  0  0  0  0  0
  189.6860  174.5990  134.4840 C   0  0  0  0  0  2  0  0  0  0  0  0
  189.5410  178.1090  136.1410 C   0  0  0  0  0  2  0  0  0  0  0  0
  190.1570  175.8670  135.1890 C   0  0  1  0  0  3  0  0  0  0  0  0
  188.5800  178.6570  137.1990 C   0  0  0  0  0  2  0  0  0  0  0  0
  188.6370  173.6200  135.6010 S   0  0  0  0  0  0  0  0  0  0  0  0
  187.8100  176.2220  136.1790 C   0  0  2  0  0  3  0  0  0  0  0  0
  186.0310  174.4300  136.1710 C   0  0  0  0  0  0  0  0  0  0  0  0
  186.0240  173.4060  137.1340 C   0  0  0  0  0  3  0  0  0  0  0  0
  183.6120  174.6280  136.4080 C   0  0  0  0  0  0  0  0  0  0  0  0
  184.8290  172.9920  137.7190 C   0  0  0  0  0  3  0  0  0  0  0  0
  184.8050  176.1710  134.8130 C   0  0  0  0  0  1  0  0  0  0  0  0
  184.8150  175.0530  135.8120 C   0  0  0  0  0  0  0  0  0  0  0  0
  182.3010  175.2570  136.0620 C   0  0  0  0  0  1  0  0  0  0  0  0
  183.6270  173.6000  137.3540 C   0  0  0  0  0  3  0  0  0  0  0  0
  187.1600  177.9870  139.1190 N   0  0  0  0  0  0  0  0  0  0  0  0
  186.3600  178.9330  141.1130 O   0  0  0  0  0  0  0  0  0  0  0  0
  187.3270  178.4130  140.4890 C   0  0  0  0  0  0  0  0  0  0  0  0
  185.8870  178.0390  138.5260 C   0  0  0  0  0  0  0  0  0  0  0  0
  184.7940  178.0770  138.0180 C   0  0  0  0  0  3  0  0  0  0  0  0
  188.6170  178.2180  141.2170 C   0  0  0  0  0  2  0  0  0  0  0  0
  189.0220  177.7280  143.5810 C   0  0  0  0  0  3  0  0  0  0  0  0
  188.3890  177.4160  142.4530 C   0  0  0  0  0  3  0  0  0  0  0  0
  188.7810  176.9230  144.8120 C   0  0  0  0  0  1  0  0  0  0  0  0
  1 10  1  0  0  0  0
  1 12  1  1  0  0  0
  1 11  1  0  0  0  0
  3 20  1  6  0  0  0
  4  7  1  1  0  0  0
  4 11  1  0  0  0  0
  5  3  1  0  0  0  0
  6  8  1  0  0  0  0
  6 10  1  0  0  0  0
  7  9  1  0  0  0  0
  8  2  1  6  0  0  0
  8  4  1  0  0  0  0
  9  3  1  0  0  0  0
 11  5  1  1  0  0  0
 12 13  1  0  0  0  0
 13 15  2  0  0  0  0
 14 19  2  0  0  0  0
 16 17  1  0  0  0  0
 17 12  2  0  0  0  0
 17 14  1  0  0  0  0
 18 14  1  0  0  0  0
 19 15  1  0  0  0  0
 20 22  1  0  0  0  0
 22 21  2  0  0  0  0
 22 25  1  0  0  0  0
 23 20  1  0  0  0  0
 24 23  3  0  0  0  0
 25 27  1  0  0  0  0
 26 28  1  0  0  0  0
 27 26  2  0  0  0  0
M  END
>  <MODEL>
5

>  <REMARK>
 VINA RESULT:      -5.5      2.533      3.639
  Name = 
  5 active torsions:
  status: ('A' for Active; 'I' for Inactive)
    1  A    between atoms: C_1  and  C_2
    2  A    between atoms: C_4  and  N_13
    3  A    between atoms: C_9  and  C_15
    4  A    between atoms: C_9  and  C_18
    5  A    between atoms: C_10  and  N_13
                            x       y       z     vdW  Elec       q    Type
                         _______ _______ _______ _____ _____    ______ ____

>  <TORSDO>
F 5

$$$$
=
 OpenBabel10272401493D

 28 30  0  0  1  0  0  0  0  0999 V2000
  181.8390  178.0610  140.2700 C   0  0  2  0  0  3  0  0  0  0  0  0
  182.0200  179.1080  144.4240 O   0  0  0  0  0  1  0  0  0  0  0  0
  185.5710  178.9720  141.0100 C   0  0  1  0  0  3  0  0  0  0  0  0
  183.1000  178.1200  142.5150 C   0  0  1  0  0  3  0  0  0  0  0  0
  184.1500  179.1760  140.4530 C   0  0  0  0  0  2  0  0  0  0  0  0
  180.7570  179.0900  142.4110 C   0  0  0  0  0  2  0  0  0  0  0  0
  184.4810  178.2990  143.1820 C   0  0  0  0  0  2  0  0  0  0  0  0
  182.1430  179.2080  143.0370 C   0  0  1  0  0  3  0  0  0  0  0  0
  185.6480  178.0360  142.2270 C   0  0  0  0  0  2  0  0  0  0  0  0
  180.8310  179.5330  140.6490 S   0  0  0  0  0  0  0  0  0  0  0  0
  183.2000  178.0940  140.9740 C   0  0  2  0  0  3  0  0  0  0  0  0
  181.9620  177.7860  138.7940 C   0  0  0  0  0  0  0  0  0  0  0  0
  181.7880  178.8290  137.8680 C   0  0  0  0  0  3  0  0  0  0  0  0
  182.4560  176.2700  136.9490 C   0  0  0  0  0  0  0  0  0  0  0  0
  181.9360  178.5950  136.5020 C   0  0  0  0  0  3  0  0  0  0  0  0
  182.5340  175.3790  139.3050 C   0  0  0  0  0  1  0  0  0  0  0  0
  182.3090  176.4970  138.3320 C   0  0  0  0  0  0  0  0  0  0  0  0
  182.8230  174.9250  136.4120 C   0  0  0  0  0  1  0  0  0  0  0  0
  182.2670  177.3190  136.0460 C   0  0  0  0  0  3  0  0  0  0  0  0
  186.5070  178.5640  139.9600 N   0  0  0  0  0  0  0  0  0  0  0  0
  188.6310  177.8140  139.2970 O   0  0  0  0  0  0  0  0  0  0  0  0
  187.9180  178.3540  140.1890 C   0  0  0  0  0  0  0  0  0  0  0  0
  185.9590  178.2800  138.6980 C   0  0  0  0  0  0  0  0  0  0  0  0
  185.4820  178.0360  137.6170 C   0  0  0  0  0  3  0  0  0  0  0  0
  188.5790  178.7990  141.4520 C   0  0  0  0  0  2  0  0  0  0  0  0
  189.1130  176.6610  142.5200 C   0  0  0  0  0  3  0  0  0  0  0  0
  189.5470  177.7630  141.9130 C   0  0  0  0  0  3  0  0  0  0  0  0
  190.0910  175.6300  142.9700 C   0  0  0  0  0  1  0  0  0  0  0  0
  1 12  1  6  0  0  0
  1 10  1  0  0  0  0
  1 11  1  0  0  0  0
  3 20  1  6  0  0  0
  3  9  1  0  0  0  0
  4  8  1  0  0  0  0
  4  7  1  1  0  0  0
  5  3  1  0  0  0  0
  6  8  1  0  0  0  0
  8  2  1  1  0  0  0
  9  7  1  0  0  0  0
 10  6  1  0  0  0  0
 11  5  1  6  0  0  0
 11  4  1  0  0  0  0
 13 12  2  0  0  0  0
 14 17  2  0  0  0  0
 15 13  1  0  0  0  0
 17 12  1  0  0  0  0
 17 16  1  0  0  0  0
 18 14  1  0  0  0  0
 19 15  2  0  0  0  0
 19 14  1  0  0  0  0
 20 22  1  0  0  0  0
 21 22  2  0  0  0  0
 22 25  1  0  0  0  0
 23 20  1  0  0  0  0
 24 23  3  0  0  0  0
 25 27  1  0  0  0  0
 26 28  1  0  0  0  0
 27 26  2  0  0  0  0
M  END
>  <MODEL>
6

>  <REMARK>
 VINA RESULT:      -5.3      5.094      7.862
  Name = 
  5 active torsions:
  status: ('A' for Active; 'I' for Inactive)
    1  A    between atoms: C_1  and  C_2
    2  A    between atoms: C_4  and  N_13
    3  A    between atoms: C_9  and  C_15
    4  A    between atoms: C_9  and  C_18
    5  A    between atoms: C_10  and  N_13
                            x       y       z     vdW  Elec       q    Type
                         _______ _______ _______ _____ _____    ______ ____

>  <TORSDO>
F 5

$$$$
=
 OpenBabel10272401493D

 28 30  0  0  1  0  0  0  0  0999 V2000
  188.2270  177.1360  145.3560 C   0  0  2  0  0  3  0  0  0  0  0  0
  192.1640  176.1920  146.7700 O   0  0  0  0  0  1  0  0  0  0  0  0
  190.6460  177.7170  142.3370 C   0  0  1  0  0  3  0  0  0  0  0  0
  190.5950  176.2070  144.9470 C   0  0  1  0  0  3  0  0  0  0  0  0
  189.7230  178.1110  143.5050 C   0  0  0  0  0  2  0  0  0  0  0  0
  190.0050  177.0530  147.2660 C   0  0  0  0  0  2  0  0  0  0  0  0
  191.7500  176.1030  143.9280 C   0  0  0  0  0  2  0  0  0  0  0  0
  191.1040  176.9130  146.2170 C   0  0  1  0  0  3  0  0  0  0  0  0
  191.3000  176.3340  142.4840 C   0  0  0  0  0  2  0  0  0  0  0  0
  188.7560  178.2480  146.7020 S   0  0  0  0  0  0  0  0  0  0  0  0
  189.3460  176.8850  144.3390 C   0  0  2  0  0  3  0  0  0  0  0  0
  186.9410  177.5620  144.7010 C   0  0  0  0  0  0  0  0  0  0  0  0
  186.7310  177.3080  143.3340 C   0  0  0  0  0  3  0  0  0  0  0  0
  184.7030  178.5230  144.8340 C   0  0  0  0  0  0  0  0  0  0  0  0
  185.5290  177.6640  142.7240 C   0  0  0  0  0  3  0  0  0  0  0  0
  186.1050  178.4150  146.9260 C   0  0  0  0  0  1  0  0  0  0  0  0
  185.9150  178.1670  145.4600 C   0  0  0  0  0  0  0  0  0  0  0  0
  183.5880  179.1640  145.5960 C   0  0  0  0  0  1  0  0  0  0  0  0
  184.5210  178.2710  143.4720 C   0  0  0  0  0  3  0  0  0  0  0  0
  189.9690  177.8560  141.0450 N   0  0  0  0  0  0  0  0  0  0  0  0
  189.8010  177.3340  138.7620 O   0  0  0  0  0  0  0  0  0  0  0  0
  190.5160  177.3620  139.8030 C   0  0  0  0  0  0  0  0  0  0  0  0
  188.6820  178.4190  141.0610 C   0  0  0  0  0  0  0  0  0  0  0  0
  187.5760  178.9000  141.0820 C   0  0  0  0  0  3  0  0  0  0  0  0
  191.9380  176.9130  139.6990 C   0  0  0  0  0  2  0  0  0  0  0  0
  193.1070  176.5310  137.5810 C   0  0  0  0  0  3  0  0  0  0  0  0
  192.1450  176.1660  138.4260 C   0  0  0  0  0  3  0  0  0  0  0  0
  193.3070  175.7720  136.3140 C   0  0  0  0  0  1  0  0  0  0  0  0
  1 12  1  6  0  0  0
  1 10  1  0  0  0  0
  3 20  1  6  0  0  0
  3  9  1  0  0  0  0
  3  5  1  0  0  0  0
  4  7  1  6  0  0  0
  4  8  1  0  0  0  0
  8  2  1  1  0  0  0
  8  6  1  0  0  0  0
  9  7  1  0  0  0  0
 10  6  1  0  0  0  0
 11  5  1  1  0  0  0
 11  4  1  0  0  0  0
 11  1  1  0  0  0  0
 12 17  1  0  0  0  0
 13 12  2  0  0  0  0
 14 17  2  0  0  0  0
 14 18  1  0  0  0  0
 15 13  1  0  0  0  0
 15 19  2  0  0  0  0
 17 16  1  0  0  0  0
 19 14  1  0  0  0  0
 20 23  1  0  0  0  0
 21 22  2  0  0  0  0
 22 20  1  0  0  0  0
 23 24  3  0  0  0  0
 25 22  1  0  0  0  0
 26 27  2  0  0  0  0
 27 25  1  0  0  0  0
 28 26  1  0  0  0  0
M  END
>  <MODEL>
7

>  <REMARK>
 VINA RESULT:      -5.0      3.908      7.924
  Name = 
  5 active torsions:
  status: ('A' for Active; 'I' for Inactive)
    1  A    between atoms: C_1  and  C_2
    2  A    between atoms: C_4  and  N_13
    3  A    between atoms: C_9  and  C_15
    4  A    between atoms: C_9  and  C_18
    5  A    between atoms: C_10  and  N_13
                            x       y       z     vdW  Elec       q    Type
                         _______ _______ _______ _____ _____    ______ ____

>  <TORSDO>
F 5

$$$$
=
 OpenBabel10272401493D

 28 30  0  0  1  0  0  0  0  0999 V2000
  185.9410  178.6610  142.1720 C   0  0  2  0  0  3  0  0  0  0  0  0
  183.9700  178.9270  145.9710 O   0  0  0  0  0  1  0  0  0  0  0  0
  182.1300  178.1230  141.4710 C   0  0  1  0  0  3  0  0  0  0  0  0
  183.9000  179.3210  143.5990 C   0  0  1  0  0  3  0  0  0  0  0  0
  183.6060  177.7200  141.6450 C   0  0  0  0  0  2  0  0  0  0  0  0
  185.9140  178.2980  144.7570 C   0  0  0  0  0  2  0  0  0  0  0  0
  182.3580  179.3910  143.6390 C   0  0  0  0  0  2  0  0  0  0  0  0
  184.3940  178.4150  144.7430 C   0  0  1  0  0  3  0  0  0  0  0  0
  181.7210  179.3850  142.2470 C   0  0  0  0  0  2  0  0  0  0  0  0
  186.4780  177.3450  143.3150 S   0  0  0  0  0  0  0  0  0  0  0  0
  184.4240  178.8810  142.2140 C   0  0  2  0  0  3  0  0  0  0  0  0
  186.4560  178.4800  140.7690 C   0  0  0  0  0  0  0  0  0  0  0  0
  185.5650  178.5190  139.6830 C   0  0  0  0  0  3  0  0  0  0  0  0
  188.3050  178.2000  139.2030 C   0  0  0  0  0  0  0  0  0  0  0  0
  186.0340  178.3910  138.3770 C   0  0  0  0  0  3  0  0  0  0  0  0
  188.8110  178.3210  141.6690 C   0  0  0  0  0  1  0  0  0  0  0  0
  187.8390  178.3290  140.5270 C   0  0  0  0  0  0  0  0  0  0  0  0
  189.7580  178.0390  138.8970 C   0  0  0  0  0  1  0  0  0  0  0  0
  187.3990  178.2290  138.1400 C   0  0  0  0  0  3  0  0  0  0  0  0
  181.7610  178.2210  140.0570 N   0  0  0  0  0  0  0  0  0  0  0  0
  180.5310  177.4540  138.2100 O   0  0  0  0  0  0  0  0  0  0  0  0
  180.9820  177.2200  139.3660 C   0  0  0  0  0  0  0  0  0  0  0  0
  182.1190  179.4040  139.3900 C   0  0  0  0  0  0  0  0  0  0  0  0
  182.4310  180.4170  138.8140 C   0  0  0  0  0  3  0  0  0  0  0  0
  180.7230  175.8770  139.9700 C   0  0  0  0  0  2  0  0  0  0  0  0
  179.9880  173.7460  139.0140 C   0  0  0  0  0  3  0  0  0  0  0  0
  180.7570  174.8280  138.9120 C   0  0  0  0  0  3  0  0  0  0  0  0
  180.0270  172.7070  137.9460 C   0  0  0  0  0  1  0  0  0  0  0  0
  1 12  1  6  0  0  0
  1 11  1  0  0  0  0
  1 10  1  0  0  0  0
  3 20  1  6  0  0  0
  3  5  1  0  0  0  0
  3  9  1  0  0  0  0
  4  7  1  6  0  0  0
  4  8  1  0  0  0  0
  8  6  1  0  0  0  0
  8  2  1  1  0  0  0
  9  7  1  0  0  0  0
 10  6  1  0  0  0  0
 11  5  1  1  0  0  0
 11  4  1  0  0  0  0
 13 12  2  0  0  0  0
 14 17  2  0  0  0  0
 15 13  1  0  0  0  0
 17 12  1  0  0  0  0
 17 16  1  0  0  0  0
 18 14  1  0  0  0  0
 19 15  2  0  0  0  0
 19 14  1  0  0  0  0
 21 22  2  0  0  0  0
 22 25  1  0  0  0  0
 22 20  1  0  0  0  0
 23 20  1  0  0  0  0
 24 23  3  0  0  0  0
 27 26  2  0  0  0  0
 27 25  1  0  0  0  0
 28 26  1  0  0  0  0
M  END
>  <MODEL>
8

>  <REMARK>
 VINA RESULT:      -5.0      5.574      8.935
  Name = 
  5 active torsions:
  status: ('A' for Active; 'I' for Inactive)
    1  A    between atoms: C_1  and  C_2
    2  A    between atoms: C_4  and  N_13
    3  A    between atoms: C_9  and  C_15
    4  A    between atoms: C_9  and  C_18
    5  A    between atoms: C_10  and  N_13
                            x       y       z     vdW  Elec       q    Type
                         _______ _______ _______ _____ _____    ______ ____

>  <TORSDO>
F 5

$$$$
=
 OpenBabel10272401493D

 28 30  0  0  1  0  0  0  0  0999 V2000
  184.3790  178.1210  139.1120 C   0  0  2  0  0  3  0  0  0  0  0  0
  182.1980  179.1480  142.6580 O   0  0  0  0  0  1  0  0  0  0  0  0
  187.0400  178.5710  141.9440 C   0  0  1  0  0  3  0  0  0  0  0  0
  184.0860  178.0310  141.6700 C   0  0  1  0  0  3  0  0  0  0  0  0
  186.2430  178.9460  140.6810 C   0  0  0  0  0  2  0  0  0  0  0  0
  182.3590  179.2800  140.2910 C   0  0  0  0  0  2  0  0  0  0  0  0
  184.8240  178.0410  143.0260 C   0  0  0  0  0  2  0  0  0  0  0  0
  183.1190  179.2290  141.6120 C   0  0  1  0  0  3  0  0  0  0  0  0
  186.2960  177.6360  142.9110 C   0  0  0  0  0  2  0  0  0  0  0  0
  183.4940  179.7060  138.9360 S   0  0  0  0  0  0  0  0  0  0  0  0
  185.0650  177.9890  140.4760 C   0  0  2  0  0  3  0  0  0  0  0  0
  185.3140  177.8290  137.9680 C   0  0  0  0  0  0  0  0  0  0  0  0
  186.2680  178.7850  137.5800 C   0  0  0  0  0  3  0  0  0  0  0  0
  186.1890  176.3100  136.2740 C   0  0  0  0  0  0  0  0  0  0  0  0
  187.1640  178.5120  136.5470 C   0  0  0  0  0  3  0  0  0  0  0  0
  184.2930  175.5300  137.7390 C   0  0  0  0  0  1  0  0  0  0  0  0
  185.2800  176.5770  137.3160 C   0  0  0  0  0  0  0  0  0  0  0  0
  186.1930  174.9990  135.5550 C   0  0  0  0  0  1  0  0  0  0  0  0
  187.1210  177.2790  135.8960 C   0  0  0  0  0  3  0  0  0  0  0  0
  188.3660  178.0490  141.6090 N   0  0  0  0  0  0  0  0  0  0  0  0
  190.4590  177.2130  142.2690 O   0  0  0  0  0  0  0  0  0  0  0  0
  189.4130  177.8480  142.5840 C   0  0  0  0  0  0  0  0  0  0  0  0
  188.5700  177.6460  140.2780 C   0  0  0  0  0  0  0  0  0  0  0  0
  188.7450  177.2930  139.1380 C   0  0  0  0  0  3  0  0  0  0  0  0
  189.3140  178.4110  143.9640 C   0  0  0  0  0  2  0  0  0  0  0  0
  191.0950  177.5060  145.3800 C   0  0  0  0  0  3  0  0  0  0  0  0
  189.8360  177.4270  144.9540 C   0  0  0  0  0  3  0  0  0  0  0  0
  191.6030  176.5200  146.3750 C   0  0  0  0  0  1  0  0  0  0  0  0
  1 12  1  6  0  0  0
  1 11  1  0  0  0  0
  3 20  1  6  0  0  0
  3  9  1  0  0  0  0
  4  7  1  1  0  0  0
  5  3  1  0  0  0  0
  6  8  1  0  0  0  0
  8  4  1  0  0  0  0
  8  2  1  1  0  0  0
  9  7  1  0  0  0  0
 10  1  1  0  0  0  0
 10  6  1  0  0  0  0
 11  5  1  1  0  0  0
 11  4  1  0  0  0  0
 13 12  1  0  0  0  0
 14 17  1  0  0  0  0
 15 13  2  0  0  0  0
 17 16  1  0  0  0  0
 17 12  2  0  0  0  0
 18 14  1  0  0  0  0
 19 14  2  0  0  0  0
 19 15  1  0  0  0  0
 20 22  1  0  0  0  0
 21 22  2  0  0  0  0
 22 25  1  0  0  0  0
 23 20  1  0  0  0  0
 24 23  3  0  0  0  0
 25 27  1  0  0  0  0
 26 28  1  0  0  0  0
 27 26  2  0  0  0  0
M  END
>  <MODEL>
9

>  <REMARK>
 VINA RESULT:      -4.9      3.504      6.311
  Name = 
  5 active torsions:
  status: ('A' for Active; 'I' for Inactive)
    1  A    between atoms: C_1  and  C_2
    2  A    between atoms: C_4  and  N_13
    3  A    between atoms: C_9  and  C_15
    4  A    between atoms: C_9  and  C_18
    5  A    between atoms: C_10  and  N_13
                            x       y       z     vdW  Elec       q    Type
                         _______ _______ _______ _____ _____    ______ ____

>  <TORSDO>
F 5

$$$$
