=
 OpenBabel10272415223D

 34 38  0  0  0  0  0  0  0  0999 V2000
  187.9120  177.5250  145.0660 C   0  0  0  0  0  0  0  0  0  0  0  0
  184.3260  178.7770  145.7580 C   0  0  0  0  0  3  0  0  0  0  0  0
  186.2510  178.4540  147.1480 C   0  0  0  0  0  3  0  0  0  0  0  0
  189.7140  177.3360  146.9510 C   0  0  0  0  0  2  0  0  0  0  0  0
  189.5050  177.6520  148.3260 O   0  0  0  0  0  0  0  0  0  0  0  0
  187.5660  178.0960  147.3840 C   0  0  0  0  0  0  0  0  0  0  0  0
  188.3780  177.6550  146.3790 C   0  0  0  0  0  0  0  0  0  0  0  0
  188.2030  178.1010  148.5380 C   0  0  0  0  0  3  0  0  0  0  0  0
  183.5130  178.8670  144.7140 C   0  0  0  0  0  3  0  0  0  0  0  0
  183.7770  178.6050  143.2960 C   0  0  0  0  0  0  0  0  0  0  0  0
  184.9410  178.1850  142.8060 C   0  0  0  0  0  3  0  0  0  0  0  0
  185.7380  178.3850  145.8430 C   0  0  0  0  0  0  0  0  0  0  0  0
  186.2020  177.8750  143.4870 C   0  0  0  0  0  3  0  0  0  0  0  0
  186.5760  177.9380  144.7720 C   0  0  0  0  0  0  0  0  0  0  0  0
  182.6650  178.8230  142.3480 C   0  0  0  0  0  0  0  0  0  0  0  0
  182.8490  178.6820  141.1100 O   0  0  0  0  0  0  0  0  0  0  0  0
  181.3710  179.1980  142.8160 N   0  0  0  0  0  1  0  0  0  0  0  0
  188.8150  176.9320  144.0100 C   0  0  0  0  0  2  0  0  0  0  0  0
  189.6730  177.9980  143.3240 C   0  0  0  0  0  2  0  0  0  0  0  0
  190.4200  177.4910  142.0870 C   0  0  0  0  0  2  0  0  0  0  0  0
  187.5540  178.3360  139.7800 C   0  0  0  0  0  3  0  0  0  0  0  0
  190.1510  177.2730  139.5530 C   0  0  0  0  0  0  0  0  0  0  0  0
  187.6210  177.5320  136.1730 C   0  0  0  0  0  0  0  0  0  0  0  0
  187.1790  177.9760  137.4250 C   0  0  0  0  0  3  0  0  0  0  0  0
  188.0150  177.8950  138.5400 C   0  0  0  0  0  0  0  0  0  0  0  0
  191.5530  176.7570  139.4250 C   0  0  0  0  0  1  0  0  0  0  0  0
  189.7590  176.9270  137.1560 C   0  0  0  0  0  3  0  0  0  0  0  0
  189.3210  177.3640  138.4150 C   0  0  0  0  0  0  0  0  0  0  0  0
  188.9150  177.0090  136.0450 C   0  0  0  0  0  3  0  0  0  0  0  0
  189.6450  177.6640  140.8130 C   0  0  0  0  0  0  0  0  0  0  0  0
  188.3660  178.2190  140.9080 C   0  0  0  0  0  3  0  0  0  0  0  0
  186.7300  177.6150  135.0040 C   0  0  0  0  0  0  0  0  0  0  0  0
  185.9820  176.5110  134.6150 O   0  0  0  0  0  1  0  0  0  0  0  0
  186.6390  178.6860  134.3460 O   0  0  0  0  0  0  0  0  0  0  0  0
  1  7  2  0  0  0  0
  2 12  1  0  0  0  0
  3  6  1  0  0  0  0
  4  5  1  0  0  0  0
  5  8  1  0  0  0  0
  6  8  2  0  0  0  0
  7  4  1  0  0  0  0
  7  6  1  0  0  0  0
  9  2  2  0  0  0  0
 10  9  1  0  0  0  0
 11 10  2  0  0  0  0
 11 13  1  0  0  0  0
 12  3  2  0  0  0  0
 13 14  2  0  0  0  0
 14  1  1  0  0  0  0
 14 12  1  0  0  0  0
 15 17  1  0  0  0  0
 15 10  1  0  0  0  0
 16 15  2  0  0  0  0
 18  1  1  0  0  0  0
 19 18  1  0  0  0  0
 20 19  1  0  0  0  0
 21 31  1  0  0  0  0
 22 30  1  0  0  0  0
 23 24  2  0  0  0  0
 24 25  1  0  0  0  0
 25 21  2  0  0  0  0
 26 22  1  0  0  0  0
 27 28  1  0  0  0  0
 28 25  1  0  0  0  0
 28 22  2  0  0  0  0
 29 23  1  0  0  0  0
 29 27  2  0  0  0  0
 30 31  2  0  0  0  0
 30 20  1  0  0  0  0
 32 23  1  0  0  0  0
 33 32  1  0  0  0  0
 34 32  2  0  0  0  0
M  END
>  <MODEL>
1

>  <REMARK>
 VINA RESULT:     -10.9      0.000      0.000
  Name = 
  6 active torsions:
  status: ('A' for Active; 'I' for Inactive)
    1  A    between atoms: C_1  and  C_9
    2  A    between atoms: C_3  and  C_25
    3  A    between atoms: C_7  and  C_11
    4  A    between atoms: C_8  and  C_9
    5  A    between atoms: C_8  and  C_18
    6  A    between atoms: C_18  and  C_30
                            x       y       z     vdW  Elec       q    Type
                         _______ _______ _______ _____ _____    ______ ____

>  <TORSDO>
F 6

$$$$
=
 OpenBabel10272415223D

 34 38  0  0  0  0  0  0  0  0999 V2000
  186.8090  177.6750  144.0180 C   0  0  0  0  0  0  0  0  0  0  0  0
  188.1000  178.0340  147.6390 C   0  0  0  0  0  3  0  0  0  0  0  0
  186.0000  178.5110  146.5890 C   0  0  0  0  0  3  0  0  0  0  0  0
  184.3770  178.3460  143.3300 C   0  0  0  0  0  2  0  0  0  0  0  0
  183.3930  178.8910  144.2060 O   0  0  0  0  0  0  0  0  0  0  0  0
  185.1340  178.5630  145.5100 C   0  0  0  0  0  0  0  0  0  0  0  0
  185.5160  178.1500  144.2670 C   0  0  0  0  0  0  0  0  0  0  0  0
  183.8930  179.0050  145.5020 C   0  0  0  0  0  3  0  0  0  0  0  0
  189.3390  177.6240  147.8740 C   0  0  0  0  0  3  0  0  0  0  0  0
  190.3060  176.9970  146.9680 C   0  0  0  0  0  0  0  0  0  0  0  0
  190.0870  176.7480  145.6790 C   0  0  0  0  0  3  0  0  0  0  0  0
  187.2980  178.0050  146.4100 C   0  0  0  0  0  0  0  0  0  0  0  0
  188.9110  177.0160  144.8470 C   0  0  0  0  0  3  0  0  0  0  0  0
  187.7140  177.5540  145.1170 C   0  0  0  0  0  0  0  0  0  0  0  0
  191.6180  176.6170  147.5330 C   0  0  0  0  0  0  0  0  0  0  0  0
  192.1130  177.2760  148.4860 O   0  0  0  0  0  0  0  0  0  0  0  0
  192.3430  175.5050  147.0110 N   0  0  0  0  0  1  0  0  0  0  0  0
  187.2170  177.3310  142.6050 C   0  0  0  0  0  2  0  0  0  0  0  0
  187.7440  178.5520  141.8470 C   0  0  0  0  0  2  0  0  0  0  0  0
  187.7350  178.3870  140.3240 C   0  0  0  0  0  2  0  0  0  0  0  0
  191.3220  177.2170  140.1990 C   0  0  0  0  0  3  0  0  0  0  0  0
  189.1160  177.3190  138.4540 C   0  0  0  0  0  0  0  0  0  0  0  0
  192.8900  175.9890  137.0850 C   0  0  0  0  0  0  0  0  0  0  0  0
  192.7180  176.3850  138.4180 C   0  0  0  0  0  3  0  0  0  0  0  0
  191.4710  176.8200  138.8710 C   0  0  0  0  0  0  0  0  0  0  0  0
  187.9260  177.3250  137.5410 C   0  0  0  0  0  1  0  0  0  0  0  0
  190.5460  176.4590  136.6560 C   0  0  0  0  0  3  0  0  0  0  0  0
  190.3660  176.8630  137.9880 C   0  0  0  0  0  0  0  0  0  0  0  0
  191.7970  176.0270  136.2090 C   0  0  0  0  0  3  0  0  0  0  0  0
  188.9980  177.7790  139.7850 C   0  0  0  0  0  0  0  0  0  0  0  0
  190.0920  177.6950  140.6500 C   0  0  0  0  0  3  0  0  0  0  0  0
  194.2100  175.5380  136.6150 C   0  0  0  0  0  0  0  0  0  0  0  0
  195.2080  175.2220  137.5290 O   0  0  0  0  0  1  0  0  0  0  0  0
  194.4480  175.4370  135.3820 O   0  0  0  0  0  0  0  0  0  0  0  0
  1  7  2  0  0  0  0
  1 14  1  0  0  0  0
  2  9  2  0  0  0  0
  4  5  1  0  0  0  0
  4  7  1  0  0  0  0
  5  8  1  0  0  0  0
  6  3  1  0  0  0  0
  7  6  1  0  0  0  0
  8  6  2  0  0  0  0
 10 15  1  0  0  0  0
 10  9  1  0  0  0  0
 11 10  2  0  0  0  0
 12  3  2  0  0  0  0
 12  2  1  0  0  0  0
 13 14  2  0  0  0  0
 13 11  1  0  0  0  0
 14 12  1  0  0  0  0
 15 16  2  0  0  0  0
 17 15  1  0  0  0  0
 18  1  1  0  0  0  0
 19 18  1  0  0  0  0
 20 19  1  0  0  0  0
 21 31  1  0  0  0  0
 22 30  1  0  0  0  0
 23 24  2  0  0  0  0
 24 25  1  0  0  0  0
 25 21  2  0  0  0  0
 26 22  1  0  0  0  0
 27 28  1  0  0  0  0
 28 22  2  0  0  0  0
 28 25  1  0  0  0  0
 29 27  2  0  0  0  0
 29 23  1  0  0  0  0
 30 20  1  0  0  0  0
 30 31  2  0  0  0  0
 32 23  1  0  0  0  0
 32 33  1  0  0  0  0
 34 32  2  0  0  0  0
M  END
>  <MODEL>
2

>  <REMARK>
 VINA RESULT:     -10.9      3.398      5.725
  Name = 
  6 active torsions:
  status: ('A' for Active; 'I' for Inactive)
    1  A    between atoms: C_1  and  C_9
    2  A    between atoms: C_3  and  C_25
    3  A    between atoms: C_7  and  C_11
    4  A    between atoms: C_8  and  C_9
    5  A    between atoms: C_8  and  C_18
    6  A    between atoms: C_18  and  C_30
                            x       y       z     vdW  Elec       q    Type
                         _______ _______ _______ _____ _____    ______ ____

>  <TORSDO>
F 6

$$$$
=
 OpenBabel10272415223D

 34 38  0  0  0  0  0  0  0  0999 V2000
  185.0160  178.6740  139.9160 C   0  0  0  0  0  0  0  0  0  0  0  0
  187.3530  177.0510  137.3050 C   0  0  0  0  0  3  0  0  0  0  0  0
  185.0160  177.5830  137.3140 C   0  0  0  0  0  3  0  0  0  0  0  0
  182.4690  179.0580  139.4640 C   0  0  0  0  0  2  0  0  0  0  0  0
  181.7800  178.6920  138.2710 O   0  0  0  0  0  0  0  0  0  0  0  0
  183.8600  178.0870  137.8820 C   0  0  0  0  0  0  0  0  0  0  0  0
  183.8550  178.6260  139.1370 C   0  0  0  0  0  0  0  0  0  0  0  0
  182.6530  178.1120  137.3530 C   0  0  0  0  0  3  0  0  0  0  0  0
  188.6330  176.9450  137.6350 C   0  0  0  0  0  3  0  0  0  0  0  0
  189.3310  177.3990  138.8420 C   0  0  0  0  0  0  0  0  0  0  0  0
  188.7470  178.0040  139.8740 C   0  0  0  0  0  3  0  0  0  0  0  0
  186.2220  177.6420  138.0320 C   0  0  0  0  0  0  0  0  0  0  0  0
  187.3420  178.3590  140.0950 C   0  0  0  0  0  3  0  0  0  0  0  0
  186.2420  178.2150  139.3440 C   0  0  0  0  0  0  0  0  0  0  0  0
  190.7880  177.1620  138.9130 C   0  0  0  0  0  0  0  0  0  0  0  0
  191.4270  176.8250  137.8810 O   0  0  0  0  0  0  0  0  0  0  0  0
  191.4910  177.3080  140.1450 N   0  0  0  0  0  1  0  0  0  0  0  0
  184.9390  179.1800  141.3370 C   0  0  0  0  0  2  0  0  0  0  0  0
  184.4970  178.0870  142.3130 C   0  0  0  0  0  2  0  0  0  0  0  0
  184.7140  178.4460  143.7860 C   0  0  0  0  0  2  0  0  0  0  0  0
  188.2810  177.2110  143.7520 C   0  0  0  0  0  3  0  0  0  0  0  0
  186.4780  178.2780  145.6310 C   0  0  0  0  0  0  0  0  0  0  0  0
  190.3030  176.9320  146.8330 C   0  0  0  0  0  0  0  0  0  0  0  0
  189.9140  176.8550  145.4900 C   0  0  0  0  0  3  0  0  0  0  0  0
  188.6530  177.3030  145.0920 C   0  0  0  0  0  0  0  0  0  0  0  0
  185.5350  178.8950  146.6210 C   0  0  0  0  0  1  0  0  0  0  0  0
  188.1550  177.9220  147.3860 C   0  0  0  0  0  3  0  0  0  0  0  0
  187.7550  177.8430  146.0430 C   0  0  0  0  0  0  0  0  0  0  0  0
  189.4180  177.4690  147.7770 C   0  0  0  0  0  3  0  0  0  0  0  0
  186.0930  178.1180  144.2810 C   0  0  0  0  0  0  0  0  0  0  0  0
  187.0080  177.6150  143.3520 C   0  0  0  0  0  3  0  0  0  0  0  0
  191.6320  176.4510  147.2440 C   0  0  0  0  0  0  0  0  0  0  0  0
  192.2780  175.4660  146.5070 O   0  0  0  0  0  0  0  0  0  0  0  0
  192.1950  176.9260  148.2670 O   0  0  0  0  0  1  0  0  0  0  0  0
  1 18  1  0  0  0  0
  2  9  2  0  0  0  0
  2 12  1  0  0  0  0
  3  6  1  0  0  0  0
  3 12  2  0  0  0  0
  5  4  1  0  0  0  0
  6  7  1  0  0  0  0
  7  4  1  0  0  0  0
  7  1  2  0  0  0  0
  8  6  2  0  0  0  0
  8  5  1  0  0  0  0
  9 10  1  0  0  0  0
 10 15  1  0  0  0  0
 10 11  2  0  0  0  0
 11 13  1  0  0  0  0
 12 14  1  0  0  0  0
 14  1  1  0  0  0  0
 14 13  2  0  0  0  0
 15 17  1  0  0  0  0
 16 15  2  0  0  0  0
 18 19  1  0  0  0  0
 19 20  1  0  0  0  0
 20 30  1  0  0  0  0
 21 25  1  0  0  0  0
 22 28  1  0  0  0  0
 22 26  1  0  0  0  0
 23 32  1  0  0  0  0
 23 29  1  0  0  0  0
 24 23  2  0  0  0  0
 25 24  1  0  0  0  0
 25 28  2  0  0  0  0
 27 29  2  0  0  0  0
 28 27  1  0  0  0  0
 30 22  2  0  0  0  0
 31 21  2  0  0  0  0
 31 30  1  0  0  0  0
 32 34  1  0  0  0  0
 33 32  2  0  0  0  0
M  END
>  <MODEL>
3

>  <REMARK>
 VINA RESULT:     -10.6      2.837      9.049
  Name = 
  6 active torsions:
  status: ('A' for Active; 'I' for Inactive)
    1  A    between atoms: C_1  and  C_9
    2  A    between atoms: C_3  and  C_25
    3  A    between atoms: C_7  and  C_11
    4  A    between atoms: C_8  and  C_9
    5  A    between atoms: C_8  and  C_18
    6  A    between atoms: C_18  and  C_30
                            x       y       z     vdW  Elec       q    Type
                         _______ _______ _______ _____ _____    ______ ____

>  <TORSDO>
F 6

$$$$
=
 OpenBabel10272415223D

 34 38  0  0  0  0  0  0  0  0999 V2000
  187.8970  177.4970  145.0200 C   0  0  0  0  0  0  0  0  0  0  0  0
  184.3340  178.7340  145.8460 C   0  0  0  0  0  3  0  0  0  0  0  0
  186.3090  178.4120  147.1650 C   0  0  0  0  0  3  0  0  0  0  0  0
  189.7660  177.3060  146.8390 C   0  0  0  0  0  2  0  0  0  0  0  0
  189.6050  177.6150  148.2220 O   0  0  0  0  0  0  0  0  0  0  0  0
  187.6330  178.0560  147.3520 C   0  0  0  0  0  0  0  0  0  0  0  0
  188.4100  177.6230  146.3160 C   0  0  0  0  0  0  0  0  0  0  0  0
  188.3100  178.0590  148.4820 C   0  0  0  0  0  3  0  0  0  0  0  0
  183.4850  178.8260  144.8320 C   0  0  0  0  0  3  0  0  0  0  0  0
  183.6990  178.5710  143.4040 C   0  0  0  0  0  0  0  0  0  0  0  0
  184.8460  178.1570  142.8710 C   0  0  0  0  0  3  0  0  0  0  0  0
  185.7500  178.3460  145.8780 C   0  0  0  0  0  0  0  0  0  0  0  0
  186.1310  177.8480  143.5050 C   0  0  0  0  0  3  0  0  0  0  0  0
  186.5510  177.9070  144.7760 C   0  0  0  0  0  0  0  0  0  0  0  0
  182.5530  178.7900  142.4970 C   0  0  0  0  0  0  0  0  0  0  0  0
  181.4860  179.2990  142.9330 O   0  0  0  0  0  0  0  0  0  0  0  0
  182.6340  178.4280  141.1200 N   0  0  0  0  0  1  0  0  0  0  0  0
  188.7640  176.9110  143.9300 C   0  0  0  0  0  2  0  0  0  0  0  0
  189.5760  177.9860  143.2030 C   0  0  0  0  0  2  0  0  0  0  0  0
  189.1770  178.1790  141.7380 C   0  0  0  0  0  2  0  0  0  0  0  0
  192.5550  177.2600  140.3250 C   0  0  0  0  0  3  0  0  0  0  0  0
  189.8740  177.2330  139.4650 C   0  0  0  0  0  0  0  0  0  0  0  0
  193.0010  176.1830  136.8170 C   0  0  0  0  0  0  0  0  0  0  0  0
  193.2840  176.5490  138.1390 C   0  0  0  0  0  3  0  0  0  0  0  0
  192.2520  176.8910  139.0150 C   0  0  0  0  0  0  0  0  0  0  0  0
  188.4410  177.1690  139.0260 C   0  0  0  0  0  1  0  0  0  0  0  0
  190.6310  176.4970  137.2510 C   0  0  0  0  0  3  0  0  0  0  0  0
  190.9070  176.8700  138.5750 C   0  0  0  0  0  0  0  0  0  0  0  0
  191.6700  176.1570  136.3800 C   0  0  0  0  0  3  0  0  0  0  0  0
  190.2040  177.6660  140.7700 C   0  0  0  0  0  0  0  0  0  0  0  0
  191.5350  177.6460  141.1940 C   0  0  0  0  0  3  0  0  0  0  0  0
  194.0960  175.8300  135.8990 C   0  0  0  0  0  0  0  0  0  0  0  0
  193.8160  175.2490  134.6680 O   0  0  0  0  0  0  0  0  0  0  0  0
  195.2940  176.0480  136.2210 O   0  0  0  0  0  1  0  0  0  0  0  0
  1  7  2  0  0  0  0
  2 12  1  0  0  0  0
  3  6  1  0  0  0  0
  4  5  1  0  0  0  0
  5  8  1  0  0  0  0
  6  8  2  0  0  0  0
  7  4  1  0  0  0  0
  7  6  1  0  0  0  0
  9  2  2  0  0  0  0
 10  9  1  0  0  0  0
 11 10  2  0  0  0  0
 11 13  1  0  0  0  0
 12  3  2  0  0  0  0
 13 14  2  0  0  0  0
 14  1  1  0  0  0  0
 14 12  1  0  0  0  0
 15 16  2  0  0  0  0
 15 10  1  0  0  0  0
 17 15  1  0  0  0  0
 18  1  1  0  0  0  0
 19 18  1  0  0  0  0
 20 19  1  0  0  0  0
 21 31  1  0  0  0  0
 22 30  1  0  0  0  0
 23 24  2  0  0  0  0
 24 25  1  0  0  0  0
 25 21  2  0  0  0  0
 26 22  1  0  0  0  0
 27 28  1  0  0  0  0
 28 25  1  0  0  0  0
 28 22  2  0  0  0  0
 29 23  1  0  0  0  0
 29 27  2  0  0  0  0
 30 31  2  0  0  0  0
 30 20  1  0  0  0  0
 32 34  1  0  0  0  0
 32 23  1  0  0  0  0
 33 32  2  0  0  0  0
M  END
>  <MODEL>
4

>  <REMARK>
 VINA RESULT:     -10.6      2.469      3.295
  Name = 
  6 active torsions:
  status: ('A' for Active; 'I' for Inactive)
    1  A    between atoms: C_1  and  C_9
    2  A    between atoms: C_3  and  C_25
    3  A    between atoms: C_7  and  C_11
    4  A    between atoms: C_8  and  C_9
    5  A    between atoms: C_8  and  C_18
    6  A    between atoms: C_18  and  C_30
                            x       y       z     vdW  Elec       q    Type
                         _______ _______ _______ _____ _____    ______ ____

>  <TORSDO>
F 6

$$$$
=
 OpenBabel10272415223D

 34 38  0  0  0  0  0  0  0  0999 V2000
  187.4860  177.6070  145.5050 C   0  0  0  0  0  0  0  0  0  0  0  0
  190.8040  177.6370  143.5320 C   0  0  0  0  0  3  0  0  0  0  0  0
  190.2810  177.7140  145.8690 C   0  0  0  0  0  3  0  0  0  0  0  0
  187.4120  177.7130  148.1170 C   0  0  0  0  0  2  0  0  0  0  0  0
  188.5510  177.8050  148.9700 O   0  0  0  0  0  0  0  0  0  0  0  0
  189.4150  177.7260  146.9480 C   0  0  0  0  0  0  0  0  0  0  0  0
  188.0620  177.6630  146.7790 C   0  0  0  0  0  0  0  0  0  0  0  0
  189.7280  177.8120  148.2250 C   0  0  0  0  0  3  0  0  0  0  0  0
  190.7150  177.5390  142.2130 C   0  0  0  0  0  3  0  0  0  0  0  0
  189.5310  177.3690  141.3640 C   0  0  0  0  0  0  0  0  0  0  0  0
  188.2790  177.3090  141.8110 C   0  0  0  0  0  3  0  0  0  0  0  0
  189.7640  177.6160  144.5680 C   0  0  0  0  0  0  0  0  0  0  0  0
  187.7530  177.3980  143.1760 C   0  0  0  0  0  3  0  0  0  0  0  0
  188.3480  177.5360  144.3690 C   0  0  0  0  0  0  0  0  0  0  0  0
  189.7520  177.2610  139.9070 C   0  0  0  0  0  0  0  0  0  0  0  0
  189.2960  178.1390  139.1280 O   0  0  0  0  0  0  0  0  0  0  0  0
  190.4820  176.1640  139.3600 N   0  0  0  0  0  1  0  0  0  0  0  0
  185.9820  177.6480  145.3650 C   0  0  0  0  0  2  0  0  0  0  0  0
  185.4560  179.0790  145.2350 C   0  0  0  0  0  2  0  0  0  0  0  0
  183.9760  179.1630  144.8530 C   0  0  0  0  0  2  0  0  0  0  0  0
  184.6880  178.8700  141.1570 C   0  0  0  0  0  3  0  0  0  0  0  0
  182.4330  178.8230  142.8410 C   0  0  0  0  0  0  0  0  0  0  0  0
  181.9910  178.6670  138.6380 C   0  0  0  0  0  0  0  0  0  0  0  0
  183.2650  178.7410  139.2150 C   0  0  0  0  0  3  0  0  0  0  0  0
  183.4110  178.7880  140.6020 C   0  0  0  0  0  0  0  0  0  0  0  0
  181.2360  178.7460  143.7430 C   0  0  0  0  0  1  0  0  0  0  0  0
  181.0000  178.6790  140.8560 C   0  0  0  0  0  3  0  0  0  0  0  0
  182.2720  178.7590  141.4410 C   0  0  0  0  0  0  0  0  0  0  0  0
  180.8610  178.6340  139.4660 C   0  0  0  0  0  3  0  0  0  0  0  0
  183.7290  178.9710  143.3850 C   0  0  0  0  0  0  0  0  0  0  0  0
  184.8420  178.9620  142.5400 C   0  0  0  0  0  3  0  0  0  0  0  0
  181.8460  178.6230  137.1740 C   0  0  0  0  0  0  0  0  0  0  0  0
  182.4550  177.6120  136.4400 O   0  0  0  0  0  0  0  0  0  0  0  0
  181.1730  179.5020  136.5720 O   0  0  0  0  0  1  0  0  0  0  0  0
  1  7  2  0  0  0  0
  2 12  1  0  0  0  0
  3  6  1  0  0  0  0
  4  5  1  0  0  0  0
  6  8  2  0  0  0  0
  7  6  1  0  0  0  0
  7  4  1  0  0  0  0
  8  5  1  0  0  0  0
  9  2  2  0  0  0  0
 10 11  2  0  0  0  0
 10  9  1  0  0  0  0
 11 13  1  0  0  0  0
 12  3  2  0  0  0  0
 13 14  2  0  0  0  0
 14 12  1  0  0  0  0
 14  1  1  0  0  0  0
 15 10  1  0  0  0  0
 16 15  2  0  0  0  0
 17 15  1  0  0  0  0
 18  1  1  0  0  0  0
 19 18  1  0  0  0  0
 20 19  1  0  0  0  0
 21 31  1  0  0  0  0
 22 30  1  0  0  0  0
 22 26  1  0  0  0  0
 23 24  2  0  0  0  0
 23 29  1  0  0  0  0
 24 25  1  0  0  0  0
 25 21  2  0  0  0  0
 25 28  1  0  0  0  0
 27 28  1  0  0  0  0
 28 22  2  0  0  0  0
 29 27  2  0  0  0  0
 30 20  1  0  0  0  0
 31 30  2  0  0  0  0
 32 23  1  0  0  0  0
 33 32  2  0  0  0  0
 34 32  1  0  0  0  0
M  END
>  <MODEL>
5

>  <REMARK>
 VINA RESULT:     -10.3      2.908      5.897
  Name = 
  6 active torsions:
  status: ('A' for Active; 'I' for Inactive)
    1  A    between atoms: C_1  and  C_9
    2  A    between atoms: C_3  and  C_25
    3  A    between atoms: C_7  and  C_11
    4  A    between atoms: C_8  and  C_9
    5  A    between atoms: C_8  and  C_18
    6  A    between atoms: C_18  and  C_30
                            x       y       z     vdW  Elec       q    Type
                         _______ _______ _______ _____ _____    ______ ____

>  <TORSDO>
F 6

$$$$
=
 OpenBabel10272415223D

 34 38  0  0  0  0  0  0  0  0999 V2000
  189.5530  176.7940  145.0800 C   0  0  0  0  0  0  0  0  0  0  0  0
  186.6290  178.4120  147.0150 C   0  0  0  0  0  3  0  0  0  0  0  0
  188.8660  177.8060  147.6230 C   0  0  0  0  0  3  0  0  0  0  0  0
  191.8680  176.3110  146.1960 C   0  0  0  0  0  2  0  0  0  0  0  0
  192.2010  176.5840  147.5550 O   0  0  0  0  0  0  0  0  0  0  0  0
  190.1250  177.2890  147.3700 C   0  0  0  0  0  0  0  0  0  0  0  0
  190.4670  176.8080  146.1400 C   0  0  0  0  0  0  0  0  0  0  0  0
  191.1250  177.1670  148.2200 C   0  0  0  0  0  3  0  0  0  0  0  0
  185.5160  178.6430  146.3310 C   0  0  0  0  0  3  0  0  0  0  0  0
  185.2260  178.4200  144.9110 C   0  0  0  0  0  0  0  0  0  0  0  0
  186.0790  177.8940  144.0350 C   0  0  0  0  0  3  0  0  0  0  0  0
  187.9200  177.8570  146.5870 C   0  0  0  0  0  0  0  0  0  0  0  0
  187.4510  177.4100  144.2190 C   0  0  0  0  0  3  0  0  0  0  0  0
  188.2620  177.3700  145.2850 C   0  0  0  0  0  0  0  0  0  0  0  0
  183.8860  178.8090  144.4240 C   0  0  0  0  0  0  0  0  0  0  0  0
  182.9930  179.1630  145.2390 O   0  0  0  0  0  0  0  0  0  0  0  0
  183.5820  178.7870  143.0310 N   0  0  0  0  0  1  0  0  0  0  0  0
  189.9420  176.1520  143.7690 C   0  0  0  0  0  2  0  0  0  0  0  0
  191.2720  176.6940  143.2380 C   0  0  0  0  0  2  0  0  0  0  0  0
  191.1450  178.0290  142.4980 C   0  0  0  0  0  2  0  0  0  0  0  0
  188.1130  178.1090  140.2490 C   0  0  0  0  0  3  0  0  0  0  0  0
  190.8590  177.5390  140.0030 C   0  0  0  0  0  0  0  0  0  0  0  0
  188.2420  177.0130  136.7220 C   0  0  0  0  0  0  0  0  0  0  0  0
  187.7550  177.4760  137.9510 C   0  0  0  0  0  3  0  0  0  0  0  0
  188.6190  177.6540  139.0320 C   0  0  0  0  0  0  0  0  0  0  0  0
  192.3300  177.2870  139.8600 C   0  0  0  0  0  1  0  0  0  0  0  0
  190.4800  176.9120  137.6620 C   0  0  0  0  0  3  0  0  0  0  0  0
  189.9990  177.3700  138.8980 C   0  0  0  0  0  0  0  0  0  0  0  0
  189.6090  176.7340  136.5840 C   0  0  0  0  0  3  0  0  0  0  0  0
  190.3190  177.9380  141.2470 C   0  0  0  0  0  0  0  0  0  0  0  0
  188.9600  178.2480  141.3480 C   0  0  0  0  0  3  0  0  0  0  0  0
  187.3230  176.8220  135.5880 C   0  0  0  0  0  0  0  0  0  0  0  0
  186.0940  177.4720  135.5680 O   0  0  0  0  0  1  0  0  0  0  0  0
  187.6390  176.0690  134.6300 O   0  0  0  0  0  0  0  0  0  0  0  0
  1 14  1  0  0  0  0
  1  7  2  0  0  0  0
  4  5  1  0  0  0  0
  5  8  1  0  0  0  0
  6  3  1  0  0  0  0
  6  8  2  0  0  0  0
  7  4  1  0  0  0  0
  7  6  1  0  0  0  0
  9  2  2  0  0  0  0
 10  9  1  0  0  0  0
 11 13  1  0  0  0  0
 11 10  2  0  0  0  0
 12  2  1  0  0  0  0
 12  3  2  0  0  0  0
 13 14  2  0  0  0  0
 14 12  1  0  0  0  0
 15 10  1  0  0  0  0
 15 16  2  0  0  0  0
 17 15  1  0  0  0  0
 18  1  1  0  0  0  0
 19 18  1  0  0  0  0
 20 19  1  0  0  0  0
 21 31  1  0  0  0  0
 22 30  1  0  0  0  0
 23 24  2  0  0  0  0
 24 25  1  0  0  0  0
 25 21  2  0  0  0  0
 26 22  1  0  0  0  0
 27 28  1  0  0  0  0
 28 25  1  0  0  0  0
 28 22  2  0  0  0  0
 29 23  1  0  0  0  0
 29 27  2  0  0  0  0
 30 31  2  0  0  0  0
 30 20  1  0  0  0  0
 32 23  1  0  0  0  0
 33 32  1  0  0  0  0
 34 32  2  0  0  0  0
M  END
>  <MODEL>
6

>  <REMARK>
 VINA RESULT:     -10.1      1.420      1.996
  Name = 
  6 active torsions:
  status: ('A' for Active; 'I' for Inactive)
    1  A    between atoms: C_1  and  C_9
    2  A    between atoms: C_3  and  C_25
    3  A    between atoms: C_7  and  C_11
    4  A    between atoms: C_8  and  C_9
    5  A    between atoms: C_8  and  C_18
    6  A    between atoms: C_18  and  C_30
                            x       y       z     vdW  Elec       q    Type
                         _______ _______ _______ _____ _____    ______ ____

>  <TORSDO>
F 6

$$$$
=
 OpenBabel10272415223D

 34 38  0  0  0  0  0  0  0  0999 V2000
  184.0140  178.7210  139.7710 C   0  0  0  0  0  0  0  0  0  0  0  0
  185.2980  177.2420  136.4440 C   0  0  0  0  0  3  0  0  0  0  0  0
  183.1110  177.7470  137.2820 C   0  0  0  0  0  3  0  0  0  0  0  0
  181.4690  179.0970  140.2430 C   0  0  0  0  0  2  0  0  0  0  0  0
  180.4090  178.7770  139.3460 O   0  0  0  0  0  0  0  0  0  0  0  0
  182.2240  178.2130  138.2370 C   0  0  0  0  0  0  0  0  0  0  0  0
  182.6550  178.6950  139.4390 C   0  0  0  0  0  0  0  0  0  0  0  0
  180.9090  178.2480  138.1580 C   0  0  0  0  0  3  0  0  0  0  0  0
  186.6130  177.1350  136.3060 C   0  0  0  0  0  3  0  0  0  0  0  0
  187.6860  177.5420  137.2180 C   0  0  0  0  0  0  0  0  0  0  0  0
  187.4970  178.0940  138.4140 C   0  0  0  0  0  3  0  0  0  0  0  0
  184.4900  177.7870  137.5420 C   0  0  0  0  0  0  0  0  0  0  0  0
  186.2570  178.4240  139.1230 C   0  0  0  0  0  3  0  0  0  0  0  0
  184.9640  178.3010  138.7910 C   0  0  0  0  0  0  0  0  0  0  0  0
  189.0770  177.3180  136.7710 C   0  0  0  0  0  0  0  0  0  0  0  0
  189.3460  177.2570  135.5420 O   0  0  0  0  0  0  0  0  0  0  0  0
  190.1320  177.1660  137.7180 N   0  0  0  0  0  1  0  0  0  0  0  0
  184.4340  179.1620  141.1540 C   0  0  0  0  0  2  0  0  0  0  0  0
  184.3420  178.0240  142.1720 C   0  0  0  0  0  2  0  0  0  0  0  0
  184.5150  178.4770  143.6250 C   0  0  0  0  0  2  0  0  0  0  0  0
  188.1930  177.6250  143.6870 C   0  0  0  0  0  3  0  0  0  0  0  0
  186.1610  178.1650  145.5590 C   0  0  0  0  0  0  0  0  0  0  0  0
  190.0250  177.0140  146.8380 C   0  0  0  0  0  0  0  0  0  0  0  0
  189.7360  177.1340  145.4730 C   0  0  0  0  0  3  0  0  0  0  0  0
  188.4620  177.5190  145.0500 C   0  0  0  0  0  0  0  0  0  0  0  0
  185.0910  178.5040  146.5540 C   0  0  0  0  0  1  0  0  0  0  0  0
  187.7480  177.6760  147.3640 C   0  0  0  0  0  3  0  0  0  0  0  0
  187.4490  177.7930  145.9990 C   0  0  0  0  0  0  0  0  0  0  0  0
  189.0240  177.2890  147.7800 C   0  0  0  0  0  3  0  0  0  0  0  0
  185.8870  178.2050  144.1730 C   0  0  0  0  0  0  0  0  0  0  0  0
  186.9110  177.9650  143.2540 C   0  0  0  0  0  3  0  0  0  0  0  0
  191.3690  176.6030  147.2740 C   0  0  0  0  0  0  0  0  0  0  0  0
  191.9790  175.4910  146.7050 O   0  0  0  0  0  0  0  0  0  0  0  0
  191.9770  177.2520  148.1660 O   0  0  0  0  0  1  0  0  0  0  0  0
  1 18  1  0  0  0  0
  2 12  1  0  0  0  0
  3 12  2  0  0  0  0
  3  6  1  0  0  0  0
  5  4  1  0  0  0  0
  6  7  1  0  0  0  0
  7  1  2  0  0  0  0
  7  4  1  0  0  0  0
  8  6  2  0  0  0  0
  8  5  1  0  0  0  0
  9  2  2  0  0  0  0
  9 10  1  0  0  0  0
 10 11  2  0  0  0  0
 11 13  1  0  0  0  0
 12 14  1  0  0  0  0
 14 13  2  0  0  0  0
 14  1  1  0  0  0  0
 15 10  1  0  0  0  0
 15 17  1  0  0  0  0
 16 15  2  0  0  0  0
 18 19  1  0  0  0  0
 19 20  1  0  0  0  0
 20 30  1  0  0  0  0
 21 25  1  0  0  0  0
 22 28  1  0  0  0  0
 22 26  1  0  0  0  0
 23 32  1  0  0  0  0
 23 29  1  0  0  0  0
 24 23  2  0  0  0  0
 25 24  1  0  0  0  0
 25 28  2  0  0  0  0
 27 29  2  0  0  0  0
 28 27  1  0  0  0  0
 30 22  2  0  0  0  0
 31 21  2  0  0  0  0
 31 30  1  0  0  0  0
 32 34  1  0  0  0  0
 33 32  2  0  0  0  0
M  END
>  <MODEL>
7

>  <REMARK>
 VINA RESULT:      -9.9      2.792      9.147
  Name = 
  6 active torsions:
  status: ('A' for Active; 'I' for Inactive)
    1  A    between atoms: C_1  and  C_9
    2  A    between atoms: C_3  and  C_25
    3  A    between atoms: C_7  and  C_11
    4  A    between atoms: C_8  and  C_9
    5  A    between atoms: C_8  and  C_18
    6  A    between atoms: C_18  and  C_30
                            x       y       z     vdW  Elec       q    Type
                         _______ _______ _______ _____ _____    ______ ____

>  <TORSDO>
F 6

$$$$
=
 OpenBabel10272415223D

 34 38  0  0  0  0  0  0  0  0999 V2000
  188.4620  177.2600  144.3190 C   0  0  0  0  0  0  0  0  0  0  0  0
  185.2810  178.4050  146.1840 C   0  0  0  0  0  3  0  0  0  0  0  0
  187.5280  177.9600  146.8880 C   0  0  0  0  0  3  0  0  0  0  0  0
  190.7440  176.8960  145.5420 C   0  0  0  0  0  2  0  0  0  0  0  0
  190.9670  177.0700  146.9390 O   0  0  0  0  0  0  0  0  0  0  0  0
  188.8450  177.5900  146.6770 C   0  0  0  0  0  0  0  0  0  0  0  0
  189.3060  177.2610  145.4350 C   0  0  0  0  0  0  0  0  0  0  0  0
  189.8000  177.4840  147.5790 C   0  0  0  0  0  3  0  0  0  0  0  0
  184.1940  178.5930  145.4500 C   0  0  0  0  0  3  0  0  0  0  0  0
  184.0110  178.4790  143.9990 C   0  0  0  0  0  0  0  0  0  0  0  0
  184.9630  178.1210  143.1410 C   0  0  0  0  0  3  0  0  0  0  0  0
  186.6440  178.0180  145.7980 C   0  0  0  0  0  0  0  0  0  0  0  0
  186.3630  177.7540  143.3740 C   0  0  0  0  0  3  0  0  0  0  0  0
  187.1100  177.6900  144.4850 C   0  0  0  0  0  0  0  0  0  0  0  0
  182.6700  178.7830  143.4580 C   0  0  0  0  0  0  0  0  0  0  0  0
  181.7030  178.9890  144.2380 O   0  0  0  0  0  0  0  0  0  0  0  0
  182.4490  178.8460  142.0510 N   0  0  0  0  0  1  0  0  0  0  0  0
  188.9910  176.7850  142.9850 C   0  0  0  0  0  2  0  0  0  0  0  0
  189.8760  177.8360  142.3110 C   0  0  0  0  0  2  0  0  0  0  0  0
  190.3930  177.4180  140.9320 C   0  0  0  0  0  2  0  0  0  0  0  0
  187.1200  178.1610  139.2040 C   0  0  0  0  0  3  0  0  0  0  0  0
  189.4260  176.6280  138.7000 C   0  0  0  0  0  0  0  0  0  0  0  0
  186.1200  176.4850  136.0660 C   0  0  0  0  0  0  0  0  0  0  0  0
  186.0840  177.2990  137.2050 C   0  0  0  0  0  3  0  0  0  0  0  0
  187.1780  177.3500  138.0720 C   0  0  0  0  0  0  0  0  0  0  0  0
  190.6760  175.8530  138.4060 C   0  0  0  0  0  1  0  0  0  0  0  0
  188.3640  175.7710  136.6610 C   0  0  0  0  0  3  0  0  0  0  0  0
  188.3350  176.5800  137.8070 C   0  0  0  0  0  0  0  0  0  0  0  0
  187.2660  175.7240  135.7990 C   0  0  0  0  0  3  0  0  0  0  0  0
  189.3260  177.4040  139.8760 C   0  0  0  0  0  0  0  0  0  0  0  0
  188.1880  178.1850  140.1000 C   0  0  0  0  0  3  0  0  0  0  0  0
  184.9610  176.4330  135.1600 C   0  0  0  0  0  0  0  0  0  0  0  0
  184.6500  175.2570  134.4880 O   0  0  0  0  0  0  0  0  0  0  0  0
  184.2420  177.4530  134.9850 O   0  0  0  0  0  1  0  0  0  0  0  0
  1 14  1  0  0  0  0
  1  7  2  0  0  0  0
  4  5  1  0  0  0  0
  5  8  1  0  0  0  0
  6  3  1  0  0  0  0
  6  8  2  0  0  0  0
  7  4  1  0  0  0  0
  7  6  1  0  0  0  0
  9  2  2  0  0  0  0
 10  9  1  0  0  0  0
 11 13  1  0  0  0  0
 11 10  2  0  0  0  0
 12  2  1  0  0  0  0
 12  3  2  0  0  0  0
 13 14  2  0  0  0  0
 14 12  1  0  0  0  0
 15 10  1  0  0  0  0
 15 16  2  0  0  0  0
 17 15  1  0  0  0  0
 18  1  1  0  0  0  0
 19 18  1  0  0  0  0
 20 19  1  0  0  0  0
 21 31  1  0  0  0  0
 22 30  1  0  0  0  0
 23 24  2  0  0  0  0
 24 25  1  0  0  0  0
 25 21  2  0  0  0  0
 26 22  1  0  0  0  0
 27 28  1  0  0  0  0
 28 25  1  0  0  0  0
 28 22  2  0  0  0  0
 29 23  1  0  0  0  0
 29 27  2  0  0  0  0
 30 31  2  0  0  0  0
 30 20  1  0  0  0  0
 32 23  1  0  0  0  0
 33 32  2  0  0  0  0
 34 32  1  0  0  0  0
M  END
>  <MODEL>
8

>  <REMARK>
 VINA RESULT:      -9.9      1.329      1.527
  Name = 
  6 active torsions:
  status: ('A' for Active; 'I' for Inactive)
    1  A    between atoms: C_1  and  C_9
    2  A    between atoms: C_3  and  C_25
    3  A    between atoms: C_7  and  C_11
    4  A    between atoms: C_8  and  C_9
    5  A    between atoms: C_8  and  C_18
    6  A    between atoms: C_18  and  C_30
                            x       y       z     vdW  Elec       q    Type
                         _______ _______ _______ _____ _____    ______ ____

>  <TORSDO>
F 6

$$$$
=
 OpenBabel10272415223D

 34 38  0  0  0  0  0  0  0  0999 V2000
  183.8990  178.2230  142.1970 C   0  0  0  0  0  0  0  0  0  0  0  0
  185.0570  178.8500  145.8270 C   0  0  0  0  0  3  0  0  0  0  0  0
  182.9650  179.1440  144.6950 C   0  0  0  0  0  3  0  0  0  0  0  0
  181.4530  178.7080  141.4080 C   0  0  0  0  0  2  0  0  0  0  0  0
  180.4130  179.2380  142.2260 O   0  0  0  0  0  0  0  0  0  0  0  0
  182.1310  179.0850  143.5930 C   0  0  0  0  0  0  0  0  0  0  0  0
  182.5730  178.6310  142.3840 C   0  0  0  0  0  0  0  0  0  0  0  0
  180.8660  179.4510  143.5260 C   0  0  0  0  0  3  0  0  0  0  0  0
  186.3100  178.5290  146.1170 C   0  0  0  0  0  3  0  0  0  0  0  0
  187.3390  177.9140  145.2730 C   0  0  0  0  0  0  0  0  0  0  0  0
  187.1750  177.5840  143.9940 C   0  0  0  0  0  3  0  0  0  0  0  0
  184.2950  178.7080  144.5800 C   0  0  0  0  0  0  0  0  0  0  0  0
  186.0100  177.7360  143.1170 C   0  0  0  0  0  3  0  0  0  0  0  0
  184.7760  178.2150  143.3250 C   0  0  0  0  0  0  0  0  0  0  0  0
  188.6530  177.6450  145.8940 C   0  0  0  0  0  0  0  0  0  0  0  0
  189.7150  177.9580  145.2930 O   0  0  0  0  0  0  0  0  0  0  0  0
  188.7410  177.0280  147.1770 N   0  0  0  0  0  1  0  0  0  0  0  0
  184.3690  177.8300  140.8170 C   0  0  0  0  0  2  0  0  0  0  0  0
  184.8920  179.0310  140.0250 C   0  0  0  0  0  2  0  0  0  0  0  0
  185.4860  178.6630  138.6620 C   0  0  0  0  0  2  0  0  0  0  0  0
  188.9090  177.9550  140.0890 C   0  0  0  0  0  3  0  0  0  0  0  0
  187.5550  177.5430  137.6570 C   0  0  0  0  0  0  0  0  0  0  0  0
  191.6440  176.5370  138.0480 C   0  0  0  0  0  0  0  0  0  0  0  0
  190.9410  177.0800  139.1300 C   0  0  0  0  0  3  0  0  0  0  0  0
  189.5890  177.4080  139.0030 C   0  0  0  0  0  0  0  0  0  0  0  0
  186.8160  177.2760  136.3780 C   0  0  0  0  0  1  0  0  0  0  0  0
  189.6260  176.6420  136.7000 C   0  0  0  0  0  3  0  0  0  0  0  0
  188.9160  177.1920  137.7770 C   0  0  0  0  0  0  0  0  0  0  0  0
  190.9780  176.3180  136.8340 C   0  0  0  0  0  3  0  0  0  0  0  0
  186.8970  178.1560  138.7470 C   0  0  0  0  0  0  0  0  0  0  0  0
  187.5710  178.3270  139.9590 C   0  0  0  0  0  3  0  0  0  0  0  0
  193.0700  176.2000  138.1900 C   0  0  0  0  0  0  0  0  0  0  0  0
  193.6140  175.1450  137.4660 O   0  0  0  0  0  0  0  0  0  0  0  0
  193.8080  176.8600  138.9680 O   0  0  0  0  0  1  0  0  0  0  0  0
  1  7  2  0  0  0  0
  1 14  1  0  0  0  0
  2  9  2  0  0  0  0
  4  5  1  0  0  0  0
  4  7  1  0  0  0  0
  5  8  1  0  0  0  0
  6  3  1  0  0  0  0
  7  6  1  0  0  0  0
  8  6  2  0  0  0  0
 10 15  1  0  0  0  0
 10  9  1  0  0  0  0
 11 10  2  0  0  0  0
 12  3  2  0  0  0  0
 12  2  1  0  0  0  0
 13 14  2  0  0  0  0
 13 11  1  0  0  0  0
 14 12  1  0  0  0  0
 15 17  1  0  0  0  0
 16 15  2  0  0  0  0
 18  1  1  0  0  0  0
 19 18  1  0  0  0  0
 20 30  1  0  0  0  0
 20 19  1  0  0  0  0
 22 28  2  0  0  0  0
 22 30  1  0  0  0  0
 23 32  1  0  0  0  0
 23 24  2  0  0  0  0
 25 24  1  0  0  0  0
 25 21  2  0  0  0  0
 26 22  1  0  0  0  0
 27 29  2  0  0  0  0
 27 28  1  0  0  0  0
 28 25  1  0  0  0  0
 29 23  1  0  0  0  0
 30 31  2  0  0  0  0
 31 21  1  0  0  0  0
 32 34  1  0  0  0  0
 33 32  2  0  0  0  0
M  END
>  <MODEL>
9

>  <REMARK>
 VINA RESULT:      -9.8      2.894      5.646
  Name = 
  6 active torsions:
  status: ('A' for Active; 'I' for Inactive)
    1  A    between atoms: C_1  and  C_9
    2  A    between atoms: C_3  and  C_25
    3  A    between atoms: C_7  and  C_11
    4  A    between atoms: C_8  and  C_9
    5  A    between atoms: C_8  and  C_18
    6  A    between atoms: C_18  and  C_30
                            x       y       z     vdW  Elec       q    Type
                         _______ _______ _______ _____ _____    ______ ____

>  <TORSDO>
F 6

$$$$
