=
 OpenBabel10272401363D

 55 60  0  0  1  0  0  0  0  0999 V2000
  185.8290  177.0650  138.2400 O   0  0  0  0  0  0  0  0  0  0  0  0
  188.4920  178.6520  139.4230 C   0  0  0  0  0  2  0  0  0  0  0  0
  191.5410  176.4840  138.7010 C   0  0  0  0  0  1  0  0  0  0  0  0
  190.8690  174.8080  136.1660 C   0  0  0  0  0  2  0  0  0  0  0  0
  190.7210  172.9770  134.3470 C   0  0  0  0  0  2  0  0  0  0  0  0
  188.6920  173.7720  135.5460 C   0  0  0  0  0  0  0  0  0  0  0  0
  189.4920  172.5620  135.1650 C   0  0  0  0  0  2  0  0  0  0  0  0
  189.1680  175.8580  138.2710 C   0  0  0  0  0  2  0  0  0  0  0  0
  191.5760  174.0770  135.0140 C   0  0  0  0  0  2  0  0  0  0  0  0
  184.0480  178.6810  138.3970 C   0  0  0  0  0  2  0  0  0  0  0  0
  189.3990  175.0760  135.8320 C   0  0  1  0  0  3  0  0  0  0  0  0
  185.0160  178.4190  141.0540 C   0  0  2  0  0  3  0  0  0  0  0  0
  186.5680  177.1560  137.0630 C   0  0  0  0  0  2  0  0  0  0  0  0
  186.0450  178.7730  139.9700 C   0  0  1  0  0  3  0  0  0  0  0  0
  186.6120  174.7760  136.2230 C   0  0  0  0  0  0  0  0  0  0  0  0
  187.3800  178.0950  140.2940 C   0  0  0  0  0  2  0  0  0  0  0  0
  187.4180  173.6700  135.7640 N   0  0  0  0  0  0  0  0  0  0  0  0
  189.7660  177.8730  139.6770 C   0  0  0  0  0  2  0  0  0  0  0  0
  190.1450  177.0220  138.4780 C   0  0  1  0  0  3  0  0  0  0  0  0
  183.3240  178.0520  139.4200 O   0  0  0  0  0  0  0  0  0  0  0  0
  185.5480  178.3990  138.5550 C   0  0  1  0  0  3  0  0  0  0  0  0
  188.6750  175.8050  136.8870 N   0  0  0  0  0  0  0  0  0  0  0  0
  187.2490  175.8680  136.7320 C   0  0  0  0  0  0  0  0  0  0  0  0
  183.6070  178.7770  140.5810 C   0  0  0  0  0  2  0  0  0  0  0  0
  184.4330  174.4820  135.0790 C   0  0  0  0  0  3  0  0  0  0  0  0
  182.3090  173.9200  136.3250 C   0  0  1  0  0  3  0  0  0  0  0  0
  184.4460  174.3940  137.5520 C   0  0  0  0  0  2  0  0  0  0  0  0
  182.9390  174.6500  137.5070 C   0  0  0  0  0  2  0  0  0  0  0  0
  182.9330  174.4230  135.0250 C   0  0  0  0  0  2  0  0  0  0  0  0
  185.1320  174.5800  136.2170 C   0  0  0  0  0  0  0  0  0  0  0  0
  182.4860  172.5370  136.4420 O   0  0  0  0  0  0  0  0  0  0  0  0
  181.2460  171.9860  136.1130 C   0  0  0  0  0  2  0  0  0  0  0  0
  180.4660  171.7130  137.3820 C   0  0  0  0  0  1  0  0  0  0  0  0
  185.3330  179.1710  142.3370 C   0  0  0  0  0  2  0  0  0  0  0  0
  188.1760  175.7990  143.3670 O   0  0  0  0  0  0  0  0  0  0  0  0
  187.3020  176.6350  143.6210 C   0  0  0  0  0  0  0  0  0  0  0  0
  185.8570  178.7340  144.6520 C   0  0  1  0  0  3  0  0  0  0  0  0
  186.3870  177.5300  143.8720 C   0  0  0  0  0  0  0  0  0  0  0  0
  185.0900  178.2740  143.5360 C   0  0  2  0  0  3  0  0  0  0  0  0
  185.2660  178.3330  146.0140 C   0  0  2  0  0  3  0  0  0  0  0  0
  184.0320  178.9470  146.2730 O   0  0  0  0  0  1  0  0  0  0  0  0
  186.2440  178.6180  147.1560 C   0  0  2  0  0  3  0  0  0  0  0  0
  185.9990  179.8720  147.7290 O   0  0  0  0  0  1  0  0  0  0  0  0
  187.6970  178.4520  146.6780 C   0  0  0  0  0  2  0  0  0  0  0  0
  187.8960  176.4690  148.0660 C   0  0  0  0  0  1  0  0  0  0  0  0
  189.1730  178.4480  148.7220 C   0  0  0  0  0  1  0  0  0  0  0  0
  188.7020  177.6310  147.5200 C   0  0  0  0  0  0  0  0  0  0  0  0
  189.8870  177.0480  146.6890 C   0  0  2  0  0  3  0  0  0  0  0  0
  191.2200  177.0030  147.4680 C   0  0  0  0  0  2  0  0  0  0  0  0
  191.6820  175.5740  147.7310 C   0  0  0  0  0  2  0  0  0  0  0  0
  193.0630  175.4640  147.5340 O   0  0  0  0  0  1  0  0  0  0  0  0
  190.0490  177.7110  145.4580 O   0  0  0  0  0  0  0  0  0  0  0  0
  191.3660  177.4740  145.0230 C   0  0  0  0  0  2  0  0  0  0  0  0
  190.3660  178.6880  143.0700 C   0  0  0  0  0  1  0  0  0  0  0  0
  191.6270  178.0820  143.6500 C   0  0  0  0  0  2  0  0  0  0  0  0
  1 21  1  0  0  0  0
  2 18  1  0  0  0  0
  2 16  1  0  0  0  0
  5  9  1  0  0  0  0
  5  7  1  0  0  0  0
  6 17  2  0  0  0  0
  6 11  1  0  0  0  0
  7  6  1  0  0  0  0
  8 19  1  0  0  0  0
  9  4  1  0  0  0  0
 10 20  1  0  0  0  0
 11  4  1  1  0  0  0
 11 22  1  0  0  0  0
 12 34  1  1  0  0  0
 13  1  1  0  0  0  0
 14 16  1  1  0  0  0
 14 12  1  0  0  0  0
 15 23  2  0  0  0  0
 17 15  1  0  0  0  0
 19  3  1  1  0  0  0
 19 18  1  0  0  0  0
 20 24  1  0  0  0  0
 21 10  1  1  0  0  0
 21 14  1  0  0  0  0
 22  8  1  0  0  0  0
 23 22  1  0  0  0  0
 23 13  1  0  0  0  0
 24 12  1  0  0  0  0
 25 30  2  0  0  0  0
 26 31  1  1  0  0  0
 26 28  1  0  0  0  0
 28 27  1  0  0  0  0
 29 25  1  0  0  0  0
 29 26  1  0  0  0  0
 30 15  1  0  0  0  0
 30 27  1  0  0  0  0
 32 31  1  0  0  0  0
 32 33  1  0  0  0  0
 35 36  2  0  0  0  0
 36 38  2  0  0  0  0
 37 40  1  1  0  0  0
 38 37  1  0  0  0  0
 39 34  1  6  0  0  0
 39 38  1  0  0  0  0
 39 37  1  0  0  0  0
 40 41  1  1  0  0  0
 40 42  1  0  0  0  0
 42 43  1  6  0  0  0
 44 42  1  0  0  0  0
 44 47  1  0  0  0  0
 47 45  1  0  0  0  0
 47 46  1  0  0  0  0
 48 49  1  1  0  0  0
 48 47  1  0  0  0  0
 49 50  1  0  0  0  0
 51 50  1  0  0  0  0
 52 48  1  0  0  0  0
 53 52  1  0  0  0  0
 54 55  1  0  0  0  0
 55 53  1  0  0  0  0
M  END
>  <MODEL>
1

>  <REMARK>
 VINA RESULT:      -8.1      0.000      0.000
  Name = 
  15 active torsions:
  status: ('A' for Active; 'I' for Inactive)
    1  A    between atoms: C_3  and  C_14
    2  A    between atoms: C_3  and  O_38
    3  A    between atoms: C_6  and  C_20
    4  A    between atoms: C_6  and  C_53
    5  A    between atoms: O_10  and  C_18
    6  A    between atoms: O_10  and  C_32
    7  A    between atoms: C_11  and  C_29
    8  A    between atoms: C_20  and  C_22
    9  A    between atoms: C_27  and  C_54
   10  A    between atoms: C_29  and  C_50
   11  A    between atoms: C_30  and  C_50
   12  A    between atoms: C_30  and  C_53
   13  A    between atoms: C_33  and  C_52
   14  A    between atoms: O_38  and  C_50
   15  A    between atoms: C_51  and  C_54
                            x       y       z     vdW  Elec       q    Type
                         _______ _______ _______ _____ _____    ______ ____

>  <TORSDO>
F 15

$$$$
=
 OpenBabel10272401363D

 55 60  0  0  1  0  0  0  0  0999 V2000
  185.1330  175.4830  136.2580 O   0  0  0  0  0  0  0  0  0  0  0  0
  187.1900  173.3130  134.8180 C   0  0  0  0  0  2  0  0  0  0  0  0
  185.5980  169.8620  135.0890 C   0  0  0  0  0  1  0  0  0  0  0  0
  182.5190  170.3000  135.2030 C   0  0  0  0  0  2  0  0  0  0  0  0
  179.9820  170.1060  135.6580 C   0  0  0  0  0  2  0  0  0  0  0  0
  181.2710  172.1100  136.3710 C   0  0  0  0  0  0  0  0  0  0  0  0
  180.3370  171.0310  136.8290 C   0  0  0  0  0  2  0  0  0  0  0  0
  184.7230  171.9590  136.1100 C   0  0  0  0  0  2  0  0  0  0  0  0
  181.2110  169.5560  134.9000 C   0  0  0  0  0  2  0  0  0  0  0  0
  186.0400  177.6410  135.6840 C   0  0  0  0  0  2  0  0  0  0  0  0
  182.2880  171.8120  135.2950 C   0  0  1  0  0  3  0  0  0  0  0  0
  188.1560  176.3080  137.0300 C   0  0  2  0  0  3  0  0  0  0  0  0
  184.2660  174.9650  135.2990 C   0  0  0  0  0  2  0  0  0  0  0  0
  187.5330  175.5860  135.8260 C   0  0  1  0  0  3  0  0  0  0  0  0
  182.2430  174.2950  136.6520 C   0  0  0  0  0  0  0  0  0  0  0  0
  187.5170  174.0770  136.0880 C   0  0  0  0  0  2  0  0  0  0  0  0
  181.3030  173.2520  136.9850 N   0  0  0  0  0  0  0  0  0  0  0  0
  187.0550  171.8390  135.1400 C   0  0  0  0  0  2  0  0  0  0  0  0
  185.6150  171.3720  135.0100 C   0  0  1  0  0  3  0  0  0  0  0  0
  186.4800  177.9970  136.9680 O   0  0  0  0  0  0  0  0  0  0  0  0
  186.1200  176.1200  135.4980 C   0  0  1  0  0  3  0  0  0  0  0  0
  183.5150  172.5840  135.5510 N   0  0  0  0  0  0  0  0  0  0  0  0
  183.3210  173.9680  135.8840 C   0  0  0  0  0  0  0  0  0  0  0  0
  187.8650  177.8060  136.9560 C   0  0  0  0  0  2  0  0  0  0  0  0
  182.1730  175.8270  138.5990 C   0  0  0  0  0  3  0  0  0  0  0  0
  181.8430  178.3200  138.3550 C   0  0  1  0  0  3  0  0  0  0  0  0
  181.7160  176.7930  136.3670 C   0  0  0  0  0  2  0  0  0  0  0  0
  181.0730  177.9820  137.0820 C   0  0  0  0  0  2  0  0  0  0  0  0
  181.8290  177.1140  139.2930 C   0  0  0  0  0  2  0  0  0  0  0  0
  182.0220  175.6290  137.2830 C   0  0  0  0  0  0  0  0  0  0  0  0
  183.1600  178.6840  138.0580 O   0  0  0  0  0  0  0  0  0  0  0  0
  183.4870  179.6590  139.0020 C   0  0  0  0  0  2  0  0  0  0  0  0
  184.5810  179.1340  139.9070 C   0  0  0  0  0  1  0  0  0  0  0  0
  189.6590  176.0770  137.0550 C   0  0  0  0  0  2  0  0  0  0  0  0
  194.0610  176.3580  138.0800 O   0  0  0  0  0  0  0  0  0  0  0  0
  192.8540  176.4270  138.3310 C   0  0  0  0  0  0  0  0  0  0  0  0
  190.3350  177.2680  139.0410 C   0  0  1  0  0  3  0  0  0  0  0  0
  191.5750  176.5050  138.5740 C   0  0  0  0  0  0  0  0  0  0  0  0
  190.1430  175.9650  138.4880 C   0  0  2  0  0  3  0  0  0  0  0  0
  190.2190  177.3110  140.5740 C   0  0  2  0  0  3  0  0  0  0  0  0
  190.6720  176.1340  141.1870 O   0  0  0  0  0  1  0  0  0  0  0  0
  188.7890  177.6180  141.0210 C   0  0  2  0  0  3  0  0  0  0  0  0
  188.1010  178.3490  140.0460 O   0  0  0  0  0  1  0  0  0  0  0  0
  188.7870  178.3060  142.3980 C   0  0  0  0  0  2  0  0  0  0  0  0
  188.1130  176.1700  143.3350 C   0  0  0  0  0  1  0  0  0  0  0  0
  186.5570  178.0440  143.5450 C   0  0  0  0  0  1  0  0  0  0  0  0
  188.0360  177.6630  143.5860 C   0  0  0  0  0  0  0  0  0  0  0  0
  188.6920  177.9530  144.9730 C   0  0  2  0  0  3  0  0  0  0  0  0
  190.2290  178.0980  144.9070 C   0  0  0  0  0  2  0  0  0  0  0  0
  190.9440  176.8210  145.3370 C   0  0  0  0  0  2  0  0  0  0  0  0
  191.9030  177.1050  146.3150 O   0  0  0  0  0  1  0  0  0  0  0  0
  188.3200  177.0050  145.9440 O   0  0  0  0  0  0  0  0  0  0  0  0
  187.3580  177.6100  146.7740 C   0  0  0  0  0  2  0  0  0  0  0  0
  189.1820  178.2120  148.3870 C   0  0  0  0  0  1  0  0  0  0  0  0
  187.7960  177.6200  148.2340 C   0  0  0  0  0  2  0  0  0  0  0  0
  2 18  1  0  0  0  0
  2 16  1  0  0  0  0
  5  7  1  0  0  0  0
  6  7  1  0  0  0  0
  6 17  2  0  0  0  0
  9  4  1  0  0  0  0
  9  5  1  0  0  0  0
 10 20  1  0  0  0  0
 11  4  1  1  0  0  0
 11 22  1  0  0  0  0
 11  6  1  0  0  0  0
 12 34  1  6  0  0  0
 13 23  1  0  0  0  0
 13  1  1  0  0  0  0
 14 16  1  1  0  0  0
 14 12  1  0  0  0  0
 15 17  1  0  0  0  0
 15 30  1  0  0  0  0
 19  3  1  1  0  0  0
 19 18  1  0  0  0  0
 19  8  1  0  0  0  0
 21 10  1  1  0  0  0
 21 14  1  0  0  0  0
 21  1  1  0  0  0  0
 22 23  1  0  0  0  0
 22  8  1  0  0  0  0
 23 15  2  0  0  0  0
 24 20  1  0  0  0  0
 24 12  1  0  0  0  0
 25 29  1  0  0  0  0
 26 31  1  6  0  0  0
 26 29  1  0  0  0  0
 27 28  1  0  0  0  0
 27 30  1  0  0  0  0
 28 26  1  0  0  0  0
 30 25  2  0  0  0  0
 31 32  1  0  0  0  0
 32 33  1  0  0  0  0
 35 36  2  0  0  0  0
 36 38  2  0  0  0  0
 37 40  1  1  0  0  0
 38 37  1  0  0  0  0
 39 34  1  6  0  0  0
 39 38  1  0  0  0  0
 39 37  1  0  0  0  0
 40 42  1  0  0  0  0
 40 41  1  1  0  0  0
 42 43  1  6  0  0  0
 42 44  1  0  0  0  0
 44 47  1  0  0  0  0
 45 47  1  0  0  0  0
 46 47  1  0  0  0  0
 47 48  1  0  0  0  0
 48 49  1  6  0  0  0
 48 52  1  0  0  0  0
 49 50  1  0  0  0  0
 50 51  1  0  0  0  0
 52 53  1  0  0  0  0
 53 55  1  0  0  0  0
 55 54  1  0  0  0  0
M  END
>  <MODEL>
2

>  <REMARK>
 VINA RESULT:      -7.8      2.359      6.424
  Name = 
  15 active torsions:
  status: ('A' for Active; 'I' for Inactive)
    1  A    between atoms: C_3  and  C_14
    2  A    between atoms: C_3  and  O_38
    3  A    between atoms: C_6  and  C_20
    4  A    between atoms: C_6  and  C_53
    5  A    between atoms: O_10  and  C_18
    6  A    between atoms: O_10  and  C_32
    7  A    between atoms: C_11  and  C_29
    8  A    between atoms: C_20  and  C_22
    9  A    between atoms: C_27  and  C_54
   10  A    between atoms: C_29  and  C_50
   11  A    between atoms: C_30  and  C_50
   12  A    between atoms: C_30  and  C_53
   13  A    between atoms: C_33  and  C_52
   14  A    between atoms: O_38  and  C_50
   15  A    between atoms: C_51  and  C_54
                            x       y       z     vdW  Elec       q    Type
                         _______ _______ _______ _____ _____    ______ ____

>  <TORSDO>
F 15

$$$$
=
 OpenBabel10272401363D

 55 60  0  0  1  0  0  0  0  0999 V2000
  185.3030  176.0980  136.3490 O   0  0  0  0  0  0  0  0  0  0  0  0
  187.3220  173.8200  135.0270 C   0  0  0  0  0  2  0  0  0  0  0  0
  185.6610  170.4180  135.4590 C   0  0  0  0  0  1  0  0  0  0  0  0
  182.5910  170.9230  135.5360 C   0  0  0  0  0  2  0  0  0  0  0  0
  180.0480  170.8020  135.9880 C   0  0  0  0  0  2  0  0  0  0  0  0
  181.3750  172.8120  136.6080 C   0  0  0  0  0  0  0  0  0  0  0  0
  180.4170  171.7750  137.1140 C   0  0  0  0  0  2  0  0  0  0  0  0
  184.8240  172.5800  136.3720 C   0  0  0  0  0  2  0  0  0  0  0  0
  181.2690  170.1910  135.2640 C   0  0  0  0  0  2  0  0  0  0  0  0
  186.2550  178.2080  135.6750 C   0  0  0  0  0  2  0  0  0  0  0  0
  182.3900  172.4410  135.5530 C   0  0  1  0  0  3  0  0  0  0  0  0
  188.3390  176.9000  137.0950 C   0  0  2  0  0  3  0  0  0  0  0  0
  184.4300  175.5520  135.4120 C   0  0  0  0  0  2  0  0  0  0  0  0
  187.7070  176.1330  135.9250 C   0  0  1  0  0  3  0  0  0  0  0  0
  182.3890  174.9880  136.7870 C   0  0  0  0  0  0  0  0  0  0  0  0
  187.6590  174.6390  136.2600 C   0  0  0  0  0  2  0  0  0  0  0  0
  181.4260  173.9820  137.1660 N   0  0  0  0  0  0  0  0  0  0  0  0
  187.1560  172.3670  135.4200 C   0  0  0  0  0  2  0  0  0  0  0  0
  185.7080  171.9230  135.3060 C   0  0  1  0  0  3  0  0  0  0  0  0
  186.6980  178.6180  136.9420 O   0  0  0  0  0  0  0  0  0  0  0  0
  186.3060  176.6780  135.5640 C   0  0  1  0  0  3  0  0  0  0  0  0
  183.6310  173.2010  135.7770 N   0  0  0  0  0  0  0  0  0  0  0  0
  183.4630  174.6030  136.0410 C   0  0  0  0  0  0  0  0  0  0  0  0
  188.0790  178.3990  136.9460 C   0  0  0  0  0  2  0  0  0  0  0  0
  181.4790  177.2930  136.7110 C   0  0  0  0  0  3  0  0  0  0  0  0
  181.6400  178.8820  138.6680 C   0  0  1  0  0  3  0  0  0  0  0  0
  182.7450  176.6300  138.7310 C   0  0  0  0  0  2  0  0  0  0  0  0
  182.9070  178.1180  139.0430 C   0  0  0  0  0  2  0  0  0  0  0  0
  181.3710  178.7180  137.1740 C   0  0  0  0  0  2  0  0  0  0  0  0
  182.1920  176.3560  137.3500 C   0  0  0  0  0  0  0  0  0  0  0  0
  180.5460  178.4240  139.4100 O   0  0  0  0  0  0  0  0  0  0  0  0
  180.3710  179.3740  140.4180 C   0  0  0  0  0  2  0  0  0  0  0  0
  180.2280  180.7460  139.7950 C   0  0  0  0  0  1  0  0  0  0  0  0
  189.8370  176.6420  137.1380 C   0  0  0  0  0  2  0  0  0  0  0  0
  194.2040  176.1810  138.2450 O   0  0  0  0  0  0  0  0  0  0  0  0
  193.0090  176.3750  138.4890 C   0  0  0  0  0  0  0  0  0  0  0  0
  190.6010  177.4370  139.2840 C   0  0  1  0  0  3  0  0  0  0  0  0
  191.7440  176.5880  138.7260 C   0  0  0  0  0  0  0  0  0  0  0  0
  190.2570  176.2630  138.5450 C   0  0  2  0  0  3  0  0  0  0  0  0
  190.4450  177.2770  140.8060 C   0  0  2  0  0  3  0  0  0  0  0  0
  190.7740  175.9890  141.2540 O   0  0  0  0  0  1  0  0  0  0  0  0
  189.0340  177.6480  141.2670 C   0  0  2  0  0  3  0  0  0  0  0  0
  188.4290  178.5380  140.3730 O   0  0  0  0  0  1  0  0  0  0  0  0
  189.0590  178.1750  142.7130 C   0  0  0  0  0  2  0  0  0  0  0  0
  190.1090  176.9070  144.4990 C   0  0  0  0  0  1  0  0  0  0  0  0
  188.1860  175.9040  143.3720 C   0  0  0  0  0  1  0  0  0  0  0  0
  188.7560  177.2220  143.8920 C   0  0  0  0  0  0  0  0  0  0  0  0
  187.8660  177.8630  145.0030 C   0  0  2  0  0  3  0  0  0  0  0  0
  188.4560  177.7150  146.4230 C   0  0  0  0  0  2  0  0  0  0  0  0
  187.4070  177.9460  147.5060 C   0  0  0  0  0  2  0  0  0  0  0  0
  187.9230  177.6160  148.7630 O   0  0  0  0  0  1  0  0  0  0  0  0
  186.5410  177.3920  144.9600 O   0  0  0  0  0  0  0  0  0  0  0  0
  185.7390  178.4380  144.4680 C   0  0  0  0  0  2  0  0  0  0  0  0
  183.3300  179.1210  144.6040 C   0  0  0  0  0  1  0  0  0  0  0  0
  184.5630  178.7320  145.3920 C   0  0  0  0  0  2  0  0  0  0  0  0
  2 18  1  0  0  0  0
  2 16  1  0  0  0  0
  5  7  1  0  0  0  0
  6  7  1  0  0  0  0
  6 17  2  0  0  0  0
  9  4  1  0  0  0  0
  9  5  1  0  0  0  0
 10 20  1  0  0  0  0
 11  4  1  1  0  0  0
 11 22  1  0  0  0  0
 11  6  1  0  0  0  0
 12 34  1  6  0  0  0
 13 23  1  0  0  0  0
 13  1  1  0  0  0  0
 14 16  1  1  0  0  0
 14 12  1  0  0  0  0
 15 17  1  0  0  0  0
 15 30  1  0  0  0  0
 19 18  1  0  0  0  0
 19  3  1  1  0  0  0
 19  8  1  0  0  0  0
 20 24  1  0  0  0  0
 21 10  1  1  0  0  0
 21 14  1  0  0  0  0
 21  1  1  0  0  0  0
 22 23  1  0  0  0  0
 22  8  1  0  0  0  0
 23 15  2  0  0  0  0
 24 12  1  0  0  0  0
 25 29  1  0  0  0  0
 25 30  2  0  0  0  0
 26 28  1  0  0  0  0
 26 31  1  1  0  0  0
 27 28  1  0  0  0  0
 29 26  1  0  0  0  0
 30 27  1  0  0  0  0
 31 32  1  0  0  0  0
 33 32  1  0  0  0  0
 35 36  2  0  0  0  0
 36 38  2  0  0  0  0
 37 40  1  1  0  0  0
 38 37  1  0  0  0  0
 39 34  1  6  0  0  0
 39 38  1  0  0  0  0
 39 37  1  0  0  0  0
 40 41  1  6  0  0  0
 40 42  1  0  0  0  0
 42 43  1  6  0  0  0
 42 44  1  0  0  0  0
 44 47  1  0  0  0  0
 46 47  1  0  0  0  0
 47 45  1  0  0  0  0
 47 48  1  0  0  0  0
 48 49  1  1  0  0  0
 49 50  1  0  0  0  0
 50 51  1  0  0  0  0
 52 48  1  0  0  0  0
 53 52  1  0  0  0  0
 53 55  1  0  0  0  0
 54 55  1  0  0  0  0
M  END
>  <MODEL>
3

>  <REMARK>
 VINA RESULT:      -7.6      2.469      6.446
  Name = 
  15 active torsions:
  status: ('A' for Active; 'I' for Inactive)
    1  A    between atoms: C_3  and  C_14
    2  A    between atoms: C_3  and  O_38
    3  A    between atoms: C_6  and  C_20
    4  A    between atoms: C_6  and  C_53
    5  A    between atoms: O_10  and  C_18
    6  A    between atoms: O_10  and  C_32
    7  A    between atoms: C_11  and  C_29
    8  A    between atoms: C_20  and  C_22
    9  A    between atoms: C_27  and  C_54
   10  A    between atoms: C_29  and  C_50
   11  A    between atoms: C_30  and  C_50
   12  A    between atoms: C_30  and  C_53
   13  A    between atoms: C_33  and  C_52
   14  A    between atoms: O_38  and  C_50
   15  A    between atoms: C_51  and  C_54
                            x       y       z     vdW  Elec       q    Type
                         _______ _______ _______ _____ _____    ______ ____

>  <TORSDO>
F 15

$$$$
=
 OpenBabel10272401363D

 55 60  0  0  1  0  0  0  0  0999 V2000
  185.1330  175.5240  136.4650 O   0  0  0  0  0  0  0  0  0  0  0  0
  187.2030  173.3780  135.0070 C   0  0  0  0  0  2  0  0  0  0  0  0
  185.6040  169.9240  135.1960 C   0  0  0  0  0  1  0  0  0  0  0  0
  182.5240  170.3660  135.2840 C   0  0  0  0  0  2  0  0  0  0  0  0
  179.9820  170.1670  135.7080 C   0  0  0  0  0  2  0  0  0  0  0  0
  181.2660  172.1550  136.4720 C   0  0  0  0  0  0  0  0  0  0  0  0
  180.3260  171.0690  136.9000 C   0  0  0  0  0  2  0  0  0  0  0  0
  184.7200  172.0040  136.2470 C   0  0  0  0  0  2  0  0  0  0  0  0
  181.2180  169.6290  134.9530 C   0  0  0  0  0  2  0  0  0  0  0  0
  186.0490  177.6910  135.9420 C   0  0  0  0  0  2  0  0  0  0  0  0
  182.2950  171.8760  135.4020 C   0  0  1  0  0  3  0  0  0  0  0  0
  188.1480  176.3290  137.2860 C   0  0  2  0  0  3  0  0  0  0  0  0
  184.2760  175.0260  135.4870 C   0  0  0  0  0  2  0  0  0  0  0  0
  187.5380  175.6320  136.0620 C   0  0  1  0  0  3  0  0  0  0  0  0
  182.2380  174.3330  136.8050 C   0  0  0  0  0  0  0  0  0  0  0  0
  187.5170  174.1180  136.2950 C   0  0  0  0  0  2  0  0  0  0  0  0
  181.2920  173.2850  137.1080 N   0  0  0  0  0  0  0  0  0  0  0  0
  187.0620  171.8990  135.3000 C   0  0  0  0  0  2  0  0  0  0  0  0
  185.6240  171.4370  135.1450 C   0  0  1  0  0  3  0  0  0  0  0  0
  186.4760  178.0220  137.2370 O   0  0  0  0  0  0  0  0  0  0  0  0
  186.1290  176.1740  135.7280 C   0  0  1  0  0  3  0  0  0  0  0  0
  183.5200  172.6410  135.6860 N   0  0  0  0  0  0  0  0  0  0  0  0
  183.3230  174.0180  136.0430 C   0  0  0  0  0  0  0  0  0  0  0  0
  187.8610  177.8290  137.2370 C   0  0  0  0  0  2  0  0  0  0  0  0
  182.1270  175.8230  138.7820 C   0  0  0  0  0  3  0  0  0  0  0  0
  181.8270  178.3240  138.5840 C   0  0  1  0  0  3  0  0  0  0  0  0
  181.7420  176.8420  136.5600 C   0  0  0  0  0  2  0  0  0  0  0  0
  181.0900  178.0220  137.2820 C   0  0  0  0  0  2  0  0  0  0  0  0
  181.7760  177.0990  139.4940 C   0  0  0  0  0  2  0  0  0  0  0  0
  182.0120  175.6550  137.4580 C   0  0  0  0  0  0  0  0  0  0  0  0
  183.1560  178.6820  138.3310 O   0  0  0  0  0  0  0  0  0  0  0  0
  183.4730  179.6150  139.3200 C   0  0  0  0  0  2  0  0  0  0  0  0
  184.7010  179.1490  140.0740 C   0  0  0  0  0  1  0  0  0  0  0  0
  189.6510  176.0960  137.3220 C   0  0  0  0  0  2  0  0  0  0  0  0
  194.0780  176.0250  138.2750 O   0  0  0  0  0  0  0  0  0  0  0  0
  192.8920  176.2720  138.5150 C   0  0  0  0  0  0  0  0  0  0  0  0
  190.5010  177.5000  139.0910 C   0  0  1  0  0  3  0  0  0  0  0  0
  191.6360  176.5340  138.7470 C   0  0  0  0  0  0  0  0  0  0  0  0
  190.1500  176.1560  138.7530 C   0  0  2  0  0  3  0  0  0  0  0  0
  190.4250  177.7990  140.5980 C   0  0  2  0  0  3  0  0  0  0  0  0
  191.1750  176.8990  141.3690 O   0  0  0  0  0  1  0  0  0  0  0  0
  188.9770  177.8310  141.0910 C   0  0  2  0  0  3  0  0  0  0  0  0
  188.2020  178.7100  140.3250 O   0  0  0  0  0  1  0  0  0  0  0  0
  188.9250  178.1430  142.5970 C   0  0  0  0  0  2  0  0  0  0  0  0
  188.1260  175.9460  143.2540 C   0  0  0  0  0  1  0  0  0  0  0  0
  186.4770  177.7380  143.0460 C   0  0  0  0  0  1  0  0  0  0  0  0
  187.9000  177.4240  143.5040 C   0  0  0  0  0  0  0  0  0  0  0  0
  188.1140  177.6930  145.0270 C   0  0  2  0  0  3  0  0  0  0  0  0
  187.0070  178.5670  145.6570 C   0  0  0  0  0  2  0  0  0  0  0  0
  186.4150  177.9280  146.9090 C   0  0  0  0  0  2  0  0  0  0  0  0
  185.1220  178.4110  147.1380 O   0  0  0  0  0  1  0  0  0  0  0  0
  189.3870  178.2260  145.2980 O   0  0  0  0  0  0  0  0  0  0  0  0
  189.9620  177.4440  146.3170 C   0  0  0  0  0  2  0  0  0  0  0  0
  191.8820  175.9480  146.9190 C   0  0  0  0  0  1  0  0  0  0  0  0
  191.3830  177.0190  145.9710 C   0  0  0  0  0  2  0  0  0  0  0  0
  2 18  1  0  0  0  0
  2 16  1  0  0  0  0
  5  7  1  0  0  0  0
  6  7  1  0  0  0  0
  6 17  2  0  0  0  0
  9  4  1  0  0  0  0
  9  5  1  0  0  0  0
 10 20  1  0  0  0  0
 11  4  1  1  0  0  0
 11 22  1  0  0  0  0
 11  6  1  0  0  0  0
 12 34  1  6  0  0  0
 13 23  1  0  0  0  0
 13  1  1  0  0  0  0
 14 16  1  1  0  0  0
 14 12  1  0  0  0  0
 15 17  1  0  0  0  0
 15 30  1  0  0  0  0
 19  3  1  1  0  0  0
 19 18  1  0  0  0  0
 19  8  1  0  0  0  0
 20 24  1  0  0  0  0
 21 10  1  1  0  0  0
 21 14  1  0  0  0  0
 21  1  1  0  0  0  0
 22 23  1  0  0  0  0
 22  8  1  0  0  0  0
 23 15  2  0  0  0  0
 24 12  1  0  0  0  0
 25 29  1  0  0  0  0
 26 31  1  6  0  0  0
 26 29  1  0  0  0  0
 27 28  1  0  0  0  0
 27 30  1  0  0  0  0
 28 26  1  0  0  0  0
 30 25  2  0  0  0  0
 31 32  1  0  0  0  0
 32 33  1  0  0  0  0
 35 36  2  0  0  0  0
 36 38  2  0  0  0  0
 37 40  1  1  0  0  0
 38 39  1  0  0  0  0
 38 37  1  0  0  0  0
 39 34  1  6  0  0  0
 39 37  1  0  0  0  0
 40 42  1  0  0  0  0
 40 41  1  1  0  0  0
 42 43  1  6  0  0  0
 42 44  1  0  0  0  0
 44 47  1  0  0  0  0
 45 47  1  0  0  0  0
 46 47  1  0  0  0  0
 47 48  1  0  0  0  0
 48 52  1  0  0  0  0
 48 49  1  6  0  0  0
 49 50  1  0  0  0  0
 50 51  1  0  0  0  0
 52 53  1  0  0  0  0
 55 53  1  0  0  0  0
 55 54  1  0  0  0  0
M  END
>  <MODEL>
4

>  <REMARK>
 VINA RESULT:      -7.5      2.323      6.469
  Name = 
  15 active torsions:
  status: ('A' for Active; 'I' for Inactive)
    1  A    between atoms: C_3  and  C_14
    2  A    between atoms: C_3  and  O_38
    3  A    between atoms: C_6  and  C_20
    4  A    between atoms: C_6  and  C_53
    5  A    between atoms: O_10  and  C_18
    6  A    between atoms: O_10  and  C_32
    7  A    between atoms: C_11  and  C_29
    8  A    between atoms: C_20  and  C_22
    9  A    between atoms: C_27  and  C_54
   10  A    between atoms: C_29  and  C_50
   11  A    between atoms: C_30  and  C_50
   12  A    between atoms: C_30  and  C_53
   13  A    between atoms: C_33  and  C_52
   14  A    between atoms: O_38  and  C_50
   15  A    between atoms: C_51  and  C_54
                            x       y       z     vdW  Elec       q    Type
                         _______ _______ _______ _____ _____    ______ ____

>  <TORSDO>
F 15

$$$$
=
 OpenBabel10272401363D

 55 60  0  0  1  0  0  0  0  0999 V2000
  187.9710  177.8010  139.9360 O   0  0  0  0  0  0  0  0  0  0  0  0
  185.2320  178.4580  138.1810 C   0  0  0  0  0  2  0  0  0  0  0  0
  182.2590  178.2230  140.5540 C   0  0  0  0  0  1  0  0  0  0  0  0
  183.3240  178.9120  143.3960 C   0  0  0  0  0  2  0  0  0  0  0  0
  183.7200  179.0730  145.9450 C   0  0  0  0  0  2  0  0  0  0  0  0
  185.5080  178.2820  144.4080 C   0  0  0  0  0  0  0  0  0  0  0  0
  184.7260  177.9550  145.6450 C   0  0  0  0  0  2  0  0  0  0  0  0
  184.6240  177.6730  141.1140 C   0  0  0  0  0  2  0  0  0  0  0  0
  182.8210  179.4460  144.7450 C   0  0  0  0  0  2  0  0  0  0  0  0
  189.7850  178.3590  138.4490 C   0  0  0  0  0  2  0  0  0  0  0  0
  184.8460  179.0390  143.2820 C   0  0  1  0  0  3  0  0  0  0  0  0
  188.2790  176.4040  137.0430 C   0  0  2  0  0  3  0  0  0  0  0  0
  187.4960  178.8830  140.6720 C   0  0  0  0  0  2  0  0  0  0  0  0
  187.5190  177.6410  137.5430 C   0  0  1  0  0  3  0  0  0  0  0  0
  187.4680  178.0030  143.0380 C   0  0  2  0  0  3  0  0  0  0  0  0
  186.1040  177.2340  137.9660 C   0  0  0  0  0  2  0  0  0  0  0  0
  186.7020  177.8020  144.2450 N   0  0  0  0  0  0  0  0  0  0  0  0
  183.8850  178.0260  138.7220 C   0  0  0  0  0  2  0  0  0  0  0  0
  183.7040  178.4540  140.1680 C   0  0  1  0  0  3  0  0  0  0  0  0
  190.2410  177.0520  138.2250 O   0  0  0  0  0  0  0  0  0  0  0  0
  188.2690  178.3600  138.6880 C   0  0  1  0  0  3  0  0  0  0  0  0
  185.3850  178.5730  141.9940 N   0  0  1  0  0  0  0  0  0  0  0  0
  186.8140  178.4450  141.9270 C   0  0  1  0  0  3  0  0  0  0  0  0
  189.7750  176.7040  136.9530 C   0  0  0  0  0  2  0  0  0  0  0  0
  189.8680  178.4090  143.5060 C   0  0  0  0  0  3  0  0  0  0  0  0
  191.6090  176.5840  143.3600 C   0  0  1  0  0  3  0  0  0  0  0  0
  189.2270  176.1620  142.6910 C   0  0  0  0  0  2  0  0  0  0  0  0
  190.6940  175.9470  142.3180 C   0  0  0  0  0  2  0  0  0  0  0  0
  191.3330  178.0840  143.4300 C   0  0  0  0  0  2  0  0  0  0  0  0
  188.9020  177.5890  143.0720 C   0  0  0  0  0  0  0  0  0  0  0  0
  191.4150  175.9980  144.6160 O   0  0  0  0  0  0  0  0  0  0  0  0
  191.6590  177.0220  145.5330 C   0  0  0  0  0  2  0  0  0  0  0  0
  191.4410  176.5000  146.9370 C   0  0  0  0  0  1  0  0  0  0  0  0
  187.7560  175.9890  135.6770 C   0  0  0  0  0  2  0  0  0  0  0  0
  190.9890  172.8460  136.1030 O   0  0  0  0  0  0  0  0  0  0  0  0
  189.8290  173.2660  136.1710 C   0  0  0  0  0  0  0  0  0  0  0  0
  187.3300  174.0310  137.0210 C   0  0  1  0  0  3  0  0  0  0  0  0
  188.6120  173.7300  136.2460 C   0  0  0  0  0  0  0  0  0  0  0  0
  187.4210  174.5100  135.6770 C   0  0  2  0  0  3  0  0  0  0  0  0
  186.4350  172.7900  137.1740 C   0  0  2  0  0  3  0  0  0  0  0  0
  186.3100  172.0590  135.9840 O   0  0  0  0  0  1  0  0  0  0  0  0
  185.0500  173.1580  137.7110 C   0  0  2  0  0  3  0  0  0  0  0  0
  184.1010  172.1900  137.3650 O   0  0  0  0  0  1  0  0  0  0  0  0
  184.6530  174.5740  137.2560 C   0  0  0  0  0  2  0  0  0  0  0  0
  183.6500  173.5140  135.3150 C   0  0  0  0  0  1  0  0  0  0  0  0
  183.9390  175.9410  135.2620 C   0  0  0  0  0  1  0  0  0  0  0  0
  183.5730  174.7660  136.1670 C   0  0  0  0  0  0  0  0  0  0  0  0
  182.1230  174.8740  136.7340 C   0  0  2  0  0  3  0  0  0  0  0  0
  181.2470  173.6410  136.4190 C   0  0  0  0  0  2  0  0  0  0  0  0
  180.6230  173.0450  137.6760 C   0  0  0  0  0  2  0  0  0  0  0  0
  180.8240  171.6610  137.7120 O   0  0  0  0  0  1  0  0  0  0  0  0
  181.4820  176.0600  136.3300 O   0  0  0  0  0  0  0  0  0  0  0  0
  180.8870  176.6260  137.4730 C   0  0  0  0  0  2  0  0  0  0  0  0
  181.3060  178.7060  136.1370 C   0  0  0  0  0  1  0  0  0  0  0  0
  180.4810  178.0760  137.2400 C   0  0  0  0  0  2  0  0  0  0  0  0
  1 13  1  0  0  0  0
  2 18  1  0  0  0  0
  4  9  1  0  0  0  0
  6  7  1  0  0  0  0
  7  5  1  0  0  0  0
  9  5  1  0  0  0  0
 11  4  1  6  0  0  0
 11  6  1  0  0  0  0
 12 34  1  6  0  0  0
 12 14  1  0  0  0  0
 14 16  1  1  0  0  0
 14 21  1  0  0  0  0
 15 30  1  6  0  0  0
 15 17  1  0  0  0  0
 16  2  1  0  0  0  0
 17  6  2  0  0  0  0
 18 19  1  0  0  0  0
 19  3  1  1  0  0  0
 19  8  1  0  0  0  0
 20 10  1  0  0  0  0
 21 10  1  6  0  0  0
 21  1  1  0  0  0  0
 22  8  1  1  0  0  0
 22 11  1  0  0  0  0
 23 13  1  1  0  0  0
 23 22  1  0  0  0  0
 23 15  1  0  0  0  0
 24 12  1  0  0  0  0
 24 20  1  0  0  0  0
 26 29  1  0  0  0  0
 26 31  1  1  0  0  0
 27 30  1  0  0  0  0
 28 27  1  0  0  0  0
 28 26  1  0  0  0  0
 29 25  1  0  0  0  0
 30 25  2  0  0  0  0
 31 32  1  0  0  0  0
 32 33  1  0  0  0  0
 35 36  2  0  0  0  0
 36 38  2  0  0  0  0
 37 40  1  6  0  0  0
 38 37  1  0  0  0  0
 39 34  1  1  0  0  0
 39 38  1  0  0  0  0
 39 37  1  0  0  0  0
 40 41  1  6  0  0  0
 40 42  1  0  0  0  0
 42 43  1  6  0  0  0
 44 42  1  0  0  0  0
 45 47  1  0  0  0  0
 46 47  1  0  0  0  0
 47 48  1  0  0  0  0
 47 44  1  0  0  0  0
 48 49  1  6  0  0  0
 49 50  1  0  0  0  0
 50 51  1  0  0  0  0
 52 48  1  0  0  0  0
 52 53  1  0  0  0  0
 54 55  1  0  0  0  0
 55 53  1  0  0  0  0
M  END
>  <MODEL>
5

>  <REMARK>
 VINA RESULT:      -6.2      2.676     10.448
  Name = 
  15 active torsions:
  status: ('A' for Active; 'I' for Inactive)
    1  A    between atoms: C_3  and  C_14
    2  A    between atoms: C_3  and  O_38
    3  A    between atoms: C_6  and  C_20
    4  A    between atoms: C_6  and  C_53
    5  A    between atoms: O_10  and  C_18
    6  A    between atoms: O_10  and  C_32
    7  A    between atoms: C_11  and  C_29
    8  A    between atoms: C_20  and  C_22
    9  A    between atoms: C_27  and  C_54
   10  A    between atoms: C_29  and  C_50
   11  A    between atoms: C_30  and  C_50
   12  A    between atoms: C_30  and  C_53
   13  A    between atoms: C_33  and  C_52
   14  A    between atoms: O_38  and  C_50
   15  A    between atoms: C_51  and  C_54
                            x       y       z     vdW  Elec       q    Type
                         _______ _______ _______ _____ _____    ______ ____

>  <TORSDO>
F 15

$$$$
=
 OpenBabel10272401363D

 55 60  0  0  1  0  0  0  0  0999 V2000
  188.7190  177.5400  140.0390 O   0  0  0  0  0  0  0  0  0  0  0  0
  186.5130  178.1650  137.6400 C   0  0  0  0  0  2  0  0  0  0  0  0
  183.0570  178.2330  139.2420 C   0  0  0  0  0  1  0  0  0  0  0  0
  183.4580  179.1010  142.2040 C   0  0  0  0  0  2  0  0  0  0  0  0
  183.2510  179.4460  144.7570 C   0  0  0  0  0  2  0  0  0  0  0  0
  185.3030  178.4670  143.7500 C   0  0  0  0  0  0  0  0  0  0  0  0
  184.2340  178.2690  144.7820 C   0  0  0  0  0  2  0  0  0  0  0  0
  185.1870  177.6360  140.3880 C   0  0  0  0  0  2  0  0  0  0  0  0
  182.6820  179.7580  143.3550 C   0  0  0  0  0  2  0  0  0  0  0  0
  190.8610  177.9080  138.9960 C   0  0  0  0  0  2  0  0  0  0  0  0
  184.9690  179.1590  142.4490 C   0  0  1  0  0  3  0  0  0  0  0  0
  189.6210  175.9100  137.4040 C   0  0  2  0  0  3  0  0  0  0  0  0
  188.1460  178.6950  140.5660 C   0  0  0  0  0  2  0  0  0  0  0  0
  188.8360  177.2110  137.6230 C   0  0  1  0  0  3  0  0  0  0  0  0
  187.5120  178.0040  142.9100 C   0  0  0  0  0  0  0  0  0  0  0  0
  187.3410  176.8940  137.7220 C   0  0  0  0  0  2  0  0  0  0  0  0
  186.4720  177.9290  143.9090 N   0  0  0  0  0  0  0  0  0  0  0  0
  185.0550  177.8290  137.8700 C   0  0  0  0  0  2  0  0  0  0  0  0
  184.5620  178.3760  139.1990 C   0  0  1  0  0  3  0  0  0  0  0  0
  191.2830  176.5710  138.9750 O   0  0  0  0  0  0  0  0  0  0  0  0
  189.3340  177.9870  138.8640 C   0  0  1  0  0  3  0  0  0  0  0  0
  185.7690  178.5720  141.3620 N   0  0  0  0  0  0  0  0  0  0  0  0
  187.1640  178.3830  141.6480 C   0  0  0  0  0  0  0  0  0  0  0  0
  191.1100  176.1430  137.6550 C   0  0  0  0  0  2  0  0  0  0  0  0
  189.7700  178.3640  143.8660 C   0  0  0  0  0  3  0  0  0  0  0  0
  191.3730  176.4640  144.3170 C   0  0  1  0  0  3  0  0  0  0  0  0
  189.1750  176.0640  143.1730 C   0  0  0  0  0  2  0  0  0  0  0  0
  190.6710  175.7450  143.1690 C   0  0  0  0  0  2  0  0  0  0  0  0
  191.1900  177.9730  144.1600 C   0  0  0  0  0  2  0  0  0  0  0  0
  188.8710  177.5390  143.3140 C   0  0  0  0  0  0  0  0  0  0  0  0
  190.8670  176.0430  145.5510 O   0  0  0  0  0  0  0  0  0  0  0  0
  191.6760  176.6660  146.5040 C   0  0  0  0  0  2  0  0  0  0  0  0
  192.4290  175.6110  147.2880 C   0  0  0  0  0  1  0  0  0  0  0  0
  189.4130  175.4090  135.9830 C   0  0  0  0  0  2  0  0  0  0  0  0
  185.4490  173.3880  135.1410 O   0  0  0  0  0  0  0  0  0  0  0  0
  186.6810  173.4370  135.2060 C   0  0  0  0  0  0  0  0  0  0  0  0
  189.3710  173.4050  134.6410 C   0  0  1  0  0  3  0  0  0  0  0  0
  187.9810  173.5110  135.2700 C   0  0  0  0  0  0  0  0  0  0  0  0
  189.2840  173.8980  135.9800 C   0  0  2  0  0  3  0  0  0  0  0  0
  189.8610  171.9500  134.5500 C   0  0  2  0  0  3  0  0  0  0  0  0
  189.4890  171.1800  135.6610 O   0  0  0  0  0  1  0  0  0  0  0  0
  191.3760  171.8790  134.3470 C   0  0  2  0  0  3  0  0  0  0  0  0
  191.8240  170.5530  134.3460 O   0  0  0  0  0  1  0  0  0  0  0  0
  192.1020  172.7560  135.3830 C   0  0  0  0  0  2  0  0  0  0  0  0
  194.2070  172.1270  134.3470 C   0  0  0  0  0  1  0  0  0  0  0  0
  193.7780  171.3360  136.6200 C   0  0  0  0  0  1  0  0  0  0  0  0
  193.6020  172.5260  135.6790 C   0  0  0  0  0  0  0  0  0  0  0  0
  194.3440  173.8040  136.1820 C   0  0  2  0  0  3  0  0  0  0  0  0
  193.4410  175.0550  136.2420 C   0  0  0  0  0  2  0  0  0  0  0  0
  193.4660  175.8440  134.9370 C   0  0  0  0  0  2  0  0  0  0  0  0
  192.1800  176.2840  134.6070 O   0  0  0  0  0  1  0  0  0  0  0  0
  195.5120  174.0650  135.4410 O   0  0  0  0  0  0  0  0  0  0  0  0
  196.5320  174.3730  136.3610 C   0  0  0  0  0  2  0  0  0  0  0  0
  197.4110  175.6150  134.3680 C   0  0  0  0  0  1  0  0  0  0  0  0
  197.3970  175.5320  135.8800 C   0  0  0  0  0  2  0  0  0  0  0  0
  1 13  1  0  0  0  0
  2 16  1  0  0  0  0
  2 18  1  0  0  0  0
  4  9  1  0  0  0  0
  5  7  1  0  0  0  0
  6 17  2  0  0  0  0
  6  7  1  0  0  0  0
  8 22  1  0  0  0  0
  9  5  1  0  0  0  0
 11  4  1  6  0  0  0
 11  6  1  0  0  0  0
 12 34  1  6  0  0  0
 12 14  1  0  0  0  0
 12 24  1  0  0  0  0
 13 23  1  0  0  0  0
 14 16  1  1  0  0  0
 14 21  1  0  0  0  0
 15 30  1  0  0  0  0
 15 17  1  0  0  0  0
 18 19  1  0  0  0  0
 19  3  1  6  0  0  0
 19  8  1  0  0  0  0
 20 10  1  0  0  0  0
 21 10  1  1  0  0  0
 21  1  1  0  0  0  0
 22 23  1  0  0  0  0
 22 11  1  0  0  0  0
 23 15  2  0  0  0  0
 24 20  1  0  0  0  0
 25 29  1  0  0  0  0
 26 31  1  1  0  0  0
 27 30  1  0  0  0  0
 28 27  1  0  0  0  0
 28 26  1  0  0  0  0
 29 26  1  0  0  0  0
 30 25  2  0  0  0  0
 31 32  1  0  0  0  0
 32 33  1  0  0  0  0
 35 36  2  0  0  0  0
 36 38  2  0  0  0  0
 37 40  1  1  0  0  0
 37 38  1  0  0  0  0
 37 39  1  0  0  0  0
 38 39  1  0  0  0  0
 39 34  1  6  0  0  0
 40 41  1  1  0  0  0
 42 43  1  1  0  0  0
 42 40  1  0  0  0  0
 42 44  1  0  0  0  0
 44 47  1  0  0  0  0
 45 47  1  0  0  0  0
 47 48  1  0  0  0  0
 47 46  1  0  0  0  0
 48 49  1  6  0  0  0
 50 49  1  0  0  0  0
 51 50  1  0  0  0  0
 52 48  1  0  0  0  0
 52 53  1  0  0  0  0
 54 55  1  0  0  0  0
 55 53  1  0  0  0  0
M  END
>  <MODEL>
6

>  <REMARK>
 VINA RESULT:      -5.3      3.526     10.657
  Name = 
  15 active torsions:
  status: ('A' for Active; 'I' for Inactive)
    1  A    between atoms: C_3  and  C_14
    2  A    between atoms: C_3  and  O_38
    3  A    between atoms: C_6  and  C_20
    4  A    between atoms: C_6  and  C_53
    5  A    between atoms: O_10  and  C_18
    6  A    between atoms: O_10  and  C_32
    7  A    between atoms: C_11  and  C_29
    8  A    between atoms: C_20  and  C_22
    9  A    between atoms: C_27  and  C_54
   10  A    between atoms: C_29  and  C_50
   11  A    between atoms: C_30  and  C_50
   12  A    between atoms: C_30  and  C_53
   13  A    between atoms: C_33  and  C_52
   14  A    between atoms: O_38  and  C_50
   15  A    between atoms: C_51  and  C_54
                            x       y       z     vdW  Elec       q    Type
                         _______ _______ _______ _____ _____    ______ ____

>  <TORSDO>
F 15

$$$$
=
 OpenBabel10272401363D

 55 60  0  0  1  0  0  0  0  0999 V2000
  188.9690  174.6930  135.4820 O   0  0  0  0  0  0  0  0  0  0  0  0
  192.1090  175.7540  135.6440 C   0  0  0  0  0  2  0  0  0  0  0  0
  194.3270  172.7070  136.2040 C   0  0  0  0  0  1  0  0  0  0  0  0
  192.8410  170.2740  134.9560 C   0  0  0  0  0  2  0  0  0  0  0  0
  191.9280  167.9210  134.3970 C   0  0  0  0  0  2  0  0  0  0  0  0
  190.3990  169.7940  134.9780 C   0  0  0  0  0  0  0  0  0  0  0  0
  190.7820  168.3820  135.3060 C   0  0  0  0  0  2  0  0  0  0  0  0
  191.8360  172.7140  136.1670 C   0  0  0  0  0  2  0  0  0  0  0  0
  193.1370  168.8830  134.3760 C   0  0  0  0  0  2  0  0  0  0  0  0
  187.7220  176.6190  134.7430 C   0  0  0  0  0  2  0  0  0  0  0  0
  191.4580  170.7710  134.5250 C   0  0  1  0  0  3  0  0  0  0  0  0
  189.0020  177.4660  137.1320 C   0  0  2  0  0  3  0  0  0  0  0  0
  189.5060  173.9400  134.4410 C   0  0  0  0  0  2  0  0  0  0  0  0
  189.8990  176.8810  136.0320 C   0  0  1  0  0  3  0  0  0  0  0  0
  188.7900  171.5850  135.0050 C   0  0  0  0  0  0  0  0  0  0  0  0
  191.0450  176.0920  136.6730 C   0  0  0  0  0  2  0  0  0  0  0  0
  189.1940  170.2150  135.2100 N   0  0  0  0  0  0  0  0  0  0  0  0
  193.1580  174.8660  136.2800 C   0  0  0  0  0  2  0  0  0  0  0  0
  193.1030  173.4540  135.7230 C   0  0  1  0  0  3  0  0  0  0  0  0
  187.0330  176.8580  135.9420 O   0  0  0  0  0  0  0  0  0  0  0  0
  189.1000  176.0120  135.0330 C   0  0  1  0  0  3  0  0  0  0  0  0
  191.1300  172.1170  135.0230 N   0  0  0  0  0  0  0  0  0  0  0  0
  189.7640  172.5270  134.8530 C   0  0  0  0  0  0  0  0  0  0  0  0
  187.6800  177.9450  136.5360 C   0  0  0  0  0  2  0  0  0  0  0  0
  186.4210  171.1970  134.3900 C   0  0  0  0  0  3  0  0  0  0  0  0
  184.5050  172.3450  135.5700 C   0  0  1  0  0  3  0  0  0  0  0  0
  186.8890  172.9190  136.1050 C   0  0  0  0  0  2  0  0  0  0  0  0
  185.4920  173.4790  135.8350 C   0  0  0  0  0  2  0  0  0  0  0  0
  184.9610  171.5480  134.3500 C   0  0  0  0  0  2  0  0  0  0  0  0
  187.3300  171.8790  135.0980 C   0  0  0  0  0  0  0  0  0  0  0  0
  184.4020  171.5060  136.6840 O   0  0  0  0  0  0  0  0  0  0  0  0
  183.0440  171.5000  137.0070 C   0  0  0  0  0  2  0  0  0  0  0  0
  182.2860  170.6940  135.9720 C   0  0  0  0  0  1  0  0  0  0  0  0
  189.7080  178.6270  137.8160 C   0  0  0  0  0  2  0  0  0  0  0  0
  186.3260  178.8070  140.8230 O   0  0  0  0  0  0  0  0  0  0  0  0
  187.4270  178.4330  140.4090 C   0  0  0  0  0  0  0  0  0  0  0  0
  189.5720  176.9470  139.5430 C   0  0  1  0  0  3  0  0  0  0  0  0
  188.5830  178.0410  139.9500 C   0  0  0  0  0  0  0  0  0  0  0  0
  189.9370  178.3040  139.2810 C   0  0  2  0  0  3  0  0  0  0  0  0
  190.2980  176.3360  140.7540 C   0  0  2  0  0  3  0  0  0  0  0  0
  189.4150  175.8260  141.7170 O   0  0  0  0  0  1  0  0  0  0  0  0
  191.2540  177.3400  141.4000 C   0  0  2  0  0  3  0  0  0  0  0  0
  192.4740  177.3890  140.7140 O   0  0  0  0  0  1  0  0  0  0  0  0
  191.4230  177.0390  142.9000 C   0  0  0  0  0  2  0  0  0  0  0  0
  189.5110  178.4690  143.3470 C   0  0  0  0  0  1  0  0  0  0  0  0
  191.7010  179.2230  144.1280 C   0  0  0  0  0  1  0  0  0  0  0  0
  190.8150  177.9910  143.9560 C   0  0  0  0  0  0  0  0  0  0  0  0
  190.4850  177.2930  145.3130 C   0  0  2  0  0  3  0  0  0  0  0  0
  191.4210  176.1080  145.6370 C   0  0  0  0  0  2  0  0  0  0  0  0
  191.9380  176.1600  147.0710 C   0  0  0  0  0  2  0  0  0  0  0  0
  191.5420  177.3510  147.6880 O   0  0  0  0  0  1  0  0  0  0  0  0
  189.1360  176.9030  145.3950 O   0  0  0  0  0  0  0  0  0  0  0  0
  188.4440  177.9230  146.0740 C   0  0  0  0  0  2  0  0  0  0  0  0
  188.1420  178.0260  148.5610 C   0  0  0  0  0  1  0  0  0  0  0  0
  187.6730  177.3830  147.2730 C   0  0  0  0  0  2  0  0  0  0  0  0
  2 18  1  0  0  0  0
  2 16  1  0  0  0  0
  5  7  1  0  0  0  0
  6 17  2  0  0  0  0
  6  7  1  0  0  0  0
  9  5  1  0  0  0  0
  9  4  1  0  0  0  0
 10 20  1  0  0  0  0
 11  4  1  1  0  0  0
 11  6  1  0  0  0  0
 11 22  1  0  0  0  0
 12 34  1  6  0  0  0
 13 23  1  0  0  0  0
 13  1  1  0  0  0  0
 14 16  1  1  0  0  0
 14 12  1  0  0  0  0
 15 30  1  0  0  0  0
 15 17  1  0  0  0  0
 19  8  1  0  0  0  0
 19  3  1  1  0  0  0
 19 18  1  0  0  0  0
 20 24  1  0  0  0  0
 21 10  1  1  0  0  0
 21  1  1  0  0  0  0
 21 14  1  0  0  0  0
 22  8  1  0  0  0  0
 23 15  2  0  0  0  0
 23 22  1  0  0  0  0
 24 12  1  0  0  0  0
 25 30  2  0  0  0  0
 26 28  1  0  0  0  0
 26 31  1  1  0  0  0
 28 27  1  0  0  0  0
 29 25  1  0  0  0  0
 29 26  1  0  0  0  0
 30 27  1  0  0  0  0
 31 32  1  0  0  0  0
 33 32  1  0  0  0  0
 36 35  2  0  0  0  0
 37 38  1  0  0  0  0
 37 40  1  1  0  0  0
 38 36  2  0  0  0  0
 39 34  1  6  0  0  0
 39 37  1  0  0  0  0
 39 38  1  0  0  0  0
 40 42  1  0  0  0  0
 40 41  1  1  0  0  0
 42 43  1  6  0  0  0
 42 44  1  0  0  0  0
 44 47  1  0  0  0  0
 45 47  1  0  0  0  0
 47 46  1  0  0  0  0
 47 48  1  0  0  0  0
 48 52  1  0  0  0  0
 48 49  1  6  0  0  0
 49 50  1  0  0  0  0
 50 51  1  0  0  0  0
 52 53  1  0  0  0  0
 53 55  1  0  0  0  0
 55 54  1  0  0  0  0
M  END
>  <MODEL>
7

>  <REMARK>
 VINA RESULT:      -5.3      2.439      4.985
  Name = 
  15 active torsions:
  status: ('A' for Active; 'I' for Inactive)
    1  A    between atoms: C_3  and  C_14
    2  A    between atoms: C_3  and  O_38
    3  A    between atoms: C_6  and  C_20
    4  A    between atoms: C_6  and  C_53
    5  A    between atoms: O_10  and  C_18
    6  A    between atoms: O_10  and  C_32
    7  A    between atoms: C_11  and  C_29
    8  A    between atoms: C_20  and  C_22
    9  A    between atoms: C_27  and  C_54
   10  A    between atoms: C_29  and  C_50
   11  A    between atoms: C_30  and  C_50
   12  A    between atoms: C_30  and  C_53
   13  A    between atoms: C_33  and  C_52
   14  A    between atoms: O_38  and  C_50
   15  A    between atoms: C_51  and  C_54
                            x       y       z     vdW  Elec       q    Type
                         _______ _______ _______ _____ _____    ______ ____

>  <TORSDO>
F 15

$$$$
=
 OpenBabel10272401363D

 55 60  0  0  1  0  0  0  0  0999 V2000
  187.7550  177.7910  140.4000 O   0  0  0  0  0  0  0  0  0  0  0  0
  186.6960  178.3210  137.3000 C   0  0  0  0  0  2  0  0  0  0  0  0
  182.8870  178.2030  137.3470 C   0  0  0  0  0  1  0  0  0  0  0  0
  181.9980  179.0680  140.2010 C   0  0  0  0  0  2  0  0  0  0  0  0
  180.7480  179.3840  142.4410 C   0  0  0  0  0  2  0  0  0  0  0  0
  183.0780  178.5170  142.3750 C   0  0  0  0  0  0  0  0  0  0  0  0
  181.6910  178.2580  142.8820 C   0  0  0  0  0  2  0  0  0  0  0  0
  184.3890  177.7060  139.2720 C   0  0  0  0  0  2  0  0  0  0  0  0
  180.7890  179.6770  140.9250 C   0  0  0  0  0  2  0  0  0  0  0  0
  190.1150  178.2750  140.3190 C   0  0  0  0  0  2  0  0  0  0  0  0
  183.2720  179.2010  141.0420 C   0  0  1  0  0  3  0  0  0  0  0  0
  189.7340  176.2280  138.3870 C   0  0  2  0  0  3  0  0  0  0  0  0
  186.9600  178.9110  140.6300 C   0  0  0  0  0  2  0  0  0  0  0  0
  188.8650  177.4860  138.2480 C   0  0  1  0  0  3  0  0  0  0  0  0
  185.4570  178.1730  142.5190 C   0  0  0  0  0  0  0  0  0  0  0  0
  187.4780  177.0930  137.7310 C   0  0  0  0  0  2  0  0  0  0  0  0
  184.1040  178.0380  143.0060 N   0  0  0  0  0  0  0  0  0  0  0  0
  185.2890  177.9110  136.9180 C   0  0  0  0  0  2  0  0  0  0  0  0
  184.2700  178.4220  137.9210 C   0  0  1  0  0  3  0  0  0  0  0  0
  190.5730  176.9600  140.4910 O   0  0  0  0  0  0  0  0  0  0  0  0
  188.7740  178.2770  139.5730 C   0  0  1  0  0  3  0  0  0  0  0  0
  184.4750  178.6630  140.3850 N   0  0  0  0  0  0  0  0  0  0  0  0
  185.6370  178.5430  141.2200 C   0  0  0  0  0  0  0  0  0  0  0  0
  190.9770  176.5340  139.2220 C   0  0  0  0  0  2  0  0  0  0  0  0
  187.5520  176.9680  143.0670 C   0  0  0  0  0  3  0  0  0  0  0  0
  188.7730  177.2930  145.2550 C   0  0  1  0  0  3  0  0  0  0  0  0
  186.5580  178.3920  144.8300 C   0  0  0  0  0  2  0  0  0  0  0  0
  187.4050  177.6220  145.8430 C   0  0  0  0  0  2  0  0  0  0  0  0
  188.5960  176.4320  144.0050 C   0  0  0  0  0  2  0  0  0  0  0  0
  186.5520  177.7740  143.4500 C   0  0  0  0  0  0  0  0  0  0  0  0
  189.4740  178.4620  144.9400 O   0  0  0  0  0  0  0  0  0  0  0  0
  190.8120  178.0720  144.8620 C   0  0  0  0  0  2  0  0  0  0  0  0
  191.4740  178.7800  143.6990 C   0  0  0  0  0  1  0  0  0  0  0  0
  190.1500  175.7280  137.0120 C   0  0  0  0  0  2  0  0  0  0  0  0
  191.0560  172.1790  134.3490 O   0  0  0  0  0  0  0  0  0  0  0  0
  190.3490  172.8470  135.1100 C   0  0  0  0  0  0  0  0  0  0  0  0
  188.8070  173.7320  137.2060 C   0  0  1  0  0  3  0  0  0  0  0  0
  189.6210  173.5610  135.9230 C   0  0  0  0  0  0  0  0  0  0  0  0
  189.0380  174.8940  136.4060 C   0  0  2  0  0  3  0  0  0  0  0  0
  187.3840  173.1650  137.0750 C   0  0  2  0  0  3  0  0  0  0  0  0
  187.3120  171.7990  137.3840 O   0  0  0  0  0  1  0  0  0  0  0  0
  186.8050  173.4180  135.6820 C   0  0  2  0  0  3  0  0  0  0  0  0
  186.4120  174.7530  135.5330 O   0  0  0  0  0  1  0  0  0  0  0  0
  185.6700  172.4230  135.3780 C   0  0  0  0  0  2  0  0  0  0  0  0
  183.6140  173.6280  134.9080 C   0  0  0  0  0  1  0  0  0  0  0  0
  184.3090  173.4360  137.2430 C   0  0  0  0  0  1  0  0  0  0  0  0
  184.2440  172.6850  135.9150 C   0  0  0  0  0  0  0  0  0  0  0  0
  183.3580  171.4020  135.9930 C   0  0  2  0  0  3  0  0  0  0  0  0
  182.2160  171.5070  137.0270 C   0  0  0  0  0  2  0  0  0  0  0  0
  180.8930  171.9090  136.3810 C   0  0  0  0  0  2  0  0  0  0  0  0
  180.4700  170.9230  135.4840 O   0  0  0  0  0  1  0  0  0  0  0  0
  184.1240  170.2420  136.2100 O   0  0  0  0  0  0  0  0  0  0  0  0
  183.3440  169.1420  135.8070 C   0  0  0  0  0  2  0  0  0  0  0  0
  185.3760  168.4500  134.5110 C   0  0  0  0  0  1  0  0  0  0  0  0
  184.2070  167.9730  135.3480 C   0  0  0  0  0  2  0  0  0  0  0  0
  1 13  1  0  0  0  0
  2 16  1  0  0  0  0
  4  9  1  0  0  0  0
  5  7  1  0  0  0  0
  6  7  1  0  0  0  0
  6 17  2  0  0  0  0
  8 22  1  0  0  0  0
  9  5  1  0  0  0  0
 10 20  1  0  0  0  0
 11  4  1  6  0  0  0
 11  6  1  0  0  0  0
 12 34  1  6  0  0  0
 12 24  1  0  0  0  0
 13 23  1  0  0  0  0
 14 16  1  1  0  0  0
 14 12  1  0  0  0  0
 14 21  1  0  0  0  0
 15 17  1  0  0  0  0
 15 30  1  0  0  0  0
 18  2  1  0  0  0  0
 18 19  1  0  0  0  0
 19  3  1  6  0  0  0
 19  8  1  0  0  0  0
 21 10  1  1  0  0  0
 21  1  1  0  0  0  0
 22 11  1  0  0  0  0
 22 23  1  0  0  0  0
 23 15  2  0  0  0  0
 24 20  1  0  0  0  0
 25 30  2  0  0  0  0
 25 29  1  0  0  0  0
 26 31  1  6  0  0  0
 26 28  1  0  0  0  0
 27 28  1  0  0  0  0
 29 26  1  0  0  0  0
 30 27  1  0  0  0  0
 32 31  1  0  0  0  0
 33 32  1  0  0  0  0
 35 36  2  0  0  0  0
 36 38  2  0  0  0  0
 37 40  1  6  0  0  0
 38 39  1  0  0  0  0
 38 37  1  0  0  0  0
 39 34  1  1  0  0  0
 39 37  1  0  0  0  0
 40 41  1  6  0  0  0
 42 43  1  1  0  0  0
 42 40  1  0  0  0  0
 44 42  1  0  0  0  0
 44 47  1  0  0  0  0
 45 47  1  0  0  0  0
 47 48  1  0  0  0  0
 47 46  1  0  0  0  0
 48 52  1  0  0  0  0
 48 49  1  1  0  0  0
 50 49  1  0  0  0  0
 51 50  1  0  0  0  0
 53 52  1  0  0  0  0
 54 55  1  0  0  0  0
 55 53  1  0  0  0  0
M  END
>  <MODEL>
8

>  <REMARK>
 VINA RESULT:      -5.1      2.734     10.662
  Name = 
  15 active torsions:
  status: ('A' for Active; 'I' for Inactive)
    1  A    between atoms: C_3  and  C_14
    2  A    between atoms: C_3  and  O_38
    3  A    between atoms: C_6  and  C_20
    4  A    between atoms: C_6  and  C_53
    5  A    between atoms: O_10  and  C_18
    6  A    between atoms: O_10  and  C_32
    7  A    between atoms: C_11  and  C_29
    8  A    between atoms: C_20  and  C_22
    9  A    between atoms: C_27  and  C_54
   10  A    between atoms: C_29  and  C_50
   11  A    between atoms: C_30  and  C_50
   12  A    between atoms: C_30  and  C_53
   13  A    between atoms: C_33  and  C_52
   14  A    between atoms: O_38  and  C_50
   15  A    between atoms: C_51  and  C_54
                            x       y       z     vdW  Elec       q    Type
                         _______ _______ _______ _____ _____    ______ ____

>  <TORSDO>
F 15

$$$$
