=
 OpenBabel10272401373D

 55 59  0  0  1  0  0  0  0  0999 V2000
  184.8720  177.7600  135.0700 C   0  0  0  0  0  2  0  0  0  0  0  0
  183.1340  178.5710  141.2120 C   0  0  0  0  0  0  0  0  0  0  0  0
  183.7380  176.2080  139.5860 O   0  0  0  0  0  0  0  0  0  0  0  0
  181.7970  176.5530  138.4010 O   0  0  0  0  0  0  0  0  0  0  0  0
  187.1370  177.4960  136.1200 C   0  0  0  0  0  2  0  0  0  0  0  0
  186.4720  178.4140  138.2000 C   0  0  2  0  0  3  0  0  0  0  0  0
  184.1140  176.5540  135.6080 C   0  0  0  0  0  2  0  0  0  0  0  0
  185.3490  178.4510  137.3610 O   0  0  0  0  0  0  0  0  0  0  0  0
  182.6090  179.5800  142.0150 O   0  0  0  0  0  1  0  0  0  0  0  0
  182.3000  177.9300  140.3860 C   0  0  0  0  0  3  0  0  0  0  0  0
  182.6630  176.8540  139.4510 C   0  0  0  0  0  0  0  0  0  0  0  0
  187.4990  177.4800  137.5740 C   0  0  1  0  0  3  0  0  0  0  0  0
  184.6150  178.2790  141.2430 C   0  0  1  0  0  3  0  0  0  0  0  0
  185.8790  178.3360  136.0660 C   0  0  2  0  0  3  0  0  0  0  0  0
  182.2820  175.9260  137.2190 C   0  0  2  0  0  3  0  0  0  0  0  0
  182.8370  177.0170  136.2910 C   0  0  2  0  0  3  0  0  0  0  0  0
  185.2840  178.9680  140.2210 O   0  0  0  0  0  0  0  0  0  0  0  0
  186.0980  178.0040  139.6190 C   0  0  0  0  0  2  0  0  0  0  0  0
  187.3620  176.1730  138.0490 O   0  0  0  0  0  1  0  0  0  0  0  0
  179.9820  174.8800  137.5130 C   0  0  0  0  0  2  0  0  0  0  0  0
  180.3210  173.9620  138.6850 C   0  0  0  0  0  2  0  0  0  0  0  0
  181.7380  173.7010  136.1110 C   0  0  2  0  0  3  0  0  0  0  0  0
  182.0050  172.7530  137.2830 C   0  0  0  0  0  2  0  0  0  0  0  0
  180.7700  172.6010  138.1690 C   0  0  0  0  0  2  0  0  0  0  0  0
  181.1850  175.0590  136.5760 C   0  0  2  0  0  3  0  0  0  0  0  0
  180.8190  173.0590  135.0890 C   0  0  0  0  0  1  0  0  0  0  0  0
  184.5690  177.6870  143.5240 F   0  0  0  0  0  0  0  0  0  0  0  0
  185.3060  178.4320  142.6180 C   0  0  0  0  0  0  0  0  0  0  0  0
  185.2640  179.7550  143.0250 F   0  0  0  0  0  0  0  0  0  0  0  0
  186.7670  177.9210  142.5960 C   0  0  1  0  0  3  0  0  0  0  0  0
  187.6350  178.9030  142.1110 O   0  0  0  0  0  1  0  0  0  0  0  0
  187.2900  177.3150  143.9280 C   0  0  2  0  0  0  0  0  0  0  0  0
  186.7980  176.0130  144.0640 O   0  0  0  0  0  1  0  0  0  0  0  0
  186.2470  177.3030  146.1170 O   0  0  0  0  0  1  0  0  0  0  0  0
  186.8030  178.1280  145.1360 C   0  0  0  0  0  2  0  0  0  0  0  0
  188.8370  177.2520  143.9310 C   0  0  2  0  0  3  0  0  0  0  0  0
  189.4650  178.1960  144.9670 C   0  0  2  0  0  3  0  0  0  0  0  0
  190.3850  179.0610  144.3660 O   0  0  0  0  0  1  0  0  0  0  0  0
  190.1540  177.4020  146.0580 C   0  0  0  0  0  1  0  0  0  0  0  0
  189.3550  177.5170  142.6520 O   0  0  0  0  0  0  0  0  0  0  0  0
  190.0680  176.2710  140.8800 O   0  0  0  0  0  1  0  0  0  0  0  0
  190.0300  176.3540  142.2720 C   0  0  1  0  0  3  0  0  0  0  0  0
  191.8150  175.4610  143.7770 O   0  0  0  0  0  1  0  0  0  0  0  0
  191.4230  176.3750  142.8060 C   0  0  0  0  0  0  0  0  0  0  0  0
  192.2310  177.2570  142.4110 O   0  0  0  0  0  0  0  0  0  0  0  0
  181.8850  177.4230  135.3440 O   0  0  0  0  0  0  0  0  0  0  0  0
  181.2820  182.6270  137.0050 C   0  0  0  0  0  2  0  0  0  0  0  0
  181.9470  179.0090  137.1260 C   0  0  0  0  0  3  0  0  0  0  0  0
  179.9830  181.9640  137.4710 C   0  0  1  0  0  3  0  0  0  0  0  0
  181.0300  181.1700  136.7120 C   0  0  1  0  0  0  0  0  0  0  0  0
  180.8270  179.5190  134.9330 C   0  0  0  0  0  3  0  0  0  0  0  0
  180.7390  180.8080  135.2880 C   0  0  0  0  0  3  0  0  0  0  0  0
  180.0550  181.7100  138.8420 O   0  0  0  0  0  1  0  0  0  0  0  0
  181.8580  180.2510  137.4680 N   0  0  0  0  0  0  0  0  0  0  0  0
  181.1610  178.4540  135.9530 C   0  0  1  0  0  3  0  0  0  0  0  0
  1  7  1  0  0  0  0
  2 13  1  0  0  0  0
  2  9  1  0  0  0  0
  4 11  1  0  0  0  0
  5 12  1  0  0  0  0
  6 18  1  1  0  0  0
  7 16  1  0  0  0  0
  8  6  1  0  0  0  0
 10  2  2  0  0  0  0
 11  3  2  0  0  0  0
 11 10  1  0  0  0  0
 12 19  1  1  0  0  0
 12  6  1  0  0  0  0
 13 28  1  1  0  0  0
 14  1  1  6  0  0  0
 14  5  1  0  0  0  0
 14  8  1  0  0  0  0
 15  4  1  1  0  0  0
 16 46  1  6  0  0  0
 16 15  1  0  0  0  0
 17 13  1  0  0  0  0
 18 17  1  0  0  0  0
 20 21  1  0  0  0  0
 22 26  1  6  0  0  0
 22 25  1  0  0  0  0
 22 23  1  0  0  0  0
 23 24  1  0  0  0  0
 24 21  1  0  0  0  0
 25 15  1  0  0  0  0
 25 20  1  1  0  0  0
 28 29  1  0  0  0  0
 28 27  1  0  0  0  0
 30 31  1  1  0  0  0
 30 28  1  0  0  0  0
 30 32  1  0  0  0  0
 32 36  1  0  0  0  0
 32 33  1  1  0  0  0
 32 35  1  0  0  0  0
 35 34  1  0  0  0  0
 36 40  1  6  0  0  0
 36 37  1  0  0  0  0
 37 39  1  1  0  0  0
 38 37  1  0  0  0  0
 42 41  1  6  0  0  0
 42 40  1  0  0  0  0
 42 44  1  0  0  0  0
 44 43  1  0  0  0  0
 45 44  2  0  0  0  0
 47 49  1  0  0  0  0
 48 54  2  0  0  0  0
 49 53  1  1  0  0  0
 50 52  1  6  0  0  0
 50 47  1  0  0  0  0
 50 54  1  0  0  0  0
 50 49  1  0  0  0  0
 51 52  2  0  0  0  0
 51 55  1  0  0  0  0
 55 46  1  6  0  0  0
 55 48  1  0  0  0  0
M  END
>  <MODEL>
1

>  <REMARK>
 VINA RESULT:      -5.1      0.000      0.000
  Name = 
  12 active torsions:
  status: ('A' for Active; 'I' for Inactive)
    1  A    between atoms: C_1  and  C_53
    2  A    between atoms: C_6  and  C_14
    3  A    between atoms: C_6  and  C_20
    4  A    between atoms: C_6  and  C_53
    5  A    between atoms: C_8  and  C_20
    6  A    between atoms: C_8  and  C_43
    7  A    between atoms: C_11  and  C_29
    8  A    between atoms: C_11  and  O_38
    9  A    between atoms: C_26  and  C_45
   10  A    between atoms: O_33  and  C_49
   11  A    between atoms: O_33  and  C_52
   12  A    between atoms: O_38  and  C_53
                            x       y       z     vdW  Elec       q    Type
                         _______ _______ _______ _____ _____    ______ ____

>  <TORSDO>
F 12

$$$$
=
 OpenBabel10272401373D

 55 59  0  0  1  0  0  0  0  0999 V2000
  187.6720  175.8130  135.3300 C   0  0  0  0  0  2  0  0  0  0  0  0
  190.4820  176.4230  141.0860 C   0  0  0  0  0  0  0  0  0  0  0  0
  190.8940  177.7330  138.4950 O   0  0  0  0  0  0  0  0  0  0  0  0
  191.7440  175.7670  137.6590 O   0  0  0  0  0  0  0  0  0  0  0  0
  186.4900  177.8950  136.0860 C   0  0  0  0  0  2  0  0  0  0  0  0
  187.1210  177.6380  138.3540 C   0  0  2  0  0  3  0  0  0  0  0  0
  189.1170  176.2770  135.2080 C   0  0  0  0  0  2  0  0  0  0  0  0
  187.6590  176.5460  137.6570 O   0  0  0  0  0  0  0  0  0  0  0  0
  190.5410  175.7250  142.2890 O   0  0  0  0  0  1  0  0  0  0  0  0
  191.2090  175.9650  140.0610 C   0  0  0  0  0  3  0  0  0  0  0  0
  191.2670  176.5480  138.7110 C   0  0  0  0  0  0  0  0  0  0  0  0
  186.7040  178.6910  137.3370 C   0  0  1  0  0  3  0  0  0  0  0  0
  189.5670  177.6150  140.9520 C   0  0  1  0  0  3  0  0  0  0  0  0
  186.9120  176.4920  136.4690 C   0  0  2  0  0  3  0  0  0  0  0  0
  191.3680  176.0520  136.3170 C   0  0  2  0  0  3  0  0  0  0  0  0
  190.0150  175.3790  136.0450 C   0  0  2  0  0  3  0  0  0  0  0  0
  188.3330  177.2410  140.3980 O   0  0  0  0  0  0  0  0  0  0  0  0
  188.1000  178.1800  139.3880 C   0  0  0  0  0  2  0  0  0  0  0  0
  187.7280  179.6130  137.1030 O   0  0  0  0  0  1  0  0  0  0  0  0
  192.5490  174.1040  135.1840 C   0  0  0  0  0  2  0  0  0  0  0  0
  193.1030  173.4390  136.4420 C   0  0  0  0  0  2  0  0  0  0  0  0
  193.8450  176.2100  135.7540 C   0  0  2  0  0  3  0  0  0  0  0  0
  194.4350  175.4900  136.9700 C   0  0  0  0  0  2  0  0  0  0  0  0
  194.4930  173.9800  136.7490 C   0  0  0  0  0  2  0  0  0  0  0  0
  192.4810  175.6300  135.3410 C   0  0  2  0  0  3  0  0  0  0  0  0
  194.8160  176.2010  134.5900 C   0  0  0  0  0  1  0  0  0  0  0  0
  188.7640  179.6550  141.8190 F   0  0  0  0  0  0  0  0  0  0  0  0
  189.4110  178.4950  142.2140 C   0  0  0  0  0  0  0  0  0  0  0  0
  190.6590  178.8510  142.7000 F   0  0  0  0  0  0  0  0  0  0  0  0
  188.5830  177.7930  143.3170 C   0  0  1  0  0  3  0  0  0  0  0  0
  188.2020  176.5090  142.9170 O   0  0  0  0  0  1  0  0  0  0  0  0
  189.2230  177.7740  144.7330 C   0  0  2  0  0  0  0  0  0  0  0  0
  190.1530  178.8140  144.8290 O   0  0  0  0  0  1  0  0  0  0  0  0
  191.3160  176.6770  145.2790 O   0  0  0  0  0  1  0  0  0  0  0  0
  189.9670  176.4550  144.9870 C   0  0  0  0  0  2  0  0  0  0  0  0
  188.1460  177.9840  145.8250 C   0  0  2  0  0  3  0  0  0  0  0  0
  188.5550  177.3930  147.1810 C   0  0  2  0  0  3  0  0  0  0  0  0
  187.5870  176.5030  147.6540 O   0  0  0  0  0  1  0  0  0  0  0  0
  188.7680  178.4980  148.1960 C   0  0  0  0  0  1  0  0  0  0  0  0
  186.9070  177.4590  145.4180 O   0  0  0  0  0  0  0  0  0  0  0  0
  185.1060  178.2640  144.2750 O   0  0  0  0  0  1  0  0  0  0  0  0
  186.0730  178.5640  145.2340 C   0  0  1  0  0  3  0  0  0  0  0  0
  185.7730  180.0640  147.2120 O   0  0  0  0  0  1  0  0  0  0  0  0
  185.4030  178.9170  146.5200 C   0  0  0  0  0  0  0  0  0  0  0  0
  184.5340  178.1440  147.0040 O   0  0  0  0  0  0  0  0  0  0  0  0
  190.1730  174.1260  135.4340 O   0  0  0  0  0  0  0  0  0  0  0  0
  186.8860  169.7410  135.8400 C   0  0  0  0  0  2  0  0  0  0  0  0
  188.7880  172.5150  134.3470 C   0  0  0  0  0  3  0  0  0  0  0  0
  185.8970  170.8970  135.6640 C   0  0  1  0  0  3  0  0  0  0  0  0
  187.3910  171.1560  135.7190 C   0  0  1  0  0  0  0  0  0  0  0  0
  188.6880  172.8910  136.8310 C   0  0  0  0  0  3  0  0  0  0  0  0
  187.9480  171.7820  136.9610 C   0  0  0  0  0  3  0  0  0  0  0  0
  185.4320  170.9160  134.3470 O   0  0  0  0  0  1  0  0  0  0  0  0
  188.0720  171.4480  134.4720 N   0  0  0  0  0  0  0  0  0  0  0  0
  188.9120  173.5220  135.4750 C   0  0  1  0  0  3  0  0  0  0  0  0
  2  9  1  0  0  0  0
  3 11  2  0  0  0  0
  4 11  1  0  0  0  0
  5 14  1  0  0  0  0
  5 12  1  0  0  0  0
  6 18  1  1  0  0  0
  7  1  1  0  0  0  0
  7 16  1  0  0  0  0
  8  6  1  0  0  0  0
 10  2  2  0  0  0  0
 11 10  1  0  0  0  0
 12 19  1  6  0  0  0
 12  6  1  0  0  0  0
 13  2  1  0  0  0  0
 13 28  1  1  0  0  0
 14  1  1  6  0  0  0
 14  8  1  0  0  0  0
 15  4  1  1  0  0  0
 16 46  1  6  0  0  0
 16 15  1  0  0  0  0
 17 13  1  0  0  0  0
 18 17  1  0  0  0  0
 20 21  1  0  0  0  0
 21 24  1  0  0  0  0
 22 26  1  6  0  0  0
 22 23  1  0  0  0  0
 24 23  1  0  0  0  0
 25 20  1  1  0  0  0
 25 22  1  0  0  0  0
 25 15  1  0  0  0  0
 27 28  1  0  0  0  0
 28 29  1  0  0  0  0
 28 30  1  0  0  0  0
 30 31  1  6  0  0  0
 30 32  1  0  0  0  0
 32 33  1  1  0  0  0
 32 35  1  0  0  0  0
 32 36  1  0  0  0  0
 35 34  1  0  0  0  0
 36 40  1  6  0  0  0
 36 37  1  0  0  0  0
 37 38  1  0  0  0  0
 37 39  1  1  0  0  0
 42 41  1  6  0  0  0
 42 40  1  0  0  0  0
 42 44  1  0  0  0  0
 44 45  2  0  0  0  0
 44 43  1  0  0  0  0
 48 54  2  0  0  0  0
 48 55  1  0  0  0  0
 49 53  1  6  0  0  0
 49 50  1  0  0  0  0
 49 47  1  0  0  0  0
 50 47  1  1  0  0  0
 50 52  1  0  0  0  0
 51 52  2  0  0  0  0
 54 50  1  0  0  0  0
 55 46  1  1  0  0  0
 55 51  1  0  0  0  0
M  END
>  <MODEL>
2

>  <REMARK>
 VINA RESULT:      -4.8      4.400      8.146
  Name = 
  12 active torsions:
  status: ('A' for Active; 'I' for Inactive)
    1  A    between atoms: C_1  and  C_53
    2  A    between atoms: C_6  and  C_14
    3  A    between atoms: C_6  and  C_20
    4  A    between atoms: C_6  and  C_53
    5  A    between atoms: C_8  and  C_20
    6  A    between atoms: C_8  and  C_43
    7  A    between atoms: C_11  and  C_29
    8  A    between atoms: C_11  and  O_38
    9  A    between atoms: C_26  and  C_45
   10  A    between atoms: O_33  and  C_49
   11  A    between atoms: O_33  and  C_52
   12  A    between atoms: O_38  and  C_53
                            x       y       z     vdW  Elec       q    Type
                         _______ _______ _______ _____ _____    ______ ____

>  <TORSDO>
F 12

$$$$
=
 OpenBabel10272401373D

 55 59  0  0  1  0  0  0  0  0999 V2000
  187.8220  175.7410  135.1830 C   0  0  0  0  0  2  0  0  0  0  0  0
  190.0760  176.5200  141.1590 C   0  0  0  0  0  0  0  0  0  0  0  0
  190.6120  177.8700  138.6130 O   0  0  0  0  0  0  0  0  0  0  0  0
  191.6710  175.9740  137.8540 O   0  0  0  0  0  0  0  0  0  0  0  0
  186.4320  177.7280  135.8330 C   0  0  0  0  0  2  0  0  0  0  0  0
  186.8830  177.5050  138.1470 C   0  0  2  0  0  3  0  0  0  0  0  0
  189.2350  176.3080  135.1860 C   0  0  0  0  0  2  0  0  0  0  0  0
  187.5560  176.4590  137.5000 O   0  0  0  0  0  0  0  0  0  0  0  0
  190.0810  175.8210  142.3630 O   0  0  0  0  0  1  0  0  0  0  0  0
  190.9190  176.1200  140.2000 C   0  0  0  0  0  3  0  0  0  0  0  0
  191.0500  176.7130  138.8600 C   0  0  0  0  0  0  0  0  0  0  0  0
  186.4800  178.5300  137.0970 C   0  0  1  0  0  3  0  0  0  0  0  0
  189.0910  177.6430  140.9460 C   0  0  1  0  0  3  0  0  0  0  0  0
  186.9190  176.3580  136.2520 C   0  0  2  0  0  3  0  0  0  0  0  0
  191.3920  176.2390  136.4840 C   0  0  2  0  0  3  0  0  0  0  0  0
  190.1190  175.4720  136.0970 C   0  0  2  0  0  3  0  0  0  0  0  0
  187.9400  177.1850  140.2880 O   0  0  0  0  0  0  0  0  0  0  0  0
  187.7270  178.1100  139.2610 C   0  0  0  0  0  2  0  0  0  0  0  0
  187.4510  179.5260  136.9510 O   0  0  0  0  0  1  0  0  0  0  0  0
  192.8130  174.3870  135.4720 C   0  0  0  0  0  2  0  0  0  0  0  0
  193.3100  173.7710  136.7770 C   0  0  0  0  0  2  0  0  0  0  0  0
  193.8870  176.5900  136.1280 C   0  0  2  0  0  3  0  0  0  0  0  0
  194.4290  175.9220  137.3950 C   0  0  0  0  0  2  0  0  0  0  0  0
  194.6230  174.4210  137.1940 C   0  0  0  0  0  2  0  0  0  0  0  0
  192.6120  175.9030  135.6080 C   0  0  2  0  0  3  0  0  0  0  0  0
  194.9500  176.6540  135.0490 C   0  0  0  0  0  1  0  0  0  0  0  0
  187.3880  178.4900  142.3370 F   0  0  0  0  0  0  0  0  0  0  0  0
  188.7650  178.5030  142.1890 C   0  0  0  0  0  0  0  0  0  0  0  0
  189.1550  179.8150  141.9740 F   0  0  0  0  0  0  0  0  0  0  0  0
  189.4280  177.9470  143.4730 C   0  0  1  0  0  3  0  0  0  0  0  0
  190.2610  178.9030  144.0620 O   0  0  0  0  0  1  0  0  0  0  0  0
  188.4590  177.3250  144.5170 C   0  0  2  0  0  0  0  0  0  0  0  0
  187.9150  176.1490  143.9930 O   0  0  0  0  0  1  0  0  0  0  0  0
  186.0950  177.5850  144.9870 O   0  0  0  0  0  1  0  0  0  0  0  0
  187.2990  178.2780  144.8340 C   0  0  0  0  0  2  0  0  0  0  0  0
  189.2140  176.9710  145.8220 C   0  0  2  0  0  3  0  0  0  0  0  0
  188.6310  177.6800  147.0530 C   0  0  2  0  0  3  0  0  0  0  0  0
  189.5690  178.5430  147.6260 O   0  0  0  0  0  1  0  0  0  0  0  0
  188.1800  176.6640  148.0830 C   0  0  0  0  0  1  0  0  0  0  0  0
  190.5860  177.2500  145.7020 O   0  0  0  0  0  0  0  0  0  0  0  0
  192.0840  175.7780  144.8130 O   0  0  0  0  0  1  0  0  0  0  0  0
  191.2360  176.0280  145.8920 C   0  0  1  0  0  3  0  0  0  0  0  0
  192.0300  177.2020  147.9520 O   0  0  0  0  0  1  0  0  0  0  0  0
  192.0350  176.0650  147.1520 C   0  0  0  0  0  0  0  0  0  0  0  0
  192.7560  175.0810  147.4640 O   0  0  0  0  0  0  0  0  0  0  0  0
  190.4200  174.2370  135.5030 O   0  0  0  0  0  0  0  0  0  0  0  0
  187.5650  169.5640  135.9650 C   0  0  0  0  0  2  0  0  0  0  0  0
  189.2600  172.4480  134.4310 C   0  0  0  0  0  3  0  0  0  0  0  0
  186.4780  170.6050  135.6850 C   0  0  1  0  0  3  0  0  0  0  0  0
  187.9340  171.0160  135.8000 C   0  0  1  0  0  0  0  0  0  0  0  0
  188.9920  172.9210  136.8860 C   0  0  0  0  0  3  0  0  0  0  0  0
  188.3600  171.7490  137.0350 C   0  0  0  0  0  3  0  0  0  0  0  0
  186.0830  170.5190  134.3490 O   0  0  0  0  0  1  0  0  0  0  0  0
  188.6460  171.3210  134.5740 N   0  0  0  0  0  0  0  0  0  0  0  0
  189.2230  173.5110  135.5140 C   0  0  1  0  0  3  0  0  0  0  0  0
  1  7  1  0  0  0  0
  2  9  1  0  0  0  0
  3 11  2  0  0  0  0
  4 11  1  0  0  0  0
  5 14  1  0  0  0  0
  5 12  1  0  0  0  0
  6 18  1  1  0  0  0
  7 16  1  0  0  0  0
  8  6  1  0  0  0  0
 10  2  2  0  0  0  0
 11 10  1  0  0  0  0
 12 19  1  6  0  0  0
 12  6  1  0  0  0  0
 13  2  1  0  0  0  0
 13 28  1  1  0  0  0
 14  1  1  6  0  0  0
 14  8  1  0  0  0  0
 15  4  1  1  0  0  0
 16 46  1  6  0  0  0
 16 15  1  0  0  0  0
 17 13  1  0  0  0  0
 18 17  1  0  0  0  0
 20 21  1  0  0  0  0
 21 24  1  0  0  0  0
 22 26  1  6  0  0  0
 22 23  1  0  0  0  0
 24 23  1  0  0  0  0
 25 20  1  1  0  0  0
 25 22  1  0  0  0  0
 25 15  1  0  0  0  0
 28 27  1  0  0  0  0
 28 30  1  0  0  0  0
 29 28  1  0  0  0  0
 30 31  1  1  0  0  0
 30 32  1  0  0  0  0
 32 33  1  6  0  0  0
 32 35  1  0  0  0  0
 32 36  1  0  0  0  0
 35 34  1  0  0  0  0
 36 40  1  6  0  0  0
 36 37  1  0  0  0  0
 37 38  1  0  0  0  0
 37 39  1  1  0  0  0
 40 42  1  0  0  0  0
 42 41  1  6  0  0  0
 42 44  1  0  0  0  0
 44 45  2  0  0  0  0
 44 43  1  0  0  0  0
 48 54  2  0  0  0  0
 48 55  1  0  0  0  0
 49 53  1  6  0  0  0
 49 50  1  0  0  0  0
 49 47  1  0  0  0  0
 50 47  1  1  0  0  0
 50 52  1  0  0  0  0
 51 52  2  0  0  0  0
 54 50  1  0  0  0  0
 55 46  1  1  0  0  0
 55 51  1  0  0  0  0
M  END
>  <MODEL>
3

>  <REMARK>
 VINA RESULT:      -4.5      4.417      7.930
  Name = 
  12 active torsions:
  status: ('A' for Active; 'I' for Inactive)
    1  A    between atoms: C_1  and  C_53
    2  A    between atoms: C_6  and  C_14
    3  A    between atoms: C_6  and  C_20
    4  A    between atoms: C_6  and  C_53
    5  A    between atoms: C_8  and  C_20
    6  A    between atoms: C_8  and  C_43
    7  A    between atoms: C_11  and  C_29
    8  A    between atoms: C_11  and  O_38
    9  A    between atoms: C_26  and  C_45
   10  A    between atoms: O_33  and  C_49
   11  A    between atoms: O_33  and  C_52
   12  A    between atoms: O_38  and  C_53
                            x       y       z     vdW  Elec       q    Type
                         _______ _______ _______ _____ _____    ______ ____

>  <TORSDO>
F 12

$$$$
=
 OpenBabel10272401373D

 55 59  0  0  1  0  0  0  0  0999 V2000
  192.3490  176.7400  138.7120 C   0  0  0  0  0  2  0  0  0  0  0  0
  186.2000  178.5020  138.0180 C   0  0  0  0  0  0  0  0  0  0  0  0
  187.5140  175.9250  138.4920 O   0  0  0  0  0  0  0  0  0  0  0  0
  188.3630  175.9880  136.3550 O   0  0  0  0  0  0  0  0  0  0  0  0
  191.7040  176.7470  141.1380 C   0  0  0  0  0  2  0  0  0  0  0  0
  189.7090  177.9740  140.7830 C   0  0  2  0  0  3  0  0  0  0  0  0
  191.4980  175.6120  138.1440 C   0  0  0  0  0  2  0  0  0  0  0  0
  190.3230  177.8250  139.5300 O   0  0  0  0  0  0  0  0  0  0  0  0
  185.4840  179.6100  137.5710 O   0  0  0  0  0  1  0  0  0  0  0  0
  186.7460  177.6980  137.0990 C   0  0  0  0  0  3  0  0  0  0  0  0
  187.5510  176.4960  137.3680 C   0  0  0  0  0  0  0  0  0  0  0  0
  190.3570  176.9910  141.7470 C   0  0  1  0  0  3  0  0  0  0  0  0
  186.3950  178.2800  139.4980 C   0  0  1  0  0  3  0  0  0  0  0  0
  191.6580  177.5150  139.8340 C   0  0  2  0  0  3  0  0  0  0  0  0
  189.4990  175.1910  136.6700 C   0  0  2  0  0  3  0  0  0  0  0  0
  190.6740  176.1320  136.9770 C   0  0  2  0  0  3  0  0  0  0  0  0
  187.6180  178.8130  139.9300 O   0  0  0  0  0  0  0  0  0  0  0  0
  188.1990  177.7950  140.6910 C   0  0  0  0  0  2  0  0  0  0  0  0
  189.6650  175.7770  141.7870 O   0  0  0  0  0  1  0  0  0  0  0  0
  188.8410  174.3900  134.3460 C   0  0  0  0  0  2  0  0  0  0  0  0
  187.4190  173.9430  134.6780 C   0  0  0  0  0  2  0  0  0  0  0  0
  189.7340  172.7340  136.0500 C   0  0  2  0  0  3  0  0  0  0  0  0
  188.3010  172.2620  136.3070 C   0  0  0  0  0  2  0  0  0  0  0  0
  187.4150  172.4750  135.0820 C   0  0  0  0  0  2  0  0  0  0  0  0
  189.7850  174.1850  135.5400 C   0  0  2  0  0  3  0  0  0  0  0  0
  190.4550  171.7980  135.0990 C   0  0  0  0  0  1  0  0  0  0  0  0
  184.2960  177.6500  140.3670 F   0  0  0  0  0  0  0  0  0  0  0  0
  185.2120  178.6890  140.4060 C   0  0  0  0  0  0  0  0  0  0  0  0
  184.5930  179.8180  139.8970 F   0  0  0  0  0  0  0  0  0  0  0  0
  185.6560  178.9300  141.8690 C   0  0  1  0  0  3  0  0  0  0  0  0
  185.9920  180.2710  142.0760 O   0  0  0  0  0  1  0  0  0  0  0  0
  184.6790  178.4190  142.9640 C   0  0  2  0  0  0  0  0  0  0  0  0
  184.0660  177.2440  142.5180 O   0  0  0  0  0  1  0  0  0  0  0  0
  182.3490  179.0400  142.7070 O   0  0  0  0  0  1  0  0  0  0  0  0
  183.5740  179.4460  143.2450 C   0  0  0  0  0  2  0  0  0  0  0  0
  185.4410  178.1020  144.2740 C   0  0  2  0  0  3  0  0  0  0  0  0
  184.9430  178.9340  145.4640 C   0  0  2  0  0  3  0  0  0  0  0  0
  185.8510  179.9460  145.7850 O   0  0  0  0  0  1  0  0  0  0  0  0
  184.7230  178.0470  146.6730 C   0  0  0  0  0  1  0  0  0  0  0  0
  186.8260  178.2730  144.1050 O   0  0  0  0  0  0  0  0  0  0  0  0
  187.5080  176.1290  143.7290 O   0  0  0  0  0  1  0  0  0  0  0  0
  187.4160  177.1450  144.6810 C   0  0  1  0  0  3  0  0  0  0  0  0
  189.3990  176.6810  146.1330 O   0  0  0  0  0  1  0  0  0  0  0  0
  188.7820  177.4820  145.1790 C   0  0  0  0  0  0  0  0  0  0  0  0
  189.3560  178.5250  144.7690 O   0  0  0  0  0  0  0  0  0  0  0  0
  191.4830  176.3340  135.8480 O   0  0  0  0  0  0  0  0  0  0  0  0
  196.4410  174.4580  134.4000 C   0  0  0  0  0  2  0  0  0  0  0  0
  192.8410  174.4960  135.1610 C   0  0  0  0  0  3  0  0  0  0  0  0
  196.3010  173.9770  135.8470 C   0  0  1  0  0  3  0  0  0  0  0  0
  195.2050  174.7990  135.1930 C   0  0  1  0  0  0  0  0  0  0  0  0
  193.8410  176.6310  136.0350 C   0  0  0  0  0  3  0  0  0  0  0  0
  195.0480  176.2260  135.6200 C   0  0  0  0  0  3  0  0  0  0  0  0
  195.9740  172.6200  135.8580 O   0  0  0  0  0  1  0  0  0  0  0  0
  194.0060  174.1040  134.7660 N   0  0  0  0  0  0  0  0  0  0  0  0
  192.6820  175.6640  136.1170 C   0  0  1  0  0  3  0  0  0  0  0  0
  2 13  1  0  0  0  0
  4 11  1  0  0  0  0
  5 12  1  0  0  0  0
  6 18  1  6  0  0  0
  6 12  1  0  0  0  0
  7  1  1  0  0  0  0
  8 14  1  0  0  0  0
  8  6  1  0  0  0  0
  9  2  1  0  0  0  0
 10 11  1  0  0  0  0
 10  2  2  0  0  0  0
 11  3  2  0  0  0  0
 12 19  1  6  0  0  0
 13 17  1  0  0  0  0
 13 28  1  1  0  0  0
 14  1  1  6  0  0  0
 14  5  1  0  0  0  0
 15  4  1  6  0  0  0
 15 16  1  0  0  0  0
 16 46  1  6  0  0  0
 16  7  1  0  0  0  0
 17 18  1  0  0  0  0
 20 21  1  0  0  0  0
 21 24  1  0  0  0  0
 22 26  1  6  0  0  0
 22 23  1  0  0  0  0
 24 23  1  0  0  0  0
 25 20  1  6  0  0  0
 25 22  1  0  0  0  0
 25 15  1  0  0  0  0
 27 28  1  0  0  0  0
 28 30  1  0  0  0  0
 29 28  1  0  0  0  0
 30 31  1  6  0  0  0
 30 32  1  0  0  0  0
 32 33  1  6  0  0  0
 32 35  1  0  0  0  0
 32 36  1  0  0  0  0
 34 35  1  0  0  0  0
 36 40  1  6  0  0  0
 36 37  1  0  0  0  0
 37 38  1  0  0  0  0
 37 39  1  1  0  0  0
 40 42  1  0  0  0  0
 42 41  1  6  0  0  0
 42 44  1  0  0  0  0
 44 43  1  0  0  0  0
 45 44  2  0  0  0  0
 47 49  1  0  0  0  0
 48 55  1  0  0  0  0
 49 53  1  6  0  0  0
 50 47  1  6  0  0  0
 50 52  1  0  0  0  0
 50 49  1  0  0  0  0
 51 55  1  0  0  0  0
 52 51  2  0  0  0  0
 54 48  2  0  0  0  0
 54 50  1  0  0  0  0
 55 46  1  6  0  0  0
M  END
>  <MODEL>
4

>  <REMARK>
 VINA RESULT:      -4.5      4.426      8.058
  Name = 
  12 active torsions:
  status: ('A' for Active; 'I' for Inactive)
    1  A    between atoms: C_1  and  C_53
    2  A    between atoms: C_6  and  C_14
    3  A    between atoms: C_6  and  C_20
    4  A    between atoms: C_6  and  C_53
    5  A    between atoms: C_8  and  C_20
    6  A    between atoms: C_8  and  C_43
    7  A    between atoms: C_11  and  C_29
    8  A    between atoms: C_11  and  O_38
    9  A    between atoms: C_26  and  C_45
   10  A    between atoms: O_33  and  C_49
   11  A    between atoms: O_33  and  C_52
   12  A    between atoms: O_38  and  C_53
                            x       y       z     vdW  Elec       q    Type
                         _______ _______ _______ _____ _____    ______ ____

>  <TORSDO>
F 12

$$$$
=
 OpenBabel10272401373D

 55 59  0  0  1  0  0  0  0  0999 V2000
  191.9590  176.4560  138.7850 C   0  0  0  0  0  2  0  0  0  0  0  0
  185.9920  178.7030  137.9190 C   0  0  0  0  0  0  0  0  0  0  0  0
  187.0790  176.0370  138.4730 O   0  0  0  0  0  0  0  0  0  0  0  0
  187.9740  175.9840  136.3550 O   0  0  0  0  0  0  0  0  0  0  0  0
  191.2660  176.5680  141.1960 C   0  0  0  0  0  2  0  0  0  0  0  0
  189.3870  177.9470  140.7720 C   0  0  2  0  0  3  0  0  0  0  0  0
  191.0290  175.3910  138.2210 C   0  0  0  0  0  2  0  0  0  0  0  0
  190.0120  177.7210  139.5370 O   0  0  0  0  0  0  0  0  0  0  0  0
  185.3790  179.8550  137.4350 O   0  0  0  0  0  1  0  0  0  0  0  0
  186.4890  177.8370  137.0290 C   0  0  0  0  0  3  0  0  0  0  0  0
  187.1860  176.5790  137.3390 C   0  0  0  0  0  0  0  0  0  0  0  0
  189.9320  176.9340  141.7700 C   0  0  1  0  0  3  0  0  0  0  0  0
  186.1370  178.4960  139.4070 C   0  0  1  0  0  3  0  0  0  0  0  0
  191.3110  177.3090  139.8770 C   0  0  2  0  0  3  0  0  0  0  0  0
  189.0340  175.1040  136.7100 C   0  0  2  0  0  3  0  0  0  0  0  0
  190.2760  175.9510  137.0250 C   0  0  2  0  0  3  0  0  0  0  0  0
  187.3910  178.9360  139.8560 O   0  0  0  0  0  0  0  0  0  0  0  0
  187.8700  177.8900  140.6500 C   0  0  0  0  0  2  0  0  0  0  0  0
  189.1410  175.7830  141.8170 O   0  0  0  0  0  1  0  0  0  0  0  0
  188.2290  174.1890  134.4770 C   0  0  0  0  0  2  0  0  0  0  0  0
  186.8440  173.7330  134.9280 C   0  0  0  0  0  2  0  0  0  0  0  0
  189.2750  172.6260  136.1810 C   0  0  2  0  0  3  0  0  0  0  0  0
  187.8740  172.1410  136.5610 C   0  0  0  0  0  2  0  0  0  0  0  0
  186.8990  172.2840  135.3940 C   0  0  0  0  0  2  0  0  0  0  0  0
  189.2590  174.0540  135.6070 C   0  0  2  0  0  3  0  0  0  0  0  0
  189.9450  171.6620  135.2210 C   0  0  0  0  0  1  0  0  0  0  0  0
  184.4350  180.1120  139.6190 F   0  0  0  0  0  0  0  0  0  0  0  0
  184.9730  179.0200  140.2800 C   0  0  0  0  0  0  0  0  0  0  0  0
  185.4570  179.4610  141.5010 F   0  0  0  0  0  0  0  0  0  0  0  0
  183.8740  177.9510  140.4910 C   0  0  1  0  0  3  0  0  0  0  0  0
  183.7200  177.6500  141.8470 O   0  0  0  0  0  1  0  0  0  0  0  0
  182.5030  178.2510  139.8220 C   0  0  2  0  0  0  0  0  0  0  0  0
  182.5470  179.5200  139.2380 O   0  0  0  0  0  1  0  0  0  0  0  0
  180.2850  179.0200  140.4280 O   0  0  0  0  0  1  0  0  0  0  0  0
  181.3700  178.2500  140.8570 C   0  0  0  0  0  2  0  0  0  0  0  0
  182.1970  177.2160  138.7120 C   0  0  2  0  0  3  0  0  0  0  0  0
  182.3670  175.7670  139.1910 C   0  0  2  0  0  3  0  0  0  0  0  0
  183.3500  175.1050  138.4510 O   0  0  0  0  0  1  0  0  0  0  0  0
  181.0550  175.0160  139.0780 C   0  0  0  0  0  1  0  0  0  0  0  0
  182.9880  177.4490  137.5740 O   0  0  0  0  0  0  0  0  0  0  0  0
  181.4500  178.5700  136.3170 O   0  0  0  0  0  1  0  0  0  0  0  0
  182.1160  177.3560  136.4850 C   0  0  1  0  0  3  0  0  0  0  0  0
  183.4750  175.7860  135.0920 O   0  0  0  0  0  1  0  0  0  0  0  0
  182.8810  177.0340  135.2450 C   0  0  0  0  0  0  0  0  0  0  0  0
  183.0310  177.9140  134.3570 O   0  0  0  0  0  0  0  0  0  0  0  0
  191.1220  176.0630  135.9120 O   0  0  0  0  0  0  0  0  0  0  0  0
  196.2090  174.2420  134.9050 C   0  0  0  0  0  2  0  0  0  0  0  0
  192.5990  174.2110  135.6230 C   0  0  0  0  0  3  0  0  0  0  0  0
  196.0710  174.0590  136.4190 C   0  0  1  0  0  3  0  0  0  0  0  0
  194.9400  174.6600  135.6050 C   0  0  1  0  0  0  0  0  0  0  0  0
  193.4540  176.5370  136.0460 C   0  0  0  0  0  3  0  0  0  0  0  0
  194.6910  176.1310  135.7300 C   0  0  0  0  0  3  0  0  0  0  0  0
  195.8260  172.7140  136.7050 O   0  0  0  0  0  1  0  0  0  0  0  0
  193.7930  173.8190  135.3230 N   0  0  0  0  0  0  0  0  0  0  0  0
  192.3540  175.5370  136.3180 C   0  0  1  0  0  3  0  0  0  0  0  0
  2 13  1  0  0  0  0
  4 11  1  0  0  0  0
  5 12  1  0  0  0  0
  6 18  1  6  0  0  0
  6 12  1  0  0  0  0
  7  1  1  0  0  0  0
  8 14  1  0  0  0  0
  8  6  1  0  0  0  0
  9  2  1  0  0  0  0
 10 11  1  0  0  0  0
 10  2  2  0  0  0  0
 11  3  2  0  0  0  0
 12 19  1  6  0  0  0
 13 17  1  0  0  0  0
 13 28  1  1  0  0  0
 14  1  1  6  0  0  0
 14  5  1  0  0  0  0
 15  4  1  6  0  0  0
 15 16  1  0  0  0  0
 16 46  1  6  0  0  0
 16  7  1  0  0  0  0
 17 18  1  0  0  0  0
 20 21  1  0  0  0  0
 21 24  1  0  0  0  0
 22 26  1  6  0  0  0
 22 23  1  0  0  0  0
 24 23  1  0  0  0  0
 25 20  1  6  0  0  0
 25 22  1  0  0  0  0
 25 15  1  0  0  0  0
 27 28  1  0  0  0  0
 28 30  1  0  0  0  0
 28 29  1  0  0  0  0
 30 31  1  1  0  0  0
 32 33  1  6  0  0  0
 32 30  1  0  0  0  0
 32 35  1  0  0  0  0
 34 35  1  0  0  0  0
 36 40  1  6  0  0  0
 36 37  1  0  0  0  0
 36 32  1  0  0  0  0
 37 39  1  6  0  0  0
 38 37  1  0  0  0  0
 42 41  1  6  0  0  0
 42 40  1  0  0  0  0
 43 44  1  0  0  0  0
 44 42  1  0  0  0  0
 45 44  2  0  0  0  0
 47 49  1  0  0  0  0
 48 55  1  0  0  0  0
 49 53  1  6  0  0  0
 50 47  1  6  0  0  0
 50 52  1  0  0  0  0
 50 49  1  0  0  0  0
 51 55  1  0  0  0  0
 52 51  2  0  0  0  0
 54 50  1  0  0  0  0
 54 48  2  0  0  0  0
 55 46  1  6  0  0  0
M  END
>  <MODEL>
5

>  <REMARK>
 VINA RESULT:      -4.0      4.238      9.026
  Name = 
  12 active torsions:
  status: ('A' for Active; 'I' for Inactive)
    1  A    between atoms: C_1  and  C_53
    2  A    between atoms: C_6  and  C_14
    3  A    between atoms: C_6  and  C_20
    4  A    between atoms: C_6  and  C_53
    5  A    between atoms: C_8  and  C_20
    6  A    between atoms: C_8  and  C_43
    7  A    between atoms: C_11  and  C_29
    8  A    between atoms: C_11  and  O_38
    9  A    between atoms: C_26  and  C_45
   10  A    between atoms: O_33  and  C_49
   11  A    between atoms: O_33  and  C_52
   12  A    between atoms: O_38  and  C_53
                            x       y       z     vdW  Elec       q    Type
                         _______ _______ _______ _____ _____    ______ ____

>  <TORSDO>
F 12

$$$$
=
 OpenBabel10272401373D

 55 59  0  0  1  0  0  0  0  0999 V2000
  188.1750  176.3180  134.9180 C   0  0  0  0  0  2  0  0  0  0  0  0
  190.1580  176.2430  141.0390 C   0  0  0  0  0  0  0  0  0  0  0  0
  190.9780  177.7720  138.6750 O   0  0  0  0  0  0  0  0  0  0  0  0
  191.8710  175.8550  137.7700 O   0  0  0  0  0  0  0  0  0  0  0  0
  186.9690  178.3730  135.7090 C   0  0  0  0  0  2  0  0  0  0  0  0
  187.2620  177.8720  138.0060 C   0  0  2  0  0  3  0  0  0  0  0  0
  189.6380  176.7210  135.0440 C   0  0  0  0  0  2  0  0  0  0  0  0
  187.8560  176.8270  137.2830 O   0  0  0  0  0  0  0  0  0  0  0  0
  190.0220  175.4320  142.1620 O   0  0  0  0  0  1  0  0  0  0  0  0
  191.0070  175.8500  140.0820 C   0  0  0  0  0  3  0  0  0  0  0  0
  191.2760  176.5550  138.8190 C   0  0  0  0  0  0  0  0  0  0  0  0
  187.0300  179.0350  137.0510 C   0  0  1  0  0  3  0  0  0  0  0  0
  189.3120  177.4850  140.9000 C   0  0  1  0  0  3  0  0  0  0  0  0
  187.2840  176.9220  136.0040 C   0  0  2  0  0  3  0  0  0  0  0  0
  191.6990  176.2840  136.4240 C   0  0  2  0  0  3  0  0  0  0  0  0
  190.3760  175.7060  135.9020 C   0  0  2  0  0  3  0  0  0  0  0  0
  188.1580  177.2250  140.1470 O   0  0  0  0  0  0  0  0  0  0  0  0
  188.1020  178.2650  139.2140 C   0  0  0  0  0  2  0  0  0  0  0  0
  188.1080  179.9260  137.0550 O   0  0  0  0  0  1  0  0  0  0  0  0
  192.9980  174.3890  135.3300 C   0  0  0  0  0  2  0  0  0  0  0  0
  193.3790  173.6390  136.6040 C   0  0  0  0  0  2  0  0  0  0  0  0
  194.2290  176.4330  136.1940 C   0  0  2  0  0  3  0  0  0  0  0  0
  194.6510  175.6290  137.4270 C   0  0  0  0  0  2  0  0  0  0  0  0
  194.7230  174.1350  137.1200 C   0  0  0  0  0  2  0  0  0  0  0  0
  192.9240  175.9040  135.5740 C   0  0  2  0  0  3  0  0  0  0  0  0
  195.3420  176.4790  135.1650 C   0  0  0  0  0  1  0  0  0  0  0  0
  188.6040  179.5220  141.8500 F   0  0  0  0  0  0  0  0  0  0  0  0
  189.0090  178.2480  142.2110 C   0  0  0  0  0  0  0  0  0  0  0  0
  190.1640  178.3690  142.9660 F   0  0  0  0  0  0  0  0  0  0  0  0
  187.8930  177.5660  143.0390 C   0  0  1  0  0  3  0  0  0  0  0  0
  187.9000  176.1810  142.8440 O   0  0  0  0  0  1  0  0  0  0  0  0
  187.8600  177.9220  144.5510 C   0  0  2  0  0  0  0  0  0  0  0  0
  188.7800  178.9460  144.8000 O   0  0  0  0  0  1  0  0  0  0  0  0
  189.5840  176.8100  145.8440 O   0  0  0  0  0  1  0  0  0  0  0  0
  188.2580  176.7160  145.4130 C   0  0  0  0  0  2  0  0  0  0  0  0
  186.4550  178.4200  144.9670 C   0  0  2  0  0  3  0  0  0  0  0  0
  186.1090  178.0670  146.4200 C   0  0  2  0  0  3  0  0  0  0  0  0
  184.7240  178.0110  146.6080 O   0  0  0  0  0  1  0  0  0  0  0  0
  186.7080  179.0860  147.3680 C   0  0  0  0  0  1  0  0  0  0  0  0
  185.4680  177.9260  144.0970 O   0  0  0  0  0  0  0  0  0  0  0  0
  185.3880  180.2060  144.1150 O   0  0  0  0  0  1  0  0  0  0  0  0
  184.7580  179.0480  143.6590 C   0  0  1  0  0  3  0  0  0  0  0  0
  183.6140  178.5260  141.4980 O   0  0  0  0  0  0  0  0  0  0  0  0
  184.7050  179.0670  142.1670 C   0  0  0  0  0  0  0  0  0  0  0  0
  185.6770  179.5300  141.5130 O   0  0  0  0  0  1  0  0  0  0  0  0
  190.5770  174.5100  135.1960 O   0  0  0  0  0  0  0  0  0  0  0  0
  187.4690  170.0970  136.2300 C   0  0  0  0  0  2  0  0  0  0  0  0
  189.4200  172.5970  134.3610 C   0  0  0  0  0  3  0  0  0  0  0  0
  186.4600  171.1070  135.6760 C   0  0  1  0  0  3  0  0  0  0  0  0
  187.9210  171.4820  135.8420 C   0  0  1  0  0  0  0  0  0  0  0  0
  188.9810  173.5150  136.6610 C   0  0  0  0  0  3  0  0  0  0  0  0
  188.2830  172.4120  136.9600 C   0  0  0  0  0  3  0  0  0  0  0  0
  186.1690  170.7930  134.3470 O   0  0  0  0  0  1  0  0  0  0  0  0
  188.7420  171.5360  134.6490 N   0  0  0  0  0  0  0  0  0  0  0  0
  189.3490  173.8390  135.2310 C   0  0  1  0  0  3  0  0  0  0  0  0
  1  7  1  0  0  0  0
  2  9  1  0  0  0  0
  3 11  2  0  0  0  0
  4 11  1  0  0  0  0
  5 14  1  0  0  0  0
  5 12  1  0  0  0  0
  6 18  1  1  0  0  0
  7 16  1  0  0  0  0
  8  6  1  0  0  0  0
 10  2  2  0  0  0  0
 11 10  1  0  0  0  0
 12 19  1  6  0  0  0
 12  6  1  0  0  0  0
 13  2  1  0  0  0  0
 13 28  1  1  0  0  0
 14  1  1  6  0  0  0
 14  8  1  0  0  0  0
 15  4  1  1  0  0  0
 16 46  1  6  0  0  0
 16 15  1  0  0  0  0
 17 13  1  0  0  0  0
 18 17  1  0  0  0  0
 20 21  1  0  0  0  0
 21 24  1  0  0  0  0
 22 26  1  6  0  0  0
 22 23  1  0  0  0  0
 24 23  1  0  0  0  0
 25 20  1  1  0  0  0
 25 22  1  0  0  0  0
 25 15  1  0  0  0  0
 27 28  1  0  0  0  0
 28 29  1  0  0  0  0
 28 30  1  0  0  0  0
 30 31  1  1  0  0  0
 30 32  1  0  0  0  0
 32 33  1  1  0  0  0
 32 36  1  0  0  0  0
 32 35  1  0  0  0  0
 35 34  1  0  0  0  0
 36 40  1  6  0  0  0
 36 37  1  0  0  0  0
 37 38  1  0  0  0  0
 37 39  1  1  0  0  0
 42 40  1  0  0  0  0
 42 41  1  6  0  0  0
 43 44  2  0  0  0  0
 44 42  1  0  0  0  0
 45 44  1  0  0  0  0
 48 54  2  0  0  0  0
 48 55  1  0  0  0  0
 49 53  1  6  0  0  0
 49 50  1  0  0  0  0
 49 47  1  0  0  0  0
 50 47  1  1  0  0  0
 50 52  1  0  0  0  0
 51 52  2  0  0  0  0
 54 50  1  0  0  0  0
 55 46  1  1  0  0  0
 55 51  1  0  0  0  0
M  END
>  <MODEL>
6

>  <REMARK>
 VINA RESULT:      -3.9      4.265      8.236
  Name = 
  12 active torsions:
  status: ('A' for Active; 'I' for Inactive)
    1  A    between atoms: C_1  and  C_53
    2  A    between atoms: C_6  and  C_14
    3  A    between atoms: C_6  and  C_20
    4  A    between atoms: C_6  and  C_53
    5  A    between atoms: C_8  and  C_20
    6  A    between atoms: C_8  and  C_43
    7  A    between atoms: C_11  and  C_29
    8  A    between atoms: C_11  and  O_38
    9  A    between atoms: C_26  and  C_45
   10  A    between atoms: O_33  and  C_49
   11  A    between atoms: O_33  and  C_52
   12  A    between atoms: O_38  and  C_53
                            x       y       z     vdW  Elec       q    Type
                         _______ _______ _______ _____ _____    ______ ____

>  <TORSDO>
F 12

$$$$
=
 OpenBabel10272401373D

 55 59  0  0  1  0  0  0  0  0999 V2000
  185.0270  177.3600  134.8170 C   0  0  0  0  0  2  0  0  0  0  0  0
  184.5360  178.7620  141.0770 C   0  0  0  0  0  0  0  0  0  0  0  0
  184.2700  176.2770  139.5430 O   0  0  0  0  0  0  0  0  0  0  0  0
  182.3130  177.0730  138.6330 O   0  0  0  0  0  0  0  0  0  0  0  0
  187.2920  176.5570  135.5410 C   0  0  0  0  0  2  0  0  0  0  0  0
  187.2120  177.6720  137.6290 C   0  0  2  0  0  3  0  0  0  0  0  0
  184.0880  176.4040  135.5390 C   0  0  0  0  0  2  0  0  0  0  0  0
  186.0150  177.9720  136.9620 O   0  0  0  0  0  0  0  0  0  0  0  0
  184.4100  179.8940  141.8780 O   0  0  0  0  0  1  0  0  0  0  0  0
  183.4490  178.3320  140.4270 C   0  0  0  0  0  3  0  0  0  0  0  0
  183.3820  177.1730  139.5230 C   0  0  0  0  0  0  0  0  0  0  0  0
  187.8630  176.4910  136.9240 C   0  0  1  0  0  3  0  0  0  0  0  0
  185.8830  178.1030  140.9120 C   0  0  1  0  0  3  0  0  0  0  0  0
  186.2890  177.6880  135.6140 C   0  0  2  0  0  3  0  0  0  0  0  0
  182.4350  176.3100  137.4380 C   0  0  2  0  0  3  0  0  0  0  0  0
  183.0890  177.1960  136.3680 C   0  0  2  0  0  3  0  0  0  0  0  0
  186.5330  178.5690  139.7600 O   0  0  0  0  0  0  0  0  0  0  0  0
  186.9770  177.4130  139.1120 C   0  0  0  0  0  2  0  0  0  0  0  0
  187.4830  175.2750  137.5010 O   0  0  0  0  0  1  0  0  0  0  0  0
  180.1120  175.6260  138.2160 C   0  0  0  0  0  2  0  0  0  0  0  0
  180.5330  174.5110  139.1690 C   0  0  0  0  0  2  0  0  0  0  0  0
  181.2230  174.3810  136.3040 C   0  0  2  0  0  3  0  0  0  0  0  0
  181.5700  173.2480  137.2740 C   0  0  0  0  0  2  0  0  0  0  0  0
  180.5740  173.1800  138.4300 C   0  0  0  0  0  2  0  0  0  0  0  0
  181.0710  175.7340  137.0210 C   0  0  2  0  0  3  0  0  0  0  0  0
  179.9820  174.0480  135.4990 C   0  0  0  0  0  1  0  0  0  0  0  0
  186.5790  176.9210  142.8290 F   0  0  0  0  0  0  0  0  0  0  0  0
  186.7990  178.1130  142.1580 C   0  0  0  0  0  0  0  0  0  0  0  0
  186.4370  179.1480  143.0040 F   0  0  0  0  0  0  0  0  0  0  0  0
  188.2970  178.2240  141.7810 C   0  0  1  0  0  3  0  0  0  0  0  0
  188.6660  179.5570  141.5820 O   0  0  0  0  0  1  0  0  0  0  0  0
  189.2880  177.5010  142.7350 C   0  0  2  0  0  0  0  0  0  0  0  0
  190.5960  177.7430  142.3040 O   0  0  0  0  0  1  0  0  0  0  0  0
  190.1380  175.3020  143.3000 O   0  0  0  0  0  1  0  0  0  0  0  0
  189.0630  175.9830  142.7210 C   0  0  0  0  0  2  0  0  0  0  0  0
  189.1460  178.0370  144.1800 C   0  0  2  0  0  3  0  0  0  0  0  0
  190.4780  178.5370  144.7580 C   0  0  2  0  0  3  0  0  0  0  0  0
  191.0220  179.5490  143.9620 O   0  0  0  0  0  1  0  0  0  0  0  0
  191.4670  177.3950  144.8730 C   0  0  0  0  0  1  0  0  0  0  0  0
  188.5820  177.0660  145.0250 O   0  0  0  0  0  0  0  0  0  0  0  0
  186.5910  177.6650  145.9620 O   0  0  0  0  0  1  0  0  0  0  0  0
  187.9770  177.7780  146.0640 C   0  0  1  0  0  3  0  0  0  0  0  0
  187.7210  177.5430  148.5400 O   0  0  0  0  0  1  0  0  0  0  0  0
  188.4230  177.2360  147.3810 C   0  0  0  0  0  0  0  0  0  0  0  0
  189.4700  176.5380  147.4470 O   0  0  0  0  0  0  0  0  0  0  0  0
  182.1310  177.8050  135.5440 O   0  0  0  0  0  0  0  0  0  0  0  0
  181.0020  182.7640  137.6240 C   0  0  0  0  0  2  0  0  0  0  0  0
  182.3470  179.3500  137.3500 C   0  0  0  0  0  3  0  0  0  0  0  0
  180.0150  181.8510  138.3570 C   0  0  1  0  0  3  0  0  0  0  0  0
  180.9630  181.2900  137.3130 C   0  0  1  0  0  0  0  0  0  0  0  0
  180.6260  179.6540  135.5420 C   0  0  0  0  0  3  0  0  0  0  0  0
  180.3900  180.8950  135.9870 C   0  0  0  0  0  3  0  0  0  0  0  0
  180.4830  181.6000  139.6490 O   0  0  0  0  0  1  0  0  0  0  0  0
  182.1160  180.5450  137.7810 N   0  0  0  0  0  0  0  0  0  0  0  0
  181.4060  178.6640  136.3770 C   0  0  1  0  0  3  0  0  0  0  0  0
  1  7  1  0  0  0  0
  2  9  1  0  0  0  0
  4 11  1  0  0  0  0
  5 14  1  0  0  0  0
  5 12  1  0  0  0  0
  6 18  1  1  0  0  0
  7 16  1  0  0  0  0
  8  6  1  0  0  0  0
 10  2  2  0  0  0  0
 11  3  2  0  0  0  0
 11 10  1  0  0  0  0
 12 19  1  1  0  0  0
 12  6  1  0  0  0  0
 13  2  1  0  0  0  0
 13 28  1  1  0  0  0
 14  1  1  6  0  0  0
 14  8  1  0  0  0  0
 15  4  1  1  0  0  0
 16 46  1  6  0  0  0
 16 15  1  0  0  0  0
 17 13  1  0  0  0  0
 18 17  1  0  0  0  0
 20 21  1  0  0  0  0
 22 26  1  1  0  0  0
 22 25  1  0  0  0  0
 22 23  1  0  0  0  0
 23 24  1  0  0  0  0
 24 21  1  0  0  0  0
 25 15  1  0  0  0  0
 25 20  1  1  0  0  0
 28 27  1  0  0  0  0
 28 29  1  0  0  0  0
 30 31  1  1  0  0  0
 30 28  1  0  0  0  0
 30 32  1  0  0  0  0
 32 33  1  6  0  0  0
 32 36  1  0  0  0  0
 35 32  1  0  0  0  0
 35 34  1  0  0  0  0
 36 37  1  0  0  0  0
 36 40  1  1  0  0  0
 37 39  1  6  0  0  0
 38 37  1  0  0  0  0
 40 42  1  0  0  0  0
 42 41  1  6  0  0  0
 42 44  1  0  0  0  0
 44 45  2  0  0  0  0
 44 43  1  0  0  0  0
 47 49  1  0  0  0  0
 48 54  2  0  0  0  0
 49 53  1  1  0  0  0
 50 52  1  6  0  0  0
 50 47  1  0  0  0  0
 50 54  1  0  0  0  0
 50 49  1  0  0  0  0
 51 52  2  0  0  0  0
 51 55  1  0  0  0  0
 55 46  1  6  0  0  0
 55 48  1  0  0  0  0
M  END
>  <MODEL>
7

>  <REMARK>
 VINA RESULT:      -3.9      1.254      2.316
  Name = 
  12 active torsions:
  status: ('A' for Active; 'I' for Inactive)
    1  A    between atoms: C_1  and  C_53
    2  A    between atoms: C_6  and  C_14
    3  A    between atoms: C_6  and  C_20
    4  A    between atoms: C_6  and  C_53
    5  A    between atoms: C_8  and  C_20
    6  A    between atoms: C_8  and  C_43
    7  A    between atoms: C_11  and  C_29
    8  A    between atoms: C_11  and  O_38
    9  A    between atoms: C_26  and  C_45
   10  A    between atoms: O_33  and  C_49
   11  A    between atoms: O_33  and  C_52
   12  A    between atoms: O_38  and  C_53
                            x       y       z     vdW  Elec       q    Type
                         _______ _______ _______ _____ _____    ______ ____

>  <TORSDO>
F 12

$$$$
=
 OpenBabel10272401373D

 55 59  0  0  1  0  0  0  0  0999 V2000
  187.9480  176.0810  134.7360 C   0  0  0  0  0  2  0  0  0  0  0  0
  189.3750  176.5520  140.9920 C   0  0  0  0  0  0  0  0  0  0  0  0
  190.3170  177.9620  138.6000 O   0  0  0  0  0  0  0  0  0  0  0  0
  191.3930  176.0460  137.9200 O   0  0  0  0  0  0  0  0  0  0  0  0
  186.5640  178.1070  135.2660 C   0  0  0  0  0  2  0  0  0  0  0  0
  186.6770  177.7860  137.6100 C   0  0  2  0  0  3  0  0  0  0  0  0
  189.3690  176.5820  134.9560 C   0  0  0  0  0  2  0  0  0  0  0  0
  187.3910  176.7320  137.0200 O   0  0  0  0  0  0  0  0  0  0  0  0
  189.1830  175.8130  142.1560 O   0  0  0  0  0  1  0  0  0  0  0  0
  190.3270  176.1470  140.1440 C   0  0  0  0  0  3  0  0  0  0  0  0
  190.6680  176.7780  138.8590 C   0  0  0  0  0  0  0  0  0  0  0  0
  186.4680  178.8640  136.5560 C   0  0  1  0  0  3  0  0  0  0  0  0
  188.4770  177.7270  140.6900 C   0  0  1  0  0  3  0  0  0  0  0  0
  186.9310  176.7030  135.6930 C   0  0  2  0  0  3  0  0  0  0  0  0
  191.3190  176.3690  136.5360 C   0  0  2  0  0  3  0  0  0  0  0  0
  190.0820  175.6760  135.9470 C   0  0  2  0  0  3  0  0  0  0  0  0
  187.4110  177.3450  139.8620 O   0  0  0  0  0  0  0  0  0  0  0  0
  187.3820  178.3130  138.8530 C   0  0  0  0  0  2  0  0  0  0  0  0
  187.4900  179.8170  136.5850 O   0  0  0  0  0  1  0  0  0  0  0  0
  192.8570  174.4890  135.7800 C   0  0  0  0  0  2  0  0  0  0  0  0
  193.2010  173.9360  137.1610 C   0  0  0  0  0  2  0  0  0  0  0  0
  193.8370  176.7290  136.4580 C   0  0  2  0  0  3  0  0  0  0  0  0
  194.2300  176.1220  137.8080 C   0  0  0  0  0  2  0  0  0  0  0  0
  194.4530  174.6160  137.6980 C   0  0  0  0  0  2  0  0  0  0  0  0
  192.6350  176.0070  135.8240 C   0  0  2  0  0  3  0  0  0  0  0  0
  195.0190  176.7560  135.5080 C   0  0  0  0  0  1  0  0  0  0  0  0
  187.7260  179.8300  141.4430 F   0  0  0  0  0  0  0  0  0  0  0  0
  188.0160  178.5580  141.9100 C   0  0  0  0  0  0  0  0  0  0  0  0
  189.0490  178.6690  142.8260 F   0  0  0  0  0  0  0  0  0  0  0  0
  186.7590  177.9570  142.5840 C   0  0  1  0  0  3  0  0  0  0  0  0
  187.1120  177.1390  143.6620 O   0  0  0  0  0  1  0  0  0  0  0  0
  185.6570  178.9760  142.9870 C   0  0  2  0  0  0  0  0  0  0  0  0
  185.9850  180.2330  142.4710 O   0  0  0  0  0  1  0  0  0  0  0  0
  184.5890  178.2460  145.0380 O   0  0  0  0  0  1  0  0  0  0  0  0
  185.5560  179.1080  144.5130 C   0  0  0  0  0  2  0  0  0  0  0  0
  184.2840  178.5550  142.4080 C   0  0  2  0  0  3  0  0  0  0  0  0
  184.3380  178.2860  140.8970 C   0  0  2  0  0  3  0  0  0  0  0  0
  184.1800  179.4690  140.1700 O   0  0  0  0  0  1  0  0  0  0  0  0
  183.2610  177.2970  140.4980 C   0  0  0  0  0  1  0  0  0  0  0  0
  183.3000  179.5150  142.6970 O   0  0  0  0  0  0  0  0  0  0  0  0
  182.0160  178.6980  144.3960 O   0  0  0  0  0  1  0  0  0  0  0  0
  182.1480  178.7890  143.0110 C   0  0  1  0  0  3  0  0  0  0  0  0
  180.4820  180.6530  142.9970 O   0  0  0  0  0  1  0  0  0  0  0  0
  180.9470  179.4670  142.4410 C   0  0  0  0  0  0  0  0  0  0  0  0
  180.3230  178.9340  141.4850 O   0  0  0  0  0  0  0  0  0  0  0  0
  190.4120  174.4490  135.3510 O   0  0  0  0  0  0  0  0  0  0  0  0
  187.7280  169.7040  136.0500 C   0  0  0  0  0  2  0  0  0  0  0  0
  189.3250  172.5640  134.3710 C   0  0  0  0  0  3  0  0  0  0  0  0
  186.6050  170.6880  135.7110 C   0  0  1  0  0  3  0  0  0  0  0  0
  188.0450  171.1580  135.8090 C   0  0  1  0  0  0  0  0  0  0  0  0
  189.0260  173.1560  136.7970 C   0  0  0  0  0  3  0  0  0  0  0  0
  188.4370  171.9710  137.0050 C   0  0  0  0  0  3  0  0  0  0  0  0
  186.2210  170.5170  134.3790 O   0  0  0  0  0  1  0  0  0  0  0  0
  188.7520  171.4240  134.5710 N   0  0  0  0  0  0  0  0  0  0  0  0
  189.2430  173.6810  135.3950 C   0  0  1  0  0  3  0  0  0  0  0  0
  1  7  1  0  0  0  0
  2  9  1  0  0  0  0
  3 11  2  0  0  0  0
  4 11  1  0  0  0  0
  5 14  1  0  0  0  0
  5 12  1  0  0  0  0
  6 18  1  1  0  0  0
  7 16  1  0  0  0  0
  8  6  1  0  0  0  0
 10  2  2  0  0  0  0
 11 10  1  0  0  0  0
 12 19  1  6  0  0  0
 12  6  1  0  0  0  0
 13  2  1  0  0  0  0
 13 28  1  1  0  0  0
 14  1  1  6  0  0  0
 14  8  1  0  0  0  0
 15  4  1  1  0  0  0
 16 46  1  6  0  0  0
 16 15  1  0  0  0  0
 17 13  1  0  0  0  0
 18 17  1  0  0  0  0
 20 21  1  0  0  0  0
 21 24  1  0  0  0  0
 22 26  1  6  0  0  0
 22 23  1  0  0  0  0
 24 23  1  0  0  0  0
 25 20  1  1  0  0  0
 25 22  1  0  0  0  0
 25 15  1  0  0  0  0
 27 28  1  0  0  0  0
 28 30  1  0  0  0  0
 28 29  1  0  0  0  0
 30 32  1  0  0  0  0
 30 31  1  1  0  0  0
 32 33  1  6  0  0  0
 32 35  1  0  0  0  0
 35 34  1  0  0  0  0
 36 40  1  6  0  0  0
 36 32  1  0  0  0  0
 37 39  1  6  0  0  0
 37 36  1  0  0  0  0
 38 37  1  0  0  0  0
 40 42  1  0  0  0  0
 42 41  1  1  0  0  0
 44 43  1  0  0  0  0
 44 42  1  0  0  0  0
 45 44  2  0  0  0  0
 48 54  2  0  0  0  0
 48 55  1  0  0  0  0
 49 53  1  6  0  0  0
 49 50  1  0  0  0  0
 49 47  1  0  0  0  0
 50 47  1  1  0  0  0
 50 52  1  0  0  0  0
 51 52  2  0  0  0  0
 54 50  1  0  0  0  0
 55 46  1  1  0  0  0
 55 51  1  0  0  0  0
M  END
>  <MODEL>
8

>  <REMARK>
 VINA RESULT:      -3.8      4.018      8.608
  Name = 
  12 active torsions:
  status: ('A' for Active; 'I' for Inactive)
    1  A    between atoms: C_1  and  C_53
    2  A    between atoms: C_6  and  C_14
    3  A    between atoms: C_6  and  C_20
    4  A    between atoms: C_6  and  C_53
    5  A    between atoms: C_8  and  C_20
    6  A    between atoms: C_8  and  C_43
    7  A    between atoms: C_11  and  C_29
    8  A    between atoms: C_11  and  O_38
    9  A    between atoms: C_26  and  C_45
   10  A    between atoms: O_33  and  C_49
   11  A    between atoms: O_33  and  C_52
   12  A    between atoms: O_38  and  C_53
                            x       y       z     vdW  Elec       q    Type
                         _______ _______ _______ _____ _____    ______ ____

>  <TORSDO>
F 12

$$$$
=
 OpenBabel10272401373D

 55 59  0  0  1  0  0  0  0  0999 V2000
  192.6820  177.1350  139.7800 C   0  0  0  0  0  2  0  0  0  0  0  0
  186.9950  178.4980  137.0960 C   0  0  0  0  0  0  0  0  0  0  0  0
  188.2880  175.9960  137.9140 O   0  0  0  0  0  0  0  0  0  0  0  0
  189.7950  176.2370  136.1930 O   0  0  0  0  0  0  0  0  0  0  0  0
  191.2630  176.9620  141.8440 C   0  0  0  0  0  2  0  0  0  0  0  0
  189.4060  178.0640  140.8700 C   0  0  2  0  0  3  0  0  0  0  0  0
  192.1690  175.9840  138.9260 C   0  0  0  0  0  2  0  0  0  0  0  0
  190.4140  178.0280  139.8950 O   0  0  0  0  0  0  0  0  0  0  0  0
  186.3790  179.5750  136.4660 O   0  0  0  0  0  1  0  0  0  0  0  0
  187.8840  177.7860  136.3940 C   0  0  0  0  0  3  0  0  0  0  0  0
  188.6510  176.6300  136.8850 C   0  0  0  0  0  0  0  0  0  0  0  0
  189.7740  177.0760  141.9680 C   0  0  1  0  0  3  0  0  0  0  0  0
  186.7010  178.2070  138.5480 C   0  0  1  0  0  3  0  0  0  0  0  0
  191.5920  177.7960  140.6240 C   0  0  2  0  0  3  0  0  0  0  0  0
  190.8240  175.5060  136.8510 C   0  0  2  0  0  3  0  0  0  0  0  0
  191.7430  176.5080  137.5640 C   0  0  2  0  0  3  0  0  0  0  0  0
  187.6590  178.8000  139.3830 O   0  0  0  0  0  0  0  0  0  0  0  0
  188.0350  177.7850  140.2670 C   0  0  0  0  0  2  0  0  0  0  0  0
  189.2140  175.8170  141.7360 O   0  0  0  0  0  1  0  0  0  0  0  0
  190.9770  174.7090  134.4390 C   0  0  0  0  0  2  0  0  0  0  0  0
  189.5940  174.0680  134.3460 C   0  0  0  0  0  2  0  0  0  0  0  0
  191.5570  173.1240  136.3350 C   0  0  2  0  0  3  0  0  0  0  0  0
  190.1880  172.4600  136.1680 C   0  0  0  0  0  2  0  0  0  0  0  0
  189.6720  172.5990  134.7370 C   0  0  0  0  0  2  0  0  0  0  0  0
  191.5560  174.5870  135.8560 C   0  0  2  0  0  3  0  0  0  0  0  0
  192.6410  172.3250  135.6370 C   0  0  0  0  0  1  0  0  0  0  0  0
  184.9650  179.7950  138.6810 F   0  0  0  0  0  0  0  0  0  0  0  0
  185.2520  178.4820  139.0130 C   0  0  0  0  0  0  0  0  0  0  0  0
  185.1660  178.3650  140.3910 F   0  0  0  0  0  0  0  0  0  0  0  0
  184.2310  177.5410  138.3280 C   0  0  1  0  0  3  0  0  0  0  0  0
  184.8640  176.4080  137.8080 O   0  0  0  0  0  1  0  0  0  0  0  0
  182.9930  177.1520  139.1820 C   0  0  2  0  0  0  0  0  0  0  0  0
  183.3700  177.0750  140.5270 O   0  0  0  0  0  1  0  0  0  0  0  0
  181.2890  175.4530  139.4860 O   0  0  0  0  0  1  0  0  0  0  0  0
  182.4450  175.7790  138.7700 C   0  0  0  0  0  2  0  0  0  0  0  0
  181.8790  178.2190  139.0510 C   0  0  2  0  0  3  0  0  0  0  0  0
  181.9120  178.9440  137.6980 C   0  0  2  0  0  3  0  0  0  0  0  0
  181.7820  180.3260  137.8650 O   0  0  0  0  0  1  0  0  0  0  0  0
  180.8040  178.4350  136.7980 C   0  0  0  0  0  1  0  0  0  0  0  0
  181.9440  179.1480  140.1030 O   0  0  0  0  0  0  0  0  0  0  0  0
  179.9820  178.0300  140.4250 O   0  0  0  0  0  1  0  0  0  0  0  0
  180.6400  179.2470  140.5970 C   0  0  1  0  0  3  0  0  0  0  0  0
  179.9860  180.7110  142.5160 O   0  0  0  0  0  0  0  0  0  0  0  0
  180.6700  179.5950  142.0480 C   0  0  0  0  0  0  0  0  0  0  0  0
  181.3590  178.9020  142.8420 O   0  0  0  0  0  1  0  0  0  0  0  0
  192.8630  176.8290  136.7830 O   0  0  0  0  0  0  0  0  0  0  0  0
  197.4660  173.8590  136.3360 C   0  0  0  0  0  2  0  0  0  0  0  0
  194.4520  175.7390  135.3740 C   0  0  0  0  0  3  0  0  0  0  0  0
  196.3630  172.8210  136.1100 C   0  0  1  0  0  3  0  0  0  0  0  0
  196.0160  174.2680  136.4080 C   0  0  1  0  0  0  0  0  0  0  0  0
  194.3120  175.2580  137.8380 C   0  0  0  0  0  3  0  0  0  0  0  0
  195.4730  174.5930  137.7660 C   0  0  0  0  0  3  0  0  0  0  0  0
  196.2530  172.5480  134.7450 O   0  0  0  0  0  1  0  0  0  0  0  0
  195.5690  175.0950  135.3040 N   0  0  0  0  0  0  0  0  0  0  0  0
  193.5470  175.6240  136.5870 C   0  0  1  0  0  3  0  0  0  0  0  0
  2 13  1  0  0  0  0
  4 11  1  0  0  0  0
  5 12  1  0  0  0  0
  6 18  1  6  0  0  0
  6 12  1  0  0  0  0
  7  1  1  0  0  0  0
  8 14  1  0  0  0  0
  8  6  1  0  0  0  0
  9  2  1  0  0  0  0
 10 11  1  0  0  0  0
 10  2  2  0  0  0  0
 11  3  2  0  0  0  0
 12 19  1  6  0  0  0
 13 28  1  1  0  0  0
 13 17  1  0  0  0  0
 14  1  1  6  0  0  0
 14  5  1  0  0  0  0
 15  4  1  6  0  0  0
 15 16  1  0  0  0  0
 16 46  1  6  0  0  0
 16  7  1  0  0  0  0
 17 18  1  0  0  0  0
 21 20  1  0  0  0  0
 21 24  1  0  0  0  0
 22 26  1  6  0  0  0
 23 22  1  0  0  0  0
 24 23  1  0  0  0  0
 25 20  1  6  0  0  0
 25 22  1  0  0  0  0
 25 15  1  0  0  0  0
 27 28  1  0  0  0  0
 28 29  1  0  0  0  0
 30 31  1  1  0  0  0
 30 28  1  0  0  0  0
 30 32  1  0  0  0  0
 32 33  1  1  0  0  0
 35 32  1  0  0  0  0
 35 34  1  0  0  0  0
 36 32  1  0  0  0  0
 36 40  1  1  0  0  0
 37 39  1  6  0  0  0
 37 38  1  0  0  0  0
 37 36  1  0  0  0  0
 40 42  1  0  0  0  0
 42 41  1  1  0  0  0
 42 44  1  0  0  0  0
 44 43  2  0  0  0  0
 44 45  1  0  0  0  0
 48 55  1  0  0  0  0
 49 53  1  6  0  0  0
 49 47  1  0  0  0  0
 49 50  1  0  0  0  0
 50 47  1  1  0  0  0
 50 52  1  0  0  0  0
 52 51  2  0  0  0  0
 54 48  2  0  0  0  0
 54 50  1  0  0  0  0
 55 46  1  1  0  0  0
 55 51  1  0  0  0  0
M  END
>  <MODEL>
9

>  <REMARK>
 VINA RESULT:      -3.8      4.630      9.976
  Name = 
  12 active torsions:
  status: ('A' for Active; 'I' for Inactive)
    1  A    between atoms: C_1  and  C_53
    2  A    between atoms: C_6  and  C_14
    3  A    between atoms: C_6  and  C_20
    4  A    between atoms: C_6  and  C_53
    5  A    between atoms: C_8  and  C_20
    6  A    between atoms: C_8  and  C_43
    7  A    between atoms: C_11  and  C_29
    8  A    between atoms: C_11  and  O_38
    9  A    between atoms: C_26  and  C_45
   10  A    between atoms: O_33  and  C_49
   11  A    between atoms: O_33  and  C_52
   12  A    between atoms: O_38  and  C_53
                            x       y       z     vdW  Elec       q    Type
                         _______ _______ _______ _____ _____    ______ ____

>  <TORSDO>
F 12

$$$$
