=
 OpenBabel10272413113D

 32 37  0  0  1  0  0  0  0  0999 V2000
  186.2080  178.2790  139.8890 C   0  0  1  0  0  3  0  0  0  0  0  0
  187.1940  178.2490  142.2510 C   0  0  2  0  0  3  0  0  0  0  0  0
  186.5210  178.5380  138.4150 C   0  0  0  0  0  2  0  0  0  0  0  0
  187.4630  178.4940  140.7510 C   0  0  1  0  0  3  0  0  0  0  0  0
  187.8440  176.9730  142.8230 C   0  0  2  0  0  3  0  0  0  0  0  0
  184.6250  178.8680  146.1990 O   0  0  0  0  0  0  0  0  0  0  0  0
  185.7140  178.2050  142.6130 C   0  0  2  0  0  3  0  0  0  0  0  0
  186.6800  177.5840  146.3080 C   0  0  0  0  0  2  0  0  0  0  0  0
  186.8860  177.7980  144.8180 C   0  0  1  0  0  3  0  0  0  0  0  0
  188.6560  177.7390  140.1960 C   0  0  0  0  0  0  0  0  0  0  0  0
  187.6040  176.7350  144.2160 O   0  0  0  0  0  0  0  0  0  0  0  0
  189.5060  177.0540  140.9800 C   0  0  0  0  0  3  0  0  0  0  0  0
  188.9170  177.8250  138.7220 C   0  0  0  0  0  2  0  0  0  0  0  0
  184.9320  179.3090  141.9060 C   0  0  0  0  0  2  0  0  0  0  0  0
  185.0310  179.1610  140.3720 C   0  0  2  0  0  3  0  0  0  0  0  0
  185.5290  178.0450  144.1340 C   0  0  1  0  0  3  0  0  0  0  0  0
  189.3300  176.9640  142.4750 C   0  0  2  0  0  3  0  0  0  0  0  0
  187.6220  177.5890  137.9420 C   0  0  0  0  0  2  0  0  0  0  0  0
  185.8790  178.7790  146.8420 C   0  0  0  0  0  2  0  0  0  0  0  0
  184.8560  179.2180  144.8510 C   0  0  0  0  0  2  0  0  0  0  0  0
  181.7230  179.0180  138.4690 C   0  0  0  0  0  0  0  0  0  0  0  0
  181.0280  179.7850  137.7550 O   0  0  0  0  0  0  0  0  0  0  0  0
  183.7300  178.6690  139.8110 C   0  0  0  0  0  0  0  0  0  0  0  0
  181.2700  177.6490  138.7250 C   0  0  0  0  0  3  0  0  0  0  0  0
  183.2860  177.2540  140.1310 C   0  0  0  0  0  2  0  0  0  0  0  0
  182.9900  179.4850  139.0460 C   0  0  0  0  0  0  0  0  0  0  0  0
  183.4090  180.7510  138.7890 F   0  0  0  0  0  0  0  0  0  0  0  0
  181.9850  176.8280  139.4980 C   0  0  0  0  0  0  0  0  0  0  0  0
  180.1780  175.4560  140.1690 O   0  0  0  0  0  1  0  0  0  0  0  0
  181.5040  175.4370  139.7290 C   0  0  0  0  0  2  0  0  0  0  0  0
  190.0380  175.7260  143.0150 C   0  0  0  0  0  2  0  0  0  0  0  0
  191.2610  176.0640  143.6010 O   0  0  0  0  0  1  0  0  0  0  0  0
  1  3  1  6  0  0  0
  1 15  1  0  0  0  0
  1  4  1  0  0  0  0
  2  7  1  0  0  0  0
  2  5  1  0  0  0  0
  4  2  1  0  0  0  0
  5 11  1  0  0  0  0
  6 19  1  0  0  0  0
  7 16  1  0  0  0  0
  8 19  1  0  0  0  0
  9  8  1  0  0  0  0
 10  4  1  0  0  0  0
 10 12  2  0  0  0  0
 11  9  1  0  0  0  0
 12 17  1  0  0  0  0
 13 10  1  0  0  0  0
 14  7  1  0  0  0  0
 15 14  1  0  0  0  0
 16  9  1  0  0  0  0
 16 20  1  0  0  0  0
 17  5  1  0  0  0  0
 17 31  1  0  0  0  0
 18  3  1  0  0  0  0
 18 13  1  0  0  0  0
 20  6  1  0  0  0  0
 21 24  1  0  0  0  0
 21 26  1  0  0  0  0
 22 21  2  0  0  0  0
 23 25  1  0  0  0  0
 23 15  1  0  0  0  0
 24 28  2  0  0  0  0
 26 23  2  0  0  0  0
 27 26  1  0  0  0  0
 28 30  1  0  0  0  0
 28 25  1  0  0  0  0
 30 29  1  0  0  0  0
 31 32  1  0  0  0  0
M  END
>  <MODEL>
1

>  <REMARK>
 VINA RESULT:      -9.3      0.000      0.000
  Name = 
  3 active torsions:
  status: ('A' for Active; 'I' for Inactive)
    1  A    between atoms: C_13  and  C_29
    2  A    between atoms: C_15  and  C_26
    3  A    between atoms: C_16  and  C_27
                            x       y       z     vdW  Elec       q    Type
                         _______ _______ _______ _____ _____    ______ ____

>  <TORSDO>
F 3

$$$$
=
 OpenBabel10272413113D

 32 37  0  0  1  0  0  0  0  0999 V2000
  189.7270  177.6860  141.9820 C   0  0  1  0  0  3  0  0  0  0  0  0
  187.9660  178.3270  143.7260 C   0  0  2  0  0  3  0  0  0  0  0  0
  191.2180  177.7330  141.6470 C   0  0  0  0  0  2  0  0  0  0  0  0
  189.4620  178.3440  143.3470 C   0  0  1  0  0  3  0  0  0  0  0  0
  187.6030  177.3660  144.8760 C   0  0  2  0  0  3  0  0  0  0  0  0
  183.3820  179.0540  142.7140 O   0  0  0  0  0  0  0  0  0  0  0  0
  187.0380  178.0080  142.5600 C   0  0  2  0  0  3  0  0  0  0  0  0
  184.0050  178.3280  144.9420 C   0  0  0  0  0  2  0  0  0  0  0  0
  185.4650  178.3020  144.5200 C   0  0  1  0  0  3  0  0  0  0  0  0
  190.3880  177.7980  144.4170 C   0  0  0  0  0  0  0  0  0  0  0  0
  186.2170  177.3420  145.2410 O   0  0  0  0  0  0  0  0  0  0  0  0
  189.9590  177.4870  145.6520 C   0  0  0  0  0  3  0  0  0  0  0  0
  191.8440  177.6660  144.0860 C   0  0  0  0  0  2  0  0  0  0  0  0
  187.4560  178.7480  141.2920 C   0  0  0  0  0  2  0  0  0  0  0  0
  188.8840  178.3450  140.8630 C   0  0  2  0  0  3  0  0  0  0  0  0
  185.5630  178.0950  142.9970 C   0  0  1  0  0  3  0  0  0  0  0  0
  188.5180  177.6380  146.0680 C   0  0  2  0  0  3  0  0  0  0  0  0
  192.0160  176.9950  142.7220 C   0  0  0  0  0  2  0  0  0  0  0  0
  183.2930  179.3810  144.0840 C   0  0  0  0  0  2  0  0  0  0  0  0
  184.7330  179.1920  142.3260 C   0  0  0  0  0  2  0  0  0  0  0  0
  187.6840  176.6580  137.6540 C   0  0  0  0  0  0  0  0  0  0  0  0
  186.6630  176.6770  136.9200 O   0  0  0  0  0  0  0  0  0  0  0  0
  188.8340  177.4680  139.6470 C   0  0  0  0  0  0  0  0  0  0  0  0
  188.8200  175.8020  137.3030 C   0  0  0  0  0  3  0  0  0  0  0  0
  190.0210  176.5740  139.3420 C   0  0  0  0  0  2  0  0  0  0  0  0
  187.7470  177.4920  138.8610 C   0  0  0  0  0  0  0  0  0  0  0  0
  186.6950  178.2940  139.1690 F   0  0  0  0  0  0  0  0  0  0  0  0
  189.9020  175.7530  138.0820 C   0  0  0  0  0  0  0  0  0  0  0  0
  190.5840  173.6090  137.3500 O   0  0  0  0  0  1  0  0  0  0  0  0
  191.0470  174.8820  137.6910 C   0  0  0  0  0  2  0  0  0  0  0  0
  188.2110  176.7210  147.2480 C   0  0  0  0  0  2  0  0  0  0  0  0
  188.1090  177.4510  148.4350 O   0  0  0  0  0  1  0  0  0  0  0  0
  1  3  1  6  0  0  0
  1  4  1  0  0  0  0
  2  5  1  0  0  0  0
  3 18  1  0  0  0  0
  4  2  1  0  0  0  0
  4 10  1  0  0  0  0
  5 11  1  0  0  0  0
  5 17  1  0  0  0  0
  6 19  1  0  0  0  0
  7 16  1  0  0  0  0
  7  2  1  0  0  0  0
  9  8  1  0  0  0  0
  9 11  1  0  0  0  0
 10 12  2  0  0  0  0
 12 17  1  0  0  0  0
 13 10  1  0  0  0  0
 14  7  1  0  0  0  0
 15 14  1  0  0  0  0
 15  1  1  0  0  0  0
 16  9  1  0  0  0  0
 17 31  1  0  0  0  0
 18 13  1  0  0  0  0
 19  8  1  0  0  0  0
 20  6  1  0  0  0  0
 20 16  1  0  0  0  0
 21 26  1  0  0  0  0
 22 21  2  0  0  0  0
 23 15  1  0  0  0  0
 24 21  1  0  0  0  0
 24 28  2  0  0  0  0
 25 23  1  0  0  0  0
 26 27  1  0  0  0  0
 26 23  2  0  0  0  0
 28 25  1  0  0  0  0
 29 30  1  0  0  0  0
 30 28  1  0  0  0  0
 31 32  1  0  0  0  0
M  END
>  <MODEL>
2

>  <REMARK>
 VINA RESULT:      -8.0      2.989      5.254
  Name = 
  3 active torsions:
  status: ('A' for Active; 'I' for Inactive)
    1  A    between atoms: C_13  and  C_29
    2  A    between atoms: C_15  and  C_26
    3  A    between atoms: C_16  and  C_27
                            x       y       z     vdW  Elec       q    Type
                         _______ _______ _______ _____ _____    ______ ____

>  <TORSDO>
F 3

$$$$
=
 OpenBabel10272413113D

 32 37  0  0  1  0  0  0  0  0999 V2000
  189.7280  177.4290  139.9320 C   0  0  1  0  0  3  0  0  0  0  0  0
  189.1560  177.9120  142.3800 C   0  0  2  0  0  3  0  0  0  0  0  0
  190.8010  177.5830  138.8530 C   0  0  0  0  0  2  0  0  0  0  0  0
  190.2110  178.0380  141.2600 C   0  0  1  0  0  3  0  0  0  0  0  0
  189.5120  176.9040  143.4910 C   0  0  2  0  0  3  0  0  0  0  0  0
  184.7210  178.3530  144.0230 O   0  0  0  0  0  0  0  0  0  0  0  0
  187.7610  177.5570  141.8770 C   0  0  2  0  0  3  0  0  0  0  0  0
  186.4770  177.6200  145.5270 C   0  0  0  0  0  2  0  0  0  0  0  0
  187.4790  177.7020  144.3880 C   0  0  1  0  0  3  0  0  0  0  0  0
  191.5900  177.5300  141.6360 C   0  0  0  0  0  0  0  0  0  0  0  0
  188.5430  176.7790  144.5390 O   0  0  0  0  0  0  0  0  0  0  0  0
  191.9080  177.1650  142.8890 C   0  0  0  0  0  3  0  0  0  0  0  0
  192.6430  177.5040  140.5690 C   0  0  0  0  0  2  0  0  0  0  0  0
  187.3990  178.3520  140.6260 C   0  0  0  0  0  2  0  0  0  0  0  0
  188.3870  178.0550  139.4760 C   0  0  2  0  0  3  0  0  0  0  0  0
  186.7520  177.5360  143.0410 C   0  0  1  0  0  3  0  0  0  0  0  0
  190.9120  177.2100  144.0200 C   0  0  2  0  0  3  0  0  0  0  0  0
  192.0840  176.8760  139.2910 C   0  0  0  0  0  2  0  0  0  0  0  0
  185.3690  178.6430  145.2440 C   0  0  0  0  0  2  0  0  0  0  0  0
  185.6430  178.5890  142.9810 C   0  0  0  0  0  2  0  0  0  0  0  0
  185.9620  176.8350  136.7910 C   0  0  0  0  0  0  0  0  0  0  0  0
  184.9120  177.2430  136.2320 O   0  0  0  0  0  0  0  0  0  0  0  0
  187.7290  177.2040  138.4310 C   0  0  0  0  0  0  0  0  0  0  0  0
  186.5440  175.5490  136.3990 C   0  0  0  0  0  3  0  0  0  0  0  0
  188.3510  175.8650  138.0830 C   0  0  0  0  0  2  0  0  0  0  0  0
  186.6120  177.6410  137.8320 C   0  0  0  0  0  0  0  0  0  0  0  0
  186.0730  178.8390  138.1750 F   0  0  0  0  0  0  0  0  0  0  0  0
  187.6470  175.0900  136.9970 C   0  0  0  0  0  0  0  0  0  0  0  0
  189.3580  173.4900  137.3240 O   0  0  0  0  0  1  0  0  0  0  0  0
  188.2220  173.7840  136.5680 C   0  0  0  0  0  2  0  0  0  0  0  0
  191.3290  176.2480  145.1280 C   0  0  0  0  0  2  0  0  0  0  0  0
  191.9010  176.9380  146.2000 O   0  0  0  0  0  1  0  0  0  0  0  0
  1  3  1  6  0  0  0
  1  4  1  0  0  0  0
  2  5  1  0  0  0  0
  3 18  1  0  0  0  0
  4 10  1  0  0  0  0
  4  2  1  0  0  0  0
  5 17  1  0  0  0  0
  5 11  1  0  0  0  0
  6 19  1  0  0  0  0
  7  2  1  0  0  0  0
  7 16  1  0  0  0  0
  9 11  1  0  0  0  0
  9  8  1  0  0  0  0
 10 12  2  0  0  0  0
 12 17  1  0  0  0  0
 13 10  1  0  0  0  0
 14  7  1  0  0  0  0
 15  1  1  0  0  0  0
 15 14  1  0  0  0  0
 16  9  1  0  0  0  0
 17 31  1  0  0  0  0
 18 13  1  0  0  0  0
 19  8  1  0  0  0  0
 20 16  1  0  0  0  0
 20  6  1  0  0  0  0
 21 26  1  0  0  0  0
 22 21  2  0  0  0  0
 23 15  1  0  0  0  0
 24 21  1  0  0  0  0
 24 28  2  0  0  0  0
 25 23  1  0  0  0  0
 26 27  1  0  0  0  0
 26 23  2  0  0  0  0
 28 25  1  0  0  0  0
 30 28  1  0  0  0  0
 30 29  1  0  0  0  0
 31 32  1  0  0  0  0
M  END
>  <MODEL>
3

>  <REMARK>
 VINA RESULT:      -7.9      2.899      4.088
  Name = 
  3 active torsions:
  status: ('A' for Active; 'I' for Inactive)
    1  A    between atoms: C_13  and  C_29
    2  A    between atoms: C_15  and  C_26
    3  A    between atoms: C_16  and  C_27
                            x       y       z     vdW  Elec       q    Type
                         _______ _______ _______ _____ _____    ______ ____

>  <TORSDO>
F 3

$$$$
=
 OpenBabel10272413113D

 32 37  0  0  1  0  0  0  0  0999 V2000
  187.4240  177.5690  143.0390 C   0  0  1  0  0  3  0  0  0  0  0  0
  188.2310  177.1530  145.4330 C   0  0  2  0  0  3  0  0  0  0  0  0
  186.1900  177.6460  142.1400 C   0  0  0  0  0  2  0  0  0  0  0  0
  187.0150  177.2480  144.4870 C   0  0  1  0  0  3  0  0  0  0  0  0
  188.3560  178.3140  146.4410 C   0  0  2  0  0  3  0  0  0  0  0  0
  192.5740  175.5680  146.5240 O   0  0  0  0  0  0  0  0  0  0  0  0
  189.5680  177.0360  144.7100 C   0  0  2  0  0  3  0  0  0  0  0  0
  191.3620  176.9130  148.1360 C   0  0  0  0  0  2  0  0  0  0  0  0
  190.2040  177.0320  147.1590 C   0  0  1  0  0  3  0  0  0  0  0  0
  185.9120  178.1700  144.9710 C   0  0  0  0  0  0  0  0  0  0  0  0
  189.4790  178.2380  147.3280 O   0  0  0  0  0  0  0  0  0  0  0  0
  185.9180  178.7200  146.1970 C   0  0  0  0  0  3  0  0  0  0  0  0
  184.7490  178.4130  144.0580 C   0  0  0  0  0  2  0  0  0  0  0  0
  189.4850  176.0640  143.5360 C   0  0  0  0  0  2  0  0  0  0  0  0
  188.4450  176.5390  142.4980 C   0  0  2  0  0  3  0  0  0  0  0  0
  190.7190  176.8600  145.7180 C   0  0  1  0  0  3  0  0  0  0  0  0
  187.0330  178.4820  147.1840 C   0  0  2  0  0  3  0  0  0  0  0  0
  185.2440  178.7350  142.6470 C   0  0  0  0  0  2  0  0  0  0  0  0
  192.0800  175.5890  147.8460 C   0  0  0  0  0  2  0  0  0  0  0  0
  191.4660  175.5250  145.6510 C   0  0  0  0  0  2  0  0  0  0  0  0
  191.1610  177.4460  139.9710 C   0  0  0  0  0  0  0  0  0  0  0  0
  192.4120  177.3500  139.8750 O   0  0  0  0  0  0  0  0  0  0  0  0
  189.1340  177.0640  141.2730 C   0  0  0  0  0  0  0  0  0  0  0  0
  190.3900  178.0440  138.8790 C   0  0  0  0  0  3  0  0  0  0  0  0
  188.2970  177.7060  140.1830 C   0  0  0  0  0  2  0  0  0  0  0  0
  190.4670  176.9580  141.1700 C   0  0  0  0  0  0  0  0  0  0  0  0
  191.1900  176.3900  142.1690 F   0  0  0  0  0  0  0  0  0  0  0  0
  189.0640  178.1730  138.9720 C   0  0  0  0  0  0  0  0  0  0  0  0
  188.9820  179.8970  137.3530 O   0  0  0  0  0  1  0  0  0  0  0  0
  188.3060  178.7750  137.8380 C   0  0  0  0  0  2  0  0  0  0  0  0
  187.0860  179.6160  148.2030 C   0  0  0  0  0  2  0  0  0  0  0  0
  185.9820  180.4600  148.0690 O   0  0  0  0  0  1  0  0  0  0  0  0
  1  3  1  6  0  0  0
  1  4  1  0  0  0  0
  2  5  1  0  0  0  0
  3 18  1  0  0  0  0
  4 10  1  0  0  0  0
  4  2  1  0  0  0  0
  5 17  1  0  0  0  0
  5 11  1  0  0  0  0
  6 19  1  0  0  0  0
  7  2  1  0  0  0  0
  7 16  1  0  0  0  0
  9 11  1  0  0  0  0
  9  8  1  0  0  0  0
 10 12  2  0  0  0  0
 12 17  1  0  0  0  0
 13 10  1  0  0  0  0
 14  7  1  0  0  0  0
 15  1  1  0  0  0  0
 15 14  1  0  0  0  0
 16  9  1  0  0  0  0
 17 31  1  0  0  0  0
 18 13  1  0  0  0  0
 19  8  1  0  0  0  0
 20 16  1  0  0  0  0
 20  6  1  0  0  0  0
 21 26  1  0  0  0  0
 22 21  2  0  0  0  0
 23 15  1  0  0  0  0
 24 28  2  0  0  0  0
 24 21  1  0  0  0  0
 25 23  1  0  0  0  0
 26 23  2  0  0  0  0
 26 27  1  0  0  0  0
 28 25  1  0  0  0  0
 29 30  1  0  0  0  0
 30 28  1  0  0  0  0
 32 31  1  0  0  0  0
M  END
>  <MODEL>
4

>  <REMARK>
 VINA RESULT:      -7.1      3.877      6.771
  Name = 
  3 active torsions:
  status: ('A' for Active; 'I' for Inactive)
    1  A    between atoms: C_13  and  C_29
    2  A    between atoms: C_15  and  C_26
    3  A    between atoms: C_16  and  C_27
                            x       y       z     vdW  Elec       q    Type
                         _______ _______ _______ _____ _____    ______ ____

>  <TORSDO>
F 3

$$$$
=
 OpenBabel10272413113D

 32 37  0  0  1  0  0  0  0  0999 V2000
  182.9660  178.5460  142.5300 C   0  0  1  0  0  3  0  0  0  0  0  0
  182.9690  178.1290  140.0040 C   0  0  2  0  0  3  0  0  0  0  0  0
  182.1500  179.1060  143.6950 C   0  0  0  0  0  2  0  0  0  0  0  0
  182.1810  178.6760  141.2130 C   0  0  1  0  0  3  0  0  0  0  0  0
  182.4180  176.8140  139.4170 C   0  0  2  0  0  3  0  0  0  0  0  0
  186.9180  177.7960  137.3830 O   0  0  0  0  0  0  0  0  0  0  0  0
  184.4530  177.9130  140.2800 C   0  0  2  0  0  3  0  0  0  0  0  0
  184.9050  176.6600  136.6480 C   0  0  0  0  0  2  0  0  0  0  0  0
  184.1730  177.1710  137.8780 C   0  0  1  0  0  3  0  0  0  0  0  0
  180.7740  178.1270  141.3470 C   0  0  0  0  0  0  0  0  0  0  0  0
  183.1390  176.2950  138.2910 O   0  0  0  0  0  0  0  0  0  0  0  0
  180.2040  177.3630  140.3990 C   0  0  0  0  0  3  0  0  0  0  0  0
  179.9820  178.5130  142.5590 C   0  0  0  0  0  2  0  0  0  0  0  0
  185.0500  179.0770  141.0690 C   0  0  0  0  0  2  0  0  0  0  0  0
  184.3490  179.2350  142.4360 C   0  0  2  0  0  3  0  0  0  0  0  0
  185.1840  177.4510  139.0060 C   0  0  1  0  0  3  0  0  0  0  0  0
  180.9260  176.9740  139.1330 C   0  0  2  0  0  3  0  0  0  0  0  0
  180.8310  178.3440  143.8200 C   0  0  0  0  0  2  0  0  0  0  0  0
  186.0080  177.6710  136.3110 C   0  0  0  0  0  2  0  0  0  0  0  0
  186.2370  178.4140  138.4540 C   0  0  0  0  0  2  0  0  0  0  0  0
  185.8430  178.6720  145.9050 C   0  0  0  0  0  0  0  0  0  0  0  0
  185.5950  179.0120  147.0900 O   0  0  0  0  0  0  0  0  0  0  0  0
  185.2520  178.7720  143.5410 C   0  0  0  0  0  0  0  0  0  0  0  0
  186.9920  177.8100  145.6180 C   0  0  0  0  0  3  0  0  0  0  0  0
  186.4480  177.9090  143.1900 C   0  0  0  0  0  2  0  0  0  0  0  0
  184.9850  179.1310  144.8050 C   0  0  0  0  0  0  0  0  0  0  0  0
  183.9130  179.9160  145.0840 F   0  0  0  0  0  0  0  0  0  0  0  0
  187.2820  177.4570  144.3630 C   0  0  0  0  0  0  0  0  0  0  0  0
  188.2170  175.7890  142.9710 O   0  0  0  0  0  1  0  0  0  0  0  0
  188.4510  176.5690  144.1050 C   0  0  0  0  0  2  0  0  0  0  0  0
  180.3140  175.7070  138.5460 C   0  0  0  0  0  2  0  0  0  0  0  0
  180.1750  174.7190  139.5240 O   0  0  0  0  0  1  0  0  0  0  0  0
  1  3  1  1  0  0  0
  2  7  1  0  0  0  0
  2  4  1  0  0  0  0
  3 18  1  0  0  0  0
  4 10  1  0  0  0  0
  4  1  1  0  0  0  0
  5  2  1  0  0  0  0
  6 20  1  0  0  0  0
  7 14  1  0  0  0  0
  8  9  1  0  0  0  0
  9 11  1  0  0  0  0
  9 16  1  0  0  0  0
 10 13  1  0  0  0  0
 11  5  1  0  0  0  0
 12 10  2  0  0  0  0
 13 18  1  0  0  0  0
 14 15  1  0  0  0  0
 15  1  1  0  0  0  0
 15 23  1  0  0  0  0
 16  7  1  0  0  0  0
 17  5  1  0  0  0  0
 17 12  1  0  0  0  0
 19  8  1  0  0  0  0
 19  6  1  0  0  0  0
 20 16  1  0  0  0  0
 21 22  2  0  0  0  0
 23 26  2  0  0  0  0
 24 21  1  0  0  0  0
 25 23  1  0  0  0  0
 25 28  1  0  0  0  0
 26 27  1  0  0  0  0
 26 21  1  0  0  0  0
 28 24  2  0  0  0  0
 29 30  1  0  0  0  0
 30 28  1  0  0  0  0
 31 17  1  0  0  0  0
 31 32  1  0  0  0  0
M  END
>  <MODEL>
5

>  <REMARK>
 VINA RESULT:      -7.0      2.480      7.660
  Name = 
  3 active torsions:
  status: ('A' for Active; 'I' for Inactive)
    1  A    between atoms: C_13  and  C_29
    2  A    between atoms: C_15  and  C_26
    3  A    between atoms: C_16  and  C_27
                            x       y       z     vdW  Elec       q    Type
                         _______ _______ _______ _____ _____    ______ ____

>  <TORSDO>
F 3

$$$$
=
 OpenBabel10272413113D

 32 37  0  0  1  0  0  0  0  0999 V2000
  187.3820  178.2150  140.5200 C   0  0  1  0  0  3  0  0  0  0  0  0
  188.3640  177.3620  138.3150 C   0  0  2  0  0  3  0  0  0  0  0  0
  186.3520  179.1620  141.1380 C   0  0  0  0  0  2  0  0  0  0  0  0
  187.3350  178.2980  138.9850 C   0  0  1  0  0  3  0  0  0  0  0  0
  187.7540  176.1430  137.5950 C   0  0  2  0  0  3  0  0  0  0  0  0
  192.7490  175.5870  137.8840 O   0  0  0  0  0  0  0  0  0  0  0  0
  189.4320  176.8370  139.2680 C   0  0  2  0  0  3  0  0  0  0  0  0
  191.0230  174.8770  136.3360 C   0  0  0  0  0  2  0  0  0  0  0  0
  190.0210  175.7670  137.0520 C   0  0  1  0  0  3  0  0  0  0  0  0
  185.9190  178.1500  138.4620 C   0  0  0  0  0  0  0  0  0  0  0  0
  188.6980  175.2670  136.9660 O   0  0  0  0  0  0  0  0  0  0  0  0
  185.6190  177.3960  137.3920 C   0  0  0  0  0  3  0  0  0  0  0  0
  184.8360  178.9340  139.1400 C   0  0  0  0  0  2  0  0  0  0  0  0
  189.9460  177.9360  140.1940 C   0  0  0  0  0  2  0  0  0  0  0  0
  188.8020  178.5080  141.0600 C   0  0  2  0  0  3  0  0  0  0  0  0
  190.4670  175.9840  138.5100 C   0  0  1  0  0  3  0  0  0  0  0  0
  186.6660  176.6170  136.6350 C   0  0  2  0  0  3  0  0  0  0  0  0
  184.9490  178.7880  140.6590 C   0  0  0  0  0  2  0  0  0  0  0  0
  192.4120  175.5020  136.5150 C   0  0  0  0  0  2  0  0  0  0  0  0
  191.8940  176.5380  138.4800 C   0  0  0  0  0  2  0  0  0  0  0  0
  190.3260  177.4000  144.3820 C   0  0  0  0  0  0  0  0  0  0  0  0
  191.4730  177.2030  144.8590 O   0  0  0  0  0  0  0  0  0  0  0  0
  188.9410  178.0410  142.4790 C   0  0  0  0  0  0  0  0  0  0  0  0
  189.1420  177.1960  145.2200 C   0  0  0  0  0  3  0  0  0  0  0  0
  187.6850  177.8120  143.2970 C   0  0  0  0  0  2  0  0  0  0  0  0
  190.1650  177.8360  142.9890 C   0  0  0  0  0  0  0  0  0  0  0  0
  191.2690  178.0390  142.2260 F   0  0  0  0  0  0  0  0  0  0  0  0
  187.9160  177.3780  144.7240 C   0  0  0  0  0  0  0  0  0  0  0  0
  186.8070  178.0250  146.7110 O   0  0  0  0  0  1  0  0  0  0  0  0
  186.7320  177.1750  145.6050 C   0  0  0  0  0  2  0  0  0  0  0  0
  186.0190  175.4580  135.8830 C   0  0  0  0  0  2  0  0  0  0  0  0
  185.3900  174.5780  136.7670 O   0  0  0  0  0  1  0  0  0  0  0  0
  1 15  1  0  0  0  0
  1  3  1  1  0  0  0
  2  4  1  0  0  0  0
  2  7  1  0  0  0  0
  4  1  1  0  0  0  0
  5  2  1  0  0  0  0
  6 20  1  0  0  0  0
  7 14  1  0  0  0  0
  8 19  1  0  0  0  0
  8  9  1  0  0  0  0
  9 16  1  0  0  0  0
 10  4  1  0  0  0  0
 10 13  1  0  0  0  0
 11  9  1  0  0  0  0
 11  5  1  0  0  0  0
 12 10  2  0  0  0  0
 13 18  1  0  0  0  0
 14 15  1  0  0  0  0
 15 23  1  0  0  0  0
 16  7  1  0  0  0  0
 17 12  1  0  0  0  0
 17  5  1  0  0  0  0
 18  3  1  0  0  0  0
 19  6  1  0  0  0  0
 20 16  1  0  0  0  0
 21 22  2  0  0  0  0
 21 24  1  0  0  0  0
 23 26  2  0  0  0  0
 23 25  1  0  0  0  0
 25 28  1  0  0  0  0
 26 21  1  0  0  0  0
 27 26  1  0  0  0  0
 28 24  2  0  0  0  0
 28 30  1  0  0  0  0
 30 29  1  0  0  0  0
 31 17  1  0  0  0  0
 31 32  1  0  0  0  0
M  END
>  <MODEL>
6

>  <REMARK>
 VINA RESULT:      -6.9      3.204      7.771
  Name = 
  3 active torsions:
  status: ('A' for Active; 'I' for Inactive)
    1  A    between atoms: C_13  and  C_29
    2  A    between atoms: C_15  and  C_26
    3  A    between atoms: C_16  and  C_27
                            x       y       z     vdW  Elec       q    Type
                         _______ _______ _______ _____ _____    ______ ____

>  <TORSDO>
F 3

$$$$
=
 OpenBabel10272413113D

 32 37  0  0  1  0  0  0  0  0999 V2000
  188.9110  177.2110  143.4540 C   0  0  1  0  0  3  0  0  0  0  0  0
  187.4230  177.5710  141.4020 C   0  0  2  0  0  3  0  0  0  0  0  0
  190.1590  176.4950  143.9730 C   0  0  0  0  0  2  0  0  0  0  0  0
  188.6770  176.8750  141.9710 C   0  0  1  0  0  3  0  0  0  0  0  0
  187.7130  178.7080  140.4020 C   0  0  2  0  0  3  0  0  0  0  0  0
  182.8350  178.7810  141.6440 O   0  0  0  0  0  0  0  0  0  0  0  0
  186.4930  178.1360  142.4710 C   0  0  2  0  0  3  0  0  0  0  0  0
  184.1240  179.3960  139.6830 C   0  0  0  0  0  2  0  0  0  0  0  0
  185.3550  178.7480  140.2960 C   0  0  1  0  0  3  0  0  0  0  0  0
  189.9360  177.0790  141.1480 C   0  0  0  0  0  0  0  0  0  0  0  0
  186.5560  179.3620  139.8640 O   0  0  0  0  0  0  0  0  0  0  0  0
  189.9210  177.6690  139.9410 C   0  0  0  0  0  3  0  0  0  0  0  0
  191.2240  176.5380  141.6910 C   0  0  0  0  0  2  0  0  0  0  0  0
  186.3180  177.1610  143.6330 C   0  0  0  0  0  2  0  0  0  0  0  0
  187.6730  176.8660  144.3150 C   0  0  2  0  0  3  0  0  0  0  0  0
  185.2270  178.7350  141.8310 C   0  0  1  0  0  3  0  0  0  0  0  0
  188.6540  178.1950  139.3150 C   0  0  2  0  0  3  0  0  0  0  0  0
  191.3810  176.9260  143.1630 C   0  0  0  0  0  2  0  0  0  0  0  0
  182.8920  178.6680  140.2380 C   0  0  0  0  0  2  0  0  0  0  0  0
  183.9090  178.0380  142.1790 C   0  0  0  0  0  2  0  0  0  0  0  0
  186.7180  178.8920  147.4080 C   0  0  0  0  0  0  0  0  0  0  0  0
  185.7220  179.5360  147.8270 O   0  0  0  0  0  0  0  0  0  0  0  0
  187.7430  177.5490  145.6490 C   0  0  0  0  0  0  0  0  0  0  0  0
  187.9230  178.7930  148.2350 C   0  0  0  0  0  3  0  0  0  0  0  0
  189.0240  177.4470  146.4540 C   0  0  0  0  0  2  0  0  0  0  0  0
  186.6790  178.2330  146.0960 C   0  0  0  0  0  0  0  0  0  0  0  0
  185.5510  178.3160  145.3450 F   0  0  0  0  0  0  0  0  0  0  0  0
  188.9970  178.1310  147.7980 C   0  0  0  0  0  0  0  0  0  0  0  0
  191.2090  177.3220  148.0160 O   0  0  0  0  0  1  0  0  0  0  0  0
  190.2030  178.0380  148.6670 C   0  0  0  0  0  2  0  0  0  0  0  0
  188.9830  179.2710  138.2850 C   0  0  0  0  0  2  0  0  0  0  0  0
  188.1670  179.1500  137.1580 O   0  0  0  0  0  1  0  0  0  0  0  0
  1  3  1  1  0  0  0
  1 15  1  0  0  0  0
  2  4  1  0  0  0  0
  2  7  1  0  0  0  0
  4  1  1  0  0  0  0
  5  2  1  0  0  0  0
  6 20  1  0  0  0  0
  7 14  1  0  0  0  0
  8 19  1  0  0  0  0
  8  9  1  0  0  0  0
  9 16  1  0  0  0  0
 10 13  1  0  0  0  0
 10  4  1  0  0  0  0
 11  9  1  0  0  0  0
 11  5  1  0  0  0  0
 12 10  2  0  0  0  0
 13 18  1  0  0  0  0
 14 15  1  0  0  0  0
 15 23  1  0  0  0  0
 16 20  1  0  0  0  0
 16  7  1  0  0  0  0
 17 12  1  0  0  0  0
 17  5  1  0  0  0  0
 18  3  1  0  0  0  0
 19  6  1  0  0  0  0
 21 22  2  0  0  0  0
 21 24  1  0  0  0  0
 23 26  2  0  0  0  0
 23 25  1  0  0  0  0
 25 28  1  0  0  0  0
 26 21  1  0  0  0  0
 27 26  1  0  0  0  0
 28 24  2  0  0  0  0
 28 30  1  0  0  0  0
 29 30  1  0  0  0  0
 31 17  1  0  0  0  0
 32 31  1  0  0  0  0
M  END
>  <MODEL>
7

>  <REMARK>
 VINA RESULT:      -6.7      2.757      6.996
  Name = 
  3 active torsions:
  status: ('A' for Active; 'I' for Inactive)
    1  A    between atoms: C_13  and  C_29
    2  A    between atoms: C_15  and  C_26
    3  A    between atoms: C_16  and  C_27
                            x       y       z     vdW  Elec       q    Type
                         _______ _______ _______ _____ _____    ______ ____

>  <TORSDO>
F 3

$$$$
=
 OpenBabel10272413113D

 32 37  0  0  1  0  0  0  0  0999 V2000
  190.2180  177.3420  141.5030 C   0  0  1  0  0  3  0  0  0  0  0  0
  187.9150  178.3250  142.0340 C   0  0  2  0  0  3  0  0  0  0  0  0
  191.6790  177.2880  141.9510 C   0  0  0  0  0  2  0  0  0  0  0  0
  189.3980  178.2340  142.4510 C   0  0  1  0  0  3  0  0  0  0  0  0
  186.9350  177.5890  142.9700 C   0  0  2  0  0  3  0  0  0  0  0  0
  184.5120  178.9950  138.7880 O   0  0  0  0  0  0  0  0  0  0  0  0
  187.6410  177.8350  140.6170 C   0  0  2  0  0  3  0  0  0  0  0  0
  183.8900  178.6480  141.1060 C   0  0  0  0  0  2  0  0  0  0  0  0
  185.3570  178.5090  141.4740 C   0  0  1  0  0  3  0  0  0  0  0  0
  189.6200  177.8550  143.9030 C   0  0  0  0  0  0  0  0  0  0  0  0
  185.5530  177.6680  142.5960 O   0  0  0  0  0  0  0  0  0  0  0  0
  188.6140  177.7760  144.7910 C   0  0  0  0  0  3  0  0  0  0  0  0
  191.0290  177.6270  144.3610 C   0  0  0  0  0  2  0  0  0  0  0  0
  188.7010  178.3320  139.6380 C   0  0  0  0  0  2  0  0  0  0  0  0
  190.1040  177.8200  140.0360 C   0  0  2  0  0  3  0  0  0  0  0  0
  186.1600  178.0380  140.2460 C   0  0  1  0  0  3  0  0  0  0  0  0
  187.1790  178.0370  144.4090 C   0  0  2  0  0  3  0  0  0  0  0  0
  191.7670  176.7250  143.3700 C   0  0  0  0  0  2  0  0  0  0  0  0
  183.8040  179.5570  139.8730 C   0  0  0  0  0  2  0  0  0  0  0  0
  185.8860  179.0250  139.1090 C   0  0  0  0  0  2  0  0  0  0  0  0
  192.3280  175.5420  137.9260 C   0  0  0  0  0  0  0  0  0  0  0  0
  193.5540  175.4050  137.6850 O   0  0  0  0  0  0  0  0  0  0  0  0
  190.5540  176.7480  139.0880 C   0  0  0  0  0  0  0  0  0  0  0  0
  191.3560  174.6410  137.3030 C   0  0  0  0  0  3  0  0  0  0  0  0
  189.5080  175.8610  138.4410 C   0  0  0  0  0  2  0  0  0  0  0  0
  191.8620  176.5990  138.8340 C   0  0  0  0  0  0  0  0  0  0  0  0
  192.7730  177.4180  139.4200 F   0  0  0  0  0  0  0  0  0  0  0  0
  190.0480  174.7860  137.5310 C   0  0  0  0  0  0  0  0  0  0  0  0
  187.7930  174.3710  136.9480 O   0  0  0  0  0  1  0  0  0  0  0  0
  189.0860  173.8450  136.8920 C   0  0  0  0  0  2  0  0  0  0  0  0
  186.2390  177.3480  145.3920 C   0  0  0  0  0  2  0  0  0  0  0  0
  185.5340  178.2850  146.1520 O   0  0  0  0  0  1  0  0  0  0  0  0
  1  3  1  1  0  0  0
  1  4  1  0  0  0  0
  2  4  1  0  0  0  0
  2  5  1  0  0  0  0
  3 18  1  0  0  0  0
  4 10  1  0  0  0  0
  5 17  1  0  0  0  0
  6 20  1  0  0  0  0
  6 19  1  0  0  0  0
  7  2  1  0  0  0  0
  8  9  1  0  0  0  0
  9 11  1  0  0  0  0
 10 13  1  0  0  0  0
 10 12  2  0  0  0  0
 11  5  1  0  0  0  0
 14 15  1  0  0  0  0
 14  7  1  0  0  0  0
 15  1  1  0  0  0  0
 16  7  1  0  0  0  0
 16  9  1  0  0  0  0
 17 12  1  0  0  0  0
 17 31  1  0  0  0  0
 18 13  1  0  0  0  0
 19  8  1  0  0  0  0
 20 16  1  0  0  0  0
 21 26  1  0  0  0  0
 22 21  2  0  0  0  0
 23 15  1  0  0  0  0
 24 28  2  0  0  0  0
 24 21  1  0  0  0  0
 25 23  1  0  0  0  0
 26 23  2  0  0  0  0
 26 27  1  0  0  0  0
 28 25  1  0  0  0  0
 30 29  1  0  0  0  0
 30 28  1  0  0  0  0
 31 32  1  0  0  0  0
M  END
>  <MODEL>
8

>  <REMARK>
 VINA RESULT:      -6.7      3.257      6.698
  Name = 
  3 active torsions:
  status: ('A' for Active; 'I' for Inactive)
    1  A    between atoms: C_13  and  C_29
    2  A    between atoms: C_15  and  C_26
    3  A    between atoms: C_16  and  C_27
                            x       y       z     vdW  Elec       q    Type
                         _______ _______ _______ _____ _____    ______ ____

>  <TORSDO>
F 3

$$$$
=
 OpenBabel10272413113D

 32 37  0  0  1  0  0  0  0  0999 V2000
  186.1970  178.2630  140.3500 C   0  0  1  0  0  3  0  0  0  0  0  0
  187.9070  177.6240  138.5550 C   0  0  2  0  0  3  0  0  0  0  0  0
  184.8770  178.9920  140.6050 C   0  0  0  0  0  2  0  0  0  0  0  0
  186.5750  178.3410  138.8610 C   0  0  1  0  0  3  0  0  0  0  0  0
  187.7640  176.3130  137.7560 C   0  0  2  0  0  3  0  0  0  0  0  0
  192.4830  176.7260  139.4610 O   0  0  0  0  0  0  0  0  0  0  0  0
  188.7370  177.3090  139.7940 C   0  0  2  0  0  3  0  0  0  0  0  0
  191.4320  175.7030  137.5300 C   0  0  0  0  0  2  0  0  0  0  0  0
  190.1210  176.3810  137.8900 C   0  0  1  0  0  3  0  0  0  0  0  0
  185.4190  177.9260  137.9700 C   0  0  0  0  0  0  0  0  0  0  0  0
  188.9940  175.6370  137.4620 O   0  0  0  0  0  0  0  0  0  0  0  0
  185.5820  177.1320  136.8990 C   0  0  0  0  0  3  0  0  0  0  0  0
  184.0620  178.4850  138.2760 C   0  0  0  0  0  2  0  0  0  0  0  0
  188.7530  178.4840  140.7690 C   0  0  0  0  0  2  0  0  0  0  0  0
  187.3240  178.8220  141.2500 C   0  0  2  0  0  3  0  0  0  0  0  0
  190.0840  176.6750  139.4020 C   0  0  1  0  0  3  0  0  0  0  0  0
  186.9260  176.5720  136.5060 C   0  0  2  0  0  3  0  0  0  0  0  0
  183.7630  178.3580  139.7710 C   0  0  0  0  0  2  0  0  0  0  0  0
  192.5710  176.5830  138.0590 C   0  0  0  0  0  2  0  0  0  0  0  0
  191.3320  177.4930  139.7440 C   0  0  0  0  0  2  0  0  0  0  0  0
  187.9890  177.3470  144.7100 C   0  0  0  0  0  0  0  0  0  0  0  0
  188.9290  176.7620  145.3060 O   0  0  0  0  0  0  0  0  0  0  0  0
  187.1380  178.3860  142.6730 C   0  0  0  0  0  0  0  0  0  0  0  0
  186.7340  177.6190  145.4150 C   0  0  0  0  0  3  0  0  0  0  0  0
  185.8090  178.6590  143.3510 C   0  0  0  0  0  2  0  0  0  0  0  0
  188.1420  177.7650  143.3100 C   0  0  0  0  0  0  0  0  0  0  0  0
  189.3150  177.5240  142.6700 F   0  0  0  0  0  0  0  0  0  0  0  0
  185.7180  178.2200  144.7910 C   0  0  0  0  0  0  0  0  0  0  0  0
  184.7270  178.5900  146.9080 O   0  0  0  0  0  1  0  0  0  0  0  0
  184.4590  178.4930  145.5400 C   0  0  0  0  0  2  0  0  0  0  0  0
  186.7470  175.3140  135.6640 C   0  0  0  0  0  2  0  0  0  0  0  0
  187.5660  175.3470  134.5330 O   0  0  0  0  0  1  0  0  0  0  0  0
  1  3  1  6  0  0  0
  1 15  1  0  0  0  0
  2  4  1  0  0  0  0
  2  7  1  0  0  0  0
  4  1  1  0  0  0  0
  5  2  1  0  0  0  0
  6 20  1  0  0  0  0
  7 14  1  0  0  0  0
  8  9  1  0  0  0  0
  8 19  1  0  0  0  0
  9 16  1  0  0  0  0
 10 13  1  0  0  0  0
 10  4  1  0  0  0  0
 11  5  1  0  0  0  0
 11  9  1  0  0  0  0
 12 10  2  0  0  0  0
 13 18  1  0  0  0  0
 14 15  1  0  0  0  0
 15 23  1  0  0  0  0
 16 20  1  0  0  0  0
 16  7  1  0  0  0  0
 17 12  1  0  0  0  0
 17  5  1  0  0  0  0
 18  3  1  0  0  0  0
 19  6  1  0  0  0  0
 21 22  2  0  0  0  0
 21 24  1  0  0  0  0
 23 26  2  0  0  0  0
 23 25  1  0  0  0  0
 25 28  1  0  0  0  0
 26 21  1  0  0  0  0
 27 26  1  0  0  0  0
 28 24  2  0  0  0  0
 28 30  1  0  0  0  0
 30 29  1  0  0  0  0
 31 17  1  0  0  0  0
 32 31  1  0  0  0  0
M  END
>  <MODEL>
9

>  <REMARK>
 VINA RESULT:      -6.6      2.980      6.974
  Name = 
  3 active torsions:
  status: ('A' for Active; 'I' for Inactive)
    1  A    between atoms: C_13  and  C_29
    2  A    between atoms: C_15  and  C_26
    3  A    between atoms: C_16  and  C_27
                            x       y       z     vdW  Elec       q    Type
                         _______ _______ _______ _____ _____    ______ ____

>  <TORSDO>
F 3

$$$$
