=
 OpenBabel10272415053D

 37 39  0  0  1  0  0  0  0  0999 V2000
  190.7710  177.8300  142.0990 O   0  0  0  0  0  0  0  0  0  0  0  0
  188.8780  179.0840  141.8700 O   0  0  0  0  0  1  0  0  0  0  0  0
  190.5520  177.8830  144.7550 C   0  0  1  0  0  3  0  0  0  0  0  0
  189.3610  177.7750  141.9460 C   0  0  2  0  0  0  0  0  0  0  0  0
  191.1620  176.6910  142.6490 O   0  0  0  0  0  0  0  0  0  0  0  0
  191.5410  176.9800  143.9780 C   0  0  2  0  0  3  0  0  0  0  0  0
  188.6760  177.0690  143.1370 C   0  0  0  0  0  2  0  0  0  0  0  0
  190.9250  179.3470  144.6040 C   0  0  0  0  0  1  0  0  0  0  0  0
  189.0460  177.6790  144.4910 C   0  0  1  0  0  3  0  0  0  0  0  0
  191.7320  175.7850  144.6730 O   0  0  0  0  0  0  0  0  0  0  0  0
  191.9360  176.1670  145.9990 C   0  0  0  0  0  1  0  0  0  0  0  0
  190.1590  176.3860  140.1400 O   0  0  0  0  0  1  0  0  0  0  0  0
  189.0230  177.0380  140.6420 C   0  0  2  0  0  3  0  0  0  0  0  0
  187.6380  179.3220  136.9380 O   0  0  0  0  0  1  0  0  0  0  0  0
  188.2710  177.3150  138.2280 C   0  0  2  0  0  3  0  0  0  0  0  0
  188.6010  178.3400  137.1740 C   0  0  0  0  0  0  0  0  0  0  0  0
  189.3660  177.9020  136.0930 O   0  0  0  0  0  1  0  0  0  0  0  0
  188.3530  177.9600  139.6000 C   0  0  2  0  0  3  0  0  0  0  0  0
  189.3070  178.4050  138.5030 C   0  0  1  0  0  3  0  0  0  0  0  0
  188.3990  176.8830  145.6140 C   0  0  0  0  0  2  0  0  0  0  0  0
  187.8840  177.8060  146.6720 C   0  0  0  0  0  0  0  0  0  0  0  0
  188.6530  178.2720  147.4990 O   0  0  0  0  0  0  0  0  0  0  0  0
  186.2940  179.5540  146.9390 O   0  0  0  0  0  1  0  0  0  0  0  0
  186.4340  178.1870  146.6850 C   0  0  1  0  0  3  0  0  0  0  0  0
  185.7960  177.8270  145.3520 C   0  0  0  0  0  2  0  0  0  0  0  0
  184.6770  178.7630  145.0130 C   0  0  0  0  0  0  0  0  0  0  0  0
  183.8340  179.0420  145.8510 O   0  0  0  0  0  0  0  0  0  0  0  0
  184.5830  179.3320  143.6330 C   0  0  0  0  0  2  0  0  0  0  0  0
  185.1630  178.3640  142.6120 C   0  0  0  0  0  2  0  0  0  0  0  0
  185.2140  179.0190  141.2410 C   0  0  0  0  0  2  0  0  0  0  0  0
  183.2040  177.6150  140.7280 C   0  0  0  0  0  1  0  0  0  0  0  0
  183.8530  178.9800  140.5600 C   0  0  2  0  0  3  0  0  0  0  0  0
  184.7260  178.0920  138.1100 Cl  0  0  0  0  0  0  0  0  0  0  0  0
  183.9270  179.3630  139.0760 C   0  0  1  0  0  3  0  0  0  0  0  0
  181.6930  178.6990  137.3700 S   0  0  0  0  0  1  0  0  0  0  0  0
  182.1380  180.8710  138.7630 O   0  0  0  0  0  0  0  0  0  0  0  0
  182.6080  179.7800  138.4760 C   0  0  0  0  0  0  0  0  0  0  0  0
  1  5  1  0  0  0  0
  3  8  1  6  0  0  0
  4  2  1  6  0  0  0
  4  1  1  0  0  0  0
  4  7  1  0  0  0  0
  5  6  1  0  0  0  0
  6 10  1  1  0  0  0
  6  3  1  0  0  0  0
  7  9  1  0  0  0  0
  9  3  1  0  0  0  0
  9 20  1  1  0  0  0
 10 11  1  0  0  0  0
 13 12  1  6  0  0  0
 13  4  1  0  0  0  0
 14 16  1  0  0  0  0
 15 16  1  6  0  0  0
 15 19  1  0  0  0  0
 15 18  1  0  0  0  0
 17 16  1  0  0  0  0
 18 13  1  1  0  0  0
 19 16  1  6  0  0  0
 19 18  1  0  0  0  0
 20 21  1  0  0  0  0
 21 24  1  0  0  0  0
 21 22  2  0  0  0  0
 24 23  1  6  0  0  0
 25 24  1  0  0  0  0
 26 25  1  0  0  0  0
 26 27  2  0  0  0  0
 28 26  1  0  0  0  0
 29 28  1  0  0  0  0
 30 29  1  0  0  0  0
 32 31  1  6  0  0  0
 32 30  1  0  0  0  0
 34 33  1  6  0  0  0
 34 32  1  0  0  0  0
 35 37  1  0  0  0  0
 37 36  2  0  0  0  0
 37 34  1  0  0  0  0
M  END
>  <MODEL>
1

>  <REMARK>
 VINA RESULT:      -7.7      0.000      0.000
  Name = 
  14 active torsions:
  status: ('A' for Active; 'I' for Inactive)
    1  A    between atoms: C_1  and  C_5
    2  A    between atoms: C_1  and  C_36
    3  A    between atoms: O_4  and  C_28
    4  A    between atoms: C_5  and  C_17
    5  A    between atoms: C_7  and  C_27
    6  A    between atoms: C_7  and  C_33
    7  A    between atoms: C_11  and  C_26
    8  A    between atoms: C_11  and  C_33
    9  A    between atoms: C_17  and  C_26
   10  A    between atoms: C_18  and  C_19
   11  A    between atoms: C_18  and  C_35
   12  A    between atoms: C_20  and  C_24
   13  A    between atoms: C_24  and  C_30
   14  A    between atoms: C_27  and  C_35
                            x       y       z     vdW  Elec       q    Type
                         _______ _______ _______ _____ _____    ______ ____

>  <TORSDO>
F 14

$$$$
=
 OpenBabel10272415053D

 37 39  0  0  1  0  0  0  0  0999 V2000
  182.4220  177.0670  137.3770 O   0  0  0  0  0  0  0  0  0  0  0  0
  183.6610  175.4880  138.4640 O   0  0  0  0  0  1  0  0  0  0  0  0
  181.2140  177.7630  139.6480 C   0  0  1  0  0  3  0  0  0  0  0  0
  183.6440  176.8250  138.0570 C   0  0  2  0  0  0  0  0  0  0  0  0
  182.1830  178.3680  137.4290 O   0  0  0  0  0  0  0  0  0  0  0  0
  181.1060  178.5560  138.3230 C   0  0  2  0  0  3  0  0  0  0  0  0
  183.7990  177.7190  139.3070 C   0  0  0  0  0  2  0  0  0  0  0  0
  180.5370  176.4100  139.5250 C   0  0  0  0  0  1  0  0  0  0  0  0
  182.6160  177.6110  140.2720 C   0  0  1  0  0  3  0  0  0  0  0  0
  180.9690  179.9170  138.5990 O   0  0  0  0  0  0  0  0  0  0  0  0
  181.1170  180.5530  137.3650 C   0  0  0  0  0  1  0  0  0  0  0  0
  185.2670  175.8590  136.5540 O   0  0  0  0  0  1  0  0  0  0  0  0
  184.8150  177.0720  137.0940 C   0  0  2  0  0  3  0  0  0  0  0  0
  188.7020  179.1480  138.2930 O   0  0  0  0  0  1  0  0  0  0  0  0
  186.9520  178.4010  136.7210 C   0  0  2  0  0  3  0  0  0  0  0  0
  188.3450  178.2590  137.2790 C   0  0  0  0  0  0  0  0  0  0  0  0
  189.3370  177.8520  136.3870 O   0  0  0  0  0  1  0  0  0  0  0  0
  185.9480  177.8970  137.7430 C   0  0  2  0  0  3  0  0  0  0  0  0
  187.3070  177.2260  137.6330 C   0  0  1  0  0  3  0  0  0  0  0  0
  182.8030  178.5770  141.4330 C   0  0  0  0  0  2  0  0  0  0  0  0
  184.2580  178.8630  141.6380 C   0  0  0  0  0  0  0  0  0  0  0  0
  184.8640  179.5410  140.8220 O   0  0  0  0  0  0  0  0  0  0  0  0
  186.1900  177.7990  142.5260 O   0  0  0  0  0  1  0  0  0  0  0  0
  184.9510  178.3510  142.8640 C   0  0  1  0  0  3  0  0  0  0  0  0
  185.1310  179.4830  143.8640 C   0  0  0  0  0  2  0  0  0  0  0  0
  184.7310  179.0610  145.2440 C   0  0  0  0  0  0  0  0  0  0  0  0
  183.5570  178.8600  145.5100 O   0  0  0  0  0  0  0  0  0  0  0  0
  185.7780  178.9140  146.3020 C   0  0  0  0  0  2  0  0  0  0  0  0
  186.5320  177.6020  146.1350 C   0  0  0  0  0  2  0  0  0  0  0  0
  187.8660  177.8490  145.4500 C   0  0  0  0  0  2  0  0  0  0  0  0
  188.9590  177.4700  147.6720 C   0  0  0  0  0  1  0  0  0  0  0  0
  189.0000  177.1500  146.1850 C   0  0  2  0  0  3  0  0  0  0  0  0
  191.6400  176.3850  146.2140 Cl  0  0  0  0  0  0  0  0  0  0  0  0
  190.3780  177.4880  145.5990 C   0  0  1  0  0  3  0  0  0  0  0  0
  190.2180  176.1390  143.0500 S   0  0  0  0  0  1  0  0  0  0  0  0
  190.5350  178.6860  143.5710 O   0  0  0  0  0  0  0  0  0  0  0  0
  190.4040  177.5890  144.0950 C   0  0  0  0  0  0  0  0  0  0  0  0
  1  5  1  0  0  0  0
  1  4  1  0  0  0  0
  3  8  1  6  0  0  0
  3  9  1  0  0  0  0
  4  2  1  1  0  0  0
  4  7  1  0  0  0  0
  5  6  1  0  0  0  0
  6 10  1  1  0  0  0
  6  3  1  0  0  0  0
  7  9  1  0  0  0  0
  9 20  1  1  0  0  0
 11 10  1  0  0  0  0
 13 12  1  1  0  0  0
 13  4  1  0  0  0  0
 15 16  1  1  0  0  0
 15 19  1  0  0  0  0
 15 18  1  0  0  0  0
 16 14  1  0  0  0  0
 17 16  1  0  0  0  0
 18 13  1  6  0  0  0
 19 16  1  1  0  0  0
 19 18  1  0  0  0  0
 20 21  1  0  0  0  0
 21 24  1  0  0  0  0
 22 21  2  0  0  0  0
 24 23  1  6  0  0  0
 24 25  1  0  0  0  0
 25 26  1  0  0  0  0
 26 27  2  0  0  0  0
 26 28  1  0  0  0  0
 29 28  1  0  0  0  0
 30 29  1  0  0  0  0
 30 32  1  0  0  0  0
 32 31  1  1  0  0  0
 34 32  1  0  0  0  0
 34 33  1  6  0  0  0
 35 37  1  0  0  0  0
 36 37  2  0  0  0  0
 37 34  1  0  0  0  0
M  END
>  <MODEL>
2

>  <REMARK>
 VINA RESULT:      -7.1      3.277      7.664
  Name = 
  14 active torsions:
  status: ('A' for Active; 'I' for Inactive)
    1  A    between atoms: C_1  and  C_5
    2  A    between atoms: C_1  and  C_36
    3  A    between atoms: O_4  and  C_28
    4  A    between atoms: C_5  and  C_17
    5  A    between atoms: C_7  and  C_27
    6  A    between atoms: C_7  and  C_33
    7  A    between atoms: C_11  and  C_26
    8  A    between atoms: C_11  and  C_33
    9  A    between atoms: C_17  and  C_26
   10  A    between atoms: C_18  and  C_19
   11  A    between atoms: C_18  and  C_35
   12  A    between atoms: C_20  and  C_24
   13  A    between atoms: C_24  and  C_30
   14  A    between atoms: C_27  and  C_35
                            x       y       z     vdW  Elec       q    Type
                         _______ _______ _______ _____ _____    ______ ____

>  <TORSDO>
F 14

$$$$
=
 OpenBabel10272415053D

 37 39  0  0  1  0  0  0  0  0999 V2000
  191.0170  177.6770  141.7450 O   0  0  0  0  0  0  0  0  0  0  0  0
  189.1860  178.9450  141.2470 O   0  0  0  0  0  1  0  0  0  0  0  0
  190.5980  177.9990  144.3580 C   0  0  1  0  0  3  0  0  0  0  0  0
  189.6210  177.6390  141.4880 C   0  0  2  0  0  0  0  0  0  0  0  0
  191.3290  176.5880  142.4330 O   0  0  0  0  0  0  0  0  0  0  0  0
  191.6150  177.0000  143.7530 C   0  0  2  0  0  3  0  0  0  0  0  0
  188.8270  177.0710  142.6850 C   0  0  0  0  0  2  0  0  0  0  0  0
  191.0270  179.4320  144.0950 C   0  0  0  0  0  1  0  0  0  0  0  0
  189.1120  177.8050  143.9970 C   0  0  1  0  0  3  0  0  0  0  0  0
  191.7150  175.8760  144.5740 O   0  0  0  0  0  0  0  0  0  0  0  0
  191.8410  176.3830  145.8670 C   0  0  0  0  0  1  0  0  0  0  0  0
  190.5630  176.2480  139.7540 O   0  0  0  0  0  1  0  0  0  0  0  0
  189.3610  176.7840  140.2390 C   0  0  2  0  0  3  0  0  0  0  0  0
  187.6030  178.5810  136.4270 O   0  0  0  0  0  1  0  0  0  0  0  0
  188.4580  176.7630  137.8610 C   0  0  2  0  0  3  0  0  0  0  0  0
  188.6500  177.7000  136.6960 C   0  0  0  0  0  0  0  0  0  0  0  0
  189.3870  177.2120  135.6160 O   0  0  0  0  0  1  0  0  0  0  0  0
  188.5660  177.5460  139.1580 C   0  0  2  0  0  3  0  0  0  0  0  0
  189.4200  177.9470  137.9670 C   0  0  1  0  0  3  0  0  0  0  0  0
  188.3570  177.1390  145.1390 C   0  0  0  0  0  2  0  0  0  0  0  0
  186.8810  177.2400  144.9110 C   0  0  0  0  0  0  0  0  0  0  0  0
  186.3550  176.5710  144.0350 O   0  0  0  0  0  0  0  0  0  0  0  0
  186.8430  178.6880  146.7960 O   0  0  0  0  0  1  0  0  0  0  0  0
  186.0530  178.1310  145.7870 C   0  0  1  0  0  3  0  0  0  0  0  0
  185.4150  179.2270  144.9480 C   0  0  0  0  0  2  0  0  0  0  0  0
  183.9280  179.0630  144.8760 C   0  0  0  0  0  0  0  0  0  0  0  0
  183.2560  179.0900  145.8950 O   0  0  0  0  0  0  0  0  0  0  0  0
  183.2740  178.8380  143.5500 C   0  0  0  0  0  2  0  0  0  0  0  0
  184.2990  178.8990  142.4270 C   0  0  0  0  0  2  0  0  0  0  0  0
  183.8520  178.0290  141.2630 C   0  0  0  0  0  2  0  0  0  0  0  0
  181.4610  177.7560  140.5660 C   0  0  0  0  0  1  0  0  0  0  0  0
  182.6820  178.6610  140.5210 C   0  0  2  0  0  3  0  0  0  0  0  0
  182.7810  180.7620  138.7520 Cl  0  0  0  0  0  0  0  0  0  0  0  0
  183.0320  179.0230  139.0720 C   0  0  1  0  0  3  0  0  0  0  0  0
  184.6230  177.0450  137.6930 S   0  0  0  0  0  1  0  0  0  0  0  0
  185.3750  179.2470  138.8940 O   0  0  0  0  0  0  0  0  0  0  0  0
  184.3980  178.5630  138.6290 C   0  0  0  0  0  0  0  0  0  0  0  0
  1  5  1  0  0  0  0
  3  8  1  6  0  0  0
  4  2  1  6  0  0  0
  4  1  1  0  0  0  0
  4  7  1  0  0  0  0
  5  6  1  0  0  0  0
  6  3  1  0  0  0  0
  6 10  1  1  0  0  0
  7  9  1  0  0  0  0
  9  3  1  0  0  0  0
  9 20  1  1  0  0  0
 10 11  1  0  0  0  0
 13 12  1  6  0  0  0
 13  4  1  0  0  0  0
 14 16  1  0  0  0  0
 15 16  1  6  0  0  0
 15 19  1  0  0  0  0
 15 18  1  0  0  0  0
 17 16  1  0  0  0  0
 18 13  1  1  0  0  0
 19 16  1  6  0  0  0
 19 18  1  0  0  0  0
 21 20  1  0  0  0  0
 21 24  1  0  0  0  0
 22 21  2  0  0  0  0
 24 23  1  1  0  0  0
 25 24  1  0  0  0  0
 26 25  1  0  0  0  0
 26 27  2  0  0  0  0
 28 26  1  0  0  0  0
 29 28  1  0  0  0  0
 30 29  1  0  0  0  0
 32 31  1  6  0  0  0
 32 30  1  0  0  0  0
 34 33  1  1  0  0  0
 34 32  1  0  0  0  0
 35 37  1  0  0  0  0
 37 36  2  0  0  0  0
 37 34  1  0  0  0  0
M  END
>  <MODEL>
3

>  <REMARK>
 VINA RESULT:      -7.1      1.370      1.547
  Name = 
  14 active torsions:
  status: ('A' for Active; 'I' for Inactive)
    1  A    between atoms: C_1  and  C_5
    2  A    between atoms: C_1  and  C_36
    3  A    between atoms: O_4  and  C_28
    4  A    between atoms: C_5  and  C_17
    5  A    between atoms: C_7  and  C_27
    6  A    between atoms: C_7  and  C_33
    7  A    between atoms: C_11  and  C_26
    8  A    between atoms: C_11  and  C_33
    9  A    between atoms: C_17  and  C_26
   10  A    between atoms: C_18  and  C_19
   11  A    between atoms: C_18  and  C_35
   12  A    between atoms: C_20  and  C_24
   13  A    between atoms: C_24  and  C_30
   14  A    between atoms: C_27  and  C_35
                            x       y       z     vdW  Elec       q    Type
                         _______ _______ _______ _____ _____    ______ ____

>  <TORSDO>
F 14

$$$$
=
 OpenBabel10272415053D

 37 39  0  0  1  0  0  0  0  0999 V2000
  189.2930  176.8350  144.5900 O   0  0  0  0  0  0  0  0  0  0  0  0
  188.3260  175.3110  143.1920 O   0  0  0  0  0  1  0  0  0  0  0  0
  191.6040  176.6580  143.2740 C   0  0  1  0  0  3  0  0  0  0  0  0
  188.5540  176.6760  143.3880 C   0  0  2  0  0  0  0  0  0  0  0  0
  189.9150  178.0020  144.5280 O   0  0  0  0  0  0  0  0  0  0  0  0
  191.2890  177.7300  144.3470 C   0  0  2  0  0  3  0  0  0  0  0  0
  189.3150  177.2260  142.1620 C   0  0  0  0  0  2  0  0  0  0  0  0
  191.6780  175.2760  143.8980 C   0  0  0  0  0  1  0  0  0  0  0  0
  190.7190  176.6350  142.0120 C   0  0  1  0  0  3  0  0  0  0  0  0
  191.9560  178.9160  144.0360 O   0  0  0  0  0  0  0  0  0  0  0  0
  190.9590  179.8920  144.0000 C   0  0  0  0  0  1  0  0  0  0  0  0
  186.9950  178.2560  142.4380 O   0  0  0  0  0  1  0  0  0  0  0  0
  187.2040  177.3950  143.5260 C   0  0  2  0  0  3  0  0  0  0  0  0
  185.8020  179.3980  147.3840 O   0  0  0  0  0  1  0  0  0  0  0  0
  185.8110  177.6510  145.6390 C   0  0  2  0  0  3  0  0  0  0  0  0
  185.1510  178.8450  146.2800 C   0  0  0  0  0  0  0  0  0  0  0  0
  183.7570  178.8740  146.2620 O   0  0  0  0  0  1  0  0  0  0  0  0
  187.0510  178.1050  144.8880 C   0  0  2  0  0  3  0  0  0  0  0  0
  185.8360  179.0160  144.9480 C   0  0  1  0  0  3  0  0  0  0  0  0
  191.4320  177.2830  140.8350 C   0  0  0  0  0  2  0  0  0  0  0  0
  190.8890  176.7520  139.5450 C   0  0  0  0  0  0  0  0  0  0  0  0
  190.9310  175.5530  139.3160 O   0  0  0  0  0  0  0  0  0  0  0  0
  190.5540  177.2950  137.2550 O   0  0  0  0  0  1  0  0  0  0  0  0
  190.2590  177.6910  138.5620 C   0  0  1  0  0  3  0  0  0  0  0  0
  188.7530  177.7260  138.7760 C   0  0  0  0  0  2  0  0  0  0  0  0
  188.0620  178.4710  137.6760 C   0  0  0  0  0  0  0  0  0  0  0  0
  188.4800  179.5590  137.3140 O   0  0  0  0  0  0  0  0  0  0  0  0
  186.8410  177.8850  137.0420 C   0  0  0  0  0  2  0  0  0  0  0  0
  185.6060  178.1790  137.8820 C   0  0  0  0  0  2  0  0  0  0  0  0
  184.5310  177.1380  137.6120 C   0  0  0  0  0  2  0  0  0  0  0  0
  182.1050  176.7090  138.0700 C   0  0  0  0  0  1  0  0  0  0  0  0
  183.4180  177.2150  138.6480 C   0  0  2  0  0  3  0  0  0  0  0  0
  182.0690  179.5800  138.2740 Cl  0  0  0  0  0  0  0  0  0  0  0  0
  183.2450  178.6290  139.2210 C   0  0  1  0  0  3  0  0  0  0  0  0
  181.2530  178.7670  141.3080 S   0  0  0  0  0  1  0  0  0  0  0  0
  183.8590  178.6080  141.5000 O   0  0  0  0  0  0  0  0  0  0  0  0
  182.9400  178.6670  140.6970 C   0  0  0  0  0  0  0  0  0  0  0  0
  3  8  1  1  0  0  0
  3  6  1  0  0  0  0
  4  2  1  6  0  0  0
  4 13  1  0  0  0  0
  4  1  1  0  0  0  0
  5  1  1  0  0  0  0
  6 10  1  6  0  0  0
  6  5  1  0  0  0  0
  7  4  1  0  0  0  0
  9 20  1  6  0  0  0
  9  7  1  0  0  0  0
  9  3  1  0  0  0  0
 11 10  1  0  0  0  0
 13 12  1  6  0  0  0
 15 16  1  1  0  0  0
 16 14  1  0  0  0  0
 17 16  1  0  0  0  0
 18 13  1  6  0  0  0
 18 19  1  0  0  0  0
 18 15  1  0  0  0  0
 19 15  1  0  0  0  0
 19 16  1  1  0  0  0
 21 20  1  0  0  0  0
 22 21  2  0  0  0  0
 24 23  1  6  0  0  0
 24 25  1  0  0  0  0
 24 21  1  0  0  0  0
 26 25  1  0  0  0  0
 27 26  2  0  0  0  0
 28 26  1  0  0  0  0
 28 29  1  0  0  0  0
 30 29  1  0  0  0  0
 30 32  1  0  0  0  0
 32 31  1  6  0  0  0
 32 34  1  0  0  0  0
 34 33  1  6  0  0  0
 34 37  1  0  0  0  0
 37 35  1  0  0  0  0
 37 36  2  0  0  0  0
M  END
>  <MODEL>
4

>  <REMARK>
 VINA RESULT:      -7.0      1.970      6.053
  Name = 
  14 active torsions:
  status: ('A' for Active; 'I' for Inactive)
    1  A    between atoms: C_1  and  C_5
    2  A    between atoms: C_1  and  C_36
    3  A    between atoms: O_4  and  C_28
    4  A    between atoms: C_5  and  C_17
    5  A    between atoms: C_7  and  C_27
    6  A    between atoms: C_7  and  C_33
    7  A    between atoms: C_11  and  C_26
    8  A    between atoms: C_11  and  C_33
    9  A    between atoms: C_17  and  C_26
   10  A    between atoms: C_18  and  C_19
   11  A    between atoms: C_18  and  C_35
   12  A    between atoms: C_20  and  C_24
   13  A    between atoms: C_24  and  C_30
   14  A    between atoms: C_27  and  C_35
                            x       y       z     vdW  Elec       q    Type
                         _______ _______ _______ _____ _____    ______ ____

>  <TORSDO>
F 14

$$$$
=
 OpenBabel10272415053D

 37 39  0  0  1  0  0  0  0  0999 V2000
  183.1180  177.8330  137.4210 O   0  0  0  0  0  0  0  0  0  0  0  0
  181.1040  177.3080  138.3560 O   0  0  0  0  0  1  0  0  0  0  0  0
  183.7730  179.3230  139.5310 C   0  0  1  0  0  3  0  0  0  0  0  0
  182.4360  176.8990  138.2440 C   0  0  2  0  0  0  0  0  0  0  0  0
  184.4100  177.7490  137.7020 O   0  0  0  0  0  0  0  0  0  0  0  0
  184.7580  178.9230  138.4050 C   0  0  2  0  0  3  0  0  0  0  0  0
  183.0460  176.8230  139.6610 C   0  0  0  0  0  2  0  0  0  0  0  0
  182.7050  180.2660  139.0060 C   0  0  0  0  0  1  0  0  0  0  0  0
  183.1330  178.1850  140.3520 C   0  0  1  0  0  3  0  0  0  0  0  0
  186.0420  178.7800  138.9320 O   0  0  0  0  0  0  0  0  0  0  0  0
  186.7120  177.9500  138.0320 C   0  0  0  0  0  1  0  0  0  0  0  0
  181.3210  174.7880  137.8860 O   0  0  0  0  0  1  0  0  0  0  0  0
  182.4830  175.5140  137.5830 C   0  0  2  0  0  3  0  0  0  0  0  0
  186.1320  172.7730  137.7510 O   0  0  0  0  0  1  0  0  0  0  0  0
  184.5440  174.3300  136.6780 C   0  0  2  0  0  3  0  0  0  0  0  0
  185.0710  172.9290  136.8590 C   0  0  0  0  0  0  0  0  0  0  0  0
  185.0290  172.0960  135.7410 O   0  0  0  0  0  1  0  0  0  0  0  0
  183.7760  174.7430  137.9220 C   0  0  2  0  0  3  0  0  0  0  0  0
  183.7390  173.2940  137.4640 C   0  0  1  0  0  3  0  0  0  0  0  0
  183.8150  178.0390  141.7040 C   0  0  0  0  0  2  0  0  0  0  0  0
  183.0710  178.8150  142.7450 C   0  0  0  0  0  0  0  0  0  0  0  0
  181.8890  179.0730  142.5800 O   0  0  0  0  0  0  0  0  0  0  0  0
  182.9430  179.0290  145.1100 O   0  0  0  0  0  1  0  0  0  0  0  0
  183.7710  179.2340  144.0030 C   0  0  1  0  0  3  0  0  0  0  0  0
  185.0640  178.4480  144.1570 C   0  0  0  0  0  2  0  0  0  0  0  0
  185.6710  178.6570  145.5100 C   0  0  0  0  0  0  0  0  0  0  0  0
  185.4870  179.7020  146.1120 O   0  0  0  0  0  0  0  0  0  0  0  0
  186.5280  177.5860  146.1070 C   0  0  0  0  0  2  0  0  0  0  0  0
  187.6550  177.2070  145.1580 C   0  0  0  0  0  2  0  0  0  0  0  0
  188.9980  177.5760  145.7660 C   0  0  0  0  0  2  0  0  0  0  0  0
  191.4390  177.0430  145.5860 C   0  0  0  0  0  1  0  0  0  0  0  0
  190.1420  177.2440  144.8180 C   0  0  2  0  0  3  0  0  0  0  0  0
  191.7310  179.3500  144.0490 Cl  0  0  0  0  0  0  0  0  0  0  0  0
  190.3230  178.3030  143.7220 C   0  0  1  0  0  3  0  0  0  0  0  0
  188.8380  177.4430  141.3980 S   0  0  0  0  0  1  0  0  0  0  0  0
  191.4260  177.5160  141.7890 O   0  0  0  0  0  0  0  0  0  0  0  0
  190.3500  177.7470  142.3200 C   0  0  0  0  0  0  0  0  0  0  0  0
  1  5  1  0  0  0  0
  1  4  1  0  0  0  0
  3  8  1  6  0  0  0
  3  9  1  0  0  0  0
  4  2  1  1  0  0  0
  4  7  1  0  0  0  0
  5  6  1  0  0  0  0
  6 10  1  1  0  0  0
  6  3  1  0  0  0  0
  7  9  1  0  0  0  0
  9 20  1  1  0  0  0
 11 10  1  0  0  0  0
 13 12  1  1  0  0  0
 13  4  1  0  0  0  0
 15 16  1  1  0  0  0
 15 19  1  0  0  0  0
 15 18  1  0  0  0  0
 16 14  1  0  0  0  0
 17 16  1  0  0  0  0
 18 13  1  6  0  0  0
 19 16  1  1  0  0  0
 19 18  1  0  0  0  0
 20 21  1  0  0  0  0
 21 24  1  0  0  0  0
 22 21  2  0  0  0  0
 24 25  1  0  0  0  0
 24 23  1  1  0  0  0
 25 26  1  0  0  0  0
 26 28  1  0  0  0  0
 26 27  2  0  0  0  0
 29 30  1  0  0  0  0
 29 28  1  0  0  0  0
 32 31  1  1  0  0  0
 32 30  1  0  0  0  0
 34 33  1  1  0  0  0
 34 32  1  0  0  0  0
 35 37  1  0  0  0  0
 36 37  2  0  0  0  0
 37 34  1  0  0  0  0
M  END
>  <MODEL>
5

>  <REMARK>
 VINA RESULT:      -7.0      3.642      7.377
  Name = 
  14 active torsions:
  status: ('A' for Active; 'I' for Inactive)
    1  A    between atoms: C_1  and  C_5
    2  A    between atoms: C_1  and  C_36
    3  A    between atoms: O_4  and  C_28
    4  A    between atoms: C_5  and  C_17
    5  A    between atoms: C_7  and  C_27
    6  A    between atoms: C_7  and  C_33
    7  A    between atoms: C_11  and  C_26
    8  A    between atoms: C_11  and  C_33
    9  A    between atoms: C_17  and  C_26
   10  A    between atoms: C_18  and  C_19
   11  A    between atoms: C_18  and  C_35
   12  A    between atoms: C_20  and  C_24
   13  A    between atoms: C_24  and  C_30
   14  A    between atoms: C_27  and  C_35
                            x       y       z     vdW  Elec       q    Type
                         _______ _______ _______ _____ _____    ______ ____

>  <TORSDO>
F 14

$$$$
=
 OpenBabel10272415053D

 37 39  0  0  1  0  0  0  0  0999 V2000
  189.2630  177.0390  144.7080 O   0  0  0  0  0  0  0  0  0  0  0  0
  188.0040  175.7830  143.2770 O   0  0  0  0  0  1  0  0  0  0  0  0
  191.4210  176.7220  143.1770 C   0  0  1  0  0  3  0  0  0  0  0  0
  188.4160  177.0860  143.5700 C   0  0  2  0  0  0  0  0  0  0  0  0
  190.0200  178.1250  144.6920 O   0  0  0  0  0  0  0  0  0  0  0  0
  191.3300  177.7130  144.3640 C   0  0  2  0  0  3  0  0  0  0  0  0
  189.1400  177.6600  142.3330 C   0  0  0  0  0  2  0  0  0  0  0  0
  191.3710  175.2860  143.6680 C   0  0  0  0  0  1  0  0  0  0  0  0
  190.4420  176.9260  142.0040 C   0  0  1  0  0  3  0  0  0  0  0  0
  192.1130  178.8370  144.0980 O   0  0  0  0  0  0  0  0  0  0  0  0
  191.2330  179.9170  144.1730 C   0  0  0  0  0  1  0  0  0  0  0  0
  186.3790  177.3010  144.8480 O   0  0  0  0  0  1  0  0  0  0  0  0
  187.1820  177.9420  143.8930 C   0  0  2  0  0  3  0  0  0  0  0  0
  184.0960  179.1140  140.7380 O   0  0  0  0  0  1  0  0  0  0  0  0
  185.1920  179.2130  142.9480 C   0  0  2  0  0  3  0  0  0  0  0  0
  184.0280  178.7830  142.0910 C   0  0  0  0  0  0  0  0  0  0  0  0
  182.7730  178.7750  142.7000 O   0  0  0  0  0  1  0  0  0  0  0  0
  186.3980  178.3480  142.6260 C   0  0  2  0  0  3  0  0  0  0  0  0
  185.0060  177.7420  142.5720 C   0  0  1  0  0  3  0  0  0  0  0  0
  191.1350  177.5980  140.8270 C   0  0  0  0  0  2  0  0  0  0  0  0
  191.1110  176.6980  139.6310 C   0  0  0  0  0  0  0  0  0  0  0  0
  190.1360  175.9930  139.4210 O   0  0  0  0  0  0  0  0  0  0  0  0
  193.4650  176.9050  139.3660 O   0  0  0  0  0  1  0  0  0  0  0  0
  192.2670  176.7000  138.6770 C   0  0  1  0  0  3  0  0  0  0  0  0
  192.3100  175.3820  137.9190 C   0  0  0  0  0  2  0  0  0  0  0  0
  192.3420  175.6050  136.4390 C   0  0  0  0  0  0  0  0  0  0  0  0
  193.4050  175.7870  135.8670 O   0  0  0  0  0  0  0  0  0  0  0  0
  191.0610  175.6290  135.6680 C   0  0  0  0  0  2  0  0  0  0  0  0
  190.3200  176.9390  135.8980 C   0  0  0  0  0  2  0  0  0  0  0  0
  188.8210  176.7220  135.7690 C   0  0  0  0  0  2  0  0  0  0  0  0
  188.9770  178.8540  137.0760 C   0  0  0  0  0  1  0  0  0  0  0  0
  188.0440  177.7790  136.5400 C   0  0  2  0  0  3  0  0  0  0  0  0
  187.4570  178.0540  139.2110 Cl  0  0  0  0  0  0  0  0  0  0  0  0
  187.2030  177.1800  137.6750 C   0  0  1  0  0  3  0  0  0  0  0  0
  185.0570  175.4710  136.7720 S   0  0  0  0  0  1  0  0  0  0  0  0
  184.9910  177.9840  137.5040 O   0  0  0  0  0  0  0  0  0  0  0  0
  185.7380  177.0290  137.3510 C   0  0  0  0  0  0  0  0  0  0  0  0
  3  8  1  1  0  0  0
  3  6  1  0  0  0  0
  4  2  1  6  0  0  0
  4 13  1  0  0  0  0
  4  1  1  0  0  0  0
  5  1  1  0  0  0  0
  6 10  1  6  0  0  0
  6  5  1  0  0  0  0
  7  4  1  0  0  0  0
  9 20  1  6  0  0  0
  9  7  1  0  0  0  0
  9  3  1  0  0  0  0
 10 11  1  0  0  0  0
 13 12  1  1  0  0  0
 14 16  1  0  0  0  0
 15 16  1  6  0  0  0
 16 17  1  0  0  0  0
 18 15  1  0  0  0  0
 18 13  1  1  0  0  0
 19 16  1  6  0  0  0
 19 18  1  0  0  0  0
 19 15  1  0  0  0  0
 21 20  1  0  0  0  0
 22 21  2  0  0  0  0
 24 23  1  1  0  0  0
 24 21  1  0  0  0  0
 25 24  1  0  0  0  0
 26 25  1  0  0  0  0
 27 26  2  0  0  0  0
 28 29  1  0  0  0  0
 28 26  1  0  0  0  0
 30 29  1  0  0  0  0
 30 32  1  0  0  0  0
 32 31  1  1  0  0  0
 32 34  1  0  0  0  0
 34 33  1  1  0  0  0
 35 37  1  0  0  0  0
 37 36  2  0  0  0  0
 37 34  1  0  0  0  0
M  END
>  <MODEL>
6

>  <REMARK>
 VINA RESULT:      -6.8      2.608      6.637
  Name = 
  14 active torsions:
  status: ('A' for Active; 'I' for Inactive)
    1  A    between atoms: C_1  and  C_5
    2  A    between atoms: C_1  and  C_36
    3  A    between atoms: O_4  and  C_28
    4  A    between atoms: C_5  and  C_17
    5  A    between atoms: C_7  and  C_27
    6  A    between atoms: C_7  and  C_33
    7  A    between atoms: C_11  and  C_26
    8  A    between atoms: C_11  and  C_33
    9  A    between atoms: C_17  and  C_26
   10  A    between atoms: C_18  and  C_19
   11  A    between atoms: C_18  and  C_35
   12  A    between atoms: C_20  and  C_24
   13  A    between atoms: C_24  and  C_30
   14  A    between atoms: C_27  and  C_35
                            x       y       z     vdW  Elec       q    Type
                         _______ _______ _______ _____ _____    ______ ____

>  <TORSDO>
F 14

$$$$
=
 OpenBabel10272415053D

 37 39  0  0  1  0  0  0  0  0999 V2000
  190.6410  175.2560  136.0070 O   0  0  0  0  0  0  0  0  0  0  0  0
  191.3500  173.8830  137.6870 O   0  0  0  0  0  1  0  0  0  0  0  0
  189.0260  176.5600  137.6800 C   0  0  1  0  0  3  0  0  0  0  0  0
  191.6170  175.0840  137.0240 C   0  0  2  0  0  0  0  0  0  0  0  0
  190.5780  176.5490  135.7250 O   0  0  0  0  0  0  0  0  0  0  0  0
  189.3530  177.0260  136.2400 C   0  0  2  0  0  3  0  0  0  0  0  0
  191.5850  176.2310  138.0580 C   0  0  0  0  0  2  0  0  0  0  0  0
  188.2190  175.2730  137.6620 C   0  0  0  0  0  1  0  0  0  0  0  0
  190.2000  176.4470  138.6730 C   0  0  1  0  0  3  0  0  0  0  0  0
  189.3410  178.4200  136.1830 O   0  0  0  0  0  0  0  0  0  0  0  0
  188.0690  178.7900  136.6210 C   0  0  0  0  0  1  0  0  0  0  0  0
  193.1560  173.7960  135.6820 O   0  0  0  0  0  1  0  0  0  0  0  0
  193.0090  175.0050  136.3800 C   0  0  2  0  0  3  0  0  0  0  0  0
  196.7210  174.9000  139.0380 O   0  0  0  0  0  1  0  0  0  0  0  0
  195.4790  174.7110  136.9130 C   0  0  2  0  0  3  0  0  0  0  0  0
  196.1970  174.0520  138.0630 C   0  0  0  0  0  0  0  0  0  0  0  0
  196.8940  172.8780  137.7740 O   0  0  0  0  0  1  0  0  0  0  0  0
  194.1440  175.2500  137.3970 C   0  0  2  0  0  3  0  0  0  0  0  0
  194.6940  173.9650  137.9930 C   0  0  1  0  0  3  0  0  0  0  0  0
  190.2310  177.6400  139.6170 C   0  0  0  0  0  2  0  0  0  0  0  0
  190.9540  177.2830  140.8780 C   0  0  0  0  0  0  0  0  0  0  0  0
  192.1710  177.3780  140.9280 O   0  0  0  0  0  0  0  0  0  0  0  0
  190.9370  175.9720  142.8620 O   0  0  0  0  0  1  0  0  0  0  0  0
  190.1770  176.8500  142.0840 C   0  0  1  0  0  3  0  0  0  0  0  0
  189.7740  178.0680  142.9010 C   0  0  0  0  0  2  0  0  0  0  0  0
  190.6790  178.2590  144.0780 C   0  0  0  0  0  0  0  0  0  0  0  0
  191.8670  178.4810  143.9110 O   0  0  0  0  0  0  0  0  0  0  0  0
  190.1220  178.1470  145.4620 C   0  0  0  0  0  2  0  0  0  0  0  0
  188.9220  177.2110  145.4860 C   0  0  0  0  0  2  0  0  0  0  0  0
  187.6730  177.9730  145.8990 C   0  0  0  0  0  2  0  0  0  0  0  0
  186.8900  176.6460  143.9230 C   0  0  0  0  0  1  0  0  0  0  0  0
  186.4660  177.5330  145.0830 C   0  0  2  0  0  3  0  0  0  0  0  0
  185.6480  178.8170  142.7950 Cl  0  0  0  0  0  0  0  0  0  0  0  0
  185.6350  178.7210  144.5770 C   0  0  1  0  0  3  0  0  0  0  0  0
  182.7950  178.8080  144.0580 S   0  0  0  0  0  1  0  0  0  0  0  0
  184.0710  178.7890  146.3440 O   0  0  0  0  0  0  0  0  0  0  0  0
  184.2340  178.7800  145.1330 C   0  0  0  0  0  0  0  0  0  0  0  0
  1  4  1  0  0  0  0
  3  8  1  6  0  0  0
  3  9  1  0  0  0  0
  4  2  1  1  0  0  0
  4  7  1  0  0  0  0
  5  1  1  0  0  0  0
  5  6  1  0  0  0  0
  6 10  1  1  0  0  0
  6  3  1  0  0  0  0
  7  9  1  0  0  0  0
  9 20  1  6  0  0  0
 10 11  1  0  0  0  0
 13 12  1  1  0  0  0
 13  4  1  0  0  0  0
 15 18  1  0  0  0  0
 15 19  1  0  0  0  0
 15 16  1  1  0  0  0
 16 14  1  0  0  0  0
 17 16  1  0  0  0  0
 18 13  1  6  0  0  0
 18 19  1  0  0  0  0
 19 16  1  1  0  0  0
 20 21  1  0  0  0  0
 21 22  2  0  0  0  0
 21 24  1  0  0  0  0
 24 23  1  1  0  0  0
 24 25  1  0  0  0  0
 25 26  1  0  0  0  0
 26 28  1  0  0  0  0
 27 26  2  0  0  0  0
 28 29  1  0  0  0  0
 29 30  1  0  0  0  0
 32 31  1  6  0  0  0
 32 30  1  0  0  0  0
 34 33  1  6  0  0  0
 34 32  1  0  0  0  0
 34 37  1  0  0  0  0
 35 37  1  0  0  0  0
 37 36  2  0  0  0  0
M  END
>  <MODEL>
7

>  <REMARK>
 VINA RESULT:      -6.7      3.814      7.065
  Name = 
  14 active torsions:
  status: ('A' for Active; 'I' for Inactive)
    1  A    between atoms: C_1  and  C_5
    2  A    between atoms: C_1  and  C_36
    3  A    between atoms: O_4  and  C_28
    4  A    between atoms: C_5  and  C_17
    5  A    between atoms: C_7  and  C_27
    6  A    between atoms: C_7  and  C_33
    7  A    between atoms: C_11  and  C_26
    8  A    between atoms: C_11  and  C_33
    9  A    between atoms: C_17  and  C_26
   10  A    between atoms: C_18  and  C_19
   11  A    between atoms: C_18  and  C_35
   12  A    between atoms: C_20  and  C_24
   13  A    between atoms: C_24  and  C_30
   14  A    between atoms: C_27  and  C_35
                            x       y       z     vdW  Elec       q    Type
                         _______ _______ _______ _____ _____    ______ ____

>  <TORSDO>
F 14

$$$$
=
 OpenBabel10272415053D

 37 39  0  0  1  0  0  0  0  0999 V2000
  189.1320  177.0770  144.6840 O   0  0  0  0  0  0  0  0  0  0  0  0
  187.8090  175.7840  143.3470 O   0  0  0  0  0  1  0  0  0  0  0  0
  191.2480  176.6170  143.1300 C   0  0  1  0  0  3  0  0  0  0  0  0
  188.2630  177.0890  143.5620 C   0  0  2  0  0  0  0  0  0  0  0  0
  189.9180  178.1390  144.5950 O   0  0  0  0  0  0  0  0  0  0  0  0
  191.2090  177.6720  144.2630 C   0  0  2  0  0  3  0  0  0  0  0  0
  188.9760  177.5750  142.2810 C   0  0  0  0  0  2  0  0  0  0  0  0
  191.1680  175.2110  143.6980 C   0  0  0  0  0  1  0  0  0  0  0  0
  190.2500  176.7870  141.9670 C   0  0  1  0  0  3  0  0  0  0  0  0
  192.0180  178.7570  143.9220 O   0  0  0  0  0  0  0  0  0  0  0  0
  191.2140  179.8820  144.1170 C   0  0  0  0  0  1  0  0  0  0  0  0
  186.1220  177.3170  144.6540 O   0  0  0  0  0  1  0  0  0  0  0  0
  187.0610  177.9960  143.8630 C   0  0  2  0  0  3  0  0  0  0  0  0
  184.3860  179.5370  140.4970 O   0  0  0  0  0  1  0  0  0  0  0  0
  185.0910  179.2420  142.8440 C   0  0  2  0  0  3  0  0  0  0  0  0
  184.1500  178.9030  141.7160 C   0  0  0  0  0  0  0  0  0  0  0  0
  182.8270  178.6310  142.0660 O   0  0  0  0  0  1  0  0  0  0  0  0
  186.4410  178.5970  142.5830 C   0  0  2  0  0  3  0  0  0  0  0  0
  185.1720  177.8830  142.1470 C   0  0  1  0  0  3  0  0  0  0  0  0
  190.9350  177.3750  140.7420 C   0  0  0  0  0  2  0  0  0  0  0  0
  190.3620  176.7820  139.4940 C   0  0  0  0  0  0  0  0  0  0  0  0
  190.8600  175.7730  139.0170 O   0  0  0  0  0  0  0  0  0  0  0  0
  189.2560  178.7990  138.8940 O   0  0  0  0  0  1  0  0  0  0  0  0
  189.1560  177.4060  138.8600 C   0  0  1  0  0  3  0  0  0  0  0  0
  189.0200  176.9200  137.4250 C   0  0  0  0  0  2  0  0  0  0  0  0
  187.6490  176.3770  137.1610 C   0  0  0  0  0  0  0  0  0  0  0  0
  187.4260  175.1840  137.2860 O   0  0  0  0  0  0  0  0  0  0  0  0
  186.5620  177.3030  136.7150 C   0  0  0  0  0  2  0  0  0  0  0  0
  185.6540  177.6670  137.8810 C   0  0  0  0  0  2  0  0  0  0  0  0
  184.2070  177.7190  137.4200 C   0  0  0  0  0  2  0  0  0  0  0  0
  183.0950  176.9980  135.2930 C   0  0  0  0  0  1  0  0  0  0  0  0
  183.8750  176.5400  136.5160 C   0  0  2  0  0  3  0  0  0  0  0  0
  184.2000  174.0910  137.7210 Cl  0  0  0  0  0  0  0  0  0  0  0  0
  183.1150  175.4290  137.2550 C   0  0  1  0  0  3  0  0  0  0  0  0
  180.6510  176.6190  138.1810 S   0  0  0  0  0  1  0  0  0  0  0  0
  182.7270  175.8010  139.5530 O   0  0  0  0  0  0  0  0  0  0  0  0
  182.2860  175.9120  138.4180 C   0  0  0  0  0  0  0  0  0  0  0  0
  3  8  1  1  0  0  0
  3  6  1  0  0  0  0
  4  2  1  6  0  0  0
  4 13  1  0  0  0  0
  4  1  1  0  0  0  0
  5  1  1  0  0  0  0
  6 10  1  6  0  0  0
  6  5  1  0  0  0  0
  7  4  1  0  0  0  0
  9 20  1  6  0  0  0
  9  7  1  0  0  0  0
  9  3  1  0  0  0  0
 10 11  1  0  0  0  0
 13 12  1  6  0  0  0
 14 16  1  0  0  0  0
 15 16  1  6  0  0  0
 16 17  1  0  0  0  0
 18 15  1  0  0  0  0
 18 13  1  1  0  0  0
 19 16  1  6  0  0  0
 19 18  1  0  0  0  0
 19 15  1  0  0  0  0
 21 20  1  0  0  0  0
 22 21  2  0  0  0  0
 24 23  1  6  0  0  0
 24 21  1  0  0  0  0
 25 24  1  0  0  0  0
 26 27  2  0  0  0  0
 26 25  1  0  0  0  0
 28 26  1  0  0  0  0
 28 29  1  0  0  0  0
 30 29  1  0  0  0  0
 32 31  1  6  0  0  0
 32 34  1  0  0  0  0
 32 30  1  0  0  0  0
 34 33  1  1  0  0  0
 34 37  1  0  0  0  0
 35 37  1  0  0  0  0
 37 36  2  0  0  0  0
M  END
>  <MODEL>
8

>  <REMARK>
 VINA RESULT:      -6.7      2.567      5.623
  Name = 
  14 active torsions:
  status: ('A' for Active; 'I' for Inactive)
    1  A    between atoms: C_1  and  C_5
    2  A    between atoms: C_1  and  C_36
    3  A    between atoms: O_4  and  C_28
    4  A    between atoms: C_5  and  C_17
    5  A    between atoms: C_7  and  C_27
    6  A    between atoms: C_7  and  C_33
    7  A    between atoms: C_11  and  C_26
    8  A    between atoms: C_11  and  C_33
    9  A    between atoms: C_17  and  C_26
   10  A    between atoms: C_18  and  C_19
   11  A    between atoms: C_18  and  C_35
   12  A    between atoms: C_20  and  C_24
   13  A    between atoms: C_24  and  C_30
   14  A    between atoms: C_27  and  C_35
                            x       y       z     vdW  Elec       q    Type
                         _______ _______ _______ _____ _____    ______ ____

>  <TORSDO>
F 14

$$$$
=
 OpenBabel10272415053D

 37 39  0  0  1  0  0  0  0  0999 V2000
  182.3040  176.6220  137.9940 O   0  0  0  0  0  0  0  0  0  0  0  0
  182.7180  178.8530  138.2340 O   0  0  0  0  0  1  0  0  0  0  0  0
  184.1450  176.4290  136.0760 C   0  0  1  0  0  3  0  0  0  0  0  0
  183.0790  177.5840  138.6930 C   0  0  2  0  0  0  0  0  0  0  0  0
  182.9520  175.4680  138.0470 O   0  0  0  0  0  0  0  0  0  0  0  0
  183.4580  175.2170  136.7520 C   0  0  2  0  0  3  0  0  0  0  0  0
  184.5930  177.3910  138.4570 C   0  0  0  0  0  2  0  0  0  0  0  0
  183.1480  177.2240  135.2510 C   0  0  0  0  0  1  0  0  0  0  0  0
  184.9730  177.3690  136.9750 C   0  0  1  0  0  3  0  0  0  0  0  0
  184.3460  174.1430  136.8050 O   0  0  0  0  0  0  0  0  0  0  0  0
  183.5740  173.0550  137.2140 C   0  0  0  0  0  1  0  0  0  0  0  0
  181.3910  177.5990  140.4180 O   0  0  0  0  0  1  0  0  0  0  0  0
  182.7710  177.4870  140.1950 C   0  0  2  0  0  3  0  0  0  0  0  0
  184.8260  179.9760  143.4250 O   0  0  0  0  0  1  0  0  0  0  0  0
  184.0660  177.8900  142.3470 C   0  0  2  0  0  3  0  0  0  0  0  0
  183.9200  178.9160  143.4410 C   0  0  0  0  0  0  0  0  0  0  0  0
  183.4810  178.4500  144.6810 O   0  0  0  0  0  1  0  0  0  0  0  0
  183.5970  178.4870  141.0320 C   0  0  2  0  0  3  0  0  0  0  0  0
  182.9070  178.8880  142.3260 C   0  0  1  0  0  3  0  0  0  0  0  0
  186.4620  177.0960  136.8240 C   0  0  0  0  0  2  0  0  0  0  0  0
  187.2470  178.3370  137.1090 C   0  0  0  0  0  0  0  0  0  0  0  0
  186.7370  179.4320  136.9310 O   0  0  0  0  0  0  0  0  0  0  0  0
  189.1350  179.4930  137.9770 O   0  0  0  0  0  1  0  0  0  0  0  0
  188.6410  178.2270  137.6500 C   0  0  1  0  0  3  0  0  0  0  0  0
  188.6470  177.3240  138.8730 C   0  0  0  0  0  2  0  0  0  0  0  0
  188.1330  178.0400  140.0840 C   0  0  0  0  0  0  0  0  0  0  0  0
  187.1100  178.7020  140.0180 O   0  0  0  0  0  0  0  0  0  0  0  0
  188.8970  177.9620  141.3670 C   0  0  0  0  0  2  0  0  0  0  0  0
  187.9570  177.7110  142.5380 C   0  0  0  0  0  2  0  0  0  0  0  0
  188.5230  176.6260  143.4390 C   0  0  0  0  0  2  0  0  0  0  0  0
  186.8120  177.4480  145.0750 C   0  0  0  0  0  1  0  0  0  0  0  0
  188.2270  176.9170  144.9040 C   0  0  2  0  0  3  0  0  0  0  0  0
  189.0340  178.0010  147.2970 Cl  0  0  0  0  0  0  0  0  0  0  0  0
  189.2450  177.8820  145.5280 C   0  0  1  0  0  3  0  0  0  0  0  0
  191.6040  178.7140  144.0850 S   0  0  0  0  0  1  0  0  0  0  0  0
  191.2310  176.6080  145.5960 O   0  0  0  0  0  0  0  0  0  0  0  0
  190.6780  177.6030  145.1510 C   0  0  0  0  0  0  0  0  0  0  0  0
  1  5  1  0  0  0  0
  1  4  1  0  0  0  0
  3  8  1  1  0  0  0
  3  6  1  0  0  0  0
  3  9  1  0  0  0  0
  4  2  1  6  0  0  0
  4 13  1  0  0  0  0
  6 10  1  1  0  0  0
  6  5  1  0  0  0  0
  7  4  1  0  0  0  0
  9 20  1  1  0  0  0
  9  7  1  0  0  0  0
 10 11  1  0  0  0  0
 13 12  1  6  0  0  0
 14 16  1  0  0  0  0
 15 16  1  1  0  0  0
 16 17  1  0  0  0  0
 18 13  1  6  0  0  0
 18 19  1  0  0  0  0
 18 15  1  0  0  0  0
 19 15  1  0  0  0  0
 19 16  1  1  0  0  0
 20 21  1  0  0  0  0
 21 24  1  0  0  0  0
 22 21  2  0  0  0  0
 24 23  1  1  0  0  0
 24 25  1  0  0  0  0
 25 26  1  0  0  0  0
 26 28  1  0  0  0  0
 27 26  2  0  0  0  0
 28 29  1  0  0  0  0
 29 30  1  0  0  0  0
 30 32  1  0  0  0  0
 32 31  1  6  0  0  0
 32 34  1  0  0  0  0
 34 33  1  1  0  0  0
 35 37  1  0  0  0  0
 37 34  1  0  0  0  0
 37 36  2  0  0  0  0
M  END
>  <MODEL>
9

>  <REMARK>
 VINA RESULT:      -6.7      3.686      8.733
  Name = 
  14 active torsions:
  status: ('A' for Active; 'I' for Inactive)
    1  A    between atoms: C_1  and  C_5
    2  A    between atoms: C_1  and  C_36
    3  A    between atoms: O_4  and  C_28
    4  A    between atoms: C_5  and  C_17
    5  A    between atoms: C_7  and  C_27
    6  A    between atoms: C_7  and  C_33
    7  A    between atoms: C_11  and  C_26
    8  A    between atoms: C_11  and  C_33
    9  A    between atoms: C_17  and  C_26
   10  A    between atoms: C_18  and  C_19
   11  A    between atoms: C_18  and  C_35
   12  A    between atoms: C_20  and  C_24
   13  A    between atoms: C_24  and  C_30
   14  A    between atoms: C_27  and  C_35
                            x       y       z     vdW  Elec       q    Type
                         _______ _______ _______ _____ _____    ______ ____

>  <TORSDO>
F 14

$$$$
