=
 OpenBabel10272414083D

 43 47  0  0  1  0  0  0  0  0999 V2000
  191.9380  173.5330  136.4000 C   0  0  1  0  0  3  0  0  0  0  0  0
  190.0130  176.8890  139.6800 C   0  0  1  0  0  3  0  0  0  0  0  0
  187.6240  177.9550  138.5960 C   0  0  0  0  0  0  0  0  0  0  0  0
  191.3950  175.8000  137.4290 C   0  0  0  0  0  0  0  0  0  0  0  0
  190.6690  173.1300  137.0360 N   0  0  0  0  0  2  0  0  0  0  0  0
  191.9900  173.0470  134.9640 C   0  0  0  0  0  1  0  0  0  0  0  0
  190.1250  175.3920  137.6430 C   0  0  0  0  0  0  0  0  0  0  0  0
  192.2530  175.0430  136.4550 C   0  0  0  0  0  2  0  0  0  0  0  0
  189.6500  174.1750  136.9230 C   0  0  0  0  0  2  0  0  0  0  0  0
  188.2240  176.8430  137.9890 O   0  0  0  0  0  0  0  0  0  0  0  0
  189.2200  176.0560  138.6530 C   0  0  2  0  0  3  0  0  0  0  0  0
  191.0210  177.7820  138.9660 C   0  0  0  0  0  2  0  0  0  0  0  0
  189.0690  177.7140  140.5540 C   0  0  1  0  0  3  0  0  0  0  0  0
  188.0490  178.3940  139.7470 N   0  0  0  0  0  0  0  0  0  0  0  0
  192.0370  176.9050  138.2340 C   0  0  0  0  0  2  0  0  0  0  0  0
  186.5120  178.6800  137.8860 C   0  0  1  0  0  3  0  0  0  0  0  0
  186.8440  178.7870  136.3990 C   0  0  0  0  0  1  0  0  0  0  0  0
  185.1610  177.9960  138.1680 C   0  0  2  0  0  3  0  0  0  0  0  0
  184.5920  177.2660  136.9570 C   0  0  0  0  0  1  0  0  0  0  0  0
  184.5370  180.0780  139.1050 O   0  0  0  0  0  0  0  0  0  0  0  0
  184.1570  179.0020  138.6510 C   0  0  0  0  0  0  0  0  0  0  0  0
  182.6970  178.7200  138.5300 C   0  0  0  0  0  2  0  0  0  0  0  0
  182.2900  177.6400  139.5110 C   0  0  0  0  0  2  0  0  0  0  0  0
  180.9840  178.0180  140.1820 C   0  0  0  0  0  2  0  0  0  0  0  0
  181.2250  179.1660  141.1450 C   0  0  0  0  0  2  0  0  0  0  0  0
  180.8420  178.7600  142.5620 C   0  0  2  0  0  3  0  0  0  0  0  0
  180.2710  179.9670  143.2880 C   0  0  0  0  0  1  0  0  0  0  0  0
  182.0150  178.2800  143.2720 N   0  0  0  0  0  2  0  0  0  0  0  0
  183.1350  179.1350  142.9000 C   0  0  2  0  0  3  0  0  0  0  0  0
  184.7730  178.7030  145.8610 C   0  0  0  0  0  1  0  0  0  0  0  0
  185.0970  178.0640  143.6740 N   0  0  0  0  0  2  0  0  0  0  0  0
  184.9270  179.1920  144.4990 N   0  0  0  0  0  0  0  0  0  0  0  0
  184.2960  178.2850  142.4790 C   0  0  0  0  0  2  0  0  0  0  0  0
  183.6630  179.8270  144.1290 C   0  0  0  0  0  2  0  0  0  0  0  0
  188.4080  176.8040  141.5870 C   0  0  0  0  0  2  0  0  0  0  0  0
  191.5470  176.4760  143.4750 C   0  0  0  0  0  2  0  0  0  0  0  0
  191.3530  177.6300  144.8250 S   0  0  0  0  0  0  0  0  0  0  0  0
  191.9660  177.0630  146.0770 O   0  0  0  0  0  0  0  0  0  0  0  0
  188.8770  177.8030  143.7710 C   0  0  0  0  0  3  0  0  0  0  0  0
  190.2090  175.8030  143.1630 C   0  0  0  0  0  2  0  0  0  0  0  0
  189.1390  176.8280  142.8890 C   0  0  0  0  0  0  0  0  0  0  0  0
  192.0240  178.9290  144.4750 O   0  0  0  0  0  0  0  0  0  0  0  0
  189.6060  177.9070  145.0810 C   0  0  0  0  0  2  0  0  0  0  0  0
  1  6  1  6  0  0  0
  1  8  1  0  0  0  0
  1  5  1  0  0  0  0
  2 12  1  6  0  0  0
  2 13  1  0  0  0  0
  3 14  2  0  0  0  0
  4  7  2  0  0  0  0
  4 15  1  0  0  0  0
  8  4  1  0  0  0  0
  9  5  1  0  0  0  0
  9  7  1  0  0  0  0
 10  3  1  0  0  0  0
 10 11  1  0  0  0  0
 11  7  1  6  0  0  0
 11  2  1  0  0  0  0
 13 35  1  1  0  0  0
 14 13  1  0  0  0  0
 15 12  1  0  0  0  0
 16 17  1  6  0  0  0
 16 18  1  0  0  0  0
 16  3  1  0  0  0  0
 18 19  1  6  0  0  0
 18 21  1  0  0  0  0
 21 20  2  0  0  0  0
 22 21  1  0  0  0  0
 22 23  1  0  0  0  0
 23 24  1  0  0  0  0
 24 25  1  0  0  0  0
 25 26  1  0  0  0  0
 26 28  1  0  0  0  0
 26 27  1  1  0  0  0
 29 28  1  1  0  0  0
 29 34  1  0  0  0  0
 31 32  1  0  0  0  0
 32 30  1  0  0  0  0
 33 29  1  0  0  0  0
 33 31  1  0  0  0  0
 34 32  1  0  0  0  0
 35 41  1  0  0  0  0
 36 37  1  0  0  0  0
 37 43  1  0  0  0  0
 37 38  2  0  0  0  0
 39 43  1  0  0  0  0
 40 36  1  0  0  0  0
 41 40  1  0  0  0  0
 41 39  2  0  0  0  0
 42 37  2  0  0  0  0
M  END
>  <MODEL>
1

>  <REMARK>
 VINA RESULT:      -6.8      0.000      0.000
  Name = 
  12 active torsions:
  status: ('A' for Active; 'I' for Inactive)
    1  A    between atoms: C_1  and  C_34
    2  A    between atoms: C_1  and  C_35
    3  A    between atoms: C_2  and  C_6
    4  A    between atoms: C_2  and  C_13
    5  A    between atoms: C_4  and  C_12
    6  A    between atoms: C_4  and  C_15
    7  A    between atoms: C_6  and  C_12
    8  A    between atoms: C_10  and  C_22
    9  A    between atoms: C_10  and  C_42
   10  A    between atoms: C_11  and  N_14
   11  A    between atoms: N_14  and  C_22
   12  A    between atoms: C_15  and  C_42
                            x       y       z     vdW  Elec       q    Type
                         _______ _______ _______ _____ _____    ______ ____

>  <TORSDO>
F 12

$$$$
=
 OpenBabel10272414083D

 43 47  0  0  1  0  0  0  0  0999 V2000
  190.9300  172.9200  135.7920 C   0  0  1  0  0  3  0  0  0  0  0  0
  189.8080  176.7510  138.9200 C   0  0  1  0  0  3  0  0  0  0  0  0
  187.2770  177.8010  138.2040 C   0  0  0  0  0  0  0  0  0  0  0  0
  190.6700  175.3220  136.6020 C   0  0  0  0  0  0  0  0  0  0  0  0
  189.8070  172.6660  136.7150 N   0  0  0  0  0  2  0  0  0  0  0  0
  190.6740  172.2580  134.4500 C   0  0  0  0  0  1  0  0  0  0  0  0
  189.4600  175.0110  137.1160 C   0  0  0  0  0  0  0  0  0  0  0  0
  191.2900  174.4060  135.5840 C   0  0  0  0  0  2  0  0  0  0  0  0
  188.8150  173.7420  136.6710 C   0  0  0  0  0  2  0  0  0  0  0  0
  187.7100  176.5920  137.6410 O   0  0  0  0  0  0  0  0  0  0  0  0
  188.8000  175.8410  138.1900 C   0  0  2  0  0  3  0  0  0  0  0  0
  190.6730  177.4940  137.9100 C   0  0  0  0  0  2  0  0  0  0  0  0
  189.0850  177.7260  139.8490 C   0  0  1  0  0  3  0  0  0  0  0  0
  187.9400  178.3550  139.1800 N   0  0  0  0  0  0  0  0  0  0  0  0
  191.4930  176.4820  137.1110 C   0  0  0  0  0  2  0  0  0  0  0  0
  186.0640  178.4910  137.6410 C   0  0  1  0  0  3  0  0  0  0  0  0
  186.0510  178.3370  136.1220 C   0  0  0  0  0  1  0  0  0  0  0  0
  184.7850  177.9690  138.3250 C   0  0  2  0  0  3  0  0  0  0  0  0
  183.8170  177.2990  137.3570 C   0  0  0  0  0  1  0  0  0  0  0  0
  184.6490  180.1610  139.2090 O   0  0  0  0  0  0  0  0  0  0  0  0
  184.0780  179.0880  139.0320 C   0  0  0  0  0  0  0  0  0  0  0  0
  182.6620  178.9180  139.4710 C   0  0  0  0  0  2  0  0  0  0  0  0
  182.5770  177.8780  140.5690 C   0  0  0  0  0  2  0  0  0  0  0  0
  183.8510  177.8890  141.3900 C   0  0  0  0  0  2  0  0  0  0  0  0
  183.6790  178.8190  142.5770 C   0  0  0  0  0  2  0  0  0  0  0  0
  184.9630  179.5980  142.8320 C   0  0  2  0  0  3  0  0  0  0  0  0
  186.1190  178.8910  142.1440 C   0  0  0  0  0  1  0  0  0  0  0  0
  185.2220  179.6690  144.2600 N   0  0  0  0  0  2  0  0  0  0  0  0
  184.9600  178.3500  144.8210 C   0  0  2  0  0  3  0  0  0  0  0  0
  187.3520  178.6280  147.2370 C   0  0  0  0  0  1  0  0  0  0  0  0
  185.0530  178.5790  147.1730 N   0  0  0  0  0  2  0  0  0  0  0  0
  186.2000  177.8460  146.8160 N   0  0  0  0  0  0  0  0  0  0  0  0
  184.1230  178.4880  146.0570 C   0  0  0  0  0  2  0  0  0  0  0  0
  186.2440  177.7730  145.3560 C   0  0  0  0  0  2  0  0  0  0  0  0
  188.6250  176.9860  141.1040 C   0  0  0  0  0  2  0  0  0  0  0  0
  189.8260  178.4650  144.2500 C   0  0  0  0  0  2  0  0  0  0  0  0
  190.6580  177.1100  145.0650 S   0  0  0  0  0  0  0  0  0  0  0  0
  191.8800  177.6160  145.7820 O   0  0  0  0  0  0  0  0  0  0  0  0
  190.1370  175.9180  142.7040 C   0  0  0  0  0  3  0  0  0  0  0  0
  190.0630  178.3950  142.7400 C   0  0  0  0  0  2  0  0  0  0  0  0
  189.6480  177.0550  142.1890 C   0  0  0  0  0  0  0  0  0  0  0  0
  189.7230  176.4660  146.0500 O   0  0  0  0  0  0  0  0  0  0  0  0
  191.1380  175.9170  143.8240 C   0  0  0  0  0  2  0  0  0  0  0  0
  1  6  1  6  0  0  0
  1  5  1  0  0  0  0
  2 12  1  6  0  0  0
  2 13  1  0  0  0  0
  3 14  2  0  0  0  0
  4 15  1  0  0  0  0
  4  7  2  0  0  0  0
  8  1  1  0  0  0  0
  8  4  1  0  0  0  0
  9  5  1  0  0  0  0
  9  7  1  0  0  0  0
 10 11  1  0  0  0  0
 10  3  1  0  0  0  0
 11  7  1  6  0  0  0
 11  2  1  0  0  0  0
 13 35  1  1  0  0  0
 14 13  1  0  0  0  0
 15 12  1  0  0  0  0
 16 17  1  6  0  0  0
 16  3  1  0  0  0  0
 16 18  1  0  0  0  0
 18 19  1  6  0  0  0
 18 21  1  0  0  0  0
 21 20  2  0  0  0  0
 21 22  1  0  0  0  0
 22 23  1  0  0  0  0
 23 24  1  0  0  0  0
 24 25  1  0  0  0  0
 25 26  1  0  0  0  0
 26 27  1  6  0  0  0
 26 28  1  0  0  0  0
 29 28  1  1  0  0  0
 29 34  1  0  0  0  0
 29 33  1  0  0  0  0
 32 31  1  0  0  0  0
 32 30  1  0  0  0  0
 33 31  1  0  0  0  0
 34 32  1  0  0  0  0
 35 41  1  0  0  0  0
 36 37  1  0  0  0  0
 37 38  2  0  0  0  0
 37 42  2  0  0  0  0
 39 43  1  0  0  0  0
 40 36  1  0  0  0  0
 41 39  2  0  0  0  0
 41 40  1  0  0  0  0
 43 37  1  0  0  0  0
M  END
>  <MODEL>
2

>  <REMARK>
 VINA RESULT:      -6.6      1.344      2.231
  Name = 
  12 active torsions:
  status: ('A' for Active; 'I' for Inactive)
    1  A    between atoms: C_1  and  C_34
    2  A    between atoms: C_1  and  C_35
    3  A    between atoms: C_2  and  C_6
    4  A    between atoms: C_2  and  C_13
    5  A    between atoms: C_4  and  C_12
    6  A    between atoms: C_4  and  C_15
    7  A    between atoms: C_6  and  C_12
    8  A    between atoms: C_10  and  C_22
    9  A    between atoms: C_10  and  C_42
   10  A    between atoms: C_11  and  N_14
   11  A    between atoms: N_14  and  C_22
   12  A    between atoms: C_15  and  C_42
                            x       y       z     vdW  Elec       q    Type
                         _______ _______ _______ _____ _____    ______ ____

>  <TORSDO>
F 12

$$$$
=
 OpenBabel10272414083D

 43 47  0  0  1  0  0  0  0  0999 V2000
  196.0290  174.7320  135.2410 C   0  0  1  0  0  3  0  0  0  0  0  0
  190.9910  174.4710  135.7580 C   0  0  1  0  0  3  0  0  0  0  0  0
  190.0990  176.7650  137.1610 C   0  0  0  0  0  0  0  0  0  0  0  0
  193.7780  174.3070  136.3570 C   0  0  0  0  0  0  0  0  0  0  0  0
  195.2680  175.7380  134.4760 N   0  0  0  0  0  2  0  0  0  0  0  0
  197.3300  175.3240  135.7510 C   0  0  0  0  0  1  0  0  0  0  0  0
  193.3150  175.4700  135.8500 C   0  0  0  0  0  0  0  0  0  0  0  0
  195.2620  174.0690  136.4050 C   0  0  0  0  0  2  0  0  0  0  0  0
  194.3070  176.4490  135.3210 C   0  0  0  0  0  2  0  0  0  0  0  0
  191.4190  176.7100  136.6900 O   0  0  0  0  0  0  0  0  0  0  0  0
  191.8390  175.7580  135.7050 C   0  0  2  0  0  3  0  0  0  0  0  0
  191.4110  173.6120  136.9430 C   0  0  0  0  0  2  0  0  0  0  0  0
  189.5010  174.8070  135.8220 C   0  0  1  0  0  3  0  0  0  0  0  0
  189.2300  175.8580  136.8100 N   0  0  0  0  0  0  0  0  0  0  0  0
  192.8630  173.1730  136.7530 C   0  0  0  0  0  2  0  0  0  0  0  0
  189.6960  177.8520  138.1200 C   0  0  1  0  0  3  0  0  0  0  0  0
  189.0620  179.0050  137.3440 C   0  0  0  0  0  1  0  0  0  0  0  0
  188.7880  177.2810  139.2260 C   0  0  2  0  0  3  0  0  0  0  0  0
  187.7250  178.2650  139.7000 C   0  0  0  0  0  1  0  0  0  0  0  0
  190.6820  176.2690  140.2220 O   0  0  0  0  0  0  0  0  0  0  0  0
  189.6110  176.8420  140.4020 C   0  0  0  0  0  0  0  0  0  0  0  0
  189.1550  177.1490  141.7900 C   0  0  0  0  0  2  0  0  0  0  0  0
  190.2750  176.8870  142.7770 C   0  0  0  0  0  2  0  0  0  0  0  0
  190.1360  177.8120  143.9700 C   0  0  0  0  0  2  0  0  0  0  0  0
  188.6650  178.0470  144.2590 C   0  0  0  0  0  2  0  0  0  0  0  0
  188.4000  177.9780  145.7570 C   0  0  2  0  0  3  0  0  0  0  0  0
  189.3080  176.9280  146.3750 C   0  0  0  0  0  1  0  0  0  0  0  0
  187.0130  177.6190  145.9970 N   0  0  0  0  0  2  0  0  0  0  0  0
  186.2880  178.8440  146.3100 C   0  0  2  0  0  3  0  0  0  0  0  0
  184.0860  178.4950  143.7280 C   0  0  0  0  0  1  0  0  0  0  0  0
  183.9900  178.3680  146.0230 N   0  0  0  0  0  2  0  0  0  0  0  0
  184.3370  179.2240  144.9620 N   0  0  0  0  0  0  0  0  0  0  0  0
  185.0230  178.5060  147.0390 C   0  0  0  0  0  2  0  0  0  0  0  0
  185.7780  179.4590  145.0330 C   0  0  0  0  0  2  0  0  0  0  0  0
  189.0170  175.2420  134.4400 C   0  0  0  0  0  2  0  0  0  0  0  0
  185.6810  175.2480  135.9860 C   0  0  0  0  0  2  0  0  0  0  0  0
  185.1220  176.9330  135.7850 S   0  0  0  0  0  0  0  0  0  0  0  0
  183.6460  176.9520  135.4930 O   0  0  0  0  0  0  0  0  0  0  0  0
  187.3980  177.0740  134.3460 C   0  0  0  0  0  3  0  0  0  0  0  0
  186.4790  174.8090  134.7570 C   0  0  0  0  0  2  0  0  0  0  0  0
  187.6180  175.7580  134.4850 C   0  0  0  0  0  0  0  0  0  0  0  0
  185.4010  177.7070  137.0430 O   0  0  0  0  0  0  0  0  0  0  0  0
  186.0170  177.6620  134.4210 C   0  0  0  0  0  2  0  0  0  0  0  0
  1  6  1  1  0  0  0
  1  8  1  0  0  0  0
  2 13  1  0  0  0  0
  2 12  1  1  0  0  0
  3 16  1  0  0  0  0
  4  8  1  0  0  0  0
  4 15  1  0  0  0  0
  5  1  1  0  0  0  0
  5  9  1  0  0  0  0
  7  4  2  0  0  0  0
  9  7  1  0  0  0  0
 10  3  1  0  0  0  0
 11  2  1  0  0  0  0
 11  7  1  1  0  0  0
 11 10  1  0  0  0  0
 13 35  1  6  0  0  0
 13 14  1  0  0  0  0
 14  3  2  0  0  0  0
 15 12  1  0  0  0  0
 16 17  1  6  0  0  0
 16 18  1  0  0  0  0
 18 19  1  1  0  0  0
 18 21  1  0  0  0  0
 20 21  2  0  0  0  0
 21 22  1  0  0  0  0
 22 23  1  0  0  0  0
 23 24  1  0  0  0  0
 24 25  1  0  0  0  0
 25 26  1  0  0  0  0
 26 28  1  0  0  0  0
 26 27  1  6  0  0  0
 29 28  1  6  0  0  0
 29 33  1  0  0  0  0
 30 32  1  0  0  0  0
 31 33  1  0  0  0  0
 32 34  1  0  0  0  0
 32 31  1  0  0  0  0
 34 29  1  0  0  0  0
 35 41  1  0  0  0  0
 37 36  1  0  0  0  0
 37 42  2  0  0  0  0
 38 37  2  0  0  0  0
 39 43  1  0  0  0  0
 39 41  2  0  0  0  0
 40 36  1  0  0  0  0
 41 40  1  0  0  0  0
 43 37  1  0  0  0  0
M  END
>  <MODEL>
3

>  <REMARK>
 VINA RESULT:      -6.1      3.194      6.681
  Name = 
  12 active torsions:
  status: ('A' for Active; 'I' for Inactive)
    1  A    between atoms: C_1  and  C_34
    2  A    between atoms: C_1  and  C_35
    3  A    between atoms: C_2  and  C_6
    4  A    between atoms: C_2  and  C_13
    5  A    between atoms: C_4  and  C_12
    6  A    between atoms: C_4  and  C_15
    7  A    between atoms: C_6  and  C_12
    8  A    between atoms: C_10  and  C_22
    9  A    between atoms: C_10  and  C_42
   10  A    between atoms: C_11  and  N_14
   11  A    between atoms: N_14  and  C_22
   12  A    between atoms: C_15  and  C_42
                            x       y       z     vdW  Elec       q    Type
                         _______ _______ _______ _____ _____    ______ ____

>  <TORSDO>
F 12

$$$$
=
 OpenBabel10272414083D

 43 47  0  0  1  0  0  0  0  0999 V2000
  188.7200  177.4440  143.4050 C   0  0  1  0  0  3  0  0  0  0  0  0
  189.1000  176.5910  138.4200 C   0  0  1  0  0  3  0  0  0  0  0  0
  191.8400  176.3520  137.7430 C   0  0  0  0  0  0  0  0  0  0  0  0
  189.1010  177.9440  140.9360 C   0  0  0  0  0  0  0  0  0  0  0  0
  189.2090  176.1020  143.0350 N   0  0  0  0  0  2  0  0  0  0  0  0
  189.4080  177.9300  144.6670 C   0  0  0  0  0  1  0  0  0  0  0  0
  189.8410  176.8180  140.8290 C   0  0  0  0  0  0  0  0  0  0  0  0
  188.8310  178.5150  142.3000 C   0  0  0  0  0  2  0  0  0  0  0  0
  190.3210  176.1730  142.0860 C   0  0  0  0  0  2  0  0  0  0  0  0
  191.4570  176.3610  139.0920 O   0  0  0  0  0  0  0  0  0  0  0  0
  190.1020  176.1440  139.5040 C   0  0  2  0  0  3  0  0  0  0  0  0
  188.9810  178.1100  138.4090 C   0  0  0  0  0  2  0  0  0  0  0  0
  189.5130  176.0610  137.0480 C   0  0  1  0  0  3  0  0  0  0  0  0
  190.9440  176.2730  136.7990 N   0  0  0  0  0  0  0  0  0  0  0  0
  188.4150  178.5780  139.7500 C   0  0  0  0  0  2  0  0  0  0  0  0
  193.2940  176.4850  137.3810 C   0  0  1  0  0  3  0  0  0  0  0  0
  194.1380  175.6740  138.3620 C   0  0  0  0  0  1  0  0  0  0  0  0
  193.5170  176.0950  135.9070 C   0  0  2  0  0  3  0  0  0  0  0  0
  193.5080  174.5890  135.6760 C   0  0  0  0  0  1  0  0  0  0  0  0
  195.0710  177.8500  135.5770 O   0  0  0  0  0  0  0  0  0  0  0  0
  194.8150  176.6610  135.4090 C   0  0  0  0  0  0  0  0  0  0  0  0
  195.8190  175.7690  134.7570 C   0  0  0  0  0  2  0  0  0  0  0  0
  197.2220  176.1990  135.1340 C   0  0  0  0  0  2  0  0  0  0  0  0
  197.9760  175.0280  135.7340 C   0  0  0  0  0  2  0  0  0  0  0  0
  197.0460  173.8340  135.8470 C   0  0  0  0  0  2  0  0  0  0  0  0
  196.8890  173.4190  137.3040 C   0  0  2  0  0  3  0  0  0  0  0  0
  197.7560  174.3150  138.1720 C   0  0  0  0  0  1  0  0  0  0  0  0
  197.3040  172.0370  137.4710 N   0  0  0  0  0  2  0  0  0  0  0  0
  196.3910  171.2060  136.6960 C   0  0  2  0  0  3  0  0  0  0  0  0
  197.1660  168.3440  138.3830 C   0  0  0  0  0  1  0  0  0  0  0  0
  195.3420  169.7380  138.2240 N   0  0  0  0  0  2  0  0  0  0  0  0
  196.2100  168.9360  137.4600 N   0  0  0  0  0  0  0  0  0  0  0  0
  195.1360  170.9720  137.4820 C   0  0  0  0  0  2  0  0  0  0  0  0
  196.9650  169.8190  136.5720 C   0  0  0  0  0  2  0  0  0  0  0  0
  189.1730  174.5750  136.9530 C   0  0  0  0  0  2  0  0  0  0  0  0
  185.6890  173.5180  137.4730 C   0  0  0  0  0  2  0  0  0  0  0  0
  184.7570  174.5760  136.3770 S   0  0  0  0  0  0  0  0  0  0  0  0
  183.6160  173.8070  135.7690 O   0  0  0  0  0  0  0  0  0  0  0  0
  187.2460  175.2910  135.6270 C   0  0  0  0  0  3  0  0  0  0  0  0
  187.0210  173.1330  136.8250 C   0  0  0  0  0  2  0  0  0  0  0  0
  187.7980  174.3580  136.4160 C   0  0  0  0  0  0  0  0  0  0  0  0
  184.2220  175.7510  137.1470 O   0  0  0  0  0  0  0  0  0  0  0  0
  185.8510  175.1520  135.0870 C   0  0  0  0  0  2  0  0  0  0  0  0
  1  6  1  1  0  0  0
  2 12  1  6  0  0  0
  2 11  1  0  0  0  0
  3 10  1  0  0  0  0
  4  8  1  0  0  0  0
  5  1  1  0  0  0  0
  7  4  2  0  0  0  0
  7  9  1  0  0  0  0
  8  1  1  0  0  0  0
  9  5  1  0  0  0  0
 11 10  1  6  0  0  0
 11  7  1  0  0  0  0
 12 15  1  0  0  0  0
 13 35  1  1  0  0  0
 13  2  1  0  0  0  0
 14 13  1  0  0  0  0
 14  3  2  0  0  0  0
 15  4  1  0  0  0  0
 16  3  1  0  0  0  0
 16 17  1  1  0  0  0
 18 19  1  1  0  0  0
 18 16  1  0  0  0  0
 21 20  2  0  0  0  0
 21 18  1  0  0  0  0
 22 23  1  0  0  0  0
 22 21  1  0  0  0  0
 23 24  1  0  0  0  0
 24 25  1  0  0  0  0
 25 26  1  0  0  0  0
 26 28  1  0  0  0  0
 26 27  1  1  0  0  0
 29 28  1  1  0  0  0
 29 33  1  0  0  0  0
 32 31  1  0  0  0  0
 32 30  1  0  0  0  0
 33 31  1  0  0  0  0
 34 29  1  0  0  0  0
 34 32  1  0  0  0  0
 37 42  2  0  0  0  0
 37 36  1  0  0  0  0
 38 37  2  0  0  0  0
 39 41  2  0  0  0  0
 40 36  1  0  0  0  0
 41 40  1  0  0  0  0
 41 35  1  0  0  0  0
 43 39  1  0  0  0  0
 43 37  1  0  0  0  0
M  END
>  <MODEL>
4

>  <REMARK>
 VINA RESULT:      -5.9      4.542     11.322
  Name = 
  12 active torsions:
  status: ('A' for Active; 'I' for Inactive)
    1  A    between atoms: C_1  and  C_34
    2  A    between atoms: C_1  and  C_35
    3  A    between atoms: C_2  and  C_6
    4  A    between atoms: C_2  and  C_13
    5  A    between atoms: C_4  and  C_12
    6  A    between atoms: C_4  and  C_15
    7  A    between atoms: C_6  and  C_12
    8  A    between atoms: C_10  and  C_22
    9  A    between atoms: C_10  and  C_42
   10  A    between atoms: C_11  and  N_14
   11  A    between atoms: N_14  and  C_22
   12  A    between atoms: C_15  and  C_42
                            x       y       z     vdW  Elec       q    Type
                         _______ _______ _______ _____ _____    ______ ____

>  <TORSDO>
F 12

$$$$
=
 OpenBabel10272414083D

 43 47  0  0  1  0  0  0  0  0999 V2000
  189.5510  177.2050  144.3270 C   0  0  1  0  0  3  0  0  0  0  0  0
  188.4880  177.3080  139.3680 C   0  0  1  0  0  3  0  0  0  0  0  0
  190.8300  176.6430  137.9210 C   0  0  0  0  0  0  0  0  0  0  0  0
  189.4400  178.0990  141.9430 C   0  0  0  0  0  0  0  0  0  0  0  0
  189.5790  175.8930  143.6530 N   0  0  0  0  0  2  0  0  0  0  0  0
  190.6230  177.2750  145.3980 C   0  0  0  0  0  1  0  0  0  0  0  0
  189.8210  176.8880  141.4790 C   0  0  0  0  0  0  0  0  0  0  0  0
  189.6610  178.4290  143.3920 C   0  0  0  0  0  2  0  0  0  0  0  0
  190.4090  175.9200  142.4480 C   0  0  0  0  0  2  0  0  0  0  0  0
  190.8000  176.4620  139.3110 O   0  0  0  0  0  0  0  0  0  0  0  0
  189.5750  176.4540  140.0540 C   0  0  2  0  0  3  0  0  0  0  0  0
  188.7600  178.7890  139.6000 C   0  0  0  0  0  2  0  0  0  0  0  0
  188.4100  176.9890  137.8760 C   0  0  1  0  0  3  0  0  0  0  0  0
  189.7440  176.9430  137.2660 N   0  0  0  0  0  0  0  0  0  0  0  0
  188.6730  179.0860  141.0960 C   0  0  0  0  0  2  0  0  0  0  0  0
  192.1390  176.5400  137.1860 C   0  0  1  0  0  3  0  0  0  0  0  0
  193.2790  176.4110  138.1940 C   0  0  0  0  0  1  0  0  0  0  0  0
  192.0900  175.3900  136.1620 C   0  0  2  0  0  3  0  0  0  0  0  0
  191.0050  175.5700  135.1070 C   0  0  0  0  0  1  0  0  0  0  0  0
  190.7890  173.8080  137.3490 O   0  0  0  0  0  0  0  0  0  0  0  0
  191.8830  174.0780  136.8610 C   0  0  0  0  0  0  0  0  0  0  0  0
  192.9880  173.0770  136.9160 C   0  0  0  0  0  2  0  0  0  0  0  0
  193.2310  172.4890  135.5400 C   0  0  0  0  0  2  0  0  0  0  0  0
  194.7150  172.2660  135.3300 C   0  0  0  0  0  2  0  0  0  0  0  0
  195.3050  171.6000  136.5600 C   0  0  0  0  0  2  0  0  0  0  0  0
  196.5020  172.3920  137.0700 C   0  0  2  0  0  3  0  0  0  0  0  0
  197.7580  171.5510  136.9130 C   0  0  0  0  0  1  0  0  0  0  0  0
  196.3140  172.7210  138.4720 N   0  0  0  0  0  2  0  0  0  0  0  0
  196.1350  174.1640  138.5660 C   0  0  2  0  0  3  0  0  0  0  0  0
  199.4250  174.7820  139.2240 C   0  0  0  0  0  1  0  0  0  0  0  0
  197.9820  175.1530  137.4700 N   0  0  0  0  0  2  0  0  0  0  0  0
  198.1700  175.4110  138.8420 N   0  0  0  0  0  0  0  0  0  0  0  0
  196.5800  174.8090  137.2880 C   0  0  0  0  0  2  0  0  0  0  0  0
  197.1070  174.7220  139.5720 C   0  0  0  0  0  2  0  0  0  0  0  0
  187.6910  175.6550  137.6780 C   0  0  0  0  0  2  0  0  0  0  0  0
  184.0400  175.2770  137.4520 C   0  0  0  0  0  2  0  0  0  0  0  0
  183.5280  176.6740  136.4650 S   0  0  0  0  0  0  0  0  0  0  0  0
  182.4010  176.2730  135.5530 O   0  0  0  0  0  0  0  0  0  0  0  0
  186.1990  176.9700  136.2520 C   0  0  0  0  0  3  0  0  0  0  0  0
  185.3780  174.7370  136.9450 C   0  0  0  0  0  2  0  0  0  0  0  0
  186.4220  175.8240  136.9100 C   0  0  0  0  0  0  0  0  0  0  0  0
  183.0770  177.7890  137.3680 O   0  0  0  0  0  0  0  0  0  0  0  0
  184.9260  177.2180  135.4940 C   0  0  0  0  0  2  0  0  0  0  0  0
  1  6  1  1  0  0  0
  2 12  1  6  0  0  0
  2 11  1  0  0  0  0
  3 10  1  0  0  0  0
  4  8  1  0  0  0  0
  5  1  1  0  0  0  0
  7  4  2  0  0  0  0
  7  9  1  0  0  0  0
  8  1  1  0  0  0  0
  9  5  1  0  0  0  0
 11 10  1  6  0  0  0
 11  7  1  0  0  0  0
 12 15  1  0  0  0  0
 13 35  1  1  0  0  0
 13  2  1  0  0  0  0
 14 13  1  0  0  0  0
 14  3  2  0  0  0  0
 15  4  1  0  0  0  0
 16  3  1  0  0  0  0
 16 17  1  1  0  0  0
 18 19  1  6  0  0  0
 18 21  1  0  0  0  0
 18 16  1  0  0  0  0
 21 22  1  0  0  0  0
 21 20  2  0  0  0  0
 23 22  1  0  0  0  0
 24 23  1  0  0  0  0
 24 25  1  0  0  0  0
 25 26  1  0  0  0  0
 26 27  1  1  0  0  0
 26 28  1  0  0  0  0
 29 28  1  6  0  0  0
 29 34  1  0  0  0  0
 31 32  1  0  0  0  0
 32 30  1  0  0  0  0
 32 34  1  0  0  0  0
 33 31  1  0  0  0  0
 33 29  1  0  0  0  0
 37 42  2  0  0  0  0
 37 36  1  0  0  0  0
 38 37  2  0  0  0  0
 39 41  2  0  0  0  0
 40 36  1  0  0  0  0
 41 40  1  0  0  0  0
 41 35  1  0  0  0  0
 43 39  1  0  0  0  0
 43 37  1  0  0  0  0
M  END
>  <MODEL>
5

>  <REMARK>
 VINA RESULT:      -5.2      4.226     10.638
  Name = 
  12 active torsions:
  status: ('A' for Active; 'I' for Inactive)
    1  A    between atoms: C_1  and  C_34
    2  A    between atoms: C_1  and  C_35
    3  A    between atoms: C_2  and  C_6
    4  A    between atoms: C_2  and  C_13
    5  A    between atoms: C_4  and  C_12
    6  A    between atoms: C_4  and  C_15
    7  A    between atoms: C_6  and  C_12
    8  A    between atoms: C_10  and  C_22
    9  A    between atoms: C_10  and  C_42
   10  A    between atoms: C_11  and  N_14
   11  A    between atoms: N_14  and  C_22
   12  A    between atoms: C_15  and  C_42
                            x       y       z     vdW  Elec       q    Type
                         _______ _______ _______ _____ _____    ______ ____

>  <TORSDO>
F 12

$$$$
=
 OpenBabel10272414083D

 43 47  0  0  1  0  0  0  0  0999 V2000
  190.8810  177.8640  142.4440 C   0  0  1  0  0  3  0  0  0  0  0  0
  189.2640  177.7220  137.6390 C   0  0  1  0  0  3  0  0  0  0  0  0
  187.8450  175.3060  137.2260 C   0  0  0  0  0  0  0  0  0  0  0  0
  190.8350  177.2370  139.9750 C   0  0  0  0  0  0  0  0  0  0  0  0
  189.4190  177.9600  142.2720 N   0  0  0  0  0  2  0  0  0  0  0  0
  191.2180  177.0730  143.6950 C   0  0  0  0  0  1  0  0  0  0  0  0
  189.5040  177.0240  140.0600 C   0  0  0  0  0  0  0  0  0  0  0  0
  191.6510  177.2880  141.2370 C   0  0  0  0  0  2  0  0  0  0  0  0
  188.9020  176.8900  141.4180 C   0  0  0  0  0  2  0  0  0  0  0  0
  188.1960  175.6900  138.5280 O   0  0  0  0  0  0  0  0  0  0  0  0
  188.6050  177.0250  138.8470 C   0  0  2  0  0  3  0  0  0  0  0  0
  190.6840  177.2050  137.4440 C   0  0  0  0  0  2  0  0  0  0  0  0
  188.4270  177.5240  136.3760 C   0  0  1  0  0  3  0  0  0  0  0  0
  188.0050  176.1270  136.2260 N   0  0  0  0  0  0  0  0  0  0  0  0
  191.5210  177.5660  138.6700 C   0  0  0  0  0  2  0  0  0  0  0  0
  187.3270  173.9160  136.9740 C   0  0  1  0  0  3  0  0  0  0  0  0
  185.8400  173.8570  137.3210 C   0  0  0  0  0  1  0  0  0  0  0  0
  187.6400  173.4810  135.5300 C   0  0  2  0  0  3  0  0  0  0  0  0
  186.3940  173.1530  134.7170 C   0  0  0  0  0  1  0  0  0  0  0  0
  188.1190  171.1830  135.8320 O   0  0  0  0  0  0  0  0  0  0  0  0
  188.5540  172.2910  135.5300 C   0  0  0  0  0  0  0  0  0  0  0  0
  189.9790  172.4410  135.1120 C   0  0  0  0  0  2  0  0  0  0  0  0
  190.5870  173.6700  135.7580 C   0  0  0  0  0  2  0  0  0  0  0  0
  192.0700  173.4530  135.9850 C   0  0  0  0  0  2  0  0  0  0  0  0
  192.4590  174.0000  137.3460 C   0  0  0  0  0  2  0  0  0  0  0  0
  193.8470  174.6240  137.2910 C   0  0  2  0  0  3  0  0  0  0  0  0
  193.8280  175.7950  136.3230 C   0  0  0  0  0  1  0  0  0  0  0  0
  194.8130  173.6390  136.8390 N   0  0  0  0  0  2  0  0  0  0  0  0
  195.5290  173.1520  138.0120 C   0  0  2  0  0  3  0  0  0  0  0  0
  198.5650  174.2750  136.9360 C   0  0  0  0  0  1  0  0  0  0  0  0
  197.0840  174.8310  138.6070 N   0  0  0  0  0  2  0  0  0  0  0  0
  197.8500  173.7660  138.0960 N   0  0  0  0  0  0  0  0  0  0  0  0
  195.7780  174.2900  138.9550 C   0  0  0  0  0  2  0  0  0  0  0  0
  196.9220  172.7450  137.6110 C   0  0  0  0  0  2  0  0  0  0  0  0
  187.2080  178.4430  136.4250 C   0  0  0  0  0  2  0  0  0  0  0  0
  183.7490  178.0140  137.5990 C   0  0  0  0  0  2  0  0  0  0  0  0
  182.9190  177.2590  136.2090 S   0  0  0  0  0  0  0  0  0  0  0  0
  181.9170  176.2480  136.6970 O   0  0  0  0  0  0  0  0  0  0  0  0
  185.4450  177.2040  135.2660 C   0  0  0  0  0  3  0  0  0  0  0  0
  185.1760  177.4750  137.7150 C   0  0  0  0  0  2  0  0  0  0  0  0
  185.9330  177.6660  136.4260 C   0  0  0  0  0  0  0  0  0  0  0  0
  182.2190  178.3200  135.4060 O   0  0  0  0  0  0  0  0  0  0  0  0
  184.1470  176.4500  135.1940 C   0  0  0  0  0  2  0  0  0  0  0  0
  1  6  1  1  0  0  0
  2 12  1  6  0  0  0
  2 11  1  0  0  0  0
  3 10  1  0  0  0  0
  4  7  2  0  0  0  0
  4  8  1  0  0  0  0
  5  1  1  0  0  0  0
  7  9  1  0  0  0  0
  8  1  1  0  0  0  0
  9  5  1  0  0  0  0
 11 10  1  6  0  0  0
 11  7  1  0  0  0  0
 12 15  1  0  0  0  0
 13 35  1  1  0  0  0
 13  2  1  0  0  0  0
 14 13  1  0  0  0  0
 14  3  2  0  0  0  0
 15  4  1  0  0  0  0
 16  3  1  0  0  0  0
 16 17  1  6  0  0  0
 18 19  1  1  0  0  0
 18 16  1  0  0  0  0
 21 18  1  0  0  0  0
 21 20  2  0  0  0  0
 22 21  1  0  0  0  0
 22 23  1  0  0  0  0
 23 24  1  0  0  0  0
 24 25  1  0  0  0  0
 26 27  1  6  0  0  0
 26 25  1  0  0  0  0
 28 26  1  0  0  0  0
 29 28  1  6  0  0  0
 29 33  1  0  0  0  0
 30 32  1  0  0  0  0
 31 33  1  0  0  0  0
 32 31  1  0  0  0  0
 34 29  1  0  0  0  0
 34 32  1  0  0  0  0
 35 41  1  0  0  0  0
 36 40  1  0  0  0  0
 37 38  2  0  0  0  0
 37 36  1  0  0  0  0
 39 41  2  0  0  0  0
 41 40  1  0  0  0  0
 42 37  2  0  0  0  0
 43 39  1  0  0  0  0
 43 37  1  0  0  0  0
M  END
>  <MODEL>
6

>  <REMARK>
 VINA RESULT:      -4.9      4.134      9.831
  Name = 
  12 active torsions:
  status: ('A' for Active; 'I' for Inactive)
    1  A    between atoms: C_1  and  C_34
    2  A    between atoms: C_1  and  C_35
    3  A    between atoms: C_2  and  C_6
    4  A    between atoms: C_2  and  C_13
    5  A    between atoms: C_4  and  C_12
    6  A    between atoms: C_4  and  C_15
    7  A    between atoms: C_6  and  C_12
    8  A    between atoms: C_10  and  C_22
    9  A    between atoms: C_10  and  C_42
   10  A    between atoms: C_11  and  N_14
   11  A    between atoms: N_14  and  C_22
   12  A    between atoms: C_15  and  C_42
                            x       y       z     vdW  Elec       q    Type
                         _______ _______ _______ _____ _____    ______ ____

>  <TORSDO>
F 12

$$$$
=
 OpenBabel10272414083D

 43 47  0  0  1  0  0  0  0  0999 V2000
  189.1290  177.3120  143.8750 C   0  0  1  0  0  3  0  0  0  0  0  0
  188.5930  176.8790  138.8510 C   0  0  1  0  0  3  0  0  0  0  0  0
  191.1320  176.3600  137.7050 C   0  0  0  0  0  0  0  0  0  0  0  0
  189.1810  177.9840  141.4180 C   0  0  0  0  0  0  0  0  0  0  0  0
  189.3620  175.9590  143.3350 N   0  0  0  0  0  2  0  0  0  0  0  0
  190.0680  177.5920  145.0340 C   0  0  0  0  0  1  0  0  0  0  0  0
  189.7310  176.7900  141.1100 C   0  0  0  0  0  0  0  0  0  0  0  0
  189.2110  178.4580  142.8440 C   0  0  0  0  0  2  0  0  0  0  0  0
  190.3090  175.9770  142.2190 C   0  0  0  0  0  2  0  0  0  0  0  0
  190.9720  176.2940  139.0970 O   0  0  0  0  0  0  0  0  0  0  0  0
  189.6830  176.2120  139.7150 C   0  0  2  0  0  3  0  0  0  0  0  0
  188.6860  178.3950  138.9650 C   0  0  0  0  0  2  0  0  0  0  0  0
  188.7070  176.4290  137.3950 C   0  0  1  0  0  3  0  0  0  0  0  0
  190.0950  176.4820  136.9230 N   0  0  0  0  0  0  0  0  0  0  0  0
  188.4100  178.8060  140.4120 C   0  0  0  0  0  2  0  0  0  0  0  0
  192.5140  176.3430  137.1130 C   0  0  1  0  0  3  0  0  0  0  0  0
  193.5450  176.5360  138.2240 C   0  0  0  0  0  1  0  0  0  0  0  0
  192.7290  175.0580  136.2900 C   0  0  2  0  0  3  0  0  0  0  0  0
  192.2360  173.8010  136.9980 C   0  0  0  0  0  1  0  0  0  0  0  0
  194.8890  174.1480  136.6230 O   0  0  0  0  0  0  0  0  0  0  0  0
  194.1810  174.8930  135.9500 C   0  0  0  0  0  0  0  0  0  0  0  0
  194.7550  175.5900  134.7610 C   0  0  0  0  0  2  0  0  0  0  0  0
  195.5000  176.8360  135.1950 C   0  0  0  0  0  2  0  0  0  0  0  0
  196.9820  176.6710  134.9230 C   0  0  0  0  0  2  0  0  0  0  0  0
  197.2400  175.2900  134.3480 C   0  0  0  0  0  2  0  0  0  0  0  0
  198.4610  174.6600  135.0040 C   0  0  2  0  0  3  0  0  0  0  0  0
  199.7170  175.2410  134.3780 C   0  0  0  0  0  1  0  0  0  0  0  0
  198.4420  173.2220  134.8030 N   0  0  0  0  0  2  0  0  0  0  0  0
  199.2440  172.6190  135.8600 C   0  0  2  0  0  3  0  0  0  0  0  0
  196.5850  171.0840  137.3480 C   0  0  0  0  0  1  0  0  0  0  0  0
  198.4370  170.4160  136.1570 N   0  0  0  0  0  2  0  0  0  0  0  0
  198.0390  171.1250  137.3060 N   0  0  0  0  0  0  0  0  0  0  0  0
  199.5060  171.1800  135.5320 C   0  0  0  0  0  2  0  0  0  0  0  0
  198.4210  172.5240  137.1170 C   0  0  0  0  0  2  0  0  0  0  0  0
  188.1530  175.0120  137.2560 C   0  0  0  0  0  2  0  0  0  0  0  0
  184.4780  175.0580  137.3810 C   0  0  0  0  0  2  0  0  0  0  0  0
  184.0140  175.9540  135.9070 S   0  0  0  0  0  0  0  0  0  0  0  0
  182.7690  175.3530  135.3130 O   0  0  0  0  0  0  0  0  0  0  0  0
  186.6680  175.7740  135.4670 C   0  0  0  0  0  3  0  0  0  0  0  0
  185.7000  174.1820  137.1010 C   0  0  0  0  0  2  0  0  0  0  0  0
  186.8390  175.0010  136.5490 C   0  0  0  0  0  0  0  0  0  0  0  0
  183.7670  177.3960  136.2530 O   0  0  0  0  0  0  0  0  0  0  0  0
  185.3580  175.8400  134.7350 C   0  0  0  0  0  2  0  0  0  0  0  0
  1  6  1  1  0  0  0
  2 12  1  6  0  0  0
  2 11  1  0  0  0  0
  3 10  1  0  0  0  0
  4  8  1  0  0  0  0
  5  1  1  0  0  0  0
  7  4  2  0  0  0  0
  7  9  1  0  0  0  0
  8  1  1  0  0  0  0
  9  5  1  0  0  0  0
 11 10  1  6  0  0  0
 11  7  1  0  0  0  0
 12 15  1  0  0  0  0
 13 35  1  1  0  0  0
 13  2  1  0  0  0  0
 14 13  1  0  0  0  0
 14  3  2  0  0  0  0
 15  4  1  0  0  0  0
 16  3  1  0  0  0  0
 16 17  1  1  0  0  0
 18 19  1  1  0  0  0
 18 16  1  0  0  0  0
 21 18  1  0  0  0  0
 21 20  2  0  0  0  0
 22 23  1  0  0  0  0
 22 21  1  0  0  0  0
 24 23  1  0  0  0  0
 25 24  1  0  0  0  0
 25 26  1  0  0  0  0
 26 27  1  6  0  0  0
 28 26  1  0  0  0  0
 29 28  1  6  0  0  0
 29 34  1  0  0  0  0
 31 32  1  0  0  0  0
 32 30  1  0  0  0  0
 33 29  1  0  0  0  0
 33 31  1  0  0  0  0
 34 32  1  0  0  0  0
 37 42  2  0  0  0  0
 37 36  1  0  0  0  0
 38 37  2  0  0  0  0
 39 41  2  0  0  0  0
 40 36  1  0  0  0  0
 41 40  1  0  0  0  0
 41 35  1  0  0  0  0
 43 39  1  0  0  0  0
 43 37  1  0  0  0  0
M  END
>  <MODEL>
7

>  <REMARK>
 VINA RESULT:      -4.6      4.605     11.748
  Name = 
  12 active torsions:
  status: ('A' for Active; 'I' for Inactive)
    1  A    between atoms: C_1  and  C_34
    2  A    between atoms: C_1  and  C_35
    3  A    between atoms: C_2  and  C_6
    4  A    between atoms: C_2  and  C_13
    5  A    between atoms: C_4  and  C_12
    6  A    between atoms: C_4  and  C_15
    7  A    between atoms: C_6  and  C_12
    8  A    between atoms: C_10  and  C_22
    9  A    between atoms: C_10  and  C_42
   10  A    between atoms: C_11  and  N_14
   11  A    between atoms: N_14  and  C_22
   12  A    between atoms: C_15  and  C_42
                            x       y       z     vdW  Elec       q    Type
                         _______ _______ _______ _____ _____    ______ ____

>  <TORSDO>
F 12

$$$$
=
 OpenBabel10272414083D

 43 47  0  0  1  0  0  0  0  0999 V2000
  184.5790  179.1570  144.2560 C   0  0  1  0  0  3  0  0  0  0  0  0
  189.0010  176.8930  143.2340 C   0  0  1  0  0  3  0  0  0  0  0  0
  189.6640  177.3710  140.5210 C   0  0  0  0  0  0  0  0  0  0  0  0
  186.1920  177.3890  143.3810 C   0  0  0  0  0  0  0  0  0  0  0  0
  185.7050  180.0730  143.9870 N   0  0  0  0  0  2  0  0  0  0  0  0
  183.2860  179.7270  143.7040 C   0  0  0  0  0  1  0  0  0  0  0  0
  186.9750  178.3650  142.8700 C   0  0  0  0  0  0  0  0  0  0  0  0
  184.7720  177.7100  143.7540 C   0  0  0  0  0  2  0  0  0  0  0  0
  186.3940  179.7330  142.7420 C   0  0  0  0  0  2  0  0  0  0  0  0
  188.6070  178.0780  141.1120 O   0  0  0  0  0  0  0  0  0  0  0  0
  188.4290  178.1420  142.5320 C   0  0  2  0  0  3  0  0  0  0  0  0
  188.0610  175.7080  143.0470 C   0  0  0  0  0  2  0  0  0  0  0  0
  190.4010  176.5720  142.7120 C   0  0  1  0  0  3  0  0  0  0  0  0
  190.4550  176.6300  141.2470 N   0  0  0  0  0  0  0  0  0  0  0  0
  186.7260  176.0180  143.7220 C   0  0  0  0  0  2  0  0  0  0  0  0
  189.8540  177.4260  139.0300 C   0  0  1  0  0  3  0  0  0  0  0  0
  190.9630  176.4570  138.6230 C   0  0  0  0  0  1  0  0  0  0  0  0
  188.5170  177.1690  138.3090 C   0  0  2  0  0  3  0  0  0  0  0  0
  188.5810  176.0150  137.3160 C   0  0  0  0  0  1  0  0  0  0  0  0
  188.7760  179.4090  137.5870 O   0  0  0  0  0  0  0  0  0  0  0  0
  188.0640  178.4080  137.5940 C   0  0  0  0  0  0  0  0  0  0  0  0
  186.7740  178.4100  136.8440 C   0  0  0  0  0  2  0  0  0  0  0  0
  185.6340  178.0240  137.7640 C   0  0  0  0  0  2  0  0  0  0  0  0
  184.7360  177.0130  137.0770 C   0  0  0  0  0  2  0  0  0  0  0  0
  183.6340  176.5860  138.0290 C   0  0  0  0  0  2  0  0  0  0  0  0
  182.2700  176.7630  137.3760 C   0  0  2  0  0  3  0  0  0  0  0  0
  182.4620  177.1950  135.9320 C   0  0  0  0  0  1  0  0  0  0  0  0
  181.5100  177.7760  138.0870 N   0  0  0  0  0  2  0  0  0  0  0  0
  181.9360  177.7500  139.4800 C   0  0  2  0  0  3  0  0  0  0  0  0
  180.1190  180.5040  140.3480 C   0  0  0  0  0  1  0  0  0  0  0  0
  180.0280  178.2470  140.7860 N   0  0  0  0  0  2  0  0  0  0  0  0
  180.8630  179.3750  140.8870 N   0  0  0  0  0  0  0  0  0  0  0  0
  180.8550  177.1430  140.3230 C   0  0  0  0  0  2  0  0  0  0  0  0
  182.0090  179.1600  140.0050 C   0  0  0  0  0  2  0  0  0  0  0  0
  191.4060  177.5500  143.3180 C   0  0  0  0  0  2  0  0  0  0  0  0
  189.2800  178.4700  146.1750 C   0  0  0  0  0  2  0  0  0  0  0  0
  189.7870  177.3410  147.4620 S   0  0  0  0  0  0  0  0  0  0  0  0
  189.7750  178.0420  148.7940 O   0  0  0  0  0  0  0  0  0  0  0  0
  191.6380  176.7120  145.6050 C   0  0  0  0  0  3  0  0  0  0  0  0
  190.4910  178.8930  145.3400 C   0  0  0  0  0  2  0  0  0  0  0  0
  191.2170  177.6910  144.7920 C   0  0  0  0  0  0  0  0  0  0  0  0
  188.8480  176.1670  147.4990 O   0  0  0  0  0  0  0  0  0  0  0  0
  191.4410  176.7740  147.0940 C   0  0  0  0  0  2  0  0  0  0  0  0
  1  6  1  6  0  0  0
  2 12  1  6  0  0  0
  3 10  1  0  0  0  0
  3 14  2  0  0  0  0
  4 15  1  0  0  0  0
  4  8  1  0  0  0  0
  5  1  1  0  0  0  0
  7  4  2  0  0  0  0
  8  1  1  0  0  0  0
  9  7  1  0  0  0  0
  9  5  1  0  0  0  0
 11 10  1  6  0  0  0
 11  7  1  0  0  0  0
 11  2  1  0  0  0  0
 12 15  1  0  0  0  0
 13  2  1  0  0  0  0
 13 35  1  1  0  0  0
 14 13  1  0  0  0  0
 16 17  1  6  0  0  0
 16  3  1  0  0  0  0
 18 19  1  6  0  0  0
 18 16  1  0  0  0  0
 20 21  2  0  0  0  0
 21 18  1  0  0  0  0
 22 21  1  0  0  0  0
 22 23  1  0  0  0  0
 24 23  1  0  0  0  0
 24 25  1  0  0  0  0
 26 27  1  6  0  0  0
 26 25  1  0  0  0  0
 26 28  1  0  0  0  0
 29 28  1  6  0  0  0
 29 34  1  0  0  0  0
 29 33  1  0  0  0  0
 30 32  1  0  0  0  0
 31 32  1  0  0  0  0
 33 31  1  0  0  0  0
 34 32  1  0  0  0  0
 35 41  1  0  0  0  0
 36 37  1  0  0  0  0
 37 42  2  0  0  0  0
 37 38  2  0  0  0  0
 39 43  1  0  0  0  0
 40 36  1  0  0  0  0
 41 40  1  0  0  0  0
 41 39  2  0  0  0  0
 43 37  1  0  0  0  0
M  END
>  <MODEL>
8

>  <REMARK>
 VINA RESULT:      -4.4      2.346      5.984
  Name = 
  12 active torsions:
  status: ('A' for Active; 'I' for Inactive)
    1  A    between atoms: C_1  and  C_34
    2  A    between atoms: C_1  and  C_35
    3  A    between atoms: C_2  and  C_6
    4  A    between atoms: C_2  and  C_13
    5  A    between atoms: C_4  and  C_12
    6  A    between atoms: C_4  and  C_15
    7  A    between atoms: C_6  and  C_12
    8  A    between atoms: C_10  and  C_22
    9  A    between atoms: C_10  and  C_42
   10  A    between atoms: C_11  and  N_14
   11  A    between atoms: N_14  and  C_22
   12  A    between atoms: C_15  and  C_42
                            x       y       z     vdW  Elec       q    Type
                         _______ _______ _______ _____ _____    ______ ____

>  <TORSDO>
F 12

$$$$
=
 OpenBabel10272414083D

 43 47  0  0  1  0  0  0  0  0999 V2000
  184.4850  179.3610  144.2390 C   0  0  1  0  0  3  0  0  0  0  0  0
  188.8160  176.9590  143.1450 C   0  0  1  0  0  3  0  0  0  0  0  0
  189.3400  177.2420  140.3760 C   0  0  0  0  0  0  0  0  0  0  0  0
  186.0260  177.5110  143.4030 C   0  0  0  0  0  0  0  0  0  0  0  0
  185.6070  180.2380  143.8500 N   0  0  0  0  0  2  0  0  0  0  0  0
  183.1730  179.9150  143.7170 C   0  0  0  0  0  1  0  0  0  0  0  0
  186.7930  178.4370  142.7880 C   0  0  0  0  0  0  0  0  0  0  0  0
  184.6320  177.8810  143.8280 C   0  0  0  0  0  2  0  0  0  0  0  0
  186.2250  179.8030  142.5970 C   0  0  0  0  0  2  0  0  0  0  0  0
  188.3260  178.0050  140.9710 O   0  0  0  0  0  0  0  0  0  0  0  0
  188.2240  178.1670  142.3910 C   0  0  2  0  0  3  0  0  0  0  0  0
  187.8520  175.7800  143.0880 C   0  0  0  0  0  2  0  0  0  0  0  0
  190.1820  176.5800  142.5740 C   0  0  1  0  0  3  0  0  0  0  0  0
  190.1590  176.5380  141.1080 N   0  0  0  0  0  0  0  0  0  0  0  0
  186.5580  176.1570  143.8090 C   0  0  0  0  0  2  0  0  0  0  0  0
  189.4530  177.1930  138.8760 C   0  0  1  0  0  3  0  0  0  0  0  0
  189.7240  178.5980  138.3410 C   0  0  0  0  0  1  0  0  0  0  0  0
  190.5110  176.1570  138.4510 C   0  0  2  0  0  3  0  0  0  0  0  0
  191.9010  176.7550  138.2740 C   0  0  0  0  0  1  0  0  0  0  0  0
  190.8850  175.4200  136.2330 O   0  0  0  0  0  0  0  0  0  0  0  0
  190.0990  175.4840  137.1740 C   0  0  0  0  0  0  0  0  0  0  0  0
  188.7550  174.8460  137.0650 C   0  0  0  0  0  2  0  0  0  0  0  0
  188.2480  174.9350  135.6400 C   0  0  0  0  0  2  0  0  0  0  0  0
  186.9170  175.6600  135.6100 C   0  0  0  0  0  2  0  0  0  0  0  0
  186.5730  176.1410  137.0080 C   0  0  0  0  0  2  0  0  0  0  0  0
  186.0390  177.5670  136.9630 C   0  0  2  0  0  3  0  0  0  0  0  0
  186.9530  178.4130  136.0930 C   0  0  0  0  0  1  0  0  0  0  0  0
  185.9990  178.1210  138.3050 N   0  0  0  0  0  2  0  0  0  0  0  0
  184.7130  178.7880  138.4680 C   0  0  2  0  0  3  0  0  0  0  0  0
  182.9770  175.8800  138.8800 C   0  0  0  0  0  1  0  0  0  0  0  0
  183.5780  177.6600  140.2090 N   0  0  0  0  0  2  0  0  0  0  0  0
  182.8910  177.3250  139.0270 N   0  0  0  0  0  0  0  0  0  0  0  0
  184.3630  178.8510  139.9240 C   0  0  0  0  0  2  0  0  0  0  0  0
  183.6250  177.9120  137.9060 C   0  0  0  0  0  2  0  0  0  0  0  0
  191.2310  177.5790  143.0600 C   0  0  0  0  0  2  0  0  0  0  0  0
  189.3910  178.4610  146.1190 C   0  0  0  0  0  2  0  0  0  0  0  0
  190.0790  177.3730  147.3570 S   0  0  0  0  0  0  0  0  0  0  0  0
  190.1830  178.0940  148.6740 O   0  0  0  0  0  0  0  0  0  0  0  0
  191.7420  176.7870  145.3170 C   0  0  0  0  0  3  0  0  0  0  0  0
  190.4850  178.9170  145.1530 C   0  0  0  0  0  2  0  0  0  0  0  0
  191.1960  177.7360  144.5430 C   0  0  0  0  0  0  0  0  0  0  0  0
  189.1980  176.1640  147.5090 O   0  0  0  0  0  0  0  0  0  0  0  0
  191.7050  176.8660  146.8180 C   0  0  0  0  0  2  0  0  0  0  0  0
  1  6  1  6  0  0  0
  2 12  1  6  0  0  0
  3 10  1  0  0  0  0
  3 14  2  0  0  0  0
  4 15  1  0  0  0  0
  4  8  1  0  0  0  0
  5  1  1  0  0  0  0
  7  4  2  0  0  0  0
  8  1  1  0  0  0  0
  9  7  1  0  0  0  0
  9  5  1  0  0  0  0
 11 10  1  6  0  0  0
 11  7  1  0  0  0  0
 11  2  1  0  0  0  0
 12 15  1  0  0  0  0
 13 35  1  6  0  0  0
 13  2  1  0  0  0  0
 14 13  1  0  0  0  0
 16 17  1  1  0  0  0
 16  3  1  0  0  0  0
 18 19  1  6  0  0  0
 18 16  1  0  0  0  0
 20 21  2  0  0  0  0
 21 18  1  0  0  0  0
 22 21  1  0  0  0  0
 23 22  1  0  0  0  0
 24 23  1  0  0  0  0
 24 25  1  0  0  0  0
 26 27  1  6  0  0  0
 26 25  1  0  0  0  0
 26 28  1  0  0  0  0
 29 28  1  1  0  0  0
 29 33  1  0  0  0  0
 30 32  1  0  0  0  0
 32 31  1  0  0  0  0
 33 31  1  0  0  0  0
 34 29  1  0  0  0  0
 34 32  1  0  0  0  0
 35 41  1  0  0  0  0
 36 37  1  0  0  0  0
 37 42  2  0  0  0  0
 37 38  2  0  0  0  0
 39 43  1  0  0  0  0
 40 36  1  0  0  0  0
 41 40  1  0  0  0  0
 41 39  2  0  0  0  0
 43 37  1  0  0  0  0
M  END
>  <MODEL>
9

>  <REMARK>
 VINA RESULT:      -4.4      2.319      6.645
  Name = 
  12 active torsions:
  status: ('A' for Active; 'I' for Inactive)
    1  A    between atoms: C_1  and  C_34
    2  A    between atoms: C_1  and  C_35
    3  A    between atoms: C_2  and  C_6
    4  A    between atoms: C_2  and  C_13
    5  A    between atoms: C_4  and  C_12
    6  A    between atoms: C_4  and  C_15
    7  A    between atoms: C_6  and  C_12
    8  A    between atoms: C_10  and  C_22
    9  A    between atoms: C_10  and  C_42
   10  A    between atoms: C_11  and  N_14
   11  A    between atoms: N_14  and  C_22
   12  A    between atoms: C_15  and  C_42
                            x       y       z     vdW  Elec       q    Type
                         _______ _______ _______ _____ _____    ______ ____

>  <TORSDO>
F 12

$$$$
