=
 OpenBabel10272413543D

 30 33  0  0  0  0  0  0  0  0999 V2000
  188.6280  177.8250  144.2990 N   0  0  0  0  0  0  0  0  0  0  0  0
  189.4890  177.6430  146.5260 C   0  0  0  0  0  0  0  0  0  0  0  0
  184.7310  178.4000  145.6950 C   0  0  0  0  0  3  0  0  0  0  0  0
  187.6260  177.9880  143.3930 C   0  0  0  0  0  0  0  0  0  0  0  0
  183.6910  178.6160  144.7870 C   0  0  0  0  0  3  0  0  0  0  0  0
  189.2650  177.6360  147.9050 C   0  0  0  0  0  3  0  0  0  0  0  0
  191.1290  177.4250  145.9330 Cl  0  0  0  0  0  0  0  0  0  0  0  0
  186.0450  178.1950  145.2420 C   0  0  0  0  0  0  0  0  0  0  0  0
  187.9730  177.8090  148.4090 C   0  0  0  0  0  3  0  0  0  0  0  0
  188.4140  177.8230  145.6410 C   0  0  0  0  0  0  0  0  0  0  0  0
  186.3070  178.1970  143.8490 C   0  0  0  0  0  0  0  0  0  0  0  0
  183.9540  178.6340  143.4170 C   0  0  0  0  0  3  0  0  0  0  0  0
  185.2530  178.4280  142.9510 C   0  0  0  0  0  3  0  0  0  0  0  0
  186.9000  177.9920  147.5360 C   0  0  0  0  0  3  0  0  0  0  0  0
  187.1060  178.0020  146.1470 C   0  0  0  0  0  0  0  0  0  0  0  0
  188.8600  176.7550  140.2170 O   0  0  0  0  0  0  0  0  0  0  0  0
  188.9440  177.0900  141.4300 C   0  0  0  0  0  0  0  0  0  0  0  0
  187.9490  177.9690  141.9900 N   0  0  0  0  0  0  0  0  0  0  0  0
  191.2760  177.2550  142.4370 C   0  0  0  0  0  3  0  0  0  0  0  0
  190.1090  175.4310  142.8980 N   0  0  0  0  0  0  0  0  0  0  0  0
  190.0830  176.5940  142.2280 C   0  0  0  0  0  0  0  0  0  0  0  0
  192.0070  176.4540  143.2360 N   0  0  0  0  0  2  0  0  0  0  0  0
  191.2880  175.3730  143.4940 N   0  0  0  0  0  0  0  0  0  0  0  0
  187.3110  178.9550  141.1250 C   0  0  0  0  0  2  0  0  0  0  0  0
  187.0550  178.3550  139.7520 C   0  0  0  0  0  2  0  0  0  0  0  0
  184.9730  179.5670  139.5850 N   0  0  0  0  0  0  0  0  0  0  0  0
  185.6100  178.4540  139.4110 C   0  0  0  0  0  3  0  0  0  0  0  0
  183.1290  180.7950  138.8240 O   0  0  0  0  0  0  0  0  0  0  0  0
  183.5850  179.7090  139.2720 C   0  0  0  0  0  0  0  0  0  0  0  0
  182.6680  178.5580  139.4780 C   0  0  0  0  0  1  0  0  0  0  0  0
  1 10  1  0  0  0  0
  2  6  1  0  0  0  0
  4 11  1  0  0  0  0
  4  1  2  0  0  0  0
  5  3  2  0  0  0  0
  6  9  2  0  0  0  0
  7  2  1  0  0  0  0
  8  3  1  0  0  0  0
  8 15  1  0  0  0  0
 10 15  1  0  0  0  0
 10  2  2  0  0  0  0
 11  8  2  0  0  0  0
 12  5  1  0  0  0  0
 13 12  2  0  0  0  0
 13 11  1  0  0  0  0
 14  9  1  0  0  0  0
 15 14  2  0  0  0  0
 16 17  2  0  0  0  0
 17 18  1  0  0  0  0
 17 21  1  0  0  0  0
 18  4  1  0  0  0  0
 19 22  1  0  0  0  0
 20 23  2  0  0  0  0
 21 19  2  0  0  0  0
 21 20  1  0  0  0  0
 22 23  1  0  0  0  0
 24 18  1  0  0  0  0
 25 24  1  0  0  0  0
 27 26  2  0  0  0  0
 27 25  1  0  0  0  0
 28 29  2  0  0  0  0
 29 30  1  0  0  0  0
 29 26  1  0  0  0  0
M  END
>  <MODEL>
1

>  <REMARK>
 VINA RESULT:      -9.4      0.000      0.000
  Name = 
  6 active torsions:
  status: ('A' for Active; 'I' for Inactive)
    1  A    between atoms: C_4  and  N_13
    2  A    between atoms: N_7  and  C_15
    3  A    between atoms: C_8  and  C_12
    4  A    between atoms: N_13  and  C_27
    5  A    between atoms: C_16  and  C_30
    6  A    between atoms: C_27  and  C_30
                            x       y       z     vdW  Elec       q    Type
                         _______ _______ _______ _____ _____    ______ ____

>  <TORSDO>
F 6

$$$$
=
 OpenBabel10272413543D

 30 33  0  0  1  0  0  0  0  0999 V2000
  184.4210  178.6370  139.5880 N   0  0  0  0  0  0  0  0  0  0  0  0
  186.7730  178.4240  139.1980 C   0  0  0  0  0  0  0  0  0  0  0  0
  184.9630  178.7040  143.7320 C   0  0  0  0  0  3  0  0  0  0  0  0
  183.3260  178.7400  140.3900 C   0  0  0  0  0  0  0  0  0  0  0  0
  183.8610  178.8550  144.5750 C   0  0  0  0  0  3  0  0  0  0  0  0
  188.0710  178.3140  139.7050 C   0  0  0  0  0  3  0  0  0  0  0  0
  186.5400  178.4200  137.4560 Cl  0  0  0  0  0  0  0  0  0  0  0  0
  184.7970  178.6690  142.3370 C   0  0  0  0  0  0  0  0  0  0  0  0
  188.2910  178.3170  141.0840 C   0  0  0  0  0  3  0  0  0  0  0  0
  185.6840  178.5360  140.0770 C   0  0  0  0  0  0  0  0  0  0  0  0
  183.4940  178.7780  141.7910 C   0  0  0  0  0  0  0  0  0  0  0  0
  182.5800  178.9800  144.0350 C   0  0  0  0  0  3  0  0  0  0  0  0
  182.3980  178.9430  142.6520 C   0  0  0  0  0  3  0  0  0  0  0  0
  187.2140  178.4310  141.9640 C   0  0  0  0  0  3  0  0  0  0  0  0
  185.9020  178.5410  141.4740 C   0  0  0  0  0  0  0  0  0  0  0  0
  180.1490  177.6850  139.0020 O   0  0  0  0  0  0  0  0  0  0  0  0
  181.4070  177.7360  139.0840 C   0  0  0  0  0  0  0  0  0  0  0  0
  182.0250  178.8360  139.7800 N   0  0  0  0  0  0  0  0  0  0  0  0
  182.6430  176.6820  137.1250 C   0  0  0  0  0  3  0  0  0  0  0  0
  182.6500  175.5640  139.0360 N   0  0  0  0  0  0  0  0  0  0  0  0
  182.2040  176.6780  138.4330 C   0  0  1  0  0  3  0  0  0  0  0  0
  183.3480  175.5450  136.9680 N   0  0  0  0  0  0  0  0  0  0  0  0
  183.3350  174.8970  138.1230 N   0  0  0  0  0  0  0  0  0  0  0  0
  181.3590  180.1320  139.7820 C   0  0  0  0  0  2  0  0  0  0  0  0
  181.1690  180.6230  138.3560 C   0  0  0  0  0  2  0  0  0  0  0  0
  181.1210  182.7960  137.3040 N   0  0  0  0  0  0  0  0  0  0  0  0
  181.6000  182.0430  138.2410 C   0  0  0  0  0  3  0  0  0  0  0  0
  182.4930  184.6340  137.7820 O   0  0  0  0  0  0  0  0  0  0  0  0
  181.5060  184.1650  137.1540 C   0  0  0  0  0  0  0  0  0  0  0  0
  180.7290  185.0470  136.2440 C   0  0  0  0  0  1  0  0  0  0  0  0
  1 10  2  0  0  0  0
  1  4  1  0  0  0  0
  2  6  2  0  0  0  0
  2 10  1  0  0  0  0
  3  5  2  0  0  0  0
  4 11  2  0  0  0  0
  6  9  1  0  0  0  0
  7  2  1  0  0  0  0
  8  3  1  0  0  0  0
  9 14  2  0  0  0  0
 10 15  1  0  0  0  0
 11  8  1  0  0  0  0
 11 13  1  0  0  0  0
 12  5  1  0  0  0  0
 13 12  2  0  0  0  0
 15 14  1  0  0  0  0
 15  8  2  0  0  0  0
 16 17  2  0  0  0  0
 17 18  1  0  0  0  0
 18 24  1  0  0  0  0
 18  4  1  0  0  0  0
 19 21  1  0  0  0  0
 21 20  1  0  0  0  0
 21 17  1  1  0  0  0
 22 19  2  0  0  0  0
 22 23  1  0  0  0  0
 23 20  2  0  0  0  0
 25 24  1  0  0  0  0
 26 27  2  0  0  0  0
 27 25  1  0  0  0  0
 29 26  1  0  0  0  0
 29 28  2  0  0  0  0
 30 29  1  0  0  0  0
M  END
>  <MODEL>
2

>  <REMARK>
 VINA RESULT:      -8.8      4.584      6.734
  Name = 
  6 active torsions:
  status: ('A' for Active; 'I' for Inactive)
    1  A    between atoms: C_4  and  N_13
    2  A    between atoms: N_7  and  C_15
    3  A    between atoms: C_8  and  C_12
    4  A    between atoms: N_13  and  C_27
    5  A    between atoms: C_16  and  C_30
    6  A    between atoms: C_27  and  C_30
                            x       y       z     vdW  Elec       q    Type
                         _______ _______ _______ _____ _____    ______ ____

>  <TORSDO>
F 6

$$$$
=
 OpenBabel10272413543D

 30 33  0  0  1  0  0  0  0  0999 V2000
  186.4670  177.6480  142.6230 N   0  0  0  0  0  0  0  0  0  0  0  0
  184.1980  178.2110  142.1080 C   0  0  0  0  0  0  0  0  0  0  0  0
  185.9380  178.5770  146.6630 C   0  0  0  0  0  3  0  0  0  0  0  0
  187.5250  177.5150  143.4690 C   0  0  0  0  0  0  0  0  0  0  0  0
  186.9940  178.4060  147.5610 C   0  0  0  0  0  3  0  0  0  0  0  0
  182.9480  178.6700  142.5310 C   0  0  0  0  0  3  0  0  0  0  0  0
  184.4210  177.7960  140.4150 Cl  0  0  0  0  0  0  0  0  0  0  0  0
  186.1020  178.2790  145.3000 C   0  0  0  0  0  0  0  0  0  0  0  0
  182.7360  179.0060  143.8700 C   0  0  0  0  0  3  0  0  0  0  0  0
  185.2490  178.0880  143.0320 C   0  0  0  0  0  0  0  0  0  0  0  0
  187.3580  177.8120  144.8390 C   0  0  0  0  0  0  0  0  0  0  0  0
  188.2250  177.9290  147.1080 C   0  0  0  0  0  3  0  0  0  0  0  0
  188.4050  177.6320  145.7560 C   0  0  0  0  0  3  0  0  0  0  0  0
  183.7750  178.8830  144.7950 C   0  0  0  0  0  3  0  0  0  0  0  0
  185.0390  178.4240  144.3890 C   0  0  0  0  0  0  0  0  0  0  0  0
  190.5560  177.4570  141.4850 O   0  0  0  0  0  0  0  0  0  0  0  0
  189.3100  177.4890  141.6780 C   0  0  0  0  0  0  0  0  0  0  0  0
  188.7800  177.0460  142.9430 N   0  0  0  0  0  0  0  0  0  0  0  0
  188.2610  177.3280  139.3650 C   0  0  0  0  0  3  0  0  0  0  0  0
  187.6430  179.0360  140.6310 N   0  0  0  0  0  0  0  0  0  0  0  0
  188.4330  177.9500  140.5840 C   0  0  1  0  0  3  0  0  0  0  0  0
  187.3620  178.0720  138.6940 N   0  0  0  0  0  0  0  0  0  0  0  0
  187.0110  179.0850  139.4710 N   0  0  0  0  0  0  0  0  0  0  0  0
  189.4870  176.0040  143.6770 C   0  0  0  0  0  2  0  0  0  0  0  0
  190.9790  176.2940  143.6890 C   0  0  0  0  0  2  0  0  0  0  0  0
  191.5250  175.9390  146.0140 N   0  0  0  0  0  0  0  0  0  0  0  0
  191.3980  176.7740  145.0330 C   0  0  0  0  0  3  0  0  0  0  0  0
  191.5000  177.4320  147.8190 O   0  0  0  0  0  0  0  0  0  0  0  0
  191.9250  176.3540  147.3230 C   0  0  0  0  0  0  0  0  0  0  0  0
  192.8550  175.5020  148.1070 C   0  0  0  0  0  1  0  0  0  0  0  0
  1 10  2  0  0  0  0
  1  4  1  0  0  0  0
  2  6  2  0  0  0  0
  2 10  1  0  0  0  0
  3  5  2  0  0  0  0
  4 11  2  0  0  0  0
  6  9  1  0  0  0  0
  7  2  1  0  0  0  0
  8  3  1  0  0  0  0
  9 14  2  0  0  0  0
 10 15  1  0  0  0  0
 11  8  1  0  0  0  0
 11 13  1  0  0  0  0
 12  5  1  0  0  0  0
 13 12  2  0  0  0  0
 15 14  1  0  0  0  0
 15  8  2  0  0  0  0
 16 17  2  0  0  0  0
 17 18  1  0  0  0  0
 18  4  1  0  0  0  0
 18 24  1  0  0  0  0
 19 21  1  0  0  0  0
 21 20  1  0  0  0  0
 21 17  1  1  0  0  0
 22 19  2  0  0  0  0
 22 23  1  0  0  0  0
 23 20  2  0  0  0  0
 24 25  1  0  0  0  0
 25 27  1  0  0  0  0
 26 29  1  0  0  0  0
 27 26  2  0  0  0  0
 29 28  2  0  0  0  0
 29 30  1  0  0  0  0
M  END
>  <MODEL>
3

>  <REMARK>
 VINA RESULT:      -8.7      2.793      6.413
  Name = 
  6 active torsions:
  status: ('A' for Active; 'I' for Inactive)
    1  A    between atoms: C_4  and  N_13
    2  A    between atoms: N_7  and  C_15
    3  A    between atoms: C_8  and  C_12
    4  A    between atoms: N_13  and  C_27
    5  A    between atoms: C_16  and  C_30
    6  A    between atoms: C_27  and  C_30
                            x       y       z     vdW  Elec       q    Type
                         _______ _______ _______ _____ _____    ______ ____

>  <TORSDO>
F 6

$$$$
=
 OpenBabel10272413543D

 30 33  0  0  0  0  0  0  0  0999 V2000
  188.0980  177.5730  143.9490 N   0  0  0  0  0  0  0  0  0  0  0  0
  187.7510  177.6960  146.3140 C   0  0  0  0  0  0  0  0  0  0  0  0
  184.2460  178.9890  143.1590 C   0  0  0  0  0  3  0  0  0  0  0  0
  187.7030  177.7070  142.6530 C   0  0  0  0  0  0  0  0  0  0  0  0
  183.8310  179.1790  141.8390 C   0  0  0  0  0  3  0  0  0  0  0  0
  186.9110  177.9900  147.3930 C   0  0  0  0  0  3  0  0  0  0  0  0
  189.3790  177.1230  146.6390 Cl  0  0  0  0  0  0  0  0  0  0  0  0
  185.5340  178.5040  143.4420 C   0  0  0  0  0  0  0  0  0  0  0  0
  185.6120  178.4500  147.1690 C   0  0  0  0  0  3  0  0  0  0  0  0
  187.2870  177.8630  144.9990 C   0  0  0  0  0  0  0  0  0  0  0  0
  186.4100  178.1970  142.3700 C   0  0  0  0  0  0  0  0  0  0  0  0
  184.7010  178.8920  140.7860 C   0  0  0  0  0  3  0  0  0  0  0  0
  185.9820  178.4070  141.0500 C   0  0  0  0  0  3  0  0  0  0  0  0
  185.1450  178.6210  145.8650 C   0  0  0  0  0  3  0  0  0  0  0  0
  185.9730  178.3310  144.7680 C   0  0  0  0  0  0  0  0  0  0  0  0
  190.6770  176.3890  141.0570 O   0  0  0  0  0  0  0  0  0  0  0  0
  190.0290  177.1250  141.8510 C   0  0  0  0  0  0  0  0  0  0  0  0
  188.6310  177.3690  141.6060 N   0  0  0  0  0  0  0  0  0  0  0  0
  191.4860  177.0680  143.9380 C   0  0  0  0  0  3  0  0  0  0  0  0
  190.7900  179.0550  143.2520 N   0  0  0  0  0  0  0  0  0  0  0  0
  190.7400  177.7380  142.9910 C   0  0  0  0  0  0  0  0  0  0  0  0
  191.9680  178.0140  144.7660 N   0  0  0  0  0  2  0  0  0  0  0  0
  191.5370  179.1890  144.3350 N   0  0  0  0  0  0  0  0  0  0  0  0
  188.1480  177.3790  140.2300 C   0  0  0  0  0  2  0  0  0  0  0  0
  188.8990  178.4240  139.4210 C   0  0  0  0  0  2  0  0  0  0  0  0
  187.3880  177.8880  137.6150 N   0  0  0  0  0  0  0  0  0  0  0  0
  188.5620  178.2950  137.9780 C   0  0  0  0  0  3  0  0  0  0  0  0
  187.8290  178.0400  135.3190 O   0  0  0  0  0  0  0  0  0  0  0  0
  187.0200  177.7490  136.2400 C   0  0  0  0  0  0  0  0  0  0  0  0
  185.6610  177.2550  135.8940 C   0  0  0  0  0  1  0  0  0  0  0  0
  1 10  1  0  0  0  0
  2  7  1  0  0  0  0
  2  6  1  0  0  0  0
  3  8  1  0  0  0  0
  4  1  2  0  0  0  0
  5  3  2  0  0  0  0
  8 15  1  0  0  0  0
  9  6  2  0  0  0  0
 10  2  2  0  0  0  0
 11  4  1  0  0  0  0
 11  8  2  0  0  0  0
 12 13  2  0  0  0  0
 12  5  1  0  0  0  0
 13 11  1  0  0  0  0
 14  9  1  0  0  0  0
 15 10  1  0  0  0  0
 15 14  2  0  0  0  0
 16 17  2  0  0  0  0
 17 21  1  0  0  0  0
 18 17  1  0  0  0  0
 18  4  1  0  0  0  0
 19 22  1  0  0  0  0
 20 23  2  0  0  0  0
 21 20  1  0  0  0  0
 21 19  2  0  0  0  0
 23 22  1  0  0  0  0
 24 18  1  0  0  0  0
 25 24  1  0  0  0  0
 26 27  2  0  0  0  0
 27 25  1  0  0  0  0
 28 29  2  0  0  0  0
 29 26  1  0  0  0  0
 30 29  1  0  0  0  0
M  END
>  <MODEL>
4

>  <REMARK>
 VINA RESULT:      -8.7      2.046      2.782
  Name = 
  6 active torsions:
  status: ('A' for Active; 'I' for Inactive)
    1  A    between atoms: C_4  and  N_13
    2  A    between atoms: N_7  and  C_15
    3  A    between atoms: C_8  and  C_12
    4  A    between atoms: N_13  and  C_27
    5  A    between atoms: C_16  and  C_30
    6  A    between atoms: C_27  and  C_30
                            x       y       z     vdW  Elec       q    Type
                         _______ _______ _______ _____ _____    ______ ____

>  <TORSDO>
F 6

$$$$
=
 OpenBabel10272413543D

 30 33  0  0  0  0  0  0  0  0999 V2000
  188.4960  177.4950  144.7220 N   0  0  0  0  0  0  0  0  0  0  0  0
  188.7340  177.5210  147.1040 C   0  0  0  0  0  0  0  0  0  0  0  0
  184.5480  178.8470  144.9520 C   0  0  0  0  0  3  0  0  0  0  0  0
  187.7950  177.6680  143.5680 C   0  0  0  0  0  0  0  0  0  0  0  0
  183.8230  179.0770  143.7810 C   0  0  0  0  0  3  0  0  0  0  0  0
  188.1790  177.7540  148.3650 C   0  0  0  0  0  3  0  0  0  0  0  0
  190.4010  176.9750  146.9990 Cl  0  0  0  0  0  0  0  0  0  0  0  0
  185.8730  178.3830  144.8920 C   0  0  0  0  0  0  0  0  0  0  0  0
  186.8570  178.1920  148.4840 C   0  0  0  0  0  3  0  0  0  0  0  0
  187.9620  177.7260  145.9490 C   0  0  0  0  0  0  0  0  0  0  0  0
  186.4660  178.1370  143.6290 C   0  0  0  0  0  0  0  0  0  0  0  0
  184.4130  178.8510  142.5370 C   0  0  0  0  0  3  0  0  0  0  0  0
  185.7270  178.3870  142.4620 C   0  0  0  0  0  3  0  0  0  0  0  0
  186.0850  178.4000  147.3400 C   0  0  0  0  0  3  0  0  0  0  0  0
  186.6250  178.1710  146.0640 C   0  0  0  0  0  0  0  0  0  0  0  0
  190.3320  176.5270  141.2450 O   0  0  0  0  0  0  0  0  0  0  0  0
  189.8700  177.2190  142.1940 C   0  0  0  0  0  0  0  0  0  0  0  0
  188.4450  177.3920  142.3130 N   0  0  0  0  0  0  0  0  0  0  0  0
  190.9100  179.2070  143.3950 C   0  0  0  0  0  3  0  0  0  0  0  0
  191.7030  177.2020  143.9000 N   0  0  0  0  0  0  0  0  0  0  0  0
  190.8150  177.8560  143.1330 C   0  0  0  0  0  0  0  0  0  0  0  0
  191.8770  179.3360  144.3240 N   0  0  0  0  0  2  0  0  0  0  0  0
  192.3330  178.1250  144.6060 N   0  0  0  0  0  0  0  0  0  0  0  0
  187.6310  177.3910  141.1030 C   0  0  0  0  0  2  0  0  0  0  0  0
  188.1680  178.4130  140.1140 C   0  0  0  0  0  2  0  0  0  0  0  0
  188.0690  178.6950  137.7180 N   0  0  0  0  0  0  0  0  0  0  0  0
  188.0680  177.8840  138.7270 C   0  0  0  0  0  3  0  0  0  0  0  0
  186.8840  178.2890  135.7380 O   0  0  0  0  0  0  0  0  0  0  0  0
  187.9740  178.2330  136.3680 C   0  0  0  0  0  0  0  0  0  0  0  0
  189.1800  177.6790  135.6990 C   0  0  0  0  0  1  0  0  0  0  0  0
  1 10  1  0  0  0  0
  2  6  1  0  0  0  0
  4 11  1  0  0  0  0
  4  1  2  0  0  0  0
  5  3  2  0  0  0  0
  6  9  2  0  0  0  0
  7  2  1  0  0  0  0
  8  3  1  0  0  0  0
  8 15  1  0  0  0  0
 10 15  1  0  0  0  0
 10  2  2  0  0  0  0
 11  8  2  0  0  0  0
 12  5  1  0  0  0  0
 13 12  2  0  0  0  0
 13 11  1  0  0  0  0
 14  9  1  0  0  0  0
 15 14  2  0  0  0  0
 16 17  2  0  0  0  0
 17 18  1  0  0  0  0
 17 21  1  0  0  0  0
 18  4  1  0  0  0  0
 19 22  1  0  0  0  0
 20 23  2  0  0  0  0
 21 19  2  0  0  0  0
 21 20  1  0  0  0  0
 22 23  1  0  0  0  0
 24 18  1  0  0  0  0
 25 24  1  0  0  0  0
 26 27  2  0  0  0  0
 27 25  1  0  0  0  0
 28 29  2  0  0  0  0
 29 26  1  0  0  0  0
 30 29  1  0  0  0  0
M  END
>  <MODEL>
5

>  <REMARK>
 VINA RESULT:      -8.5      1.947      2.533
  Name = 
  6 active torsions:
  status: ('A' for Active; 'I' for Inactive)
    1  A    between atoms: C_4  and  N_13
    2  A    between atoms: N_7  and  C_15
    3  A    between atoms: C_8  and  C_12
    4  A    between atoms: N_13  and  C_27
    5  A    between atoms: C_16  and  C_30
    6  A    between atoms: C_27  and  C_30
                            x       y       z     vdW  Elec       q    Type
                         _______ _______ _______ _____ _____    ______ ____

>  <TORSDO>
F 6

$$$$
=
 OpenBabel10272413543D

 30 33  0  0  1  0  0  0  0  0999 V2000
  185.6980  178.6910  139.5500 N   0  0  0  0  0  0  0  0  0  0  0  0
  188.0390  178.2730  139.8280 C   0  0  0  0  0  0  0  0  0  0  0  0
  185.0210  178.4940  143.6690 C   0  0  0  0  0  3  0  0  0  0  0  0
  184.4290  178.8580  140.0130 C   0  0  0  0  0  0  0  0  0  0  0  0
  183.7370  178.7080  144.1740 C   0  0  0  0  0  3  0  0  0  0  0  0
  189.1220  178.0140  140.6720 C   0  0  0  0  0  3  0  0  0  0  0  0
  188.3200  178.3800  138.0970 Cl  0  0  0  0  0  0  0  0  0  0  0  0
  185.2640  178.5470  142.2860 C   0  0  0  0  0  0  0  0  0  0  0  0
  188.9330  177.9250  142.0540 C   0  0  0  0  0  3  0  0  0  0  0  0
  186.7530  178.4440  140.3680 C   0  0  0  0  0  0  0  0  0  0  0  0
  184.1870  178.8080  141.4020 C   0  0  0  0  0  0  0  0  0  0  0  0
  182.6810  178.9820  143.3040 C   0  0  0  0  0  3  0  0  0  0  0  0
  182.9050  179.0340  141.9270 C   0  0  0  0  0  3  0  0  0  0  0  0
  187.6590  178.0970  142.5980 C   0  0  0  0  0  3  0  0  0  0  0  0
  186.5580  178.3580  141.7650 C   0  0  0  0  0  0  0  0  0  0  0  0
  181.5110  178.2490  137.9530 O   0  0  0  0  0  0  0  0  0  0  0  0
  182.6870  178.0540  138.3650 C   0  0  0  0  0  0  0  0  0  0  0  0
  183.3720  179.1090  139.0680 N   0  0  0  0  0  0  0  0  0  0  0  0
  182.9920  175.5420  138.6380 C   0  0  0  0  0  3  0  0  0  0  0  0
  184.3350  176.5680  137.2080 N   0  0  0  0  0  0  0  0  0  0  0  0
  183.3340  176.7580  138.0820 C   0  0  1  0  0  3  0  0  0  0  0  0
  183.8190  174.6360  138.0810 N   0  0  0  0  0  0  0  0  0  0  0  0
  184.6100  175.2750  137.2330 N   0  0  0  0  0  0  0  0  0  0  0  0
  183.0600  180.4940  138.7380 C   0  0  0  0  0  2  0  0  0  0  0  0
  181.5730  180.7500  138.9160 C   0  0  0  0  0  2  0  0  0  0  0  0
  181.4630  182.9000  137.8210 N   0  0  0  0  0  0  0  0  0  0  0  0
  181.0790  181.6650  137.8510 C   0  0  0  0  0  3  0  0  0  0  0  0
  180.7920  185.0240  137.0960 O   0  0  0  0  0  0  0  0  0  0  0  0
  181.0140  183.8150  136.8180 C   0  0  0  0  0  0  0  0  0  0  0  0
  180.8070  183.3310  135.4280 C   0  0  0  0  0  1  0  0  0  0  0  0
  1  4  2  0  0  0  0
  1 10  1  0  0  0  0
  2 10  2  0  0  0  0
  2  6  1  0  0  0  0
  3  5  1  0  0  0  0
  4 11  1  0  0  0  0
  6  9  2  0  0  0  0
  7  2  1  0  0  0  0
  8  3  2  0  0  0  0
  9 14  1  0  0  0  0
 10 15  1  0  0  0  0
 11 13  2  0  0  0  0
 11  8  1  0  0  0  0
 12  5  2  0  0  0  0
 13 12  1  0  0  0  0
 15  8  1  0  0  0  0
 15 14  2  0  0  0  0
 16 17  2  0  0  0  0
 17 18  1  0  0  0  0
 18  4  1  0  0  0  0
 20 23  2  0  0  0  0
 20 21  1  0  0  0  0
 21 17  1  6  0  0  0
 21 19  1  0  0  0  0
 22 19  2  0  0  0  0
 23 22  1  0  0  0  0
 24 25  1  0  0  0  0
 24 18  1  0  0  0  0
 26 27  2  0  0  0  0
 27 25  1  0  0  0  0
 29 28  2  0  0  0  0
 29 26  1  0  0  0  0
 30 29  1  0  0  0  0
M  END
>  <MODEL>
6

>  <REMARK>
 VINA RESULT:      -8.5      4.050      6.148
  Name = 
  6 active torsions:
  status: ('A' for Active; 'I' for Inactive)
    1  A    between atoms: C_4  and  N_13
    2  A    between atoms: N_7  and  C_15
    3  A    between atoms: C_8  and  C_12
    4  A    between atoms: N_13  and  C_27
    5  A    between atoms: C_16  and  C_30
    6  A    between atoms: C_27  and  C_30
                            x       y       z     vdW  Elec       q    Type
                         _______ _______ _______ _____ _____    ______ ____

>  <TORSDO>
F 6

$$$$
=
 OpenBabel10272413543D

 30 33  0  0  0  0  0  0  0  0999 V2000
  185.3630  178.7020  142.5050 N   0  0  0  0  0  0  0  0  0  0  0  0
  184.1510  178.9480  144.5550 C   0  0  0  0  0  0  0  0  0  0  0  0
  188.6190  176.9630  144.4660 C   0  0  0  0  0  3  0  0  0  0  0  0
  186.4500  178.3360  141.7710 C   0  0  0  0  0  0  0  0  0  0  0  0
  189.7270  176.5370  143.7310 C   0  0  0  0  0  3  0  0  0  0  0  0
  184.0890  178.7880  145.9420 C   0  0  0  0  0  3  0  0  0  0  0  0
  182.7760  179.6560  143.7210 Cl  0  0  0  0  0  0  0  0  0  0  0  0
  187.5200  177.5590  143.8230 C   0  0  0  0  0  0  0  0  0  0  0  0
  185.1640  178.2260  146.6350 C   0  0  0  0  0  3  0  0  0  0  0  0
  185.2980  178.5430  143.8520 C   0  0  0  0  0  0  0  0  0  0  0  0
  187.5510  177.7350  142.4170 C   0  0  0  0  0  0  0  0  0  0  0  0
  189.7480  176.6960  142.3440 C   0  0  0  0  0  3  0  0  0  0  0  0
  188.6670  177.2880  141.6920 C   0  0  0  0  0  3  0  0  0  0  0  0
  186.3060  177.8180  145.9430 C   0  0  0  0  0  3  0  0  0  0  0  0
  186.3870  177.9710  144.5490 C   0  0  0  0  0  0  0  0  0  0  0  0
  185.2660  179.4290  138.5260 O   0  0  0  0  0  0  0  0  0  0  0  0
  185.2150  178.7880  139.6110 C   0  0  0  0  0  0  0  0  0  0  0  0
  186.4300  178.5490  140.3480 N   0  0  0  0  0  0  0  0  0  0  0  0
  182.8380  179.0410  140.4870 C   0  0  0  0  0  3  0  0  0  0  0  0
  183.5620  176.9800  140.1260 N   0  0  0  0  0  0  0  0  0  0  0  0
  183.9090  178.2760  140.0730 C   0  0  0  0  0  0  0  0  0  0  0  0
  181.8580  178.1700  140.7930 N   0  0  0  0  0  2  0  0  0  0  0  0
  182.3170  176.9480  140.5690 N   0  0  0  0  0  0  0  0  0  0  0  0
  187.6830  178.4130  139.6150 C   0  0  0  0  0  2  0  0  0  0  0  0
  187.4530  177.6370  138.3280 C   0  0  0  0  0  2  0  0  0  0  0  0
  189.7670  176.9520  138.4140 N   0  0  0  0  0  0  0  0  0  0  0  0
  188.5430  176.6450  138.1260 C   0  0  0  0  0  3  0  0  0  0  0  0
  190.6310  174.7980  138.0960 O   0  0  0  0  0  0  0  0  0  0  0  0
  190.8470  176.0310  138.2360 C   0  0  0  0  0  0  0  0  0  0  0  0
  192.2440  176.5380  138.2160 C   0  0  0  0  0  1  0  0  0  0  0  0
  1 10  1  0  0  0  0
  2  6  1  0  0  0  0
  4 11  1  0  0  0  0
  4  1  2  0  0  0  0
  5  3  2  0  0  0  0
  6  9  2  0  0  0  0
  7  2  1  0  0  0  0
  8  3  1  0  0  0  0
  8 15  1  0  0  0  0
 10 15  1  0  0  0  0
 10  2  2  0  0  0  0
 11  8  2  0  0  0  0
 12  5  1  0  0  0  0
 13 12  2  0  0  0  0
 13 11  1  0  0  0  0
 14  9  1  0  0  0  0
 15 14  2  0  0  0  0
 16 17  2  0  0  0  0
 17 21  1  0  0  0  0
 17 18  1  0  0  0  0
 18  4  1  0  0  0  0
 19 22  1  0  0  0  0
 20 23  2  0  0  0  0
 21 20  1  0  0  0  0
 21 19  2  0  0  0  0
 23 22  1  0  0  0  0
 24 18  1  0  0  0  0
 25 24  1  0  0  0  0
 27 25  1  0  0  0  0
 27 26  2  0  0  0  0
 28 29  2  0  0  0  0
 29 26  1  0  0  0  0
 30 29  1  0  0  0  0
M  END
>  <MODEL>
7

>  <REMARK>
 VINA RESULT:      -8.3      2.885      5.925
  Name = 
  6 active torsions:
  status: ('A' for Active; 'I' for Inactive)
    1  A    between atoms: C_4  and  N_13
    2  A    between atoms: N_7  and  C_15
    3  A    between atoms: C_8  and  C_12
    4  A    between atoms: N_13  and  C_27
    5  A    between atoms: C_16  and  C_30
    6  A    between atoms: C_27  and  C_30
                            x       y       z     vdW  Elec       q    Type
                         _______ _______ _______ _____ _____    ______ ____

>  <TORSDO>
F 6

$$$$
=
 OpenBabel10272413543D

 30 33  0  0  0  0  0  0  0  0999 V2000
  187.0000  178.0360  144.3670 N   0  0  0  0  0  0  0  0  0  0  0  0
  186.5190  177.9220  146.7100 C   0  0  0  0  0  0  0  0  0  0  0  0
  191.1120  177.7180  145.0450 C   0  0  0  0  0  3  0  0  0  0  0  0
  187.8430  178.0590  143.2990 C   0  0  0  0  0  0  0  0  0  0  0  0
  191.9950  177.6920  143.9640 C   0  0  0  0  0  3  0  0  0  0  0  0
  186.9740  177.8210  148.0270 C   0  0  0  0  0  3  0  0  0  0  0  0
  184.7900  178.0330  146.4170 Cl  0  0  0  0  0  0  0  0  0  0  0  0
  189.7270  177.8350  144.8350 C   0  0  0  0  0  0  0  0  0  0  0  0
  188.3420  177.7280  148.2950 C   0  0  0  0  0  3  0  0  0  0  0  0
  187.4390  177.9320  145.6490 C   0  0  0  0  0  0  0  0  0  0  0  0
  189.2330  177.9390  143.5110 C   0  0  0  0  0  0  0  0  0  0  0  0
  191.5060  177.7780  142.6600 C   0  0  0  0  0  3  0  0  0  0  0  0
  190.1340  177.8980  142.4350 C   0  0  0  0  0  3  0  0  0  0  0  0
  189.2620  177.7350  147.2450 C   0  0  0  0  0  3  0  0  0  0  0  0
  188.8240  177.8370  145.9150 C   0  0  0  0  0  0  0  0  0  0  0  0
  185.9040  179.4040  140.5490 O   0  0  0  0  0  0  0  0  0  0  0  0
  186.0840  178.9240  141.7020 C   0  0  0  0  0  0  0  0  0  0  0  0
  187.2860  178.1790  141.9770 N   0  0  0  0  0  0  0  0  0  0  0  0
  183.9520  178.2890  142.9400 C   0  0  0  0  0  3  0  0  0  0  0  0
  185.0010  180.1170  143.6180 N   0  0  0  0  0  0  0  0  0  0  0  0
  185.0350  179.1170  142.7230 C   0  0  0  0  0  0  0  0  0  0  0  0
  183.2770  178.8280  143.9730 N   0  0  0  0  0  2  0  0  0  0  0  0
  183.9240  179.9170  144.3570 N   0  0  0  0  0  0  0  0  0  0  0  0
  187.9110  177.4260  140.8970 C   0  0  0  0  0  2  0  0  0  0  0  0
  188.3910  178.3750  139.8100 C   0  0  0  0  0  2  0  0  0  0  0  0
  189.9230  176.6000  139.2300 N   0  0  0  0  0  0  0  0  0  0  0  0
  189.2730  177.6540  138.8530 C   0  0  0  0  0  3  0  0  0  0  0  0
  190.5140  174.6920  138.0060 O   0  0  0  0  0  0  0  0  0  0  0  0
  190.7820  175.8760  138.3460 C   0  0  0  0  0  0  0  0  0  0  0  0
  192.0090  176.5300  137.8210 C   0  0  0  0  0  1  0  0  0  0  0  0
  1 10  1  0  0  0  0
  2  6  1  0  0  0  0
  4 11  1  0  0  0  0
  4  1  2  0  0  0  0
  5  3  2  0  0  0  0
  6  9  2  0  0  0  0
  7  2  1  0  0  0  0
  8  3  1  0  0  0  0
  8 15  1  0  0  0  0
 10 15  1  0  0  0  0
 10  2  2  0  0  0  0
 11  8  2  0  0  0  0
 12  5  1  0  0  0  0
 13 12  2  0  0  0  0
 13 11  1  0  0  0  0
 14  9  1  0  0  0  0
 15 14  2  0  0  0  0
 16 17  2  0  0  0  0
 17 18  1  0  0  0  0
 17 21  1  0  0  0  0
 18  4  1  0  0  0  0
 19 22  1  0  0  0  0
 20 23  2  0  0  0  0
 21 19  2  0  0  0  0
 21 20  1  0  0  0  0
 22 23  1  0  0  0  0
 24 18  1  0  0  0  0
 25 24  1  0  0  0  0
 27 26  2  0  0  0  0
 27 25  1  0  0  0  0
 28 29  2  0  0  0  0
 29 26  1  0  0  0  0
 30 29  1  0  0  0  0
M  END
>  <MODEL>
8

>  <REMARK>
 VINA RESULT:      -8.3      2.650      5.516
  Name = 
  6 active torsions:
  status: ('A' for Active; 'I' for Inactive)
    1  A    between atoms: C_4  and  N_13
    2  A    between atoms: N_7  and  C_15
    3  A    between atoms: C_8  and  C_12
    4  A    between atoms: N_13  and  C_27
    5  A    between atoms: C_16  and  C_30
    6  A    between atoms: C_27  and  C_30
                            x       y       z     vdW  Elec       q    Type
                         _______ _______ _______ _____ _____    ______ ____

>  <TORSDO>
F 6

$$$$
=
 OpenBabel10272413543D

 30 33  0  0  1  0  0  0  0  0999 V2000
  187.2420  178.3750  140.3590 N   0  0  0  0  0  0  0  0  0  0  0  0
  185.1170  178.9750  141.2870 C   0  0  0  0  0  0  0  0  0  0  0  0
  188.6260  176.9790  144.0470 C   0  0  0  0  0  3  0  0  0  0  0  0
  188.5080  177.8830  140.4390 C   0  0  0  0  0  0  0  0  0  0  0  0
  189.9050  176.4270  144.1470 C   0  0  0  0  0  3  0  0  0  0  0  0
  184.2690  179.0550  142.3940 C   0  0  0  0  0  3  0  0  0  0  0  0
  184.5330  179.5380  139.7290 Cl  0  0  0  0  0  0  0  0  0  0  0  0
  188.1490  177.4630  142.8170 C   0  0  0  0  0  0  0  0  0  0  0  0
  184.7010  178.6130  143.6470 C   0  0  0  0  0  3  0  0  0  0  0  0
  186.4120  178.4490  141.4320 C   0  0  0  0  0  0  0  0  0  0  0  0
  188.9850  177.3960  141.6750 C   0  0  0  0  0  0  0  0  0  0  0  0
  190.7200  176.3470  143.0170 C   0  0  0  0  0  3  0  0  0  0  0  0
  190.2620  176.8250  141.7890 C   0  0  0  0  0  3  0  0  0  0  0  0
  185.9850  178.0870  143.7980 C   0  0  0  0  0  3  0  0  0  0  0  0
  186.8530  177.9990  142.6970 C   0  0  0  0  0  0  0  0  0  0  0  0
  189.4480  178.3360  136.9690 O   0  0  0  0  0  0  0  0  0  0  0  0
  188.7540  177.8870  137.9220 C   0  0  0  0  0  0  0  0  0  0  0  0
  189.3170  177.8500  139.2480 N   0  0  0  0  0  0  0  0  0  0  0  0
  186.3150  178.1440  137.2420 C   0  0  0  0  0  3  0  0  0  0  0  0
  187.0230  176.0940  137.6890 N   0  0  0  0  0  0  0  0  0  0  0  0
  187.3960  177.3830  137.6370 C   0  0  1  0  0  3  0  0  0  0  0  0
  185.2970  177.2780  137.0720 N   0  0  0  0  0  0  0  0  0  0  0  0
  185.7470  176.0630  137.3460 N   0  0  0  0  0  0  0  0  0  0  0  0
  190.7550  177.6670  139.3990 C   0  0  0  0  0  2  0  0  0  0  0  0
  191.1880  176.3690  138.7370 C   0  0  0  0  0  2  0  0  0  0  0  0
  192.7660  176.0050  136.9460 N   0  0  0  0  0  0  0  0  0  0  0  0
  192.5220  176.5380  138.1000 C   0  0  0  0  0  3  0  0  0  0  0  0
  194.6070  177.2610  136.2210 O   0  0  0  0  0  0  0  0  0  0  0  0
  194.0330  176.1410  136.2960 C   0  0  0  0  0  0  0  0  0  0  0  0
  194.6800  174.9430  135.7000 C   0  0  0  0  0  1  0  0  0  0  0  0
  1  4  2  0  0  0  0
  1 10  1  0  0  0  0
  2 10  2  0  0  0  0
  2  6  1  0  0  0  0
  3  5  1  0  0  0  0
  4 11  1  0  0  0  0
  6  9  2  0  0  0  0
  7  2  1  0  0  0  0
  8  3  2  0  0  0  0
  9 14  1  0  0  0  0
 10 15  1  0  0  0  0
 11 13  2  0  0  0  0
 11  8  1  0  0  0  0
 12  5  2  0  0  0  0
 13 12  1  0  0  0  0
 15  8  1  0  0  0  0
 15 14  2  0  0  0  0
 16 17  2  0  0  0  0
 17 18  1  0  0  0  0
 18 24  1  0  0  0  0
 18  4  1  0  0  0  0
 19 21  1  0  0  0  0
 21 20  1  0  0  0  0
 21 17  1  6  0  0  0
 22 19  2  0  0  0  0
 22 23  1  0  0  0  0
 23 20  2  0  0  0  0
 25 24  1  0  0  0  0
 26 27  2  0  0  0  0
 27 25  1  0  0  0  0
 28 29  2  0  0  0  0
 29 26  1  0  0  0  0
 30 29  1  0  0  0  0
M  END
>  <MODEL>
9

>  <REMARK>
 VINA RESULT:      -8.1      3.816      6.836
  Name = 
  6 active torsions:
  status: ('A' for Active; 'I' for Inactive)
    1  A    between atoms: C_4  and  N_13
    2  A    between atoms: N_7  and  C_15
    3  A    between atoms: C_8  and  C_12
    4  A    between atoms: N_13  and  C_27
    5  A    between atoms: C_16  and  C_30
    6  A    between atoms: C_27  and  C_30
                            x       y       z     vdW  Elec       q    Type
                         _______ _______ _______ _____ _____    ______ ____

>  <TORSDO>
F 6

$$$$
