=
 OpenBabel10272413093D

 32 36  0  0  1  0  0  0  0  0999 V2000
  183.4860  177.4590  139.2270 C   0  0  0  0  0  0  0  0  0  0  0  0
  181.5090  175.8750  139.1460 C   0  0  2  0  0  3  0  0  0  0  0  0
  184.7000  177.9040  138.6890 C   0  0  0  0  0  3  0  0  0  0  0  0
  182.8750  176.3080  138.7040 C   0  0  0  0  0  0  0  0  0  0  0  0
  180.5370  175.9440  137.9710 C   0  0  0  0  0  2  0  0  0  0  0  0
  180.9830  176.6310  140.3770 C   0  0  0  0  0  2  0  0  0  0  0  0
  183.4640  175.6350  137.6250 C   0  0  0  0  0  0  0  0  0  0  0  0
  182.6240  174.2260  136.8920 S   0  0  0  0  0  0  0  0  0  0  0  0
  184.6670  176.0940  137.0830 C   0  0  0  0  0  3  0  0  0  0  0  0
  181.3640  178.0500  140.4290 N   0  0  0  0  0  0  0  0  0  0  0  0
  182.8170  178.2550  140.3180 C   0  0  1  0  0  3  0  0  0  0  0  0
  180.9720  175.0510  136.7850 C   0  0  2  0  0  3  0  0  0  0  0  0
  185.2910  177.2210  137.6220 C   0  0  0  0  0  3  0  0  0  0  0  0
  185.6750  178.7700  142.9720 C   0  0  2  0  0  3  0  0  0  0  0  0
  184.1100  178.8180  145.9580 F   0  0  0  0  0  0  0  0  0  0  0  0
  186.6990  177.9710  142.4970 F   0  0  0  0  0  0  0  0  0  0  0  0
  182.7400  178.8240  144.0390 C   0  0  0  0  0  3  0  0  0  0  0  0
  183.5150  178.2600  141.6880 C   0  0  2  0  0  3  0  0  0  0  0  0
  185.0030  178.0820  143.9990 O   0  0  0  0  0  0  0  0  0  0  0  0
  182.4780  178.5340  142.7540 C   0  0  0  0  0  3  0  0  0  0  0  0
  184.7410  179.1890  141.8140 C   0  0  2  0  0  3  0  0  0  0  0  0
  185.4670  179.2810  140.6400 F   0  0  0  0  0  0  0  0  0  0  0  0
  184.1280  179.0010  144.5890 C   0  0  2  0  0  3  0  0  0  0  0  0
  180.6900  175.6030  135.5200 O   0  0  0  0  0  0  0  0  0  0  0  0
  180.4900  176.9820  135.6750 C   0  0  0  0  0  1  0  0  0  0  0  0
  180.6830  178.7870  139.3690 C   0  0  0  0  0  2  0  0  0  0  0  0
  181.6090  180.3410  137.6660 C   0  0  0  0  0  2  0  0  0  0  0  0
  179.9820  181.9670  138.3280 N   0  0  0  0  0  0  0  0  0  0  0  0
  180.3880  181.2330  139.4610 C   0  0  0  0  0  0  0  0  0  0  0  0
  179.9820  181.5050  140.6210 O   0  0  0  0  0  0  0  0  0  0  0  0
  180.6330  181.4100  137.1580 C   0  0  0  0  0  3  0  0  0  0  0  0
  181.3400  180.1440  139.1570 C   0  0  1  0  0  3  0  0  0  0  0  0
  2  5  1  6  0  0  0
  2  6  1  0  0  0  0
  3  1  2  0  0  0  0
  4  2  1  0  0  0  0
  4  1  1  0  0  0  0
  6 10  1  0  0  0  0
  7  4  2  0  0  0  0
  8  7  1  0  0  0  0
  9 13  2  0  0  0  0
  9  7  1  0  0  0  0
 11  1  1  6  0  0  0
 11 10  1  0  0  0  0
 11 18  1  0  0  0  0
 12 24  1  6  0  0  0
 12  8  1  0  0  0  0
 12  5  1  0  0  0  0
 13  3  1  0  0  0  0
 14 16  1  6  0  0  0
 14 19  1  0  0  0  0
 17 23  1  0  0  0  0
 18 21  1  0  0  0  0
 18 20  1  1  0  0  0
 19 23  1  0  0  0  0
 20 17  2  0  0  0  0
 21 22  1  6  0  0  0
 21 14  1  0  0  0  0
 23 15  1  1  0  0  0
 24 25  1  0  0  0  0
 26 10  1  0  0  0  0
 27 32  1  0  0  0  0
 28 29  1  0  0  0  0
 29 30  2  0  0  0  0
 31 27  1  0  0  0  0
 31 28  2  0  0  0  0
 32 26  1  6  0  0  0
 32 29  1  0  0  0  0
M  END
>  <MODEL>
1

>  <REMARK>
 VINA RESULT:      -6.4      0.000      0.000
  Name = 
  4 active torsions:
  status: ('A' for Active; 'I' for Inactive)
    1  A    between atoms: O_13  and  C_29
    2  A    between atoms: C_16  and  C_27
    3  A    between atoms: N_24  and  C_28
    4  A    between atoms: C_28  and  C_32
                            x       y       z     vdW  Elec       q    Type
                         _______ _______ _______ _____ _____    ______ ____

>  <TORSDO>
F 4

$$$$
=
 OpenBabel10272413093D

 32 36  0  0  1  0  0  0  0  0999 V2000
  183.0080  177.1480  139.3950 C   0  0  0  0  0  0  0  0  0  0  0  0
  182.3820  179.2930  138.1960 C   0  0  2  0  0  3  0  0  0  0  0  0
  182.7980  175.7810  139.6140 C   0  0  0  0  0  3  0  0  0  0  0  0
  182.1200  177.8660  138.5770 C   0  0  0  0  0  0  0  0  0  0  0  0
  182.5850  179.3980  136.6870 C   0  0  0  0  0  2  0  0  0  0  0  0
  183.5300  179.9470  138.9810 C   0  0  0  0  0  2  0  0  0  0  0  0
  181.0520  177.2020  137.9570 C   0  0  0  0  0  0  0  0  0  0  0  0
  179.9820  178.1020  136.8290 S   0  0  0  0  0  0  0  0  0  0  0  0
  180.8580  175.8350  138.1680 C   0  0  0  0  0  3  0  0  0  0  0  0
  184.6480  179.0440  139.2900 N   0  0  0  0  0  0  0  0  0  0  0  0
  184.2200  177.8210  139.9870 C   0  0  1  0  0  3  0  0  0  0  0  0
  181.3610  178.8950  135.8850 C   0  0  2  0  0  3  0  0  0  0  0  0
  181.7230  175.1270  139.0050 C   0  0  0  0  0  3  0  0  0  0  0  0
  185.6630  178.4820  143.5870 C   0  0  2  0  0  3  0  0  0  0  0  0
  182.9760  179.1720  145.5020 F   0  0  0  0  0  0  0  0  0  0  0  0
  186.6470  177.5190  143.7180 F   0  0  0  0  0  0  0  0  0  0  0  0
  182.6090  178.9970  143.1800 C   0  0  0  0  0  3  0  0  0  0  0  0
  184.2350  177.9820  141.5160 C   0  0  2  0  0  3  0  0  0  0  0  0
  184.5060  178.0400  144.2560 O   0  0  0  0  0  0  0  0  0  0  0  0
  182.8960  178.5280  141.9540 C   0  0  0  0  0  3  0  0  0  0  0  0
  185.4140  178.7940  142.0940 C   0  0  2  0  0  3  0  0  0  0  0  0
  186.5860  178.6200  141.3800 F   0  0  0  0  0  0  0  0  0  0  0  0
  183.6220  179.1250  144.2830 C   0  0  2  0  0  3  0  0  0  0  0  0
  181.6950  178.2250  134.6910 O   0  0  0  0  0  0  0  0  0  0  0  0
  182.9660  177.6530  134.8480 C   0  0  0  0  0  1  0  0  0  0  0  0
  185.3530  178.6860  138.0620 C   0  0  0  0  0  2  0  0  0  0  0  0
  186.1600  176.4940  137.2200 C   0  0  0  0  0  2  0  0  0  0  0  0
  188.3510  177.4320  137.0020 N   0  0  0  0  0  0  0  0  0  0  0  0
  187.7180  177.9950  138.1290 C   0  0  0  0  0  0  0  0  0  0  0  0
  188.3070  178.7930  138.9040 O   0  0  0  0  0  0  0  0  0  0  0  0
  187.4110  176.5540  136.3330 C   0  0  0  0  0  3  0  0  0  0  0  0
  186.3240  177.5430  138.3180 C   0  0  1  0  0  3  0  0  0  0  0  0
  1  3  1  0  0  0  0
  2  5  1  6  0  0  0
  2  4  1  0  0  0  0
  2  6  1  0  0  0  0
  4  1  2  0  0  0  0
  6 10  1  0  0  0  0
  7  9  2  0  0  0  0
  7  4  1  0  0  0  0
  8  7  1  0  0  0  0
  9 13  1  0  0  0  0
 10 11  1  0  0  0  0
 11  1  1  6  0  0  0
 11 18  1  0  0  0  0
 12 24  1  6  0  0  0
 12  5  1  0  0  0  0
 12  8  1  0  0  0  0
 13  3  2  0  0  0  0
 14 16  1  6  0  0  0
 14 19  1  0  0  0  0
 17 23  1  0  0  0  0
 18 20  1  6  0  0  0
 18 21  1  0  0  0  0
 19 23  1  0  0  0  0
 20 17  2  0  0  0  0
 21 22  1  6  0  0  0
 21 14  1  0  0  0  0
 23 15  1  1  0  0  0
 24 25  1  0  0  0  0
 26 10  1  0  0  0  0
 27 32  1  0  0  0  0
 28 29  1  0  0  0  0
 29 32  1  0  0  0  0
 29 30  2  0  0  0  0
 31 28  2  0  0  0  0
 31 27  1  0  0  0  0
 32 26  1  6  0  0  0
M  END
>  <MODEL>
2

>  <REMARK>
 VINA RESULT:      -5.7      2.484      4.273
  Name = 
  4 active torsions:
  status: ('A' for Active; 'I' for Inactive)
    1  A    between atoms: O_13  and  C_29
    2  A    between atoms: C_16  and  C_27
    3  A    between atoms: N_24  and  C_28
    4  A    between atoms: C_28  and  C_32
                            x       y       z     vdW  Elec       q    Type
                         _______ _______ _______ _____ _____    ______ ____

>  <TORSDO>
F 4

$$$$
=
 OpenBabel10272413093D

 32 36  0  0  1  0  0  0  0  0999 V2000
  187.0660  178.3150  142.1620 C   0  0  0  0  0  0  0  0  0  0  0  0
  187.6940  176.7900  144.0870 C   0  0  2  0  0  3  0  0  0  0  0  0
  186.1870  179.2480  141.5970 C   0  0  0  0  0  3  0  0  0  0  0  0
  186.7270  177.6840  143.3700 C   0  0  0  0  0  0  0  0  0  0  0  0
  188.0560  177.3970  145.4400 C   0  0  0  0  0  2  0  0  0  0  0  0
  188.9400  176.4310  143.2620 C   0  0  0  0  0  2  0  0  0  0  0  0
  185.5300  178.0190  144.0190 C   0  0  0  0  0  0  0  0  0  0  0  0
  185.1520  177.2870  145.6160 S   0  0  0  0  0  0  0  0  0  0  0  0
  184.6670  178.9620  143.4570 C   0  0  0  0  0  3  0  0  0  0  0  0
  189.4320  177.5140  142.3990 N   0  0  0  0  0  0  0  0  0  0  0  0
  188.3940  178.0450  141.5010 C   0  0  1  0  0  3  0  0  0  0  0  0
  186.8200  177.6080  146.3480 C   0  0  2  0  0  3  0  0  0  0  0  0
  184.9890  179.5680  142.2400 C   0  0  0  0  0  3  0  0  0  0  0  0
  187.2990  177.2090  137.8170 C   0  0  2  0  0  3  0  0  0  0  0  0
  189.7390  175.2280  136.5980 F   0  0  0  0  0  0  0  0  0  0  0  0
  185.9350  177.0040  137.9280 F   0  0  0  0  0  0  0  0  0  0  0  0
  190.1260  176.2200  138.7010 C   0  0  0  0  0  3  0  0  0  0  0  0
  188.3510  177.3070  140.1530 C   0  0  2  0  0  3  0  0  0  0  0  0
  187.9430  175.9580  137.7870 O   0  0  0  0  0  0  0  0  0  0  0  0
  189.7230  176.7400  139.8720 C   0  0  0  0  0  3  0  0  0  0  0  0
  187.7990  178.1180  138.9610 C   0  0  2  0  0  3  0  0  0  0  0  0
  186.7970  178.9980  139.3290 F   0  0  0  0  0  0  0  0  0  0  0  0
  189.2810  176.2060  137.4590 C   0  0  2  0  0  3  0  0  0  0  0  0
  186.8830  178.7720  147.1380 O   0  0  0  0  0  0  0  0  0  0  0  0
  187.7250  178.5190  148.2300 C   0  0  0  0  0  1  0  0  0  0  0  0
  189.9720  178.5960  143.2170 C   0  0  0  0  0  2  0  0  0  0  0  0
  191.4040  177.8280  145.0950 C   0  0  0  0  0  2  0  0  0  0  0  0
  192.0910  175.9670  143.7550 N   0  0  0  0  0  0  0  0  0  0  0  0
  191.9020  177.0890  142.9240 C   0  0  0  0  0  0  0  0  0  0  0  0
  192.1600  177.0660  141.6910 O   0  0  0  0  0  0  0  0  0  0  0  0
  191.7140  176.3240  145.1080 C   0  0  0  0  0  3  0  0  0  0  0  0
  191.4020  178.2830  143.6370 C   0  0  1  0  0  3  0  0  0  0  0  0
  1  4  1  0  0  0  0
  2  6  1  6  0  0  0
  2  5  1  0  0  0  0
  3  1  2  0  0  0  0
  3 13  1  0  0  0  0
  4  7  2  0  0  0  0
  4  2  1  0  0  0  0
  5 12  1  0  0  0  0
  7  8  1  0  0  0  0
  8 12  1  0  0  0  0
  9  7  1  0  0  0  0
 10 26  1  0  0  0  0
 10  6  1  0  0  0  0
 11  1  1  1  0  0  0
 11 10  1  0  0  0  0
 12 24  1  6  0  0  0
 13  9  2  0  0  0  0
 14 16  1  1  0  0  0
 14 21  1  0  0  0  0
 17 20  2  0  0  0  0
 18 20  1  6  0  0  0
 18 11  1  0  0  0  0
 19 14  1  0  0  0  0
 21 22  1  1  0  0  0
 21 18  1  0  0  0  0
 23 15  1  6  0  0  0
 23 19  1  0  0  0  0
 23 17  1  0  0  0  0
 24 25  1  0  0  0  0
 27 31  1  0  0  0  0
 28 31  2  0  0  0  0
 29 32  1  0  0  0  0
 29 28  1  0  0  0  0
 30 29  2  0  0  0  0
 32 26  1  6  0  0  0
 32 27  1  0  0  0  0
M  END
>  <MODEL>
3

>  <REMARK>
 VINA RESULT:      -5.7      5.576      9.412
  Name = 
  4 active torsions:
  status: ('A' for Active; 'I' for Inactive)
    1  A    between atoms: O_13  and  C_29
    2  A    between atoms: C_16  and  C_27
    3  A    between atoms: N_24  and  C_28
    4  A    between atoms: C_28  and  C_32
                            x       y       z     vdW  Elec       q    Type
                         _______ _______ _______ _____ _____    ______ ____

>  <TORSDO>
F 4

$$$$
=
 OpenBabel10272413093D

 32 36  0  0  1  0  0  0  0  0999 V2000
  191.0350  176.0340  137.7220 C   0  0  0  0  0  0  0  0  0  0  0  0
  189.7940  176.5950  135.5840 C   0  0  2  0  0  3  0  0  0  0  0  0
  191.2220  176.2260  139.0970 C   0  0  0  0  0  3  0  0  0  0  0  0
  190.1360  176.8530  137.0210 C   0  0  0  0  0  0  0  0  0  0  0  0
  188.3140  176.2410  135.4590 C   0  0  0  0  0  2  0  0  0  0  0  0
  190.6970  175.5520  134.9070 C   0  0  0  0  0  2  0  0  0  0  0  0
  189.4050  177.8320  137.7080 C   0  0  0  0  0  0  0  0  0  0  0  0
  188.1790  178.8060  136.8270 S   0  0  0  0  0  0  0  0  0  0  0  0
  189.5840  178.0080  139.0830 C   0  0  0  0  0  3  0  0  0  0  0  0
  191.1130  174.4460  135.7810 N   0  0  0  0  0  0  0  0  0  0  0  0
  191.7530  174.9080  137.0220 C   0  0  1  0  0  3  0  0  0  0  0  0
  187.3870  177.3620  135.9870 C   0  0  2  0  0  3  0  0  0  0  0  0
  190.5010  177.2130  139.7750 C   0  0  0  0  0  3  0  0  0  0  0  0
  195.5240  173.8300  136.7160 C   0  0  2  0  0  3  0  0  0  0  0  0
  197.1140  176.5230  135.4560 F   0  0  0  0  0  0  0  0  0  0  0  0
  195.7440  173.1060  137.8740 F   0  0  0  0  0  0  0  0  0  0  0  0
  194.7590  176.6180  135.5340 C   0  0  0  0  0  3  0  0  0  0  0  0
  193.2770  175.0540  136.8760 C   0  0  2  0  0  3  0  0  0  0  0  0
  196.0300  175.1310  136.8930 O   0  0  0  0  0  0  0  0  0  0  0  0
  193.5640  176.2860  136.0490 C   0  0  0  0  0  3  0  0  0  0  0  0
  194.0230  173.8100  136.3490 C   0  0  2  0  0  3  0  0  0  0  0  0
  193.4550  172.6230  136.7750 F   0  0  0  0  0  0  0  0  0  0  0  0
  195.9830  175.7510  135.6390 C   0  0  2  0  0  3  0  0  0  0  0  0
  186.2300  176.8880  136.6360 O   0  0  0  0  0  0  0  0  0  0  0  0
  186.3960  175.5190  136.8910 C   0  0  0  0  0  1  0  0  0  0  0  0
  189.9610  173.6090  136.1070 C   0  0  0  0  0  2  0  0  0  0  0  0
  190.5500  171.9600  134.3460 C   0  0  0  0  0  2  0  0  0  0  0  0
  188.7240  170.5940  135.0750 N   0  0  0  0  0  0  0  0  0  0  0  0
  188.3700  171.9510  135.2150 C   0  0  0  0  0  0  0  0  0  0  0  0
  187.2230  172.3130  135.5870 O   0  0  0  0  0  0  0  0  0  0  0  0
  190.1000  170.5190  134.6240 C   0  0  0  0  0  3  0  0  0  0  0  0
  189.4550  172.8910  134.8640 C   0  0  1  0  0  3  0  0  0  0  0  0
  1  3  1  0  0  0  0
  2  6  1  1  0  0  0
  2  4  1  0  0  0  0
  3 13  2  0  0  0  0
  4  7  1  0  0  0  0
  4  1  2  0  0  0  0
  5  2  1  0  0  0  0
  5 12  1  0  0  0  0
  6 10  1  0  0  0  0
  7  9  2  0  0  0  0
  8  7  1  0  0  0  0
  9 13  1  0  0  0  0
 10 26  1  0  0  0  0
 10 11  1  0  0  0  0
 11  1  1  6  0  0  0
 12 24  1  1  0  0  0
 12  8  1  0  0  0  0
 14 19  1  0  0  0  0
 14 16  1  1  0  0  0
 17 23  1  0  0  0  0
 17 20  2  0  0  0  0
 18 20  1  6  0  0  0
 18 11  1  0  0  0  0
 21 14  1  0  0  0  0
 21 22  1  1  0  0  0
 21 18  1  0  0  0  0
 23 15  1  1  0  0  0
 23 19  1  0  0  0  0
 24 25  1  0  0  0  0
 27 31  1  0  0  0  0
 27 32  1  0  0  0  0
 28 29  1  0  0  0  0
 29 30  2  0  0  0  0
 31 28  2  0  0  0  0
 32 29  1  0  0  0  0
 32 26  1  1  0  0  0
M  END
>  <MODEL>
4

>  <REMARK>
 VINA RESULT:      -5.6      8.065     11.042
  Name = 
  4 active torsions:
  status: ('A' for Active; 'I' for Inactive)
    1  A    between atoms: O_13  and  C_29
    2  A    between atoms: C_16  and  C_27
    3  A    between atoms: N_24  and  C_28
    4  A    between atoms: C_28  and  C_32
                            x       y       z     vdW  Elec       q    Type
                         _______ _______ _______ _____ _____    ______ ____

>  <TORSDO>
F 4

$$$$
=
 OpenBabel10272413093D

 32 36  0  0  1  0  0  0  0  0999 V2000
  189.3150  175.0200  136.8760 C   0  0  0  0  0  0  0  0  0  0  0  0
  191.0150  176.8910  137.0670 C   0  0  2  0  0  3  0  0  0  0  0  0
  189.0130  173.6890  136.5610 C   0  0  0  0  0  3  0  0  0  0  0  0
  190.6000  175.5220  136.6160 C   0  0  0  0  0  0  0  0  0  0  0  0
  192.1430  176.7810  138.0910 C   0  0  0  0  0  2  0  0  0  0  0  0
  189.8530  177.7570  137.5780 C   0  0  0  0  0  2  0  0  0  0  0  0
  191.5820  174.6780  136.0790 C   0  0  0  0  0  0  0  0  0  0  0  0
  193.2530  175.2960  135.8470 S   0  0  0  0  0  0  0  0  0  0  0  0
  191.2780  173.3470  135.7810 C   0  0  0  0  0  3  0  0  0  0  0  0
  188.8180  177.0160  138.3130 N   0  0  0  0  0  0  0  0  0  0  0  0
  188.2760  175.8810  137.5490 C   0  0  1  0  0  3  0  0  0  0  0  0
  193.3880  176.0540  137.5290 C   0  0  2  0  0  3  0  0  0  0  0  0
  189.9910  172.8560  136.0110 C   0  0  0  0  0  3  0  0  0  0  0  0
  186.2470  177.3260  134.5050 C   0  0  2  0  0  3  0  0  0  0  0  0
  183.1550  176.0170  134.8020 F   0  0  0  0  0  0  0  0  0  0  0  0
  186.6730  178.6410  134.4330 F   0  0  0  0  0  0  0  0  0  0  0  0
  184.8080  175.1840  136.2630 C   0  0  0  0  0  3  0  0  0  0  0  0
  187.0580  176.2750  136.6980 C   0  0  2  0  0  3  0  0  0  0  0  0
  185.0060  177.2890  135.1660 O   0  0  0  0  0  0  0  0  0  0  0  0
  185.9430  175.2910  136.9720 C   0  0  0  0  0  3  0  0  0  0  0  0
  187.3220  176.4520  135.1880 C   0  0  2  0  0  3  0  0  0  0  0  0
  188.5790  176.9640  134.9200 F   0  0  0  0  0  0  0  0  0  0  0  0
  184.5180  175.9850  135.0240 C   0  0  2  0  0  3  0  0  0  0  0  0
  194.0490  175.2410  138.4710 O   0  0  0  0  0  0  0  0  0  0  0  0
  194.8990  174.3670  137.7790 C   0  0  0  0  0  1  0  0  0  0  0  0
  189.3550  176.5380  139.5840 C   0  0  0  0  0  2  0  0  0  0  0  0
  188.0990  178.3810  140.6770 C   0  0  0  0  0  2  0  0  0  0  0  0
  188.5320  177.3610  142.7990 N   0  0  0  0  0  0  0  0  0  0  0  0
  189.6420  177.1570  141.9530 C   0  0  0  0  0  0  0  0  0  0  0  0
  190.6960  176.5950  142.3490 O   0  0  0  0  0  0  0  0  0  0  0  0
  187.4950  178.0380  142.0460 C   0  0  0  0  0  3  0  0  0  0  0  0
  189.4540  177.6810  140.5840 C   0  0  1  0  0  3  0  0  0  0  0  0
  2  6  1  1  0  0  0
  2  5  1  0  0  0  0
  3  1  2  0  0  0  0
  4  1  1  0  0  0  0
  4  2  1  0  0  0  0
  6 10  1  0  0  0  0
  7  4  2  0  0  0  0
  8  7  1  0  0  0  0
  8 12  1  0  0  0  0
  9 13  2  0  0  0  0
  9  7  1  0  0  0  0
 10 26  1  0  0  0  0
 11  1  1  6  0  0  0
 11 10  1  0  0  0  0
 12  5  1  0  0  0  0
 12 24  1  1  0  0  0
 13  3  1  0  0  0  0
 14 16  1  1  0  0  0
 14 19  1  0  0  0  0
 14 21  1  0  0  0  0
 17 20  2  0  0  0  0
 18 20  1  6  0  0  0
 18 11  1  0  0  0  0
 21 22  1  1  0  0  0
 21 18  1  0  0  0  0
 23 15  1  1  0  0  0
 23 19  1  0  0  0  0
 23 17  1  0  0  0  0
 25 24  1  0  0  0  0
 27 31  1  0  0  0  0
 29 30  2  0  0  0  0
 29 28  1  0  0  0  0
 31 28  2  0  0  0  0
 32 26  1  6  0  0  0
 32 27  1  0  0  0  0
 32 29  1  0  0  0  0
M  END
>  <MODEL>
5

>  <REMARK>
 VINA RESULT:      -5.6      6.028      9.365
  Name = 
  4 active torsions:
  status: ('A' for Active; 'I' for Inactive)
    1  A    between atoms: O_13  and  C_29
    2  A    between atoms: C_16  and  C_27
    3  A    between atoms: N_24  and  C_28
    4  A    between atoms: C_28  and  C_32
                            x       y       z     vdW  Elec       q    Type
                         _______ _______ _______ _____ _____    ______ ____

>  <TORSDO>
F 4

$$$$
=
 OpenBabel10272413093D

 32 36  0  0  1  0  0  0  0  0999 V2000
  188.8150  174.7350  136.6250 C   0  0  0  0  0  0  0  0  0  0  0  0
  190.5720  176.4590  136.0190 C   0  0  2  0  0  3  0  0  0  0  0  0
  188.3600  173.4110  136.5920 C   0  0  0  0  0  3  0  0  0  0  0  0
  189.9640  175.0930  135.9010 C   0  0  0  0  0  0  0  0  0  0  0  0
  191.9690  176.3550  136.6260 C   0  0  0  0  0  2  0  0  0  0  0  0
  189.6900  177.4710  136.7680 C   0  0  0  0  0  2  0  0  0  0  0  0
  190.6680  174.1160  135.1830 C   0  0  0  0  0  0  0  0  0  0  0  0
  192.1950  174.5580  134.3470 S   0  0  0  0  0  0  0  0  0  0  0  0
  190.2170  172.7940  135.1690 C   0  0  0  0  0  3  0  0  0  0  0  0
  188.9230  176.9020  137.8850 N   0  0  0  0  0  0  0  0  0  0  0  0
  188.1030  175.7480  137.4860 C   0  0  1  0  0  3  0  0  0  0  0  0
  192.9180  175.4680  135.7850 C   0  0  2  0  0  3  0  0  0  0  0  0
  189.0570  172.4440  135.8630 C   0  0  0  0  0  3  0  0  0  0  0  0
  184.6800  177.6850  137.4770 C   0  0  2  0  0  3  0  0  0  0  0  0
  183.3960  177.1960  134.3980 F   0  0  0  0  0  0  0  0  0  0  0  0
  184.1580  177.4180  138.7300 F   0  0  0  0  0  0  0  0  0  0  0  0
  185.6030  176.4500  134.7610 C   0  0  0  0  0  3  0  0  0  0  0  0
  186.6920  176.1590  137.0350 C   0  0  2  0  0  3  0  0  0  0  0  0
  184.0670  176.8310  136.5400 O   0  0  0  0  0  0  0  0  0  0  0  0
  186.6000  175.9930  135.5350 C   0  0  0  0  0  3  0  0  0  0  0  0
  186.2190  177.5540  137.4970 C   0  0  2  0  0  3  0  0  0  0  0  0
  186.6990  177.8950  138.7490 F   0  0  0  0  0  0  0  0  0  0  0  0
  184.4600  177.2800  135.2750 C   0  0  2  0  0  3  0  0  0  0  0  0
  193.8140  174.7000  136.5550 O   0  0  0  0  0  0  0  0  0  0  0  0
  193.2660  174.5340  137.8350 C   0  0  0  0  0  1  0  0  0  0  0  0
  189.8290  176.5100  138.9610 C   0  0  0  0  0  2  0  0  0  0  0  0
  188.9480  177.6050  141.0100 C   0  0  0  0  0  2  0  0  0  0  0  0
  191.0520  177.2000  142.0780 N   0  0  0  0  0  0  0  0  0  0  0  0
  191.2730  177.4720  140.7130 C   0  0  0  0  0  0  0  0  0  0  0  0
  192.4290  177.5600  140.2220 O   0  0  0  0  0  0  0  0  0  0  0  0
  189.6220  177.1770  142.3210 C   0  0  0  0  0  3  0  0  0  0  0  0
  190.0310  177.6630  139.9340 C   0  0  1  0  0  3  0  0  0  0  0  0
  2  5  1  1  0  0  0
  2  6  1  0  0  0  0
  3  1  1  0  0  0  0
  4  2  1  0  0  0  0
  4  1  2  0  0  0  0
  6 10  1  0  0  0  0
  7  4  1  0  0  0  0
  8  7  1  0  0  0  0
  8 12  1  0  0  0  0
  9  7  2  0  0  0  0
  9 13  1  0  0  0  0
 10 26  1  0  0  0  0
 11  1  1  6  0  0  0
 11 10  1  0  0  0  0
 12 24  1  1  0  0  0
 12  5  1  0  0  0  0
 13  3  2  0  0  0  0
 14 21  1  0  0  0  0
 14 16  1  1  0  0  0
 17 23  1  0  0  0  0
 17 20  2  0  0  0  0
 18 20  1  6  0  0  0
 18 11  1  0  0  0  0
 18 21  1  0  0  0  0
 19 14  1  0  0  0  0
 21 22  1  1  0  0  0
 23 15  1  6  0  0  0
 23 19  1  0  0  0  0
 24 25  1  0  0  0  0
 27 31  1  0  0  0  0
 28 31  2  0  0  0  0
 29 28  1  0  0  0  0
 30 29  2  0  0  0  0
 32 26  1  6  0  0  0
 32 29  1  0  0  0  0
 32 27  1  0  0  0  0
M  END
>  <MODEL>
6

>  <REMARK>
 VINA RESULT:      -5.6      5.952      9.204
  Name = 
  4 active torsions:
  status: ('A' for Active; 'I' for Inactive)
    1  A    between atoms: O_13  and  C_29
    2  A    between atoms: C_16  and  C_27
    3  A    between atoms: N_24  and  C_28
    4  A    between atoms: C_28  and  C_32
                            x       y       z     vdW  Elec       q    Type
                         _______ _______ _______ _____ _____    ______ ____

>  <TORSDO>
F 4

$$$$
=
 OpenBabel10272413093D

 32 36  0  0  1  0  0  0  0  0999 V2000
  191.0970  176.9760  139.4290 C   0  0  0  0  0  0  0  0  0  0  0  0
  189.8830  175.6160  137.6660 C   0  0  2  0  0  3  0  0  0  0  0  0
  192.2970  177.4260  139.9920 C   0  0  0  0  0  3  0  0  0  0  0  0
  191.1270  176.0210  138.3990 C   0  0  0  0  0  0  0  0  0  0  0  0
  189.9920  176.0200  136.1980 C   0  0  0  0  0  2  0  0  0  0  0  0
  188.5850  176.1270  138.3120 C   0  0  0  0  0  2  0  0  0  0  0  0
  192.3590  175.5530  137.9200 C   0  0  0  0  0  0  0  0  0  0  0  0
  192.3940  174.4110  136.5330 S   0  0  0  0  0  0  0  0  0  0  0  0
  193.5520  176.0180  138.4770 C   0  0  0  0  0  3  0  0  0  0  0  0
  188.6900  177.4640  138.9140 N   0  0  0  0  0  0  0  0  0  0  0  0
  189.7880  177.5690  139.8870 C   0  0  1  0  0  3  0  0  0  0  0  0
  191.2070  175.3730  135.4910 C   0  0  2  0  0  3  0  0  0  0  0  0
  193.5220  176.9450  139.5210 C   0  0  0  0  0  3  0  0  0  0  0  0
  190.0260  177.0780  143.7830 C   0  0  2  0  0  3  0  0  0  0  0  0
  186.8320  176.9630  144.8550 F   0  0  0  0  0  0  0  0  0  0  0  0
  191.0640  176.1770  143.9290 F   0  0  0  0  0  0  0  0  0  0  0  0
  187.1750  177.5450  142.5960 C   0  0  0  0  0  3  0  0  0  0  0  0
  189.3420  177.2170  141.3160 C   0  0  2  0  0  3  0  0  0  0  0  0
  188.8060  176.3840  143.8860 O   0  0  0  0  0  0  0  0  0  0  0  0
  187.8660  177.5200  141.4460 C   0  0  0  0  0  3  0  0  0  0  0  0
  190.1700  177.8520  142.4530 C   0  0  2  0  0  3  0  0  0  0  0  0
  191.5090  177.9820  142.1330 F   0  0  0  0  0  0  0  0  0  0  0  0
  187.7990  177.3530  143.9500 C   0  0  2  0  0  3  0  0  0  0  0  0
  191.8270  176.2080  134.5420 O   0  0  0  0  0  0  0  0  0  0  0  0
  193.1400  175.7560  134.3460 C   0  0  0  0  0  1  0  0  0  0  0  0
  188.8650  178.4690  137.8690 C   0  0  0  0  0  2  0  0  0  0  0  0
  187.2910  178.3260  135.9530 C   0  0  0  0  0  2  0  0  0  0  0  0
  185.6550  177.3820  137.4230 N   0  0  0  0  0  0  0  0  0  0  0  0
  186.4180  178.3320  138.1310 C   0  0  0  0  0  0  0  0  0  0  0  0
  186.1630  178.6480  139.3230 O   0  0  0  0  0  0  0  0  0  0  0  0
  186.1970  177.2570  136.0840 C   0  0  0  0  0  3  0  0  0  0  0  0
  187.5140  178.9280  137.3390 C   0  0  1  0  0  3  0  0  0  0  0  0
  1  3  1  0  0  0  0
  2  5  1  6  0  0  0
  2  6  1  0  0  0  0
  2  4  1  0  0  0  0
  4  1  2  0  0  0  0
  6 10  1  0  0  0  0
  7  4  1  0  0  0  0
  7  9  2  0  0  0  0
  8  7  1  0  0  0  0
  9 13  1  0  0  0  0
 10 11  1  0  0  0  0
 11  1  1  6  0  0  0
 11 18  1  0  0  0  0
 12 24  1  1  0  0  0
 12  5  1  0  0  0  0
 12  8  1  0  0  0  0
 13  3  2  0  0  0  0
 14 19  1  0  0  0  0
 14 16  1  6  0  0  0
 17 23  1  0  0  0  0
 18 20  1  1  0  0  0
 18 21  1  0  0  0  0
 19 23  1  0  0  0  0
 20 17  2  0  0  0  0
 21 22  1  6  0  0  0
 21 14  1  0  0  0  0
 23 15  1  1  0  0  0
 25 24  1  0  0  0  0
 26 10  1  0  0  0  0
 27 31  1  0  0  0  0
 27 32  1  0  0  0  0
 28 29  1  0  0  0  0
 29 30  2  0  0  0  0
 31 28  2  0  0  0  0
 32 26  1  1  0  0  0
 32 29  1  0  0  0  0
M  END
>  <MODEL>
7

>  <REMARK>
 VINA RESULT:      -5.6      5.717      7.595
  Name = 
  4 active torsions:
  status: ('A' for Active; 'I' for Inactive)
    1  A    between atoms: O_13  and  C_29
    2  A    between atoms: C_16  and  C_27
    3  A    between atoms: N_24  and  C_28
    4  A    between atoms: C_28  and  C_32
                            x       y       z     vdW  Elec       q    Type
                         _______ _______ _______ _____ _____    ______ ____

>  <TORSDO>
F 4

$$$$
=
 OpenBabel10272413093D

 32 36  0  0  1  0  0  0  0  0999 V2000
  186.2820  176.2470  137.1310 C   0  0  0  0  0  0  0  0  0  0  0  0
  188.1500  177.8290  136.4710 C   0  0  2  0  0  3  0  0  0  0  0  0
  185.6560  175.0000  137.0100 C   0  0  0  0  0  3  0  0  0  0  0  0
  187.3550  176.5700  136.2850 C   0  0  0  0  0  0  0  0  0  0  0  0
  189.5920  177.4840  136.8340 C   0  0  0  0  0  2  0  0  0  0  0  0
  187.5240  178.8190  137.4670 C   0  0  0  0  0  2  0  0  0  0  0  0
  187.8150  175.6310  135.3520 C   0  0  0  0  0  0  0  0  0  0  0  0
  189.2540  176.0110  134.3460 S   0  0  0  0  0  0  0  0  0  0  0  0
  187.1950  174.3830  135.2480 C   0  0  0  0  0  3  0  0  0  0  0  0
  186.8540  178.1890  138.6130 N   0  0  0  0  0  0  0  0  0  0  0  0
  185.8400  177.2020  138.2110 C   0  0  1  0  0  3  0  0  0  0  0  0
  190.2870  176.6220  135.7530 C   0  0  2  0  0  3  0  0  0  0  0  0
  186.1090  174.0720  136.0680 C   0  0  0  0  0  3  0  0  0  0  0  0
  181.9200  177.4030  137.9570 C   0  0  2  0  0  3  0  0  0  0  0  0
  181.1660  180.6490  138.4640 F   0  0  0  0  0  0  0  0  0  0  0  0
  181.6240  176.5570  136.9030 F   0  0  0  0  0  0  0  0  0  0  0  0
  183.4070  180.0090  138.8210 C   0  0  0  0  0  3  0  0  0  0  0  0
  184.4460  177.8290  138.0400 C   0  0  2  0  0  3  0  0  0  0  0  0
  181.9030  178.7300  137.4900 O   0  0  0  0  0  0  0  0  0  0  0  0
  184.4800  179.2330  138.6000 C   0  0  0  0  0  3  0  0  0  0  0  0
  183.2670  177.0060  138.6010 C   0  0  2  0  0  3  0  0  0  0  0  0
  183.4590  175.6420  138.4770 F   0  0  0  0  0  0  0  0  0  0  0  0
  181.9900  179.5510  138.6200 C   0  0  2  0  0  3  0  0  0  0  0  0
  191.1730  175.6580  136.2730 O   0  0  0  0  0  0  0  0  0  0  0  0
  191.2050  175.7950  137.6680 C   0  0  0  0  0  1  0  0  0  0  0  0
  187.8420  177.5510  139.4780 C   0  0  0  0  0  2  0  0  0  0  0  0
  186.8660  178.6890  141.4580 C   0  0  0  0  0  2  0  0  0  0  0  0
  188.3230  177.4080  142.8600 N   0  0  0  0  0  0  0  0  0  0  0  0
  188.9890  177.7090  141.6550 C   0  0  0  0  0  0  0  0  0  0  0  0
  190.1920  177.3970  141.4530 O   0  0  0  0  0  0  0  0  0  0  0  0
  186.9650  177.9090  142.7760 C   0  0  0  0  0  3  0  0  0  0  0  0
  188.1540  178.4360  140.6760 C   0  0  1  0  0  3  0  0  0  0  0  0
  2  5  1  1  0  0  0
  2  6  1  0  0  0  0
  3  1  1  0  0  0  0
  4  2  1  0  0  0  0
  4  1  2  0  0  0  0
  6 10  1  0  0  0  0
  7  4  1  0  0  0  0
  8  7  1  0  0  0  0
  8 12  1  0  0  0  0
  9  7  2  0  0  0  0
  9 13  1  0  0  0  0
 10 26  1  0  0  0  0
 11  1  1  6  0  0  0
 11 10  1  0  0  0  0
 12 24  1  1  0  0  0
 12  5  1  0  0  0  0
 13  3  2  0  0  0  0
 14 16  1  6  0  0  0
 14 21  1  0  0  0  0
 18 11  1  0  0  0  0
 18 20  1  1  0  0  0
 18 21  1  0  0  0  0
 19 14  1  0  0  0  0
 19 23  1  0  0  0  0
 20 17  2  0  0  0  0
 21 22  1  6  0  0  0
 23 15  1  6  0  0  0
 23 17  1  0  0  0  0
 24 25  1  0  0  0  0
 27 31  1  0  0  0  0
 29 28  1  0  0  0  0
 30 29  2  0  0  0  0
 31 28  2  0  0  0  0
 32 26  1  6  0  0  0
 32 27  1  0  0  0  0
 32 29  1  0  0  0  0
M  END
>  <MODEL>
8

>  <REMARK>
 VINA RESULT:      -5.5      4.247      7.167
  Name = 
  4 active torsions:
  status: ('A' for Active; 'I' for Inactive)
    1  A    between atoms: O_13  and  C_29
    2  A    between atoms: C_16  and  C_27
    3  A    between atoms: N_24  and  C_28
    4  A    between atoms: C_28  and  C_32
                            x       y       z     vdW  Elec       q    Type
                         _______ _______ _______ _____ _____    ______ ____

>  <TORSDO>
F 4

$$$$
=
 OpenBabel10272413093D

 32 36  0  0  1  0  0  0  0  0999 V2000
  182.6740  177.5140  136.2390 C   0  0  0  0  0  0  0  0  0  0  0  0
  182.2500  178.2890  138.6160 C   0  0  2  0  0  3  0  0  0  0  0  0
  182.4520  177.6580  134.8640 C   0  0  0  0  0  3  0  0  0  0  0  0
  181.9470  178.3010  137.1470 C   0  0  0  0  0  0  0  0  0  0  0  0
  182.7390  179.6660  139.0560 C   0  0  0  0  0  2  0  0  0  0  0  0
  183.2130  177.1690  139.0430 C   0  0  0  0  0  2  0  0  0  0  0  0
  181.0320  179.2500  136.6690 C   0  0  0  0  0  0  0  0  0  0  0  0
  180.1820  180.3260  137.8300 S   0  0  0  0  0  0  0  0  0  0  0  0
  180.8270  179.3980  135.2950 C   0  0  0  0  0  3  0  0  0  0  0  0
  184.2680  176.8660  138.0660 N   0  0  0  0  0  0  0  0  0  0  0  0
  183.7370  176.5620  136.7280 C   0  0  1  0  0  3  0  0  0  0  0  0
  181.7020  180.7820  138.7810 C   0  0  2  0  0  3  0  0  0  0  0  0
  181.5280  178.5950  134.3930 C   0  0  0  0  0  3  0  0  0  0  0  0
  184.4250  172.6920  136.6010 C   0  0  2  0  0  3  0  0  0  0  0  0
  181.3810  171.2480  136.7360 F   0  0  0  0  0  0  0  0  0  0  0  0
  185.4420  172.5780  135.6710 F   0  0  0  0  0  0  0  0  0  0  0  0
  181.4690  173.5780  137.0830 C   0  0  0  0  0  3  0  0  0  0  0  0
  183.4540  175.0630  136.5360 C   0  0  2  0  0  3  0  0  0  0  0  0
  183.2030  172.3780  135.9760 O   0  0  0  0  0  0  0  0  0  0  0  0
  182.0160  174.7940  136.9170 C   0  0  0  0  0  3  0  0  0  0  0  0
  184.4340  174.1000  137.2370 C   0  0  2  0  0  3  0  0  0  0  0  0
  185.7290  174.5850  137.2740 F   0  0  0  0  0  0  0  0  0  0  0  0
  182.2450  172.2940  136.9930 C   0  0  2  0  0  3  0  0  0  0  0  0
  182.2730  182.0090  138.3920 O   0  0  0  0  0  0  0  0  0  0  0  0
  181.2910  182.7640  137.7350 C   0  0  0  0  0  1  0  0  0  0  0  0
  185.2020  177.9850  137.9790 C   0  0  0  0  0  2  0  0  0  0  0  0
  187.2430  177.6430  136.6060 C   0  0  0  0  0  2  0  0  0  0  0  0
  188.4300  179.1060  138.0830 N   0  0  0  0  0  0  0  0  0  0  0  0
  187.4860  178.3680  138.8240 C   0  0  0  0  0  0  0  0  0  0  0  0
  187.3990  178.4530  140.0780 O   0  0  0  0  0  0  0  0  0  0  0  0
  188.2780  178.7750  136.6790 C   0  0  0  0  0  3  0  0  0  0  0  0
  186.6390  177.4820  137.9990 C   0  0  1  0  0  3  0  0  0  0  0  0
  1  4  1  0  0  0  0
  2  6  1  6  0  0  0
  2  5  1  0  0  0  0
  3  1  2  0  0  0  0
  4  2  1  0  0  0  0
  7  4  2  0  0  0  0
  7  8  1  0  0  0  0
  8 12  1  0  0  0  0
  9  7  1  0  0  0  0
 10  6  1  0  0  0  0
 11  1  1  1  0  0  0
 11 10  1  0  0  0  0
 12 24  1  6  0  0  0
 12  5  1  0  0  0  0
 13  3  1  0  0  0  0
 13  9  2  0  0  0  0
 14 16  1  6  0  0  0
 14 21  1  0  0  0  0
 18 11  1  0  0  0  0
 18 20  1  1  0  0  0
 18 21  1  0  0  0  0
 19 14  1  0  0  0  0
 19 23  1  0  0  0  0
 20 17  2  0  0  0  0
 21 22  1  6  0  0  0
 23 15  1  6  0  0  0
 23 17  1  0  0  0  0
 25 24  1  0  0  0  0
 26 10  1  0  0  0  0
 27 31  1  0  0  0  0
 27 32  1  0  0  0  0
 28 29  1  0  0  0  0
 29 30  2  0  0  0  0
 31 28  2  0  0  0  0
 32 26  1  6  0  0  0
 32 29  1  0  0  0  0
M  END
>  <MODEL>
9

>  <REMARK>
 VINA RESULT:      -5.5      3.861      6.784
  Name = 
  4 active torsions:
  status: ('A' for Active; 'I' for Inactive)
    1  A    between atoms: O_13  and  C_29
    2  A    between atoms: C_16  and  C_27
    3  A    between atoms: N_24  and  C_28
    4  A    between atoms: C_28  and  C_32
                            x       y       z     vdW  Elec       q    Type
                         _______ _______ _______ _____ _____    ______ ____

>  <TORSDO>
F 4

$$$$
