=
 OpenBabel10272401183D

 55 61  0  0  1  0  0  0  0  0999 V2000
  188.7140  178.2220  138.0930 C   0  0  1  0  0  3  0  0  0  0  0  0
  186.9950  174.4520  135.8230 C   0  0  0  0  0  2  0  0  0  0  0  0
  190.4110  173.4780  134.8550 C   0  0  0  0  0  1  0  0  0  0  0  0
  192.6830  175.6840  134.8420 C   0  0  0  0  0  3  0  0  0  0  0  0
  194.0400  175.5780  134.5250 C   0  0  0  0  0  3  0  0  0  0  0  0
  193.2520  176.1280  137.1610 C   0  0  0  0  0  0  0  0  0  0  0  0
  194.6100  176.0190  136.8380 C   0  0  0  0  0  3  0  0  0  0  0  0
  189.8400  175.6630  135.4830 C   0  0  0  0  0  2  0  0  0  0  0  0
  195.0030  175.7410  135.5250 C   0  0  0  0  0  3  0  0  0  0  0  0
  188.0990  178.4240  140.5020 N   0  0  0  0  0  2  0  0  0  0  0  0
  192.2660  175.9490  136.1640 C   0  0  0  0  0  0  0  0  0  0  0  0
  186.2100  177.7600  138.2640 C   0  0  0  0  0  0  0  0  0  0  0  0
  189.0680  176.7270  138.1540 C   0  0  0  0  0  2  0  0  0  0  0  0
  187.3160  178.4840  137.5270 C   0  0  0  0  0  2  0  0  0  0  0  0
  191.5220  176.5550  138.8160 C   0  0  0  0  0  0  0  0  0  0  0  0
  187.0880  175.8080  136.1370 O   0  0  0  0  0  0  0  0  0  0  0  0
  192.8700  176.4140  138.4770 C   0  0  0  0  0  3  0  0  0  0  0  0
  188.1780  174.0870  134.9290 C   0  0  0  0  0  2  0  0  0  0  0  0
  189.4570  174.2590  135.6200 N   0  0  0  0  0  0  0  0  0  0  0  0
  186.7890  179.0460  140.3750 C   0  0  0  0  0  2  0  0  0  0  0  0
  188.9380  178.9530  139.4280 C   0  0  0  0  0  2  0  0  0  0  0  0
  190.8970  176.0430  136.4980 C   0  0  0  0  0  0  0  0  0  0  0  0
  190.5190  176.4360  137.8220 C   0  0  0  0  0  0  0  0  0  0  0  0
  185.7800  176.2980  136.2510 C   0  0  1  0  0  3  0  0  0  0  0  0
  185.5250  176.7870  137.6570 C   0  0  0  0  0  3  0  0  0  0  0  0
  185.8250  178.0840  139.6860 C   0  0  0  0  0  2  0  0  0  0  0  0
  191.8880  177.6820  141.0140 C   0  0  0  0  0  3  0  0  0  0  0  0
  190.5270  177.1540  142.9580 C   0  0  0  0  0  0  0  0  0  0  0  0
  190.1220  176.0350  140.8310 C   0  0  0  0  0  3  0  0  0  0  0  0
  189.8090  176.2230  142.1890 C   0  0  0  0  0  3  0  0  0  0  0  0
  191.5810  177.8620  142.3690 C   0  0  0  0  0  3  0  0  0  0  0  0
  191.1740  176.7470  140.2480 C   0  0  0  0  0  0  0  0  0  0  0  0
  190.2430  177.3190  144.3960 C   0  0  0  0  0  0  0  0  0  0  0  0
  189.0100  176.8730  144.8790 O   0  0  0  0  0  0  0  0  0  0  0  0
  191.1740  177.5070  145.2240 O   0  0  0  0  0  1  0  0  0  0  0  0
  185.5180  177.3890  135.2110 C   0  0  0  0  0  2  0  0  0  0  0  0
  184.2130  177.0820  134.4780 C   0  0  0  0  0  2  0  0  0  0  0  0
  183.0390  177.4290  135.3860 C   0  0  0  0  0  2  0  0  0  0  0  0
  182.0350  175.3070  134.8700 O   0  0  0  0  0  1  0  0  0  0  0  0
  182.3620  176.1560  135.9340 C   0  0  2  0  0  3  0  0  0  0  0  0
  181.1310  176.5160  136.7880 C   0  0  1  0  0  3  0  0  0  0  0  0
  179.9840  175.4910  136.6190 C   0  0  0  0  0  1  0  0  0  0  0  0
  182.6240  176.4060  138.7230 O   0  0  0  0  0  1  0  0  0  0  0  0
  180.3700  176.2120  139.2580 C   0  0  0  0  0  2  0  0  0  0  0  0
  181.3500  176.8470  138.3040 C   0  0  2  0  0  0  0  0  0  0  0  0
  181.0450  178.4960  140.4050 C   0  0  1  0  0  3  0  0  0  0  0  0
  181.0030  178.2470  138.8870 C   0  0  2  0  0  0  0  0  0  0  0  0
  179.9830  177.5650  139.8300 C   0  0  1  0  0  3  0  0  0  0  0  0
  182.1290  177.7740  141.0620 N   0  0  0  0  0  2  0  0  0  0  0  0
  182.8790  178.7300  141.8670 C   0  0  0  0  0  1  0  0  0  0  0  0
  180.2480  179.2830  137.9950 C   0  0  0  0  0  2  0  0  0  0  0  0
  181.1050  180.2420  137.1070 C   0  0  1  0  0  3  0  0  0  0  0  0
  180.6260  180.2620  135.3340 S   0  0  0  0  0  1  0  0  0  0  0  0
  181.2330  181.5680  137.6400 O   0  0  0  0  0  0  0  0  0  0  0  0
  180.6030  182.4630  136.7600 C   0  0  0  0  0  1  0  0  0  0  0  0
  1 14  1  1  0  0  0
  1 13  1  0  0  0  0
  1 21  1  0  0  0  0
  2 16  1  0  0  0  0
  3 19  1  0  0  0  0
  4 11  1  0  0  0  0
  5  4  2  0  0  0  0
  5  9  1  0  0  0  0
  6 17  1  0  0  0  0
  7  6  1  0  0  0  0
  8 19  1  0  0  0  0
  8 22  1  0  0  0  0
  9  7  2  0  0  0  0
 11 22  1  0  0  0  0
 11  6  2  0  0  0  0
 12 26  1  0  0  0  0
 14 12  1  0  0  0  0
 15 32  1  0  0  0  0
 16 24  1  0  0  0  0
 17 15  2  0  0  0  0
 18 19  1  0  0  0  0
 18  2  1  0  0  0  0
 20 10  1  0  0  0  0
 21 10  1  0  0  0  0
 22 23  2  0  0  0  0
 23 13  1  0  0  0  0
 23 15  1  0  0  0  0
 24 36  1  6  0  0  0
 24 25  1  0  0  0  0
 25 12  2  0  0  0  0
 26 20  1  0  0  0  0
 27 31  1  0  0  0  0
 28 33  1  0  0  0  0
 29 30  2  0  0  0  0
 30 28  1  0  0  0  0
 31 28  2  0  0  0  0
 32 29  1  0  0  0  0
 32 27  2  0  0  0  0
 33 34  2  0  0  0  0
 33 35  1  0  0  0  0
 37 36  1  0  0  0  0
 37 38  1  0  0  0  0
 38 40  1  0  0  0  0
 40 39  1  6  0  0  0
 40 41  1  0  0  0  0
 41 42  1  1  0  0  0
 41 45  1  0  0  0  0
 45 43  1  1  0  0  0
 45 47  1  0  0  0  0
 45 44  1  0  0  0  0
 46 49  1  1  0  0  0
 47 51  1  6  0  0  0
 47 48  1  0  0  0  0
 47 46  1  0  0  0  0
 48 44  1  1  0  0  0
 48 46  1  0  0  0  0
 49 50  1  0  0  0  0
 52 53  1  6  0  0  0
 52 54  1  0  0  0  0
 52 51  1  0  0  0  0
 55 54  1  0  0  0  0
M  END
>  <MODEL>
1

>  <REMARK>
 VINA RESULT:      -5.1      0.000      0.000
  Name = 
  12 active torsions:
  status: ('A' for Active; 'I' for Inactive)
    1  A    between atoms: C_1  and  O_30
    2  A    between atoms: C_1  and  C_53
    3  A    between atoms: C_6  and  C_14
    4  A    between atoms: C_6  and  C_20
    5  A    between atoms: C_8  and  C_22
    6  A    between atoms: C_8  and  C_43
    7  A    between atoms: C_10  and  C_32
    8  A    between atoms: N_11  and  C_29
    9  A    between atoms: C_20  and  C_22
   10  A    between atoms: C_33  and  C_52
   11  A    between atoms: C_38  and  C_53
   12  A    between atoms: C_43  and  C_51
                            x       y       z     vdW  Elec       q    Type
                         _______ _______ _______ _____ _____    ______ ____

>  <TORSDO>
F 12

$$$$
=
 OpenBabel10272401183D

 55 61  0  0  1  0  0  0  0  0999 V2000
  183.9070  174.2230  137.7440 C   0  0  1  0  0  3  0  0  0  0  0  0
  184.7570  178.0660  135.1300 C   0  0  0  0  0  2  0  0  0  0  0  0
  188.1200  176.7880  134.3490 C   0  0  0  0  0  1  0  0  0  0  0  0
  189.4220  174.6350  136.2720 C   0  0  0  0  0  3  0  0  0  0  0  0
  190.6630  173.9950  136.2000 C   0  0  0  0  0  3  0  0  0  0  0  0
  188.3010  172.5250  135.8340 C   0  0  0  0  0  0  0  0  0  0  0  0
  189.5470  171.8910  135.7620 C   0  0  0  0  0  3  0  0  0  0  0  0
  186.8840  176.0650  136.2040 C   0  0  0  0  0  2  0  0  0  0  0  0
  190.7240  172.6240  135.9400 C   0  0  0  0  0  3  0  0  0  0  0  0
  181.8830  172.9030  137.1230 N   0  0  0  0  0  2  0  0  0  0  0  0
  188.2230  173.9150  136.0800 C   0  0  0  0  0  0  0  0  0  0  0  0
  182.0030  175.8900  137.4090 C   0  0  0  0  0  0  0  0  0  0  0  0
  184.4150  174.4040  136.3050 C   0  0  0  0  0  2  0  0  0  0  0  0
  183.1630  175.4530  138.2750 C   0  0  0  0  0  2  0  0  0  0  0  0
  185.8750  172.3880  135.7580 C   0  0  0  0  0  0  0  0  0  0  0  0
  184.3740  177.3760  136.2800 O   0  0  0  0  0  0  0  0  0  0  0  0
  187.1290  171.7810  135.6610 C   0  0  0  0  0  3  0  0  0  0  0  0
  186.2810  178.0170  135.0300 C   0  0  0  0  0  2  0  0  0  0  0  0
  186.7730  176.6480  134.8680 N   0  0  0  0  0  0  0  0  0  0  0  0
  180.8620  173.6610  137.8300 C   0  0  0  0  0  2  0  0  0  0  0  0
  183.0940  172.9320  137.9430 C   0  0  0  0  0  2  0  0  0  0  0  0
  186.9660  174.5540  136.1350 C   0  0  0  0  0  0  0  0  0  0  0  0
  185.7700  173.7690  136.0590 C   0  0  0  0  0  0  0  0  0  0  0  0
  183.2260  178.0060  136.7790 C   0  0  1  0  0  3  0  0  0  0  0  0
  182.0540  177.0540  136.7560 C   0  0  0  0  0  3  0  0  0  0  0  0
  180.7530  175.0610  137.2340 C   0  0  0  0  0  2  0  0  0  0  0  0
  183.6670  172.0960  134.6280 C   0  0  0  0  0  3  0  0  0  0  0  0
  182.3900  170.0380  134.8400 C   0  0  0  0  0  0  0  0  0  0  0  0
  184.5470  170.2700  135.9520 C   0  0  0  0  0  3  0  0  0  0  0  0
  183.3990  169.5090  135.6620 C   0  0  0  0  0  3  0  0  0  0  0  0
  182.5200  171.3430  134.3470 C   0  0  0  0  0  3  0  0  0  0  0  0
  184.6720  171.5700  135.4550 C   0  0  0  0  0  0  0  0  0  0  0  0
  181.1580  169.2720  134.5750 C   0  0  0  0  0  0  0  0  0  0  0  0
  181.1430  167.9140  134.9080 O   0  0  0  0  0  1  0  0  0  0  0  0
  180.0550  169.8540  134.4020 O   0  0  0  0  0  0  0  0  0  0  0  0
  183.4810  178.5640  138.1800 C   0  0  0  0  0  2  0  0  0  0  0  0
  184.9460  178.3380  138.5530 C   0  0  0  0  0  2  0  0  0  0  0  0
  185.0620  178.2290  140.0690 C   0  0  0  0  0  2  0  0  0  0  0  0
  187.4360  178.5090  139.8140 O   0  0  0  0  0  1  0  0  0  0  0  0
  186.3400  178.9230  140.5810 C   0  0  2  0  0  3  0  0  0  0  0  0
  186.5470  178.6480  142.0830 C   0  0  1  0  0  3  0  0  0  0  0  0
  185.4160  177.7750  142.6770 C   0  0  0  0  0  1  0  0  0  0  0  0
  188.9670  179.0020  142.1290 O   0  0  0  0  0  1  0  0  0  0  0  0
  188.3420  176.7640  142.0440 C   0  0  0  0  0  2  0  0  0  0  0  0
  187.9470  178.1260  142.5570 C   0  0  2  0  0  0  0  0  0  0  0  0
  189.5000  176.9560  144.4120 C   0  0  1  0  0  3  0  0  0  0  0  0
  188.1790  177.6380  144.0150 C   0  0  2  0  0  0  0  0  0  0  0  0
  188.5500  176.2440  143.4560 C   0  0  1  0  0  3  0  0  0  0  0  0
  190.6560  177.5310  143.7320 N   0  0  0  0  0  2  0  0  0  0  0  0
  191.6500  177.8630  144.7440 C   0  0  0  0  0  1  0  0  0  0  0  0
  186.9580  177.4850  144.9770 C   0  0  0  0  0  2  0  0  0  0  0  0
  186.8110  178.5190  146.1390 C   0  0  1  0  0  3  0  0  0  0  0  0
  185.1540  178.5410  146.9300 S   0  0  0  0  0  1  0  0  0  0  0  0
  187.8650  178.4520  147.1110 O   0  0  0  0  0  0  0  0  0  0  0  0
  187.9760  177.1230  147.5540 C   0  0  0  0  0  1  0  0  0  0  0  0
  1 13  1  6  0  0  0
  1 21  1  0  0  0  0
  1 14  1  0  0  0  0
  2 16  1  0  0  0  0
  3 19  1  0  0  0  0
  5  4  1  0  0  0  0
  6 11  1  0  0  0  0
  7  6  2  0  0  0  0
  7  9  1  0  0  0  0
  9  5  2  0  0  0  0
 10 20  1  0  0  0  0
 10 21  1  0  0  0  0
 11 22  1  0  0  0  0
 11  4  2  0  0  0  0
 12 14  1  0  0  0  0
 15 23  1  0  0  0  0
 16 24  1  0  0  0  0
 17 15  2  0  0  0  0
 17  6  1  0  0  0  0
 18  2  1  0  0  0  0
 19 18  1  0  0  0  0
 19  8  1  0  0  0  0
 22  8  1  0  0  0  0
 23 22  2  0  0  0  0
 23 13  1  0  0  0  0
 24 36  1  1  0  0  0
 25 24  1  0  0  0  0
 25 12  2  0  0  0  0
 26 12  1  0  0  0  0
 26 20  1  0  0  0  0
 27 32  1  0  0  0  0
 28 30  2  0  0  0  0
 30 29  1  0  0  0  0
 31 27  2  0  0  0  0
 31 28  1  0  0  0  0
 32 15  1  0  0  0  0
 32 29  2  0  0  0  0
 33 28  1  0  0  0  0
 33 34  1  0  0  0  0
 35 33  2  0  0  0  0
 36 37  1  0  0  0  0
 37 38  1  0  0  0  0
 38 40  1  0  0  0  0
 40 39  1  6  0  0  0
 40 41  1  0  0  0  0
 41 45  1  0  0  0  0
 41 42  1  6  0  0  0
 44 45  1  0  0  0  0
 45 43  1  6  0  0  0
 45 47  1  0  0  0  0
 46 49  1  6  0  0  0
 47 46  1  0  0  0  0
 47 51  1  1  0  0  0
 48 44  1  6  0  0  0
 48 47  1  0  0  0  0
 48 46  1  0  0  0  0
 49 50  1  0  0  0  0
 51 52  1  0  0  0  0
 52 53  1  1  0  0  0
 52 54  1  0  0  0  0
 54 55  1  0  0  0  0
M  END
>  <MODEL>
2

>  <REMARK>
 VINA RESULT:      -4.0      3.666      8.596
  Name = 
  12 active torsions:
  status: ('A' for Active; 'I' for Inactive)
    1  A    between atoms: C_1  and  O_30
    2  A    between atoms: C_1  and  C_53
    3  A    between atoms: C_6  and  C_14
    4  A    between atoms: C_6  and  C_20
    5  A    between atoms: C_8  and  C_22
    6  A    between atoms: C_8  and  C_43
    7  A    between atoms: C_10  and  C_32
    8  A    between atoms: N_11  and  C_29
    9  A    between atoms: C_20  and  C_22
   10  A    between atoms: C_33  and  C_52
   11  A    between atoms: C_38  and  C_53
   12  A    between atoms: C_43  and  C_51
                            x       y       z     vdW  Elec       q    Type
                         _______ _______ _______ _____ _____    ______ ____

>  <TORSDO>
F 12

$$$$
=
 OpenBabel10272401183D

 55 61  0  0  1  0  0  0  0  0999 V2000
  188.1870  178.4290  139.0980 C   0  0  1  0  0  3  0  0  0  0  0  0
  186.7530  174.6460  136.6580 C   0  0  0  0  0  2  0  0  0  0  0  0
  190.2590  173.6310  136.1730 C   0  0  0  0  0  1  0  0  0  0  0  0
  192.5340  175.8180  136.4440 C   0  0  0  0  0  3  0  0  0  0  0  0
  193.9210  175.6970  136.3150 C   0  0  0  0  0  3  0  0  0  0  0  0
  192.7880  176.2850  138.8140 C   0  0  0  0  0  0  0  0  0  0  0  0
  194.1760  176.1610  138.6790 C   0  0  0  0  0  3  0  0  0  0  0  0
  189.6300  175.8290  136.6930 C   0  0  0  0  0  2  0  0  0  0  0  0
  194.7400  175.8640  137.4340 C   0  0  0  0  0  3  0  0  0  0  0  0
  187.2520  178.6660  141.3980 N   0  0  0  0  0  2  0  0  0  0  0  0
  191.9440  176.1030  137.6940 C   0  0  0  0  0  0  0  0  0  0  0  0
  185.6780  177.9910  138.9320 C   0  0  0  0  0  0  0  0  0  0  0  0
  188.5130  176.9320  139.2230 C   0  0  0  0  0  2  0  0  0  0  0  0
  186.8810  178.6960  138.3440 C   0  0  0  0  0  2  0  0  0  0  0  0
  190.8540  176.7480  140.2130 C   0  0  0  0  0  0  0  0  0  0  0  0
  186.8160  176.0050  136.9660 O   0  0  0  0  0  0  0  0  0  0  0  0
  192.2340  176.5910  140.0620 C   0  0  0  0  0  3  0  0  0  0  0  0
  188.0430  174.2590  135.9360 C   0  0  0  0  0  2  0  0  0  0  0  0
  189.2180  174.4290  136.7930 N   0  0  0  0  0  0  0  0  0  0  0  0
  185.9780  179.2980  141.0880 C   0  0  0  0  0  2  0  0  0  0  0  0
  188.2350  179.1750  140.4430 C   0  0  0  0  0  2  0  0  0  0  0  0
  190.5440  176.2130  137.8380 C   0  0  0  0  0  0  0  0  0  0  0  0
  189.9930  176.6250  139.0940 C   0  0  0  0  0  0  0  0  0  0  0  0
  185.5100  176.5080  136.8970 C   0  0  1  0  0  3  0  0  0  0  0  0
  185.0720  177.0160  138.2490 C   0  0  0  0  0  3  0  0  0  0  0  0
  185.1070  178.3360  140.2860 C   0  0  0  0  0  2  0  0  0  0  0  0
  190.6250  178.1450  142.2700 C   0  0  0  0  0  3  0  0  0  0  0  0
  189.2980  177.4070  144.1690 C   0  0  0  0  0  0  0  0  0  0  0  0
  189.4800  176.0130  142.1790 C   0  0  0  0  0  3  0  0  0  0  0  0
  188.9850  176.2250  143.4780 C   0  0  0  0  0  3  0  0  0  0  0  0
  190.1390  178.3520  143.5670 C   0  0  0  0  0  3  0  0  0  0  0  0
  190.3170  176.9600  141.5820 C   0  0  0  0  0  0  0  0  0  0  0  0
  188.8300  177.6160  145.5530 C   0  0  0  0  0  0  0  0  0  0  0  0
  187.4690  177.4410  145.8200 O   0  0  0  0  0  0  0  0  0  0  0  0
  189.6350  177.5930  146.5210 O   0  0  0  0  0  1  0  0  0  0  0  0
  185.4030  177.5880  135.8180 C   0  0  0  0  0  2  0  0  0  0  0  0
  185.2140  176.9210  134.4560 C   0  0  0  0  0  2  0  0  0  0  0  0
  183.7940  176.3760  134.3610 C   0  0  0  0  0  2  0  0  0  0  0  0
  183.9840  174.0040  134.7040 O   0  0  0  0  0  1  0  0  0  0  0  0
  183.5850  175.1920  135.3280 C   0  0  2  0  0  3  0  0  0  0  0  0
  182.1230  175.1310  135.8090 C   0  0  1  0  0  3  0  0  0  0  0  0
  181.4140  173.8310  135.3590 C   0  0  0  0  0  1  0  0  0  0  0  0
  182.9490  175.1020  138.1110 O   0  0  0  0  0  1  0  0  0  0  0  0
  180.6770  174.6490  137.9180 C   0  0  0  0  0  2  0  0  0  0  0  0
  181.8250  175.4220  137.3200 C   0  0  2  0  0  0  0  0  0  0  0  0
  180.7030  176.9420  139.2310 C   0  0  1  0  0  3  0  0  0  0  0  0
  181.1590  176.7520  137.7740 C   0  0  2  0  0  0  0  0  0  0  0  0
  179.9820  175.9290  138.3500 C   0  0  1  0  0  3  0  0  0  0  0  0
  181.6060  176.3130  140.1890 N   0  0  0  0  0  2  0  0  0  0  0  0
  181.9820  177.3180  141.1750 C   0  0  0  0  0  1  0  0  0  0  0  0
  180.6040  177.7380  136.6970 C   0  0  0  0  0  2  0  0  0  0  0  0
  181.1170  179.2140  136.7260 C   0  0  1  0  0  3  0  0  0  0  0  0
  180.3970  180.2920  135.4260 S   0  0  0  0  0  1  0  0  0  0  0  0
  181.0510  179.8250  138.0230 O   0  0  0  0  0  0  0  0  0  0  0  0
  182.3230  180.3330  138.3390 C   0  0  0  0  0  1  0  0  0  0  0  0
  1 14  1  1  0  0  0
  1 13  1  0  0  0  0
  1 21  1  0  0  0  0
  2 16  1  0  0  0  0
  3 19  1  0  0  0  0
  4 11  1  0  0  0  0
  5  4  2  0  0  0  0
  5  9  1  0  0  0  0
  6 17  1  0  0  0  0
  7  6  1  0  0  0  0
  8 19  1  0  0  0  0
  8 22  1  0  0  0  0
  9  7  2  0  0  0  0
 11 22  1  0  0  0  0
 11  6  2  0  0  0  0
 12 26  1  0  0  0  0
 14 12  1  0  0  0  0
 15 32  1  0  0  0  0
 17 15  2  0  0  0  0
 18  2  1  0  0  0  0
 18 19  1  0  0  0  0
 20 10  1  0  0  0  0
 21 10  1  0  0  0  0
 22 23  2  0  0  0  0
 23 13  1  0  0  0  0
 23 15  1  0  0  0  0
 24 36  1  6  0  0  0
 24 16  1  0  0  0  0
 24 25  1  0  0  0  0
 25 12  2  0  0  0  0
 26 20  1  0  0  0  0
 27 31  1  0  0  0  0
 28 33  1  0  0  0  0
 29 30  2  0  0  0  0
 30 28  1  0  0  0  0
 31 28  2  0  0  0  0
 32 29  1  0  0  0  0
 32 27  2  0  0  0  0
 33 34  2  0  0  0  0
 33 35  1  0  0  0  0
 37 36  1  0  0  0  0
 38 37  1  0  0  0  0
 38 40  1  0  0  0  0
 40 39  1  6  0  0  0
 40 41  1  0  0  0  0
 41 42  1  1  0  0  0
 41 45  1  0  0  0  0
 45 47  1  0  0  0  0
 45 44  1  0  0  0  0
 45 43  1  1  0  0  0
 46 49  1  1  0  0  0
 47 51  1  6  0  0  0
 47 48  1  0  0  0  0
 47 46  1  0  0  0  0
 48 44  1  1  0  0  0
 48 46  1  0  0  0  0
 49 50  1  0  0  0  0
 51 52  1  0  0  0  0
 52 53  1  6  0  0  0
 52 54  1  0  0  0  0
 54 55  1  0  0  0  0
M  END
>  <MODEL>
3

>  <REMARK>
 VINA RESULT:      -3.8      1.294      1.621
  Name = 
  12 active torsions:
  status: ('A' for Active; 'I' for Inactive)
    1  A    between atoms: C_1  and  O_30
    2  A    between atoms: C_1  and  C_53
    3  A    between atoms: C_6  and  C_14
    4  A    between atoms: C_6  and  C_20
    5  A    between atoms: C_8  and  C_22
    6  A    between atoms: C_8  and  C_43
    7  A    between atoms: C_10  and  C_32
    8  A    between atoms: N_11  and  C_29
    9  A    between atoms: C_20  and  C_22
   10  A    between atoms: C_33  and  C_52
   11  A    between atoms: C_38  and  C_53
   12  A    between atoms: C_43  and  C_51
                            x       y       z     vdW  Elec       q    Type
                         _______ _______ _______ _____ _____    ______ ____

>  <TORSDO>
F 12

$$$$
=
 OpenBabel10272401183D

 55 61  0  0  1  0  0  0  0  0999 V2000
  188.1270  178.3890  139.0420 C   0  0  1  0  0  3  0  0  0  0  0  0
  186.8760  174.5440  136.5980 C   0  0  0  0  0  2  0  0  0  0  0  0
  190.4260  173.6730  136.1550 C   0  0  0  0  0  1  0  0  0  0  0  0
  192.6060  175.9510  136.4440 C   0  0  0  0  0  3  0  0  0  0  0  0
  193.9980  175.8870  136.3310 C   0  0  0  0  0  3  0  0  0  0  0  0
  192.8150  176.4350  138.8150 C   0  0  0  0  0  0  0  0  0  0  0  0
  194.2080  176.3670  138.6950 C   0  0  0  0  0  3  0  0  0  0  0  0
  189.7020  175.8440  136.6610 C   0  0  0  0  0  2  0  0  0  0  0  0
  194.7980  176.0900  137.4580 C   0  0  0  0  0  3  0  0  0  0  0  0
  187.1590  178.5930  141.3320 N   0  0  0  0  0  2  0  0  0  0  0  0
  191.9920  176.2150  137.6870 C   0  0  0  0  0  0  0  0  0  0  0  0
  185.6400  177.8480  138.8510 C   0  0  0  0  0  0  0  0  0  0  0  0
  188.5130  176.9070  139.1760 C   0  0  0  0  0  2  0  0  0  0  0  0
  186.8190  178.6000  138.2740 C   0  0  0  0  0  2  0  0  0  0  0  0
  190.8490  176.8210  140.1920 C   0  0  0  0  0  0  0  0  0  0  0  0
  186.8810  175.9050  136.9030 O   0  0  0  0  0  0  0  0  0  0  0  0
  192.2350  176.7200  140.0560 C   0  0  0  0  0  3  0  0  0  0  0  0
  188.1890  174.2090  135.8920 C   0  0  0  0  0  2  0  0  0  0  0  0
  189.3470  174.4290  136.7610 N   0  0  0  0  0  0  0  0  0  0  0  0
  185.8630  179.1720  141.0060 C   0  0  0  0  0  2  0  0  0  0  0  0
  188.1300  179.1400  140.3850 C   0  0  0  0  0  2  0  0  0  0  0  0
  190.5870  176.2680  137.8150 C   0  0  0  0  0  0  0  0  0  0  0  0
  190.0060  176.6600  139.0640 C   0  0  0  0  0  0  0  0  0  0  0  0
  185.5560  176.3540  136.8180 C   0  0  1  0  0  3  0  0  0  0  0  0
  185.0820  176.8470  138.1640 C   0  0  0  0  0  3  0  0  0  0  0  0
  185.0410  178.1720  140.1970 C   0  0  0  0  0  2  0  0  0  0  0  0
  190.7110  178.1080  142.3280 C   0  0  0  0  0  3  0  0  0  0  0  0
  189.2310  177.4270  144.1320 C   0  0  0  0  0  0  0  0  0  0  0  0
  189.3190  176.1450  142.0610 C   0  0  0  0  0  3  0  0  0  0  0  0
  188.8030  176.3370  143.3550 C   0  0  0  0  0  3  0  0  0  0  0  0
  190.2040  178.2950  143.6200 C   0  0  0  0  0  3  0  0  0  0  0  0
  190.2880  177.0150  141.5540 C   0  0  0  0  0  0  0  0  0  0  0  0
  188.7380  177.6070  145.5100 C   0  0  0  0  0  0  0  0  0  0  0  0
  187.6100  178.4090  145.7060 O   0  0  0  0  0  0  0  0  0  0  0  0
  189.0680  176.8100  146.4270 O   0  0  0  0  0  1  0  0  0  0  0  0
  185.4160  177.4260  135.7350 C   0  0  0  0  0  2  0  0  0  0  0  0
  185.2610  176.7480  134.3750 C   0  0  0  0  0  2  0  0  0  0  0  0
  183.9410  175.9860  134.3460 C   0  0  0  0  0  2  0  0  0  0  0  0
  184.9220  173.7920  134.3460 O   0  0  0  0  0  1  0  0  0  0  0  0
  184.0650  174.6290  135.0690 C   0  0  2  0  0  3  0  0  0  0  0  0
  182.6770  173.9940  135.2810 C   0  0  1  0  0  3  0  0  0  0  0  0
  182.6200  172.5330  134.7750 C   0  0  0  0  0  1  0  0  0  0  0  0
  183.0050  174.3010  137.6860 O   0  0  0  0  0  1  0  0  0  0  0  0
  181.2260  172.9050  137.1470 C   0  0  0  0  0  2  0  0  0  0  0  0
  182.0160  174.1080  136.6980 C   0  0  2  0  0  0  0  0  0  0  0  0
  180.0250  174.9650  138.2870 C   0  0  1  0  0  3  0  0  0  0  0  0
  180.7730  175.0100  136.9420 C   0  0  2  0  0  0  0  0  0  0  0  0
  179.9830  173.7500  137.3680 C   0  0  1  0  0  3  0  0  0  0  0  0
  180.9220  174.7820  139.4220 N   0  0  0  0  0  2  0  0  0  0  0  0
  180.9990  176.0480  140.1400 C   0  0  0  0  0  1  0  0  0  0  0  0
  180.0500  175.6680  135.7230 C   0  0  0  0  0  2  0  0  0  0  0  0
  180.0660  177.2270  135.6220 C   0  0  1  0  0  3  0  0  0  0  0  0
  180.2500  178.0900  137.2330 S   0  0  0  0  0  1  0  0  0  0  0  0
  180.9780  177.7350  134.6370 O   0  0  0  0  0  0  0  0  0  0  0  0
  180.8790  179.1370  134.6220 C   0  0  0  0  0  1  0  0  0  0  0  0
  1 14  1  1  0  0  0
  1 13  1  0  0  0  0
  1 21  1  0  0  0  0
  2 16  1  0  0  0  0
  3 19  1  0  0  0  0
  4 11  1  0  0  0  0
  5  4  2  0  0  0  0
  5  9  1  0  0  0  0
  6 17  1  0  0  0  0
  7  6  1  0  0  0  0
  8 19  1  0  0  0  0
  8 22  1  0  0  0  0
  9  7  2  0  0  0  0
 11 22  1  0  0  0  0
 11  6  2  0  0  0  0
 12 26  1  0  0  0  0
 14 12  1  0  0  0  0
 15 32  1  0  0  0  0
 17 15  2  0  0  0  0
 18  2  1  0  0  0  0
 18 19  1  0  0  0  0
 20 10  1  0  0  0  0
 21 10  1  0  0  0  0
 22 23  2  0  0  0  0
 23 13  1  0  0  0  0
 23 15  1  0  0  0  0
 24 36  1  6  0  0  0
 24 16  1  0  0  0  0
 24 25  1  0  0  0  0
 25 12  2  0  0  0  0
 26 20  1  0  0  0  0
 27 31  1  0  0  0  0
 28 33  1  0  0  0  0
 29 30  2  0  0  0  0
 30 28  1  0  0  0  0
 31 28  2  0  0  0  0
 32 29  1  0  0  0  0
 32 27  2  0  0  0  0
 33 34  2  0  0  0  0
 33 35  1  0  0  0  0
 37 36  1  0  0  0  0
 38 37  1  0  0  0  0
 38 40  1  0  0  0  0
 40 39  1  6  0  0  0
 40 41  1  0  0  0  0
 41 42  1  1  0  0  0
 41 45  1  0  0  0  0
 45 47  1  0  0  0  0
 45 44  1  0  0  0  0
 45 43  1  1  0  0  0
 46 49  1  1  0  0  0
 47 51  1  6  0  0  0
 47 48  1  0  0  0  0
 47 46  1  0  0  0  0
 48 44  1  1  0  0  0
 48 46  1  0  0  0  0
 49 50  1  0  0  0  0
 52 51  1  0  0  0  0
 52 53  1  1  0  0  0
 54 52  1  0  0  0  0
 55 54  1  0  0  0  0
M  END
>  <MODEL>
4

>  <REMARK>
 VINA RESULT:      -3.7      1.802      2.414
  Name = 
  12 active torsions:
  status: ('A' for Active; 'I' for Inactive)
    1  A    between atoms: C_1  and  O_30
    2  A    between atoms: C_1  and  C_53
    3  A    between atoms: C_6  and  C_14
    4  A    between atoms: C_6  and  C_20
    5  A    between atoms: C_8  and  C_22
    6  A    between atoms: C_8  and  C_43
    7  A    between atoms: C_10  and  C_32
    8  A    between atoms: N_11  and  C_29
    9  A    between atoms: C_20  and  C_22
   10  A    between atoms: C_33  and  C_52
   11  A    between atoms: C_38  and  C_53
   12  A    between atoms: C_43  and  C_51
                            x       y       z     vdW  Elec       q    Type
                         _______ _______ _______ _____ _____    ______ ____

>  <TORSDO>
F 12

$$$$
=
 OpenBabel10272401183D

 55 61  0  0  1  0  0  0  0  0999 V2000
  185.0450  176.4050  137.8180 C   0  0  1  0  0  3  0  0  0  0  0  0
  187.5230  174.0830  134.5340 C   0  0  0  0  0  2  0  0  0  0  0  0
  184.8790  171.5290  134.3460 C   0  0  0  0  0  1  0  0  0  0  0  0
  182.8940  171.2010  136.7920 C   0  0  0  0  0  3  0  0  0  0  0  0
  181.8190  170.3260  136.9700 C   0  0  0  0  0  3  0  0  0  0  0  0
  181.3590  173.0820  136.7150 C   0  0  0  0  0  0  0  0  0  0  0  0
  180.2870  172.2000  136.8910 C   0  0  0  0  0  3  0  0  0  0  0  0
  185.1530  172.9440  136.1940 C   0  0  0  0  0  2  0  0  0  0  0  0
  180.5150  170.8260  137.0150 C   0  0  0  0  0  3  0  0  0  0  0  0
  184.5260  178.7920  137.3140 N   0  0  0  0  0  2  0  0  0  0  0  0
  182.6830  172.5900  136.6510 C   0  0  0  0  0  0  0  0  0  0  0  0
  187.2010  177.4730  136.9670 C   0  0  0  0  0  0  0  0  0  0  0  0
  184.6730  175.8740  136.4250 C   0  0  0  0  0  2  0  0  0  0  0  0
  186.5550  176.5840  138.0070 C   0  0  0  0  0  2  0  0  0  0  0  0
  182.1780  175.3560  136.4530 C   0  0  0  0  0  0  0  0  0  0  0  0
  187.3260  174.7080  135.7650 O   0  0  0  0  0  0  0  0  0  0  0  0
  181.1200  174.4560  136.6010 C   0  0  0  0  0  3  0  0  0  0  0  0
  186.8560  172.7100  134.5830 C   0  0  0  0  0  2  0  0  0  0  0  0
  185.4060  172.8140  134.7600 N   0  0  0  0  0  0  0  0  0  0  0  0
  185.7670  179.4160  137.7500 C   0  0  0  0  0  2  0  0  0  0  0  0
  184.2640  177.6700  138.2140 C   0  0  0  0  0  2  0  0  0  0  0  0
  183.7610  173.4800  136.4570 C   0  0  0  0  0  0  0  0  0  0  0  0
  183.5170  174.8920  136.4430 C   0  0  0  0  0  0  0  0  0  0  0  0
  188.4550  175.5010  136.0140 C   0  0  1  0  0  3  0  0  0  0  0  0
  188.0660  176.9580  136.0890 C   0  0  0  0  0  3  0  0  0  0  0  0
  186.9180  178.9510  136.8620 C   0  0  0  0  0  2  0  0  0  0  0  0
  181.2100  177.5220  137.2340 C   0  0  0  0  0  3  0  0  0  0  0  0
  181.2470  179.5110  135.8350 C   0  0  0  0  0  0  0  0  0  0  0  0
  182.2170  177.4230  135.0330 C   0  0  0  0  0  3  0  0  0  0  0  0
  181.8980  178.7780  134.8290 C   0  0  0  0  0  3  0  0  0  0  0  0
  180.8850  178.8690  137.0260 C   0  0  0  0  0  3  0  0  0  0  0  0
  181.8550  176.7890  136.2250 C   0  0  0  0  0  0  0  0  0  0  0  0
  180.8590  180.9160  135.6110 C   0  0  0  0  0  0  0  0  0  0  0  0
  180.7350  181.7500  136.7250 O   0  0  0  0  0  1  0  0  0  0  0  0
  180.9840  181.4510  134.4780 O   0  0  0  0  0  0  0  0  0  0  0  0
  189.1750  175.0350  137.2810 C   0  0  0  0  0  2  0  0  0  0  0  0
  190.4700  175.8280  137.4440 C   0  0  0  0  0  2  0  0  0  0  0  0
  190.8950  175.7930  138.9080 C   0  0  0  0  0  2  0  0  0  0  0  0
  189.8520  177.9360  139.2220 O   0  0  0  0  0  1  0  0  0  0  0  0
  189.9610  176.6560  139.7800 C   0  0  2  0  0  3  0  0  0  0  0  0
  190.4600  176.7000  141.2370 C   0  0  1  0  0  3  0  0  0  0  0  0
  191.8020  177.4590  141.3720 C   0  0  0  0  0  1  0  0  0  0  0  0
  188.1910  176.5730  142.1420 O   0  0  0  0  0  1  0  0  0  0  0  0
  189.2100  178.6420  142.4350 C   0  0  0  0  0  2  0  0  0  0  0  0
  189.4580  177.1570  142.3520 C   0  0  2  0  0  0  0  0  0  0  0  0
  188.9350  177.7710  144.9160 C   0  0  1  0  0  3  0  0  0  0  0  0
  189.8570  177.1450  143.8550 C   0  0  2  0  0  0  0  0  0  0  0  0
  189.6220  178.6730  143.8970 C   0  0  1  0  0  3  0  0  0  0  0  0
  187.5210  177.5660  144.6220 N   0  0  0  0  0  2  0  0  0  0  0  0
  186.7610  177.9250  145.8120 C   0  0  0  0  0  1  0  0  0  0  0  0
  191.3390  176.8520  144.2530 C   0  0  0  0  0  2  0  0  0  0  0  0
  191.5940  175.9750  145.5210 C   0  0  1  0  0  3  0  0  0  0  0  0
  192.4000  174.3610  145.1750 S   0  0  0  0  0  1  0  0  0  0  0  0
  192.2430  176.6770  146.5910 O   0  0  0  0  0  0  0  0  0  0  0  0
  191.7420  176.1900  147.8100 C   0  0  0  0  0  1  0  0  0  0  0  0
  1 13  1  6  0  0  0
  1 14  1  0  0  0  0
  1 21  1  0  0  0  0
  2 18  1  0  0  0  0
  2 16  1  0  0  0  0
  3 19  1  0  0  0  0
  4  5  1  0  0  0  0
  5  9  2  0  0  0  0
  6  7  2  0  0  0  0
  7  9  1  0  0  0  0
  8 22  1  0  0  0  0
 10 20  1  0  0  0  0
 10 21  1  0  0  0  0
 11  6  1  0  0  0  0
 11  4  2  0  0  0  0
 12 14  1  0  0  0  0
 13 23  1  0  0  0  0
 15 17  2  0  0  0  0
 16 24  1  0  0  0  0
 17  6  1  0  0  0  0
 18 19  1  0  0  0  0
 19  8  1  0  0  0  0
 22 11  1  0  0  0  0
 23 15  1  0  0  0  0
 23 22  2  0  0  0  0
 24 25  1  0  0  0  0
 24 36  1  1  0  0  0
 25 12  2  0  0  0  0
 26 12  1  0  0  0  0
 26 20  1  0  0  0  0
 28 31  2  0  0  0  0
 29 32  1  0  0  0  0
 30 29  2  0  0  0  0
 30 28  1  0  0  0  0
 31 27  1  0  0  0  0
 32 15  1  0  0  0  0
 32 27  2  0  0  0  0
 33 28  1  0  0  0  0
 33 34  1  0  0  0  0
 35 33  2  0  0  0  0
 36 37  1  0  0  0  0
 37 38  1  0  0  0  0
 38 40  1  0  0  0  0
 40 39  1  6  0  0  0
 40 41  1  0  0  0  0
 41 42  1  6  0  0  0
 41 45  1  0  0  0  0
 45 43  1  6  0  0  0
 45 44  1  0  0  0  0
 45 47  1  0  0  0  0
 46 49  1  6  0  0  0
 47 48  1  0  0  0  0
 47 51  1  1  0  0  0
 47 46  1  0  0  0  0
 48 44  1  6  0  0  0
 48 46  1  0  0  0  0
 49 50  1  0  0  0  0
 51 52  1  0  0  0  0
 52 53  1  6  0  0  0
 52 54  1  0  0  0  0
 54 55  1  0  0  0  0
M  END
>  <MODEL>
5

>  <REMARK>
 VINA RESULT:      -3.7      3.356      9.738
  Name = 
  12 active torsions:
  status: ('A' for Active; 'I' for Inactive)
    1  A    between atoms: C_1  and  O_30
    2  A    between atoms: C_1  and  C_53
    3  A    between atoms: C_6  and  C_14
    4  A    between atoms: C_6  and  C_20
    5  A    between atoms: C_8  and  C_22
    6  A    between atoms: C_8  and  C_43
    7  A    between atoms: C_10  and  C_32
    8  A    between atoms: N_11  and  C_29
    9  A    between atoms: C_20  and  C_22
   10  A    between atoms: C_33  and  C_52
   11  A    between atoms: C_38  and  C_53
   12  A    between atoms: C_43  and  C_51
                            x       y       z     vdW  Elec       q    Type
                         _______ _______ _______ _____ _____    ______ ____

>  <TORSDO>
F 12

$$$$
=
 OpenBabel10272401183D

 55 61  0  0  1  0  0  0  0  0999 V2000
  187.6450  178.6360  138.7200 C   0  0  1  0  0  3  0  0  0  0  0  0
  189.8180  175.7150  141.7300 C   0  0  0  0  0  2  0  0  0  0  0  0
  187.3180  176.5180  144.3110 C   0  0  0  0  0  1  0  0  0  0  0  0
  185.6770  179.2140  144.0630 C   0  0  0  0  0  3  0  0  0  0  0  0
  184.6830  179.7450  144.8910 C   0  0  0  0  0  3  0  0  0  0  0  0
  184.0410  178.8880  142.2970 C   0  0  0  0  0  0  0  0  0  0  0  0
  183.0500  179.4180  143.1320 C   0  0  0  0  0  3  0  0  0  0  0  0
  187.7410  177.9090  142.4730 C   0  0  0  0  0  2  0  0  0  0  0  0
  183.3690  179.8410  144.4260 C   0  0  0  0  0  3  0  0  0  0  0  0
  186.9340  177.6380  136.5470 N   0  0  0  0  0  2  0  0  0  0  0  0
  185.3720  178.7680  142.7590 C   0  0  0  0  0  0  0  0  0  0  0  0
  189.6140  177.2660  137.8490 C   0  0  0  0  0  0  0  0  0  0  0  0
  187.1310  177.4790  139.5910 C   0  0  0  0  0  2  0  0  0  0  0  0
  189.1540  178.5700  138.4640 C   0  0  0  0  0  2  0  0  0  0  0  0
  184.6920  177.9690  140.1420 C   0  0  0  0  0  0  0  0  0  0  0  0
  189.7420  176.7710  140.8230 O   0  0  0  0  0  0  0  0  0  0  0  0
  183.7130  178.4750  141.0010 C   0  0  0  0  0  3  0  0  0  0  0  0
  189.2390  176.1880  143.0630 C   0  0  0  0  0  2  0  0  0  0  0  0
  187.8200  176.5290  142.9510 N   0  0  0  0  0  0  0  0  0  0  0  0
  188.1820  177.7360  135.8050 C   0  0  0  0  0  2  0  0  0  0  0  0
  186.8490  178.8130  137.4140 C   0  0  0  0  0  2  0  0  0  0  0  0
  186.3660  178.2180  141.9200 C   0  0  0  0  0  0  0  0  0  0  0  0
  186.0430  177.8920  140.5630 C   0  0  0  0  0  0  0  0  0  0  0  0
  190.8470  176.6630  139.9670 C   0  0  1  0  0  3  0  0  0  0  0  0
  190.3890  176.4320  138.5470 C   0  0  0  0  0  3  0  0  0  0  0  0
  189.2370  176.8420  136.4510 C   0  0  0  0  0  2  0  0  0  0  0  0
  184.4920  176.0950  138.5040 C   0  0  0  0  0  3  0  0  0  0  0  0
  183.4440  176.4070  136.3330 C   0  0  0  0  0  0  0  0  0  0  0  0
  183.6030  178.2650  137.9020 C   0  0  0  0  0  3  0  0  0  0  0  0
  183.2090  177.7550  136.6520 C   0  0  0  0  0  3  0  0  0  0  0  0
  184.1080  175.5890  137.2560 C   0  0  0  0  0  3  0  0  0  0  0  0
  184.2630  177.4440  138.8200 C   0  0  0  0  0  0  0  0  0  0  0  0
  183.0840  175.8750  135.0050 C   0  0  0  0  0  0  0  0  0  0  0  0
  183.5400  174.6000  134.6620 O   0  0  0  0  0  1  0  0  0  0  0  0
  182.1270  176.3620  134.3480 O   0  0  0  0  0  0  0  0  0  0  0  0
  191.7440  177.8970  140.0850 C   0  0  0  0  0  2  0  0  0  0  0  0
  193.0420  177.6500  139.3170 C   0  0  0  0  0  2  0  0  0  0  0  0
  193.2810  176.1470  139.2150 C   0  0  0  0  0  2  0  0  0  0  0  0
  193.6050  176.7810  136.9190 O   0  0  0  0  0  1  0  0  0  0  0  0
  193.8850  175.7700  137.8470 C   0  0  2  0  0  3  0  0  0  0  0  0
  193.3660  174.3960  137.3810 C   0  0  1  0  0  3  0  0  0  0  0  0
  191.9840  174.4970  136.6910 C   0  0  0  0  0  1  0  0  0  0  0  0
  194.4760  173.9920  135.2390 O   0  0  0  0  0  1  0  0  0  0  0  0
  193.8820  172.0530  136.3750 C   0  0  0  0  0  2  0  0  0  0  0  0
  194.3280  173.4820  136.5470 C   0  0  2  0  0  0  0  0  0  0  0  0
  196.5230  171.9410  136.3740 C   0  0  1  0  0  3  0  0  0  0  0  0
  195.6820  172.9850  137.1290 C   0  0  2  0  0  0  0  0  0  0  0  0
  195.1800  171.5310  136.9670 C   0  0  1  0  0  3  0  0  0  0  0  0
  196.4680  172.1160  134.9270 N   0  0  0  0  0  2  0  0  0  0  0  0
  197.7810  172.5670  134.4820 C   0  0  0  0  0  1  0  0  0  0  0  0
  196.0090  173.2400  138.6350 C   0  0  0  0  0  2  0  0  0  0  0  0
  197.1730  174.2260  138.9720 C   0  0  1  0  0  3  0  0  0  0  0  0
  198.1770  174.7370  137.5210 S   0  0  0  0  0  1  0  0  0  0  0  0
  196.7680  175.3530  139.7630 O   0  0  0  0  0  0  0  0  0  0  0  0
  197.5270  175.3610  140.9460 C   0  0  0  0  0  1  0  0  0  0  0  0
  1 21  1  6  0  0  0
  1 13  1  0  0  0  0
  2 18  1  0  0  0  0
  4  5  1  0  0  0  0
  6 11  1  0  0  0  0
  6  7  2  0  0  0  0
  7  9  1  0  0  0  0
  8 19  1  0  0  0  0
  9  5  2  0  0  0  0
 10 21  1  0  0  0  0
 11  4  2  0  0  0  0
 12 14  1  0  0  0  0
 12 25  2  0  0  0  0
 13 23  1  0  0  0  0
 14  1  1  0  0  0  0
 15 23  1  0  0  0  0
 15 17  2  0  0  0  0
 16  2  1  0  0  0  0
 17  6  1  0  0  0  0
 19 18  1  0  0  0  0
 19  3  1  0  0  0  0
 20 26  1  0  0  0  0
 20 10  1  0  0  0  0
 22  8  1  0  0  0  0
 22 11  1  0  0  0  0
 23 22  2  0  0  0  0
 24 36  1  6  0  0  0
 24 16  1  0  0  0  0
 25 24  1  0  0  0  0
 26 12  1  0  0  0  0
 27 32  1  0  0  0  0
 28 30  2  0  0  0  0
 28 31  1  0  0  0  0
 29 32  2  0  0  0  0
 30 29  1  0  0  0  0
 31 27  2  0  0  0  0
 32 15  1  0  0  0  0
 33 28  1  0  0  0  0
 34 33  1  0  0  0  0
 35 33  2  0  0  0  0
 37 36  1  0  0  0  0
 38 37  1  0  0  0  0
 40 39  1  6  0  0  0
 40 38  1  0  0  0  0
 41 42  1  6  0  0  0
 41 40  1  0  0  0  0
 44 45  1  0  0  0  0
 45 43  1  6  0  0  0
 45 47  1  0  0  0  0
 45 41  1  0  0  0  0
 46 49  1  6  0  0  0
 46 48  1  0  0  0  0
 46 47  1  0  0  0  0
 47 51  1  1  0  0  0
 48 44  1  6  0  0  0
 48 47  1  0  0  0  0
 50 49  1  0  0  0  0
 51 52  1  0  0  0  0
 52 53  1  6  0  0  0
 52 54  1  0  0  0  0
 54 55  1  0  0  0  0
M  END
>  <MODEL>
6

>  <REMARK>
 VINA RESULT:      -3.3      3.975     11.327
  Name = 
  12 active torsions:
  status: ('A' for Active; 'I' for Inactive)
    1  A    between atoms: C_1  and  O_30
    2  A    between atoms: C_1  and  C_53
    3  A    between atoms: C_6  and  C_14
    4  A    between atoms: C_6  and  C_20
    5  A    between atoms: C_8  and  C_22
    6  A    between atoms: C_8  and  C_43
    7  A    between atoms: C_10  and  C_32
    8  A    between atoms: N_11  and  C_29
    9  A    between atoms: C_20  and  C_22
   10  A    between atoms: C_33  and  C_52
   11  A    between atoms: C_38  and  C_53
   12  A    between atoms: C_43  and  C_51
                            x       y       z     vdW  Elec       q    Type
                         _______ _______ _______ _____ _____    ______ ____

>  <TORSDO>
F 12

$$$$
=
 OpenBabel10272401183D

 55 61  0  0  1  0  0  0  0  0999 V2000
  186.6480  175.5160  137.8530 C   0  0  1  0  0  3  0  0  0  0  0  0
  190.7840  175.4330  135.5730 C   0  0  0  0  0  2  0  0  0  0  0  0
  190.0390  172.0420  134.3480 C   0  0  0  0  0  1  0  0  0  0  0  0
  187.9180  170.2850  135.9100 C   0  0  0  0  0  3  0  0  0  0  0  0
  187.4570  168.9890  135.6550 C   0  0  0  0  0  3  0  0  0  0  0  0
  185.7240  171.1770  135.3700 C   0  0  0  0  0  0  0  0  0  0  0  0
  185.2700  169.8780  135.1150 C   0  0  0  0  0  3  0  0  0  0  0  0
  188.9980  172.9730  136.2300 C   0  0  0  0  0  2  0  0  0  0  0  0
  186.1350  168.7880  135.2530 C   0  0  0  0  0  3  0  0  0  0  0  0
  185.1290  177.4160  137.2980 N   0  0  0  0  0  2  0  0  0  0  0  0
  187.0650  171.4000  135.7610 C   0  0  0  0  0  0  0  0  0  0  0  0
  188.0690  177.6360  137.8720 C   0  0  0  0  0  0  0  0  0  0  0  0
  187.0200  175.1920  136.3980 C   0  0  0  0  0  2  0  0  0  0  0  0
  187.7160  176.3430  138.5750 C   0  0  0  0  0  2  0  0  0  0  0  0
  185.2730  173.5620  135.5130 C   0  0  0  0  0  0  0  0  0  0  0  0
  189.9510  175.6020  136.6780 O   0  0  0  0  0  0  0  0  0  0  0  0
  184.8480  172.2610  135.2360 C   0  0  0  0  0  3  0  0  0  0  0  0
  190.9480  173.9350  135.3230 C   0  0  0  0  0  2  0  0  0  0  0  0
  189.6760  173.2970  134.9760 N   0  0  0  0  0  0  0  0  0  0  0  0
  185.6790  178.4410  138.1730 C   0  0  0  0  0  2  0  0  0  0  0  0
  185.2470  176.1370  137.9980 C   0  0  0  0  0  2  0  0  0  0  0  0
  187.5230  172.7130  136.0010 C   0  0  0  0  0  0  0  0  0  0  0  0
  186.5950  173.8030  135.9610 C   0  0  0  0  0  0  0  0  0  0  0  0
  190.3760  176.7580  137.3460 C   0  0  1  0  0  3  0  0  0  0  0  0
  189.2820  177.8000  137.3390 C   0  0  0  0  0  3  0  0  0  0  0  0
  187.1000  178.7850  137.7350 C   0  0  0  0  0  2  0  0  0  0  0  0
  182.9940  174.5730  135.6570 C   0  0  0  0  0  3  0  0  0  0  0  0
  182.5250  176.7890  134.7740 C   0  0  0  0  0  0  0  0  0  0  0  0
  184.7700  175.8520  134.6210 C   0  0  0  0  0  3  0  0  0  0  0  0
  183.8650  176.8990  134.3680 C   0  0  0  0  0  3  0  0  0  0  0  0
  182.0910  175.6120  135.3970 C   0  0  0  0  0  3  0  0  0  0  0  0
  184.3320  174.6800  135.2450 C   0  0  0  0  0  0  0  0  0  0  0  0
  181.5560  177.8570  134.4650 C   0  0  0  0  0  0  0  0  0  0  0  0
  180.2010  177.6040  134.6980 O   0  0  0  0  0  1  0  0  0  0  0  0
  181.9260  179.0540  134.3460 O   0  0  0  0  0  0  0  0  0  0  0  0
  190.8380  176.4240  138.7660 C   0  0  0  0  0  2  0  0  0  0  0  0
  190.8390  177.6990  139.6070 C   0  0  0  0  0  2  0  0  0  0  0  0
  191.3510  177.3720  141.0050 C   0  0  0  0  0  2  0  0  0  0  0  0
  189.1100  177.9110  141.6860 O   0  0  0  0  0  1  0  0  0  0  0  0
  190.1870  177.0610  141.9670 C   0  0  2  0  0  3  0  0  0  0  0  0
  190.6450  177.1720  143.4340 C   0  0  1  0  0  3  0  0  0  0  0  0
  191.6770  178.3070  143.6390 C   0  0  0  0  0  1  0  0  0  0  0  0
  188.3560  176.6180  144.0980 O   0  0  0  0  0  1  0  0  0  0  0  0
  189.1530  178.5980  145.0190 C   0  0  0  0  0  2  0  0  0  0  0  0
  189.5490  177.2200  144.5530 C   0  0  2  0  0  0  0  0  0  0  0  0
  188.8410  177.0540  147.1410 C   0  0  1  0  0  3  0  0  0  0  0  0
  189.8720  176.8220  146.0220 C   0  0  2  0  0  0  0  0  0  0  0  0
  189.4870  178.2550  146.4600 C   0  0  1  0  0  3  0  0  0  0  0  0
  187.4700  176.8260  146.6970 N   0  0  0  0  0  2  0  0  0  0  0  0
  186.6770  177.9860  147.0820 C   0  0  0  0  0  1  0  0  0  0  0  0
  191.3540  176.5510  146.4350 C   0  0  0  0  0  2  0  0  0  0  0  0
  191.7700  175.0740  146.7280 C   0  0  1  0  0  3  0  0  0  0  0  0
  192.7040  174.2650  145.3690 S   0  0  0  0  0  1  0  0  0  0  0  0
  192.4140  174.8940  147.9980 O   0  0  0  0  0  0  0  0  0  0  0  0
  192.9590  176.1260  148.3980 C   0  0  0  0  0  1  0  0  0  0  0  0
  1 13  1  6  0  0  0
  1 21  1  0  0  0  0
  1 14  1  0  0  0  0
  2 16  1  0  0  0  0
  3 19  1  0  0  0  0
  5  4  2  0  0  0  0
  6 11  1  0  0  0  0
  7  9  2  0  0  0  0
  7  6  1  0  0  0  0
  9  5  1  0  0  0  0
 10 21  1  0  0  0  0
 10 20  1  0  0  0  0
 11  4  1  0  0  0  0
 11 22  2  0  0  0  0
 12 14  1  0  0  0  0
 15 23  2  0  0  0  0
 16 24  1  0  0  0  0
 17  6  2  0  0  0  0
 17 15  1  0  0  0  0
 18  2  1  0  0  0  0
 19 18  1  0  0  0  0
 19  8  1  0  0  0  0
 22  8  1  0  0  0  0
 23 22  1  0  0  0  0
 23 13  1  0  0  0  0
 24 36  1  1  0  0  0
 25 24  1  0  0  0  0
 25 12  2  0  0  0  0
 26 12  1  0  0  0  0
 26 20  1  0  0  0  0
 28 31  2  0  0  0  0
 29 32  1  0  0  0  0
 30 29  2  0  0  0  0
 30 28  1  0  0  0  0
 31 27  1  0  0  0  0
 32 15  1  0  0  0  0
 32 27  2  0  0  0  0
 33 34  1  0  0  0  0
 33 28  1  0  0  0  0
 35 33  2  0  0  0  0
 36 37  1  0  0  0  0
 37 38  1  0  0  0  0
 38 40  1  0  0  0  0
 40 39  1  1  0  0  0
 40 41  1  0  0  0  0
 41 42  1  6  0  0  0
 41 45  1  0  0  0  0
 45 43  1  6  0  0  0
 45 44  1  0  0  0  0
 45 47  1  0  0  0  0
 46 49  1  6  0  0  0
 47 51  1  1  0  0  0
 47 48  1  0  0  0  0
 47 46  1  0  0  0  0
 48 44  1  6  0  0  0
 48 46  1  0  0  0  0
 49 50  1  0  0  0  0
 51 52  1  0  0  0  0
 52 53  1  6  0  0  0
 52 54  1  0  0  0  0
 54 55  1  0  0  0  0
M  END
>  <MODEL>
7

>  <REMARK>
 VINA RESULT:      -3.1      3.553      9.458
  Name = 
  12 active torsions:
  status: ('A' for Active; 'I' for Inactive)
    1  A    between atoms: C_1  and  O_30
    2  A    between atoms: C_1  and  C_53
    3  A    between atoms: C_6  and  C_14
    4  A    between atoms: C_6  and  C_20
    5  A    between atoms: C_8  and  C_22
    6  A    between atoms: C_8  and  C_43
    7  A    between atoms: C_10  and  C_32
    8  A    between atoms: N_11  and  C_29
    9  A    between atoms: C_20  and  C_22
   10  A    between atoms: C_33  and  C_52
   11  A    between atoms: C_38  and  C_53
   12  A    between atoms: C_43  and  C_51
                            x       y       z     vdW  Elec       q    Type
                         _______ _______ _______ _____ _____    ______ ____

>  <TORSDO>
F 12

$$$$
=
 OpenBabel10272401183D

 55 61  0  0  1  0  0  0  0  0999 V2000
  187.6130  178.6430  138.6450 C   0  0  1  0  0  3  0  0  0  0  0  0
  189.8780  175.8020  141.6640 C   0  0  0  0  0  2  0  0  0  0  0  0
  187.3580  176.5390  144.2460 C   0  0  0  0  0  1  0  0  0  0  0  0
  185.6350  179.1830  143.9880 C   0  0  0  0  0  3  0  0  0  0  0  0
  184.6270  179.6870  144.8150 C   0  0  0  0  0  3  0  0  0  0  0  0
  184.0080  178.8000  142.2260 C   0  0  0  0  0  0  0  0  0  0  0  0
  183.0030  179.3030  143.0600 C   0  0  0  0  0  3  0  0  0  0  0  0
  187.7360  177.9340  142.4010 C   0  0  0  0  0  2  0  0  0  0  0  0
  183.3100  179.7410  144.3520 C   0  0  0  0  0  3  0  0  0  0  0  0
  186.9290  177.6140  136.4770 N   0  0  0  0  0  2  0  0  0  0  0  0
  185.3430  178.7220  142.6870 C   0  0  0  0  0  0  0  0  0  0  0  0
  189.6220  177.3300  137.7770 C   0  0  0  0  0  0  0  0  0  0  0  0
  187.1360  177.4740  139.5210 C   0  0  0  0  0  2  0  0  0  0  0  0
  189.1230  178.6210  138.3870 C   0  0  0  0  0  2  0  0  0  0  0  0
  184.6840  177.8920  140.0740 C   0  0  0  0  0  0  0  0  0  0  0  0
  189.7690  176.8510  140.7520 O   0  0  0  0  0  0  0  0  0  0  0  0
  183.6910  178.3710  140.9320 C   0  0  0  0  0  3  0  0  0  0  0  0
  189.2870  176.2630  142.9960 C   0  0  0  0  0  2  0  0  0  0  0  0
  187.8580  176.5600  142.8840 N   0  0  0  0  0  0  0  0  0  0  0  0
  188.1740  177.7470  135.7330 C   0  0  0  0  0  2  0  0  0  0  0  0
  186.8110  178.7890  137.3400 C   0  0  0  0  0  2  0  0  0  0  0  0
  186.3510  178.1990  141.8490 C   0  0  0  0  0  0  0  0  0  0  0  0
  186.0370  177.8580  140.4940 C   0  0  0  0  0  0  0  0  0  0  0  0
  190.8750  176.7740  139.8960 C   0  0  1  0  0  3  0  0  0  0  0  0
  190.4230  176.5220  138.4770 C   0  0  0  0  0  3  0  0  0  0  0  0
  189.2560  176.8880  136.3810 C   0  0  0  0  0  2  0  0  0  0  0  0
  183.6570  178.1950  137.8180 C   0  0  0  0  0  3  0  0  0  0  0  0
  183.4910  176.3560  136.2370 C   0  0  0  0  0  0  0  0  0  0  0  0
  184.5140  176.0130  138.4220 C   0  0  0  0  0  3  0  0  0  0  0  0
  184.1110  175.5100  137.1720 C   0  0  0  0  0  3  0  0  0  0  0  0
  183.2460  177.6930  136.5770 C   0  0  0  0  0  3  0  0  0  0  0  0
  184.2690  177.3480  138.7550 C   0  0  0  0  0  0  0  0  0  0  0  0
  183.0140  175.8270  134.9450 C   0  0  0  0  0  0  0  0  0  0  0  0
  183.6560  174.7040  134.4170 O   0  0  0  0  0  0  0  0  0  0  0  0
  181.8720  176.1220  134.5050 O   0  0  0  0  0  1  0  0  0  0  0  0
  191.7350  178.0340  140.0070 C   0  0  0  0  0  2  0  0  0  0  0  0
  193.2110  177.6430  139.9520 C   0  0  0  0  0  2  0  0  0  0  0  0
  193.3250  176.1980  139.4770 C   0  0  0  0  0  2  0  0  0  0  0  0
  193.6810  176.9140  137.2100 O   0  0  0  0  0  1  0  0  0  0  0  0
  194.2060  176.0940  138.2160 C   0  0  2  0  0  3  0  0  0  0  0  0
  194.3360  174.6280  137.7600 C   0  0  1  0  0  3  0  0  0  0  0  0
  193.0850  174.1440  136.9880 C   0  0  0  0  0  1  0  0  0  0  0  0
  196.7170  175.0370  137.3740 O   0  0  0  0  0  1  0  0  0  0  0  0
  195.5790  174.2520  135.5050 C   0  0  0  0  0  2  0  0  0  0  0  0
  195.6430  174.1960  137.0100 C   0  0  2  0  0  0  0  0  0  0  0  0
  197.2550  172.2790  136.0360 C   0  0  1  0  0  3  0  0  0  0  0  0
  196.0780  172.7050  136.9310 C   0  0  2  0  0  0  0  0  0  0  0  0
  195.9720  172.7890  135.3900 C   0  0  1  0  0  3  0  0  0  0  0  0
  198.3290  173.2660  136.0120 N   0  0  0  0  0  2  0  0  0  0  0  0
  199.3220  172.8700  137.0020 C   0  0  0  0  0  1  0  0  0  0  0  0
  195.1050  171.5950  137.4420 C   0  0  0  0  0  2  0  0  0  0  0  0
  195.6270  170.1220  137.4610 C   0  0  1  0  0  3  0  0  0  0  0  0
  194.9760  169.1060  138.8460 S   0  0  0  0  0  1  0  0  0  0  0  0
  195.5040  169.4470  136.2010 O   0  0  0  0  0  0  0  0  0  0  0  0
  196.5690  168.5380  136.0780 C   0  0  0  0  0  1  0  0  0  0  0  0
  1 21  1  6  0  0  0
  1 13  1  0  0  0  0
  2 18  1  0  0  0  0
  4  5  1  0  0  0  0
  6 11  1  0  0  0  0
  6  7  2  0  0  0  0
  7  9  1  0  0  0  0
  8 19  1  0  0  0  0
  9  5  2  0  0  0  0
 10 21  1  0  0  0  0
 11  4  2  0  0  0  0
 12 14  1  0  0  0  0
 12 25  2  0  0  0  0
 13 23  1  0  0  0  0
 14  1  1  0  0  0  0
 15 23  1  0  0  0  0
 15 17  2  0  0  0  0
 16  2  1  0  0  0  0
 17  6  1  0  0  0  0
 19 18  1  0  0  0  0
 19  3  1  0  0  0  0
 20 26  1  0  0  0  0
 20 10  1  0  0  0  0
 22  8  1  0  0  0  0
 22 11  1  0  0  0  0
 23 22  2  0  0  0  0
 24 36  1  6  0  0  0
 24 16  1  0  0  0  0
 25 24  1  0  0  0  0
 26 12  1  0  0  0  0
 27 32  1  0  0  0  0
 28 31  1  0  0  0  0
 28 30  2  0  0  0  0
 29 32  2  0  0  0  0
 30 29  1  0  0  0  0
 31 27  2  0  0  0  0
 32 15  1  0  0  0  0
 33 28  1  0  0  0  0
 34 33  2  0  0  0  0
 35 33  1  0  0  0  0
 37 36  1  0  0  0  0
 38 37  1  0  0  0  0
 40 39  1  6  0  0  0
 40 38  1  0  0  0  0
 41 42  1  6  0  0  0
 41 40  1  0  0  0  0
 44 45  1  0  0  0  0
 45 43  1  1  0  0  0
 45 41  1  0  0  0  0
 46 49  1  1  0  0  0
 46 47  1  0  0  0  0
 47 45  1  0  0  0  0
 47 51  1  1  0  0  0
 48 44  1  1  0  0  0
 48 46  1  0  0  0  0
 48 47  1  0  0  0  0
 49 50  1  0  0  0  0
 51 52  1  0  0  0  0
 52 53  1  1  0  0  0
 54 52  1  0  0  0  0
 55 54  1  0  0  0  0
M  END
>  <MODEL>
8

>  <REMARK>
 VINA RESULT:      -2.9      4.310     11.694
  Name = 
  12 active torsions:
  status: ('A' for Active; 'I' for Inactive)
    1  A    between atoms: C_1  and  O_30
    2  A    between atoms: C_1  and  C_53
    3  A    between atoms: C_6  and  C_14
    4  A    between atoms: C_6  and  C_20
    5  A    between atoms: C_8  and  C_22
    6  A    between atoms: C_8  and  C_43
    7  A    between atoms: C_10  and  C_32
    8  A    between atoms: N_11  and  C_29
    9  A    between atoms: C_20  and  C_22
   10  A    between atoms: C_33  and  C_52
   11  A    between atoms: C_38  and  C_53
   12  A    between atoms: C_43  and  C_51
                            x       y       z     vdW  Elec       q    Type
                         _______ _______ _______ _____ _____    ______ ____

>  <TORSDO>
F 12

$$$$
=
 OpenBabel10272401183D

 55 61  0  0  1  0  0  0  0  0999 V2000
  184.1660  175.3180  138.5590 C   0  0  1  0  0  3  0  0  0  0  0  0
  185.6690  179.4170  136.7540 C   0  0  0  0  0  2  0  0  0  0  0  0
  188.8800  177.8470  135.8680 C   0  0  0  0  0  1  0  0  0  0  0  0
  189.7680  175.2180  137.3940 C   0  0  0  0  0  3  0  0  0  0  0  0
  190.9170  174.4360  137.2480 C   0  0  0  0  0  3  0  0  0  0  0  0
  188.4120  173.4020  136.5230 C   0  0  0  0  0  0  0  0  0  0  0  0
  189.5660  172.6240  136.3780 C   0  0  0  0  0  3  0  0  0  0  0  0
  187.4470  176.9770  137.5060 C   0  0  0  0  0  2  0  0  0  0  0  0
  190.8150  173.1400  136.7350 C   0  0  0  0  0  3  0  0  0  0  0  0
  182.0300  174.4290  137.6250 N   0  0  0  0  0  2  0  0  0  0  0  0
  188.5000  174.7210  137.0250 C   0  0  0  0  0  0  0  0  0  0  0  0
  182.5190  177.2670  138.4770 C   0  0  0  0  0  0  0  0  0  0  0  0
  184.7810  175.6860  137.2000 C   0  0  0  0  0  2  0  0  0  0  0  0
  183.5570  176.5210  139.2860 C   0  0  0  0  0  2  0  0  0  0  0  0
  185.9970  173.6210  136.3340 C   0  0  0  0  0  0  0  0  0  0  0  0
  185.1290  178.5880  137.7380 O   0  0  0  0  0  0  0  0  0  0  0  0
  187.1650  172.8720  136.1700 C   0  0  0  0  0  3  0  0  0  0  0  0
  187.1770  179.1760  136.7020 C   0  0  0  0  0  2  0  0  0  0  0  0
  187.4960  177.8040  136.3010 N   0  0  0  0  0  0  0  0  0  0  0  0
  181.0740  175.1790  138.4260 C   0  0  0  0  0  2  0  0  0  0  0  0
  183.1810  174.1380  138.4800 C   0  0  0  0  0  2  0  0  0  0  0  0
  187.3360  175.5080  137.1550 C   0  0  0  0  0  0  0  0  0  0  0  0
  186.0550  174.9240  136.8880 C   0  0  0  0  0  0  0  0  0  0  0  0
  184.0440  179.2700  138.3050 C   0  0  1  0  0  3  0  0  0  0  0  0
  182.7620  178.5120  138.0590 C   0  0  0  0  0  3  0  0  0  0  0  0
  181.1860  176.6670  138.1030 C   0  0  0  0  0  2  0  0  0  0  0  0
  183.9390  173.7800  134.9290 C   0  0  0  0  0  3  0  0  0  0  0  0
  182.3040  171.9820  134.8580 C   0  0  0  0  0  0  0  0  0  0  0  0
  184.3040  171.7740  136.2350 C   0  0  0  0  0  3  0  0  0  0  0  0
  183.0890  171.2470  135.7620 C   0  0  0  0  0  3  0  0  0  0  0  0
  182.7250  173.2590  134.4650 C   0  0  0  0  0  3  0  0  0  0  0  0
  184.7200  173.0470  135.8380 C   0  0  0  0  0  0  0  0  0  0  0  0
  181.0010  171.4640  134.3980 C   0  0  0  0  0  0  0  0  0  0  0  0
  180.8060  170.0800  134.4040 O   0  0  0  0  0  1  0  0  0  0  0  0
  179.9880  172.2090  134.3470 O   0  0  0  0  0  0  0  0  0  0  0  0
  184.2830  179.5220  139.7950 C   0  0  0  0  0  2  0  0  0  0  0  0
  185.3290  178.5350  140.3100 C   0  0  0  0  0  2  0  0  0  0  0  0
  185.9560  179.0940  141.5830 C   0  0  0  0  0  2  0  0  0  0  0  0
  184.5920  177.4530  142.6870 O   0  0  0  0  0  1  0  0  0  0  0  0
  185.8340  178.0950  142.7500 C   0  0  2  0  0  3  0  0  0  0  0  0
  186.0530  178.8030  144.1010 C   0  0  1  0  0  3  0  0  0  0  0  0
  184.7480  179.4270  144.6510 C   0  0  0  0  0  1  0  0  0  0  0  0
  185.9660  177.0430  145.7990 O   0  0  0  0  0  1  0  0  0  0  0  0
  187.2840  178.8640  146.3930 C   0  0  0  0  0  2  0  0  0  0  0  0
  186.8080  178.0260  145.2340 C   0  0  2  0  0  0  0  0  0  0  0  0
  189.0480  176.9040  146.2070 C   0  0  1  0  0  3  0  0  0  0  0  0
  188.2550  177.4960  145.0280 C   0  0  2  0  0  0  0  0  0  0  0  0
  188.7150  178.3920  146.2030 C   0  0  1  0  0  3  0  0  0  0  0  0
  188.2060  176.1420  147.1240 N   0  0  0  0  0  2  0  0  0  0  0  0
  188.3160  176.7520  148.4420 C   0  0  0  0  0  1  0  0  0  0  0  0
  189.0460  177.9040  143.7450 C   0  0  0  0  0  2  0  0  0  0  0  0
  189.3630  176.7870  142.6980 C   0  0  1  0  0  3  0  0  0  0  0  0
  190.4410  177.3310  141.3140 S   0  0  0  0  0  1  0  0  0  0  0  0
  189.8220  175.5590  143.2810 O   0  0  0  0  0  0  0  0  0  0  0  0
  191.2080  175.6580  143.4920 C   0  0  0  0  0  1  0  0  0  0  0  0
  1 13  1  6  0  0  0
  1 14  1  0  0  0  0
  2 16  1  0  0  0  0
  3 19  1  0  0  0  0
  5  4  1  0  0  0  0
  6 11  1  0  0  0  0
  7  6  2  0  0  0  0
  7  9  1  0  0  0  0
  9  5  2  0  0  0  0
 10 20  1  0  0  0  0
 10 21  1  0  0  0  0
 11 22  1  0  0  0  0
 11  4  2  0  0  0  0
 12 14  1  0  0  0  0
 15 23  1  0  0  0  0
 16 24  1  0  0  0  0
 17 15  2  0  0  0  0
 17  6  1  0  0  0  0
 18  2  1  0  0  0  0
 19 18  1  0  0  0  0
 19  8  1  0  0  0  0
 21  1  1  0  0  0  0
 22  8  1  0  0  0  0
 23 22  2  0  0  0  0
 23 13  1  0  0  0  0
 24 36  1  1  0  0  0
 25 24  1  0  0  0  0
 25 12  2  0  0  0  0
 26 20  1  0  0  0  0
 26 12  1  0  0  0  0
 27 32  1  0  0  0  0
 28 30  2  0  0  0  0
 30 29  1  0  0  0  0
 31 28  1  0  0  0  0
 31 27  2  0  0  0  0
 32 29  2  0  0  0  0
 32 15  1  0  0  0  0
 33 34  1  0  0  0  0
 33 28  1  0  0  0  0
 35 33  2  0  0  0  0
 36 37  1  0  0  0  0
 37 38  1  0  0  0  0
 38 40  1  0  0  0  0
 40 39  1  1  0  0  0
 40 41  1  0  0  0  0
 41 42  1  1  0  0  0
 41 45  1  0  0  0  0
 45 43  1  1  0  0  0
 45 44  1  0  0  0  0
 46 49  1  1  0  0  0
 47 51  1  6  0  0  0
 47 45  1  0  0  0  0
 47 48  1  0  0  0  0
 47 46  1  0  0  0  0
 48 46  1  0  0  0  0
 48 44  1  1  0  0  0
 49 50  1  0  0  0  0
 52 53  1  6  0  0  0
 52 54  1  0  0  0  0
 52 51  1  0  0  0  0
 54 55  1  0  0  0  0
M  END
>  <MODEL>
9

>  <REMARK>
 VINA RESULT:      -2.5      3.356      8.496
  Name = 
  12 active torsions:
  status: ('A' for Active; 'I' for Inactive)
    1  A    between atoms: C_1  and  O_30
    2  A    between atoms: C_1  and  C_53
    3  A    between atoms: C_6  and  C_14
    4  A    between atoms: C_6  and  C_20
    5  A    between atoms: C_8  and  C_22
    6  A    between atoms: C_8  and  C_43
    7  A    between atoms: C_10  and  C_32
    8  A    between atoms: N_11  and  C_29
    9  A    between atoms: C_20  and  C_22
   10  A    between atoms: C_33  and  C_52
   11  A    between atoms: C_38  and  C_53
   12  A    between atoms: C_43  and  C_51
                            x       y       z     vdW  Elec       q    Type
                         _______ _______ _______ _____ _____    ______ ____

>  <TORSDO>
F 12

$$$$
