=
 OpenBabel10272401583D

 28 32  0  0  1  0  0  0  0  0999 V2000
  190.0720  177.3730  142.4560 C   0  0  0  0  0  0  0  0  0  0  0  0
  185.2300  177.5890  143.1480 C   0  0  0  0  0  3  0  0  0  0  0  0
  189.6300  177.9920  147.2440 C   0  0  0  0  0  2  0  0  0  0  0  0
  185.4940  178.8800  145.3420 C   0  0  1  0  0  3  0  0  0  0  0  0
  187.0600  176.9390  144.7200 C   0  0  1  0  0  3  0  0  0  0  0  0
  183.9430  179.6430  143.4770 C   0  0  2  0  0  3  0  0  0  0  0  0
  186.1960  178.0900  144.1920 C   0  0  1  0  0  3  0  0  0  0  0  0
  186.7800  177.6470  147.1190 C   0  0  0  0  0  2  0  0  0  0  0  0
  184.1130  179.4560  144.9830 C   0  0  0  0  0  2  0  0  0  0  0  0
  189.8570  177.7700  144.8350 C   0  0  0  0  0  0  0  0  0  0  0  0
  188.0690  176.4280  143.6840 C   0  0  0  0  0  2  0  0  0  0  0  0
  185.3870  178.0550  146.6270 C   0  0  0  0  0  2  0  0  0  0  0  0
  191.7890  178.5420  143.6820 C   0  0  0  0  0  3  0  0  0  0  0  0
  189.0680  177.6750  146.0780 C   0  0  0  0  0  0  0  0  0  0  0  0
  191.0640  178.4010  144.8230 N   0  0  0  0  0  0  0  0  0  0  0  0
  182.6530  180.0940  143.2010 O   0  0  0  0  0  1  0  0  0  0  0  0
  184.1740  178.3290  142.7970 C   0  0  0  0  0  3  0  0  0  0  0  0
  187.6760  177.3040  146.0060 N   0  0  0  0  0  0  0  0  0  0  0  0
  191.3030  178.0330  142.4780 C   0  0  0  0  0  3  0  0  0  0  0  0
  189.3310  177.2430  143.6450 C   0  0  0  0  0  0  0  0  0  0  0  0
  189.5570  176.8510  141.1530 C   0  0  0  0  0  2  0  0  0  0  0  0
  188.9870  177.9900  140.3250 C   0  0  1  0  0  3  0  0  0  0  0  0
  189.6930  178.0540  138.9900 C   0  0  0  0  0  2  0  0  0  0  0  0
  188.3190  177.4170  139.0890 C   0  0  2  0  0  3  0  0  0  0  0  0
  187.2970  178.3390  138.6120 N   0  0  0  0  0  0  0  0  0  0  0  0
  185.0510  179.0670  138.7570 N   0  0  0  0  0  2  0  0  0  0  0  0
  187.5060  179.0430  137.4730 O   0  0  0  0  0  1  0  0  0  0  0  0
  186.0050  178.3330  139.2220 C   0  0  0  0  0  3  0  0  0  0  0  0
  1 19  2  0  0  0  0
  1 20  1  0  0  0  0
  4  9  1  6  0  0  0
  4 12  1  0  0  0  0
  5 11  1  6  0  0  0
  5 18  1  0  0  0  0
  6 16  1  1  0  0  0
  6  9  1  0  0  0  0
  7  2  1  6  0  0  0
  7  5  1  0  0  0  0
  7  4  1  0  0  0  0
 10 14  1  0  0  0  0
 12  8  1  0  0  0  0
 13 15  2  0  0  0  0
 14  3  2  0  0  0  0
 15 10  1  0  0  0  0
 17  2  2  0  0  0  0
 17  6  1  0  0  0  0
 18 14  1  0  0  0  0
 18  8  1  0  0  0  0
 19 13  1  0  0  0  0
 20 11  1  0  0  0  0
 20 10  2  0  0  0  0
 21  1  1  0  0  0  0
 22 21  1  1  0  0  0
 23 24  1  0  0  0  0
 23 22  1  0  0  0  0
 24 25  1  6  0  0  0
 24 22  1  0  0  0  0
 25 28  1  0  0  0  0
 26 28  2  0  0  0  0
 27 25  1  0  0  0  0
M  END
>  <MODEL>
1

>  <REMARK>
 VINA RESULT:      -8.6      0.000      0.000
  Name = 
  3 active torsions:
  status: ('A' for Active; 'I' for Inactive)
    1  A    between atoms: C_1  and  C_2
    2  A    between atoms: C_2  and  C_3
    3  A    between atoms: N_6  and  C_11
                            x       y       z     vdW  Elec       q    Type
                         _______ _______ _______ _____ _____    ______ ____

>  <TORSDO>
F 3

$$$$
=
 OpenBabel10272401583D

 28 32  0  0  1  0  0  0  0  0999 V2000
  190.1390  177.7370  142.5920 C   0  0  0  0  0  0  0  0  0  0  0  0
  185.2720  177.6840  143.1200 C   0  0  0  0  0  3  0  0  0  0  0  0
  189.5090  177.9590  147.3930 C   0  0  0  0  0  2  0  0  0  0  0  0
  185.4020  178.8090  145.4150 C   0  0  1  0  0  3  0  0  0  0  0  0
  187.0770  176.9940  144.7040 C   0  0  1  0  0  3  0  0  0  0  0  0
  183.8790  179.6470  143.5580 C   0  0  2  0  0  3  0  0  0  0  0  0
  186.1780  178.1440  144.2340 C   0  0  1  0  0  3  0  0  0  0  0  0
  186.6850  177.4990  147.1380 C   0  0  0  0  0  2  0  0  0  0  0  0
  184.0080  179.3500  145.0500 C   0  0  0  0  0  2  0  0  0  0  0  0
  189.8260  177.9360  144.9840 C   0  0  0  0  0  0  0  0  0  0  0  0
  188.1430  176.6110  143.6700 C   0  0  0  0  0  2  0  0  0  0  0  0
  185.2920  177.8830  146.6270 C   0  0  0  0  0  2  0  0  0  0  0  0
  191.7570  178.8810  143.9660 C   0  0  0  0  0  3  0  0  0  0  0  0
  189.0020  177.7090  146.1870 C   0  0  0  0  0  0  0  0  0  0  0  0
  191.0020  178.6190  145.0660 N   0  0  0  0  0  0  0  0  0  0  0  0
  182.5800  180.0600  143.2690 O   0  0  0  0  0  1  0  0  0  0  0  0
  184.1950  178.4020  142.7880 C   0  0  0  0  0  3  0  0  0  0  0  0
  187.6320  177.2840  146.0360 N   0  0  0  0  0  0  0  0  0  0  0  0
  191.3360  178.4470  142.7100 C   0  0  0  0  0  3  0  0  0  0  0  0
  189.3660  177.4810  143.7390 C   0  0  0  0  0  0  0  0  0  0  0  0
  189.6930  177.2960  141.2350 C   0  0  0  0  0  2  0  0  0  0  0  0
  190.8150  176.5510  140.5350 C   0  0  1  0  0  3  0  0  0  0  0  0
  190.3810  176.1690  139.1380 C   0  0  0  0  0  2  0  0  0  0  0  0
  191.2870  177.3690  139.3460 C   0  0  2  0  0  3  0  0  0  0  0  0
  192.6670  177.0250  139.0310 N   0  0  0  0  0  0  0  0  0  0  0  0
  194.1450  175.7730  137.6730 N   0  0  0  0  0  2  0  0  0  0  0  0
  193.6530  177.3390  139.9050 O   0  0  0  0  0  1  0  0  0  0  0  0
  192.9420  176.1740  137.9170 C   0  0  0  0  0  3  0  0  0  0  0  0
  1 19  2  0  0  0  0
  1 20  1  0  0  0  0
  4  9  1  6  0  0  0
  4 12  1  0  0  0  0
  5 11  1  6  0  0  0
  5 18  1  0  0  0  0
  6 16  1  1  0  0  0
  6  9  1  0  0  0  0
  7  2  1  6  0  0  0
  7  5  1  0  0  0  0
  7  4  1  0  0  0  0
 10 15  1  0  0  0  0
 10 14  1  0  0  0  0
 11 20  1  0  0  0  0
 12  8  1  0  0  0  0
 13 15  2  0  0  0  0
 14  3  2  0  0  0  0
 17  2  2  0  0  0  0
 17  6  1  0  0  0  0
 18 14  1  0  0  0  0
 18  8  1  0  0  0  0
 19 13  1  0  0  0  0
 20 10  2  0  0  0  0
 21  1  1  0  0  0  0
 22 21  1  1  0  0  0
 23 24  1  0  0  0  0
 23 22  1  0  0  0  0
 24 25  1  6  0  0  0
 24 22  1  0  0  0  0
 25 27  1  0  0  0  0
 26 28  2  0  0  0  0
 28 25  1  0  0  0  0
M  END
>  <MODEL>
2

>  <REMARK>
 VINA RESULT:      -8.0      2.447      2.966
  Name = 
  3 active torsions:
  status: ('A' for Active; 'I' for Inactive)
    1  A    between atoms: C_1  and  C_2
    2  A    between atoms: C_2  and  C_3
    3  A    between atoms: N_6  and  C_11
                            x       y       z     vdW  Elec       q    Type
                         _______ _______ _______ _____ _____    ______ ____

>  <TORSDO>
F 3

$$$$
=
 OpenBabel10272401583D

 28 32  0  0  1  0  0  0  0  0999 V2000
  187.7630  177.1380  142.7060 C   0  0  0  0  0  0  0  0  0  0  0  0
  185.6540  178.0490  138.3830 C   0  0  0  0  0  3  0  0  0  0  0  0
  191.4810  177.1190  139.5960 C   0  0  0  0  0  2  0  0  0  0  0  0
  187.5790  176.9610  137.0950 C   0  0  1  0  0  3  0  0  0  0  0  0
  187.9980  178.4430  139.1520 C   0  0  1  0  0  3  0  0  0  0  0  0
  185.1410  176.3670  136.6820 C   0  0  2  0  0  3  0  0  0  0  0  0
  187.0390  177.4590  138.4730 C   0  0  1  0  0  3  0  0  0  0  0  0
  189.8140  178.0600  137.4530 C   0  0  0  0  0  2  0  0  0  0  0  0
  186.4950  176.6650  136.0430 C   0  0  0  0  0  2  0  0  0  0  0  0
  189.6100  177.0420  141.1430 C   0  0  0  0  0  0  0  0  0  0  0  0
  187.7130  178.6150  140.6500 C   0  0  0  0  0  2  0  0  0  0  0  0
  188.6190  177.9160  136.5040 C   0  0  0  0  0  2  0  0  0  0  0  0
  189.6900  175.7550  143.1430 C   0  0  0  0  0  3  0  0  0  0  0  0
  190.2120  177.4310  139.8540 C   0  0  0  0  0  0  0  0  0  0  0  0
  190.2450  176.1650  141.9710 N   0  0  0  0  0  0  0  0  0  0  0  0
  184.1810  176.1820  135.6880 O   0  0  0  0  0  1  0  0  0  0  0  0
  184.7500  177.5240  137.5500 C   0  0  0  0  0  3  0  0  0  0  0  0
  189.3960  178.0850  138.8610 N   0  0  0  0  0  0  0  0  0  0  0  0
  188.4380  176.2320  143.5280 C   0  0  0  0  0  3  0  0  0  0  0  0
  188.3480  177.5470  141.4930 C   0  0  0  0  0  0  0  0  0  0  0  0
  186.4130  177.6240  143.1250 C   0  0  0  0  0  2  0  0  0  0  0  0
  186.5420  178.5500  144.3220 C   0  0  1  0  0  3  0  0  0  0  0  0
  185.1710  179.0160  144.7570 C   0  0  0  0  0  2  0  0  0  0  0  0
  185.8690  177.9060  145.5210 C   0  0  2  0  0  3  0  0  0  0  0  0
  186.4550  178.4260  146.7490 N   0  0  0  0  0  0  0  0  0  0  0  0
  188.0000  178.0990  148.5100 N   0  0  0  0  0  2  0  0  0  0  0  0
  185.8530  179.4510  147.3990 O   0  0  0  0  0  1  0  0  0  0  0  0
  187.5290  177.7170  147.3710 C   0  0  0  0  0  3  0  0  0  0  0  0
  1 21  1  0  0  0  0
  1 19  1  0  0  0  0
  3 14  2  0  0  0  0
  4  9  1  6  0  0  0
  4  7  1  0  0  0  0
  5 11  1  1  0  0  0
  6 16  1  6  0  0  0
  6 17  1  0  0  0  0
  7  2  1  6  0  0  0
  7  5  1  0  0  0  0
  8 18  1  0  0  0  0
  9  6  1  0  0  0  0
 10 20  1  0  0  0  0
 10 15  2  0  0  0  0
 11 20  1  0  0  0  0
 12  4  1  0  0  0  0
 12  8  1  0  0  0  0
 13 19  2  0  0  0  0
 14 10  1  0  0  0  0
 15 13  1  0  0  0  0
 17  2  2  0  0  0  0
 18  5  1  0  0  0  0
 18 14  1  0  0  0  0
 20  1  2  0  0  0  0
 22 21  1  6  0  0  0
 22 23  1  0  0  0  0
 22 24  1  0  0  0  0
 23 24  1  0  0  0  0
 24 25  1  1  0  0  0
 25 28  1  0  0  0  0
 25 27  1  0  0  0  0
 28 26  2  0  0  0  0
M  END
>  <MODEL>
3

>  <REMARK>
 VINA RESULT:      -8.0      2.330      6.954
  Name = 
  3 active torsions:
  status: ('A' for Active; 'I' for Inactive)
    1  A    between atoms: C_1  and  C_2
    2  A    between atoms: C_2  and  C_3
    3  A    between atoms: N_6  and  C_11
                            x       y       z     vdW  Elec       q    Type
                         _______ _______ _______ _____ _____    ______ ____

>  <TORSDO>
F 3

$$$$
=
 OpenBabel10272401583D

 28 32  0  0  1  0  0  0  0  0999 V2000
  183.6900  178.3960  139.1910 C   0  0  0  0  0  0  0  0  0  0  0  0
  187.8280  178.2650  141.8020 C   0  0  0  0  0  3  0  0  0  0  0  0
  182.1550  178.7080  143.7790 C   0  0  0  0  0  2  0  0  0  0  0  0
  186.6100  177.4250  143.8900 C   0  0  1  0  0  3  0  0  0  0  0  0
  185.5920  179.2260  142.3660 C   0  0  1  0  0  3  0  0  0  0  0  0
  188.6970  176.2990  142.9710 C   0  0  2  0  0  3  0  0  0  0  0  0
  186.4900  177.9850  142.4370 C   0  0  1  0  0  3  0  0  0  0  0  0
  184.8420  178.9910  144.7570 C   0  0  0  0  0  2  0  0  0  0  0  0
  187.9650  176.7750  144.2230 C   0  0  0  0  0  2  0  0  0  0  0  0
  182.9150  178.4640  141.4840 C   0  0  0  0  0  0  0  0  0  0  0  0
  185.1210  179.5380  140.9400 C   0  0  0  0  0  2  0  0  0  0  0  0
  186.2740  178.4810  144.9460 C   0  0  0  0  0  2  0  0  0  0  0  0
  181.5330  177.5050  139.8020 C   0  0  0  0  0  3  0  0  0  0  0  0
  183.1550  178.7880  142.9030 C   0  0  0  0  0  0  0  0  0  0  0  0
  181.7590  177.8550  141.0960 N   0  0  0  0  0  0  0  0  0  0  0  0
  189.9470  175.7900  143.3200 O   0  0  0  0  0  1  0  0  0  0  0  0
  188.8680  177.4590  142.0390 C   0  0  0  0  0  3  0  0  0  0  0  0
  184.4900  179.1230  143.3360 N   0  0  0  0  0  0  0  0  0  0  0  0
  182.4960  177.7660  138.8280 C   0  0  0  0  0  3  0  0  0  0  0  0
  183.9110  178.7460  140.5360 C   0  0  0  0  0  0  0  0  0  0  0  0
  184.7190  178.6510  138.1380 C   0  0  0  0  0  2  0  0  0  0  0  0
  186.0080  177.9260  138.4840 C   0  0  1  0  0  3  0  0  0  0  0  0
  186.3490  176.9400  137.3900 C   0  0  0  0  0  2  0  0  0  0  0  0
  187.0650  178.2760  137.4530 C   0  0  2  0  0  3  0  0  0  0  0  0
  188.3900  178.1150  138.0360 N   0  0  0  0  0  0  0  0  0  0  0  0
  190.0880  176.6240  138.7380 N   0  0  0  0  0  2  0  0  0  0  0  0
  188.9820  179.1630  138.6580 O   0  0  0  0  0  1  0  0  0  0  0  0
  188.9590  176.8080  138.1370 C   0  0  0  0  0  3  0  0  0  0  0  0
  1 20  1  0  0  0  0
  2 17  2  0  0  0  0
  4  9  1  1  0  0  0
  4 12  1  0  0  0  0
  5 11  1  6  0  0  0
  5  7  1  0  0  0  0
  5 18  1  0  0  0  0
  6 16  1  1  0  0  0
  6  9  1  0  0  0  0
  7  2  1  1  0  0  0
  7  4  1  0  0  0  0
  8 12  1  0  0  0  0
 10 14  1  0  0  0  0
 13 15  2  0  0  0  0
 14 18  1  0  0  0  0
 14  3  2  0  0  0  0
 15 10  1  0  0  0  0
 17  6  1  0  0  0  0
 18  8  1  0  0  0  0
 19  1  2  0  0  0  0
 19 13  1  0  0  0  0
 20 11  1  0  0  0  0
 20 10  2  0  0  0  0
 21  1  1  0  0  0  0
 22 21  1  6  0  0  0
 23 24  1  0  0  0  0
 23 22  1  0  0  0  0
 24 25  1  1  0  0  0
 24 22  1  0  0  0  0
 25 28  1  0  0  0  0
 25 27  1  0  0  0  0
 28 26  2  0  0  0  0
M  END
>  <MODEL>
4

>  <REMARK>
 VINA RESULT:      -7.6      2.775      5.800
  Name = 
  3 active torsions:
  status: ('A' for Active; 'I' for Inactive)
    1  A    between atoms: C_1  and  C_2
    2  A    between atoms: C_2  and  C_3
    3  A    between atoms: N_6  and  C_11
                            x       y       z     vdW  Elec       q    Type
                         _______ _______ _______ _____ _____    ______ ____

>  <TORSDO>
F 3

$$$$
=
 OpenBabel10272401583D

 28 32  0  0  1  0  0  0  0  0999 V2000
  187.5880  177.7980  147.2460 C   0  0  0  0  0  0  0  0  0  0  0  0
  188.5920  176.6030  142.6060 C   0  0  0  0  0  3  0  0  0  0  0  0
  183.7990  179.5380  144.7740 C   0  0  0  0  0  2  0  0  0  0  0  0
  187.0910  178.4630  141.6900 C   0  0  1  0  0  3  0  0  0  0  0  0
  186.4010  177.0480  143.7220 C   0  0  1  0  0  3  0  0  0  0  0  0
  189.4920  178.1300  140.9190 C   0  0  2  0  0  3  0  0  0  0  0  0
  187.5710  177.6600  142.9420 C   0  0  1  0  0  3  0  0  0  0  0  0
  184.6720  178.2610  142.3530 C   0  0  0  0  0  2  0  0  0  0  0  0
  188.0570  178.4330  140.4930 C   0  0  0  0  0  2  0  0  0  0  0  0
  185.7380  178.7440  146.0040 C   0  0  0  0  0  0  0  0  0  0  0  0
  186.7910  176.6300  145.1460 C   0  0  0  0  0  2  0  0  0  0  0  0
  185.6940  178.0380  141.2330 C   0  0  0  0  0  2  0  0  0  0  0  0
  186.4260  179.7540  148.0450 C   0  0  0  0  0  3  0  0  0  0  0  0
  184.8680  178.7450  144.8120 C   0  0  0  0  0  0  0  0  0  0  0  0
  185.6080  179.7060  146.9600 N   0  0  0  0  0  0  0  0  0  0  0  0
  190.3090  178.0380  139.7940 O   0  0  0  0  0  1  0  0  0  0  0  0
  189.5110  176.8290  141.6630 C   0  0  0  0  0  3  0  0  0  0  0  0
  185.2280  177.9360  143.6740 N   0  0  0  0  0  0  0  0  0  0  0  0
  187.4320  178.8030  148.2040 C   0  0  0  0  0  3  0  0  0  0  0  0
  186.7380  177.7670  146.1260 C   0  0  0  0  0  0  0  0  0  0  0  0
  188.6850  176.7970  147.4220 C   0  0  0  0  0  2  0  0  0  0  0  0
  189.9540  177.2940  146.7520 C   0  0  1  0  0  3  0  0  0  0  0  0
  191.1460  176.5350  147.2910 C   0  0  0  0  0  2  0  0  0  0  0  0
  190.5600  176.1630  145.9410 C   0  0  2  0  0  3  0  0  0  0  0  0
  191.3740  176.7130  144.8650 N   0  0  0  0  0  0  0  0  0  0  0  0
  191.9810  178.6210  143.6050 N   0  0  0  0  0  2  0  0  0  0  0  0
  191.9820  175.8770  143.9890 O   0  0  0  0  0  1  0  0  0  0  0  0
  191.3480  178.1190  144.6130 C   0  0  0  0  0  3  0  0  0  0  0  0
  1 21  1  0  0  0  0
  1 19  1  0  0  0  0
  3 14  2  0  0  0  0
  4  9  1  6  0  0  0
  4  7  1  0  0  0  0
  5 11  1  1  0  0  0
  6 16  1  6  0  0  0
  6 17  1  0  0  0  0
  7  2  1  6  0  0  0
  7  5  1  0  0  0  0
  8 18  1  0  0  0  0
  9  6  1  0  0  0  0
 10 20  1  0  0  0  0
 10 15  2  0  0  0  0
 11 20  1  0  0  0  0
 12  4  1  0  0  0  0
 12  8  1  0  0  0  0
 13 19  2  0  0  0  0
 14 10  1  0  0  0  0
 15 13  1  0  0  0  0
 17  2  2  0  0  0  0
 18  5  1  0  0  0  0
 18 14  1  0  0  0  0
 20  1  2  0  0  0  0
 22 23  1  0  0  0  0
 22 21  1  1  0  0  0
 24 25  1  6  0  0  0
 24 22  1  0  0  0  0
 24 23  1  0  0  0  0
 26 28  2  0  0  0  0
 27 25  1  0  0  0  0
 28 25  1  0  0  0  0
M  END
>  <MODEL>
5

>  <REMARK>
 VINA RESULT:      -7.5      2.621      6.027
  Name = 
  3 active torsions:
  status: ('A' for Active; 'I' for Inactive)
    1  A    between atoms: C_1  and  C_2
    2  A    between atoms: C_2  and  C_3
    3  A    between atoms: N_6  and  C_11
                            x       y       z     vdW  Elec       q    Type
                         _______ _______ _______ _____ _____    ______ ____

>  <TORSDO>
F 3

$$$$
=
 OpenBabel10272401583D

 28 32  0  0  1  0  0  0  0  0999 V2000
  190.1310  177.1050  141.6240 C   0  0  0  0  0  0  0  0  0  0  0  0
  185.4930  177.6160  143.1040 C   0  0  0  0  0  3  0  0  0  0  0  0
  190.4940  177.3510  146.4520 C   0  0  0  0  0  2  0  0  0  0  0  0
  186.2040  178.6950  145.3130 C   0  0  1  0  0  3  0  0  0  0  0  0
  187.4820  176.7040  144.3090 C   0  0  1  0  0  3  0  0  0  0  0  0
  184.4520  179.7240  143.7820 C   0  0  2  0  0  3  0  0  0  0  0  0
  186.6490  177.9550  144.0110 C   0  0  1  0  0  3  0  0  0  0  0  0
  187.6410  177.2270  146.7660 C   0  0  0  0  0  2  0  0  0  0  0  0
  184.8380  179.3990  145.2230 C   0  0  0  0  0  2  0  0  0  0  0  0
  190.3240  177.3150  144.0280 C   0  0  0  0  0  0  0  0  0  0  0  0
  188.2710  176.2100  143.0900 C   0  0  0  0  0  2  0  0  0  0  0  0
  186.2280  177.7760  146.5360 C   0  0  0  0  0  2  0  0  0  0  0  0
  192.1120  178.0390  142.6360 C   0  0  0  0  0  3  0  0  0  0  0  0
  189.7330  177.1750  145.3730 C   0  0  0  0  0  0  0  0  0  0  0  0
  191.5640  177.8560  143.8670 N   0  0  0  0  0  0  0  0  0  0  0  0
  183.1790  180.2890  143.7510 O   0  0  0  0  0  1  0  0  0  0  0  0
  184.4620  178.4580  142.9810 C   0  0  0  0  0  3  0  0  0  0  0  0
  188.3200  176.9140  145.5010 N   0  0  0  0  0  0  0  0  0  0  0  0
  191.4030  177.6690  141.4940 C   0  0  0  0  0  3  0  0  0  0  0  0
  189.5760  176.9300  142.9050 C   0  0  0  0  0  0  0  0  0  0  0  0
  189.3770  176.7340  140.3880 C   0  0  0  0  0  2  0  0  0  0  0  0
  190.2350  176.9840  139.1600 C   0  0  1  0  0  3  0  0  0  0  0  0
  191.0100  175.7330  138.8150 C   0  0  0  0  0  2  0  0  0  0  0  0
  189.7590  176.0870  138.0320 C   0  0  2  0  0  3  0  0  0  0  0  0
  190.1130  176.6820  136.7500 N   0  0  0  0  0  0  0  0  0  0  0  0
  189.3570  177.6630  134.7350 N   0  0  0  0  0  2  0  0  0  0  0  0
  191.3720  176.5380  136.2690 O   0  0  0  0  0  1  0  0  0  0  0  0
  189.0850  177.2200  135.9170 C   0  0  0  0  0  3  0  0  0  0  0  0
  1 20  1  0  0  0  0
  4  9  1  6  0  0  0
  4 12  1  0  0  0  0
  5 11  1  6  0  0  0
  5 18  1  0  0  0  0
  6 16  1  1  0  0  0
  6  9  1  0  0  0  0
  7  2  1  1  0  0  0
  7  5  1  0  0  0  0
  7  4  1  0  0  0  0
 10 14  1  0  0  0  0
 12  8  1  0  0  0  0
 13 15  2  0  0  0  0
 14 18  1  0  0  0  0
 14  3  2  0  0  0  0
 15 10  1  0  0  0  0
 17  2  2  0  0  0  0
 17  6  1  0  0  0  0
 18  8  1  0  0  0  0
 19  1  2  0  0  0  0
 19 13  1  0  0  0  0
 20 11  1  0  0  0  0
 20 10  2  0  0  0  0
 21  1  1  0  0  0  0
 22 21  1  1  0  0  0
 23 22  1  0  0  0  0
 24 25  1  6  0  0  0
 24 23  1  0  0  0  0
 24 22  1  0  0  0  0
 26 28  2  0  0  0  0
 27 25  1  0  0  0  0
 28 25  1  0  0  0  0
M  END
>  <MODEL>
6

>  <REMARK>
 VINA RESULT:      -7.4      1.971      2.133
  Name = 
  3 active torsions:
  status: ('A' for Active; 'I' for Inactive)
    1  A    between atoms: C_1  and  C_2
    2  A    between atoms: C_2  and  C_3
    3  A    between atoms: N_6  and  C_11
                            x       y       z     vdW  Elec       q    Type
                         _______ _______ _______ _____ _____    ______ ____

>  <TORSDO>
F 3

$$$$
=
 OpenBabel10272401583D

 28 32  0  0  1  0  0  0  0  0999 V2000
  187.2550  177.7300  142.7140 C   0  0  0  0  0  0  0  0  0  0  0  0
  187.5450  177.1300  137.8640 C   0  0  0  0  0  3  0  0  0  0  0  0
  191.9980  177.1110  141.9210 C   0  0  0  0  0  2  0  0  0  0  0  0
  189.7710  175.8800  138.0440 C   0  0  1  0  0  3  0  0  0  0  0  0
  189.2550  177.9360  139.4970 C   0  0  1  0  0  3  0  0  0  0  0  0
  187.7930  174.9810  136.7210 C   0  0  2  0  0  3  0  0  0  0  0  0
  188.6720  176.7150  138.7760 C   0  0  1  0  0  3  0  0  0  0  0  0
  191.6320  177.2250  139.0740 C   0  0  0  0  0  2  0  0  0  0  0  0
  189.3060  175.1920  136.7490 C   0  0  0  0  0  2  0  0  0  0  0  0
  189.6130  177.3340  142.3320 C   0  0  0  0  0  0  0  0  0  0  0  0
  188.3000  178.5190  140.5470 C   0  0  0  0  0  2  0  0  0  0  0  0
  191.0300  176.7020  137.7650 C   0  0  0  0  0  2  0  0  0  0  0  0
  188.6360  176.7120  144.4100 C   0  0  0  0  0  3  0  0  0  0  0  0
  190.7860  177.3740  141.4370 C   0  0  0  0  0  0  0  0  0  0  0  0
  189.7110  176.8020  143.5820 N   0  0  0  0  0  0  0  0  0  0  0  0
  187.4170  174.4260  135.4990 O   0  0  0  0  0  1  0  0  0  0  0  0
  187.1170  176.3050  136.9040 C   0  0  0  0  0  3  0  0  0  0  0  0
  190.5920  177.6310  140.0300 N   0  0  0  0  0  0  0  0  0  0  0  0
  187.3890  177.1710  143.9880 C   0  0  0  0  0  3  0  0  0  0  0  0
  188.3770  177.8090  141.8680 C   0  0  0  0  0  0  0  0  0  0  0  0
  185.9070  178.1990  142.2710 C   0  0  0  0  0  2  0  0  0  0  0  0
  185.0040  178.3990  143.4750 C   0  0  1  0  0  3  0  0  0  0  0  0
  184.9500  179.8660  143.8350 C   0  0  0  0  0  2  0  0  0  0  0  0
  183.8060  179.2350  143.0630 C   0  0  2  0  0  3  0  0  0  0  0  0
  182.6860  178.9570  143.9510 N   0  0  0  0  0  0  0  0  0  0  0  0
  180.3510  178.6430  144.1710 N   0  0  0  0  0  2  0  0  0  0  0  0
  182.8500  179.0620  145.2920 O   0  0  0  0  0  1  0  0  0  0  0  0
  181.3770  178.7910  143.4010 C   0  0  0  0  0  3  0  0  0  0  0  0
  1 19  1  0  0  0  0
  4  9  1  6  0  0  0
  4  7  1  0  0  0  0
  5 18  1  0  0  0  0
  5 11  1  1  0  0  0
  6 16  1  6  0  0  0
  6  9  1  0  0  0  0
  6 17  1  0  0  0  0
  7  2  1  6  0  0  0
  7  5  1  0  0  0  0
  8 18  1  0  0  0  0
 10 15  2  0  0  0  0
 11 20  1  0  0  0  0
 12  4  1  0  0  0  0
 12  8  1  0  0  0  0
 14  3  2  0  0  0  0
 14 10  1  0  0  0  0
 15 13  1  0  0  0  0
 17  2  2  0  0  0  0
 18 14  1  0  0  0  0
 19 13  2  0  0  0  0
 20 10  1  0  0  0  0
 20  1  2  0  0  0  0
 21  1  1  0  0  0  0
 22 21  1  6  0  0  0
 22 23  1  0  0  0  0
 24 22  1  0  0  0  0
 24 23  1  0  0  0  0
 24 25  1  1  0  0  0
 25 27  1  0  0  0  0
 28 25  1  0  0  0  0
 28 26  2  0  0  0  0
M  END
>  <MODEL>
7

>  <REMARK>
 VINA RESULT:      -7.4      2.711      6.739
  Name = 
  3 active torsions:
  status: ('A' for Active; 'I' for Inactive)
    1  A    between atoms: C_1  and  C_2
    2  A    between atoms: C_2  and  C_3
    3  A    between atoms: N_6  and  C_11
                            x       y       z     vdW  Elec       q    Type
                         _______ _______ _______ _____ _____    ______ ____

>  <TORSDO>
F 3

$$$$
=
 OpenBabel10272401583D

 28 32  0  0  1  0  0  0  0  0999 V2000
  186.6690  178.2080  142.5810 C   0  0  0  0  0  0  0  0  0  0  0  0
  187.7030  177.7200  137.8210 C   0  0  0  0  0  3  0  0  0  0  0  0
  191.2830  176.7190  142.5610 C   0  0  0  0  0  2  0  0  0  0  0  0
  189.5950  176.0620  138.2920 C   0  0  1  0  0  3  0  0  0  0  0  0
  189.2130  178.1310  139.7680 C   0  0  1  0  0  3  0  0  0  0  0  0
  187.7550  175.6010  136.5990 C   0  0  2  0  0  3  0  0  0  0  0  0
  188.5550  177.0680  138.8810 C   0  0  1  0  0  3  0  0  0  0  0  0
  191.4570  176.9920  139.7070 C   0  0  0  0  0  2  0  0  0  0  0  0
  189.2500  175.5180  136.8950 C   0  0  0  0  0  2  0  0  0  0  0  0
  188.9450  177.3810  142.5770 C   0  0  0  0  0  0  0  0  0  0  0  0
  188.2090  178.8520  140.6770 C   0  0  0  0  0  2  0  0  0  0  0  0
  191.0130  176.6370  138.2840 C   0  0  0  0  0  2  0  0  0  0  0  0
  187.5160  176.8900  144.4150 C   0  0  0  0  0  3  0  0  0  0  0  0
  190.2450  177.2250  141.8970 C   0  0  0  0  0  0  0  0  0  0  0  0
  188.7200  176.8000  143.7890 N   0  0  0  0  0  0  0  0  0  0  0  0
  187.5070  175.1680  135.2970 O   0  0  0  0  0  1  0  0  0  0  0  0
  187.3090  177.0230  136.7500 C   0  0  0  0  0  3  0  0  0  0  0  0
  190.3560  177.5590  140.4980 N   0  0  0  0  0  0  0  0  0  0  0  0
  186.4700  177.5930  143.8190 C   0  0  0  0  0  3  0  0  0  0  0  0
  187.9180  178.0980  141.9430 C   0  0  0  0  0  0  0  0  0  0  0  0
  185.5300  178.9400  141.9480 C   0  0  0  0  0  2  0  0  0  0  0  0
  184.3080  178.0420  141.8780 C   0  0  1  0  0  3  0  0  0  0  0  0
  183.0980  178.7840  142.3980 C   0  0  0  0  0  2  0  0  0  0  0  0
  183.3100  178.6380  140.9020 C   0  0  2  0  0  3  0  0  0  0  0  0
  182.4570  177.5850  140.3690 N   0  0  0  0  0  0  0  0  0  0  0  0
  182.1620  175.8990  138.7360 N   0  0  0  0  0  2  0  0  0  0  0  0
  181.1580  177.5170  140.7490 O   0  0  0  0  0  1  0  0  0  0  0  0
  182.9320  176.7730  139.2940 C   0  0  0  0  0  3  0  0  0  0  0  0
  1 19  1  0  0  0  0
  4  9  1  6  0  0  0
  4  7  1  0  0  0  0
  5 18  1  0  0  0  0
  5 11  1  1  0  0  0
  6 16  1  6  0  0  0
  6 17  1  0  0  0  0
  6  9  1  0  0  0  0
  7  2  1  6  0  0  0
  7  5  1  0  0  0  0
  8 18  1  0  0  0  0
 10 15  2  0  0  0  0
 11 20  1  0  0  0  0
 12  4  1  0  0  0  0
 12  8  1  0  0  0  0
 14  3  2  0  0  0  0
 14 10  1  0  0  0  0
 15 13  1  0  0  0  0
 17  2  2  0  0  0  0
 18 14  1  0  0  0  0
 19 13  2  0  0  0  0
 20 10  1  0  0  0  0
 20  1  2  0  0  0  0
 21  1  1  0  0  0  0
 22 21  1  6  0  0  0
 22 23  1  0  0  0  0
 24 25  1  1  0  0  0
 24 22  1  0  0  0  0
 24 23  1  0  0  0  0
 25 27  1  0  0  0  0
 26 28  2  0  0  0  0
 28 25  1  0  0  0  0
M  END
>  <MODEL>
8

>  <REMARK>
 VINA RESULT:      -7.2      2.388      6.320
  Name = 
  3 active torsions:
  status: ('A' for Active; 'I' for Inactive)
    1  A    between atoms: C_1  and  C_2
    2  A    between atoms: C_2  and  C_3
    3  A    between atoms: N_6  and  C_11
                            x       y       z     vdW  Elec       q    Type
                         _______ _______ _______ _____ _____    ______ ____

>  <TORSDO>
F 3

$$$$
=
 OpenBabel10272401583D

 28 32  0  0  1  0  0  0  0  0999 V2000
  190.0620  176.1120  138.0140 C   0  0  0  0  0  0  0  0  0  0  0  0
  189.4740  178.0350  142.4770 C   0  0  0  0  0  3  0  0  0  0  0  0
  185.4750  177.6820  137.9860 C   0  0  0  0  0  2  0  0  0  0  0  0
  186.9340  177.7370  142.3880 C   0  0  1  0  0  3  0  0  0  0  0  0
  188.2750  178.5180  140.3390 C   0  0  1  0  0  3  0  0  0  0  0  0
  188.3430  176.9370  144.3480 C   0  0  2  0  0  3  0  0  0  0  0  0
  188.2910  177.6710  141.6170 C   0  0  1  0  0  3  0  0  0  0  0  0
  185.8110  178.9950  140.5190 C   0  0  0  0  0  2  0  0  0  0  0  0
  187.0530  177.6340  143.9180 C   0  0  0  0  0  2  0  0  0  0  0  0
  187.7450  176.8160  138.0270 C   0  0  0  0  0  0  0  0  0  0  0  0
  189.4020  178.1480  139.3660 C   0  0  0  0  0  2  0  0  0  0  0  0
  186.1220  178.9810  142.0200 C   0  0  0  0  0  2  0  0  0  0  0  0
  188.4100  174.9800  136.6680 C   0  0  0  0  0  3  0  0  0  0  0  0
  186.6800  177.6910  138.5530 C   0  0  0  0  0  0  0  0  0  0  0  0
  187.4550  175.8290  137.1340 N   0  0  0  0  0  0  0  0  0  0  0  0
  188.4370  176.9370  145.7390 O   0  0  0  0  0  1  0  0  0  0  0  0
  189.5080  177.6740  143.7640 C   0  0  0  0  0  3  0  0  0  0  0  0
  186.9400  178.4960  139.7210 N   0  0  0  0  0  0  0  0  0  0  0  0
  189.7290  175.1050  137.1040 C   0  0  0  0  0  3  0  0  0  0  0  0
  189.0600  176.9770  138.4910 C   0  0  0  0  0  0  0  0  0  0  0  0
  191.4760  176.2190  138.4850 C   0  0  0  0  0  2  0  0  0  0  0  0
  192.3780  175.3520  137.6240 C   0  0  1  0  0  3  0  0  0  0  0  0
  193.2050  176.2270  136.7090 C   0  0  0  0  0  2  0  0  0  0  0  0
  193.8260  175.6500  137.9680 C   0  0  2  0  0  3  0  0  0  0  0  0
  194.6540  174.4970  137.6440 N   0  0  0  0  0  0  0  0  0  0  0  0
  196.0250  172.7430  138.4440 N   0  0  0  0  0  2  0  0  0  0  0  0
  195.0590  174.2990  136.3660 O   0  0  0  0  0  1  0  0  0  0  0  0
  195.2090  173.7100  138.7000 C   0  0  0  0  0  3  0  0  0  0  0  0
  1 21  1  0  0  0  0
  1 20  1  0  0  0  0
  2 17  2  0  0  0  0
  3 14  2  0  0  0  0
  4 12  1  1  0  0  0
  4  9  1  0  0  0  0
  5 11  1  6  0  0  0
  5  7  1  0  0  0  0
  6 16  1  1  0  0  0
  7  4  1  0  0  0  0
  7  2  1  1  0  0  0
  8 12  1  0  0  0  0
  9  6  1  0  0  0  0
 10 20  2  0  0  0  0
 10 14  1  0  0  0  0
 13 19  1  0  0  0  0
 13 15  2  0  0  0  0
 14 18  1  0  0  0  0
 15 10  1  0  0  0  0
 17  6  1  0  0  0  0
 18  5  1  0  0  0  0
 18  8  1  0  0  0  0
 19  1  2  0  0  0  0
 20 11  1  0  0  0  0
 22 24  1  0  0  0  0
 22 21  1  1  0  0  0
 23 22  1  0  0  0  0
 23 24  1  0  0  0  0
 24 25  1  6  0  0  0
 25 28  1  0  0  0  0
 26 28  2  0  0  0  0
 27 25  1  0  0  0  0
M  END
>  <MODEL>
9

>  <REMARK>
 VINA RESULT:      -7.1      4.113      6.778
  Name = 
  3 active torsions:
  status: ('A' for Active; 'I' for Inactive)
    1  A    between atoms: C_1  and  C_2
    2  A    between atoms: C_2  and  C_3
    3  A    between atoms: N_6  and  C_11
                            x       y       z     vdW  Elec       q    Type
                         _______ _______ _______ _____ _____    ______ ____

>  <TORSDO>
F 3

$$$$
