=
 OpenBabel10272401493D

 28 30  0  0  1  0  0  0  0  0999 V2000
  187.5200  177.9630  140.3790 C   0  0  1  0  0  3  0  0  0  0  0  0
  184.4280  179.6600  139.4210 O   0  0  0  0  0  0  0  0  0  0  0  0
  186.3720  178.8620  140.4350 N   0  0  0  0  0  0  0  0  0  0  0  0
  185.4020  178.8630  139.3820 C   0  0  0  0  0  0  0  0  0  0  0  0
  186.2510  179.7430  141.4580 O   0  0  0  0  0  1  0  0  0  0  0  0
  185.5240  177.9620  138.2850 N   0  0  0  0  0  1  0  0  0  0  0  0
  188.1510  177.9680  138.9820 C   0  0  2  0  0  3  0  0  0  0  0  0
  188.9560  176.6870  138.7320 C   0  0  2  0  0  3  0  0  0  0  0  0
  189.6870  176.1360  136.5020 N   0  0  0  0  0  0  0  0  0  0  0  0
  190.4500  177.0170  138.5730 C   0  0  0  0  0  3  0  0  0  0  0  0
  187.4990  175.5780  137.1390 O   0  0  0  0  0  0  0  0  0  0  0  0
  188.6150  176.0930  137.4160 C   0  0  0  0  0  0  0  0  0  0  0  0
  189.6240  175.7120  135.1160 C   0  0  0  0  0  1  0  0  0  0  0  0
  190.8420  176.7580  137.1110 C   0  0  0  0  0  3  0  0  0  0  0  0
  188.9610  179.0990  138.8170 O   0  0  0  0  0  0  0  0  0  0  0  0
  188.6090  179.5930  137.6490 O   0  0  0  0  0  1  0  0  0  0  0  0
  188.5340  178.2850  141.4820 C   0  0  0  0  0  2  0  0  0  0  0  0
  187.3390  177.1660  144.5290 C   0  0  0  0  0  2  0  0  0  0  0  0
  189.8150  176.9250  144.5700 C   0  0  0  0  0  0  0  0  0  0  0  0
  188.7280  177.1340  142.4700 C   0  0  2  0  0  3  0  0  0  0  0  0
  187.9310  177.4140  146.9700 C   0  0  1  0  0  3  0  0  0  0  0  0
  188.6620  177.6050  143.9150 C   0  0  1  0  0  3  0  0  0  0  0  0
  190.6280  176.1090  143.6390 C   0  0  0  0  0  2  0  0  0  0  0  0
  189.3630  177.9140  146.8170 C   0  0  0  0  0  2  0  0  0  0  0  0
  190.1410  177.0570  145.8620 C   0  0  0  0  0  3  0  0  0  0  0  0
  187.4120  177.8840  148.1740 O   0  0  0  0  0  1  0  0  0  0  0  0
  187.0590  177.9160  145.8250 C   0  0  0  0  0  2  0  0  0  0  0  0
  190.0590  176.4100  142.2640 C   0  0  0  0  0  2  0  0  0  0  0  0
  1  3  1  0  0  0  0
  1 17  1  1  0  0  0
  3  5  1  0  0  0  0
  4  2  2  0  0  0  0
  4  3  1  0  0  0  0
  6  4  1  0  0  0  0
  7 15  1  1  0  0  0
  7  1  1  0  0  0  0
  8  7  1  6  0  0  0
  9 14  1  0  0  0  0
  9 12  1  0  0  0  0
 10  8  1  0  0  0  0
 11 12  2  0  0  0  0
 12  8  1  0  0  0  0
 13  9  1  0  0  0  0
 14 10  2  0  0  0  0
 16 15  1  0  0  0  0
 18 27  1  0  0  0  0
 19 25  2  0  0  0  0
 20 17  1  6  0  0  0
 20 22  1  0  0  0  0
 21 26  1  1  0  0  0
 22 18  1  1  0  0  0
 22 19  1  0  0  0  0
 23 19  1  0  0  0  0
 24 21  1  0  0  0  0
 25 24  1  0  0  0  0
 27 21  1  0  0  0  0
 28 20  1  0  0  0  0
 28 23  1  0  0  0  0
M  END
>  <MODEL>
1

>  <REMARK>
 VINA RESULT:      -8.1      0.000      0.000
  Name = 
  6 active torsions:
  status: ('A' for Active; 'I' for Inactive)
    1  A    between atoms: O_1  and  C_2
    2  A    between atoms: C_2  and  C_3
    3  A    between atoms: C_2  and  C_27
    4  A    between atoms: C_10  and  C_17
    5  A    between atoms: N_16  and  C_27
    6  A    between atoms: C_17  and  C_27
                            x       y       z     vdW  Elec       q    Type
                         _______ _______ _______ _____ _____    ______ ____

>  <TORSDO>
F 6

$$$$
=
 OpenBabel10272401493D

 28 30  0  0  1  0  0  0  0  0999 V2000
  185.5050  178.5690  142.5300 C   0  0  1  0  0  3  0  0  0  0  0  0
  184.9010  179.0230  146.1050 O   0  0  0  0  0  0  0  0  0  0  0  0
  185.0730  179.1770  143.7840 N   0  0  0  0  0  0  0  0  0  0  0  0
  185.3010  178.5080  145.0290 C   0  0  0  0  0  0  0  0  0  0  0  0
  184.4000  180.3540  143.7690 O   0  0  0  0  0  1  0  0  0  0  0  0
  185.9840  177.2570  145.0630 N   0  0  0  0  0  1  0  0  0  0  0  0
  184.5000  178.8540  141.4080 C   0  0  2  0  0  3  0  0  0  0  0  0
  183.3470  177.8420  141.4260 C   0  0  2  0  0  3  0  0  0  0  0  0
  181.2660  178.3650  140.3290 N   0  0  0  0  0  0  0  0  0  0  0  0
  183.2640  177.1040  140.0790 C   0  0  0  0  0  3  0  0  0  0  0  0
  181.6300  179.1790  142.4990 O   0  0  0  0  0  0  0  0  0  0  0  0
  182.0360  178.5310  141.4970 C   0  0  0  0  0  0  0  0  0  0  0  0
  179.9820  178.9930  140.0750 C   0  0  0  0  0  1  0  0  0  0  0  0
  181.9790  177.5540  139.3680 C   0  0  0  0  0  3  0  0  0  0  0  0
  185.1430  178.8470  140.1640 O   0  0  0  0  0  0  0  0  0  0  0  0
  184.7270  179.9440  139.5680 O   0  0  0  0  0  1  0  0  0  0  0  0
  186.9300  178.9990  142.1640 C   0  0  0  0  0  2  0  0  0  0  0  0
  188.8430  176.9860  144.2270 C   0  0  0  0  0  2  0  0  0  0  0  0
  190.2630  177.6200  142.2840 C   0  0  0  0  0  0  0  0  0  0  0  0
  187.9070  177.8250  142.0840 C   0  0  2  0  0  3  0  0  0  0  0  0
  191.1890  176.9650  145.1580 C   0  0  1  0  0  3  0  0  0  0  0  0
  189.0490  177.9650  143.0780 C   0  0  1  0  0  3  0  0  0  0  0  0
  189.9760  177.3270  140.8610 C   0  0  0  0  0  2  0  0  0  0  0  0
  191.8360  177.9510  144.1930 C   0  0  0  0  0  2  0  0  0  0  0  0
  191.5120  177.6140  142.7680 C   0  0  0  0  0  3  0  0  0  0  0  0
  191.8810  176.9920  146.3670 O   0  0  0  0  0  1  0  0  0  0  0  0
  189.7330  177.3360  145.4130 C   0  0  0  0  0  2  0  0  0  0  0  0
  188.5050  177.6620  140.6870 C   0  0  0  0  0  2  0  0  0  0  0  0
  1 17  1  6  0  0  0
  1  3  1  0  0  0  0
  3  4  1  0  0  0  0
  4  6  1  0  0  0  0
  4  2  2  0  0  0  0
  5  3  1  0  0  0  0
  7 15  1  6  0  0  0
  7  1  1  0  0  0  0
  8  7  1  6  0  0  0
  8 12  1  0  0  0  0
  9 12  1  0  0  0  0
 10  8  1  0  0  0  0
 12 11  2  0  0  0  0
 13  9  1  0  0  0  0
 14 10  2  0  0  0  0
 14  9  1  0  0  0  0
 16 15  1  0  0  0  0
 18 27  1  0  0  0  0
 19 25  2  0  0  0  0
 19 22  1  0  0  0  0
 20 17  1  6  0  0  0
 20 22  1  0  0  0  0
 21 27  1  0  0  0  0
 21 26  1  1  0  0  0
 22 18  1  1  0  0  0
 23 19  1  0  0  0  0
 24 21  1  0  0  0  0
 25 24  1  0  0  0  0
 28 23  1  0  0  0  0
 28 20  1  0  0  0  0
M  END
>  <MODEL>
2

>  <REMARK>
 VINA RESULT:      -7.8      3.288      5.511
  Name = 
  6 active torsions:
  status: ('A' for Active; 'I' for Inactive)
    1  A    between atoms: O_1  and  C_2
    2  A    between atoms: C_2  and  C_3
    3  A    between atoms: C_2  and  C_27
    4  A    between atoms: C_10  and  C_17
    5  A    between atoms: N_16  and  C_27
    6  A    between atoms: C_17  and  C_27
                            x       y       z     vdW  Elec       q    Type
                         _______ _______ _______ _____ _____    ______ ____

>  <TORSDO>
F 6

$$$$
=
 OpenBabel10272401493D

 28 30  0  0  1  0  0  0  0  0999 V2000
  189.0100  177.7350  139.4390 C   0  0  1  0  0  3  0  0  0  0  0  0
  186.9840  178.7250  136.5630 O   0  0  0  0  0  0  0  0  0  0  0  0
  188.4920  178.5340  138.3320 N   0  0  0  0  0  0  0  0  0  0  0  0
  187.4090  178.0460  137.5340 C   0  0  0  0  0  0  0  0  0  0  0  0
  189.0760  179.7160  138.0190 O   0  0  0  0  0  1  0  0  0  0  0  0
  186.7970  176.7930  137.8310 N   0  0  0  0  0  1  0  0  0  0  0  0
  190.5150  177.4910  139.2810 C   0  0  2  0  0  3  0  0  0  0  0  0
  190.8380  176.8920  137.9060 C   0  0  2  0  0  3  0  0  0  0  0  0
  192.3100  174.9910  137.7340 N   0  0  0  0  0  0  0  0  0  0  0  0
  190.0170  175.6120  137.6740 C   0  0  0  0  0  3  0  0  0  0  0  0
  193.2530  177.1320  137.8990 O   0  0  0  0  0  0  0  0  0  0  0  0
  192.2340  176.3920  137.8590 C   0  0  0  0  0  0  0  0  0  0  0  0
  193.5350  174.2130  137.7500 C   0  0  0  0  0  1  0  0  0  0  0  0
  190.9830  174.4180  137.6850 C   0  0  0  0  0  3  0  0  0  0  0  0
  190.9830  176.6570  140.3040 O   0  0  0  0  0  0  0  0  0  0  0  0
  191.8390  177.4000  140.9730 O   0  0  0  0  0  1  0  0  0  0  0  0
  188.6560  178.3630  140.7920 C   0  0  0  0  0  2  0  0  0  0  0  0
  185.5560  178.0430  142.2910 C   0  0  0  0  0  2  0  0  0  0  0  0
  187.2690  177.4680  144.0010 C   0  0  0  0  0  0  0  0  0  0  0  0
  187.8870  177.4120  141.7100 C   0  0  2  0  0  3  0  0  0  0  0  0
  184.4670  178.6780  144.4780 C   0  0  1  0  0  3  0  0  0  0  0  0
  187.0160  178.1620  142.7060 C   0  0  1  0  0  3  0  0  0  0  0  0
  188.2680  176.3790  143.9030 C   0  0  0  0  0  2  0  0  0  0  0  0
  185.7230  178.9310  145.3030 C   0  0  0  0  0  2  0  0  0  0  0  0
  186.7020  177.8030  145.1670 C   0  0  0  0  0  3  0  0  0  0  0  0
  183.4230  179.4440  144.9920 O   0  0  0  0  0  1  0  0  0  0  0  0
  184.6920  179.0640  143.0200 C   0  0  0  0  0  2  0  0  0  0  0  0
  188.8150  176.4820  142.4900 C   0  0  0  0  0  2  0  0  0  0  0  0
  1 17  1  1  0  0  0
  2  4  2  0  0  0  0
  3  1  1  0  0  0  0
  4  6  1  0  0  0  0
  4  3  1  0  0  0  0
  5  3  1  0  0  0  0
  7  1  1  0  0  0  0
  7 15  1  1  0  0  0
  8  7  1  1  0  0  0
  9 13  1  0  0  0  0
  9 12  1  0  0  0  0
 10 14  2  0  0  0  0
 10  8  1  0  0  0  0
 12 11  2  0  0  0  0
 12  8  1  0  0  0  0
 14  9  1  0  0  0  0
 15 16  1  0  0  0  0
 18 27  1  0  0  0  0
 19 25  2  0  0  0  0
 20 17  1  1  0  0  0
 20 28  1  0  0  0  0
 20 22  1  0  0  0  0
 21 26  1  1  0  0  0
 21 24  1  0  0  0  0
 22 18  1  6  0  0  0
 22 19  1  0  0  0  0
 23 19  1  0  0  0  0
 25 24  1  0  0  0  0
 27 21  1  0  0  0  0
 28 23  1  0  0  0  0
M  END
>  <MODEL>
3

>  <REMARK>
 VINA RESULT:      -7.6      2.462      3.393
  Name = 
  6 active torsions:
  status: ('A' for Active; 'I' for Inactive)
    1  A    between atoms: O_1  and  C_2
    2  A    between atoms: C_2  and  C_3
    3  A    between atoms: C_2  and  C_27
    4  A    between atoms: C_10  and  C_17
    5  A    between atoms: N_16  and  C_27
    6  A    between atoms: C_17  and  C_27
                            x       y       z     vdW  Elec       q    Type
                         _______ _______ _______ _____ _____    ______ ____

>  <TORSDO>
F 6

$$$$
=
 OpenBabel10272401493D

 28 30  0  0  1  0  0  0  0  0999 V2000
  189.4930  177.9490  141.9610 C   0  0  1  0  0  3  0  0  0  0  0  0
  191.4690  175.3880  143.6610 O   0  0  0  0  0  0  0  0  0  0  0  0
  189.9010  176.6470  142.4790 N   0  0  0  0  0  0  0  0  0  0  0  0
  191.1070  176.5180  143.2400 C   0  0  0  0  0  0  0  0  0  0  0  0
  189.1690  175.5440  142.1900 O   0  0  0  0  0  1  0  0  0  0  0  0
  191.9040  177.6620  143.5330 N   0  0  0  0  0  1  0  0  0  0  0  0
  188.8150  177.8060  140.5930 C   0  0  2  0  0  3  0  0  0  0  0  0
  189.8330  177.9340  139.4530 C   0  0  2  0  0  3  0  0  0  0  0  0
  189.5260  176.6840  137.4160 N   0  0  0  0  0  0  0  0  0  0  0  0
  189.2870  178.8560  138.3500 C   0  0  0  0  0  3  0  0  0  0  0  0
  190.5290  175.6180  139.2490 O   0  0  0  0  0  0  0  0  0  0  0  0
  189.9990  176.6430  138.7420 C   0  0  0  0  0  0  0  0  0  0  0  0
  189.4760  175.5530  136.5080 C   0  0  0  0  0  1  0  0  0  0  0  0
  189.0010  177.9960  137.1100 C   0  0  0  0  0  3  0  0  0  0  0  0
  187.7960  178.7560  140.4530 O   0  0  0  0  0  0  0  0  0  0  0  0
  186.8230  178.1140  139.8420 O   0  0  0  0  0  1  0  0  0  0  0  0
  188.6210  178.7030  142.9720 C   0  0  0  0  0  2  0  0  0  0  0  0
  185.2910  177.8000  142.7290 C   0  0  0  0  0  2  0  0  0  0  0  0
  185.7770  178.2040  145.1360 C   0  0  0  0  0  0  0  0  0  0  0  0
  187.5930  177.8050  143.6620 C   0  0  2  0  0  3  0  0  0  0  0  0
  183.0790  178.5630  143.6740 C   0  0  1  0  0  3  0  0  0  0  0  0
  186.2230  178.4600  143.7370 C   0  0  1  0  0  3  0  0  0  0  0  0
  186.7800  177.4880  145.9560 C   0  0  0  0  0  2  0  0  0  0  0  0
  183.5930  179.3800  144.8530 C   0  0  0  0  0  2  0  0  0  0  0  0
  184.6080  178.6120  145.6470 C   0  0  0  0  0  3  0  0  0  0  0  0
  181.8410  179.0660  143.2780 O   0  0  0  0  0  1  0  0  0  0  0  0
  184.0450  178.6450  142.4980 C   0  0  0  0  0  2  0  0  0  0  0  0
  188.0180  177.4190  145.0790 C   0  0  0  0  0  2  0  0  0  0  0  0
  1  3  1  0  0  0  0
  1 17  1  1  0  0  0
  3  4  1  0  0  0  0
  4  6  1  0  0  0  0
  4  2  2  0  0  0  0
  5  3  1  0  0  0  0
  7 15  1  6  0  0  0
  7  1  1  0  0  0  0
  8  7  1  1  0  0  0
  9 12  1  0  0  0  0
 10  8  1  0  0  0  0
 12 11  2  0  0  0  0
 12  8  1  0  0  0  0
 13  9  1  0  0  0  0
 14  9  1  0  0  0  0
 14 10  2  0  0  0  0
 16 15  1  0  0  0  0
 19 25  2  0  0  0  0
 19 23  1  0  0  0  0
 20 17  1  1  0  0  0
 20 22  1  0  0  0  0
 20 28  1  0  0  0  0
 21 26  1  6  0  0  0
 21 24  1  0  0  0  0
 22 18  1  6  0  0  0
 22 19  1  0  0  0  0
 24 25  1  0  0  0  0
 27 18  1  0  0  0  0
 27 21  1  0  0  0  0
 28 23  1  0  0  0  0
M  END
>  <MODEL>
4

>  <REMARK>
 VINA RESULT:      -7.6      3.061      4.516
  Name = 
  6 active torsions:
  status: ('A' for Active; 'I' for Inactive)
    1  A    between atoms: O_1  and  C_2
    2  A    between atoms: C_2  and  C_3
    3  A    between atoms: C_2  and  C_27
    4  A    between atoms: C_10  and  C_17
    5  A    between atoms: N_16  and  C_27
    6  A    between atoms: C_17  and  C_27
                            x       y       z     vdW  Elec       q    Type
                         _______ _______ _______ _____ _____    ______ ____

>  <TORSDO>
F 6

$$$$
=
 OpenBabel10272401493D

 28 30  0  0  1  0  0  0  0  0999 V2000
  187.3780  177.7130  139.6570 C   0  0  1  0  0  3  0  0  0  0  0  0
  184.2070  178.6780  138.1190 O   0  0  0  0  0  0  0  0  0  0  0  0
  186.1220  178.4200  139.4240 N   0  0  0  0  0  0  0  0  0  0  0  0
  185.2740  178.0470  138.3330 C   0  0  0  0  0  0  0  0  0  0  0  0
  185.7830  179.4720  140.2080 O   0  0  0  0  0  1  0  0  0  0  0  0
  185.6260  176.9590  137.4820 N   0  0  0  0  0  1  0  0  0  0  0  0
  188.3070  177.8330  138.4430 C   0  0  2  0  0  3  0  0  0  0  0  0
  189.0400  176.5130  138.1730 C   0  0  2  0  0  3  0  0  0  0  0  0
  190.6500  176.3720  136.3850 N   0  0  0  0  0  0  0  0  0  0  0  0
  190.4670  176.5680  138.7460 C   0  0  0  0  0  3  0  0  0  0  0  0
  188.3740  176.1260  135.8720 O   0  0  0  0  0  0  0  0  0  0  0  0
  189.2830  176.3280  136.7210 C   0  0  0  0  0  0  0  0  0  0  0  0
  191.1840  176.3100  135.0370 C   0  0  0  0  0  1  0  0  0  0  0  0
  191.4520  176.5890  137.5680 C   0  0  0  0  0  3  0  0  0  0  0  0
  189.2220  178.8760  138.6330 O   0  0  0  0  0  0  0  0  0  0  0  0
  188.9160  179.7600  137.7070 O   0  0  0  0  0  1  0  0  0  0  0  0
  188.0460  178.1770  140.9560 C   0  0  0  0  0  2  0  0  0  0  0  0
  185.4030  177.6040  143.1130 C   0  0  0  0  0  2  0  0  0  0  0  0
  187.4730  177.7180  144.4890 C   0  0  0  0  0  0  0  0  0  0  0  0
  187.6780  177.3090  142.1600 C   0  0  2  0  0  3  0  0  0  0  0  0
  184.6000  178.4620  145.3470 C   0  0  1  0  0  3  0  0  0  0  0  0
  186.8510  178.0730  143.1820 C   0  0  1  0  0  3  0  0  0  0  0  0
  188.6560  176.8350  144.3620 C   0  0  0  0  0  2  0  0  0  0  0  0
  185.8930  179.1050  145.8330 C   0  0  0  0  0  2  0  0  0  0  0  0
  187.0580  178.1740  145.6780 C   0  0  0  0  0  3  0  0  0  0  0  0
  183.5180  179.1100  145.9390 O   0  0  0  0  0  1  0  0  0  0  0  0
  184.4760  178.5760  143.8320 C   0  0  0  0  0  2  0  0  0  0  0  0
  188.9110  176.7460  142.8670 C   0  0  0  0  0  2  0  0  0  0  0  0
  1 17  1  1  0  0  0
  2  4  2  0  0  0  0
  3  1  1  0  0  0  0
  3  5  1  0  0  0  0
  4  3  1  0  0  0  0
  6  4  1  0  0  0  0
  7 15  1  1  0  0  0
  7  1  1  0  0  0  0
  8  7  1  6  0  0  0
  8 10  1  0  0  0  0
  9 12  1  0  0  0  0
  9 14  1  0  0  0  0
 11 12  2  0  0  0  0
 12  8  1  0  0  0  0
 13  9  1  0  0  0  0
 14 10  2  0  0  0  0
 16 15  1  0  0  0  0
 18 27  1  0  0  0  0
 19 25  2  0  0  0  0
 20 17  1  6  0  0  0
 20 28  1  0  0  0  0
 20 22  1  0  0  0  0
 21 24  1  0  0  0  0
 21 26  1  1  0  0  0
 22 18  1  1  0  0  0
 22 19  1  0  0  0  0
 23 19  1  0  0  0  0
 25 24  1  0  0  0  0
 27 21  1  0  0  0  0
 28 23  1  0  0  0  0
M  END
>  <MODEL>
5

>  <REMARK>
 VINA RESULT:      -7.4      1.614      2.040
  Name = 
  6 active torsions:
  status: ('A' for Active; 'I' for Inactive)
    1  A    between atoms: O_1  and  C_2
    2  A    between atoms: C_2  and  C_3
    3  A    between atoms: C_2  and  C_27
    4  A    between atoms: C_10  and  C_17
    5  A    between atoms: N_16  and  C_27
    6  A    between atoms: C_17  and  C_27
                            x       y       z     vdW  Elec       q    Type
                         _______ _______ _______ _____ _____    ______ ____

>  <TORSDO>
F 6

$$$$
=
 OpenBabel10272401493D

 28 30  0  0  1  0  0  0  0  0999 V2000
  189.8630  177.3390  142.0420 C   0  0  1  0  0  3  0  0  0  0  0  0
  192.0760  175.7340  144.4670 O   0  0  0  0  0  0  0  0  0  0  0  0
  190.5050  176.2970  142.8370 N   0  0  0  0  0  0  0  0  0  0  0  0
  191.5050  176.6380  143.8030 C   0  0  0  0  0  0  0  0  0  0  0  0
  190.1970  174.9950  142.6220 O   0  0  0  0  0  1  0  0  0  0  0  0
  191.8600  178.0000  144.0270 N   0  0  0  0  0  1  0  0  0  0  0  0
  190.4500  177.3870  140.6260 C   0  0  2  0  0  3  0  0  0  0  0  0
  189.4900  176.7580  139.6070 C   0  0  2  0  0  3  0  0  0  0  0  0
  189.3020  177.6910  137.3930 N   0  0  0  0  0  0  0  0  0  0  0  0
  190.2700  175.8900  138.6050 C   0  0  0  0  0  3  0  0  0  0  0  0
  188.0700  178.6680  139.1340 O   0  0  0  0  0  0  0  0  0  0  0  0
  188.8870  177.7960  138.7350 C   0  0  0  0  0  0  0  0  0  0  0  0
  188.9490  178.6150  136.3320 C   0  0  0  0  0  1  0  0  0  0  0  0
  190.2160  176.5820  137.2350 C   0  0  0  0  0  3  0  0  0  0  0  0
  191.6940  176.7450  140.5920 O   0  0  0  0  0  0  0  0  0  0  0  0
  192.5680  177.7200  140.4580 O   0  0  0  0  0  1  0  0  0  0  0  0
  188.3380  177.1800  142.0410 C   0  0  0  0  0  2  0  0  0  0  0  0
  188.5750  178.4800  145.2370 C   0  0  0  0  0  2  0  0  0  0  0  0
  186.1760  177.9650  144.8210 C   0  0  0  0  0  0  0  0  0  0  0  0
  187.6320  178.1780  142.9590 C   0  0  2  0  0  3  0  0  0  0  0  0
  187.6580  177.9660  147.5320 C   0  0  1  0  0  3  0  0  0  0  0  0
  187.5790  177.6900  144.3980 C   0  0  1  0  0  3  0  0  0  0  0  0
  185.3350  178.5370  143.7440 C   0  0  0  0  0  2  0  0  0  0  0  0
  186.4960  177.0670  147.1270 C   0  0  0  0  0  2  0  0  0  0  0  0
  185.6800  177.6890  146.0340 C   0  0  0  0  0  3  0  0  0  0  0  0
  188.0710  177.6250  148.8180 O   0  0  0  0  0  1  0  0  0  0  0  0
  188.8310  177.7960  146.5740 C   0  0  0  0  0  2  0  0  0  0  0  0
  186.2050  178.4770  142.5010 C   0  0  0  0  0  2  0  0  0  0  0  0
  1 17  1  6  0  0  0
  1  3  1  0  0  0  0
  3  4  1  0  0  0  0
  4  6  1  0  0  0  0
  4  2  2  0  0  0  0
  5  3  1  0  0  0  0
  7 15  1  1  0  0  0
  7  1  1  0  0  0  0
  8  7  1  1  0  0  0
  9 12  1  0  0  0  0
 10  8  1  0  0  0  0
 12 11  2  0  0  0  0
 12  8  1  0  0  0  0
 13  9  1  0  0  0  0
 14  9  1  0  0  0  0
 14 10  2  0  0  0  0
 16 15  1  0  0  0  0
 18 27  1  0  0  0  0
 19 25  2  0  0  0  0
 20 17  1  6  0  0  0
 20 22  1  0  0  0  0
 21 26  1  1  0  0  0
 22 19  1  0  0  0  0
 22 18  1  1  0  0  0
 23 19  1  0  0  0  0
 24 21  1  0  0  0  0
 25 24  1  0  0  0  0
 27 21  1  0  0  0  0
 28 20  1  0  0  0  0
 28 23  1  0  0  0  0
M  END
>  <MODEL>
6

>  <REMARK>
 VINA RESULT:      -7.3      2.852      4.267
  Name = 
  6 active torsions:
  status: ('A' for Active; 'I' for Inactive)
    1  A    between atoms: O_1  and  C_2
    2  A    between atoms: C_2  and  C_3
    3  A    between atoms: C_2  and  C_27
    4  A    between atoms: C_10  and  C_17
    5  A    between atoms: N_16  and  C_27
    6  A    between atoms: C_17  and  C_27
                            x       y       z     vdW  Elec       q    Type
                         _______ _______ _______ _____ _____    ______ ____

>  <TORSDO>
F 6

$$$$
=
 OpenBabel10272401493D

 28 30  0  0  1  0  0  0  0  0999 V2000
  188.1560  177.6890  144.3420 C   0  0  1  0  0  3  0  0  0  0  0  0
  187.6260  177.5710  147.9560 O   0  0  0  0  0  0  0  0  0  0  0  0
  188.3270  177.3230  145.7450 N   0  0  0  0  0  0  0  0  0  0  0  0
  187.4570  177.8660  146.7440 C   0  0  0  0  0  0  0  0  0  0  0  0
  189.3480  176.5130  146.1140 O   0  0  0  0  0  1  0  0  0  0  0  0
  186.3930  178.7410  146.3800 N   0  0  0  0  0  1  0  0  0  0  0  0
  189.2760  177.0940  143.4810 C   0  0  2  0  0  3  0  0  0  0  0  0
  189.7430  178.0920  142.4130 C   0  0  2  0  0  3  0  0  0  0  0  0
  191.6000  177.5420  140.9790 N   0  0  0  0  0  0  0  0  0  0  0  0
  189.2280  177.6690  141.0270 C   0  0  0  0  0  3  0  0  0  0  0  0
  192.0450  178.4100  143.1130 O   0  0  0  0  0  0  0  0  0  0  0  0
  191.2150  178.0350  142.2420 C   0  0  0  0  0  0  0  0  0  0  0  0
  192.9670  177.2920  140.5580 C   0  0  0  0  0  1  0  0  0  0  0  0
  190.4340  177.2220  140.1880 C   0  0  0  0  0  3  0  0  0  0  0  0
  188.8530  175.8990  142.8880 O   0  0  0  0  0  0  0  0  0  0  0  0
  189.8960  175.1000  142.9660 O   0  0  0  0  0  1  0  0  0  0  0  0
  186.7600  177.3080  143.8340 C   0  0  0  0  0  2  0  0  0  0  0  0
  183.8900  179.2110  144.1630 C   0  0  0  0  0  2  0  0  0  0  0  0
  184.1240  178.6310  141.7540 C   0  0  0  0  0  0  0  0  0  0  0  0
  186.0350  178.4700  143.1520 C   0  0  2  0  0  3  0  0  0  0  0  0
  181.5120  179.1600  143.3180 C   0  0  1  0  0  3  0  0  0  0  0  0
  184.5270  178.2740  143.1440 C   0  0  1  0  0  3  0  0  0  0  0  0
  185.2650  178.9820  140.8790 C   0  0  0  0  0  2  0  0  0  0  0  0
  181.6970  178.2020  142.1470 C   0  0  0  0  0  2  0  0  0  0  0  0
  182.8660  178.6000  141.2960 C   0  0  0  0  0  3  0  0  0  0  0  0
  180.1970  179.0770  143.7710 O   0  0  0  0  0  1  0  0  0  0  0  0
  182.4540  178.8020  144.4620 C   0  0  0  0  0  2  0  0  0  0  0  0
  186.4990  178.6770  141.7110 C   0  0  0  0  0  2  0  0  0  0  0  0
  1 17  1  6  0  0  0
  1  3  1  0  0  0  0
  3  5  1  0  0  0  0
  3  4  1  0  0  0  0
  4  2  2  0  0  0  0
  6  4  1  0  0  0  0
  7 15  1  6  0  0  0
  7  1  1  0  0  0  0
  8  7  1  1  0  0  0
  9 12  1  0  0  0  0
 10  8  1  0  0  0  0
 12  8  1  0  0  0  0
 12 11  2  0  0  0  0
 13  9  1  0  0  0  0
 14  9  1  0  0  0  0
 14 10  2  0  0  0  0
 15 16  1  0  0  0  0
 18 27  1  0  0  0  0
 19 22  1  0  0  0  0
 20 17  1  6  0  0  0
 21 26  1  1  0  0  0
 21 27  1  0  0  0  0
 22 20  1  0  0  0  0
 22 18  1  1  0  0  0
 23 28  1  0  0  0  0
 23 19  1  0  0  0  0
 24 21  1  0  0  0  0
 25 19  2  0  0  0  0
 25 24  1  0  0  0  0
 28 20  1  0  0  0  0
M  END
>  <MODEL>
7

>  <REMARK>
 VINA RESULT:      -7.1      3.692      6.202
  Name = 
  6 active torsions:
  status: ('A' for Active; 'I' for Inactive)
    1  A    between atoms: O_1  and  C_2
    2  A    between atoms: C_2  and  C_3
    3  A    between atoms: C_2  and  C_27
    4  A    between atoms: C_10  and  C_17
    5  A    between atoms: N_16  and  C_27
    6  A    between atoms: C_17  and  C_27
                            x       y       z     vdW  Elec       q    Type
                         _______ _______ _______ _____ _____    ______ ____

>  <TORSDO>
F 6

$$$$
=
 OpenBabel10272401493D

 28 30  0  0  1  0  0  0  0  0999 V2000
  189.7270  177.2340  140.3400 C   0  0  1  0  0  3  0  0  0  0  0  0
  192.9590  176.2250  138.9640 O   0  0  0  0  0  0  0  0  0  0  0  0
  190.7260  176.4780  139.5910 N   0  0  0  0  0  0  0  0  0  0  0  0
  192.1050  176.8630  139.6330 C   0  0  0  0  0  0  0  0  0  0  0  0
  190.3430  175.4430  138.8050 O   0  0  0  0  0  1  0  0  0  0  0  0
  192.5240  177.9640  140.4340 N   0  0  0  0  0  1  0  0  0  0  0  0
  188.4970  177.5240  139.4730 C   0  0  2  0  0  3  0  0  0  0  0  0
  188.8290  177.4010  137.9800 C   0  0  2  0  0  3  0  0  0  0  0  0
  187.0850  177.6360  136.3330 N   0  0  0  0  0  0  0  0  0  0  0  0
  188.9030  178.7940  137.3330 C   0  0  0  0  0  3  0  0  0  0  0  0
  187.3730  175.5550  137.3760 O   0  0  0  0  0  0  0  0  0  0  0  0
  187.7150  176.7600  137.2390 C   0  0  0  0  0  0  0  0  0  0  0  0
  185.9140  177.3190  135.5370 C   0  0  0  0  0  1  0  0  0  0  0  0
  187.7100  178.9390  136.3770 C   0  0  0  0  0  3  0  0  0  0  0  0
  187.9860  178.7950  139.7610 O   0  0  0  0  0  0  0  0  0  0  0  0
  186.6890  178.6110  139.8900 O   0  0  0  0  0  1  0  0  0  0  0  0
  189.3670  176.5320  141.6540 C   0  0  0  0  0  2  0  0  0  0  0  0
  190.9000  177.8250  144.4730 C   0  0  0  0  0  2  0  0  0  0  0  0
  188.5600  177.2520  145.0970 C   0  0  0  0  0  0  0  0  0  0  0  0
  189.0920  177.5080  142.7980 C   0  0  2  0  0  3  0  0  0  0  0  0
  191.0450  177.2790  146.9330 C   0  0  1  0  0  3  0  0  0  0  0  0
  189.6600  177.0130  144.1190 C   0  0  1  0  0  3  0  0  0  0  0  0
  187.3320  177.8070  144.4830 C   0  0  0  0  0  2  0  0  0  0  0  0
  189.8400  176.3530  147.0410 C   0  0  0  0  0  2  0  0  0  0  0  0
  188.6260  176.9580  146.4020 C   0  0  0  0  0  3  0  0  0  0  0  0
  191.9680  176.9420  147.9210 O   0  0  0  0  0  1  0  0  0  0  0  0
  191.7090  177.1420  145.5670 C   0  0  0  0  0  2  0  0  0  0  0  0
  187.5990  177.7740  142.9880 C   0  0  0  0  0  2  0  0  0  0  0  0
  1 17  1  1  0  0  0
  2  4  2  0  0  0  0
  3  4  1  0  0  0  0
  3  1  1  0  0  0  0
  4  6  1  0  0  0  0
  5  3  1  0  0  0  0
  7 15  1  6  0  0  0
  7  1  1  0  0  0  0
  8  7  1  1  0  0  0
  9 14  1  0  0  0  0
  9 12  1  0  0  0  0
 10  8  1  0  0  0  0
 12 11  2  0  0  0  0
 12  8  1  0  0  0  0
 13  9  1  0  0  0  0
 14 10  2  0  0  0  0
 15 16  1  0  0  0  0
 18 27  1  0  0  0  0
 19 25  2  0  0  0  0
 20 17  1  6  0  0  0
 20 28  1  0  0  0  0
 20 22  1  0  0  0  0
 21 24  1  0  0  0  0
 21 26  1  1  0  0  0
 22 18  1  1  0  0  0
 22 19  1  0  0  0  0
 23 19  1  0  0  0  0
 25 24  1  0  0  0  0
 27 21  1  0  0  0  0
 28 23  1  0  0  0  0
M  END
>  <MODEL>
8

>  <REMARK>
 VINA RESULT:      -7.1      2.362      3.898
  Name = 
  6 active torsions:
  status: ('A' for Active; 'I' for Inactive)
    1  A    between atoms: O_1  and  C_2
    2  A    between atoms: C_2  and  C_3
    3  A    between atoms: C_2  and  C_27
    4  A    between atoms: C_10  and  C_17
    5  A    between atoms: N_16  and  C_27
    6  A    between atoms: C_17  and  C_27
                            x       y       z     vdW  Elec       q    Type
                         _______ _______ _______ _____ _____    ______ ____

>  <TORSDO>
F 6

$$$$
=
 OpenBabel10272401493D

 28 30  0  0  1  0  0  0  0  0999 V2000
  188.6910  176.9010  138.7190 C   0  0  1  0  0  3  0  0  0  0  0  0
  185.4320  177.0990  137.0780 O   0  0  0  0  0  0  0  0  0  0  0  0
  187.4070  177.4320  138.2740 N   0  0  0  0  0  0  0  0  0  0  0  0
  186.5260  176.6270  137.4830 C   0  0  0  0  0  0  0  0  0  0  0  0
  187.0680  178.7130  138.5600 O   0  0  0  0  0  1  0  0  0  0  0  0
  186.8760  175.2860  137.1500 N   0  0  0  0  0  1  0  0  0  0  0  0
  189.6010  176.5960  137.5230 C   0  0  2  0  0  3  0  0  0  0  0  0
  190.7800  175.7060  137.9370 C   0  0  2  0  0  3  0  0  0  0  0  0
  191.8140  174.2460  136.3220 N   0  0  0  0  0  0  0  0  0  0  0  0
  192.1060  176.3170  137.4510 C   0  0  0  0  0  3  0  0  0  0  0  0
  189.8650  173.5220  137.4080 O   0  0  0  0  0  0  0  0  0  0  0  0
  190.7420  174.4070  137.2220 C   0  0  0  0  0  0  0  0  0  0  0  0
  191.9930  173.1210  135.4230 C   0  0  0  0  0  1  0  0  0  0  0  0
  192.6690  175.4120  136.3460 C   0  0  0  0  0  3  0  0  0  0  0  0
  190.0600  177.7850  136.9440 O   0  0  0  0  0  0  0  0  0  0  0  0
  189.4360  177.8550  135.7870 O   0  0  0  0  0  1  0  0  0  0  0  0
  189.3560  177.8330  139.7390 C   0  0  0  0  0  2  0  0  0  0  0  0
  188.5100  176.4150  142.7790 C   0  0  0  0  0  2  0  0  0  0  0  0
  190.6250  177.6820  143.1140 C   0  0  0  0  0  0  0  0  0  0  0  0
  189.9990  177.0800  140.9050 C   0  0  2  0  0  3  0  0  0  0  0  0
  188.4200  177.1150  145.2020 C   0  0  1  0  0  3  0  0  0  0  0  0
  189.4250  177.5100  142.2460 C   0  0  1  0  0  3  0  0  0  0  0  0
  191.9050  177.4460  142.4080 C   0  0  0  0  0  2  0  0  0  0  0  0
  189.3080  178.3510  145.1250 C   0  0  0  0  0  2  0  0  0  0  0  0
  190.5870  178.0600  144.3980 C   0  0  0  0  0  3  0  0  0  0  0  0
  187.5260  177.2630  146.2610 O   0  0  0  0  0  1  0  0  0  0  0  0
  187.6320  176.9360  143.9100 C   0  0  0  0  0  2  0  0  0  0  0  0
  191.5150  177.2680  140.9510 C   0  0  0  0  0  2  0  0  0  0  0  0
  1 17  1  1  0  0  0
  2  4  2  0  0  0  0
  3  5  1  0  0  0  0
  3  1  1  0  0  0  0
  4  3  1  0  0  0  0
  6  4  1  0  0  0  0
  7 15  1  1  0  0  0
  7  1  1  0  0  0  0
  8  7  1  6  0  0  0
  9 14  1  0  0  0  0
  9 12  1  0  0  0  0
 10  8  1  0  0  0  0
 12 11  2  0  0  0  0
 12  8  1  0  0  0  0
 13  9  1  0  0  0  0
 14 10  2  0  0  0  0
 16 15  1  0  0  0  0
 18 27  1  0  0  0  0
 19 25  2  0  0  0  0
 20 17  1  6  0  0  0
 20 28  1  0  0  0  0
 20 22  1  0  0  0  0
 21 26  1  1  0  0  0
 22 18  1  1  0  0  0
 22 19  1  0  0  0  0
 23 19  1  0  0  0  0
 24 21  1  0  0  0  0
 25 24  1  0  0  0  0
 27 21  1  0  0  0  0
 28 23  1  0  0  0  0
M  END
>  <MODEL>
9

>  <REMARK>
 VINA RESULT:      -7.1      2.033      2.516
  Name = 
  6 active torsions:
  status: ('A' for Active; 'I' for Inactive)
    1  A    between atoms: O_1  and  C_2
    2  A    between atoms: C_2  and  C_3
    3  A    between atoms: C_2  and  C_27
    4  A    between atoms: C_10  and  C_17
    5  A    between atoms: N_16  and  C_27
    6  A    between atoms: C_17  and  C_27
                            x       y       z     vdW  Elec       q    Type
                         _______ _______ _______ _____ _____    ______ ____

>  <TORSDO>
F 6

$$$$
