=
 OpenBabel10272401043D

 27 31  0  0  0  0  0  0  0  0999 V2000
  187.5060  179.1380  141.2850 C   0  0  0  0  0  2  0  0  0  0  0  0
  187.7820  177.9220  143.4190 C   0  0  0  0  0  0  0  0  0  0  0  0
  189.9980  177.8690  142.1890 N   0  0  0  0  0  2  0  0  0  0  0  0
  189.6920  176.7620  147.2970 C   0  0  0  0  0  3  0  0  0  0  0  0
  192.0990  176.5640  147.1270 O   0  0  0  0  0  1  0  0  0  0  0  0
  187.3530  177.6530  144.6400 O   0  0  0  0  0  0  0  0  0  0  0  0
  190.8150  177.1970  145.1680 C   0  0  0  0  0  0  0  0  0  0  0  0
  190.1340  176.1030  139.1670 C   0  0  0  0  0  3  0  0  0  0  0  0
  191.9690  177.2740  144.3960 O   0  0  0  0  0  1  0  0  0  0  0  0
  189.0630  176.0660  138.3780 C   0  0  0  0  0  3  0  0  0  0  0  0
  189.5600  177.4720  144.6230 C   0  0  0  0  0  0  0  0  0  0  0  0
  186.9370  178.3110  142.3400 N   0  0  0  0  0  0  0  0  0  0  0  0
  190.8750  176.8410  146.5290 C   0  0  0  0  0  0  0  0  0  0  0  0
  188.4100  177.3820  145.3710 C   0  0  0  0  0  0  0  0  0  0  0  0
  188.3860  178.3300  140.3900 C   0  0  0  0  0  0  0  0  0  0  0  0
  189.1630  177.8180  143.3530 C   0  0  0  0  0  0  0  0  0  0  0  0
  190.5900  177.3580  139.8290 C   0  0  0  0  0  2  0  0  0  0  0  0
  188.4380  177.0320  146.7190 C   0  0  0  0  0  3  0  0  0  0  0  0
  188.1720  177.2140  138.1320 C   0  0  0  0  0  3  0  0  0  0  0  0
  187.8930  178.1950  138.9990 C   0  0  0  0  0  3  0  0  0  0  0  0
  189.5820  177.8550  140.8110 C   0  0  0  0  0  0  0  0  0  0  0  0
  182.7040  178.3060  142.6530 C   0  0  0  0  0  2  0  0  0  0  0  0
  185.4950  178.1180  142.4400 C   0  0  0  0  0  3  0  0  0  0  0  0
  184.7860  178.6070  141.1760 C   0  0  0  0  0  2  0  0  0  0  0  0
  183.2810  178.3140  141.2310 C   0  0  0  0  0  2  0  0  0  0  0  0
  183.4850  179.2390  143.5750 C   0  0  0  0  0  2  0  0  0  0  0  0
  184.9440  178.7860  143.7110 C   0  0  0  0  0  2  0  0  0  0  0  0
  1 12  1  0  0  0  0
  2  6  1  0  0  0  0
  3 16  1  0  0  0  0
  6 14  1  0  0  0  0
  7 13  1  0  0  0  0
  8 17  1  0  0  0  0
  9  7  1  0  0  0  0
 10  8  2  0  0  0  0
 11  7  2  0  0  0  0
 11 14  1  0  0  0  0
 12 23  1  0  0  0  0
 12  2  1  0  0  0  0
 13  5  1  0  0  0  0
 13  4  2  0  0  0  0
 14 18  2  0  0  0  0
 15 21  2  0  0  0  0
 15  1  1  0  0  0  0
 16  2  2  0  0  0  0
 16 11  1  0  0  0  0
 17 21  1  0  0  0  0
 18  4  1  0  0  0  0
 19 10  1  0  0  0  0
 19 20  2  0  0  0  0
 20 15  1  0  0  0  0
 21  3  1  0  0  0  0
 22 26  1  0  0  0  0
 23 27  1  0  0  0  0
 24 25  1  0  0  0  0
 24 23  1  0  0  0  0
 25 22  1  0  0  0  0
 26 27  1  0  0  0  0
M  END
>  <MODEL>
1

>  <REMARK>
 VINA RESULT:      -9.2      0.000      0.000
  Name = 
  1 active torsions:
  status: ('A' for Active; 'I' for Inactive)
    1  A    between atoms: C_9  and  N_15
                            x       y       z     vdW  Elec       q    Type
                         _______ _______ _______ _____ _____    ______ ____

>  <TORSDO>
F 1

$$$$
=
 OpenBabel10272401043D

 27 31  0  0  0  0  0  0  0  0999 V2000
  186.9400  179.2110  141.4630 C   0  0  0  0  0  2  0  0  0  0  0  0
  188.5270  177.6390  140.4030 C   0  0  0  0  0  0  0  0  0  0  0  0
  186.8480  178.3660  138.6480 N   0  0  0  0  0  2  0  0  0  0  0  0
  191.3720  176.0940  137.3130 C   0  0  0  0  0  3  0  0  0  0  0  0
  190.5960  176.4890  135.0540 O   0  0  0  0  0  1  0  0  0  0  0  0
  189.6900  177.0120  140.4210 O   0  0  0  0  0  0  0  0  0  0  0  0
  189.2470  177.2410  136.9240 C   0  0  0  0  0  0  0  0  0  0  0  0
  183.5100  177.4060  139.1010 C   0  0  0  0  0  3  0  0  0  0  0  0
  188.2780  177.7490  136.0650 O   0  0  0  0  0  1  0  0  0  0  0  0
  183.0140  177.3080  140.3320 C   0  0  0  0  0  3  0  0  0  0  0  0
  189.1080  177.3410  138.3090 C   0  0  0  0  0  0  0  0  0  0  0  0
  187.8260  178.0610  141.5710 N   0  0  0  0  0  0  0  0  0  0  0  0
  190.4020  176.6100  136.4250 C   0  0  0  0  0  0  0  0  0  0  0  0
  190.0490  176.8280  139.1710 C   0  0  0  0  0  0  0  0  0  0  0  0
  185.6760  178.8460  140.7570 C   0  0  0  0  0  0  0  0  0  0  0  0
  188.1130  177.8680  139.1000 C   0  0  0  0  0  0  0  0  0  0  0  0
  184.3690  178.5490  138.6790 C   0  0  0  0  0  2  0  0  0  0  0  0
  191.2010  176.1990  138.7060 C   0  0  0  0  0  3  0  0  0  0  0  0
  183.3130  178.2500  141.4260 C   0  0  0  0  0  3  0  0  0  0  0  0
  184.4590  178.9210  141.5970 C   0  0  0  0  0  3  0  0  0  0  0  0
  185.6580  178.5700  139.4320 C   0  0  0  0  0  0  0  0  0  0  0  0
  188.9500  177.0480  145.5370 C   0  0  0  0  0  2  0  0  0  0  0  0
  188.2040  177.5300  142.8760 C   0  0  0  0  0  3  0  0  0  0  0  0
  187.0990  177.7690  143.9060 C   0  0  0  0  0  2  0  0  0  0  0  0
  187.4440  177.1240  145.2550 C   0  0  0  0  0  2  0  0  0  0  0  0
  189.7020  178.1860  144.8530 C   0  0  0  0  0  2  0  0  0  0  0  0
  189.5550  178.1070  143.3280 C   0  0  0  0  0  2  0  0  0  0  0  0
  1 12  1  0  0  0  0
  2  6  1  0  0  0  0
  2 12  1  0  0  0  0
  3 16  1  0  0  0  0
  3 21  1  0  0  0  0
  4 18  1  0  0  0  0
  5 13  1  0  0  0  0
  7 11  2  0  0  0  0
  8 10  2  0  0  0  0
  9  7  1  0  0  0  0
 10 19  1  0  0  0  0
 11 16  1  0  0  0  0
 11 14  1  0  0  0  0
 12 23  1  0  0  0  0
 13  7  1  0  0  0  0
 13  4  2  0  0  0  0
 14  6  1  0  0  0  0
 15  1  1  0  0  0  0
 15 20  1  0  0  0  0
 16  2  2  0  0  0  0
 17  8  1  0  0  0  0
 17 21  1  0  0  0  0
 18 14  2  0  0  0  0
 19 20  2  0  0  0  0
 21 15  2  0  0  0  0
 23 27  1  0  0  0  0
 23 24  1  0  0  0  0
 24 25  1  0  0  0  0
 25 22  1  0  0  0  0
 26 22  1  0  0  0  0
 27 26  1  0  0  0  0
M  END
>  <MODEL>
2

>  <REMARK>
 VINA RESULT:      -9.1      2.983      6.429
  Name = 
  1 active torsions:
  status: ('A' for Active; 'I' for Inactive)
    1  A    between atoms: C_9  and  N_15
                            x       y       z     vdW  Elec       q    Type
                         _______ _______ _______ _____ _____    ______ ____

>  <TORSDO>
F 1

$$$$
=
 OpenBabel10272401043D

 27 31  0  0  0  0  0  0  0  0999 V2000
  187.7420  176.7770  143.1230 C   0  0  0  0  0  2  0  0  0  0  0  0
  187.3940  177.9460  140.9720 C   0  0  0  0  0  0  0  0  0  0  0  0
  189.7600  177.0370  141.0010 N   0  0  0  0  0  2  0  0  0  0  0  0
  187.4820  178.5580  136.5400 C   0  0  0  0  0  3  0  0  0  0  0  0
  189.5450  177.7870  135.5350 O   0  0  0  0  0  1  0  0  0  0  0  0
  186.5680  178.4520  140.0730 O   0  0  0  0  0  0  0  0  0  0  0  0
  189.2300  177.5600  137.9290 C   0  0  0  0  0  0  0  0  0  0  0  0
  191.9830  178.3770  143.3540 C   0  0  0  0  0  3  0  0  0  0  0  0
  190.4860  176.9810  138.0730 O   0  0  0  0  0  1  0  0  0  0  0  0
  191.5280  178.7690  144.5410 C   0  0  0  0  0  3  0  0  0  0  0  0
  188.3940  177.7560  139.0290 C   0  0  0  0  0  0  0  0  0  0  0  0
  187.0960  177.8370  142.3620 N   0  0  0  0  0  0  0  0  0  0  0  0
  188.7570  177.9650  136.6660 C   0  0  0  0  0  0  0  0  0  0  0  0
  187.1570  178.3430  138.9040 C   0  0  0  0  0  0  0  0  0  0  0  0
  189.1730  177.1070  143.3890 C   0  0  0  0  0  0  0  0  0  0  0  0
  188.5590  177.4970  140.3700 C   0  0  0  0  0  0  0  0  0  0  0  0
  191.5550  177.0970  142.7210 C   0  0  0  0  0  2  0  0  0  0  0  0
  186.6630  178.7550  137.6680 C   0  0  0  0  0  3  0  0  0  0  0  0
  190.5070  178.0450  145.3200 C   0  0  0  0  0  3  0  0  0  0  0  0
  189.5010  177.3180  144.8180 C   0  0  0  0  0  3  0  0  0  0  0  0
  190.0970  177.1080  142.3990 C   0  0  0  0  0  0  0  0  0  0  0  0
  183.5930  179.5170  144.0740 C   0  0  0  0  0  2  0  0  0  0  0  0
  185.9770  178.5850  142.9260 C   0  0  0  0  0  3  0  0  0  0  0  0
  185.8400  178.3200  144.4260 C   0  0  0  0  0  2  0  0  0  0  0  0
  184.7320  179.1800  145.0470 C   0  0  0  0  0  2  0  0  0  0  0  0
  183.4180  178.4240  143.0230 C   0  0  0  0  0  2  0  0  0  0  0  0
  184.6790  178.2800  142.1610 C   0  0  0  0  0  2  0  0  0  0  0  0
  1 15  1  0  0  0  0
  2 12  1  0  0  0  0
  3 21  1  0  0  0  0
  4 13  2  0  0  0  0
  4 18  1  0  0  0  0
  5 13  1  0  0  0  0
  6  2  1  0  0  0  0
  7  9  1  0  0  0  0
  7 11  2  0  0  0  0
  8 10  2  0  0  0  0
 10 19  1  0  0  0  0
 11 16  1  0  0  0  0
 12 23  1  0  0  0  0
 12  1  1  0  0  0  0
 13  7  1  0  0  0  0
 14 11  1  0  0  0  0
 14  6  1  0  0  0  0
 15 20  1  0  0  0  0
 16  2  2  0  0  0  0
 16  3  1  0  0  0  0
 17  8  1  0  0  0  0
 18 14  2  0  0  0  0
 20 19  2  0  0  0  0
 21 17  1  0  0  0  0
 21 15  2  0  0  0  0
 22 25  1  0  0  0  0
 23 24  1  0  0  0  0
 24 25  1  0  0  0  0
 26 22  1  0  0  0  0
 27 23  1  0  0  0  0
 27 26  1  0  0  0  0
M  END
>  <MODEL>
3

>  <REMARK>
 VINA RESULT:      -9.0      2.684      5.821
  Name = 
  1 active torsions:
  status: ('A' for Active; 'I' for Inactive)
    1  A    between atoms: C_9  and  N_15
                            x       y       z     vdW  Elec       q    Type
                         _______ _______ _______ _____ _____    ______ ____

>  <TORSDO>
F 1

$$$$
=
 OpenBabel10272401043D

 27 31  0  0  0  0  0  0  0  0999 V2000
  185.2640  179.4850  142.2500 C   0  0  0  0  0  2  0  0  0  0  0  0
  187.2950  178.1180  141.9040 C   0  0  0  0  0  0  0  0  0  0  0  0
  186.2680  178.5920  139.6350 N   0  0  0  0  0  2  0  0  0  0  0  0
  191.2060  176.9130  140.0910 C   0  0  0  0  0  3  0  0  0  0  0  0
  191.2330  177.1680  137.6830 O   0  0  0  0  0  1  0  0  0  0  0  0
  188.4430  177.6500  142.3610 O   0  0  0  0  0  0  0  0  0  0  0  0
  189.2340  177.7650  138.9210 C   0  0  0  0  0  0  0  0  0  0  0  0
  183.1210  177.2090  138.9600 C   0  0  0  0  0  3  0  0  0  0  0  0
  188.5770  178.1280  137.7500 O   0  0  0  0  0  1  0  0  0  0  0  0
  182.2390  177.0660  139.9460 C   0  0  0  0  0  3  0  0  0  0  0  0
  188.6070  177.8680  140.1630 C   0  0  0  0  0  0  0  0  0  0  0  0
  186.1850  178.4620  142.7280 N   0  0  0  0  0  0  0  0  0  0  0  0
  190.5570  177.2830  138.8920 C   0  0  0  0  0  0  0  0  0  0  0  0
  189.2380  177.4960  141.3270 C   0  0  0  0  0  0  0  0  0  0  0  0
  184.3820  178.9460  141.1740 C   0  0  0  0  0  0  0  0  0  0  0  0
  187.3430  178.2710  140.5270 C   0  0  0  0  0  0  0  0  0  0  0  0
  183.9330  178.4480  138.7930 C   0  0  0  0  0  2  0  0  0  0  0  0
  190.5450  177.0160  141.3290 C   0  0  0  0  0  3  0  0  0  0  0  0
  182.0220  178.0550  141.0160 C   0  0  0  0  0  3  0  0  0  0  0  0
  182.9460  178.8740  141.5330 C   0  0  0  0  0  3  0  0  0  0  0  0
  184.8630  178.6500  139.9430 C   0  0  0  0  0  0  0  0  0  0  0  0
  186.3520  177.5880  146.8790 C   0  0  0  0  0  2  0  0  0  0  0  0
  186.1390  178.0060  144.1130 C   0  0  0  0  0  3  0  0  0  0  0  0
  185.2860  178.9410  144.9710 C   0  0  0  0  0  2  0  0  0  0  0  0
  185.1480  178.4130  146.4050 C   0  0  0  0  0  2  0  0  0  0  0  0
  187.6390  178.0390  146.1940 C   0  0  0  0  0  2  0  0  0  0  0  0
  187.5590  177.8330  144.6760 C   0  0  0  0  0  2  0  0  0  0  0  0
  1 12  1  0  0  0  0
  2  6  1  0  0  0  0
  2 12  1  0  0  0  0
  3 21  1  0  0  0  0
  3 16  1  0  0  0  0
  4 18  1  0  0  0  0
  5 13  1  0  0  0  0
  7 11  2  0  0  0  0
  8 10  2  0  0  0  0
  9  7  1  0  0  0  0
 10 19  1  0  0  0  0
 11 16  1  0  0  0  0
 11 14  1  0  0  0  0
 12 23  1  0  0  0  0
 13  7  1  0  0  0  0
 13  4  2  0  0  0  0
 14 18  2  0  0  0  0
 14  6  1  0  0  0  0
 15 20  1  0  0  0  0
 15  1  1  0  0  0  0
 16  2  2  0  0  0  0
 17  8  1  0  0  0  0
 17 21  1  0  0  0  0
 19 20  2  0  0  0  0
 21 15  2  0  0  0  0
 23 27  1  0  0  0  0
 23 24  1  0  0  0  0
 24 25  1  0  0  0  0
 25 22  1  0  0  0  0
 26 22  1  0  0  0  0
 27 26  1  0  0  0  0
M  END
>  <MODEL>
4

>  <REMARK>
 VINA RESULT:      -8.7      2.441      5.448
  Name = 
  1 active torsions:
  status: ('A' for Active; 'I' for Inactive)
    1  A    between atoms: C_9  and  N_15
                            x       y       z     vdW  Elec       q    Type
                         _______ _______ _______ _____ _____    ______ ____

>  <TORSDO>
F 1

$$$$
=
 OpenBabel10272401043D

 27 31  0  0  0  0  0  0  0  0999 V2000
  185.2240  179.4730  141.3270 C   0  0  0  0  0  2  0  0  0  0  0  0
  187.2890  178.2290  141.8750 C   0  0  0  0  0  0  0  0  0  0  0  0
  187.0970  178.3650  139.3510 N   0  0  0  0  0  2  0  0  0  0  0  0
  191.6190  177.1180  141.6750 C   0  0  0  0  0  3  0  0  0  0  0  0
  192.4710  177.0980  139.4090 O   0  0  0  0  0  1  0  0  0  0  0  0
  188.2200  177.9020  142.7530 O   0  0  0  0  0  0  0  0  0  0  0  0
  190.1510  177.6830  139.8030 C   0  0  0  0  0  0  0  0  0  0  0  0
  184.4220  176.6860  137.8350 C   0  0  0  0  0  3  0  0  0  0  0  0
  189.9300  177.8610  138.4420 O   0  0  0  0  0  1  0  0  0  0  0  0
  183.2580  176.5910  138.4730 C   0  0  0  0  0  3  0  0  0  0  0  0
  189.1290  177.8800  140.7330 C   0  0  0  0  0  0  0  0  0  0  0  0
  185.9520  178.5820  142.2200 N   0  0  0  0  0  0  0  0  0  0  0  0
  191.4150  177.3000  140.2900 C   0  0  0  0  0  0  0  0  0  0  0  0
  189.3280  177.6900  142.0800 C   0  0  0  0  0  0  0  0  0  0  0  0
  184.7850  178.7520  140.0960 C   0  0  0  0  0  0  0  0  0  0  0  0
  187.8060  178.2270  140.5890 C   0  0  0  0  0  0  0  0  0  0  0  0
  185.2040  177.9540  137.7920 C   0  0  0  0  0  2  0  0  0  0  0  0
  190.5680  177.3110  142.5910 C   0  0  0  0  0  3  0  0  0  0  0  0
  182.6540  177.6770  139.2650 C   0  0  0  0  0  3  0  0  0  0  0  0
  183.3170  178.6150  139.9520 C   0  0  0  0  0  3  0  0  0  0  0  0
  185.6710  178.3540  139.1530 C   0  0  0  0  0  0  0  0  0  0  0  0
  184.6840  178.2060  146.2540 C   0  0  0  0  0  2  0  0  0  0  0  0
  185.4430  178.2840  143.5540 C   0  0  0  0  0  3  0  0  0  0  0  0
  184.2930  179.2220  143.9260 C   0  0  0  0  0  2  0  0  0  0  0  0
  183.6840  178.8500  145.2840 C   0  0  0  0  0  2  0  0  0  0  0  0
  186.1050  178.7010  145.9980 C   0  0  0  0  0  2  0  0  0  0  0  0
  186.5780  178.3170  144.5900 C   0  0  0  0  0  2  0  0  0  0  0  0
  1 12  1  0  0  0  0
  2 12  1  0  0  0  0
  2  6  1  0  0  0  0
  3 16  1  0  0  0  0
  4 18  1  0  0  0  0
  5 13  1  0  0  0  0
  7 13  1  0  0  0  0
  7 11  2  0  0  0  0
  8 10  2  0  0  0  0
  9  7  1  0  0  0  0
 10 19  1  0  0  0  0
 11 14  1  0  0  0  0
 12 23  1  0  0  0  0
 13  4  2  0  0  0  0
 14 18  2  0  0  0  0
 14  6  1  0  0  0  0
 15  1  1  0  0  0  0
 16 11  1  0  0  0  0
 16  2  2  0  0  0  0
 17  8  1  0  0  0  0
 17 21  1  0  0  0  0
 19 20  2  0  0  0  0
 20 15  1  0  0  0  0
 21  3  1  0  0  0  0
 21 15  2  0  0  0  0
 23 24  1  0  0  0  0
 23 27  1  0  0  0  0
 24 25  1  0  0  0  0
 25 22  1  0  0  0  0
 26 22  1  0  0  0  0
 27 26  1  0  0  0  0
M  END
>  <MODEL>
5

>  <REMARK>
 VINA RESULT:      -8.6      2.508      4.475
  Name = 
  1 active torsions:
  status: ('A' for Active; 'I' for Inactive)
    1  A    between atoms: C_9  and  N_15
                            x       y       z     vdW  Elec       q    Type
                         _______ _______ _______ _____ _____    ______ ____

>  <TORSDO>
F 1

$$$$
=
 OpenBabel10272401043D

 27 31  0  0  0  0  0  0  0  0999 V2000
  190.2270  178.6040  143.7680 C   0  0  0  0  0  2  0  0  0  0  0  0
  187.9330  178.0350  143.0420 C   0  0  0  0  0  0  0  0  0  0  0  0
  187.8950  178.4130  145.5480 N   0  0  0  0  0  2  0  0  0  0  0  0
  183.4850  178.4130  142.7270 C   0  0  0  0  0  3  0  0  0  0  0  0
  182.4450  178.9500  144.8460 O   0  0  0  0  0  1  0  0  0  0  0  0
  187.0430  177.9190  142.0730 O   0  0  0  0  0  0  0  0  0  0  0  0
  184.8550  178.7020  144.7330 C   0  0  0  0  0  0  0  0  0  0  0  0
  189.6790  176.1630  147.5550 C   0  0  0  0  0  3  0  0  0  0  0  0
  184.9800  178.9660  146.0920 O   0  0  0  0  0  1  0  0  0  0  0  0
  190.8030  175.6200  147.0960 C   0  0  0  0  0  3  0  0  0  0  0  0
  185.9740  178.4420  143.9410 C   0  0  0  0  0  0  0  0  0  0  0  0
  189.3400  177.8920  142.8590 N   0  0  0  0  0  0  0  0  0  0  0  0
  183.5930  178.6900  144.1080 C   0  0  0  0  0  0  0  0  0  0  0  0
  185.8640  178.1610  142.6000 C   0  0  0  0  0  0  0  0  0  0  0  0
  190.2670  177.9380  145.1040 C   0  0  0  0  0  0  0  0  0  0  0  0
  187.3150  178.3590  144.2390 C   0  0  0  0  0  0  0  0  0  0  0  0
  189.3670  177.6100  147.3840 C   0  0  0  0  0  2  0  0  0  0  0  0
  184.6300  178.1420  141.9550 C   0  0  0  0  0  3  0  0  0  0  0  0
  191.8160  176.3460  146.3100 C   0  0  0  0  0  3  0  0  0  0  0  0
  191.5810  177.3550  145.4610 C   0  0  0  0  0  3  0  0  0  0  0  0
  189.2060  177.9680  145.9440 C   0  0  0  0  0  0  0  0  0  0  0  0
  190.8690  176.6380  139.1030 C   0  0  0  0  0  2  0  0  0  0  0  0
  189.8550  177.2830  141.6380 C   0  0  0  0  0  3  0  0  0  0  0  0
  191.3260  177.6440  141.4230 C   0  0  0  0  0  2  0  0  0  0  0  0
  191.9050  176.9250  140.1970 C   0  0  0  0  0  2  0  0  0  0  0  0
  189.7540  177.6800  139.1050 C   0  0  0  0  0  2  0  0  0  0  0  0
  188.9820  177.6600  140.4310 C   0  0  0  0  0  2  0  0  0  0  0  0
  1 15  1  0  0  0  0
  2 16  2  0  0  0  0
  3 21  1  0  0  0  0
  4 13  1  0  0  0  0
  6 14  1  0  0  0  0
  6  2  1  0  0  0  0
  7  9  1  0  0  0  0
 10  8  2  0  0  0  0
 11 16  1  0  0  0  0
 11  7  1  0  0  0  0
 12  2  1  0  0  0  0
 12  1  1  0  0  0  0
 13  7  2  0  0  0  0
 13  5  1  0  0  0  0
 14 11  2  0  0  0  0
 15 20  1  0  0  0  0
 15 21  2  0  0  0  0
 16  3  1  0  0  0  0
 17  8  1  0  0  0  0
 18 14  1  0  0  0  0
 18  4  2  0  0  0  0
 19 10  1  0  0  0  0
 20 19  2  0  0  0  0
 21 17  1  0  0  0  0
 22 26  1  0  0  0  0
 22 25  1  0  0  0  0
 23 12  1  0  0  0  0
 24 23  1  0  0  0  0
 25 24  1  0  0  0  0
 26 27  1  0  0  0  0
 27 23  1  0  0  0  0
M  END
>  <MODEL>
6

>  <REMARK>
 VINA RESULT:      -8.5      2.186      6.519
  Name = 
  1 active torsions:
  status: ('A' for Active; 'I' for Inactive)
    1  A    between atoms: C_9  and  N_15
                            x       y       z     vdW  Elec       q    Type
                         _______ _______ _______ _____ _____    ______ ____

>  <TORSDO>
F 1

$$$$
=
 OpenBabel10272401043D

 27 31  0  0  0  0  0  0  0  0999 V2000
  186.8460  176.6670  145.3140 C   0  0  0  0  0  2  0  0  0  0  0  0
  187.7630  177.7050  143.2660 C   0  0  0  0  0  0  0  0  0  0  0  0
  189.6980  176.7670  144.6080 N   0  0  0  0  0  2  0  0  0  0  0  0
  190.2490  178.0380  139.5600 C   0  0  0  0  0  3  0  0  0  0  0  0
  192.4910  177.1780  139.8630 O   0  0  0  0  0  1  0  0  0  0  0  0
  187.5750  178.1650  142.0420 O   0  0  0  0  0  0  0  0  0  0  0  0
  190.9280  177.1050  141.7150 C   0  0  0  0  0  0  0  0  0  0  0  0
  190.3640  178.2190  147.7260 C   0  0  0  0  0  3  0  0  0  0  0  0
  191.8810  176.5180  142.5400 O   0  0  0  0  0  1  0  0  0  0  0  0
  189.3600  178.6900  148.4600 C   0  0  0  0  0  3  0  0  0  0  0  0
  189.6410  177.3810  142.1800 C   0  0  0  0  0  0  0  0  0  0  0  0
  186.7590  177.6870  144.2780 N   0  0  0  0  0  0  0  0  0  0  0  0
  191.2280  177.4370  140.3810 C   0  0  0  0  0  0  0  0  0  0  0  0
  188.6940  177.9760  141.3810 C   0  0  0  0  0  0  0  0  0  0  0  0
  187.9220  176.9930  146.2950 C   0  0  0  0  0  0  0  0  0  0  0  0
  189.0470  177.2030  143.4080 C   0  0  0  0  0  0  0  0  0  0  0  0
  190.2860  176.9080  147.0200 C   0  0  0  0  0  2  0  0  0  0  0  0
  188.9630  178.3170  140.0570 C   0  0  0  0  0  3  0  0  0  0  0  0
  188.0490  178.0300  148.5970 C   0  0  0  0  0  3  0  0  0  0  0  0
  187.4390  177.2880  147.6640 C   0  0  0  0  0  3  0  0  0  0  0  0
  189.2320  176.9200  145.9620 C   0  0  0  0  0  0  0  0  0  0  0  0
  182.9710  179.5200  143.7210 C   0  0  0  0  0  2  0  0  0  0  0  0
  185.5490  178.4840  144.1150 C   0  0  0  0  0  3  0  0  0  0  0  0
  184.5790  178.2540  145.2750 C   0  0  0  0  0  2  0  0  0  0  0  0
  183.3490  179.1630  145.1650 C   0  0  0  0  0  2  0  0  0  0  0  0
  183.3760  178.4130  142.7510 C   0  0  0  0  0  2  0  0  0  0  0  0
  184.8960  178.2080  142.7500 C   0  0  0  0  0  2  0  0  0  0  0  0
  1 15  1  0  0  0  0
  2 16  2  0  0  0  0
  2 12  1  0  0  0  0
  3 21  1  0  0  0  0
  4 18  2  0  0  0  0
  4 13  1  0  0  0  0
  5 13  1  0  0  0  0
  6  2  1  0  0  0  0
  7 11  1  0  0  0  0
  7  9  1  0  0  0  0
  8 10  2  0  0  0  0
 10 19  1  0  0  0  0
 11 16  1  0  0  0  0
 12  1  1  0  0  0  0
 13  7  2  0  0  0  0
 14  6  1  0  0  0  0
 14 11  2  0  0  0  0
 15 20  1  0  0  0  0
 16  3  1  0  0  0  0
 17  8  1  0  0  0  0
 18 14  1  0  0  0  0
 20 19  2  0  0  0  0
 21 15  2  0  0  0  0
 21 17  1  0  0  0  0
 22 25  1  0  0  0  0
 23 12  1  0  0  0  0
 23 24  1  0  0  0  0
 25 24  1  0  0  0  0
 26 22  1  0  0  0  0
 27 26  1  0  0  0  0
 27 23  1  0  0  0  0
M  END
>  <MODEL>
7

>  <REMARK>
 VINA RESULT:      -8.5      1.743      5.478
  Name = 
  1 active torsions:
  status: ('A' for Active; 'I' for Inactive)
    1  A    between atoms: C_9  and  N_15
                            x       y       z     vdW  Elec       q    Type
                         _______ _______ _______ _____ _____    ______ ____

>  <TORSDO>
F 1

$$$$
=
 OpenBabel10272401043D

 27 31  0  0  0  0  0  0  0  0999 V2000
  186.3780  179.2090  140.7970 C   0  0  0  0  0  2  0  0  0  0  0  0
  187.0100  178.0390  142.8810 C   0  0  0  0  0  0  0  0  0  0  0  0
  189.0180  178.0330  141.3350 N   0  0  0  0  0  2  0  0  0  0  0  0
  189.5140  177.0050  146.4440 C   0  0  0  0  0  3  0  0  0  0  0  0
  191.8730  176.8790  145.9180 O   0  0  0  0  0  1  0  0  0  0  0  0
  186.7760  177.7790  144.1560 O   0  0  0  0  0  0  0  0  0  0  0  0
  190.2920  177.4370  144.1660 C   0  0  0  0  0  0  0  0  0  0  0  0
  188.7590  176.2200  138.3480 C   0  0  0  0  0  3  0  0  0  0  0  0
  191.3140  177.5370  143.2280 O   0  0  0  0  0  1  0  0  0  0  0  0
  187.5840  176.1370  137.7280 C   0  0  0  0  0  3  0  0  0  0  0  0
  188.9610  177.6640  143.8110 C   0  0  0  0  0  0  0  0  0  0  0  0
  186.0000  178.3830  141.9360 N   0  0  0  0  0  0  0  0  0  0  0  0
  190.5650  177.1080  145.5070 C   0  0  0  0  0  0  0  0  0  0  0  0
  187.9380  177.5530  144.7240 C   0  0  0  0  0  0  0  0  0  0  0  0
  187.1410  178.4130  139.7910 C   0  0  0  0  0  0  0  0  0  0  0  0
  188.3680  177.9770  142.6100 C   0  0  0  0  0  0  0  0  0  0  0  0
  189.2680  177.5000  138.9190 C   0  0  0  0  0  2  0  0  0  0  0  0
  188.1790  177.2270  146.0570 C   0  0  0  0  0  3  0  0  0  0  0  0
  186.6290  177.2520  137.6050 C   0  0  0  0  0  3  0  0  0  0  0  0
  186.4510  178.2400  138.4920 C   0  0  0  0  0  3  0  0  0  0  0  0
  188.4010  177.9820  140.0350 C   0  0  0  0  0  0  0  0  0  0  0  0
  181.8690  178.2530  142.9030 C   0  0  0  0  0  2  0  0  0  0  0  0
  184.5970  178.1480  142.2540 C   0  0  0  0  0  3  0  0  0  0  0  0
  183.6880  178.6500  141.1300 C   0  0  0  0  0  2  0  0  0  0  0  0
  182.2170  178.3140  141.4090 C   0  0  0  0  0  2  0  0  0  0  0  0
  182.7620  179.1830  143.7200 C   0  0  0  0  0  2  0  0  0  0  0  0
  184.2350  178.7680  143.6130 C   0  0  0  0  0  2  0  0  0  0  0  0
  1 12  1  0  0  0  0
  2  6  1  0  0  0  0
  3 16  1  0  0  0  0
  6 14  1  0  0  0  0
  7 13  1  0  0  0  0
  8 17  1  0  0  0  0
  9  7  1  0  0  0  0
 10  8  2  0  0  0  0
 11  7  2  0  0  0  0
 11 14  1  0  0  0  0
 12 23  1  0  0  0  0
 12  2  1  0  0  0  0
 13  5  1  0  0  0  0
 13  4  2  0  0  0  0
 14 18  2  0  0  0  0
 15 21  2  0  0  0  0
 15  1  1  0  0  0  0
 16  2  2  0  0  0  0
 16 11  1  0  0  0  0
 17 21  1  0  0  0  0
 18  4  1  0  0  0  0
 19 10  1  0  0  0  0
 19 20  2  0  0  0  0
 20 15  1  0  0  0  0
 21  3  1  0  0  0  0
 22 26  1  0  0  0  0
 23 27  1  0  0  0  0
 24 25  1  0  0  0  0
 24 23  1  0  0  0  0
 25 22  1  0  0  0  0
 27 26  1  0  0  0  0
M  END
>  <MODEL>
8

>  <REMARK>
 VINA RESULT:      -8.4      1.016      1.184
  Name = 
  1 active torsions:
  status: ('A' for Active; 'I' for Inactive)
    1  A    between atoms: C_9  and  N_15
                            x       y       z     vdW  Elec       q    Type
                         _______ _______ _______ _____ _____    ______ ____

>  <TORSDO>
F 1

$$$$
=
 OpenBabel10272401043D

 27 31  0  0  0  0  0  0  0  0999 V2000
  185.2190  179.1240  139.9700 C   0  0  0  0  0  2  0  0  0  0  0  0
  185.6210  178.0880  142.1790 C   0  0  0  0  0  0  0  0  0  0  0  0
  187.8570  178.3530  141.0130 N   0  0  0  0  0  2  0  0  0  0  0  0
  187.5600  177.4810  146.1660 C   0  0  0  0  0  3  0  0  0  0  0  0
  189.9690  177.6920  146.0720 O   0  0  0  0  0  1  0  0  0  0  0  0
  185.2000  177.8150  143.4010 O   0  0  0  0  0  0  0  0  0  0  0  0
  188.6680  177.9900  144.0470 C   0  0  0  0  0  0  0  0  0  0  0  0
  188.4000  176.4800  138.1030 C   0  0  0  0  0  3  0  0  0  0  0  0
  189.8190  178.2230  143.3020 O   0  0  0  0  0  1  0  0  0  0  0  0
  187.3810  176.2180  137.2890 C   0  0  0  0  0  3  0  0  0  0  0  0
  187.4050  178.0150  143.4530 C   0  0  0  0  0  0  0  0  0  0  0  0
  184.7610  178.2680  141.0560 N   0  0  0  0  0  0  0  0  0  0  0  0
  188.7380  177.7220  145.4270 C   0  0  0  0  0  0  0  0  0  0  0  0
  186.2600  177.7690  144.1740 C   0  0  0  0  0  0  0  0  0  0  0  0
  186.2550  178.4340  139.1480 C   0  0  0  0  0  0  0  0  0  0  0  0
  187.0010  178.2210  142.1550 C   0  0  0  0  0  0  0  0  0  0  0  0
  188.6120  177.8280  138.7030 C   0  0  0  0  0  2  0  0  0  0  0  0
  186.2990  177.5000  145.5410 C   0  0  0  0  0  3  0  0  0  0  0  0
  186.3160  177.1800  136.9540 C   0  0  0  0  0  3  0  0  0  0  0  0
  185.8430  178.1430  137.7550 C   0  0  0  0  0  3  0  0  0  0  0  0
  187.4990  178.1950  139.6280 C   0  0  0  0  0  0  0  0  0  0  0  0
  180.6020  177.4310  140.9230 C   0  0  0  0  0  2  0  0  0  0  0  0
  183.3710  177.8360  141.1300 C   0  0  0  0  0  3  0  0  0  0  0  0
  182.9040  177.2570  139.7930 C   0  0  0  0  0  2  0  0  0  0  0  0
  181.4750  176.7060  139.8900 C   0  0  0  0  0  2  0  0  0  0  0  0
  181.0300  178.8870  141.0890 C   0  0  0  0  0  2  0  0  0  0  0  0
  182.4680  178.9830  141.6130 C   0  0  0  0  0  2  0  0  0  0  0  0
  1 12  1  0  0  0  0
  2  6  1  0  0  0  0
  3 16  1  0  0  0  0
  6 14  1  0  0  0  0
  7 13  1  0  0  0  0
  8 17  1  0  0  0  0
  9  7  1  0  0  0  0
 10  8  2  0  0  0  0
 11  7  2  0  0  0  0
 11 14  1  0  0  0  0
 12 23  1  0  0  0  0
 12  2  1  0  0  0  0
 13  5  1  0  0  0  0
 13  4  2  0  0  0  0
 14 18  2  0  0  0  0
 15 21  2  0  0  0  0
 15  1  1  0  0  0  0
 16  2  2  0  0  0  0
 16 11  1  0  0  0  0
 17 21  1  0  0  0  0
 18  4  1  0  0  0  0
 19 10  1  0  0  0  0
 19 20  2  0  0  0  0
 20 15  1  0  0  0  0
 21  3  1  0  0  0  0
 22 26  1  0  0  0  0
 23 27  1  0  0  0  0
 24 25  1  0  0  0  0
 24 23  1  0  0  0  0
 25 22  1  0  0  0  0
 26 27  1  0  0  0  0
M  END
>  <MODEL>
9

>  <REMARK>
 VINA RESULT:      -8.3      1.785      2.572
  Name = 
  1 active torsions:
  status: ('A' for Active; 'I' for Inactive)
    1  A    between atoms: C_9  and  N_15
                            x       y       z     vdW  Elec       q    Type
                         _______ _______ _______ _____ _____    ______ ____

>  <TORSDO>
F 1

$$$$
