=
 OpenBabel10272400383D

 31 34  0  0  1  0  0  0  0  0999 V2000
  188.2350  177.6020  143.9000 C   0  0  0  0  0  0  0  0  0  0  0  0
  188.7420  177.4590  145.2010 C   0  0  0  0  0  0  0  0  0  0  0  0
  188.5520  177.5260  147.6030 C   0  0  0  0  0  3  0  0  0  0  0  0
  186.9090  177.9350  143.5070 N   0  0  0  0  0  0  0  0  0  0  0  0
  187.9710  177.6810  146.3430 C   0  0  0  0  0  3  0  0  0  0  0  0
  188.2820  177.5920  141.5380 C   0  0  1  0  0  3  0  0  0  0  0  0
  190.8710  176.8750  144.2270 N   0  0  0  0  0  0  0  0  0  0  0  0
  189.8580  177.1620  147.7150 N   0  0  0  0  0  0  0  0  0  0  0  0
  189.0400  177.4040  142.8100 C   0  0  0  0  0  0  0  0  0  0  0  0
  192.0040  176.5660  146.8010 N   0  0  0  0  0  1  0  0  0  0  0  0
  186.8400  177.9020  142.0460 C   0  0  2  0  0  3  0  0  0  0  0  0
  190.3720  177.0220  142.9680 C   0  0  0  0  0  3  0  0  0  0  0  0
  190.1020  177.0870  145.3380 C   0  0  0  0  0  0  0  0  0  0  0  0
  190.6400  176.9400  146.6250 C   0  0  0  0  0  0  0  0  0  0  0  0
  185.6290  178.9310  140.2270 O   0  0  0  0  0  1  0  0  0  0  0  0
  186.1790  179.1680  141.4900 C   0  0  0  0  0  2  0  0  0  0  0  0
  188.9050  178.7030  140.6870 C   0  0  0  0  0  2  0  0  0  0  0  0
  188.3720  176.5690  138.1160 O   0  0  0  0  0  0  0  0  0  0  0  0
  187.5750  177.9720  136.4200 N   0  0  0  0  0  2  0  0  0  0  0  0
  188.2520  177.7940  137.5030 C   0  0  0  0  0  0  0  0  0  0  0  0
  189.1910  176.6500  139.2670 C   0  0  2  0  0  3  0  0  0  0  0  0
  188.9740  178.8680  138.2070 C   0  0  0  0  0  2  0  0  0  0  0  0
  189.5460  178.1430  139.4260 C   0  0  1  0  0  3  0  0  0  0  0  0
  190.4050  175.8750  139.0480 N   0  0  0  0  0  2  0  0  0  0  0  0
  191.5380  176.7880  139.1040 C   0  0  0  0  0  2  0  0  0  0  0  0
  192.5140  176.4730  138.0180 C   0  0  0  0  0  0  0  0  0  0  0  0
  193.7130  176.5760  138.2200 O   0  0  0  0  0  0  0  0  0  0  0  0
  192.0220  176.0510  136.6780 C   0  0  0  0  0  1  0  0  0  0  0  0
  185.7270  177.8200  144.3520 C   0  0  0  0  0  2  0  0  0  0  0  0
  185.1770  179.1970  144.6750 C   0  0  0  0  0  2  0  0  0  0  0  0
  183.6710  179.1190  144.8090 C   0  0  0  0  0  1  0  0  0  0  0  0
  1  2  1  0  0  0  0
  2 13  2  0  0  0  0
  2  5  1  0  0  0  0
  3  8  1  0  0  0  0
  4  1  1  0  0  0  0
  4 29  1  0  0  0  0
  5  3  2  0  0  0  0
  6 17  1  1  0  0  0
  6 11  1  0  0  0  0
  6  9  1  0  0  0  0
  7 13  1  0  0  0  0
  9 12  1  0  0  0  0
  9  1  2  0  0  0  0
 11 16  1  6  0  0  0
 11  4  1  0  0  0  0
 12  7  2  0  0  0  0
 13 14  1  0  0  0  0
 14 10  1  0  0  0  0
 14  8  2  0  0  0  0
 15 16  1  0  0  0  0
 18 21  1  0  0  0  0
 19 20  2  0  0  0  0
 20 18  1  0  0  0  0
 20 22  1  0  0  0  0
 21 24  1  6  0  0  0
 21 23  1  0  0  0  0
 22 23  1  0  0  0  0
 23 17  1  1  0  0  0
 24 25  1  0  0  0  0
 26 27  2  0  0  0  0
 26 25  1  0  0  0  0
 28 26  1  0  0  0  0
 29 30  1  0  0  0  0
 30 31  1  0  0  0  0
M  END
>  <MODEL>
1

>  <REMARK>
 VINA RESULT:      -8.3      0.000      0.000
  Name = 
  8 active torsions:
  status: ('A' for Active; 'I' for Inactive)
    1  A    between atoms: C_1  and  C_24
    2  A    between atoms: C_2  and  C_25
    3  A    between atoms: N_6  and  C_19
    4  A    between atoms: N_6  and  C_24
    5  A    between atoms: N_12  and  C_25
    6  A    between atoms: C_15  and  C_20
    7  A    between atoms: C_20  and  C_23
    8  A    between atoms: C_27  and  C_28
                            x       y       z     vdW  Elec       q    Type
                         _______ _______ _______ _____ _____    ______ ____

>  <TORSDO>
F 8

$$$$
=
 OpenBabel10272400383D

 31 34  0  0  1  0  0  0  0  0999 V2000
  188.0950  177.5130  144.6880 C   0  0  0  0  0  0  0  0  0  0  0  0
  188.6260  177.5560  145.9860 C   0  0  0  0  0  0  0  0  0  0  0  0
  188.4840  177.9800  148.3550 C   0  0  0  0  0  3  0  0  0  0  0  0
  186.7660  177.8040  144.2730 N   0  0  0  0  0  0  0  0  0  0  0  0
  187.8800  177.9560  147.0960 C   0  0  0  0  0  3  0  0  0  0  0  0
  188.0960  177.1540  142.3520 C   0  0  1  0  0  3  0  0  0  0  0  0
  190.7290  176.8040  145.0730 N   0  0  0  0  0  0  0  0  0  0  0  0
  189.7870  177.6180  148.4970 N   0  0  0  0  0  0  0  0  0  0  0  0
  188.8770  177.1450  143.6250 C   0  0  0  0  0  0  0  0  0  0  0  0
  191.9070  176.8610  147.6440 N   0  0  0  0  0  1  0  0  0  0  0  0
  186.6690  177.5570  142.8340 C   0  0  2  0  0  3  0  0  0  0  0  0
  190.2070  176.7700  143.8140 C   0  0  0  0  0  3  0  0  0  0  0  0
  189.9840  177.1880  146.1530 C   0  0  0  0  0  0  0  0  0  0  0  0
  190.5450  177.2250  147.4380 C   0  0  0  0  0  0  0  0  0  0  0  0
  184.7520  178.3830  141.6180 O   0  0  0  0  0  1  0  0  0  0  0  0
  186.0120  178.7360  142.1090 C   0  0  0  0  0  2  0  0  0  0  0  0
  188.7160  178.1170  141.3360 C   0  0  0  0  0  2  0  0  0  0  0  0
  190.2370  178.2980  138.3190 O   0  0  0  0  0  0  0  0  0  0  0  0
  191.8080  176.5650  138.4140 N   0  0  0  0  0  2  0  0  0  0  0  0
  190.7000  177.0980  138.8040 C   0  0  0  0  0  0  0  0  0  0  0  0
  188.9870  178.6340  138.8920 C   0  0  2  0  0  3  0  0  0  0  0  0
  189.8020  176.4900  139.8020 C   0  0  0  0  0  2  0  0  0  0  0  0
  188.6920  177.5330  139.9310 C   0  0  1  0  0  3  0  0  0  0  0  0
  187.9640  178.6220  137.8550 N   0  0  0  0  0  2  0  0  0  0  0  0
  186.9570  177.6390  138.2290 C   0  0  0  0  0  2  0  0  0  0  0  0
  185.5890  178.2280  138.1200 C   0  0  0  0  0  0  0  0  0  0  0  0
  185.3530  179.3290  138.5900 O   0  0  0  0  0  0  0  0  0  0  0  0
  184.5030  177.4610  137.4490 C   0  0  0  0  0  1  0  0  0  0  0  0
  185.5990  177.8320  145.1450 C   0  0  0  0  0  2  0  0  0  0  0  0
  184.9780  179.2170  145.1460 C   0  0  0  0  0  2  0  0  0  0  0  0
  183.4870  179.0990  144.9120 C   0  0  0  0  0  1  0  0  0  0  0  0
  1  2  1  0  0  0  0
  2 13  2  0  0  0  0
  2  5  1  0  0  0  0
  3  8  1  0  0  0  0
  4  1  1  0  0  0  0
  4 29  1  0  0  0  0
  5  3  2  0  0  0  0
  6 17  1  6  0  0  0
  6 11  1  0  0  0  0
  6  9  1  0  0  0  0
  7 13  1  0  0  0  0
  9 12  1  0  0  0  0
  9  1  2  0  0  0  0
 11 16  1  6  0  0  0
 11  4  1  0  0  0  0
 12  7  2  0  0  0  0
 13 14  1  0  0  0  0
 14 10  1  0  0  0  0
 14  8  2  0  0  0  0
 15 16  1  0  0  0  0
 18 20  1  0  0  0  0
 18 21  1  0  0  0  0
 19 20  2  0  0  0  0
 20 22  1  0  0  0  0
 21 24  1  6  0  0  0
 21 23  1  0  0  0  0
 22 23  1  0  0  0  0
 23 17  1  1  0  0  0
 24 25  1  0  0  0  0
 26 25  1  0  0  0  0
 26 27  2  0  0  0  0
 28 26  1  0  0  0  0
 29 30  1  0  0  0  0
 31 30  1  0  0  0  0
M  END
>  <MODEL>
2

>  <REMARK>
 VINA RESULT:      -8.1      1.380      3.078
  Name = 
  8 active torsions:
  status: ('A' for Active; 'I' for Inactive)
    1  A    between atoms: C_1  and  C_24
    2  A    between atoms: C_2  and  C_25
    3  A    between atoms: N_6  and  C_19
    4  A    between atoms: N_6  and  C_24
    5  A    between atoms: N_12  and  C_25
    6  A    between atoms: C_15  and  C_20
    7  A    between atoms: C_20  and  C_23
    8  A    between atoms: C_27  and  C_28
                            x       y       z     vdW  Elec       q    Type
                         _______ _______ _______ _____ _____    ______ ____

>  <TORSDO>
F 8

$$$$
=
 OpenBabel10272400383D

 31 34  0  0  1  0  0  0  0  0999 V2000
  187.5420  178.2090  143.6790 C   0  0  0  0  0  0  0  0  0  0  0  0
  186.3790  178.3670  144.4490 C   0  0  0  0  0  0  0  0  0  0  0  0
  185.1610  178.3700  146.5290 C   0  0  0  0  0  3  0  0  0  0  0  0
  188.8590  177.9150  144.1290 N   0  0  0  0  0  0  0  0  0  0  0  0
  186.3610  178.2040  145.8360 C   0  0  0  0  0  3  0  0  0  0  0  0
  188.8550  178.1530  141.7160 C   0  0  1  0  0  3  0  0  0  0  0  0
  185.1810  178.8430  142.4090 N   0  0  0  0  0  0  0  0  0  0  0  0
  184.0210  178.6870  145.8590 N   0  0  0  0  0  0  0  0  0  0  0  0
  187.5020  178.3460  142.3170 C   0  0  0  0  0  0  0  0  0  0  0  0
  182.7750  179.1780  143.8580 N   0  0  0  0  0  1  0  0  0  0  0  0
  189.7520  177.9120  142.9690 C   0  0  2  0  0  3  0  0  0  0  0  0
  186.3140  178.6820  141.6690 C   0  0  0  0  0  3  0  0  0  0  0  0
  185.1800  178.6900  143.7680 C   0  0  0  0  0  0  0  0  0  0  0  0
  184.0000  178.8510  144.5090 C   0  0  0  0  0  0  0  0  0  0  0  0
  191.9190  176.9420  143.4120 O   0  0  0  0  0  1  0  0  0  0  0  0
  190.6320  176.6570  142.9460 C   0  0  0  0  0  2  0  0  0  0  0  0
  188.8490  176.9980  140.7110 C   0  0  0  0  0  2  0  0  0  0  0  0
  188.4620  177.0390  137.3490 O   0  0  0  0  0  0  0  0  0  0  0  0
  187.6930  179.2100  136.9320 N   0  0  0  0  0  2  0  0  0  0  0  0
  188.3340  178.3690  137.6710 C   0  0  0  0  0  0  0  0  0  0  0  0
  189.2370  176.3510  138.3140 C   0  0  2  0  0  3  0  0  0  0  0  0
  189.0040  178.7280  138.9330 C   0  0  0  0  0  2  0  0  0  0  0  0
  189.5490  177.3840  139.4160 C   0  0  1  0  0  3  0  0  0  0  0  0
  190.4760  175.8970  137.6990 N   0  0  0  0  0  2  0  0  0  0  0  0
  191.5840  176.3730  138.5140 C   0  0  0  0  0  2  0  0  0  0  0  0
  192.8890  176.0190  137.8790 C   0  0  0  0  0  0  0  0  0  0  0  0
  193.7030  176.8900  137.6180 O   0  0  0  0  0  0  0  0  0  0  0  0
  193.1900  174.6000  137.5450 C   0  0  0  0  0  1  0  0  0  0  0  0
  189.3430  178.0970  145.4910 C   0  0  0  0  0  2  0  0  0  0  0  0
  189.5540  176.7500  146.1580 C   0  0  0  0  0  2  0  0  0  0  0  0
  190.8610  176.7660  146.9220 C   0  0  0  0  0  1  0  0  0  0  0  0
  1  4  1  0  0  0  0
  1  2  1  0  0  0  0
  2  5  1  0  0  0  0
  4 29  1  0  0  0  0
  5  3  2  0  0  0  0
  6 17  1  6  0  0  0
  6  9  1  0  0  0  0
  6 11  1  0  0  0  0
  7 13  1  0  0  0  0
  8  3  1  0  0  0  0
  9  1  2  0  0  0  0
 10 14  1  0  0  0  0
 11 16  1  6  0  0  0
 11  4  1  0  0  0  0
 12  9  1  0  0  0  0
 12  7  2  0  0  0  0
 13  2  2  0  0  0  0
 13 14  1  0  0  0  0
 14  8  2  0  0  0  0
 16 15  1  0  0  0  0
 18 20  1  0  0  0  0
 18 21  1  0  0  0  0
 19 20  2  0  0  0  0
 20 22  1  0  0  0  0
 21 24  1  6  0  0  0
 21 23  1  0  0  0  0
 22 23  1  0  0  0  0
 23 17  1  1  0  0  0
 24 25  1  0  0  0  0
 26 25  1  0  0  0  0
 27 26  2  0  0  0  0
 28 26  1  0  0  0  0
 29 30  1  0  0  0  0
 30 31  1  0  0  0  0
M  END
>  <MODEL>
3

>  <REMARK>
 VINA RESULT:      -7.9      1.807      4.117
  Name = 
  8 active torsions:
  status: ('A' for Active; 'I' for Inactive)
    1  A    between atoms: C_1  and  C_24
    2  A    between atoms: C_2  and  C_25
    3  A    between atoms: N_6  and  C_19
    4  A    between atoms: N_6  and  C_24
    5  A    between atoms: N_12  and  C_25
    6  A    between atoms: C_15  and  C_20
    7  A    between atoms: C_20  and  C_23
    8  A    between atoms: C_27  and  C_28
                            x       y       z     vdW  Elec       q    Type
                         _______ _______ _______ _____ _____    ______ ____

>  <TORSDO>
F 8

$$$$
=
 OpenBabel10272400383D

 31 34  0  0  1  0  0  0  0  0999 V2000
  184.8610  178.4900  142.8180 C   0  0  0  0  0  0  0  0  0  0  0  0
  183.4960  178.6420  142.5320 C   0  0  0  0  0  0  0  0  0  0  0  0
  181.1600  178.6300  143.1270 C   0  0  0  0  0  3  0  0  0  0  0  0
  185.4680  178.1960  144.0700 N   0  0  0  0  0  0  0  0  0  0  0  0
  182.4970  178.4700  143.4930 C   0  0  0  0  0  3  0  0  0  0  0  0
  187.1810  178.4490  142.3730 C   0  0  1  0  0  3  0  0  0  0  0  0
  184.1030  179.1290  140.2480 N   0  0  0  0  0  0  0  0  0  0  0  0
  180.8340  178.9500  141.8450 N   0  0  0  0  0  0  0  0  0  0  0  0
  185.8020  178.6360  141.8330 C   0  0  0  0  0  0  0  0  0  0  0  0
  181.3790  179.4510  139.5550 N   0  0  0  0  0  1  0  0  0  0  0  0
  186.9210  178.2010  143.8900 C   0  0  2  0  0  3  0  0  0  0  0  0
  185.4260  178.9740  140.5330 C   0  0  0  0  0  3  0  0  0  0  0  0
  183.1360  178.9680  141.2010 C   0  0  0  0  0  0  0  0  0  0  0  0
  181.7790  179.1210  140.8820 C   0  0  0  0  0  0  0  0  0  0  0  0
  188.4410  177.2870  145.5300 O   0  0  0  0  0  1  0  0  0  0  0  0
  187.5620  176.9480  144.4970 C   0  0  0  0  0  2  0  0  0  0  0  0
  187.8990  177.3000  141.6590 C   0  0  0  0  0  2  0  0  0  0  0  0
  190.6590  176.1680  140.0610 O   0  0  0  0  0  0  0  0  0  0  0  0
  190.2050  176.6500  137.8160 N   0  0  0  0  0  2  0  0  0  0  0  0
  190.0250  176.8820  139.0720 C   0  0  0  0  0  0  0  0  0  0  0  0
  190.3050  176.6480  141.3450 C   0  0  2  0  0  3  0  0  0  0  0  0
  189.1320  177.9310  139.5940 C   0  0  0  0  0  2  0  0  0  0  0  0
  189.2460  177.7440  141.1070 C   0  0  1  0  0  3  0  0  0  0  0  0
  191.4800  177.2280  141.9820 N   0  0  0  0  0  2  0  0  0  0  0  0
  191.6000  176.6510  143.3130 C   0  0  0  0  0  2  0  0  0  0  0  0
  191.5600  177.7250  144.3510 C   0  0  0  0  0  0  0  0  0  0  0  0
  191.8200  177.4660  145.5150 O   0  0  0  0  0  0  0  0  0  0  0  0
  191.1830  179.1130  143.9680 C   0  0  0  0  0  1  0  0  0  0  0  0
  184.8380  178.3700  145.3730 C   0  0  0  0  0  2  0  0  0  0  0  0
  185.5980  179.3990  146.1900 C   0  0  0  0  0  2  0  0  0  0  0  0
  186.0690  178.7660  147.4820 C   0  0  0  0  0  1  0  0  0  0  0  0
  1  4  1  0  0  0  0
  2  1  1  0  0  0  0
  2  5  1  0  0  0  0
  3  5  2  0  0  0  0
  4 29  1  0  0  0  0
  6 17  1  6  0  0  0
  6 11  1  0  0  0  0
  7 12  2  0  0  0  0
  7 13  1  0  0  0  0
  8  3  1  0  0  0  0
  9  6  1  0  0  0  0
  9  1  2  0  0  0  0
 10 14  1  0  0  0  0
 11  4  1  0  0  0  0
 11 16  1  6  0  0  0
 12  9  1  0  0  0  0
 13  2  2  0  0  0  0
 14 13  1  0  0  0  0
 14  8  2  0  0  0  0
 16 15  1  0  0  0  0
 18 21  1  0  0  0  0
 19 20  2  0  0  0  0
 20 22  1  0  0  0  0
 20 18  1  0  0  0  0
 21 24  1  6  0  0  0
 22 23  1  0  0  0  0
 23 21  1  0  0  0  0
 23 17  1  6  0  0  0
 24 25  1  0  0  0  0
 25 26  1  0  0  0  0
 26 27  2  0  0  0  0
 28 26  1  0  0  0  0
 29 30  1  0  0  0  0
 30 31  1  0  0  0  0
M  END
>  <MODEL>
4

>  <REMARK>
 VINA RESULT:      -7.6      3.147      5.879
  Name = 
  8 active torsions:
  status: ('A' for Active; 'I' for Inactive)
    1  A    between atoms: C_1  and  C_24
    2  A    between atoms: C_2  and  C_25
    3  A    between atoms: N_6  and  C_19
    4  A    between atoms: N_6  and  C_24
    5  A    between atoms: N_12  and  C_25
    6  A    between atoms: C_15  and  C_20
    7  A    between atoms: C_20  and  C_23
    8  A    between atoms: C_27  and  C_28
                            x       y       z     vdW  Elec       q    Type
                         _______ _______ _______ _____ _____    ______ ____

>  <TORSDO>
F 8

$$$$
=
 OpenBabel10272400383D

 31 34  0  0  1  0  0  0  0  0999 V2000
  188.6820  177.3800  139.4130 C   0  0  0  0  0  0  0  0  0  0  0  0
  189.2140  176.7130  138.2990 C   0  0  0  0  0  0  0  0  0  0  0  0
  189.1330  175.9280  136.0210 C   0  0  0  0  0  3  0  0  0  0  0  0
  187.4500  178.0840  139.5080 N   0  0  0  0  0  0  0  0  0  0  0  0
  188.5390  176.6160  137.0810 C   0  0  0  0  0  3  0  0  0  0  0  0
  188.6200  178.1960  141.6290 C   0  0  1  0  0  3  0  0  0  0  0  0
  191.1550  176.1860  139.6330 N   0  0  0  0  0  0  0  0  0  0  0  0
  190.3580  175.3570  136.1760 N   0  0  0  0  0  0  0  0  0  0  0  0
  189.3690  177.4200  140.5970 C   0  0  0  0  0  0  0  0  0  0  0  0
  192.3220  174.8080  137.4550 N   0  0  0  0  0  1  0  0  0  0  0  0
  187.3560  178.6680  140.8470 C   0  0  2  0  0  3  0  0  0  0  0  0
  190.6280  176.8300  140.7120 C   0  0  0  0  0  3  0  0  0  0  0  0
  190.4870  176.1060  138.4420 C   0  0  0  0  0  0  0  0  0  0  0  0
  191.0440  175.4290  137.3480 C   0  0  0  0  0  0  0  0  0  0  0  0
  185.2780  179.5380  141.7180 O   0  0  0  0  0  1  0  0  0  0  0  0
  186.0010  178.3630  141.4940 C   0  0  0  0  0  2  0  0  0  0  0  0
  188.3180  177.3300  142.8560 C   0  0  0  0  0  2  0  0  0  0  0  0
  189.2850  176.8890  146.0680 O   0  0  0  0  0  0  0  0  0  0  0  0
  191.5910  177.2850  145.9860 N   0  0  0  0  0  2  0  0  0  0  0  0
  190.4060  177.4520  145.5040 C   0  0  0  0  0  0  0  0  0  0  0  0
  188.1160  177.2560  145.3590 C   0  0  2  0  0  3  0  0  0  0  0  0
  190.1100  178.2580  144.3070 C   0  0  0  0  0  2  0  0  0  0  0  0
  188.6000  178.0800  144.1490 C   0  0  1  0  0  3  0  0  0  0  0  0
  187.2750  178.0810  146.2140 N   0  0  0  0  0  2  0  0  0  0  0  0
  186.3230  178.7830  145.3650 C   0  0  0  0  0  2  0  0  0  0  0  0
  184.9390  178.6490  145.9120 C   0  0  0  0  0  0  0  0  0  0  0  0
  184.7660  178.4140  147.0960 O   0  0  0  0  0  0  0  0  0  0  0  0
  183.7670  178.7850  145.0040 C   0  0  0  0  0  1  0  0  0  0  0  0
  186.6750  178.5820  138.3790 C   0  0  0  0  0  2  0  0  0  0  0  0
  185.4720  177.6890  138.1340 C   0  0  0  0  0  2  0  0  0  0  0  0
  184.2030  178.4900  138.3350 C   0  0  0  0  0  1  0  0  0  0  0  0
  1  4  1  0  0  0  0
  1  9  1  0  0  0  0
  2 13  1  0  0  0  0
  2  1  2  0  0  0  0
  3  8  1  0  0  0  0
  3  5  2  0  0  0  0
  4 11  1  0  0  0  0
  5  2  1  0  0  0  0
  6 17  1  1  0  0  0
  7 12  1  0  0  0  0
  8 14  2  0  0  0  0
  9 12  2  0  0  0  0
  9  6  1  0  0  0  0
 11 16  1  1  0  0  0
 11  6  1  0  0  0  0
 13  7  2  0  0  0  0
 14 10  1  0  0  0  0
 14 13  1  0  0  0  0
 16 15  1  0  0  0  0
 20 19  2  0  0  0  0
 20 18  1  0  0  0  0
 21 18  1  0  0  0  0
 21 24  1  1  0  0  0
 22 20  1  0  0  0  0
 23 17  1  6  0  0  0
 23 22  1  0  0  0  0
 23 21  1  0  0  0  0
 25 26  1  0  0  0  0
 25 24  1  0  0  0  0
 26 27  2  0  0  0  0
 28 26  1  0  0  0  0
 29  4  1  0  0  0  0
 30 31  1  0  0  0  0
 30 29  1  0  0  0  0
M  END
>  <MODEL>
5

>  <REMARK>
 VINA RESULT:      -7.4      2.505      7.521
  Name = 
  8 active torsions:
  status: ('A' for Active; 'I' for Inactive)
    1  A    between atoms: C_1  and  C_24
    2  A    between atoms: C_2  and  C_25
    3  A    between atoms: N_6  and  C_19
    4  A    between atoms: N_6  and  C_24
    5  A    between atoms: N_12  and  C_25
    6  A    between atoms: C_15  and  C_20
    7  A    between atoms: C_20  and  C_23
    8  A    between atoms: C_27  and  C_28
                            x       y       z     vdW  Elec       q    Type
                         _______ _______ _______ _____ _____    ______ ____

>  <TORSDO>
F 8

$$$$
=
 OpenBabel10272400383D

 31 34  0  0  1  0  0  0  0  0999 V2000
  190.0330  177.5490  139.5630 C   0  0  0  0  0  0  0  0  0  0  0  0
  190.7590  177.0610  138.4650 C   0  0  0  0  0  0  0  0  0  0  0  0
  190.9940  176.4340  136.1500 C   0  0  0  0  0  3  0  0  0  0  0  0
  188.6930  178.0240  139.5870 N   0  0  0  0  0  0  0  0  0  0  0  0
  190.2080  176.9350  137.1890 C   0  0  0  0  0  3  0  0  0  0  0  0
  189.6560  178.1870  141.8060 C   0  0  1  0  0  3  0  0  0  0  0  0
  192.6520  176.7820  139.9350 N   0  0  0  0  0  0  0  0  0  0  0  0
  192.2850  176.0710  136.3810 N   0  0  0  0  0  0  0  0  0  0  0  0
  190.6080  177.6230  140.8040 C   0  0  0  0  0  0  0  0  0  0  0  0
  194.2090  175.7770  137.7970 N   0  0  0  0  0  1  0  0  0  0  0  0
  188.3940  178.4890  140.9430 C   0  0  2  0  0  3  0  0  0  0  0  0
  191.9380  177.2500  140.9970 C   0  0  0  0  0  3  0  0  0  0  0  0
  192.1030  176.6720  138.6880 C   0  0  0  0  0  0  0  0  0  0  0  0
  192.8540  176.1770  137.6120 C   0  0  0  0  0  0  0  0  0  0  0  0
  186.0600  178.8820  141.4280 O   0  0  0  0  0  1  0  0  0  0  0  0
  187.0670  177.9120  141.4490 C   0  0  0  0  0  2  0  0  0  0  0  0
  189.4170  177.1980  142.9520 C   0  0  0  0  0  2  0  0  0  0  0  0
  189.6720  176.5650  146.2660 O   0  0  0  0  0  0  0  0  0  0  0  0
  191.9830  176.6140  146.6380 N   0  0  0  0  0  2  0  0  0  0  0  0
  190.9490  176.9630  145.9490 C   0  0  0  0  0  0  0  0  0  0  0  0
  188.7270  177.1140  145.3670 C   0  0  2  0  0  3  0  0  0  0  0  0
  191.0100  177.8240  144.7550 C   0  0  0  0  0  2  0  0  0  0  0  0
  189.5490  177.8770  144.3080 C   0  0  1  0  0  3  0  0  0  0  0  0
  187.8640  178.0420  146.0840 N   0  0  0  0  0  2  0  0  0  0  0  0
  186.4930  177.5650  145.9630 C   0  0  0  0  0  2  0  0  0  0  0  0
  185.5350  178.7090  146.0370 C   0  0  0  0  0  0  0  0  0  0  0  0
  185.3410  179.2810  147.0970 O   0  0  0  0  0  0  0  0  0  0  0  0
  184.8020  179.1420  144.8160 C   0  0  0  0  0  1  0  0  0  0  0  0
  187.9330  178.4590  138.4230 C   0  0  0  0  0  2  0  0  0  0  0  0
  186.9190  177.3990  138.0310 C   0  0  0  0  0  2  0  0  0  0  0  0
  185.5360  178.0160  137.9950 C   0  0  0  0  0  1  0  0  0  0  0  0
  1  4  1  0  0  0  0
  1  9  1  0  0  0  0
  2 13  1  0  0  0  0
  2  1  2  0  0  0  0
  3  8  1  0  0  0  0
  3  5  2  0  0  0  0
  4 11  1  0  0  0  0
  5  2  1  0  0  0  0
  6 17  1  1  0  0  0
  7 12  1  0  0  0  0
  8 14  2  0  0  0  0
  9 12  2  0  0  0  0
  9  6  1  0  0  0  0
 11 16  1  1  0  0  0
 11  6  1  0  0  0  0
 13  7  2  0  0  0  0
 14 10  1  0  0  0  0
 14 13  1  0  0  0  0
 15 16  1  0  0  0  0
 20 18  1  0  0  0  0
 20 19  2  0  0  0  0
 21 24  1  1  0  0  0
 21 18  1  0  0  0  0
 22 20  1  0  0  0  0
 23 17  1  6  0  0  0
 23 22  1  0  0  0  0
 23 21  1  0  0  0  0
 25 26  1  0  0  0  0
 25 24  1  0  0  0  0
 26 27  2  0  0  0  0
 28 26  1  0  0  0  0
 29  4  1  0  0  0  0
 30 29  1  0  0  0  0
 31 30  1  0  0  0  0
M  END
>  <MODEL>
6

>  <REMARK>
 VINA RESULT:      -7.3      2.506      7.595
  Name = 
  8 active torsions:
  status: ('A' for Active; 'I' for Inactive)
    1  A    between atoms: C_1  and  C_24
    2  A    between atoms: C_2  and  C_25
    3  A    between atoms: N_6  and  C_19
    4  A    between atoms: N_6  and  C_24
    5  A    between atoms: N_12  and  C_25
    6  A    between atoms: C_15  and  C_20
    7  A    between atoms: C_20  and  C_23
    8  A    between atoms: C_27  and  C_28
                            x       y       z     vdW  Elec       q    Type
                         _______ _______ _______ _____ _____    ______ ____

>  <TORSDO>
F 8

$$$$
=
 OpenBabel10272400383D

 31 34  0  0  1  0  0  0  0  0999 V2000
  188.7350  177.4620  141.1450 C   0  0  0  0  0  0  0  0  0  0  0  0
  188.1900  177.9110  139.9330 C   0  0  0  0  0  0  0  0  0  0  0  0
  188.3150  178.4400  137.5840 C   0  0  0  0  0  3  0  0  0  0  0  0
  190.0470  176.9690  141.3890 N   0  0  0  0  0  0  0  0  0  0  0  0
  188.9270  177.9730  138.7480 C   0  0  0  0  0  3  0  0  0  0  0  0
  188.7610  176.9180  143.4440 C   0  0  1  0  0  3  0  0  0  0  0  0
  186.1060  178.2830  141.0910 N   0  0  0  0  0  0  0  0  0  0  0  0
  187.0120  178.8320  137.6050 N   0  0  0  0  0  0  0  0  0  0  0  0
  187.9810  177.4510  142.2890 C   0  0  0  0  0  0  0  0  0  0  0  0
  184.9050  179.2150  138.7050 N   0  0  0  0  0  1  0  0  0  0  0  0
  190.1320  176.5600  142.7920 C   0  0  2  0  0  3  0  0  0  0  0  0
  186.6450  177.8510  142.2650 C   0  0  0  0  0  3  0  0  0  0  0  0
  186.8370  178.3300  139.9360 C   0  0  0  0  0  0  0  0  0  0  0  0
  186.2640  178.7880  138.7400 C   0  0  0  0  0  0  0  0  0  0  0  0
  191.4950  178.5090  143.2140 O   0  0  0  0  0  1  0  0  0  0  0  0
  191.3800  177.1390  143.4670 C   0  0  0  0  0  2  0  0  0  0  0  0
  188.8490  177.9520  144.5710 C   0  0  0  0  0  2  0  0  0  0  0  0
  187.5580  178.8560  147.5660 O   0  0  0  0  0  0  0  0  0  0  0  0
  185.2490  178.6880  147.2190 N   0  0  0  0  0  2  0  0  0  0  0  0
  186.4570  178.3480  146.9180 C   0  0  0  0  0  0  0  0  0  0  0  0
  188.7540  178.2930  147.0590 C   0  0  2  0  0  3  0  0  0  0  0  0
  186.7990  177.3840  145.8580 C   0  0  0  0  0  2  0  0  0  0  0  0
  188.3280  177.3880  145.8850 C   0  0  1  0  0  3  0  0  0  0  0  0
  189.3850  177.4900  148.0970 N   0  0  0  0  0  2  0  0  0  0  0  0
  189.9870  176.3260  147.4610 C   0  0  0  0  0  2  0  0  0  0  0  0
  191.4770  176.4070  147.5290 C   0  0  0  0  0  0  0  0  0  0  0  0
  192.0160  177.2290  148.2520 O   0  0  0  0  0  0  0  0  0  0  0  0
  192.3070  175.4930  146.6980 C   0  0  0  0  0  1  0  0  0  0  0  0
  190.9620  176.4720  140.3700 C   0  0  0  0  0  2  0  0  0  0  0  0
  192.1020  177.4530  140.1640 C   0  0  0  0  0  2  0  0  0  0  0  0
  192.9890  176.9640  139.0390 C   0  0  0  0  0  1  0  0  0  0  0  0
  1  4  1  0  0  0  0
  1  9  1  0  0  0  0
  2 13  1  0  0  0  0
  2  1  2  0  0  0  0
  3  8  1  0  0  0  0
  3  5  2  0  0  0  0
  4 11  1  0  0  0  0
  5  2  1  0  0  0  0
  6 17  1  1  0  0  0
  7 12  1  0  0  0  0
  8 14  2  0  0  0  0
  9  6  1  0  0  0  0
 10 14  1  0  0  0  0
 11  6  1  0  0  0  0
 11 16  1  1  0  0  0
 12  9  2  0  0  0  0
 13  7  2  0  0  0  0
 14 13  1  0  0  0  0
 15 16  1  0  0  0  0
 20 19  2  0  0  0  0
 20 18  1  0  0  0  0
 21 18  1  0  0  0  0
 21 24  1  1  0  0  0
 22 23  1  0  0  0  0
 22 20  1  0  0  0  0
 23 17  1  6  0  0  0
 23 21  1  0  0  0  0
 25 26  1  0  0  0  0
 25 24  1  0  0  0  0
 26 27  2  0  0  0  0
 28 26  1  0  0  0  0
 29  4  1  0  0  0  0
 30 29  1  0  0  0  0
 31 30  1  0  0  0  0
M  END
>  <MODEL>
7

>  <REMARK>
 VINA RESULT:      -7.2      3.002      7.859
  Name = 
  8 active torsions:
  status: ('A' for Active; 'I' for Inactive)
    1  A    between atoms: C_1  and  C_24
    2  A    between atoms: C_2  and  C_25
    3  A    between atoms: N_6  and  C_19
    4  A    between atoms: N_6  and  C_24
    5  A    between atoms: N_12  and  C_25
    6  A    between atoms: C_15  and  C_20
    7  A    between atoms: C_20  and  C_23
    8  A    between atoms: C_27  and  C_28
                            x       y       z     vdW  Elec       q    Type
                         _______ _______ _______ _____ _____    ______ ____

>  <TORSDO>
F 8

$$$$
=
 OpenBabel10272400383D

 31 34  0  0  1  0  0  0  0  0999 V2000
  187.4190  178.1070  139.4660 C   0  0  0  0  0  0  0  0  0  0  0  0
  187.6120  177.7230  138.1310 C   0  0  0  0  0  0  0  0  0  0  0  0
  186.8470  177.2740  135.8890 C   0  0  0  0  0  3  0  0  0  0  0  0
  186.2150  178.5400  140.0890 N   0  0  0  0  0  0  0  0  0  0  0  0
  186.5740  177.6750  137.1980 C   0  0  0  0  0  3  0  0  0  0  0  0
  188.0250  178.5670  141.7030 C   0  0  1  0  0  3  0  0  0  0  0  0
  189.9470  177.3900  138.6410 N   0  0  0  0  0  0  0  0  0  0  0  0
  188.1130  176.9330  135.5270 N   0  0  0  0  0  0  0  0  0  0  0  0
  188.4630  178.1060  140.3520 C   0  0  0  0  0  0  0  0  0  0  0  0
  190.4540  176.5920  135.9750 N   0  0  0  0  0  1  0  0  0  0  0  0
  186.5170  178.8950  141.4770 C   0  0  2  0  0  3  0  0  0  0  0  0
  189.7490  177.7590  139.9380 C   0  0  0  0  0  3  0  0  0  0  0  0
  188.9230  177.3570  137.7360 C   0  0  0  0  0  0  0  0  0  0  0  0
  189.1490  176.9650  136.4090 C   0  0  0  0  0  0  0  0  0  0  0  0
  184.4830  179.1230  142.7590 O   0  0  0  0  0  1  0  0  0  0  0  0
  185.5250  178.2450  142.4470 C   0  0  0  0  0  2  0  0  0  0  0  0
  188.2860  177.4900  142.7610 C   0  0  0  0  0  2  0  0  0  0  0  0
  189.4650  176.6980  145.8320 O   0  0  0  0  0  0  0  0  0  0  0  0
  191.7850  176.8560  145.5650 N   0  0  0  0  0  2  0  0  0  0  0  0
  190.5900  177.1830  145.2070 C   0  0  0  0  0  0  0  0  0  0  0  0
  188.2890  177.2400  145.2620 C   0  0  2  0  0  3  0  0  0  0  0  0
  190.2860  178.1080  144.1020 C   0  0  0  0  0  2  0  0  0  0  0  0
  188.7580  178.1030  144.0720 C   0  0  1  0  0  3  0  0  0  0  0  0
  187.6190  178.0790  146.2460 N   0  0  0  0  0  2  0  0  0  0  0  0
  186.2530  177.5970  146.3930 C   0  0  0  0  0  2  0  0  0  0  0  0
  185.3200  178.7400  146.6250 C   0  0  0  0  0  0  0  0  0  0  0  0
  185.6030  179.6120  147.4300 O   0  0  0  0  0  0  0  0  0  0  0  0
  184.0300  178.8060  145.8840 C   0  0  0  0  0  1  0  0  0  0  0  0
  185.0380  179.0380  139.3900 C   0  0  0  0  0  2  0  0  0  0  0  0
  183.9030  178.0340  139.4920 C   0  0  0  0  0  2  0  0  0  0  0  0
  182.5860  178.7730  139.5870 C   0  0  0  0  0  1  0  0  0  0  0  0
  1  4  1  0  0  0  0
  1  9  1  0  0  0  0
  2  1  2  0  0  0  0
  3  5  2  0  0  0  0
  4 11  1  0  0  0  0
  5  2  1  0  0  0  0
  6 17  1  1  0  0  0
  7 12  1  0  0  0  0
  8  3  1  0  0  0  0
  8 14  2  0  0  0  0
  9  6  1  0  0  0  0
 10 14  1  0  0  0  0
 11  6  1  0  0  0  0
 11 16  1  1  0  0  0
 12  9  2  0  0  0  0
 13  2  1  0  0  0  0
 13  7  2  0  0  0  0
 14 13  1  0  0  0  0
 16 15  1  0  0  0  0
 20 19  2  0  0  0  0
 20 18  1  0  0  0  0
 21 18  1  0  0  0  0
 21 24  1  1  0  0  0
 22 20  1  0  0  0  0
 23 17  1  6  0  0  0
 23 22  1  0  0  0  0
 23 21  1  0  0  0  0
 24 25  1  0  0  0  0
 25 26  1  0  0  0  0
 26 27  2  0  0  0  0
 28 26  1  0  0  0  0
 29 30  1  0  0  0  0
 29  4  1  0  0  0  0
 30 31  1  0  0  0  0
M  END
>  <MODEL>
8

>  <REMARK>
 VINA RESULT:      -7.1      2.627      7.658
  Name = 
  8 active torsions:
  status: ('A' for Active; 'I' for Inactive)
    1  A    between atoms: C_1  and  C_24
    2  A    between atoms: C_2  and  C_25
    3  A    between atoms: N_6  and  C_19
    4  A    between atoms: N_6  and  C_24
    5  A    between atoms: N_12  and  C_25
    6  A    between atoms: C_15  and  C_20
    7  A    between atoms: C_20  and  C_23
    8  A    between atoms: C_27  and  C_28
                            x       y       z     vdW  Elec       q    Type
                         _______ _______ _______ _____ _____    ______ ____

>  <TORSDO>
F 8

$$$$
=
 OpenBabel10272400383D

 31 34  0  0  1  0  0  0  0  0999 V2000
  187.6320  178.0160  143.9230 C   0  0  0  0  0  0  0  0  0  0  0  0
  186.4630  178.2640  144.6590 C   0  0  0  0  0  0  0  0  0  0  0  0
  185.2240  178.4910  146.7140 C   0  0  0  0  0  3  0  0  0  0  0  0
  188.9410  177.7550  144.4160 N   0  0  0  0  0  0  0  0  0  0  0  0
  186.4290  178.2420  146.0550 C   0  0  0  0  0  3  0  0  0  0  0  0
  188.9650  177.7480  141.9910 C   0  0  1  0  0  3  0  0  0  0  0  0
  185.2930  178.5440  142.5680 N   0  0  0  0  0  0  0  0  0  0  0  0
  184.0940  178.7510  146.0020 N   0  0  0  0  0  0  0  0  0  0  0  0
  187.6090  178.0150  142.5540 C   0  0  0  0  0  0  0  0  0  0  0  0
  182.8760  179.0500  143.9470 N   0  0  0  0  0  1  0  0  0  0  0  0
  189.8450  177.6250  143.2730 C   0  0  2  0  0  3  0  0  0  0  0  0
  186.4310  178.2970  141.8610 C   0  0  0  0  0  3  0  0  0  0  0  0
  185.2750  178.5300  143.9350 C   0  0  0  0  0  0  0  0  0  0  0  0
  184.0890  178.7770  144.6420 C   0  0  0  0  0  0  0  0  0  0  0  0
  191.9770  176.6730  143.8910 O   0  0  0  0  0  1  0  0  0  0  0  0
  190.7100  176.3650  143.3870 C   0  0  0  0  0  2  0  0  0  0  0  0
  188.9560  176.4970  141.1080 C   0  0  0  0  0  2  0  0  0  0  0  0
  190.7320  178.1890  138.7770 O   0  0  0  0  0  0  0  0  0  0  0  0
  192.0680  176.5230  137.8170 N   0  0  0  0  0  2  0  0  0  0  0  0
  191.0040  176.8800  138.4530 C   0  0  0  0  0  0  0  0  0  0  0  0
  189.4890  178.3030  139.4440 C   0  0  2  0  0  3  0  0  0  0  0  0
  189.9600  175.9420  138.9020 C   0  0  0  0  0  2  0  0  0  0  0  0
  188.9780  176.8600  139.6300 C   0  0  1  0  0  3  0  0  0  0  0  0
  188.5610  179.0520  138.6080 N   0  0  0  0  0  2  0  0  0  0  0  0
  187.4730  178.1600  138.2340 C   0  0  0  0  0  2  0  0  0  0  0  0
  187.4650  177.9380  136.7570 C   0  0  0  0  0  0  0  0  0  0  0  0
  188.4460  178.2180  136.0870 O   0  0  0  0  0  0  0  0  0  0  0  0
  186.2490  177.3890  136.0960 C   0  0  0  0  0  1  0  0  0  0  0  0
  189.4130  178.0690  145.7580 C   0  0  0  0  0  2  0  0  0  0  0  0
  189.5020  176.8030  146.5920 C   0  0  0  0  0  2  0  0  0  0  0  0
  190.8620  176.7310  147.2520 C   0  0  0  0  0  1  0  0  0  0  0  0
  1  4  1  0  0  0  0
  1  2  1  0  0  0  0
  2  5  1  0  0  0  0
  4 29  1  0  0  0  0
  5  3  2  0  0  0  0
  6 17  1  1  0  0  0
  6  9  1  0  0  0  0
  6 11  1  0  0  0  0
  7 13  1  0  0  0  0
  8  3  1  0  0  0  0
  9  1  2  0  0  0  0
 10 14  1  0  0  0  0
 11 16  1  1  0  0  0
 11  4  1  0  0  0  0
 12  9  1  0  0  0  0
 12  7  2  0  0  0  0
 13 14  1  0  0  0  0
 13  2  2  0  0  0  0
 14  8  2  0  0  0  0
 16 15  1  0  0  0  0
 18 21  1  0  0  0  0
 19 20  2  0  0  0  0
 20 18  1  0  0  0  0
 20 22  1  0  0  0  0
 21 24  1  6  0  0  0
 21 23  1  0  0  0  0
 22 23  1  0  0  0  0
 23 17  1  1  0  0  0
 25 24  1  0  0  0  0
 26 25  1  0  0  0  0
 27 26  2  0  0  0  0
 28 26  1  0  0  0  0
 29 30  1  0  0  0  0
 30 31  1  0  0  0  0
M  END
>  <MODEL>
9

>  <REMARK>
 VINA RESULT:      -6.9      2.065      4.760
  Name = 
  8 active torsions:
  status: ('A' for Active; 'I' for Inactive)
    1  A    between atoms: C_1  and  C_24
    2  A    between atoms: C_2  and  C_25
    3  A    between atoms: N_6  and  C_19
    4  A    between atoms: N_6  and  C_24
    5  A    between atoms: N_12  and  C_25
    6  A    between atoms: C_15  and  C_20
    7  A    between atoms: C_20  and  C_23
    8  A    between atoms: C_27  and  C_28
                            x       y       z     vdW  Elec       q    Type
                         _______ _______ _______ _____ _____    ______ ____

>  <TORSDO>
F 8

$$$$
