=
 OpenBabel10272413583D

 30 32  0  0  1  0  0  0  0  0999 V2000
  187.8370  177.7900  145.1420 C   0  0  0  0  0  0  0  0  0  0  0  0
  184.5940  179.4730  145.3880 O   0  0  0  0  0  0  0  0  0  0  0  0
  184.0880  178.6600  144.3610 C   0  0  2  0  0  3  0  0  0  0  0  0
  187.0810  178.5650  146.1720 C   0  0  1  0  0  3  0  0  0  0  0  0
  188.8860  177.2340  145.4390 O   0  0  0  0  0  0  0  0  0  0  0  0
  184.6680  178.6870  146.5550 C   0  0  0  0  0  2  0  0  0  0  0  0
  185.8500  177.7270  146.4810 C   0  0  2  0  0  3  0  0  0  0  0  0
  187.3040  177.7750  143.7220 C   0  0  2  0  0  3  0  0  0  0  0  0
  185.1850  178.4000  143.3070 C   0  0  1  0  0  3  0  0  0  0  0  0
  182.9880  179.2890  143.8020 F   0  0  0  0  0  0  0  0  0  0  0  0
  186.9170  177.9150  147.5330 C   0  0  0  0  0  2  0  0  0  0  0  0
  185.9780  177.3130  143.7020 O   0  0  0  0  0  0  0  0  0  0  0  0
  188.1360  176.9500  142.7920 C   0  0  0  0  0  0  0  0  0  0  0  0
  188.1320  175.6940  142.9090 O   0  0  0  0  0  0  0  0  0  0  0  0
  188.9250  177.5770  141.8250 O   0  0  0  0  0  0  0  0  0  0  0  0
  190.1610  177.0280  141.3740 C   0  0  2  0  0  3  0  0  0  0  0  0
  191.3290  177.8730  141.8880 C   0  0  1  0  0  3  0  0  0  0  0  0
  191.5140  175.9730  143.6260 C   0  0  0  0  0  1  0  0  0  0  0  0
  191.0260  178.3770  143.2850 C   0  0  0  0  0  2  0  0  0  0  0  0
  192.0680  177.2920  143.1020 C   0  0  2  0  0  3  0  0  0  0  0  0
  190.1980  176.8980  139.8480 C   0  0  0  0  0  2  0  0  0  0  0  0
  189.0680  178.9550  139.0010 O   0  0  0  0  0  1  0  0  0  0  0  0
  188.0640  176.9080  138.7710 O   0  0  0  0  0  0  0  0  0  0  0  0
  189.0480  177.5780  139.1790 C   0  0  0  0  0  0  0  0  0  0  0  0
  184.5960  178.0910  141.9360 C   0  0  0  0  0  2  0  0  0  0  0  0
  185.2040  179.0110  140.8860 C   0  0  0  0  0  2  0  0  0  0  0  0
  184.3370  179.1140  139.6350 C   0  0  0  0  0  0  0  0  0  0  0  0
  184.3530  180.4190  139.1420 O   0  0  0  0  0  1  0  0  0  0  0  0
  184.8320  178.1590  138.5630 C   0  0  0  0  0  1  0  0  0  0  0  0
  182.9150  178.7410  139.9970 C   0  0  0  0  0  1  0  0  0  0  0  0
  1  5  2  0  0  0  0
  1  4  1  0  0  0  0
  2  6  1  0  0  0  0
  3 10  1  6  0  0  0
  3  2  1  0  0  0  0
  4  7  1  0  0  0  0
  4 11  1  1  0  0  0
  7  6  1  1  0  0  0
  7 11  1  0  0  0  0
  8 13  1  6  0  0  0
  8  1  1  0  0  0  0
  9 25  1  6  0  0  0
  9 12  1  0  0  0  0
  9  3  1  0  0  0  0
 12  8  1  0  0  0  0
 13 14  2  0  0  0  0
 15 13  1  0  0  0  0
 16 21  1  6  0  0  0
 16 15  1  0  0  0  0
 17 16  1  1  0  0  0
 17 20  1  0  0  0  0
 17 19  1  0  0  0  0
 20 19  1  0  0  0  0
 20 18  1  1  0  0  0
 22 24  1  0  0  0  0
 23 24  2  0  0  0  0
 24 21  1  0  0  0  0
 26 25  1  0  0  0  0
 27 30  1  0  0  0  0
 27 26  1  0  0  0  0
 28 27  1  0  0  0  0
 29 27  1  0  0  0  0
M  END
>  <MODEL>
1

>  <REMARK>
 VINA RESULT:      -7.6      0.000      0.000
  Name = 
  9 active torsions:
  status: ('A' for Active; 'I' for Inactive)
    1  A    between atoms: C_1  and  O_4
    2  A    between atoms: C_1  and  C_22
    3  A    between atoms: O_4  and  C_12
    4  A    between atoms: C_7  and  C_10
    5  A    between atoms: C_7  and  C_25
    6  A    between atoms: C_8  and  C_12
    7  A    between atoms: C_9  and  C_12
    8  A    between atoms: C_9  and  C_21
    9  A    between atoms: C_23  and  C_25
                            x       y       z     vdW  Elec       q    Type
                         _______ _______ _______ _____ _____    ______ ____

>  <TORSDO>
F 9

$$$$
=
 OpenBabel10272413583D

 30 32  0  0  1  0  0  0  0  0999 V2000
  185.5460  178.6810  142.4530 C   0  0  0  0  0  0  0  0  0  0  0  0
  185.3150  177.4130  145.8810 O   0  0  0  0  0  0  0  0  0  0  0  0
  186.6920  177.6200  146.0570 C   0  0  2  0  0  3  0  0  0  0  0  0
  184.4880  178.5350  143.4980 C   0  0  1  0  0  3  0  0  0  0  0  0
  185.3090  179.2880  141.4180 O   0  0  0  0  0  0  0  0  0  0  0  0
  184.6860  178.6720  145.9330 C   0  0  0  0  0  2  0  0  0  0  0  0
  184.9220  179.4430  144.6390 C   0  0  2  0  0  3  0  0  0  0  0  0
  186.8820  178.0010  142.6870 C   0  0  2  0  0  3  0  0  0  0  0  0
  187.4440  177.2990  144.7470 C   0  0  1  0  0  3  0  0  0  0  0  0
  187.1290  176.8200  147.1000 F   0  0  0  0  0  0  0  0  0  0  0  0
  183.6860  179.7790  143.8370 C   0  0  0  0  0  2  0  0  0  0  0  0
  187.4370  178.4210  143.9070 O   0  0  0  0  0  0  0  0  0  0  0  0
  187.8620  178.2390  141.5820 C   0  0  0  0  0  0  0  0  0  0  0  0
  188.7530  179.1190  141.7250 O   0  0  0  0  0  0  0  0  0  0  0  0
  187.7640  177.5040  140.3980 O   0  0  0  0  0  0  0  0  0  0  0  0
  188.8420  177.4010  139.4710 C   0  0  2  0  0  3  0  0  0  0  0  0
  188.3390  176.8310  138.1420 C   0  0  1  0  0  3  0  0  0  0  0  0
  189.0230  179.1590  137.2580 C   0  0  0  0  0  1  0  0  0  0  0  0
  187.1300  177.6150  137.6690 C   0  0  0  0  0  2  0  0  0  0  0  0
  188.4490  177.7830  136.9430 C   0  0  2  0  0  3  0  0  0  0  0  0
  189.9940  176.5640  140.0340 C   0  0  0  0  0  2  0  0  0  0  0  0
  192.1810  177.6950  140.4350 O   0  0  0  0  0  1  0  0  0  0  0  0
  191.6980  176.8110  138.3770 O   0  0  0  0  0  0  0  0  0  0  0  0
  191.3340  177.0270  139.5620 C   0  0  0  0  0  0  0  0  0  0  0  0
  188.8920  176.9000  145.0050 C   0  0  0  0  0  2  0  0  0  0  0  0
  189.7820  178.1360  145.0120 C   0  0  0  0  0  2  0  0  0  0  0  0
  191.2230  177.8120  144.6300 C   0  0  0  0  0  0  0  0  0  0  0  0
  191.9440  177.4170  145.7580 O   0  0  0  0  0  1  0  0  0  0  0  0
  191.2650  176.7100  143.5870 C   0  0  0  0  0  1  0  0  0  0  0  0
  191.8630  179.0560  144.0480 C   0  0  0  0  0  1  0  0  0  0  0  0
  1  8  1  0  0  0  0
  1  4  1  0  0  0  0
  2  6  1  0  0  0  0
  2  3  1  0  0  0  0
  3 10  1  1  0  0  0
  4 11  1  6  0  0  0
  4  7  1  0  0  0  0
  5  1  2  0  0  0  0
  7 11  1  1  0  0  0
  7  6  1  0  0  0  0
  8 13  1  6  0  0  0
  8 12  1  0  0  0  0
  9 25  1  1  0  0  0
  9  3  1  0  0  0  0
 12  9  1  0  0  0  0
 13 14  2  0  0  0  0
 15 13  1  0  0  0  0
 16 21  1  1  0  0  0
 16 15  1  0  0  0  0
 17 16  1  1  0  0  0
 19 17  1  0  0  0  0
 20 18  1  1  0  0  0
 20 19  1  0  0  0  0
 20 17  1  0  0  0  0
 23 24  2  0  0  0  0
 24 21  1  0  0  0  0
 24 22  1  0  0  0  0
 25 26  1  0  0  0  0
 27 26  1  0  0  0  0
 27 28  1  0  0  0  0
 29 27  1  0  0  0  0
 30 27  1  0  0  0  0
M  END
>  <MODEL>
2

>  <REMARK>
 VINA RESULT:      -7.5      2.098      5.209
  Name = 
  9 active torsions:
  status: ('A' for Active; 'I' for Inactive)
    1  A    between atoms: C_1  and  O_4
    2  A    between atoms: C_1  and  C_22
    3  A    between atoms: O_4  and  C_12
    4  A    between atoms: C_7  and  C_10
    5  A    between atoms: C_7  and  C_25
    6  A    between atoms: C_8  and  C_12
    7  A    between atoms: C_9  and  C_12
    8  A    between atoms: C_9  and  C_21
    9  A    between atoms: C_23  and  C_25
                            x       y       z     vdW  Elec       q    Type
                         _______ _______ _______ _____ _____    ______ ____

>  <TORSDO>
F 9

$$$$
=
 OpenBabel10272413583D

 30 32  0  0  1  0  0  0  0  0999 V2000
  190.7880  176.9450  144.8610 C   0  0  0  0  0  0  0  0  0  0  0  0
  188.5360  178.4100  147.3480 O   0  0  0  0  0  0  0  0  0  0  0  0
  187.4430  177.7600  146.7510 C   0  0  2  0  0  3  0  0  0  0  0  0
  190.8960  177.4990  146.2450 C   0  0  1  0  0  3  0  0  0  0  0  0
  191.7510  176.3950  144.3430 O   0  0  0  0  0  0  0  0  0  0  0  0
  189.2640  177.4430  148.0670 C   0  0  0  0  0  2  0  0  0  0  0  0
  190.0710  176.5650  147.1170 C   0  0  2  0  0  3  0  0  0  0  0  0
  189.4870  177.1450  144.1090 C   0  0  2  0  0  3  0  0  0  0  0  0
  187.6220  177.7330  145.2180 C   0  0  1  0  0  3  0  0  0  0  0  0
  186.2830  178.4230  147.1130 F   0  0  0  0  0  0  0  0  0  0  0  0
  191.5720  176.6210  147.2830 C   0  0  0  0  0  2  0  0  0  0  0  0
  188.4100  176.6320  144.8490 O   0  0  0  0  0  0  0  0  0  0  0  0
  189.4970  176.5280  142.7460 C   0  0  0  0  0  0  0  0  0  0  0  0
  188.8590  175.4590  142.5480 O   0  0  0  0  0  0  0  0  0  0  0  0
  190.2300  177.1260  141.7180 O   0  0  0  0  0  0  0  0  0  0  0  0
  189.8030  177.1000  140.3590 C   0  0  2  0  0  3  0  0  0  0  0  0
  190.8950  177.6770  139.4540 C   0  0  1  0  0  3  0  0  0  0  0  0
  190.7450  175.3530  138.3390 C   0  0  0  0  0  1  0  0  0  0  0  0
  192.1820  176.8960  139.6380 C   0  0  0  0  0  2  0  0  0  0  0  0
  191.3950  176.7310  138.3530 C   0  0  2  0  0  3  0  0  0  0  0  0
  188.4760  177.8400  140.1690 C   0  0  0  0  0  2  0  0  0  0  0  0
  188.2000  179.1310  138.0530 O   0  0  0  0  0  0  0  0  0  0  0  0
  187.5900  176.9240  138.1470 O   0  0  0  0  0  1  0  0  0  0  0  0
  188.0610  177.9310  138.7370 C   0  0  0  0  0  0  0  0  0  0  0  0
  186.2870  177.6330  144.4900 C   0  0  0  0  0  2  0  0  0  0  0  0
  186.4510  178.0540  143.0360 C   0  0  0  0  0  2  0  0  0  0  0  0
  185.2810  178.9000  142.5440 C   0  0  0  0  0  0  0  0  0  0  0  0
  185.7290  179.8670  141.6430 O   0  0  0  0  0  1  0  0  0  0  0  0
  184.2350  178.0260  141.8740 C   0  0  0  0  0  1  0  0  0  0  0  0
  184.6460  179.5910  143.7320 C   0  0  0  0  0  1  0  0  0  0  0  0
  1  4  1  0  0  0  0
  2  6  1  0  0  0  0
  3 10  1  6  0  0  0
  3  2  1  0  0  0  0
  4  7  1  0  0  0  0
  4 11  1  1  0  0  0
  5  1  2  0  0  0  0
  7 11  1  1  0  0  0
  7  6  1  0  0  0  0
  8 13  1  6  0  0  0
  8 12  1  0  0  0  0
  8  1  1  0  0  0  0
  9 25  1  6  0  0  0
  9  3  1  0  0  0  0
 12  9  1  0  0  0  0
 14 13  2  0  0  0  0
 15 13  1  0  0  0  0
 16 21  1  1  0  0  0
 16 15  1  0  0  0  0
 17 19  1  0  0  0  0
 17 16  1  1  0  0  0
 20 18  1  1  0  0  0
 20 17  1  0  0  0  0
 20 19  1  0  0  0  0
 22 24  2  0  0  0  0
 23 24  1  0  0  0  0
 24 21  1  0  0  0  0
 26 25  1  0  0  0  0
 27 26  1  0  0  0  0
 27 30  1  0  0  0  0
 28 27  1  0  0  0  0
 29 27  1  0  0  0  0
M  END
>  <MODEL>
3

>  <REMARK>
 VINA RESULT:      -7.3      2.037      3.363
  Name = 
  9 active torsions:
  status: ('A' for Active; 'I' for Inactive)
    1  A    between atoms: C_1  and  O_4
    2  A    between atoms: C_1  and  C_22
    3  A    between atoms: O_4  and  C_12
    4  A    between atoms: C_7  and  C_10
    5  A    between atoms: C_7  and  C_25
    6  A    between atoms: C_8  and  C_12
    7  A    between atoms: C_9  and  C_12
    8  A    between atoms: C_9  and  C_21
    9  A    between atoms: C_23  and  C_25
                            x       y       z     vdW  Elec       q    Type
                         _______ _______ _______ _____ _____    ______ ____

>  <TORSDO>
F 9

$$$$
=
 OpenBabel10272413583D

 30 32  0  0  1  0  0  0  0  0999 V2000
  185.7110  178.5060  142.4930 C   0  0  0  0  0  0  0  0  0  0  0  0
  185.3530  177.4080  145.9680 O   0  0  0  0  0  0  0  0  0  0  0  0
  186.7120  177.6770  146.1990 C   0  0  2  0  0  3  0  0  0  0  0  0
  184.6070  178.3740  143.4920 C   0  0  1  0  0  3  0  0  0  0  0  0
  185.5040  179.0500  141.4160 O   0  0  0  0  0  0  0  0  0  0  0  0
  184.6770  178.6430  145.9220 C   0  0  0  0  0  2  0  0  0  0  0  0
  184.9510  179.3550  144.6020 C   0  0  2  0  0  3  0  0  0  0  0  0
  187.0560  177.8910  142.8270 C   0  0  2  0  0  3  0  0  0  0  0  0
  187.5390  177.3180  144.9460 C   0  0  1  0  0  3  0  0  0  0  0  0
  187.1230  176.9490  147.3030 F   0  0  0  0  0  0  0  0  0  0  0  0
  183.7450  179.6020  143.7250 C   0  0  0  0  0  2  0  0  0  0  0  0
  187.5350  178.3940  144.0470 O   0  0  0  0  0  0  0  0  0  0  0  0
  188.0820  178.1090  141.7590 C   0  0  0  0  0  0  0  0  0  0  0  0
  188.6070  179.2470  141.6300 O   0  0  0  0  0  0  0  0  0  0  0  0
  188.4250  177.0600  140.9030 O   0  0  0  0  0  0  0  0  0  0  0  0
  188.5490  177.2320  139.4930 C   0  0  2  0  0  3  0  0  0  0  0  0
  189.9250  177.8090  139.1540 C   0  0  1  0  0  3  0  0  0  0  0  0
  190.2160  175.5470  137.9450 C   0  0  0  0  0  1  0  0  0  0  0  0
  191.0100  176.9750  139.8060 C   0  0  0  0  0  2  0  0  0  0  0  0
  190.8220  176.8970  138.3050 C   0  0  2  0  0  3  0  0  0  0  0  0
  187.4250  178.1060  138.9300 C   0  0  0  0  0  2  0  0  0  0  0  0
  187.4040  177.0890  136.6520 O   0  0  0  0  0  0  0  0  0  0  0  0
  187.5770  179.3600  136.9010 O   0  0  0  0  0  1  0  0  0  0  0  0
  187.4750  178.2290  137.4420 C   0  0  0  0  0  0  0  0  0  0  0  0
  188.9850  176.9880  145.2940 C   0  0  0  0  0  2  0  0  0  0  0  0
  189.8670  178.2110  145.0770 C   0  0  0  0  0  2  0  0  0  0  0  0
  191.2660  177.8370  144.5970 C   0  0  0  0  0  0  0  0  0  0  0  0
  192.0320  177.3620  145.6630 O   0  0  0  0  0  1  0  0  0  0  0  0
  191.1940  176.7770  143.5110 C   0  0  0  0  0  1  0  0  0  0  0  0
  191.9310  179.0720  144.0250 C   0  0  0  0  0  1  0  0  0  0  0  0
  1  8  1  0  0  0  0
  1  4  1  0  0  0  0
  2  3  1  0  0  0  0
  3 10  1  1  0  0  0
  4 11  1  6  0  0  0
  4  7  1  0  0  0  0
  5  1  2  0  0  0  0
  6  2  1  0  0  0  0
  7 11  1  6  0  0  0
  7  6  1  0  0  0  0
  8 13  1  6  0  0  0
  8 12  1  0  0  0  0
  9 25  1  1  0  0  0
  9  3  1  0  0  0  0
 12  9  1  0  0  0  0
 14 13  2  0  0  0  0
 15 13  1  0  0  0  0
 16 21  1  1  0  0  0
 16 15  1  0  0  0  0
 17 16  1  1  0  0  0
 17 19  1  0  0  0  0
 20 18  1  1  0  0  0
 20 17  1  0  0  0  0
 20 19  1  0  0  0  0
 22 24  2  0  0  0  0
 23 24  1  0  0  0  0
 24 21  1  0  0  0  0
 26 25  1  0  0  0  0
 27 26  1  0  0  0  0
 27 28  1  0  0  0  0
 29 27  1  0  0  0  0
 30 27  1  0  0  0  0
M  END
>  <MODEL>
4

>  <REMARK>
 VINA RESULT:      -7.2      2.106      4.905
  Name = 
  9 active torsions:
  status: ('A' for Active; 'I' for Inactive)
    1  A    between atoms: C_1  and  O_4
    2  A    between atoms: C_1  and  C_22
    3  A    between atoms: O_4  and  C_12
    4  A    between atoms: C_7  and  C_10
    5  A    between atoms: C_7  and  C_25
    6  A    between atoms: C_8  and  C_12
    7  A    between atoms: C_9  and  C_12
    8  A    between atoms: C_9  and  C_21
    9  A    between atoms: C_23  and  C_25
                            x       y       z     vdW  Elec       q    Type
                         _______ _______ _______ _____ _____    ______ ____

>  <TORSDO>
F 9

$$$$
=
 OpenBabel10272413583D

 30 32  0  0  1  0  0  0  0  0999 V2000
  187.7520  177.5640  144.2960 C   0  0  0  0  0  0  0  0  0  0  0  0
  191.2400  176.5750  143.7830 O   0  0  0  0  0  0  0  0  0  0  0  0
  191.3300  177.4410  142.6810 C   0  0  2  0  0  3  0  0  0  0  0  0
  188.8600  176.9880  145.1180 C   0  0  1  0  0  3  0  0  0  0  0  0
  186.7060  177.9070  144.8290 O   0  0  0  0  0  0  0  0  0  0  0  0
  191.2710  177.3650  144.9480 C   0  0  0  0  0  2  0  0  0  0  0  0
  189.9330  178.0650  145.1560 C   0  0  2  0  0  3  0  0  0  0  0  0
  187.9420  177.6420  142.7940 C   0  0  2  0  0  3  0  0  0  0  0  0
  189.9960  177.4430  141.9040 C   0  0  1  0  0  3  0  0  0  0  0  0
  192.3820  177.0280  141.8810 F   0  0  0  0  0  0  0  0  0  0  0  0
  189.1870  177.7000  146.4180 C   0  0  0  0  0  2  0  0  0  0  0  0
  189.1080  178.3600  142.4840 O   0  0  0  0  0  0  0  0  0  0  0  0
  186.7740  178.2550  142.0860 C   0  0  0  0  0  0  0  0  0  0  0  0
  186.9440  179.3040  141.4080 O   0  0  0  0  0  0  0  0  0  0  0  0
  185.5080  177.6770  142.2060 O   0  0  0  0  0  0  0  0  0  0  0  0
  184.3100  178.4480  142.1900 C   0  0  2  0  0  3  0  0  0  0  0  0
  184.1450  179.1330  140.8320 C   0  0  1  0  0  3  0  0  0  0  0  0
  181.8130  178.0290  140.9210 C   0  0  0  0  0  1  0  0  0  0  0  0
  183.9910  178.0900  139.7420 C   0  0  0  0  0  2  0  0  0  0  0  0
  182.7870  178.9140  140.1520 C   0  0  2  0  0  3  0  0  0  0  0  0
  184.2770  179.4650  143.3340 C   0  0  0  0  0  2  0  0  0  0  0  0
  183.8360  179.0770  145.7590 O   0  0  0  0  0  1  0  0  0  0  0  0
  182.1910  178.6930  144.2090 O   0  0  0  0  0  0  0  0  0  0  0  0
  183.3720  179.0550  144.4500 C   0  0  0  0  0  0  0  0  0  0  0  0
  190.1900  177.8210  140.4410 C   0  0  0  0  0  2  0  0  0  0  0  0
  189.1630  177.1050  139.5750 C   0  0  0  0  0  2  0  0  0  0  0  0
  188.7810  177.9170  138.3410 C   0  0  0  0  0  0  0  0  0  0  0  0
  188.9980  179.2760  138.5700 O   0  0  0  0  0  1  0  0  0  0  0  0
  189.5890  177.4680  137.1360 C   0  0  0  0  0  1  0  0  0  0  0  0
  187.3110  177.6960  138.0490 C   0  0  0  0  0  1  0  0  0  0  0  0
  1  5  2  0  0  0  0
  1  4  1  0  0  0  0
  2  6  1  0  0  0  0
  3 10  1  6  0  0  0
  3  2  1  0  0  0  0
  4  7  1  0  0  0  0
  4 11  1  1  0  0  0
  7  6  1  1  0  0  0
  7 11  1  0  0  0  0
  8 13  1  6  0  0  0
  8  1  1  0  0  0  0
  9 25  1  6  0  0  0
  9 12  1  0  0  0  0
  9  3  1  0  0  0  0
 12  8  1  0  0  0  0
 13 15  1  0  0  0  0
 14 13  2  0  0  0  0
 16 15  1  0  0  0  0
 16 21  1  1  0  0  0
 17 16  1  1  0  0  0
 19 20  1  0  0  0  0
 19 17  1  0  0  0  0
 20 17  1  0  0  0  0
 20 18  1  1  0  0  0
 21 24  1  0  0  0  0
 23 24  2  0  0  0  0
 24 22  1  0  0  0  0
 26 25  1  0  0  0  0
 27 28  1  0  0  0  0
 27 26  1  0  0  0  0
 29 27  1  0  0  0  0
 30 27  1  0  0  0  0
M  END
>  <MODEL>
5

>  <REMARK>
 VINA RESULT:      -7.2      2.438      6.138
  Name = 
  9 active torsions:
  status: ('A' for Active; 'I' for Inactive)
    1  A    between atoms: C_1  and  O_4
    2  A    between atoms: C_1  and  C_22
    3  A    between atoms: O_4  and  C_12
    4  A    between atoms: C_7  and  C_10
    5  A    between atoms: C_7  and  C_25
    6  A    between atoms: C_8  and  C_12
    7  A    between atoms: C_9  and  C_12
    8  A    between atoms: C_9  and  C_21
    9  A    between atoms: C_23  and  C_25
                            x       y       z     vdW  Elec       q    Type
                         _______ _______ _______ _____ _____    ______ ____

>  <TORSDO>
F 9

$$$$
=
 OpenBabel10272413583D

 30 32  0  0  1  0  0  0  0  0999 V2000
  189.9470  178.0480  142.5630 C   0  0  0  0  0  0  0  0  0  0  0  0
  187.4520  178.2900  145.2320 O   0  0  0  0  0  0  0  0  0  0  0  0
  186.4980  177.6720  144.4060 C   0  0  2  0  0  3  0  0  0  0  0  0
  189.9440  178.1710  144.0530 C   0  0  1  0  0  3  0  0  0  0  0  0
  190.9960  177.8530  141.9650 O   0  0  0  0  0  0  0  0  0  0  0  0
  188.3400  177.2920  145.6770 C   0  0  0  0  0  2  0  0  0  0  0  0
  189.2970  176.8910  144.5610 C   0  0  2  0  0  3  0  0  0  0  0  0
  188.6350  178.2390  141.8270 C   0  0  2  0  0  3  0  0  0  0  0  0
  186.6880  178.1380  142.9460 C   0  0  1  0  0  3  0  0  0  0  0  0
  185.2350  177.9870  144.8780 F   0  0  0  0  0  0  0  0  0  0  0  0
  190.7620  177.1520  144.8250 C   0  0  0  0  0  2  0  0  0  0  0  0
  187.6640  177.3510  142.3180 O   0  0  0  0  0  0  0  0  0  0  0  0
  188.7640  178.0700  140.3460 C   0  0  0  0  0  0  0  0  0  0  0  0
  188.6080  179.0710  139.5950 O   0  0  0  0  0  0  0  0  0  0  0  0
  189.0280  176.8070  139.8110 O   0  0  0  0  0  0  0  0  0  0  0  0
  189.8850  176.6150  138.6880 C   0  0  2  0  0  3  0  0  0  0  0  0
  189.1780  175.7710  137.6260 C   0  0  1  0  0  3  0  0  0  0  0  0
  189.1810  177.9980  136.3200 C   0  0  0  0  0  1  0  0  0  0  0  0
  187.7670  176.2840  137.4140 C   0  0  0  0  0  2  0  0  0  0  0  0
  188.8070  176.5200  136.3380 C   0  0  2  0  0  3  0  0  0  0  0  0
  191.2220  175.9910  139.0970 C   0  0  0  0  0  2  0  0  0  0  0  0
  193.4850  177.0350  138.9960 O   0  0  0  0  0  1  0  0  0  0  0  0
  192.3550  176.5370  137.0650 O   0  0  0  0  0  0  0  0  0  0  0  0
  192.3780  176.5350  138.3240 C   0  0  0  0  0  0  0  0  0  0  0  0
  185.3970  178.0340  142.1430 C   0  0  0  0  0  2  0  0  0  0  0  0
  185.2700  179.2240  141.2020 C   0  0  0  0  0  2  0  0  0  0  0  0
  184.3930  178.9130  139.9930 C   0  0  0  0  0  0  0  0  0  0  0  0
  183.6910  180.0530  139.5990 O   0  0  0  0  0  1  0  0  0  0  0  0
  185.2370  178.4090  138.8350 C   0  0  0  0  0  1  0  0  0  0  0  0
  183.4020  177.8330  140.3760 C   0  0  0  0  0  1  0  0  0  0  0  0
  1  4  1  0  0  0  0
  2  6  1  0  0  0  0
  3 10  1  1  0  0  0
  3  2  1  0  0  0  0
  4  7  1  0  0  0  0
  4 11  1  1  0  0  0
  5  1  2  0  0  0  0
  7 11  1  1  0  0  0
  7  6  1  0  0  0  0
  8 13  1  6  0  0  0
  8 12  1  0  0  0  0
  8  1  1  0  0  0  0
  9 25  1  6  0  0  0
  9  3  1  0  0  0  0
 12  9  1  0  0  0  0
 14 13  2  0  0  0  0
 15 13  1  0  0  0  0
 16 21  1  1  0  0  0
 16 15  1  0  0  0  0
 17 16  1  1  0  0  0
 19 17  1  0  0  0  0
 20 18  1  1  0  0  0
 20 19  1  0  0  0  0
 20 17  1  0  0  0  0
 23 24  2  0  0  0  0
 24 22  1  0  0  0  0
 24 21  1  0  0  0  0
 26 25  1  0  0  0  0
 27 30  1  0  0  0  0
 27 26  1  0  0  0  0
 28 27  1  0  0  0  0
 29 27  1  0  0  0  0
M  END
>  <MODEL>
6

>  <REMARK>
 VINA RESULT:      -7.1      2.046      3.810
  Name = 
  9 active torsions:
  status: ('A' for Active; 'I' for Inactive)
    1  A    between atoms: C_1  and  O_4
    2  A    between atoms: C_1  and  C_22
    3  A    between atoms: O_4  and  C_12
    4  A    between atoms: C_7  and  C_10
    5  A    between atoms: C_7  and  C_25
    6  A    between atoms: C_8  and  C_12
    7  A    between atoms: C_9  and  C_12
    8  A    between atoms: C_9  and  C_21
    9  A    between atoms: C_23  and  C_25
                            x       y       z     vdW  Elec       q    Type
                         _______ _______ _______ _____ _____    ______ ____

>  <TORSDO>
F 9

$$$$
=
 OpenBabel10272413583D

 30 32  0  0  1  0  0  0  0  0999 V2000
  190.7640  177.1790  144.1570 C   0  0  0  0  0  0  0  0  0  0  0  0
  188.9480  178.2370  147.1550 O   0  0  0  0  0  0  0  0  0  0  0  0
  187.7700  177.6590  146.6540 C   0  0  2  0  0  3  0  0  0  0  0  0
  191.0960  177.5330  145.5700 C   0  0  1  0  0  3  0  0  0  0  0  0
  191.6270  176.7260  143.4180 O   0  0  0  0  0  0  0  0  0  0  0  0
  189.7780  177.1910  147.6030 C   0  0  0  0  0  2  0  0  0  0  0  0
  190.4160  176.4710  146.4210 C   0  0  2  0  0  3  0  0  0  0  0  0
  189.3600  177.4610  143.6580 C   0  0  2  0  0  3  0  0  0  0  0  0
  187.7000  177.8520  145.1240 C   0  0  1  0  0  3  0  0  0  0  0  0
  186.6870  178.2440  147.2880 F   0  0  0  0  0  0  0  0  0  0  0  0
  191.9250  176.5290  146.3500 C   0  0  0  0  0  2  0  0  0  0  0  0
  188.4130  176.8300  144.4810 O   0  0  0  0  0  0  0  0  0  0  0  0
  189.1470  177.0430  142.2380 C   0  0  0  0  0  0  0  0  0  0  0  0
  189.0340  175.8180  141.9640 O   0  0  0  0  0  0  0  0  0  0  0  0
  189.1010  178.0090  141.2290 O   0  0  0  0  0  0  0  0  0  0  0  0
  189.6250  177.7780  139.9240 C   0  0  2  0  0  3  0  0  0  0  0  0
  188.5630  177.1190  139.0410 C   0  0  1  0  0  3  0  0  0  0  0  0
  188.9940  179.1800  137.5470 C   0  0  0  0  0  1  0  0  0  0  0  0
  187.3350  178.0060  138.9620 C   0  0  0  0  0  2  0  0  0  0  0  0
  188.2310  177.8760  137.7470 C   0  0  2  0  0  3  0  0  0  0  0  0
  190.9070  176.9420  139.9700 C   0  0  0  0  0  2  0  0  0  0  0  0
  190.8510  174.9510  138.4670 O   0  0  0  0  0  1  0  0  0  0  0  0
  191.7950  176.9130  137.7510 O   0  0  0  0  0  0  0  0  0  0  0  0
  191.2140  176.2760  138.6680 C   0  0  0  0  0  0  0  0  0  0  0  0
  186.2650  177.8330  144.6120 C   0  0  0  0  0  2  0  0  0  0  0  0
  186.2460  178.0150  143.1000 C   0  0  0  0  0  2  0  0  0  0  0  0
  185.0980  178.9070  142.6400 C   0  0  0  0  0  0  0  0  0  0  0  0
  185.5760  179.9150  141.8010 O   0  0  0  0  0  1  0  0  0  0  0  0
  184.0480  178.0920  141.9080 C   0  0  0  0  0  1  0  0  0  0  0  0
  184.4580  179.5430  143.8560 C   0  0  0  0  0  1  0  0  0  0  0  0
  1  4  1  0  0  0  0
  2  6  1  0  0  0  0
  3  2  1  0  0  0  0
  3 10  1  1  0  0  0
  4 11  1  6  0  0  0
  4  7  1  0  0  0  0
  5  1  2  0  0  0  0
  7 11  1  1  0  0  0
  7  6  1  0  0  0  0
  8 13  1  6  0  0  0
  8  1  1  0  0  0  0
  8 12  1  0  0  0  0
  9 25  1  6  0  0  0
  9  3  1  0  0  0  0
 12  9  1  0  0  0  0
 14 13  2  0  0  0  0
 15 13  1  0  0  0  0
 16 21  1  1  0  0  0
 16 15  1  0  0  0  0
 17 16  1  1  0  0  0
 19 17  1  0  0  0  0
 20 18  1  1  0  0  0
 20 19  1  0  0  0  0
 20 17  1  0  0  0  0
 22 24  1  0  0  0  0
 23 24  2  0  0  0  0
 24 21  1  0  0  0  0
 26 25  1  0  0  0  0
 27 26  1  0  0  0  0
 27 30  1  0  0  0  0
 28 27  1  0  0  0  0
 29 27  1  0  0  0  0
M  END
>  <MODEL>
7

>  <REMARK>
 VINA RESULT:      -7.1      2.156      3.960
  Name = 
  9 active torsions:
  status: ('A' for Active; 'I' for Inactive)
    1  A    between atoms: C_1  and  O_4
    2  A    between atoms: C_1  and  C_22
    3  A    between atoms: O_4  and  C_12
    4  A    between atoms: C_7  and  C_10
    5  A    between atoms: C_7  and  C_25
    6  A    between atoms: C_8  and  C_12
    7  A    between atoms: C_9  and  C_12
    8  A    between atoms: C_9  and  C_21
    9  A    between atoms: C_23  and  C_25
                            x       y       z     vdW  Elec       q    Type
                         _______ _______ _______ _____ _____    ______ ____

>  <TORSDO>
F 9

$$$$
=
 OpenBabel10272413583D

 30 32  0  0  1  0  0  0  0  0999 V2000
  186.7740  177.6540  144.0330 C   0  0  0  0  0  0  0  0  0  0  0  0
  190.0560  176.5190  142.8710 O   0  0  0  0  0  0  0  0  0  0  0  0
  190.0490  177.5030  141.8690 C   0  0  2  0  0  3  0  0  0  0  0  0
  187.9440  176.9170  144.6020 C   0  0  1  0  0  3  0  0  0  0  0  0
  185.8510  177.9950  144.7590 O   0  0  0  0  0  0  0  0  0  0  0  0
  190.3240  177.1620  144.0950 C   0  0  0  0  0  2  0  0  0  0  0  0
  189.0930  177.9140  144.5860 C   0  0  2  0  0  3  0  0  0  0  0  0
  186.7420  177.8990  142.5370 C   0  0  2  0  0  3  0  0  0  0  0  0
  188.6180  177.6800  141.3170 C   0  0  1  0  0  3  0  0  0  0  0  0
  190.9320  177.1250  140.8720 F   0  0  0  0  0  0  0  0  0  0  0  0
  188.5180  177.4470  145.9040 C   0  0  0  0  0  2  0  0  0  0  0  0
  187.9020  178.5750  142.1260 O   0  0  0  0  0  0  0  0  0  0  0  0
  185.5340  178.6630  142.0940 C   0  0  0  0  0  0  0  0  0  0  0  0
  185.6100  179.9140  141.9590 O   0  0  0  0  0  0  0  0  0  0  0  0
  184.3330  177.9880  141.8590 O   0  0  0  0  0  0  0  0  0  0  0  0
  183.4860  178.2950  140.7550 C   0  0  2  0  0  3  0  0  0  0  0  0
  182.0590  177.8250  141.0410 C   0  0  1  0  0  3  0  0  0  0  0  0
  181.4400  180.0250  139.8410 C   0  0  0  0  0  1  0  0  0  0  0  0
  181.3770  178.7930  141.9890 C   0  0  0  0  0  2  0  0  0  0  0  0
  180.9510  178.7590  140.5350 C   0  0  2  0  0  3  0  0  0  0  0  0
  184.0190  177.6950  139.4510 C   0  0  0  0  0  2  0  0  0  0  0  0
  185.5180  178.2520  137.5360 O   0  0  0  0  0  0  0  0  0  0  0  0
  184.6960  179.9150  138.8810 O   0  0  0  0  0  1  0  0  0  0  0  0
  184.7600  178.6870  138.6150 C   0  0  0  0  0  0  0  0  0  0  0  0
  188.6200  178.2180  139.8910 C   0  0  0  0  0  2  0  0  0  0  0  0
  188.4130  177.0780  138.9030 C   0  0  0  0  0  2  0  0  0  0  0  0
  189.0420  177.3710  137.5440 C   0  0  0  0  0  0  0  0  0  0  0  0
  188.3730  176.6680  136.5410 O   0  0  0  0  0  1  0  0  0  0  0  0
  188.9930  178.8580  137.2420 C   0  0  0  0  0  1  0  0  0  0  0  0
  190.4900  176.9290  137.5720 C   0  0  0  0  0  1  0  0  0  0  0  0
  1  4  1  0  0  0  0
  1  5  2  0  0  0  0
  2  6  1  0  0  0  0
  3 10  1  6  0  0  0
  3  2  1  0  0  0  0
  4 11  1  1  0  0  0
  7  6  1  1  0  0  0
  7  4  1  0  0  0  0
  7 11  1  0  0  0  0
  8 13  1  1  0  0  0
  8  1  1  0  0  0  0
  9 25  1  6  0  0  0
  9  3  1  0  0  0  0
  9 12  1  0  0  0  0
 12  8  1  0  0  0  0
 14 13  2  0  0  0  0
 15 13  1  0  0  0  0
 16 21  1  6  0  0  0
 16 15  1  0  0  0  0
 17 16  1  6  0  0  0
 17 19  1  0  0  0  0
 20 18  1  6  0  0  0
 20 17  1  0  0  0  0
 20 19  1  0  0  0  0
 22 24  2  0  0  0  0
 24 23  1  0  0  0  0
 24 21  1  0  0  0  0
 26 25  1  0  0  0  0
 27 30  1  0  0  0  0
 27 26  1  0  0  0  0
 28 27  1  0  0  0  0
 29 27  1  0  0  0  0
M  END
>  <MODEL>
8

>  <REMARK>
 VINA RESULT:      -7.0      2.431      6.065
  Name = 
  9 active torsions:
  status: ('A' for Active; 'I' for Inactive)
    1  A    between atoms: C_1  and  O_4
    2  A    between atoms: C_1  and  C_22
    3  A    between atoms: O_4  and  C_12
    4  A    between atoms: C_7  and  C_10
    5  A    between atoms: C_7  and  C_25
    6  A    between atoms: C_8  and  C_12
    7  A    between atoms: C_9  and  C_12
    8  A    between atoms: C_9  and  C_21
    9  A    between atoms: C_23  and  C_25
                            x       y       z     vdW  Elec       q    Type
                         _______ _______ _______ _____ _____    ______ ____

>  <TORSDO>
F 9

$$$$
=
 OpenBabel10272413583D

 30 32  0  0  1  0  0  0  0  0999 V2000
  189.9860  176.3130  138.8010 C   0  0  0  0  0  0  0  0  0  0  0  0
  188.0260  176.5220  135.7150 O   0  0  0  0  0  0  0  0  0  0  0  0
  187.4960  177.7550  136.1280 C   0  0  2  0  0  3  0  0  0  0  0  0
  190.0550  175.7470  137.4190 C   0  0  1  0  0  3  0  0  0  0  0  0
  190.9090  176.1360  139.5840 O   0  0  0  0  0  0  0  0  0  0  0  0
  189.3530  176.7470  135.3000 C   0  0  0  0  0  2  0  0  0  0  0  0
  190.2650  176.9450  136.5050 C   0  0  2  0  0  3  0  0  0  0  0  0
  188.7220  177.0420  139.2140 C   0  0  2  0  0  3  0  0  0  0  0  0
  187.2630  177.7420  137.6540 C   0  0  1  0  0  3  0  0  0  0  0  0
  186.3170  177.9810  135.4380 F   0  0  0  0  0  0  0  0  0  0  0  0
  191.3650  175.9220  136.6730 C   0  0  0  0  0  2  0  0  0  0  0  0
  188.4470  178.0890  138.3200 O   0  0  0  0  0  0  0  0  0  0  0  0
  188.7840  177.5790  140.6090 C   0  0  0  0  0  0  0  0  0  0  0  0
  188.4380  178.7710  140.8280 O   0  0  0  0  0  0  0  0  0  0  0  0
  189.2480  176.7650  141.6460 O   0  0  0  0  0  0  0  0  0  0  0  0
  189.0770  177.1040  143.0190 C   0  0  2  0  0  3  0  0  0  0  0  0
  190.2660  176.5960  143.8380 C   0  0  1  0  0  3  0  0  0  0  0  0
  190.8720  179.1040  143.9130 C   0  0  0  0  0  1  0  0  0  0  0  0
  191.5590  176.8700  143.0950 C   0  0  0  0  0  2  0  0  0  0  0  0
  191.2310  177.6840  144.3300 C   0  0  2  0  0  3  0  0  0  0  0  0
  187.7520  176.5720  143.5730 C   0  0  0  0  0  2  0  0  0  0  0  0
  185.7670  178.0750  143.7300 O   0  0  0  0  0  0  0  0  0  0  0  0
  187.3580  178.0860  145.3800 O   0  0  0  0  0  1  0  0  0  0  0  0
  186.9570  177.6190  144.2820 C   0  0  0  0  0  0  0  0  0  0  0  0
  186.1720  178.7200  138.0720 C   0  0  0  0  0  2  0  0  0  0  0  0
  185.0050  177.9660  138.6950 C   0  0  0  0  0  2  0  0  0  0  0  0
  184.2630  178.8040  139.7320 C   0  0  0  0  0  0  0  0  0  0  0  0
  185.1670  179.5640  140.4750 O   0  0  0  0  0  1  0  0  0  0  0  0
  183.2590  179.7230  139.0580 C   0  0  0  0  0  1  0  0  0  0  0  0
  183.5180  177.8740  140.6660 C   0  0  0  0  0  1  0  0  0  0  0  0
  1  8  1  0  0  0  0
  1  5  2  0  0  0  0
  2  3  1  0  0  0  0
  3 10  1  6  0  0  0
  3  9  1  0  0  0  0
  4 11  1  1  0  0  0
  4  1  1  0  0  0  0
  6  2  1  0  0  0  0
  7  6  1  6  0  0  0
  7 11  1  0  0  0  0
  7  4  1  0  0  0  0
  8 13  1  1  0  0  0
  9 25  1  6  0  0  0
  9 12  1  0  0  0  0
 12  8  1  0  0  0  0
 13 14  2  0  0  0  0
 13 15  1  0  0  0  0
 15 16  1  0  0  0  0
 16 21  1  1  0  0  0
 17 16  1  6  0  0  0
 17 20  1  0  0  0  0
 19 17  1  0  0  0  0
 19 20  1  0  0  0  0
 20 18  1  6  0  0  0
 21 24  1  0  0  0  0
 22 24  2  0  0  0  0
 24 23  1  0  0  0  0
 25 26  1  0  0  0  0
 26 27  1  0  0  0  0
 27 28  1  0  0  0  0
 27 30  1  0  0  0  0
 29 27  1  0  0  0  0
M  END
>  <MODEL>
9

>  <REMARK>
 VINA RESULT:      -6.8      2.534      6.260
  Name = 
  9 active torsions:
  status: ('A' for Active; 'I' for Inactive)
    1  A    between atoms: C_1  and  O_4
    2  A    between atoms: C_1  and  C_22
    3  A    between atoms: O_4  and  C_12
    4  A    between atoms: C_7  and  C_10
    5  A    between atoms: C_7  and  C_25
    6  A    between atoms: C_8  and  C_12
    7  A    between atoms: C_9  and  C_12
    8  A    between atoms: C_9  and  C_21
    9  A    between atoms: C_23  and  C_25
                            x       y       z     vdW  Elec       q    Type
                         _______ _______ _______ _____ _____    ______ ____

>  <TORSDO>
F 9

$$$$
