=
 OpenBabel10272400413D

 25 29  0  0  1  0  0  0  0  0999 V2000
  187.8160  177.5800  144.8190 N   0  0  0  0  0  0  0  0  0  0  0  0
  186.3980  177.5840  144.4410 C   0  0  2  0  0  3  0  0  0  0  0  0
  187.3340  178.0100  147.1340 C   0  0  0  0  0  3  0  0  0  0  0  0
  188.8470  176.7780  144.1730 C   0  0  2  0  0  3  0  0  0  0  0  0
  191.3870  178.0010  143.3610 C   0  0  0  0  0  2  0  0  0  0  0  0
  185.9850  178.4580  146.7350 C   0  0  0  0  0  3  0  0  0  0  0  0
  190.0600  176.7790  145.1510 C   0  0  1  0  0  3  0  0  0  0  0  0
  191.0910  177.8730  144.8450 C   0  0  0  0  0  2  0  0  0  0  0  0
  184.2500  178.8450  145.0510 C   0  0  0  0  0  0  0  0  0  0  0  0
  183.3080  179.1800  145.9670 F   0  0  0  0  0  0  0  0  0  0  0  0
  186.1790  178.1390  143.0580 C   0  0  0  0  0  3  0  0  0  0  0  0
  190.1030  178.3670  142.6430 C   0  0  0  0  0  2  0  0  0  0  0  0
  188.1840  177.6150  146.1880 C   0  0  0  0  0  0  0  0  0  0  0  0
  189.4720  177.0920  146.4480 N   0  0  0  0  0  2  0  0  0  0  0  0
  184.0150  179.0510  143.7520 C   0  0  0  0  0  3  0  0  0  0  0  0
  189.1420  177.1940  142.7270 C   0  0  0  0  0  2  0  0  0  0  0  0
  185.0440  178.7630  142.7200 C   0  0  0  0  0  0  0  0  0  0  0  0
  185.5590  178.3190  145.4710 C   0  0  0  0  0  0  0  0  0  0  0  0
  184.8870  179.2000  141.3640 N   0  0  0  0  0  2  0  0  0  0  0  0
  184.1140  178.5550  140.3420 C   0  0  0  0  0  0  0  0  0  0  0  0
  183.5610  177.4420  140.5510 O   0  0  0  0  0  0  0  0  0  0  0  0
  182.6780  179.8710  138.6710 C   0  0  1  0  0  3  0  0  0  0  0  0
  182.9880  178.4960  138.1180 C   0  0  0  0  0  2  0  0  0  0  0  0
  181.6070  179.7400  139.7450 C   0  0  0  0  0  1  0  0  0  0  0  0
  184.0220  179.1920  138.9850 C   0  0  2  0  0  3  0  0  0  0  0  0
  1 13  1  0  0  0  0
  2 11  1  6  0  0  0
  2  1  1  0  0  0  0
  2 18  1  0  0  0  0
  4 16  1  6  0  0  0
  4  1  1  0  0  0  0
  4  7  1  0  0  0  0
  5  8  1  0  0  0  0
  6  3  1  0  0  0  0
  7  8  1  6  0  0  0
  7 14  1  0  0  0  0
  9 18  1  0  0  0  0
  9 10  1  0  0  0  0
 12 16  1  0  0  0  0
 12  5  1  0  0  0  0
 13 14  1  0  0  0  0
 13  3  2  0  0  0  0
 15  9  2  0  0  0  0
 17 11  2  0  0  0  0
 17 15  1  0  0  0  0
 18  6  2  0  0  0  0
 19 17  1  0  0  0  0
 20 21  2  0  0  0  0
 20 19  1  0  0  0  0
 22 25  1  0  0  0  0
 22 24  1  1  0  0  0
 23 22  1  0  0  0  0
 23 25  1  0  0  0  0
 25 20  1  1  0  0  0
M  END
>  <MODEL>
1

>  <REMARK>
 VINA RESULT:      -9.4      0.000      0.000
  Name = 
  2 active torsions:
  status: ('A' for Active; 'I' for Inactive)
    1  A    between atoms: N_6  and  C_23
    2  A    between atoms: C_15  and  C_21
                            x       y       z     vdW  Elec       q    Type
                         _______ _______ _______ _____ _____    ______ ____

>  <TORSDO>
F 2

$$$$
=
 OpenBabel10272400413D

 25 29  0  0  1  0  0  0  0  0999 V2000
  188.6270  177.0910  144.2900 N   0  0  0  0  0  0  0  0  0  0  0  0
  187.1770  177.1370  144.5070 C   0  0  2  0  0  3  0  0  0  0  0  0
  189.1190  177.4540  146.6130 C   0  0  0  0  0  3  0  0  0  0  0  0
  189.2900  176.2890  143.2680 C   0  0  2  0  0  3  0  0  0  0  0  0
  191.3360  177.4860  141.5400 C   0  0  0  0  0  2  0  0  0  0  0  0
  187.7370  177.9430  146.7950 C   0  0  0  0  0  3  0  0  0  0  0  0
  190.7910  176.2330  143.6830 C   0  0  1  0  0  3  0  0  0  0  0  0
  191.6510  177.3150  143.0150 C   0  0  0  0  0  2  0  0  0  0  0  0
  185.4900  178.4210  145.9500 C   0  0  0  0  0  0  0  0  0  0  0  0
  185.0000  178.7450  147.1720 F   0  0  0  0  0  0  0  0  0  0  0  0
  186.4440  177.7410  143.3390 C   0  0  0  0  0  2  0  0  0  0  0  0
  189.8850  177.9010  141.4000 C   0  0  0  0  0  2  0  0  0  0  0  0
  189.5090  177.0730  145.3990 C   0  0  0  0  0  0  0  0  0  0  0  0
  190.7780  176.5150  145.1130 N   0  0  0  0  0  2  0  0  0  0  0  0
  184.7640  178.6740  144.8560 C   0  0  0  0  0  3  0  0  0  0  0  0
  188.9990  176.7460  141.8340 C   0  0  0  0  0  2  0  0  0  0  0  0
  185.2880  178.3990  143.4930 C   0  0  0  0  0  0  0  0  0  0  0  0
  186.8400  177.8540  145.8020 C   0  0  0  0  0  0  0  0  0  0  0  0
  184.6190  178.8830  142.3220 N   0  0  0  0  0  0  0  0  0  0  0  0
  185.1570  178.9410  140.9940 C   0  0  0  0  0  0  0  0  0  0  0  0
  186.3600  178.6400  140.7660 O   0  0  0  0  0  0  0  0  0  0  0  0
  183.2020  178.4460  139.4070 C   0  0  1  0  0  3  0  0  0  0  0  0
  184.4830  178.6050  138.6160 C   0  0  0  0  0  2  0  0  0  0  0  0
  183.2110  177.0850  140.0920 C   0  0  0  0  0  1  0  0  0  0  0  0
  184.2850  179.4320  139.8740 C   0  0  2  0  0  3  0  0  0  0  0  0
  1  2  1  0  0  0  0
  1 13  1  0  0  0  0
  2 11  1  6  0  0  0
  2 18  1  0  0  0  0
  3  6  1  0  0  0  0
  4 16  1  6  0  0  0
  4  7  1  0  0  0  0
  4  1  1  0  0  0  0
  5  8  1  0  0  0  0
  7  8  1  6  0  0  0
  7 14  1  0  0  0  0
  9 10  1  0  0  0  0
 11 17  1  0  0  0  0
 12  5  1  0  0  0  0
 12 16  1  0  0  0  0
 13  3  2  0  0  0  0
 14 13  1  0  0  0  0
 15  9  2  0  0  0  0
 17 15  1  0  0  0  0
 18  9  1  0  0  0  0
 18  6  2  0  0  0  0
 19 17  2  0  0  0  0
 20 19  1  0  0  0  0
 21 20  2  0  0  0  0
 22 25  1  0  0  0  0
 22 24  1  1  0  0  0
 23 22  1  0  0  0  0
 23 25  1  0  0  0  0
 25 20  1  1  0  0  0
M  END
>  <MODEL>
2

>  <REMARK>
 VINA RESULT:      -9.0      1.347      1.677
  Name = 
  2 active torsions:
  status: ('A' for Active; 'I' for Inactive)
    1  A    between atoms: N_6  and  C_23
    2  A    between atoms: C_15  and  C_21
                            x       y       z     vdW  Elec       q    Type
                         _______ _______ _______ _____ _____    ______ ____

>  <TORSDO>
F 2

$$$$
=
 OpenBabel10272400413D

 25 29  0  0  1  0  0  0  0  0999 V2000
  185.6820  178.5870  144.1470 N   0  0  0  0  0  0  0  0  0  0  0  0
  187.1380  178.4520  144.0240 C   0  0  2  0  0  3  0  0  0  0  0  0
  185.6960  178.0250  146.4830 C   0  0  0  0  0  3  0  0  0  0  0  0
  184.8640  179.5140  143.3740 C   0  0  2  0  0  3  0  0  0  0  0  0
  182.4090  178.5890  142.0630 C   0  0  0  0  0  2  0  0  0  0  0  0
  187.0460  177.4570  146.3040 C   0  0  0  0  0  3  0  0  0  0  0  0
  183.5010  179.6010  144.1220 C   0  0  1  0  0  3  0  0  0  0  0  0
  182.4430  178.6310  143.5800 C   0  0  0  0  0  2  0  0  0  0  0  0
  189.0120  176.9570  144.9330 C   0  0  0  0  0  0  0  0  0  0  0  0
  189.7380  176.4930  145.9800 F   0  0  0  0  0  0  0  0  0  0  0  0
  187.5490  177.9290  142.6730 C   0  0  0  0  0  3  0  0  0  0  0  0
  183.7610  178.1200  141.5620 C   0  0  0  0  0  2  0  0  0  0  0  0
  185.0720  178.5410  145.4260 C   0  0  0  0  0  0  0  0  0  0  0  0
  183.8120  179.1820  145.4830 N   0  0  0  0  0  2  0  0  0  0  0  0
  189.4570  176.7760  143.6860 C   0  0  0  0  0  3  0  0  0  0  0  0
  184.7970  179.1850  141.8780 C   0  0  0  0  0  2  0  0  0  0  0  0
  188.6630  177.2050  142.5060 C   0  0  0  0  0  0  0  0  0  0  0  0
  187.7050  177.5980  145.1440 C   0  0  0  0  0  0  0  0  0  0  0  0
  189.0200  176.8050  141.1760 N   0  0  0  0  0  2  0  0  0  0  0  0
  190.2830  177.0160  140.5310 C   0  0  0  0  0  0  0  0  0  0  0  0
  191.1920  177.6910  141.0860 O   0  0  0  0  0  0  0  0  0  0  0  0
  189.9940  177.3800  138.0070 C   0  0  1  0  0  3  0  0  0  0  0  0
  189.1720  176.1900  138.4570 C   0  0  0  0  0  2  0  0  0  0  0  0
  189.2890  178.6580  138.4430 C   0  0  0  0  0  1  0  0  0  0  0  0
  190.4950  176.4750  139.1460 C   0  0  2  0  0  3  0  0  0  0  0  0
  1 13  1  0  0  0  0
  2 11  1  6  0  0  0
  2  1  1  0  0  0  0
  2 18  1  0  0  0  0
  4 16  1  6  0  0  0
  4  7  1  0  0  0  0
  4  1  1  0  0  0  0
  5  8  1  0  0  0  0
  6  3  1  0  0  0  0
  7  8  1  6  0  0  0
  7 14  1  0  0  0  0
  9 18  1  0  0  0  0
  9 10  1  0  0  0  0
 12 16  1  0  0  0  0
 12  5  1  0  0  0  0
 13 14  1  0  0  0  0
 13  3  2  0  0  0  0
 15  9  2  0  0  0  0
 17 11  2  0  0  0  0
 17 15  1  0  0  0  0
 18  6  2  0  0  0  0
 19 17  1  0  0  0  0
 20 21  2  0  0  0  0
 20 19  1  0  0  0  0
 22 24  1  1  0  0  0
 22 23  1  0  0  0  0
 22 25  1  0  0  0  0
 23 25  1  0  0  0  0
 25 20  1  1  0  0  0
M  END
>  <MODEL>
3

>  <REMARK>
 VINA RESULT:      -8.8      3.155      5.767
  Name = 
  2 active torsions:
  status: ('A' for Active; 'I' for Inactive)
    1  A    between atoms: N_6  and  C_23
    2  A    between atoms: C_15  and  C_21
                            x       y       z     vdW  Elec       q    Type
                         _______ _______ _______ _____ _____    ______ ____

>  <TORSDO>
F 2

$$$$
=
 OpenBabel10272400413D

 25 29  0  0  1  0  0  0  0  0999 V2000
  187.4470  177.6690  144.7290 N   0  0  0  0  0  0  0  0  0  0  0  0
  186.5100  177.6440  143.6010 C   0  0  2  0  0  3  0  0  0  0  0  0
  185.7650  178.4020  146.2810 C   0  0  0  0  0  3  0  0  0  0  0  0
  188.5890  176.7750  144.8830 C   0  0  2  0  0  3  0  0  0  0  0  0
  191.2290  177.8450  145.5800 C   0  0  0  0  0  2  0  0  0  0  0  0
  184.9330  178.8140  145.1320 C   0  0  0  0  0  3  0  0  0  0  0  0
  189.0150  176.8850  146.3770 C   0  0  1  0  0  3  0  0  0  0  0  0
  190.1260  177.9150  146.6210 C   0  0  0  0  0  2  0  0  0  0  0  0
  184.5190  179.0040  142.7270 C   0  0  0  0  0  0  0  0  0  0  0  0
  183.2560  179.4680  142.8880 F   0  0  0  0  0  0  0  0  0  0  0  0
  187.1720  178.0180  142.3020 C   0  0  0  0  0  3  0  0  0  0  0  0
  190.6280  178.1340  144.2190 C   0  0  0  0  0  2  0  0  0  0  0  0
  186.9650  177.8750  146.0470 C   0  0  0  0  0  0  0  0  0  0  0  0
  187.8200  177.3720  147.0550 N   0  0  0  0  0  2  0  0  0  0  0  0
  185.0910  179.0430  141.5190 C   0  0  0  0  0  3  0  0  0  0  0  0
  189.6940  176.9950  143.8430 C   0  0  0  0  0  2  0  0  0  0  0  0
  186.4960  178.6090  141.3090 C   0  0  0  0  0  0  0  0  0  0  0  0
  185.2990  178.5180  143.8760 C   0  0  0  0  0  0  0  0  0  0  0  0
  187.1840  178.8690  140.0780 N   0  0  0  0  0  2  0  0  0  0  0  0
  188.3660  178.2090  139.6040 C   0  0  0  0  0  0  0  0  0  0  0  0
  188.9720  177.3680  140.3210 O   0  0  0  0  0  0  0  0  0  0  0  0
  188.3750  177.7530  137.0790 C   0  0  1  0  0  3  0  0  0  0  0  0
  189.7360  177.4450  137.6660 C   0  0  0  0  0  2  0  0  0  0  0  0
  187.4140  176.6310  137.4470 C   0  0  0  0  0  1  0  0  0  0  0  0
  188.9180  178.5790  138.2570 C   0  0  2  0  0  3  0  0  0  0  0  0
  1  4  1  0  0  0  0
  1 13  1  0  0  0  0
  2 11  1  6  0  0  0
  2 18  1  0  0  0  0
  2  1  1  0  0  0  0
  4 16  1  6  0  0  0
  4  7  1  0  0  0  0
  5  8  1  0  0  0  0
  6  3  1  0  0  0  0
  7  8  1  6  0  0  0
  7 14  1  0  0  0  0
  9 10  1  0  0  0  0
  9 18  1  0  0  0  0
 12  5  1  0  0  0  0
 13  3  2  0  0  0  0
 13 14  1  0  0  0  0
 15  9  2  0  0  0  0
 16 12  1  0  0  0  0
 17 15  1  0  0  0  0
 17 11  2  0  0  0  0
 18  6  2  0  0  0  0
 19 17  1  0  0  0  0
 20 19  1  0  0  0  0
 20 21  2  0  0  0  0
 22 24  1  1  0  0  0
 22 23  1  0  0  0  0
 22 25  1  0  0  0  0
 23 25  1  0  0  0  0
 25 20  1  1  0  0  0
M  END
>  <MODEL>
4

>  <REMARK>
 VINA RESULT:      -8.4      2.612      3.310
  Name = 
  2 active torsions:
  status: ('A' for Active; 'I' for Inactive)
    1  A    between atoms: N_6  and  C_23
    2  A    between atoms: C_15  and  C_21
                            x       y       z     vdW  Elec       q    Type
                         _______ _______ _______ _____ _____    ______ ____

>  <TORSDO>
F 2

$$$$
=
 OpenBabel10272400413D

 25 29  0  0  1  0  0  0  0  0999 V2000
  186.6060  178.2800  142.6060 N   0  0  0  0  0  0  0  0  0  0  0  0
  187.9780  178.2240  142.0880 C   0  0  2  0  0  3  0  0  0  0  0  0
  187.2220  177.2950  144.7100 C   0  0  0  0  0  3  0  0  0  0  0  0
  185.6270  179.3040  142.2610 C   0  0  2  0  0  3  0  0  0  0  0  0
  182.9030  178.5480  141.4790 C   0  0  0  0  0  2  0  0  0  0  0  0
  188.4710  176.8190  144.0830 C   0  0  0  0  0  3  0  0  0  0  0  0
  184.5080  179.2000  143.3390 C   0  0  1  0  0  3  0  0  0  0  0  0
  183.3320  178.3090  142.9150 C   0  0  0  0  0  2  0  0  0  0  0  0
  190.0050  176.6560  142.1810 C   0  0  0  0  0  0  0  0  0  0  0  0
  190.9730  176.0330  142.8980 F   0  0  0  0  0  0  0  0  0  0  0  0
  188.0160  177.9770  140.6030 C   0  0  0  0  0  3  0  0  0  0  0  0
  184.0710  178.2310  140.5660 C   0  0  0  0  0  2  0  0  0  0  0  0
  186.3510  177.9740  143.9670 C   0  0  0  0  0  0  0  0  0  0  0  0
  185.1580  178.5470  144.4690 N   0  0  0  0  0  2  0  0  0  0  0  0
  190.1060  176.7270  140.8500 C   0  0  0  0  0  3  0  0  0  0  0  0
  185.1680  179.2560  140.7990 C   0  0  0  0  0  2  0  0  0  0  0  0
  189.0380  177.3390  140.0190 C   0  0  0  0  0  0  0  0  0  0  0  0
  188.8060  177.1980  142.8410 C   0  0  0  0  0  0  0  0  0  0  0  0
  189.0300  177.2060  138.5920 N   0  0  0  0  0  2  0  0  0  0  0  0
  189.0650  178.2730  137.6350 C   0  0  0  0  0  0  0  0  0  0  0  0
  189.0060  179.4780  138.0020 O   0  0  0  0  0  0  0  0  0  0  0  0
  187.7330  177.7650  135.5010 C   0  0  1  0  0  3  0  0  0  0  0  0
  188.5460  176.5530  135.9050 C   0  0  0  0  0  2  0  0  0  0  0  0
  186.5290  177.8810  136.4260 C   0  0  0  0  0  1  0  0  0  0  0  0
  189.1060  177.9390  136.1710 C   0  0  2  0  0  3  0  0  0  0  0  0
  1 13  1  0  0  0  0
  2 11  1  6  0  0  0
  2  1  1  0  0  0  0
  2 18  1  0  0  0  0
  4 16  1  6  0  0  0
  4  1  1  0  0  0  0
  4  7  1  0  0  0  0
  5  8  1  0  0  0  0
  6  3  1  0  0  0  0
  7  8  1  6  0  0  0
  7 14  1  0  0  0  0
  9 18  1  0  0  0  0
  9 10  1  0  0  0  0
 12 16  1  0  0  0  0
 12  5  1  0  0  0  0
 13 14  1  0  0  0  0
 13  3  2  0  0  0  0
 15  9  2  0  0  0  0
 17 11  2  0  0  0  0
 17 15  1  0  0  0  0
 18  6  2  0  0  0  0
 19 17  1  0  0  0  0
 20 21  2  0  0  0  0
 20 19  1  0  0  0  0
 22 23  1  0  0  0  0
 22 25  1  0  0  0  0
 22 24  1  1  0  0  0
 23 25  1  0  0  0  0
 25 20  1  1  0  0  0
M  END
>  <MODEL>
5

>  <REMARK>
 VINA RESULT:      -8.3      3.652      5.722
  Name = 
  2 active torsions:
  status: ('A' for Active; 'I' for Inactive)
    1  A    between atoms: N_6  and  C_23
    2  A    between atoms: C_15  and  C_21
                            x       y       z     vdW  Elec       q    Type
                         _______ _______ _______ _____ _____    ______ ____

>  <TORSDO>
F 2

$$$$
=
 OpenBabel10272400413D

 25 29  0  0  1  0  0  0  0  0999 V2000
  187.6360  178.2860  139.7270 N   0  0  0  0  0  0  0  0  0  0  0  0
  187.2880  178.6320  141.1090 C   0  0  2  0  0  3  0  0  0  0  0  0
  185.3900  178.6170  138.9410 C   0  0  0  0  0  3  0  0  0  0  0  0
  188.9310  178.5380  139.1060 C   0  0  2  0  0  3  0  0  0  0  0  0
  190.2920  176.4200  137.6010 C   0  0  0  0  0  2  0  0  0  0  0  0
  184.9230  178.5300  140.3390 C   0  0  0  0  0  3  0  0  0  0  0  0
  188.6990  178.4000  137.5720 C   0  0  1  0  0  3  0  0  0  0  0  0
  189.0100  176.9990  137.0300 C   0  0  0  0  0  2  0  0  0  0  0  0
  185.3380  178.3010  142.7410 C   0  0  0  0  0  0  0  0  0  0  0  0
  184.0420  178.5160  143.0780 F   0  0  0  0  0  0  0  0  0  0  0  0
  188.0930  177.8490  142.1120 C   0  0  0  0  0  3  0  0  0  0  0  0
  190.1440  176.3080  139.1050 C   0  0  0  0  0  2  0  0  0  0  0  0
  186.6890  178.4790  138.6890 C   0  0  0  0  0  0  0  0  0  0  0  0
  187.2680  178.6190  137.4050 N   0  0  0  0  0  2  0  0  0  0  0  0
  186.1990  177.8630  143.6640 C   0  0  0  0  0  3  0  0  0  0  0  0
  190.0750  177.7050  139.6970 C   0  0  0  0  0  2  0  0  0  0  0  0
  187.6110  177.5480  143.3250 C   0  0  0  0  0  0  0  0  0  0  0  0
  185.7980  178.4770  141.3540 C   0  0  0  0  0  0  0  0  0  0  0  0
  188.4670  176.8600  144.2460 N   0  0  0  0  0  2  0  0  0  0  0  0
  189.5680  177.4230  144.9720 C   0  0  0  0  0  0  0  0  0  0  0  0
  189.9420  178.6090  144.7690 O   0  0  0  0  0  0  0  0  0  0  0  0
  189.7910  176.5700  147.3820 C   0  0  1  0  0  3  0  0  0  0  0  0
  191.0080  177.3900  147.0080 C   0  0  0  0  0  2  0  0  0  0  0  0
  188.6230  177.5120  147.6450 C   0  0  0  0  0  1  0  0  0  0  0  0
  190.3230  176.5570  145.9390 C   0  0  2  0  0  3  0  0  0  0  0  0
  1  2  1  0  0  0  0
  2 18  1  0  0  0  0
  2 11  1  1  0  0  0
  3  6  1  0  0  0  0
  4 16  1  1  0  0  0
  4  1  1  0  0  0  0
  5 12  1  0  0  0  0
  6 18  2  0  0  0  0
  7  8  1  1  0  0  0
  7  4  1  0  0  0  0
  8  5  1  0  0  0  0
  9 10  1  0  0  0  0
  9 15  2  0  0  0  0
 11 17  2  0  0  0  0
 12 16  1  0  0  0  0
 13  3  2  0  0  0  0
 13  1  1  0  0  0  0
 14  7  1  0  0  0  0
 14 13  1  0  0  0  0
 17 15  1  0  0  0  0
 17 19  1  0  0  0  0
 18  9  1  0  0  0  0
 19 20  1  0  0  0  0
 21 20  2  0  0  0  0
 22 24  1  6  0  0  0
 23 22  1  0  0  0  0
 25 20  1  6  0  0  0
 25 23  1  0  0  0  0
 25 22  1  0  0  0  0
M  END
>  <MODEL>
6

>  <REMARK>
 VINA RESULT:      -8.2      3.245      6.948
  Name = 
  2 active torsions:
  status: ('A' for Active; 'I' for Inactive)
    1  A    between atoms: N_6  and  C_23
    2  A    between atoms: C_15  and  C_21
                            x       y       z     vdW  Elec       q    Type
                         _______ _______ _______ _____ _____    ______ ____

>  <TORSDO>
F 2

$$$$
=
 OpenBabel10272400413D

 25 29  0  0  1  0  0  0  0  0999 V2000
  188.9100  177.2310  142.1090 N   0  0  0  0  0  0  0  0  0  0  0  0
  188.9670  176.9120  140.6780 C   0  0  2  0  0  3  0  0  0  0  0  0
  186.9860  178.6480  141.8490 C   0  0  0  0  0  3  0  0  0  0  0  0
  189.3160  176.3290  143.1790 C   0  0  2  0  0  3  0  0  0  0  0  0
  191.0630  177.2770  145.3360 C   0  0  0  0  0  2  0  0  0  0  0  0
  187.2730  178.7160  140.4030 C   0  0  0  0  0  3  0  0  0  0  0  0
  188.6970  176.9130  144.4840 C   0  0  1  0  0  3  0  0  0  0  0  0
  189.6530  177.8330  145.2550 C   0  0  0  0  0  2  0  0  0  0  0  0
  188.5800  178.0860  138.4310 C   0  0  0  0  0  0  0  0  0  0  0  0
  187.7470  178.7140  137.5650 F   0  0  0  0  0  0  0  0  0  0  0  0
  190.3800  176.7260  140.1920 C   0  0  0  0  0  3  0  0  0  0  0  0
  191.6060  177.1290  143.9280 C   0  0  0  0  0  2  0  0  0  0  0  0
  187.8000  177.9430  142.6320 C   0  0  0  0  0  0  0  0  0  0  0  0
  187.5900  177.7380  144.0160 N   0  0  0  0  0  2  0  0  0  0  0  0
  189.7620  177.6310  138.0030 C   0  0  0  0  0  3  0  0  0  0  0  0
  190.8220  176.0430  143.2120 C   0  0  0  0  0  2  0  0  0  0  0  0
  190.7350  176.9980  138.9300 C   0  0  0  0  0  0  0  0  0  0  0  0
  188.2320  177.9560  139.8550 C   0  0  0  0  0  0  0  0  0  0  0  0
  192.0840  176.7270  138.5290 N   0  0  0  0  0  2  0  0  0  0  0  0
  192.5810  175.5000  137.9770 C   0  0  0  0  0  0  0  0  0  0  0  0
  191.8430  174.4820  137.8860 O   0  0  0  0  0  0  0  0  0  0  0  0
  194.2990  175.7400  136.0850 C   0  0  1  0  0  3  0  0  0  0  0  0
  194.2440  174.3020  136.5560 C   0  0  0  0  0  2  0  0  0  0  0  0
  193.0690  176.0260  135.2320 C   0  0  0  0  0  1  0  0  0  0  0  0
  194.0230  175.4170  137.5630 C   0  0  2  0  0  3  0  0  0  0  0  0
  1 13  1  0  0  0  0
  1  4  1  0  0  0  0
  2 11  1  6  0  0  0
  2  1  1  0  0  0  0
  3 13  2  0  0  0  0
  4 16  1  1  0  0  0
  4  7  1  0  0  0  0
  6  3  1  0  0  0  0
  7  8  1  6  0  0  0
  8  5  1  0  0  0  0
  9 18  1  0  0  0  0
 10  9  1  0  0  0  0
 12  5  1  0  0  0  0
 13 14  1  0  0  0  0
 14  7  1  0  0  0  0
 15  9  2  0  0  0  0
 15 17  1  0  0  0  0
 16 12  1  0  0  0  0
 17 11  2  0  0  0  0
 18  6  2  0  0  0  0
 18  2  1  0  0  0  0
 19 17  1  0  0  0  0
 20 19  1  0  0  0  0
 21 20  2  0  0  0  0
 22 24  1  6  0  0  0
 22 23  1  0  0  0  0
 22 25  1  0  0  0  0
 23 25  1  0  0  0  0
 25 20  1  6  0  0  0
M  END
>  <MODEL>
7

>  <REMARK>
 VINA RESULT:      -7.7      5.027      7.228
  Name = 
  2 active torsions:
  status: ('A' for Active; 'I' for Inactive)
    1  A    between atoms: N_6  and  C_23
    2  A    between atoms: C_15  and  C_21
                            x       y       z     vdW  Elec       q    Type
                         _______ _______ _______ _____ _____    ______ ____

>  <TORSDO>
F 2

$$$$
=
 OpenBabel10272400413D

 25 29  0  0  1  0  0  0  0  0999 V2000
  188.3050  177.4790  137.7530 N   0  0  0  0  0  0  0  0  0  0  0  0
  187.9100  178.3830  138.8390 C   0  0  2  0  0  3  0  0  0  0  0  0
  186.1030  177.4570  136.7930 C   0  0  0  0  0  3  0  0  0  0  0  0
  189.6310  177.4350  137.1480 C   0  0  2  0  0  3  0  0  0  0  0  0
  190.9980  174.8710  136.7530 C   0  0  0  0  0  2  0  0  0  0  0  0
  185.5770  177.9760  138.0710 C   0  0  0  0  0  3  0  0  0  0  0  0
  189.4590  176.6590  135.8080 C   0  0  1  0  0  3  0  0  0  0  0  0
  189.7560  175.1580  135.9290 C   0  0  0  0  0  2  0  0  0  0  0  0
  185.8860  178.7890  140.3600 C   0  0  0  0  0  0  0  0  0  0  0  0
  184.5830  179.1340  140.5110 F   0  0  0  0  0  0  0  0  0  0  0  0
  188.6520  178.0970  140.1170 C   0  0  0  0  0  3  0  0  0  0  0  0
  190.7860  175.4110  138.1530 C   0  0  0  0  0  2  0  0  0  0  0  0
  187.4080  177.2180  136.6870 C   0  0  0  0  0  0  0  0  0  0  0  0
  188.0420  176.7950  135.4950 N   0  0  0  0  0  2  0  0  0  0  0  0
  186.6970  178.7810  141.4220 C   0  0  0  0  0  3  0  0  0  0  0  0
  190.7280  176.9270  138.0910 C   0  0  0  0  0  2  0  0  0  0  0  0
  188.1130  178.3440  141.3180 C   0  0  0  0  0  0  0  0  0  0  0  0
  186.4070  178.3560  139.0540 C   0  0  0  0  0  0  0  0  0  0  0  0
  188.9130  178.1080  142.4840 N   0  0  0  0  0  2  0  0  0  0  0  0
  188.9840  176.8910  143.2390 C   0  0  0  0  0  0  0  0  0  0  0  0
  188.2330  175.9150  142.9710 O   0  0  0  0  0  0  0  0  0  0  0  0
  189.3130  177.1910  145.7670 C   0  0  1  0  0  3  0  0  0  0  0  0
  190.1720  178.1830  145.0110 C   0  0  0  0  0  2  0  0  0  0  0  0
  187.8650  177.6640  145.7290 C   0  0  0  0  0  1  0  0  0  0  0  0
  189.9240  176.8110  144.4080 C   0  0  2  0  0  3  0  0  0  0  0  0
  1  2  1  0  0  0  0
  2 18  1  0  0  0  0
  2 11  1  1  0  0  0
  3  6  1  0  0  0  0
  4  1  1  0  0  0  0
  4 16  1  1  0  0  0
  5 12  1  0  0  0  0
  6 18  2  0  0  0  0
  7  8  1  1  0  0  0
  7  4  1  0  0  0  0
  8  5  1  0  0  0  0
  9 10  1  0  0  0  0
  9 15  2  0  0  0  0
 11 17  2  0  0  0  0
 13  3  2  0  0  0  0
 13  1  1  0  0  0  0
 14  7  1  0  0  0  0
 14 13  1  0  0  0  0
 16 12  1  0  0  0  0
 17 15  1  0  0  0  0
 17 19  1  0  0  0  0
 18  9  1  0  0  0  0
 19 20  1  0  0  0  0
 21 20  2  0  0  0  0
 22 24  1  6  0  0  0
 23 22  1  0  0  0  0
 25 20  1  6  0  0  0
 25 23  1  0  0  0  0
 25 22  1  0  0  0  0
M  END
>  <MODEL>
8

>  <REMARK>
 VINA RESULT:      -7.7      4.246      7.446
  Name = 
  2 active torsions:
  status: ('A' for Active; 'I' for Inactive)
    1  A    between atoms: N_6  and  C_23
    2  A    between atoms: C_15  and  C_21
                            x       y       z     vdW  Elec       q    Type
                         _______ _______ _______ _____ _____    ______ ____

>  <TORSDO>
F 2

$$$$
=
 OpenBabel10272400413D

 25 29  0  0  1  0  0  0  0  0999 V2000
  189.3600  177.7500  140.4780 N   0  0  0  0  0  0  0  0  0  0  0  0
  188.5930  178.2930  139.3520 C   0  0  2  0  0  3  0  0  0  0  0  0
  191.1430  176.9810  139.0620 C   0  0  0  0  0  3  0  0  0  0  0  0
  189.3580  178.2990  141.8280 C   0  0  2  0  0  3  0  0  0  0  0  0
  188.9950  176.5380  144.1460 C   0  0  0  0  0  2  0  0  0  0  0  0
  190.2310  177.0990  137.9070 C   0  0  0  0  0  3  0  0  0  0  0  0
  190.5990  177.6810  142.5390 C   0  0  1  0  0  3  0  0  0  0  0  0
  190.2750  176.4120  143.3400 C   0  0  0  0  0  2  0  0  0  0  0  0
  188.0740  177.6930  136.9130 C   0  0  0  0  0  0  0  0  0  0  0  0
  188.4980  177.4820  135.6420 F   0  0  0  0  0  0  0  0  0  0  0  0
  187.1070  178.1710  139.5640 C   0  0  0  0  0  3  0  0  0  0  0  0
  187.8440  176.7830  143.1910 C   0  0  0  0  0  2  0  0  0  0  0  0
  190.6840  177.2850  140.2740 C   0  0  0  0  0  0  0  0  0  0  0  0
  191.4780  177.2870  141.4450 N   0  0  0  0  0  2  0  0  0  0  0  0
  186.7730  177.8780  137.1560 C   0  0  0  0  0  3  0  0  0  0  0  0
  188.0160  178.1530  142.5560 C   0  0  0  0  0  2  0  0  0  0  0  0
  186.2550  178.0450  138.5380 C   0  0  0  0  0  0  0  0  0  0  0  0
  189.0180  177.6550  138.0410 C   0  0  0  0  0  0  0  0  0  0  0  0
  184.8510  178.0050  138.8220 N   0  0  0  0  0  2  0  0  0  0  0  0
  184.0040  179.1280  139.1040 C   0  0  0  0  0  0  0  0  0  0  0  0
  184.4820  180.2880  139.2210 O   0  0  0  0  0  0  0  0  0  0  0  0
  182.1380  178.5600  140.7710 C   0  0  1  0  0  3  0  0  0  0  0  0
  182.2580  177.4620  139.7350 C   0  0  0  0  0  2  0  0  0  0  0  0
  183.2900  178.4330  141.7590 C   0  0  0  0  0  1  0  0  0  0  0  0
  182.5360  178.8980  139.3250 C   0  0  2  0  0  3  0  0  0  0  0  0
  1  4  1  0  0  0  0
  2 11  1  1  0  0  0
  2  1  1  0  0  0  0
  3 13  2  0  0  0  0
  4  7  1  0  0  0  0
  4 16  1  1  0  0  0
  6 18  2  0  0  0  0
  6  3  1  0  0  0  0
  7  8  1  6  0  0  0
  8  5  1  0  0  0  0
  9 15  2  0  0  0  0
  9 18  1  0  0  0  0
 10  9  1  0  0  0  0
 12  5  1  0  0  0  0
 13  1  1  0  0  0  0
 13 14  1  0  0  0  0
 14  7  1  0  0  0  0
 15 17  1  0  0  0  0
 16 12  1  0  0  0  0
 17 19  1  0  0  0  0
 17 11  2  0  0  0  0
 18  2  1  0  0  0  0
 19 20  1  0  0  0  0
 20 21  2  0  0  0  0
 22 24  1  1  0  0  0
 23 22  1  0  0  0  0
 25 20  1  1  0  0  0
 25 23  1  0  0  0  0
 25 22  1  0  0  0  0
M  END
>  <MODEL>
9

>  <REMARK>
 VINA RESULT:      -7.6      3.766      5.494
  Name = 
  2 active torsions:
  status: ('A' for Active; 'I' for Inactive)
    1  A    between atoms: N_6  and  C_23
    2  A    between atoms: C_15  and  C_21
                            x       y       z     vdW  Elec       q    Type
                         _______ _______ _______ _____ _____    ______ ____

>  <TORSDO>
F 2

$$$$
