=
 OpenBabel10272401313D

 55 60  0  0  1  0  0  0  0  0999 V2000
  187.2520  176.7250  136.9130 C   0  0  1  0  0  3  0  0  0  0  0  0
  188.7530  176.7860  136.8910 C   0  0  0  0  0  0  0  0  0  0  0  0
  189.5590  176.6620  138.0730 N   0  0  0  0  0  2  0  0  0  0  0  0
  189.3270  176.8640  135.7720 O   0  0  0  0  0  0  0  0  0  0  0  0
  189.1280  176.8590  142.3640 C   0  0  2  0  0  0  0  0  0  0  0  0
  189.0670  176.8270  139.4330 C   0  0  2  0  0  3  0  0  0  0  0  0
  191.2580  175.8340  141.9050 F   0  0  0  0  0  0  0  0  0  0  0  0
  188.5160  178.7400  140.8460 O   0  0  0  0  0  0  0  0  0  0  0  0
  189.5010  178.1900  139.9720 C   0  0  1  0  0  3  0  0  0  0  0  0
  190.7270  177.8610  140.7600 C   0  0  1  0  0  3  0  0  0  0  0  0
  190.2300  176.5610  141.3310 C   0  0  2  0  0  0  0  0  0  0  0  0
  188.5470  175.7890  143.0520 O   0  0  0  0  0  1  0  0  0  0  0  0
  191.8110  177.6440  139.9030 O   0  0  0  0  0  1  0  0  0  0  0  0
  189.6510  175.8450  140.2640 O   0  0  0  0  0  0  0  0  0  0  0  0
  188.1680  177.9130  141.9660 C   0  0  2  0  0  3  0  0  0  0  0  0
  189.1350  178.1650  143.0650 N   0  0  0  0  0  0  0  0  0  0  0  0
  188.3640  178.1170  144.2980 C   0  0  0  0  0  2  0  0  0  0  0  0
  189.2970  177.8830  145.4690 C   0  0  0  0  0  2  0  0  0  0  0  0
  188.5200  177.2810  146.6190 C   0  0  0  0  0  2  0  0  0  0  0  0
  188.2560  178.1230  148.9300 C   0  0  0  0  0  1  0  0  0  0  0  0
  189.2400  177.5750  147.9190 C   0  0  0  0  0  2  0  0  0  0  0  0
  186.6750  178.1310  136.8320 C   0  0  0  0  0  2  0  0  0  0  0  0
  184.7780  178.7180  138.3930 C   0  0  0  0  0  0  0  0  0  0  0  0
  185.2690  178.1040  137.2040 N   0  0  0  0  0  2  0  0  0  0  0  0
  185.5810  179.1140  139.2850 O   0  0  0  0  0  0  0  0  0  0  0  0
  182.8770  180.1030  138.3780 O   0  0  0  0  0  0  0  0  0  0  0  0
  183.3290  178.9380  138.5400 C   0  0  0  0  0  0  0  0  0  0  0  0
  182.4350  177.8700  138.9100 N   0  0  0  0  0  0  0  0  0  0  0  0
  182.1620  176.4570  136.8890 C   0  0  0  0  0  2  0  0  0  0  0  0
  182.0730  175.0340  136.4140 C   0  0  0  0  0  3  0  0  0  0  0  0
  182.1010  175.4150  139.2720 C   0  0  0  0  0  2  0  0  0  0  0  0
  181.0690  174.5110  138.5890 C   0  0  0  0  0  2  0  0  0  0  0  0
  181.5500  174.1070  137.2230 C   0  0  0  0  0  3  0  0  0  0  0  0
  182.6500  176.5260  138.3470 C   0  0  2  0  0  3  0  0  0  0  0  0
  180.0680  177.7240  139.2510 C   0  0  0  0  0  2  0  0  0  0  0  0
  181.2480  178.1620  139.6770 C   0  0  0  0  0  0  0  0  0  0  0  0
  180.6880  179.4080  143.6230 O   0  0  0  0  0  0  0  0  0  0  0  0
  183.4570  177.9920  141.7140 C   0  0  0  0  0  2  0  0  0  0  0  0
  184.5850  178.4720  142.6160 C   0  0  0  0  0  2  0  0  0  0  0  0
  181.3270  179.0250  140.8770 C   0  0  0  0  0  0  0  0  0  0  0  0
  181.8790  179.1180  143.3200 C   0  0  0  0  0  0  0  0  0  0  0  0
  180.6140  180.0650  140.9190 O   0  0  0  0  0  0  0  0  0  0  0  0
  182.9430  179.2540  144.3680 C   0  0  0  0  0  2  0  0  0  0  0  0
  184.1400  178.3510  144.0700 C   0  0  2  0  0  3  0  0  0  0  0  0
  182.2160  178.7280  141.9720 N   0  0  0  0  0  0  0  0  0  0  0  0
  185.2450  178.5790  145.0080 N   0  0  0  0  0  2  0  0  0  0  0  0
  185.6350  179.1290  147.2330 F   0  0  0  0  0  0  0  0  0  0  0  0
  184.8020  178.4200  146.3910 C   0  0  0  0  0  2  0  0  0  0  0  0
  186.7420  175.9070  135.8640 O   0  0  0  0  0  0  0  0  0  0  0  0
  184.6360  172.3250  136.4670 C   0  0  0  0  0  3  0  0  0  0  0  0
  186.0560  174.7080  136.0870 C   0  0  0  0  0  0  0  0  0  0  0  0
  185.6070  173.9730  134.9860 C   0  0  0  0  0  3  0  0  0  0  0  0
  185.0920  173.0470  137.5710 C   0  0  0  0  0  3  0  0  0  0  0  0
  184.8960  172.7870  135.1750 C   0  0  0  0  0  3  0  0  0  0  0  0
  185.8030  174.2340  137.3830 C   0  0  0  0  0  3  0  0  0  0  0  0
  1 22  1  6  0  0  0
  2  1  1  0  0  0  0
  2  3  1  0  0  0  0
  4  2  2  0  0  0  0
  5 12  1  1  0  0  0
  5 16  1  0  0  0  0
  6  3  1  6  0  0  0
  6  9  1  0  0  0  0
  6 14  1  0  0  0  0
  9 10  1  0  0  0  0
  9  8  1  1  0  0  0
 10 13  1  6  0  0  0
 10 11  1  0  0  0  0
 11  7  1  1  0  0  0
 11  5  1  0  0  0  0
 14 11  1  0  0  0  0
 15  8  1  6  0  0  0
 15  5  1  0  0  0  0
 15 16  1  0  0  0  0
 16 17  1  0  0  0  0
 17 18  1  0  0  0  0
 18 19  1  0  0  0  0
 19 21  1  0  0  0  0
 21 20  1  0  0  0  0
 22 24  1  0  0  0  0
 23 27  1  0  0  0  0
 23 25  2  0  0  0  0
 24 23  1  0  0  0  0
 26 27  2  0  0  0  0
 27 28  1  0  0  0  0
 28 36  1  0  0  0  0
 29 34  1  0  0  0  0
 30 29  1  0  0  0  0
 30 33  2  0  0  0  0
 32 31  1  0  0  0  0
 33 32  1  0  0  0  0
 34 28  1  1  0  0  0
 34 31  1  0  0  0  0
 35 36  2  0  0  0  0
 36 40  1  0  0  0  0
 38 45  1  0  0  0  0
 38 39  1  0  0  0  0
 39 44  1  0  0  0  0
 40 42  2  0  0  0  0
 40 45  1  0  0  0  0
 41 37  2  0  0  0  0
 41 43  1  0  0  0  0
 44 43  1  0  0  0  0
 44 46  1  1  0  0  0
 45 41  1  0  0  0  0
 46 48  1  0  0  0  0
 48 47  1  0  0  0  0
 49 51  1  0  0  0  0
 49  1  1  0  0  0  0
 50 53  1  0  0  0  0
 51 55  1  0  0  0  0
 52 54  1  0  0  0  0
 52 51  2  0  0  0  0
 54 50  2  0  0  0  0
 55 53  2  0  0  0  0
M  END
>  <MODEL>
1

>  <REMARK>
 VINA RESULT:      -7.5      0.000      0.000
  Name = 
  16 active torsions:
  status: ('A' for Active; 'I' for Inactive)
    1  A    between atoms: C_3  and  C_25
    2  A    between atoms: C_3  and  C_38
    3  A    between atoms: C_4  and  N_37
    4  A    between atoms: C_4  and  C_54
    5  A    between atoms: C_6  and  N_22
    6  A    between atoms: C_8  and  C_54
    7  A    between atoms: N_10  and  C_47
    8  A    between atoms: N_10  and  C_48
    9  A    between atoms: C_19  and  C_35
   10  A    between atoms: C_26  and  N_45
   11  A    between atoms: C_27  and  O_51
   12  A    between atoms: C_29  and  C_38
   13  A    between atoms: C_29  and  N_53
   14  A    between atoms: C_33  and  C_49
   15  A    between atoms: N_45  and  C_49
   16  A    between atoms: O_51  and  C_54
                            x       y       z     vdW  Elec       q    Type
                         _______ _______ _______ _____ _____    ______ ____

>  <TORSDO>
F 16

$$$$
=
 OpenBabel10272401313D

 55 60  0  0  1  0  0  0  0  0999 V2000
  191.3610  176.7450  138.6960 C   0  0  1  0  0  3  0  0  0  0  0  0
  192.2920  177.1320  139.8090 C   0  0  0  0  0  0  0  0  0  0  0  0
  191.9100  177.1080  141.1920 N   0  0  0  0  0  2  0  0  0  0  0  0
  193.4870  177.4060  139.5150 O   0  0  0  0  0  0  0  0  0  0  0  0
  188.3280  176.8520  143.5890 C   0  0  2  0  0  0  0  0  0  0  0  0
  190.5360  177.0730  141.6730 C   0  0  2  0  0  3  0  0  0  0  0  0
  190.1760  176.2140  144.9940 F   0  0  0  0  0  0  0  0  0  0  0  0
  188.7930  178.7430  142.0330 O   0  0  0  0  0  0  0  0  0  0  0  0
  190.1660  178.4330  142.2640 C   0  0  1  0  0  3  0  0  0  0  0  0
  190.3820  178.2290  143.7300 C   0  0  1  0  0  3  0  0  0  0  0  0
  189.8530  176.8210  143.7940 C   0  0  2  0  0  0  0  0  0  0  0  0
  187.6190  175.6480  143.6490 O   0  0  0  0  0  1  0  0  0  0  0  0
  191.7480  178.2590  144.0270 O   0  0  0  0  0  1  0  0  0  0  0  0
  190.4280  176.1230  142.7140 O   0  0  0  0  0  0  0  0  0  0  0  0
  187.8580  177.7760  142.5330 C   0  0  2  0  0  3  0  0  0  0  0  0
  187.5780  178.0750  143.9600 N   0  0  0  0  0  0  0  0  0  0  0  0
  186.1630  177.7990  144.1590 C   0  0  0  0  0  2  0  0  0  0  0  0
  185.6370  178.6510  145.2950 C   0  0  0  0  0  2  0  0  0  0  0  0
  184.1290  178.7410  145.2010 C   0  0  0  0  0  2  0  0  0  0  0  0
  182.2690  178.9910  143.5890 C   0  0  0  0  0  1  0  0  0  0  0  0
  183.7420  179.2470  143.8260 C   0  0  0  0  0  2  0  0  0  0  0  0
  190.1860  177.7130  138.6420 C   0  0  0  0  0  2  0  0  0  0  0  0
  187.7440  177.3840  138.0880 C   0  0  0  0  0  0  0  0  0  0  0  0
  189.1260  177.1490  137.8230 N   0  0  0  0  0  2  0  0  0  0  0  0
  187.3850  177.9070  139.1800 O   0  0  0  0  0  0  0  0  0  0  0  0
  186.3350  177.9960  136.3070 O   0  0  0  0  0  0  0  0  0  0  0  0
  186.7520  177.0650  137.0470 C   0  0  0  0  0  0  0  0  0  0  0  0
  186.2150  175.7370  136.8960 N   0  0  0  0  0  0  0  0  0  0  0  0
  188.0830  174.4630  135.8730 C   0  0  0  0  0  2  0  0  0  0  0  0
  188.7670  173.1260  135.8620 C   0  0  0  0  0  3  0  0  0  0  0  0
  186.3280  173.2840  137.3910 C   0  0  0  0  0  2  0  0  0  0  0  0
  186.5820  172.1500  136.3920 C   0  0  0  0  0  2  0  0  0  0  0  0
  188.0520  172.0230  136.1070 C   0  0  0  0  0  3  0  0  0  0  0  0
  187.1090  174.5780  137.0600 C   0  0  2  0  0  3  0  0  0  0  0  0
  184.6450  175.4440  135.1100 C   0  0  0  0  0  2  0  0  0  0  0  0
  184.8660  175.5590  136.4150 C   0  0  0  0  0  0  0  0  0  0  0  0
  182.7550  176.2720  139.9460 O   0  0  0  0  0  0  0  0  0  0  0  0
  183.0290  177.9250  136.7040 C   0  0  0  0  0  2  0  0  0  0  0  0
  181.7170  178.6940  136.7630 C   0  0  0  0  0  2  0  0  0  0  0  0
  183.7250  175.6020  137.3570 C   0  0  0  0  0  0  0  0  0  0  0  0
  182.4390  177.0170  138.9770 C   0  0  0  0  0  0  0  0  0  0  0  0
  183.3160  174.5190  137.8580 O   0  0  0  0  0  0  0  0  0  0  0  0
  181.3650  178.0450  139.1770 C   0  0  0  0  0  2  0  0  0  0  0  0
  181.5040  179.2000  138.1860 C   0  0  2  0  0  3  0  0  0  0  0  0
  183.0540  176.8350  137.6840 N   0  0  0  0  0  0  0  0  0  0  0  0
  180.3810  180.1390  138.2770 N   0  0  0  0  0  2  0  0  0  0  0  0
  181.2000  182.2110  137.6120 F   0  0  0  0  0  0  0  0  0  0  0  0
  180.8340  181.4580  138.7100 C   0  0  0  0  0  2  0  0  0  0  0  0
  192.0320  176.6930  137.4400 O   0  0  0  0  0  0  0  0  0  0  0  0
  192.2760  173.2340  135.0720 C   0  0  0  0  0  3  0  0  0  0  0  0
  192.1320  175.5300  136.6690 C   0  0  0  0  0  0  0  0  0  0  0  0
  192.0150  175.6300  135.2790 C   0  0  0  0  0  3  0  0  0  0  0  0
  192.4070  173.1270  136.4590 C   0  0  0  0  0  3  0  0  0  0  0  0
  192.0840  174.4850  134.4830 C   0  0  0  0  0  3  0  0  0  0  0  0
  192.3380  174.2720  137.2560 C   0  0  0  0  0  3  0  0  0  0  0  0
  1 22  1  6  0  0  0
  1  2  1  0  0  0  0
  2  3  1  0  0  0  0
  4  2  2  0  0  0  0
  5 12  1  1  0  0  0
  5 11  1  0  0  0  0
  5 16  1  0  0  0  0
  6  3  1  1  0  0  0
  6  9  1  0  0  0  0
  6 14  1  0  0  0  0
  9  8  1  1  0  0  0
  9 10  1  0  0  0  0
 10 11  1  0  0  0  0
 10 13  1  6  0  0  0
 11  7  1  1  0  0  0
 14 11  1  0  0  0  0
 15  8  1  1  0  0  0
 15  5  1  0  0  0  0
 15 16  1  0  0  0  0
 16 17  1  0  0  0  0
 17 18  1  0  0  0  0
 19 18  1  0  0  0  0
 20 21  1  0  0  0  0
 21 19  1  0  0  0  0
 23 25  2  0  0  0  0
 24 23  1  0  0  0  0
 24 22  1  0  0  0  0
 26 27  2  0  0  0  0
 27 23  1  0  0  0  0
 28 27  1  0  0  0  0
 29 34  1  0  0  0  0
 30 29  1  0  0  0  0
 30 33  2  0  0  0  0
 32 31  1  0  0  0  0
 33 32  1  0  0  0  0
 34 28  1  6  0  0  0
 34 31  1  0  0  0  0
 35 36  2  0  0  0  0
 36 28  1  0  0  0  0
 36 40  1  0  0  0  0
 38 39  1  0  0  0  0
 38 45  1  0  0  0  0
 39 44  1  0  0  0  0
 40 45  1  0  0  0  0
 40 42  2  0  0  0  0
 41 43  1  0  0  0  0
 41 37  2  0  0  0  0
 44 46  1  6  0  0  0
 44 43  1  0  0  0  0
 45 41  1  0  0  0  0
 46 48  1  0  0  0  0
 47 48  1  0  0  0  0
 49  1  1  0  0  0  0
 50 53  1  0  0  0  0
 51 55  1  0  0  0  0
 51 49  1  0  0  0  0
 52 51  2  0  0  0  0
 53 55  2  0  0  0  0
 54 50  2  0  0  0  0
 54 52  1  0  0  0  0
M  END
>  <MODEL>
2

>  <REMARK>
 VINA RESULT:      -7.1      2.923      5.434
  Name = 
  16 active torsions:
  status: ('A' for Active; 'I' for Inactive)
    1  A    between atoms: C_3  and  C_25
    2  A    between atoms: C_3  and  C_38
    3  A    between atoms: C_4  and  N_37
    4  A    between atoms: C_4  and  C_54
    5  A    between atoms: C_6  and  N_22
    6  A    between atoms: C_8  and  C_54
    7  A    between atoms: N_10  and  C_47
    8  A    between atoms: N_10  and  C_48
    9  A    between atoms: C_19  and  C_35
   10  A    between atoms: C_26  and  N_45
   11  A    between atoms: C_27  and  O_51
   12  A    between atoms: C_29  and  C_38
   13  A    between atoms: C_29  and  N_53
   14  A    between atoms: C_33  and  C_49
   15  A    between atoms: N_45  and  C_49
   16  A    between atoms: O_51  and  C_54
                            x       y       z     vdW  Elec       q    Type
                         _______ _______ _______ _____ _____    ______ ____

>  <TORSDO>
F 16

$$$$
=
 OpenBabel10272401313D

 55 60  0  0  1  0  0  0  0  0999 V2000
  189.9240  177.5790  140.0880 C   0  0  1  0  0  3  0  0  0  0  0  0
  191.3420  177.2630  139.7060 C   0  0  0  0  0  0  0  0  0  0  0  0
  191.6970  176.6380  138.4640 N   0  0  0  0  0  2  0  0  0  0  0  0
  192.2630  177.6440  140.4780 O   0  0  0  0  0  0  0  0  0  0  0  0
  189.7940  174.5290  135.2130 C   0  0  2  0  0  0  0  0  0  0  0  0
  190.7700  175.9170  137.6040 C   0  0  2  0  0  3  0  0  0  0  0  0
  191.8660  175.4220  134.3710 F   0  0  0  0  0  0  0  0  0  0  0  0
  189.8990  173.6370  137.5380 O   0  0  0  0  0  0  0  0  0  0  0  0
  191.0850  174.4220  137.6520 C   0  0  1  0  0  3  0  0  0  0  0  0
  191.9270  174.2200  136.4330 C   0  0  1  0  0  3  0  0  0  0  0  0
  191.1640  175.1540  135.5330 C   0  0  2  0  0  0  0  0  0  0  0  0
  188.9290  175.2150  134.3540 O   0  0  0  0  0  1  0  0  0  0  0  0
  193.2240  174.6930  136.6550 O   0  0  0  0  0  1  0  0  0  0  0  0
  190.9480  176.3370  136.2670 O   0  0  0  0  0  0  0  0  0  0  0  0
  189.1180  173.8850  136.3600 C   0  0  2  0  0  3  0  0  0  0  0  0
  189.6500  173.0550  135.2500 N   0  0  0  0  0  0  0  0  0  0  0  0
  188.4910  172.6080  134.4900 C   0  0  0  0  0  2  0  0  0  0  0  0
  187.7290  171.5750  135.2940 C   0  0  0  0  0  2  0  0  0  0  0  0
  186.9010  170.7210  134.3590 C   0  0  0  0  0  2  0  0  0  0  0  0
  184.6090  170.1780  135.1150 C   0  0  0  0  0  1  0  0  0  0  0  0
  185.4620  171.1950  134.3870 C   0  0  0  0  0  2  0  0  0  0  0  0
  189.0460  177.6110  138.8440 C   0  0  0  0  0  2  0  0  0  0  0  0
  186.7820  178.6080  138.3350 C   0  0  0  0  0  0  0  0  0  0  0  0
  187.6810  177.9400  139.2190 N   0  0  0  0  0  2  0  0  0  0  0  0
  187.2110  179.1400  137.2730 O   0  0  0  0  0  0  0  0  0  0  0  0
  184.8690  179.5940  139.2840 O   0  0  0  0  0  0  0  0  0  0  0  0
  185.3430  178.6140  138.6480 C   0  0  0  0  0  0  0  0  0  0  0  0
  184.4870  177.5120  138.2920 N   0  0  0  0  0  0  0  0  0  0  0  0
  183.3460  176.7200  136.2360 C   0  0  0  0  0  2  0  0  0  0  0  0
  183.4650  175.7650  135.0820 C   0  0  0  0  0  3  0  0  0  0  0  0
  185.4740  175.5210  137.1360 C   0  0  0  0  0  2  0  0  0  0  0  0
  184.7230  174.3010  136.5930 C   0  0  0  0  0  2  0  0  0  0  0  0
  184.1190  174.6120  135.2520 C   0  0  0  0  0  3  0  0  0  0  0  0
  184.6800  176.8420  136.9950 C   0  0  2  0  0  3  0  0  0  0  0  0
  182.8030  175.9820  139.0460 C   0  0  0  0  0  2  0  0  0  0  0  0
  183.3470  177.1920  139.1190 C   0  0  0  0  0  0  0  0  0  0  0  0
  180.7690  178.9020  141.9240 O   0  0  0  0  0  0  0  0  0  0  0  0
  184.2560  177.8250  141.9170 C   0  0  0  0  0  2  0  0  0  0  0  0
  184.7270  178.6720  143.0900 C   0  0  0  0  0  2  0  0  0  0  0  0
  182.7250  178.2320  139.9690 C   0  0  0  0  0  0  0  0  0  0  0  0
  181.9770  178.8280  142.2850 C   0  0  0  0  0  0  0  0  0  0  0  0
  181.9770  179.0880  139.4230 O   0  0  0  0  0  0  0  0  0  0  0  0
  182.3590  179.3540  143.6380 C   0  0  0  0  0  2  0  0  0  0  0  0
  183.6350  178.6930  144.1550 C   0  0  2  0  0  3  0  0  0  0  0  0
  182.9790  178.3100  141.3860 N   0  0  0  0  0  0  0  0  0  0  0  0
  184.0960  179.2970  145.4100 N   0  0  0  0  0  2  0  0  0  0  0  0
  184.8360  178.4180  147.4300 F   0  0  0  0  0  0  0  0  0  0  0  0
  185.0810  178.4470  146.0720 C   0  0  0  0  0  2  0  0  0  0  0  0
  189.4160  176.6510  141.0430 O   0  0  0  0  0  0  0  0  0  0  0  0
  189.4920  177.2580  145.1970 C   0  0  0  0  0  3  0  0  0  0  0  0
  189.4320  176.8790  142.4230 C   0  0  0  0  0  0  0  0  0  0  0  0
  190.4280  176.2740  143.1950 C   0  0  0  0  0  3  0  0  0  0  0  0
  188.5010  177.8770  144.4310 C   0  0  0  0  0  3  0  0  0  0  0  0
  190.4570  176.4610  144.5780 C   0  0  0  0  0  3  0  0  0  0  0  0
  188.4720  177.6900  143.0470 C   0  0  0  0  0  3  0  0  0  0  0  0
  1 22  1  6  0  0  0
  1 49  1  0  0  0  0
  2  1  1  0  0  0  0
  2  4  2  0  0  0  0
  3  2  1  0  0  0  0
  5 12  1  6  0  0  0
  5 16  1  0  0  0  0
  5 11  1  0  0  0  0
  5 15  1  0  0  0  0
  6  9  1  0  0  0  0
  6  3  1  1  0  0  0
  9  8  1  6  0  0  0
 10 13  1  1  0  0  0
 10  9  1  0  0  0  0
 11  7  1  6  0  0  0
 11 14  1  0  0  0  0
 11 10  1  0  0  0  0
 14  6  1  0  0  0  0
 15  8  1  1  0  0  0
 16 15  1  0  0  0  0
 17 16  1  0  0  0  0
 17 18  1  0  0  0  0
 19 21  1  0  0  0  0
 19 18  1  0  0  0  0
 21 20  1  0  0  0  0
 22 24  1  0  0  0  0
 23 27  1  0  0  0  0
 23 24  1  0  0  0  0
 25 23  2  0  0  0  0
 27 26  2  0  0  0  0
 28 27  1  0  0  0  0
 28 36  1  0  0  0  0
 29 34  1  0  0  0  0
 30 33  2  0  0  0  0
 30 29  1  0  0  0  0
 32 31  1  0  0  0  0
 33 32  1  0  0  0  0
 34 31  1  0  0  0  0
 34 28  1  1  0  0  0
 35 36  2  0  0  0  0
 36 40  1  0  0  0  0
 37 41  2  0  0  0  0
 38 39  1  0  0  0  0
 39 44  1  0  0  0  0
 40 45  1  0  0  0  0
 41 43  1  0  0  0  0
 42 40  2  0  0  0  0
 43 44  1  0  0  0  0
 44 46  1  1  0  0  0
 45 38  1  0  0  0  0
 45 41  1  0  0  0  0
 46 48  1  0  0  0  0
 48 47  1  0  0  0  0
 49 51  1  0  0  0  0
 51 55  2  0  0  0  0
 51 52  1  0  0  0  0
 52 54  2  0  0  0  0
 53 50  2  0  0  0  0
 54 50  1  0  0  0  0
 55 53  1  0  0  0  0
M  END
>  <MODEL>
3

>  <REMARK>
 VINA RESULT:      -6.1      2.309      6.409
  Name = 
  16 active torsions:
  status: ('A' for Active; 'I' for Inactive)
    1  A    between atoms: C_3  and  C_25
    2  A    between atoms: C_3  and  C_38
    3  A    between atoms: C_4  and  N_37
    4  A    between atoms: C_4  and  C_54
    5  A    between atoms: C_6  and  N_22
    6  A    between atoms: C_8  and  C_54
    7  A    between atoms: N_10  and  C_47
    8  A    between atoms: N_10  and  C_48
    9  A    between atoms: C_19  and  C_35
   10  A    between atoms: C_26  and  N_45
   11  A    between atoms: C_27  and  O_51
   12  A    between atoms: C_29  and  C_38
   13  A    between atoms: C_29  and  N_53
   14  A    between atoms: C_33  and  C_49
   15  A    between atoms: N_45  and  C_49
   16  A    between atoms: O_51  and  C_54
                            x       y       z     vdW  Elec       q    Type
                         _______ _______ _______ _____ _____    ______ ____

>  <TORSDO>
F 16

$$$$
=
 OpenBabel10272401313D

 55 60  0  0  1  0  0  0  0  0999 V2000
  188.3060  178.1050  142.2390 C   0  0  1  0  0  3  0  0  0  0  0  0
  189.4340  177.3020  141.6570 C   0  0  0  0  0  0  0  0  0  0  0  0
  189.6330  177.1430  140.2440 N   0  0  0  0  0  2  0  0  0  0  0  0
  190.2890  176.8200  142.4470 O   0  0  0  0  0  0  0  0  0  0  0  0
  187.4990  178.2810  136.6670 C   0  0  2  0  0  0  0  0  0  0  0  0
  188.6220  177.4030  139.2290 C   0  0  2  0  0  3  0  0  0  0  0  0
  189.7420  179.1340  136.4650 F   0  0  0  0  0  0  0  0  0  0  0  0
  187.3240  176.0170  137.6950 O   0  0  0  0  0  0  0  0  0  0  0  0
  188.6340  176.2780  138.1940 C   0  0  1  0  0  3  0  0  0  0  0  0
  189.4730  176.8480  137.0950 C   0  0  1  0  0  3  0  0  0  0  0  0
  188.9500  178.2560  137.1820 C   0  0  2  0  0  0  0  0  0  0  0  0
  186.8260  179.5060  136.6220 O   0  0  0  0  0  1  0  0  0  0  0  0
  190.8270  176.7990  137.4430 O   0  0  0  0  0  1  0  0  0  0  0  0
  188.9380  178.6000  138.5480 O   0  0  0  0  0  0  0  0  0  0  0  0
  186.6590  177.1460  137.1100 C   0  0  2  0  0  3  0  0  0  0  0  0
  187.0670  177.2570  135.6870 N   0  0  0  0  0  0  0  0  0  0  0  0
  185.8790  177.6770  134.9590 C   0  0  0  0  0  2  0  0  0  0  0  0
  185.1240  176.4550  134.4770 C   0  0  0  0  0  2  0  0  0  0  0  0
  186.0820  175.2910  134.3460 C   0  0  0  0  0  2  0  0  0  0  0  0
  186.5010  173.3200  135.7800 C   0  0  0  0  0  1  0  0  0  0  0  0
  185.4600  174.0560  134.9650 C   0  0  0  0  0  2  0  0  0  0  0  0
  187.5110  178.7690  141.1230 C   0  0  0  0  0  2  0  0  0  0  0  0
  185.1280  178.7150  140.2890 C   0  0  0  0  0  0  0  0  0  0  0  0
  186.2170  178.1210  140.9930 N   0  0  0  0  0  2  0  0  0  0  0  0
  185.1780  179.9290  139.9440 O   0  0  0  0  0  0  0  0  0  0  0  0
  184.1880  176.7900  139.3170 O   0  0  0  0  0  0  0  0  0  0  0  0
  183.9740  177.8770  139.9170 C   0  0  0  0  0  0  0  0  0  0  0  0
  182.6210  178.2960  140.1760 N   0  0  0  0  0  0  0  0  0  0  0  0
  183.1030  178.3670  142.6090 C   0  0  0  0  0  2  0  0  0  0  0  0
  182.5630  178.8300  143.9320 C   0  0  0  0  0  3  0  0  0  0  0  0
  180.7870  179.1060  141.6780 C   0  0  0  0  0  2  0  0  0  0  0  0
  180.3250  178.4750  142.9960 C   0  0  0  0  0  2  0  0  0  0  0  0
  181.2400  178.8790  144.1180 C   0  0  0  0  0  3  0  0  0  0  0  0
  182.3110  178.9830  141.4410 C   0  0  2  0  0  3  0  0  0  0  0  0
  180.6610  177.0020  139.7010 C   0  0  0  0  0  2  0  0  0  0  0  0
  181.5600  177.8870  139.2860 C   0  0  0  0  0  0  0  0  0  0  0  0
  179.9820  178.9960  135.5820 O   0  0  0  0  0  0  0  0  0  0  0  0
  181.1920  180.7770  138.5300 C   0  0  0  0  0  2  0  0  0  0  0  0
  181.4860  182.1060  137.8510 C   0  0  0  0  0  2  0  0  0  0  0  0
  181.5290  178.3730  137.8880 C   0  0  0  0  0  0  0  0  0  0  0  0
  180.4360  179.9490  136.2750 C   0  0  0  0  0  0  0  0  0  0  0  0
  181.9540  177.6120  136.9760 O   0  0  0  0  0  0  0  0  0  0  0  0
  180.3770  181.3400  135.7160 C   0  0  0  0  0  2  0  0  0  0  0  0
  180.3930  182.3910  136.8260 C   0  0  2  0  0  3  0  0  0  0  0  0
  181.0600  179.6940  137.5510 N   0  0  0  0  0  0  0  0  0  0  0  0
  180.4770  183.7530  136.2890 N   0  0  0  0  0  2  0  0  0  0  0  0
  180.8410  185.3620  137.9270 F   0  0  0  0  0  0  0  0  0  0  0  0
  181.4710  184.5420  137.0130 C   0  0  0  0  0  2  0  0  0  0  0  0
  187.4570  177.3060  143.0580 O   0  0  0  0  0  0  0  0  0  0  0  0
  186.8910  178.0180  147.1570 C   0  0  0  0  0  3  0  0  0  0  0  0
  187.2850  177.5220  144.4300 C   0  0  0  0  0  0  0  0  0  0  0  0
  186.0400  177.9570  144.8940 C   0  0  0  0  0  3  0  0  0  0  0  0
  188.1340  177.5710  146.7040 C   0  0  0  0  0  3  0  0  0  0  0  0
  185.8440  178.2070  146.2530 C   0  0  0  0  0  3  0  0  0  0  0  0
  188.3310  177.3220  145.3440 C   0  0  0  0  0  3  0  0  0  0  0  0
  1 22  1  6  0  0  0
  1 49  1  0  0  0  0
  2  1  1  0  0  0  0
  2  4  2  0  0  0  0
  3  2  1  0  0  0  0
  5 12  1  6  0  0  0
  5 15  1  0  0  0  0
  5 11  1  0  0  0  0
  6  3  1  1  0  0  0
  9  8  1  6  0  0  0
  9  6  1  0  0  0  0
 10 11  1  0  0  0  0
 10 13  1  1  0  0  0
 10  9  1  0  0  0  0
 11  7  1  6  0  0  0
 11 14  1  0  0  0  0
 14  6  1  0  0  0  0
 15  8  1  1  0  0  0
 16  5  1  0  0  0  0
 16 15  1  0  0  0  0
 17 16  1  0  0  0  0
 18 17  1  0  0  0  0
 19 18  1  0  0  0  0
 19 21  1  0  0  0  0
 21 20  1  0  0  0  0
 23 24  1  0  0  0  0
 24 22  1  0  0  0  0
 25 23  2  0  0  0  0
 26 27  2  0  0  0  0
 27 28  1  0  0  0  0
 27 23  1  0  0  0  0
 29 30  1  0  0  0  0
 30 33  2  0  0  0  0
 31 32  1  0  0  0  0
 32 33  1  0  0  0  0
 34 28  1  6  0  0  0
 34 31  1  0  0  0  0
 34 29  1  0  0  0  0
 36 35  2  0  0  0  0
 36 28  1  0  0  0  0
 37 41  2  0  0  0  0
 39 38  1  0  0  0  0
 40 36  1  0  0  0  0
 41 45  1  0  0  0  0
 42 40  2  0  0  0  0
 43 41  1  0  0  0  0
 43 44  1  0  0  0  0
 44 46  1  6  0  0  0
 44 39  1  0  0  0  0
 45 40  1  0  0  0  0
 45 38  1  0  0  0  0
 46 48  1  0  0  0  0
 48 47  1  0  0  0  0
 49 51  1  0  0  0  0
 51 52  2  0  0  0  0
 51 55  1  0  0  0  0
 52 54  1  0  0  0  0
 53 50  1  0  0  0  0
 54 50  2  0  0  0  0
 55 53  2  0  0  0  0
M  END
>  <MODEL>
4

>  <REMARK>
 VINA RESULT:      -6.1      3.046      7.479
  Name = 
  16 active torsions:
  status: ('A' for Active; 'I' for Inactive)
    1  A    between atoms: C_3  and  C_25
    2  A    between atoms: C_3  and  C_38
    3  A    between atoms: C_4  and  N_37
    4  A    between atoms: C_4  and  C_54
    5  A    between atoms: C_6  and  N_22
    6  A    between atoms: C_8  and  C_54
    7  A    between atoms: N_10  and  C_47
    8  A    between atoms: N_10  and  C_48
    9  A    between atoms: C_19  and  C_35
   10  A    between atoms: C_26  and  N_45
   11  A    between atoms: C_27  and  O_51
   12  A    between atoms: C_29  and  C_38
   13  A    between atoms: C_29  and  N_53
   14  A    between atoms: C_33  and  C_49
   15  A    between atoms: N_45  and  C_49
   16  A    between atoms: O_51  and  C_54
                            x       y       z     vdW  Elec       q    Type
                         _______ _______ _______ _____ _____    ______ ____

>  <TORSDO>
F 16

$$$$
=
 OpenBabel10272401313D

 55 60  0  0  1  0  0  0  0  0999 V2000
  187.1770  177.5290  142.5100 C   0  0  1  0  0  3  0  0  0  0  0  0
  186.0080  178.2930  143.0640 C   0  0  0  0  0  0  0  0  0  0  0  0
  184.7240  178.3330  142.4220 N   0  0  0  0  0  2  0  0  0  0  0  0
  186.1420  178.8510  144.1860 O   0  0  0  0  0  0  0  0  0  0  0  0
  182.9670  177.1660  138.6550 C   0  0  2  0  0  0  0  0  0  0  0  0
  184.4800  177.9760  141.0320 C   0  0  2  0  0  3  0  0  0  0  0  0
  181.2930  176.8440  140.3560 F   0  0  0  0  0  0  0  0  0  0  0  0
  184.3660  179.2110  138.9300 O   0  0  0  0  0  0  0  0  0  0  0  0
  183.9190  179.1850  140.2840 C   0  0  1  0  0  3  0  0  0  0  0  0
  182.4450  178.9350  140.3080 C   0  0  1  0  0  3  0  0  0  0  0  0
  182.5120  177.4460  140.0990 C   0  0  2  0  0  0  0  0  0  0  0  0
  183.0620  175.8380  138.2280 O   0  0  0  0  0  1  0  0  0  0  0  0
  181.9230  179.2350  141.5710 O   0  0  0  0  0  1  0  0  0  0  0  0
  183.5020  176.9580  140.9750 O   0  0  0  0  0  0  0  0  0  0  0  0
  184.0580  178.0370  138.1640 C   0  0  2  0  0  3  0  0  0  0  0  0
  182.6890  178.1750  137.6060 N   0  0  0  0  0  0  0  0  0  0  0  0
  182.7380  177.5930  136.2730 C   0  0  0  0  0  2  0  0  0  0  0  0
  181.4200  177.8380  135.5670 C   0  0  0  0  0  2  0  0  0  0  0  0
  181.3300  176.9490  134.3460 C   0  0  0  0  0  2  0  0  0  0  0  0
  181.0080  174.6100  135.0830 C   0  0  0  0  0  1  0  0  0  0  0  0
  180.3070  175.8590  134.5940 C   0  0  0  0  0  2  0  0  0  0  0  0
  188.2940  178.4930  142.1340 C   0  0  0  0  0  2  0  0  0  0  0  0
  189.1820  177.6090  139.9400 C   0  0  0  0  0  0  0  0  0  0  0  0
  188.4190  178.5550  140.6870 N   0  0  0  0  0  2  0  0  0  0  0  0
  189.9660  176.8140  140.5320 O   0  0  0  0  0  0  0  0  0  0  0  0
  188.3880  178.4710  137.9010 O   0  0  0  0  0  0  0  0  0  0  0  0
  188.9990  177.5330  138.4810 C   0  0  0  0  0  0  0  0  0  0  0  0
  189.4520  176.3980  137.7200 N   0  0  0  0  0  0  0  0  0  0  0  0
  191.9170  176.6070  137.5270 C   0  0  0  0  0  2  0  0  0  0  0  0
  193.2020  175.8290  137.5800 C   0  0  0  0  0  3  0  0  0  0  0  0
  190.7770  174.2720  137.6790 C   0  0  0  0  0  2  0  0  0  0  0  0
  191.9250  173.9170  136.7290 C   0  0  0  0  0  2  0  0  0  0  0  0
  193.2070  174.5480  137.1980 C   0  0  0  0  0  3  0  0  0  0  0  0
  190.7400  175.7710  138.0620 C   0  0  2  0  0  3  0  0  0  0  0  0
  189.2040  176.3470  135.3370 C   0  0  0  0  0  2  0  0  0  0  0  0
  188.7370  175.9990  136.5310 C   0  0  0  0  0  0  0  0  0  0  0  0
  185.0150  174.4900  135.3870 O   0  0  0  0  0  0  0  0  0  0  0  0
  188.3550  173.0930  135.8480 C   0  0  0  0  0  2  0  0  0  0  0  0
  187.9380  171.6420  136.0370 C   0  0  0  0  0  2  0  0  0  0  0  0
  187.4400  175.2930  136.6400 C   0  0  0  0  0  0  0  0  0  0  0  0
  185.9070  173.6180  135.5790 C   0  0  0  0  0  0  0  0  0  0  0  0
  186.5170  175.8300  137.3100 O   0  0  0  0  0  0  0  0  0  0  0  0
  185.5540  172.1720  135.3960 C   0  0  0  0  0  2  0  0  0  0  0  0
  186.7900  171.3290  135.0820 C   0  0  2  0  0  3  0  0  0  0  0  0
  187.2220  174.0040  136.0330 N   0  0  0  0  0  0  0  0  0  0  0  0
  186.4800  169.8960  135.0400 N   0  0  0  0  0  2  0  0  0  0  0  0
  188.4780  168.9320  134.3460 F   0  0  0  0  0  0  0  0  0  0  0  0
  187.6380  169.0960  135.4300 C   0  0  0  0  0  2  0  0  0  0  0  0
  187.6450  176.5430  143.4260 O   0  0  0  0  0  0  0  0  0  0  0  0
  190.8720  177.1090  146.0520 C   0  0  0  0  0  3  0  0  0  0  0  0
  188.7100  176.7570  144.3080 C   0  0  0  0  0  0  0  0  0  0  0  0
  189.9780  176.2810  143.9620 C   0  0  0  0  0  3  0  0  0  0  0  0
  189.6110  177.5990  146.3980 C   0  0  0  0  0  3  0  0  0  0  0  0
  191.0550  176.4540  144.8330 C   0  0  0  0  0  3  0  0  0  0  0  0
  188.5320  177.4260  145.5290 C   0  0  0  0  0  3  0  0  0  0  0  0
  1 22  1  1  0  0  0
  1  2  1  0  0  0  0
  1 49  1  0  0  0  0
  2  4  2  0  0  0  0
  3  2  1  0  0  0  0
  5 12  1  6  0  0  0
  5 11  1  0  0  0  0
  6  3  1  1  0  0  0
  9  8  1  6  0  0  0
  9 10  1  0  0  0  0
  9  6  1  0  0  0  0
 10 13  1  1  0  0  0
 11 10  1  0  0  0  0
 11  7  1  1  0  0  0
 11 14  1  0  0  0  0
 14  6  1  0  0  0  0
 15  5  1  0  0  0  0
 15  8  1  1  0  0  0
 16 15  1  0  0  0  0
 16  5  1  0  0  0  0
 17 16  1  0  0  0  0
 18 17  1  0  0  0  0
 19 21  1  0  0  0  0
 19 18  1  0  0  0  0
 21 20  1  0  0  0  0
 23 25  2  0  0  0  0
 23 24  1  0  0  0  0
 24 22  1  0  0  0  0
 26 27  2  0  0  0  0
 27 23  1  0  0  0  0
 28 27  1  0  0  0  0
 29 30  1  0  0  0  0
 29 34  1  0  0  0  0
 31 34  1  0  0  0  0
 32 33  1  0  0  0  0
 32 31  1  0  0  0  0
 33 30  2  0  0  0  0
 34 28  1  6  0  0  0
 35 36  2  0  0  0  0
 36 40  1  0  0  0  0
 36 28  1  0  0  0  0
 37 41  2  0  0  0  0
 38 45  1  0  0  0  0
 38 39  1  0  0  0  0
 40 42  2  0  0  0  0
 41 45  1  0  0  0  0
 43 41  1  0  0  0  0
 44 46  1  1  0  0  0
 44 43  1  0  0  0  0
 44 39  1  0  0  0  0
 45 40  1  0  0  0  0
 46 48  1  0  0  0  0
 47 48  1  0  0  0  0
 49 51  1  0  0  0  0
 50 53  1  0  0  0  0
 51 55  1  0  0  0  0
 52 51  2  0  0  0  0
 52 54  1  0  0  0  0
 54 50  2  0  0  0  0
 55 53  2  0  0  0  0
M  END
>  <MODEL>
5

>  <REMARK>
 VINA RESULT:      -5.8      3.160      9.699
  Name = 
  16 active torsions:
  status: ('A' for Active; 'I' for Inactive)
    1  A    between atoms: C_3  and  C_25
    2  A    between atoms: C_3  and  C_38
    3  A    between atoms: C_4  and  N_37
    4  A    between atoms: C_4  and  C_54
    5  A    between atoms: C_6  and  N_22
    6  A    between atoms: C_8  and  C_54
    7  A    between atoms: N_10  and  C_47
    8  A    between atoms: N_10  and  C_48
    9  A    between atoms: C_19  and  C_35
   10  A    between atoms: C_26  and  N_45
   11  A    between atoms: C_27  and  O_51
   12  A    between atoms: C_29  and  C_38
   13  A    between atoms: C_29  and  N_53
   14  A    between atoms: C_33  and  C_49
   15  A    between atoms: N_45  and  C_49
   16  A    between atoms: O_51  and  C_54
                            x       y       z     vdW  Elec       q    Type
                         _______ _______ _______ _____ _____    ______ ____

>  <TORSDO>
F 16

$$$$
=
 OpenBabel10272401313D

 55 60  0  0  1  0  0  0  0  0999 V2000
  190.4180  177.5010  139.6080 C   0  0  1  0  0  3  0  0  0  0  0  0
  191.3140  176.7060  138.7020 C   0  0  0  0  0  0  0  0  0  0  0  0
  190.8200  175.9220  137.6050 N   0  0  0  0  0  2  0  0  0  0  0  0
  192.5600  176.8030  138.8640 O   0  0  0  0  0  0  0  0  0  0  0  0
  186.8890  174.9870  136.0860 C   0  0  2  0  0  0  0  0  0  0  0  0
  189.4370  175.5000  137.4420 C   0  0  2  0  0  3  0  0  0  0  0  0
  188.0450  176.2190  134.3700 F   0  0  0  0  0  0  0  0  0  0  0  0
  188.2940  173.3460  137.3310 O   0  0  0  0  0  0  0  0  0  0  0  0
  189.3970  174.0990  136.8310 C   0  0  1  0  0  3  0  0  0  0  0  0
  189.1830  174.3780  135.3780 C   0  0  1  0  0  3  0  0  0  0  0  0
  188.2290  175.5280  135.5540 C   0  0  2  0  0  0  0  0  0  0  0  0
  185.8360  175.8850  136.2880 O   0  0  0  0  0  1  0  0  0  0  0  0
  190.3740  174.8090  134.7850 O   0  0  0  0  0  1  0  0  0  0  0  0
  188.7850  176.3680  136.5380 O   0  0  0  0  0  0  0  0  0  0  0  0
  187.0070  173.9490  137.1350 C   0  0  2  0  0  3  0  0  0  0  0  0
  186.5090  173.5860  135.7840 N   0  0  0  0  0  0  0  0  0  0  0  0
  185.0760  173.3750  135.9260 C   0  0  0  0  0  2  0  0  0  0  0  0
  184.7510  171.9200  135.6560 C   0  0  0  0  0  2  0  0  0  0  0  0
  183.7680  171.4240  136.6930 C   0  0  0  0  0  2  0  0  0  0  0  0
  183.3080  169.1470  135.8440 C   0  0  0  0  0  1  0  0  0  0  0  0
  182.7380  170.5370  136.0240 C   0  0  0  0  0  2  0  0  0  0  0  0
  189.2730  178.1050  138.8050 C   0  0  0  0  0  2  0  0  0  0  0  0
  186.8920  178.6620  139.4390 C   0  0  0  0  0  0  0  0  0  0  0  0
  188.2920  178.6790  139.7110 N   0  0  0  0  0  2  0  0  0  0  0  0
  186.4710  178.3480  138.2900 O   0  0  0  0  0  0  0  0  0  0  0  0
  186.3800  179.5340  141.5620 O   0  0  0  0  0  0  0  0  0  0  0  0
  185.9470  178.9560  140.5290 C   0  0  0  0  0  0  0  0  0  0  0  0
  184.5650  178.5550  140.4620 N   0  0  0  0  0  0  0  0  0  0  0  0
  182.8060  179.7940  139.2270 C   0  0  0  0  0  2  0  0  0  0  0  0
  181.8570  179.7050  138.0650 C   0  0  0  0  0  3  0  0  0  0  0  0
  183.3050  177.2950  138.7010 C   0  0  0  0  0  2  0  0  0  0  0  0
  181.7900  177.2890  138.4750 C   0  0  0  0  0  2  0  0  0  0  0  0
  181.3710  178.5120  137.7080 C   0  0  0  0  0  3  0  0  0  0  0  0
  183.8480  178.6620  139.1800 C   0  0  2  0  0  3  0  0  0  0  0  0
  182.8690  177.3330  141.6330 C   0  0  0  0  0  2  0  0  0  0  0  0
  183.8540  178.2240  141.6730 C   0  0  0  0  0  0  0  0  0  0  0  0
  183.7400  179.1630  145.7400 O   0  0  0  0  0  0  0  0  0  0  0  0
  186.1090  177.4900  143.5250 C   0  0  0  0  0  2  0  0  0  0  0  0
  187.3510  177.6840  144.3820 C   0  0  0  0  0  2  0  0  0  0  0  0
  184.1490  178.9430  142.9330 C   0  0  0  0  0  0  0  0  0  0  0  0
  184.8430  178.7060  145.3300 C   0  0  0  0  0  0  0  0  0  0  0  0
  183.6320  180.0790  143.1140 O   0  0  0  0  0  0  0  0  0  0  0  0
  185.9720  178.5600  146.3070 C   0  0  0  0  0  2  0  0  0  0  0  0
  186.9740  177.5010  145.8490 C   0  0  2  0  0  3  0  0  0  0  0  0
  185.0310  178.3960  143.9330 N   0  0  0  0  0  0  0  0  0  0  0  0
  188.1520  177.4480  146.7210 N   0  0  0  0  0  2  0  0  0  0  0  0
  188.9370  177.9760  148.8450 F   0  0  0  0  0  0  0  0  0  0  0  0
  187.7940  177.7410  148.1060 C   0  0  0  0  0  2  0  0  0  0  0  0
  189.9190  176.7100  140.6840 O   0  0  0  0  0  0  0  0  0  0  0  0
  191.1770  177.2780  144.6490 C   0  0  0  0  0  3  0  0  0  0  0  0
  190.3230  176.8770  142.0120 C   0  0  0  0  0  0  0  0  0  0  0  0
  190.5030  178.1730  142.5060 C   0  0  0  0  0  3  0  0  0  0  0  0
  190.9870  175.9810  144.1680 C   0  0  0  0  0  3  0  0  0  0  0  0
  190.9310  178.3730  143.8190 C   0  0  0  0  0  3  0  0  0  0  0  0
  190.5600  175.7790  142.8540 C   0  0  0  0  0  3  0  0  0  0  0  0
  1 22  1  6  0  0  0
  1 49  1  0  0  0  0
  2  4  2  0  0  0  0
  2  1  1  0  0  0  0
  3  2  1  0  0  0  0
  5 12  1  1  0  0  0
  5 15  1  0  0  0  0
  6  3  1  6  0  0  0
  9  8  1  1  0  0  0
  9  6  1  0  0  0  0
 10 13  1  1  0  0  0
 10 11  1  0  0  0  0
 10  9  1  0  0  0  0
 11  7  1  6  0  0  0
 11  5  1  0  0  0  0
 11 14  1  0  0  0  0
 14  6  1  0  0  0  0
 15  8  1  6  0  0  0
 16 17  1  0  0  0  0
 16  5  1  0  0  0  0
 16 15  1  0  0  0  0
 18 17  1  0  0  0  0
 18 19  1  0  0  0  0
 20 21  1  0  0  0  0
 21 19  1  0  0  0  0
 22 24  1  0  0  0  0
 23 24  1  0  0  0  0
 23 27  1  0  0  0  0
 25 23  2  0  0  0  0
 27 26  2  0  0  0  0
 28 27  1  0  0  0  0
 28 36  1  0  0  0  0
 30 29  1  0  0  0  0
 31 34  1  0  0  0  0
 32 31  1  0  0  0  0
 33 30  2  0  0  0  0
 33 32  1  0  0  0  0
 34 29  1  0  0  0  0
 34 28  1  1  0  0  0
 35 36  2  0  0  0  0
 36 40  1  0  0  0  0
 38 45  1  0  0  0  0
 38 39  1  0  0  0  0
 39 44  1  0  0  0  0
 40 42  2  0  0  0  0
 40 45  1  0  0  0  0
 41 37  2  0  0  0  0
 41 43  1  0  0  0  0
 44 43  1  0  0  0  0
 44 46  1  1  0  0  0
 45 41  1  0  0  0  0
 46 48  1  0  0  0  0
 48 47  1  0  0  0  0
 49 51  1  0  0  0  0
 51 52  2  0  0  0  0
 51 55  1  0  0  0  0
 52 54  1  0  0  0  0
 53 50  1  0  0  0  0
 54 50  2  0  0  0  0
 55 53  2  0  0  0  0
M  END
>  <MODEL>
6

>  <REMARK>
 VINA RESULT:      -5.7      2.370      6.619
  Name = 
  16 active torsions:
  status: ('A' for Active; 'I' for Inactive)
    1  A    between atoms: C_3  and  C_25
    2  A    between atoms: C_3  and  C_38
    3  A    between atoms: C_4  and  N_37
    4  A    between atoms: C_4  and  C_54
    5  A    between atoms: C_6  and  N_22
    6  A    between atoms: C_8  and  C_54
    7  A    between atoms: N_10  and  C_47
    8  A    between atoms: N_10  and  C_48
    9  A    between atoms: C_19  and  C_35
   10  A    between atoms: C_26  and  N_45
   11  A    between atoms: C_27  and  O_51
   12  A    between atoms: C_29  and  C_38
   13  A    between atoms: C_29  and  N_53
   14  A    between atoms: C_33  and  C_49
   15  A    between atoms: N_45  and  C_49
   16  A    between atoms: O_51  and  C_54
                            x       y       z     vdW  Elec       q    Type
                         _______ _______ _______ _____ _____    ______ ____

>  <TORSDO>
F 16

$$$$
=
 OpenBabel10272401313D

 55 60  0  0  1  0  0  0  0  0999 V2000
  186.9790  178.7080  141.7230 C   0  0  1  0  0  3  0  0  0  0  0  0
  187.8450  178.1690  140.6200 C   0  0  0  0  0  0  0  0  0  0  0  0
  188.8180  177.1340  140.8250 N   0  0  0  0  0  2  0  0  0  0  0  0
  187.6430  178.5880  139.4490 O   0  0  0  0  0  0  0  0  0  0  0  0
  191.3530  176.0700  144.1540 C   0  0  2  0  0  0  0  0  0  0  0  0
  189.3480  176.7380  142.1220 C   0  0  2  0  0  3  0  0  0  0  0  0
  192.7510  176.1790  142.1970 F   0  0  0  0  0  0  0  0  0  0  0  0
  189.5940  177.8320  144.2900 O   0  0  0  0  0  0  0  0  0  0  0  0
  189.8080  177.9780  142.8870 C   0  0  1  0  0  3  0  0  0  0  0  0
  191.2780  178.0100  142.6160 C   0  0  1  0  0  3  0  0  0  0  0  0
  191.5060  176.5250  142.6910 C   0  0  2  0  0  0  0  0  0  0  0  0
  191.5620  174.7230  144.4630 O   0  0  0  0  0  1  0  0  0  0  0  0
  191.5220  178.4850  141.3230 O   0  0  0  0  0  1  0  0  0  0  0  0
  190.4840  175.9200  141.9330 O   0  0  0  0  0  0  0  0  0  0  0  0
  190.2240  176.6880  144.8850 C   0  0  2  0  0  3  0  0  0  0  0  0
  191.6210  177.0420  145.2400 N   0  0  0  0  0  0  0  0  0  0  0  0
  191.8970  176.3750  146.5040 C   0  0  0  0  0  2  0  0  0  0  0  0
  191.4350  177.2510  147.6490 C   0  0  0  0  0  2  0  0  0  0  0  0
  189.9650  177.0070  147.9080 C   0  0  0  0  0  2  0  0  0  0  0  0
  187.8940  178.0000  148.8300 C   0  0  0  0  0  1  0  0  0  0  0  0
  189.3310  178.2760  148.4420 C   0  0  0  0  0  2  0  0  0  0  0  0
  185.8400  179.5290  141.1340 C   0  0  0  0  0  2  0  0  0  0  0  0
  184.3340  179.2190  139.1300 C   0  0  0  0  0  0  0  0  0  0  0  0
  185.0420  178.6940  140.2510 N   0  0  0  0  0  2  0  0  0  0  0  0
  184.1900  180.4670  138.9950 O   0  0  0  0  0  0  0  0  0  0  0  0
  184.6530  177.5560  137.4970 O   0  0  0  0  0  0  0  0  0  0  0  0
  183.8280  178.2910  138.1050 C   0  0  0  0  0  0  0  0  0  0  0  0
  182.4330  178.2430  137.7500 N   0  0  0  0  0  0  0  0  0  0  0  0
  181.1730  179.8460  139.1640 C   0  0  0  0  0  2  0  0  0  0  0  0
  180.3970  179.9740  140.4440 C   0  0  0  0  0  3  0  0  0  0  0  0
  181.7210  177.4490  140.0160 C   0  0  0  0  0  2  0  0  0  0  0  0
  181.8410  178.2080  141.3420 C   0  0  0  0  0  2  0  0  0  0  0  0
  180.7170  179.1950  141.4830 C   0  0  0  0  0  3  0  0  0  0  0  0
  181.4180  178.3680  138.8090 C   0  0  2  0  0  3  0  0  0  0  0  0
  181.0800  178.5860  135.8020 C   0  0  0  0  0  2  0  0  0  0  0  0
  182.0460  177.9000  136.4020 C   0  0  0  0  0  0  0  0  0  0  0  0
  184.6440  174.6990  135.7330 O   0  0  0  0  0  0  0  0  0  0  0  0
  181.2130  175.0560  136.9260 C   0  0  0  0  0  2  0  0  0  0  0  0
  180.7470  173.6410  136.6140 C   0  0  0  0  0  2  0  0  0  0  0  0
  182.6500  176.7290  135.7260 C   0  0  0  0  0  0  0  0  0  0  0  0
  183.4550  174.3720  136.0070 C   0  0  0  0  0  0  0  0  0  0  0  0
  183.3370  176.9220  134.6860 O   0  0  0  0  0  0  0  0  0  0  0  0
  183.1000  172.9160  136.0540 C   0  0  0  0  0  2  0  0  0  0  0  0
  181.8760  172.6670  136.9340 C   0  0  2  0  0  3  0  0  0  0  0  0
  182.4460  175.3850  136.2040 N   0  0  0  0  0  0  0  0  0  0  0  0
  181.4340  171.2690  136.8760 N   0  0  0  0  0  2  0  0  0  0  0  0
  180.0030  169.9290  135.6260 F   0  0  0  0  0  0  0  0  0  0  0  0
  180.9560  170.9240  135.5390 C   0  0  0  0  0  2  0  0  0  0  0  0
  186.4750  177.6670  142.5550 O   0  0  0  0  0  0  0  0  0  0  0  0
  184.7700  178.4180  146.3180 C   0  0  0  0  0  3  0  0  0  0  0  0
  185.9170  177.8930  143.8180 C   0  0  0  0  0  0  0  0  0  0  0  0
  184.6750  178.5300  143.9040 C   0  0  0  0  0  3  0  0  0  0  0  0
  186.0040  177.7700  146.2410 C   0  0  0  0  0  3  0  0  0  0  0  0
  184.1050  178.7940  145.1490 C   0  0  0  0  0  3  0  0  0  0  0  0
  186.5770  177.5050  144.9950 C   0  0  0  0  0  3  0  0  0  0  0  0
  1 22  1  6  0  0  0
  1 49  1  0  0  0  0
  2  3  1  0  0  0  0
  2  1  1  0  0  0  0
  4  2  2  0  0  0  0
  5 12  1  1  0  0  0
  5 15  1  0  0  0  0
  5 16  1  0  0  0  0
  6  3  1  6  0  0  0
  6  9  1  0  0  0  0
  9  8  1  1  0  0  0
 10 13  1  6  0  0  0
 10 11  1  0  0  0  0
 10  9  1  0  0  0  0
 11  7  1  6  0  0  0
 11  5  1  0  0  0  0
 14  6  1  0  0  0  0
 14 11  1  0  0  0  0
 15  8  1  6  0  0  0
 15 16  1  0  0  0  0
 16 17  1  0  0  0  0
 17 18  1  0  0  0  0
 18 19  1  0  0  0  0
 19 21  1  0  0  0  0
 21 20  1  0  0  0  0
 23 24  1  0  0  0  0
 24 22  1  0  0  0  0
 25 23  2  0  0  0  0
 26 27  2  0  0  0  0
 27 23  1  0  0  0  0
 28 27  1  0  0  0  0
 29 30  1  0  0  0  0
 30 33  2  0  0  0  0
 31 32  1  0  0  0  0
 32 33  1  0  0  0  0
 34 28  1  6  0  0  0
 34 29  1  0  0  0  0
 34 31  1  0  0  0  0
 35 36  2  0  0  0  0
 36 28  1  0  0  0  0
 37 41  2  0  0  0  0
 39 38  1  0  0  0  0
 39 44  1  0  0  0  0
 40 45  1  0  0  0  0
 40 36  1  0  0  0  0
 41 43  1  0  0  0  0
 41 45  1  0  0  0  0
 42 40  2  0  0  0  0
 43 44  1  0  0  0  0
 44 46  1  6  0  0  0
 45 38  1  0  0  0  0
 48 47  1  0  0  0  0
 48 46  1  0  0  0  0
 49 51  1  0  0  0  0
 51 52  2  0  0  0  0
 51 55  1  0  0  0  0
 52 54  1  0  0  0  0
 53 50  1  0  0  0  0
 54 50  2  0  0  0  0
 55 53  2  0  0  0  0
M  END
>  <MODEL>
7

>  <REMARK>
 VINA RESULT:      -5.7      2.898      6.414
  Name = 
  16 active torsions:
  status: ('A' for Active; 'I' for Inactive)
    1  A    between atoms: C_3  and  C_25
    2  A    between atoms: C_3  and  C_38
    3  A    between atoms: C_4  and  N_37
    4  A    between atoms: C_4  and  C_54
    5  A    between atoms: C_6  and  N_22
    6  A    between atoms: C_8  and  C_54
    7  A    between atoms: N_10  and  C_47
    8  A    between atoms: N_10  and  C_48
    9  A    between atoms: C_19  and  C_35
   10  A    between atoms: C_26  and  N_45
   11  A    between atoms: C_27  and  O_51
   12  A    between atoms: C_29  and  C_38
   13  A    between atoms: C_29  and  N_53
   14  A    between atoms: C_33  and  C_49
   15  A    between atoms: N_45  and  C_49
   16  A    between atoms: O_51  and  C_54
                            x       y       z     vdW  Elec       q    Type
                         _______ _______ _______ _____ _____    ______ ____

>  <TORSDO>
F 16

$$$$
=
 OpenBabel10272401313D

 55 60  0  0  1  0  0  0  0  0999 V2000
  185.6590  179.1190  140.9120 C   0  0  1  0  0  3  0  0  0  0  0  0
  186.6460  178.6370  139.8880 C   0  0  0  0  0  0  0  0  0  0  0  0
  187.8730  177.9760  140.2330 N   0  0  0  0  0  2  0  0  0  0  0  0
  186.3370  178.7440  138.6700 O   0  0  0  0  0  0  0  0  0  0  0  0
  189.8970  177.0120  143.9220 C   0  0  2  0  0  0  0  0  0  0  0  0
  188.4900  178.0080  141.5510 C   0  0  2  0  0  3  0  0  0  0  0  0
  189.4950  174.9390  142.7630 F   0  0  0  0  0  0  0  0  0  0  0  0
  190.5610  178.9210  142.4640 O   0  0  0  0  0  0  0  0  0  0  0  0
  190.0050  178.1440  141.4050 C   0  0  1  0  0  3  0  0  0  0  0  0
  190.4790  176.7320  141.5310 C   0  0  1  0  0  3  0  0  0  0  0  0
  189.5120  176.3140  142.6050 C   0  0  2  0  0  0  0  0  0  0  0  0
  189.1500  176.7350  145.0710 O   0  0  0  0  0  1  0  0  0  0  0  0
  190.2370  176.0310  140.3450 O   0  0  0  0  0  1  0  0  0  0  0  0
  188.2430  176.7840  142.2130 O   0  0  0  0  0  0  0  0  0  0  0  0
  190.2890  178.4320  143.7850 C   0  0  2  0  0  3  0  0  0  0  0  0
  191.3080  177.4120  144.1370 N   0  0  0  0  0  0  0  0  0  0  0  0
  191.6030  177.6070  145.5490 C   0  0  0  0  0  2  0  0  0  0  0  0
  191.9830  176.2810  146.1740 C   0  0  0  0  0  2  0  0  0  0  0  0
  191.4000  176.1960  147.5670 C   0  0  0  0  0  2  0  0  0  0  0  0
  189.2310  177.2820  148.0540 C   0  0  0  0  0  1  0  0  0  0  0  0
  190.7210  177.5060  147.9080 C   0  0  0  0  0  2  0  0  0  0  0  0
  184.4630  179.7570  140.2200 C   0  0  0  0  0  2  0  0  0  0  0  0
  182.2670  178.5240  140.0210 C   0  0  0  0  0  0  0  0  0  0  0  0
  183.6260  178.7210  139.6370 N   0  0  0  0  0  2  0  0  0  0  0  0
  181.8060  179.0980  141.0480 O   0  0  0  0  0  0  0  0  0  0  0  0
  180.2280  178.1000  138.9270 O   0  0  0  0  0  0  0  0  0  0  0  0
  181.3960  177.6940  139.1720 C   0  0  0  0  0  0  0  0  0  0  0  0
  181.8290  176.4170  138.6650 N   0  0  0  0  0  0  0  0  0  0  0  0
  183.4370  176.9910  136.8650 C   0  0  0  0  0  2  0  0  0  0  0  0
  184.7330  176.5760  136.2270 C   0  0  0  0  0  3  0  0  0  0  0  0
  183.6750  174.7830  138.2210 C   0  0  0  0  0  2  0  0  0  0  0  0
  184.1550  174.2780  136.8560 C   0  0  0  0  0  2  0  0  0  0  0  0
  185.0740  175.2840  136.2210 C   0  0  0  0  0  3  0  0  0  0  0  0
  183.2180  176.2610  138.2020 C   0  0  2  0  0  3  0  0  0  0  0  0
  180.3740  174.7020  139.4910 C   0  0  0  0  0  2  0  0  0  0  0  0
  180.8640  175.3660  138.4500 C   0  0  0  0  0  0  0  0  0  0  0  0
  181.3460  174.2600  134.4520 O   0  0  0  0  0  0  0  0  0  0  0  0
  180.6180  172.4990  137.5650 C   0  0  0  0  0  2  0  0  0  0  0  0
  179.9820  171.2630  136.9490 C   0  0  0  0  0  2  0  0  0  0  0  0
  180.4940  174.9590  137.0750 C   0  0  0  0  0  0  0  0  0  0  0  0
  180.9340  173.3400  135.2130 C   0  0  0  0  0  0  0  0  0  0  0  0
  179.9820  175.8200  136.3090 O   0  0  0  0  0  0  0  0  0  0  0  0
  180.6570  171.9880  134.6260 C   0  0  0  0  0  2  0  0  0  0  0  0
  180.7500  170.8890  135.6840 C   0  0  2  0  0  3  0  0  0  0  0  0
  180.6720  173.6070  136.6070 N   0  0  0  0  0  0  0  0  0  0  0  0
  180.3430  169.5830  135.1550 N   0  0  0  0  0  2  0  0  0  0  0  0
  182.6620  169.4940  135.0190 F   0  0  0  0  0  0  0  0  0  0  0  0
  181.5070  168.7590  134.8390 C   0  0  0  0  0  2  0  0  0  0  0  0
  185.2410  178.0670  141.7780 O   0  0  0  0  0  0  0  0  0  0  0  0
  184.5980  178.5140  145.9030 C   0  0  0  0  0  3  0  0  0  0  0  0
  185.0170  178.2420  143.1480 C   0  0  0  0  0  0  0  0  0  0  0  0
  185.9210  177.6830  144.0570 C   0  0  0  0  0  3  0  0  0  0  0  0
  183.6980  179.0870  145.0020 C   0  0  0  0  0  3  0  0  0  0  0  0
  185.7110  177.8150  145.4300 C   0  0  0  0  0  3  0  0  0  0  0  0
  183.9070  178.9540  143.6280 C   0  0  0  0  0  3  0  0  0  0  0  0
  1 22  1  6  0  0  0
  1 49  1  0  0  0  0
  2  3  1  0  0  0  0
  2  1  1  0  0  0  0
  4  2  2  0  0  0  0
  5 16  1  0  0  0  0
  5 12  1  1  0  0  0
  6  3  1  6  0  0  0
  6 14  1  0  0  0  0
  9 10  1  0  0  0  0
  9  6  1  0  0  0  0
  9  8  1  1  0  0  0
 10 13  1  6  0  0  0
 10 11  1  0  0  0  0
 11  7  1  1  0  0  0
 11  5  1  0  0  0  0
 14 11  1  0  0  0  0
 15  8  1  6  0  0  0
 15  5  1  0  0  0  0
 15 16  1  0  0  0  0
 16 17  1  0  0  0  0
 17 18  1  0  0  0  0
 18 19  1  0  0  0  0
 19 21  1  0  0  0  0
 21 20  1  0  0  0  0
 23 25  2  0  0  0  0
 24 23  1  0  0  0  0
 24 22  1  0  0  0  0
 26 27  2  0  0  0  0
 27 23  1  0  0  0  0
 28 27  1  0  0  0  0
 29 34  1  0  0  0  0
 30 29  1  0  0  0  0
 32 31  1  0  0  0  0
 33 30  2  0  0  0  0
 33 32  1  0  0  0  0
 34 31  1  0  0  0  0
 34 28  1  6  0  0  0
 36 28  1  0  0  0  0
 36 35  2  0  0  0  0
 37 41  2  0  0  0  0
 39 38  1  0  0  0  0
 40 36  1  0  0  0  0
 41 45  1  0  0  0  0
 42 40  2  0  0  0  0
 43 41  1  0  0  0  0
 43 44  1  0  0  0  0
 44 46  1  6  0  0  0
 44 39  1  0  0  0  0
 45 40  1  0  0  0  0
 45 38  1  0  0  0  0
 48 47  1  0  0  0  0
 48 46  1  0  0  0  0
 49 51  1  0  0  0  0
 51 55  2  0  0  0  0
 51 52  1  0  0  0  0
 52 54  2  0  0  0  0
 53 50  2  0  0  0  0
 54 50  1  0  0  0  0
 55 53  1  0  0  0  0
M  END
>  <MODEL>
8

>  <REMARK>
 VINA RESULT:      -5.6      3.153      6.611
  Name = 
  16 active torsions:
  status: ('A' for Active; 'I' for Inactive)
    1  A    between atoms: C_3  and  C_25
    2  A    between atoms: C_3  and  C_38
    3  A    between atoms: C_4  and  N_37
    4  A    between atoms: C_4  and  C_54
    5  A    between atoms: C_6  and  N_22
    6  A    between atoms: C_8  and  C_54
    7  A    between atoms: N_10  and  C_47
    8  A    between atoms: N_10  and  C_48
    9  A    between atoms: C_19  and  C_35
   10  A    between atoms: C_26  and  N_45
   11  A    between atoms: C_27  and  O_51
   12  A    between atoms: C_29  and  C_38
   13  A    between atoms: C_29  and  N_53
   14  A    between atoms: C_33  and  C_49
   15  A    between atoms: N_45  and  C_49
   16  A    between atoms: O_51  and  C_54
                            x       y       z     vdW  Elec       q    Type
                         _______ _______ _______ _____ _____    ______ ____

>  <TORSDO>
F 16

$$$$
=
 OpenBabel10272401313D

 55 60  0  0  1  0  0  0  0  0999 V2000
  188.6290  177.5450  138.4830 C   0  0  1  0  0  3  0  0  0  0  0  0
  190.1220  177.5350  138.6450 C   0  0  0  0  0  0  0  0  0  0  0  0
  190.7700  177.3170  139.9070 N   0  0  0  0  0  2  0  0  0  0  0  0
  190.8330  177.6390  137.6090 O   0  0  0  0  0  0  0  0  0  0  0  0
  189.4860  176.8230  143.9990 C   0  0  2  0  0  0  0  0  0  0  0  0
  190.1230  177.4410  141.2050 C   0  0  2  0  0  3  0  0  0  0  0  0
  190.8300  174.9070  143.4350 F   0  0  0  0  0  0  0  0  0  0  0  0
  190.3060  178.9910  143.0820 O   0  0  0  0  0  0  0  0  0  0  0  0
  191.0480  178.1820  142.1700 C   0  0  1  0  0  3  0  0  0  0  0  0
  191.7030  177.0690  142.9230 C   0  0  1  0  0  3  0  0  0  0  0  0
  190.4910  176.1830  143.0240 C   0  0  2  0  0  0  0  0  0  0  0  0
  188.2940  176.1450  144.2740 O   0  0  0  0  0  1  0  0  0  0  0  0
  192.6920  176.4690  142.1370 O   0  0  0  0  0  1  0  0  0  0  0  0
  189.9030  176.1540  141.7440 O   0  0  0  0  0  0  0  0  0  0  0  0
  189.3280  178.2880  143.8610 C   0  0  2  0  0  3  0  0  0  0  0  0
  189.9910  177.7220  145.0640 N   0  0  0  0  0  0  0  0  0  0  0  0
  189.0340  177.8580  146.1520 C   0  0  0  0  0  2  0  0  0  0  0  0
  189.4890  177.0230  147.3310 C   0  0  0  0  0  2  0  0  0  0  0  0
  190.9810  177.1930  147.5220 C   0  0  0  0  0  2  0  0  0  0  0  0
  192.3280  175.4330  146.4230 C   0  0  0  0  0  1  0  0  0  0  0  0
  191.6210  175.8320  147.7010 C   0  0  0  0  0  2  0  0  0  0  0  0
  188.1430  176.1610  138.0750 C   0  0  0  0  0  2  0  0  0  0  0  0
  186.7710  175.1900  136.1900 C   0  0  0  0  0  0  0  0  0  0  0  0
  187.1450  176.2830  137.0250 N   0  0  0  0  0  2  0  0  0  0  0  0
  187.4590  174.1300  136.1820 O   0  0  0  0  0  0  0  0  0  0  0  0
  185.5590  176.0060  134.3460 O   0  0  0  0  0  0  0  0  0  0  0  0
  185.5420  175.2910  135.3840 C   0  0  0  0  0  0  0  0  0  0  0  0
  184.3210  174.6410  135.7830 N   0  0  0  0  0  0  0  0  0  0  0  0
  184.7280  172.2420  135.2990 C   0  0  0  0  0  2  0  0  0  0  0  0
  184.4780  170.8490  135.8050 C   0  0  0  0  0  3  0  0  0  0  0  0
  183.1330  172.9700  137.2220 C   0  0  0  0  0  2  0  0  0  0  0  0
  182.3910  171.7120  136.7590 C   0  0  0  0  0  2  0  0  0  0  0  0
  183.3630  170.5960  136.4990 C   0  0  0  0  0  3  0  0  0  0  0  0
  184.3840  173.2920  136.3700 C   0  0  2  0  0  3  0  0  0  0  0  0
  182.2650  174.6380  134.5510 C   0  0  0  0  0  2  0  0  0  0  0  0
  183.0480  175.2330  135.4440 C   0  0  0  0  0  0  0  0  0  0  0  0
  180.6290  178.4970  136.4080 O   0  0  0  0  0  0  0  0  0  0  0  0
  181.8980  175.5840  138.2030 C   0  0  0  0  0  2  0  0  0  0  0  0
  181.7530  176.1410  139.6110 C   0  0  0  0  0  2  0  0  0  0  0  0
  182.6590  176.5440  136.0110 C   0  0  0  0  0  0  0  0  0  0  0  0
  180.9660  177.7760  137.3880 C   0  0  0  0  0  0  0  0  0  0  0  0
  183.0810  177.5920  135.4500 O   0  0  0  0  0  0  0  0  0  0  0  0
  180.4910  178.1550  138.7590 C   0  0  0  0  0  2  0  0  0  0  0  0
  180.4610  176.9470  139.6940 C   0  0  2  0  0  3  0  0  0  0  0  0
  181.8480  176.6500  137.1980 N   0  0  0  0  0  0  0  0  0  0  0  0
  180.1330  177.3280  141.0730 N   0  0  0  0  0  2  0  0  0  0  0  0
  181.7800  178.4400  142.2790 F   0  0  0  0  0  0  0  0  0  0  0  0
  180.7200  178.6220  141.4130 C   0  0  0  0  0  2  0  0  0  0  0  0
  187.9720  177.9840  139.6680 O   0  0  0  0  0  0  0  0  0  0  0  0
  183.9560  179.2080  139.6990 C   0  0  0  0  0  3  0  0  0  0  0  0
  186.6310  178.3790  139.7040 C   0  0  0  0  0  0  0  0  0  0  0  0
  185.9060  178.4150  138.5080 C   0  0  0  0  0  3  0  0  0  0  0  0
  184.6690  179.1630  140.8990 C   0  0  0  0  0  3  0  0  0  0  0  0
  184.5740  178.8310  138.5050 C   0  0  0  0  0  3  0  0  0  0  0  0
  186.0020  178.7480  140.9030 C   0  0  0  0  0  3  0  0  0  0  0  0
  1 22  1  1  0  0  0
  1  2  1  0  0  0  0
  1 49  1  0  0  0  0
  2  3  1  0  0  0  0
  4  2  2  0  0  0  0
  5 12  1  1  0  0  0
  5 16  1  0  0  0  0
  6  3  1  6  0  0  0
  6 14  1  0  0  0  0
  6  9  1  0  0  0  0
  9 10  1  0  0  0  0
  9  8  1  1  0  0  0
 10 13  1  6  0  0  0
 10 11  1  0  0  0  0
 11  7  1  1  0  0  0
 11  5  1  0  0  0  0
 14 11  1  0  0  0  0
 15  8  1  6  0  0  0
 15  5  1  0  0  0  0
 15 16  1  0  0  0  0
 16 17  1  0  0  0  0
 17 18  1  0  0  0  0
 18 19  1  0  0  0  0
 19 21  1  0  0  0  0
 20 21  1  0  0  0  0
 23 24  1  0  0  0  0
 24 22  1  0  0  0  0
 25 23  2  0  0  0  0
 26 27  2  0  0  0  0
 27 28  1  0  0  0  0
 27 23  1  0  0  0  0
 29 30  1  0  0  0  0
 29 34  1  0  0  0  0
 30 33  2  0  0  0  0
 32 31  1  0  0  0  0
 33 32  1  0  0  0  0
 34 28  1  6  0  0  0
 34 31  1  0  0  0  0
 35 36  2  0  0  0  0
 36 28  1  0  0  0  0
 36 40  1  0  0  0  0
 37 41  2  0  0  0  0
 38 39  1  0  0  0  0
 39 44  1  0  0  0  0
 40 45  1  0  0  0  0
 41 43  1  0  0  0  0
 42 40  2  0  0  0  0
 43 44  1  0  0  0  0
 44 46  1  1  0  0  0
 45 41  1  0  0  0  0
 45 38  1  0  0  0  0
 46 48  1  0  0  0  0
 48 47  1  0  0  0  0
 49 51  1  0  0  0  0
 50 53  1  0  0  0  0
 51 55  1  0  0  0  0
 52 51  2  0  0  0  0
 53 55  2  0  0  0  0
 54 52  1  0  0  0  0
 54 50  2  0  0  0  0
M  END
>  <MODEL>
9

>  <REMARK>
 VINA RESULT:      -5.4      2.418      4.617
  Name = 
  16 active torsions:
  status: ('A' for Active; 'I' for Inactive)
    1  A    between atoms: C_3  and  C_25
    2  A    between atoms: C_3  and  C_38
    3  A    between atoms: C_4  and  N_37
    4  A    between atoms: C_4  and  C_54
    5  A    between atoms: C_6  and  N_22
    6  A    between atoms: C_8  and  C_54
    7  A    between atoms: N_10  and  C_47
    8  A    between atoms: N_10  and  C_48
    9  A    between atoms: C_19  and  C_35
   10  A    between atoms: C_26  and  N_45
   11  A    between atoms: C_27  and  O_51
   12  A    between atoms: C_29  and  C_38
   13  A    between atoms: C_29  and  N_53
   14  A    between atoms: C_33  and  C_49
   15  A    between atoms: N_45  and  C_49
   16  A    between atoms: O_51  and  C_54
                            x       y       z     vdW  Elec       q    Type
                         _______ _______ _______ _____ _____    ______ ____

>  <TORSDO>
F 16

$$$$
