=
 OpenBabel10272400023D

 34 39  0  0  1  0  0  0  0  0999 V2000
  190.5000  177.3820  138.9660 C   0  0  0  0  0  0  0  0  0  0  0  0
  188.1490  176.9150  138.2510 C   0  0  0  0  0  0  0  0  0  0  0  0
  188.6430  177.6550  140.6530 C   0  0  0  0  0  0  0  0  0  0  0  0
  187.1630  178.0070  142.5600 C   0  0  1  0  0  3  0  0  0  0  0  0
  190.0040  176.4400  136.7580 C   0  0  0  0  0  3  0  0  0  0  0  0
  188.6870  176.4610  136.9610 C   0  0  0  0  0  3  0  0  0  0  0  0
  186.4740  178.7190  140.3100 N   0  0  0  0  0  0  0  0  0  0  0  0
  189.0370  177.7250  139.1810 C   0  0  1  0  0  3  0  0  0  0  0  0
  184.2220  179.4690  140.3800 N   0  0  0  0  0  2  0  0  0  0  0  0
  185.3670  178.3040  142.6740 S   0  0  0  0  0  0  0  0  0  0  0  0
  190.9370  176.8230  137.8310 C   0  0  0  0  0  3  0  0  0  0  0  0
  189.6180  177.2080  141.7290 C   0  0  1  0  0  3  0  0  0  0  0  0
  191.6360  177.5640  140.3280 S   0  0  0  0  0  0  0  0  0  0  0  0
  186.9420  176.6840  138.5240 O   0  0  0  0  0  0  0  0  0  0  0  0
  187.4870  176.7020  142.9910 O   0  0  0  0  0  0  0  0  0  0  0  0
  188.8940  176.4740  142.8890 C   0  0  2  0  0  3  0  0  0  0  0  0
  185.3790  178.8810  140.9730 C   0  0  0  0  0  0  0  0  0  0  0  0
  187.4890  178.1450  141.1130 C   0  0  0  0  0  0  0  0  0  0  0  0
  190.6850  176.4480  141.2300 O   0  0  0  0  0  0  0  0  0  0  0  0
  189.4510  177.2890  146.5460 C   0  0  0  0  0  0  0  0  0  0  0  0
  190.8320  177.1080  146.6690 C   0  0  0  0  0  3  0  0  0  0  0  0
  189.5800  176.6960  144.1990 C   0  0  0  0  0  0  0  0  0  0  0  0
  191.5890  176.7200  145.5610 C   0  0  0  0  0  3  0  0  0  0  0  0
  188.8260  177.0840  145.3110 C   0  0  0  0  0  3  0  0  0  0  0  0
  190.9650  176.5140  144.3260 C   0  0  0  0  0  3  0  0  0  0  0  0
  188.7000  177.6740  147.6470 O   0  0  0  0  0  1  0  0  0  0  0  0
  184.2080  179.9260  138.9990 C   0  0  0  0  0  2  0  0  0  0  0  0
  182.2040  181.9130  138.4250 F   0  0  0  0  0  0  0  0  0  0  0  0
  182.8640  179.6180  138.3610 C   0  0  2  0  0  3  0  0  0  0  0  0
  181.8200  180.6420  138.8160 C   0  0  2  0  0  3  0  0  0  0  0  0
  180.0660  179.0390  138.7300 C   0  0  0  0  0  2  0  0  0  0  0  0
  181.0060  177.9360  138.2510 C   0  0  0  0  0  2  0  0  0  0  0  0
  182.4130  178.2140  138.7670 C   0  0  0  0  0  2  0  0  0  0  0  0
  180.5190  180.3330  138.2220 N   0  0  0  0  0  2  0  0  0  0  0  0
  1  8  1  0  0  0  0
  1 13  1  0  0  0  0
  2 14  2  0  0  0  0
  3 18  2  0  0  0  0
  4 18  1  6  0  0  0
  4 10  1  0  0  0  0
  4 15  1  0  0  0  0
  5  6  2  0  0  0  0
  5 11  1  0  0  0  0
  6  2  1  0  0  0  0
  7 17  2  0  0  0  0
  7 18  1  0  0  0  0
  8  2  1  6  0  0  0
  8  3  1  0  0  0  0
  9 17  1  0  0  0  0
 11  1  2  0  0  0  0
 12  3  1  6  0  0  0
 12 16  1  0  0  0  0
 13 19  1  0  0  0  0
 16 15  1  0  0  0  0
 16 22  1  1  0  0  0
 17 10  1  0  0  0  0
 19 12  1  0  0  0  0
 20 21  1  0  0  0  0
 20 26  1  0  0  0  0
 22 25  2  0  0  0  0
 22 24  1  0  0  0  0
 23 21  2  0  0  0  0
 24 20  2  0  0  0  0
 25 23  1  0  0  0  0
 27  9  1  0  0  0  0
 29 33  1  0  0  0  0
 29 30  1  0  0  0  0
 29 27  1  1  0  0  0
 30 28  1  6  0  0  0
 32 31  1  0  0  0  0
 32 33  1  0  0  0  0
 34 31  1  0  0  0  0
 34 30  1  0  0  0  0
M  END
>  <MODEL>
1

>  <REMARK>
 VINA RESULT:      -9.1      0.000      0.000
  Name = 
  3 active torsions:
  status: ('A' for Active; 'I' for Inactive)
    1  A    between atoms: C_3  and  C_13
    2  A    between atoms: C_3  and  N_17
    3  A    between atoms: C_12  and  C_28
                            x       y       z     vdW  Elec       q    Type
                         _______ _______ _______ _____ _____    ______ ____

>  <TORSDO>
F 3

$$$$
=
 OpenBabel10272400023D

 34 39  0  0  1  0  0  0  0  0999 V2000
  191.3500  177.8350  141.2750 C   0  0  0  0  0  0  0  0  0  0  0  0
  189.7570  176.9280  139.5720 C   0  0  0  0  0  0  0  0  0  0  0  0
  188.8750  177.9200  141.7630 C   0  0  0  0  0  0  0  0  0  0  0  0
  186.6010  178.1630  142.6130 C   0  0  1  0  0  3  0  0  0  0  0  0
  192.1530  176.6590  139.2800 C   0  0  0  0  0  3  0  0  0  0  0  0
  190.9230  176.4740  138.8010 C   0  0  0  0  0  3  0  0  0  0  0  0
  187.0860  178.5760  140.2390 N   0  0  0  0  0  0  0  0  0  0  0  0
  189.9540  177.9440  140.6850 C   0  0  1  0  0  3  0  0  0  0  0  0
  185.0480  178.9410  139.0750 N   0  0  0  0  0  2  0  0  0  0  0  0
  184.9790  178.1620  141.7800 S   0  0  0  0  0  0  0  0  0  0  0  0
  192.3600  177.2730  140.6020 C   0  0  0  0  0  3  0  0  0  0  0  0
  189.2050  177.7260  143.2330 C   0  0  1  0  0  3  0  0  0  0  0  0
  191.6040  178.3080  142.9750 S   0  0  0  0  0  0  0  0  0  0  0  0
  188.6120  176.5190  139.2450 O   0  0  0  0  0  0  0  0  0  0  0  0
  186.7970  176.9660  143.3390 O   0  0  0  0  0  0  0  0  0  0  0  0
  188.0740  176.9700  143.9790 C   0  0  2  0  0  3  0  0  0  0  0  0
  185.7960  178.6020  140.2420 C   0  0  0  0  0  0  0  0  0  0  0  0
  187.6030  178.2430  141.5140 C   0  0  0  0  0  0  0  0  0  0  0  0
  190.4510  177.1190  143.4460 O   0  0  0  0  0  0  0  0  0  0  0  0
  186.7130  178.5090  147.1620 C   0  0  0  0  0  0  0  0  0  0  0  0
  187.7300  178.2160  148.0750 C   0  0  0  0  0  3  0  0  0  0  0  0
  187.9670  177.4030  145.4070 C   0  0  0  0  0  0  0  0  0  0  0  0
  188.8660  177.5160  147.6580 C   0  0  0  0  0  3  0  0  0  0  0  0
  186.8320  178.1030  145.8290 C   0  0  0  0  0  3  0  0  0  0  0  0
  188.9850  177.1090  146.3250 C   0  0  0  0  0  3  0  0  0  0  0  0
  185.5860  179.2040  147.5770 O   0  0  0  0  0  1  0  0  0  0  0  0
  185.6930  179.2840  137.8160 C   0  0  0  0  0  2  0  0  0  0  0  0
  188.5260  179.1300  137.3240 F   0  0  0  0  0  0  0  0  0  0  0  0
  186.3900  178.0630  137.2390 C   0  0  2  0  0  3  0  0  0  0  0  0
  187.6450  178.4900  136.4710 C   0  0  2  0  0  3  0  0  0  0  0  0
  187.4110  176.7130  134.9070 C   0  0  0  0  0  2  0  0  0  0  0  0
  186.1610  176.1780  135.6000 C   0  0  0  0  0  2  0  0  0  0  0  0
  185.4390  177.3270  136.2950 C   0  0  0  0  0  2  0  0  0  0  0  0
  188.3050  177.3190  135.8940 N   0  0  0  0  0  2  0  0  0  0  0  0
  1 13  1  0  0  0  0
  4 18  1  6  0  0  0
  4 15  1  0  0  0  0
  5 11  1  0  0  0  0
  6  5  2  0  0  0  0
  6  2  1  0  0  0  0
  7 17  2  0  0  0  0
  7 18  1  0  0  0  0
  8  2  1  6  0  0  0
  8  1  1  0  0  0  0
  8  3  1  0  0  0  0
  9 17  1  0  0  0  0
 10  4  1  0  0  0  0
 11  1  2  0  0  0  0
 12  3  1  6  0  0  0
 12 19  1  0  0  0  0
 12 16  1  0  0  0  0
 13 19  1  0  0  0  0
 14  2  2  0  0  0  0
 15 16  1  0  0  0  0
 16 22  1  1  0  0  0
 17 10  1  0  0  0  0
 18  3  2  0  0  0  0
 20 26  1  0  0  0  0
 20 21  1  0  0  0  0
 22 24  1  0  0  0  0
 22 25  2  0  0  0  0
 23 21  2  0  0  0  0
 24 20  2  0  0  0  0
 25 23  1  0  0  0  0
 27  9  1  0  0  0  0
 29 27  1  6  0  0  0
 30 29  1  0  0  0  0
 30 28  1  1  0  0  0
 31 32  1  0  0  0  0
 31 34  1  0  0  0  0
 32 33  1  0  0  0  0
 33 29  1  0  0  0  0
 34 30  1  0  0  0  0
M  END
>  <MODEL>
2

>  <REMARK>
 VINA RESULT:      -9.0      2.703      3.643
  Name = 
  3 active torsions:
  status: ('A' for Active; 'I' for Inactive)
    1  A    between atoms: C_3  and  C_13
    2  A    between atoms: C_3  and  N_17
    3  A    between atoms: C_12  and  C_28
                            x       y       z     vdW  Elec       q    Type
                         _______ _______ _______ _____ _____    ______ ____

>  <TORSDO>
F 3

$$$$
=
 OpenBabel10272400023D

 34 39  0  0  1  0  0  0  0  0999 V2000
  190.6660  177.1250  146.6570 C   0  0  0  0  0  0  0  0  0  0  0  0
  191.6910  175.7340  144.8480 C   0  0  0  0  0  0  0  0  0  0  0  0
  189.7180  177.2800  144.3230 C   0  0  0  0  0  0  0  0  0  0  0  0
  188.5120  177.6940  142.2430 C   0  0  1  0  0  3  0  0  0  0  0  0
  192.3900  175.4560  147.1570 C   0  0  0  0  0  3  0  0  0  0  0  0
  192.5350  175.1110  145.8780 C   0  0  0  0  0  3  0  0  0  0  0  0
  190.9570  177.4340  142.2270 N   0  0  0  0  0  0  0  0  0  0  0  0
  190.9600  177.0270  145.1700 C   0  0  1  0  0  3  0  0  0  0  0  0
  191.7270  177.4040  139.9810 N   0  0  0  0  0  2  0  0  0  0  0  0
  188.9590  177.4170  140.4970 S   0  0  0  0  0  0  0  0  0  0  0  0
  191.3550  176.4220  147.5630 C   0  0  0  0  0  3  0  0  0  0  0  0
  188.3510  177.5170  144.9440 C   0  0  1  0  0  3  0  0  0  0  0  0
  189.2480  178.0630  147.1930 S   0  0  0  0  0  0  0  0  0  0  0  0
  191.6510  175.2200  143.6990 O   0  0  0  0  0  0  0  0  0  0  0  0
  187.5470  176.7560  142.6720 O   0  0  0  0  0  0  0  0  0  0  0  0
  187.2110  176.9730  144.0430 C   0  0  2  0  0  3  0  0  0  0  0  0
  190.6930  177.4260  140.9640 C   0  0  0  0  0  0  0  0  0  0  0  0
  189.7750  177.4870  143.0050 C   0  0  0  0  0  0  0  0  0  0  0  0
  188.2450  177.0270  146.2540 O   0  0  0  0  0  0  0  0  0  0  0  0
  183.9700  178.7290  143.1690 C   0  0  0  0  0  0  0  0  0  0  0  0
  183.6150  179.2960  144.3960 C   0  0  0  0  0  3  0  0  0  0  0  0
  185.9630  177.7870  144.1770 C   0  0  0  0  0  0  0  0  0  0  0  0
  184.4300  179.1090  145.5160 C   0  0  0  0  0  3  0  0  0  0  0  0
  185.1440  177.9760  143.0600 C   0  0  0  0  0  3  0  0  0  0  0  0
  185.6040  178.3560  145.4070 C   0  0  0  0  0  3  0  0  0  0  0  0
  183.1590  178.9140  142.0580 O   0  0  0  0  0  1  0  0  0  0  0  0
  193.1370  177.3950  140.3420 C   0  0  0  0  0  2  0  0  0  0  0  0
  192.2250  176.9590  137.6450 F   0  0  0  0  0  0  0  0  0  0  0  0
  193.9420  176.6640  139.2800 C   0  0  2  0  0  3  0  0  0  0  0  0
  192.9990  175.9990  138.2720 C   0  0  2  0  0  3  0  0  0  0  0  0
  194.4980  174.1870  137.9160 C   0  0  0  0  0  2  0  0  0  0  0  0
  195.5290  174.7620  138.8840 C   0  0  0  0  0  2  0  0  0  0  0  0
  194.8170  175.5980  139.9410 C   0  0  0  0  0  2  0  0  0  0  0  0
  193.7710  175.2740  137.2630 N   0  0  0  0  0  2  0  0  0  0  0  0
  1 13  1  0  0  0  0
  1 11  2  0  0  0  0
  2  8  1  0  0  0  0
  2  6  1  0  0  0  0
  4 10  1  6  0  0  0
  4 15  1  0  0  0  0
  4 18  1  0  0  0  0
  5 11  1  0  0  0  0
  6  5  2  0  0  0  0
  7 18  1  0  0  0  0
  8  3  1  6  0  0  0
  8  1  1  0  0  0  0
  9 27  1  0  0  0  0
  9 17  1  0  0  0  0
 10 17  1  0  0  0  0
 12  3  1  6  0  0  0
 12 19  1  0  0  0  0
 14  2  2  0  0  0  0
 15 16  1  0  0  0  0
 16 22  1  6  0  0  0
 16 12  1  0  0  0  0
 17  7  2  0  0  0  0
 18  3  2  0  0  0  0
 19 13  1  0  0  0  0
 20 21  1  0  0  0  0
 21 23  2  0  0  0  0
 22 25  2  0  0  0  0
 24 20  2  0  0  0  0
 24 22  1  0  0  0  0
 25 23  1  0  0  0  0
 26 20  1  0  0  0  0
 29 33  1  0  0  0  0
 29 27  1  1  0  0  0
 30 28  1  6  0  0  0
 30 29  1  0  0  0  0
 31 32  1  0  0  0  0
 32 33  1  0  0  0  0
 34 31  1  0  0  0  0
 34 30  1  0  0  0  0
M  END
>  <MODEL>
3

>  <REMARK>
 VINA RESULT:      -8.9      4.321      8.366
  Name = 
  3 active torsions:
  status: ('A' for Active; 'I' for Inactive)
    1  A    between atoms: C_3  and  C_13
    2  A    between atoms: C_3  and  N_17
    3  A    between atoms: C_12  and  C_28
                            x       y       z     vdW  Elec       q    Type
                         _______ _______ _______ _____ _____    ______ ____

>  <TORSDO>
F 3

$$$$
=
 OpenBabel10272400023D

 34 39  0  0  1  0  0  0  0  0999 V2000
  191.2060  177.7880  141.1810 C   0  0  0  0  0  0  0  0  0  0  0  0
  189.3750  176.9990  139.6700 C   0  0  0  0  0  0  0  0  0  0  0  0
  188.8190  177.9330  141.9890 C   0  0  0  0  0  0  0  0  0  0  0  0
  186.6840  178.2150  143.1360 C   0  0  1  0  0  3  0  0  0  0  0  0
  191.7020  176.6660  139.0590 C   0  0  0  0  0  3  0  0  0  0  0  0
  190.4140  176.5390  138.7380 C   0  0  0  0  0  3  0  0  0  0  0  0
  186.8740  178.7050  140.7350 N   0  0  0  0  0  0  0  0  0  0  0  0
  189.7510  177.9640  140.7820 C   0  0  1  0  0  3  0  0  0  0  0  0
  184.7180  179.1800  139.8590 N   0  0  0  0  0  2  0  0  0  0  0  0
  184.9690  178.2990  142.5210 S   0  0  0  0  0  0  0  0  0  0  0  0
  192.1000  177.2200  140.3630 C   0  0  0  0  0  3  0  0  0  0  0  0
  189.3290  177.6710  143.3960 C   0  0  1  0  0  3  0  0  0  0  0  0
  191.6940  178.1850  142.8490 S   0  0  0  0  0  0  0  0  0  0  0  0
  188.1830  176.6400  139.4800 O   0  0  0  0  0  0  0  0  0  0  0  0
  186.9270  176.9850  143.7880 O   0  0  0  0  0  0  0  0  0  0  0  0
  188.2750  176.9230  144.2570 C   0  0  2  0  0  3  0  0  0  0  0  0
  185.5970  178.7720  140.9060 C   0  0  0  0  0  0  0  0  0  0  0  0
  187.5380  178.3060  141.9190 C   0  0  0  0  0  0  0  0  0  0  0  0
  190.5680  177.0170  143.4240 O   0  0  0  0  0  0  0  0  0  0  0  0
  189.7250  177.6530  147.6790 C   0  0  0  0  0  0  0  0  0  0  0  0
  188.5830  178.0190  148.3980 C   0  0  0  0  0  3  0  0  0  0  0  0
  188.3700  177.3030  145.7000 C   0  0  0  0  0  0  0  0  0  0  0  0
  187.3340  178.0300  147.7710 C   0  0  0  0  0  3  0  0  0  0  0  0
  189.6180  177.2950  146.3320 C   0  0  0  0  0  3  0  0  0  0  0  0
  187.2270  177.6720  146.4240 C   0  0  0  0  0  3  0  0  0  0  0  0
  190.9650  177.6430  148.3030 O   0  0  0  0  0  1  0  0  0  0  0  0
  185.2080  179.5510  138.5400 C   0  0  0  0  0  2  0  0  0  0  0  0
  182.6890  178.1690  138.3410 F   0  0  0  0  0  0  0  0  0  0  0  0
  184.9260  178.4360  137.5470 C   0  0  2  0  0  3  0  0  0  0  0  0
  183.8690  177.4830  138.1140 C   0  0  2  0  0  3  0  0  0  0  0  0
  184.8350  175.6040  137.0220 C   0  0  0  0  0  2  0  0  0  0  0  0
  185.9280  176.4540  136.3800 C   0  0  0  0  0  2  0  0  0  0  0  0
  186.2140  177.6600  137.2660 C   0  0  0  0  0  2  0  0  0  0  0  0
  183.6140  176.3950  137.1700 N   0  0  0  0  0  2  0  0  0  0  0  0
  1 13  1  0  0  0  0
  4 18  1  6  0  0  0
  4 15  1  0  0  0  0
  5 11  1  0  0  0  0
  6  5  2  0  0  0  0
  6  2  1  0  0  0  0
  7 17  2  0  0  0  0
  7 18  1  0  0  0  0
  8  2  1  6  0  0  0
  8  1  1  0  0  0  0
  8  3  1  0  0  0  0
  9 17  1  0  0  0  0
 10  4  1  0  0  0  0
 11  1  2  0  0  0  0
 12  3  1  6  0  0  0
 12 19  1  0  0  0  0
 12 16  1  0  0  0  0
 13 19  1  0  0  0  0
 14  2  2  0  0  0  0
 15 16  1  0  0  0  0
 16 22  1  1  0  0  0
 17 10  1  0  0  0  0
 18  3  2  0  0  0  0
 20 26  1  0  0  0  0
 20 21  1  0  0  0  0
 22 24  1  0  0  0  0
 22 25  2  0  0  0  0
 23 21  2  0  0  0  0
 24 20  2  0  0  0  0
 25 23  1  0  0  0  0
 27  9  1  0  0  0  0
 29 30  1  0  0  0  0
 29 27  1  1  0  0  0
 30 28  1  6  0  0  0
 31 34  1  0  0  0  0
 32 31  1  0  0  0  0
 32 33  1  0  0  0  0
 33 29  1  0  0  0  0
 34 30  1  0  0  0  0
M  END
>  <MODEL>
4

>  <REMARK>
 VINA RESULT:      -8.1      2.045      2.834
  Name = 
  3 active torsions:
  status: ('A' for Active; 'I' for Inactive)
    1  A    between atoms: C_3  and  C_13
    2  A    between atoms: C_3  and  N_17
    3  A    between atoms: C_12  and  C_28
                            x       y       z     vdW  Elec       q    Type
                         _______ _______ _______ _____ _____    ______ ____

>  <TORSDO>
F 3

$$$$
=
 OpenBabel10272400023D

 34 39  0  0  1  0  0  0  0  0999 V2000
  186.0020  177.7010  144.0220 C   0  0  0  0  0  0  0  0  0  0  0  0
  186.5530  178.9120  141.9040 C   0  0  0  0  0  0  0  0  0  0  0  0
  188.3070  177.4240  143.0320 C   0  0  0  0  0  0  0  0  0  0  0  0
  190.6150  176.9210  142.4220 C   0  0  1  0  0  3  0  0  0  0  0  0
  184.4460  179.3200  143.0400 C   0  0  0  0  0  3  0  0  0  0  0  0
  185.2400  179.5660  141.9990 C   0  0  0  0  0  3  0  0  0  0  0  0
  188.8800  177.0660  140.6880 N   0  0  0  0  0  0  0  0  0  0  0  0
  186.8300  177.6800  142.7500 C   0  0  1  0  0  3  0  0  0  0  0  0
  189.8950  176.9020  138.5470 N   0  0  0  0  0  2  0  0  0  0  0  0
  191.5180  177.0530  140.8440 S   0  0  0  0  0  0  0  0  0  0  0  0
  184.8880  178.4340  144.1300 C   0  0  0  0  0  3  0  0  0  0  0  0
  188.8480  177.2960  144.4460 C   0  0  1  0  0  3  0  0  0  0  0  0
  186.6280  176.8680  145.4700 S   0  0  0  0  0  0  0  0  0  0  0  0
  187.3920  179.3440  141.0700 O   0  0  0  0  0  0  0  0  0  0  0  0
  191.0220  177.9300  143.3230 O   0  0  0  0  0  0  0  0  0  0  0  0
  190.3030  177.8260  144.5530 C   0  0  2  0  0  3  0  0  0  0  0  0
  189.9500  176.9960  139.9700 C   0  0  0  0  0  0  0  0  0  0  0  0
  189.1820  177.1220  142.0690 C   0  0  0  0  0  0  0  0  0  0  0  0
  188.0190  177.8810  145.4130 O   0  0  0  0  0  0  0  0  0  0  0  0
  191.9500  176.9370  147.8460 C   0  0  0  0  0  0  0  0  0  0  0  0
  192.5440  175.7080  147.5430 C   0  0  0  0  0  3  0  0  0  0  0  0
  191.0890  177.0810  145.5840 C   0  0  0  0  0  0  0  0  0  0  0  0
  192.4110  175.1630  146.2620 C   0  0  0  0  0  3  0  0  0  0  0  0
  191.2230  177.6220  146.8670 C   0  0  0  0  0  3  0  0  0  0  0  0
  191.6850  175.8480  145.2840 C   0  0  0  0  0  3  0  0  0  0  0  0
  192.0820  177.4760  149.1180 O   0  0  0  0  0  1  0  0  0  0  0  0
  188.6340  176.8720  137.8220 C   0  0  0  0  0  2  0  0  0  0  0  0
  186.1910  175.7210  136.8220 F   0  0  0  0  0  0  0  0  0  0  0  0
  188.5760  175.6440  136.9290 C   0  0  2  0  0  3  0  0  0  0  0  0
  187.2560  174.8990  137.1460 C   0  0  2  0  0  3  0  0  0  0  0  0
  188.2650  172.7860  136.7290 C   0  0  0  0  0  2  0  0  0  0  0  0
  189.6310  173.4150  136.4680 C   0  0  0  0  0  2  0  0  0  0  0  0
  189.7460  174.7150  137.2550 C   0  0  0  0  0  2  0  0  0  0  0  0
  187.2080  173.7030  136.3050 N   0  0  0  0  0  2  0  0  0  0  0  0
  1 11  2  0  0  0  0
  1 13  1  0  0  0  0
  2  6  1  0  0  0  0
  4 10  1  6  0  0  0
  4 15  1  0  0  0  0
  5 11  1  0  0  0  0
  6  5  2  0  0  0  0
  7 18  1  0  0  0  0
  8  2  1  1  0  0  0
  8  3  1  0  0  0  0
  8  1  1  0  0  0  0
  9 17  1  0  0  0  0
 12  3  1  6  0  0  0
 12 16  1  0  0  0  0
 12 19  1  0  0  0  0
 14  2  2  0  0  0  0
 15 16  1  0  0  0  0
 16 22  1  1  0  0  0
 17  7  2  0  0  0  0
 17 10  1  0  0  0  0
 18  4  1  0  0  0  0
 18  3  2  0  0  0  0
 19 13  1  0  0  0  0
 20 26  1  0  0  0  0
 21 20  1  0  0  0  0
 22 24  1  0  0  0  0
 23 21  2  0  0  0  0
 24 20  2  0  0  0  0
 25 22  2  0  0  0  0
 25 23  1  0  0  0  0
 27  9  1  0  0  0  0
 29 30  1  0  0  0  0
 29 33  1  0  0  0  0
 29 27  1  1  0  0  0
 30 28  1  6  0  0  0
 32 31  1  0  0  0  0
 32 33  1  0  0  0  0
 34 31  1  0  0  0  0
 34 30  1  0  0  0  0
M  END
>  <MODEL>
5

>  <REMARK>
 VINA RESULT:      -8.0      3.422      5.864
  Name = 
  3 active torsions:
  status: ('A' for Active; 'I' for Inactive)
    1  A    between atoms: C_3  and  C_13
    2  A    between atoms: C_3  and  N_17
    3  A    between atoms: C_12  and  C_28
                            x       y       z     vdW  Elec       q    Type
                         _______ _______ _______ _____ _____    ______ ____

>  <TORSDO>
F 3

$$$$
=
 OpenBabel10272400023D

 34 39  0  0  1  0  0  0  0  0999 V2000
  185.5430  177.8940  144.4720 C   0  0  0  0  0  0  0  0  0  0  0  0
  185.9170  179.1920  142.3660 C   0  0  0  0  0  0  0  0  0  0  0  0
  187.7330  177.6160  143.2480 C   0  0  0  0  0  0  0  0  0  0  0  0
  189.9570  177.0930  142.3930 C   0  0  1  0  0  3  0  0  0  0  0  0
  183.9410  179.5900  143.7210 C   0  0  0  0  0  3  0  0  0  0  0  0
  184.6360  179.8680  142.6180 C   0  0  0  0  0  3  0  0  0  0  0  0
  188.0660  177.3570  140.8450 N   0  0  0  0  0  0  0  0  0  0  0  0
  186.2430  177.9150  143.1240 C   0  0  1  0  0  3  0  0  0  0  0  0
  188.8650  177.2730  138.6100 N   0  0  0  0  0  2  0  0  0  0  0  0
  190.7060  177.2810  140.7410 S   0  0  0  0  0  0  0  0  0  0  0  0
  184.4630  178.6440  144.7210 C   0  0  0  0  0  3  0  0  0  0  0  0
  188.4060  177.4090  144.5950 C   0  0  1  0  0  3  0  0  0  0  0  0
  186.2850  176.9810  145.8120 S   0  0  0  0  0  0  0  0  0  0  0  0
  186.6810  179.6450  141.4750 O   0  0  0  0  0  0  0  0  0  0  0  0
  190.4760  178.0500  143.2940 O   0  0  0  0  0  0  0  0  0  0  0  0
  189.8770  177.9030  144.5820 C   0  0  2  0  0  3  0  0  0  0  0  0
  189.0590  177.2990  140.0240 C   0  0  0  0  0  0  0  0  0  0  0  0
  188.5030  177.3420  142.1920 C   0  0  0  0  0  0  0  0  0  0  0  0
  187.6890  177.9660  145.6640 O   0  0  0  0  0  0  0  0  0  0  0  0
  192.2330  175.2140  145.8340 C   0  0  0  0  0  0  0  0  0  0  0  0
  192.3740  175.5650  147.1800 C   0  0  0  0  0  3  0  0  0  0  0  0
  190.7400  177.0940  145.4970 C   0  0  0  0  0  0  0  0  0  0  0  0
  191.7020  176.6810  147.6870 C   0  0  0  0  0  3  0  0  0  0  0  0
  191.4160  175.9780  144.9940 C   0  0  0  0  0  3  0  0  0  0  0  0
  190.8850  177.4450  146.8470 C   0  0  0  0  0  3  0  0  0  0  0  0
  192.9020  174.1070  145.3310 O   0  0  0  0  0  1  0  0  0  0  0  0
  187.5390  177.3040  138.0120 C   0  0  0  0  0  2  0  0  0  0  0  0
  186.8660  174.6270  137.1880 F   0  0  0  0  0  0  0  0  0  0  0  0
  187.6040  176.8140  136.5740 C   0  0  2  0  0  3  0  0  0  0  0  0
  187.8840  175.3090  136.5450 C   0  0  2  0  0  3  0  0  0  0  0  0
  189.1200  175.4780  134.5200 C   0  0  0  0  0  2  0  0  0  0  0  0
  188.8910  176.9840  134.4280 C   0  0  0  0  0  2  0  0  0  0  0  0
  188.7160  177.5540  135.8300 C   0  0  0  0  0  2  0  0  0  0  0  0
  187.9710  174.8400  135.1620 N   0  0  0  0  0  2  0  0  0  0  0  0
  1 11  2  0  0  0  0
  1 13  1  0  0  0  0
  2  6  1  0  0  0  0
  4 10  1  6  0  0  0
  4 15  1  0  0  0  0
  5 11  1  0  0  0  0
  6  5  2  0  0  0  0
  7 18  1  0  0  0  0
  8  2  1  1  0  0  0
  8  3  1  0  0  0  0
  8  1  1  0  0  0  0
  9 17  1  0  0  0  0
 12  3  1  6  0  0  0
 12 19  1  0  0  0  0
 14  2  2  0  0  0  0
 15 16  1  0  0  0  0
 16 12  1  0  0  0  0
 16 22  1  1  0  0  0
 17 10  1  0  0  0  0
 17  7  2  0  0  0  0
 18  4  1  0  0  0  0
 18  3  2  0  0  0  0
 19 13  1  0  0  0  0
 20 21  1  0  0  0  0
 21 23  2  0  0  0  0
 22 25  2  0  0  0  0
 24 22  1  0  0  0  0
 24 20  2  0  0  0  0
 25 23  1  0  0  0  0
 26 20  1  0  0  0  0
 27  9  1  0  0  0  0
 29 27  1  1  0  0  0
 30 29  1  0  0  0  0
 30 28  1  1  0  0  0
 31 34  1  0  0  0  0
 32 31  1  0  0  0  0
 32 33  1  0  0  0  0
 33 29  1  0  0  0  0
 34 30  1  0  0  0  0
M  END
>  <MODEL>
6

>  <REMARK>
 VINA RESULT:      -7.9      3.479      5.942
  Name = 
  3 active torsions:
  status: ('A' for Active; 'I' for Inactive)
    1  A    between atoms: C_3  and  C_13
    2  A    between atoms: C_3  and  N_17
    3  A    between atoms: C_12  and  C_28
                            x       y       z     vdW  Elec       q    Type
                         _______ _______ _______ _____ _____    ______ ____

>  <TORSDO>
F 3

$$$$
=
 OpenBabel10272400023D

 34 39  0  0  1  0  0  0  0  0999 V2000
  187.3410  177.0180  137.0710 C   0  0  0  0  0  0  0  0  0  0  0  0
  188.7810  178.2140  138.7310 C   0  0  0  0  0  0  0  0  0  0  0  0
  186.2650  177.9740  139.1440 C   0  0  0  0  0  0  0  0  0  0  0  0
  184.8570  178.7610  140.9750 C   0  0  1  0  0  3  0  0  0  0  0  0
  189.7020  177.4840  136.6060 C   0  0  0  0  0  3  0  0  0  0  0  0
  189.9000  178.0610  137.7910 C   0  0  0  0  0  3  0  0  0  0  0  0
  187.0930  177.8500  141.4360 N   0  0  0  0  0  0  0  0  0  0  0  0
  187.5290  177.3760  138.5350 C   0  0  1  0  0  3  0  0  0  0  0  0
  187.5980  178.1400  143.7390 N   0  0  0  0  0  2  0  0  0  0  0  0
  185.2450  179.2700  142.6820 S   0  0  0  0  0  0  0  0  0  0  0  0
  188.3580  177.0390  136.2020 C   0  0  0  0  0  3  0  0  0  0  0  0
  185.0160  178.2370  138.3180 C   0  0  1  0  0  3  0  0  0  0  0  0
  185.6900  176.7370  136.4590 S   0  0  0  0  0  0  0  0  0  0  0  0
  188.9150  178.9830  139.7190 O   0  0  0  0  0  0  0  0  0  0  0  0
  184.5280  179.8790  140.1770 O   0  0  0  0  0  0  0  0  0  0  0  0
  184.2360  179.4730  138.8390 C   0  0  2  0  0  3  0  0  0  0  0  0
  186.7720  178.3290  142.5900 C   0  0  0  0  0  0  0  0  0  0  0  0
  186.1080  178.1380  140.4610 C   0  0  0  0  0  0  0  0  0  0  0  0
  185.2720  178.3360  136.9440 O   0  0  0  0  0  0  0  0  0  0  0  0
  180.8200  177.8980  138.3870 C   0  0  0  0  0  0  0  0  0  0  0  0
  180.0080  179.0250  138.2270 C   0  0  0  0  0  3  0  0  0  0  0  0
  182.7630  179.3290  138.6210 C   0  0  0  0  0  0  0  0  0  0  0  0
  180.5690  180.3040  138.2650 C   0  0  0  0  0  3  0  0  0  0  0  0
  182.1970  178.0510  138.5840 C   0  0  0  0  0  3  0  0  0  0  0  0
  181.9460  180.4570  138.4620 C   0  0  0  0  0  3  0  0  0  0  0  0
  180.2610  176.6280  138.3500 O   0  0  0  0  0  1  0  0  0  0  0  0
  188.8460  177.3940  143.6790 C   0  0  0  0  0  2  0  0  0  0  0  0
  191.7200  177.2440  143.7830 F   0  0  0  0  0  0  0  0  0  0  0  0
  189.6660  177.6490  144.9330 C   0  0  2  0  0  3  0  0  0  0  0  0
  190.9720  176.8500  144.8780 C   0  0  2  0  0  3  0  0  0  0  0  0
  191.0030  176.5510  147.2370 C   0  0  0  0  0  2  0  0  0  0  0  0
  189.7160  177.3490  147.4230 C   0  0  0  0  0  2  0  0  0  0  0  0
  188.8630  177.2310  146.1650 C   0  0  0  0  0  2  0  0  0  0  0  0
  191.7520  177.0740  146.0940 N   0  0  0  0  0  2  0  0  0  0  0  0
  2 14  2  0  0  0  0
  3 18  2  0  0  0  0
  4 15  1  6  0  0  0
  4 10  1  0  0  0  0
  5  6  2  0  0  0  0
  6  2  1  0  0  0  0
  7 17  2  0  0  0  0
  8  1  1  6  0  0  0
  8  2  1  0  0  0  0
  8  3  1  0  0  0  0
 11  5  1  0  0  0  0
 11  1  2  0  0  0  0
 12 19  1  6  0  0  0
 12 16  1  0  0  0  0
 12  3  1  0  0  0  0
 13 19  1  0  0  0  0
 13  1  1  0  0  0  0
 16 22  1  1  0  0  0
 16 15  1  0  0  0  0
 17 10  1  0  0  0  0
 17  9  1  0  0  0  0
 18  4  1  0  0  0  0
 18  7  1  0  0  0  0
 20 24  1  0  0  0  0
 21 23  1  0  0  0  0
 21 20  2  0  0  0  0
 23 25  2  0  0  0  0
 24 22  2  0  0  0  0
 25 22  1  0  0  0  0
 26 20  1  0  0  0  0
 27  9  1  0  0  0  0
 29 27  1  6  0  0  0
 29 33  1  0  0  0  0
 30 28  1  6  0  0  0
 30 29  1  0  0  0  0
 30 34  1  0  0  0  0
 31 32  1  0  0  0  0
 33 32  1  0  0  0  0
 34 31  1  0  0  0  0
M  END
>  <MODEL>
7

>  <REMARK>
 VINA RESULT:      -7.9      3.406      8.341
  Name = 
  3 active torsions:
  status: ('A' for Active; 'I' for Inactive)
    1  A    between atoms: C_3  and  C_13
    2  A    between atoms: C_3  and  N_17
    3  A    between atoms: C_12  and  C_28
                            x       y       z     vdW  Elec       q    Type
                         _______ _______ _______ _____ _____    ______ ____

>  <TORSDO>
F 3

$$$$
=
 OpenBabel10272400023D

 34 39  0  0  1  0  0  0  0  0999 V2000
  191.3070  173.5260  136.3760 C   0  0  0  0  0  0  0  0  0  0  0  0
  192.5170  175.3790  137.5420 C   0  0  0  0  0  0  0  0  0  0  0  0
  189.9580  175.3870  137.4170 C   0  0  0  0  0  0  0  0  0  0  0  0
  188.3160  176.9830  138.2580 C   0  0  1  0  0  3  0  0  0  0  0  0
  193.7530  173.6890  136.3120 C   0  0  0  0  0  3  0  0  0  0  0  0
  193.7760  174.7750  137.0830 C   0  0  0  0  0  3  0  0  0  0  0  0
  190.2870  176.4090  139.6090 N   0  0  0  0  0  0  0  0  0  0  0  0
  191.2380  174.5600  137.4850 C   0  0  1  0  0  3  0  0  0  0  0  0
  190.3500  177.7970  141.5350 N   0  0  0  0  0  2  0  0  0  0  0  0
  188.4110  178.2690  139.5480 S   0  0  0  0  0  0  0  0  0  0  0  0
  192.4740  173.1090  135.8690 C   0  0  0  0  0  3  0  0  0  0  0  0
  188.9430  175.2130  136.3000 C   0  0  1  0  0  3  0  0  0  0  0  0
  189.7920  172.9870  135.6050 S   0  0  0  0  0  0  0  0  0  0  0  0
  192.5400  176.5350  138.0400 O   0  0  0  0  0  0  0  0  0  0  0  0
  188.2910  177.5620  136.9690 O   0  0  0  0  0  0  0  0  0  0  0  0
  188.2270  176.5490  135.9640 C   0  0  2  0  0  3  0  0  0  0  0  0
  189.8000  177.3970  140.2800 C   0  0  0  0  0  0  0  0  0  0  0  0
  189.5610  176.1810  138.4150 C   0  0  0  0  0  0  0  0  0  0  0  0
  189.4800  174.6180  135.1500 O   0  0  0  0  0  0  0  0  0  0  0  0
  184.8710  174.8900  135.3890 C   0  0  0  0  0  0  0  0  0  0  0  0
  184.1890  175.8740  134.6670 C   0  0  0  0  0  3  0  0  0  0  0  0
  186.8230  176.3240  135.5040 C   0  0  0  0  0  0  0  0  0  0  0  0
  184.8190  177.0840  134.3640 C   0  0  0  0  0  3  0  0  0  0  0  0
  186.1870  175.1150  135.8060 C   0  0  0  0  0  3  0  0  0  0  0  0
  186.1350  177.3090  134.7810 C   0  0  0  0  0  3  0  0  0  0  0  0
  184.2430  173.6900  135.6900 O   0  0  0  0  0  1  0  0  0  0  0  0
  191.4850  177.1120  142.1350 C   0  0  0  0  0  2  0  0  0  0  0  0
  192.4540  175.2000  144.0580 F   0  0  0  0  0  0  0  0  0  0  0  0
  191.5030  177.3510  143.6350 C   0  0  2  0  0  3  0  0  0  0  0  0
  191.3850  176.0170  144.3800 C   0  0  2  0  0  3  0  0  0  0  0  0
  190.1830  177.0130  146.1740 C   0  0  0  0  0  2  0  0  0  0  0  0
  190.2550  178.4000  145.5410 C   0  0  0  0  0  2  0  0  0  0  0  0
  190.3370  178.2590  144.0260 C   0  0  0  0  0  2  0  0  0  0  0  0
  191.3780  176.2460  145.8250 N   0  0  0  0  0  2  0  0  0  0  0  0
  2 14  2  0  0  0  0
  3  8  1  0  0  0  0
  3 18  2  0  0  0  0
  4 15  1  6  0  0  0
  4 18  1  0  0  0  0
  4 10  1  0  0  0  0
  5  6  2  0  0  0  0
  6  2  1  0  0  0  0
  7 17  2  0  0  0  0
  8  1  1  6  0  0  0
  8  2  1  0  0  0  0
  9 27  1  0  0  0  0
 10 17  1  0  0  0  0
 11  5  1  0  0  0  0
 11  1  2  0  0  0  0
 12 19  1  6  0  0  0
 12  3  1  0  0  0  0
 13  1  1  0  0  0  0
 16 22  1  1  0  0  0
 16 12  1  0  0  0  0
 16 15  1  0  0  0  0
 17  9  1  0  0  0  0
 18  7  1  0  0  0  0
 19 13  1  0  0  0  0
 20 26  1  0  0  0  0
 20 24  1  0  0  0  0
 21 20  2  0  0  0  0
 22 24  2  0  0  0  0
 23 21  1  0  0  0  0
 23 25  2  0  0  0  0
 25 22  1  0  0  0  0
 29 27  1  6  0  0  0
 29 33  1  0  0  0  0
 29 30  1  0  0  0  0
 30 28  1  1  0  0  0
 30 34  1  0  0  0  0
 32 31  1  0  0  0  0
 33 32  1  0  0  0  0
 34 31  1  0  0  0  0
M  END
>  <MODEL>
8

>  <REMARK>
 VINA RESULT:      -7.7      4.870      8.758
  Name = 
  3 active torsions:
  status: ('A' for Active; 'I' for Inactive)
    1  A    between atoms: C_3  and  C_13
    2  A    between atoms: C_3  and  N_17
    3  A    between atoms: C_12  and  C_28
                            x       y       z     vdW  Elec       q    Type
                         _______ _______ _______ _____ _____    ______ ____

>  <TORSDO>
F 3

$$$$
=
 OpenBabel10272400023D

 34 39  0  0  1  0  0  0  0  0999 V2000
  185.4170  177.9510  144.6400 C   0  0  0  0  0  0  0  0  0  0  0  0
  185.6690  179.3260  142.5660 C   0  0  0  0  0  0  0  0  0  0  0  0
  187.5170  177.6950  143.2640 C   0  0  0  0  0  0  0  0  0  0  0  0
  189.6720  177.1800  142.2420 C   0  0  1  0  0  3  0  0  0  0  0  0
  183.7930  179.6940  144.0640 C   0  0  0  0  0  3  0  0  0  0  0  0
  184.4180  180.0070  142.9290 C   0  0  0  0  0  3  0  0  0  0  0  0
  187.6860  177.5270  140.8360 N   0  0  0  0  0  0  0  0  0  0  0  0
  186.0270  178.0170  143.2510 C   0  0  1  0  0  3  0  0  0  0  0  0
  188.3340  177.5220  138.5500 N   0  0  0  0  0  2  0  0  0  0  0  0
  190.3120  177.4240  140.5520 S   0  0  0  0  0  0  0  0  0  0  0  0
  184.3680  178.7030  144.9900 C   0  0  0  0  0  3  0  0  0  0  0  0
  188.2750  177.4280  144.5540 C   0  0  1  0  0  3  0  0  0  0  0  0
  186.2330  176.9770  145.8920 S   0  0  0  0  0  0  0  0  0  0  0  0
  186.3790  179.8050  141.6440 O   0  0  0  0  0  0  0  0  0  0  0  0
  190.2630  178.0950  143.1420 O   0  0  0  0  0  0  0  0  0  0  0  0
  189.7490  177.9050  144.4620 C   0  0  2  0  0  3  0  0  0  0  0  0
  188.6220  177.4900  139.9480 C   0  0  0  0  0  0  0  0  0  0  0  0
  188.2110  177.4540  142.1480 C   0  0  0  0  0  0  0  0  0  0  0  0
  187.6390  177.9510  145.6890 O   0  0  0  0  0  0  0  0  0  0  0  0
  192.1640  175.1560  145.4420 C   0  0  0  0  0  0  0  0  0  0  0  0
  192.3790  175.4380  146.7940 C   0  0  0  0  0  3  0  0  0  0  0  0
  190.6590  177.0500  145.2850 C   0  0  0  0  0  0  0  0  0  0  0  0
  191.7380  176.5250  147.3940 C   0  0  0  0  0  3  0  0  0  0  0  0
  191.3040  175.9620  144.6880 C   0  0  0  0  0  3  0  0  0  0  0  0
  190.8780  177.3310  146.6410 C   0  0  0  0  0  3  0  0  0  0  0  0
  192.8020  174.0770  144.8470 O   0  0  0  0  0  1  0  0  0  0  0  0
  186.9710  177.5920  138.0440 C   0  0  0  0  0  2  0  0  0  0  0  0
  188.0910  178.1680  135.4540 F   0  0  0  0  0  0  0  0  0  0  0  0
  186.8190  176.6870  136.8320 C   0  0  2  0  0  3  0  0  0  0  0  0
  186.8720  177.5190  135.5460 C   0  0  2  0  0  3  0  0  0  0  0  0
  185.3670  176.0600  134.4240 C   0  0  0  0  0  2  0  0  0  0  0  0
  185.2490  175.1400  135.6360 C   0  0  0  0  0  2  0  0  0  0  0  0
  185.4840  175.9470  136.9070 C   0  0  0  0  0  2  0  0  0  0  0  0
  186.7020  176.6540  134.3790 N   0  0  0  0  0  2  0  0  0  0  0  0
  1 11  2  0  0  0  0
  1 13  1  0  0  0  0
  2  6  1  0  0  0  0
  4 10  1  6  0  0  0
  4 15  1  0  0  0  0
  5 11  1  0  0  0  0
  6  5  2  0  0  0  0
  7 18  1  0  0  0  0
  8  2  1  1  0  0  0
  8  3  1  0  0  0  0
  8  1  1  0  0  0  0
  9 17  1  0  0  0  0
 12  3  1  6  0  0  0
 12 19  1  0  0  0  0
 14  2  2  0  0  0  0
 15 16  1  0  0  0  0
 16 12  1  0  0  0  0
 16 22  1  6  0  0  0
 17 10  1  0  0  0  0
 17  7  2  0  0  0  0
 18  4  1  0  0  0  0
 18  3  2  0  0  0  0
 19 13  1  0  0  0  0
 20 21  1  0  0  0  0
 21 23  2  0  0  0  0
 22 25  2  0  0  0  0
 24 22  1  0  0  0  0
 24 20  2  0  0  0  0
 25 23  1  0  0  0  0
 26 20  1  0  0  0  0
 27  9  1  0  0  0  0
 29 33  1  0  0  0  0
 29 27  1  1  0  0  0
 30 28  1  6  0  0  0
 30 29  1  0  0  0  0
 31 32  1  0  0  0  0
 32 33  1  0  0  0  0
 34 31  1  0  0  0  0
 34 30  1  0  0  0  0
M  END
>  <MODEL>
9

>  <REMARK>
 VINA RESULT:      -7.6      3.359      5.418
  Name = 
  3 active torsions:
  status: ('A' for Active; 'I' for Inactive)
    1  A    between atoms: C_3  and  C_13
    2  A    between atoms: C_3  and  N_17
    3  A    between atoms: C_12  and  C_28
                            x       y       z     vdW  Elec       q    Type
                         _______ _______ _______ _____ _____    ______ ____

>  <TORSDO>
F 3

$$$$
