=
 OpenBabel10272400503D

 25 28  0  0  0  0  0  0  0  0999 V2000
  187.4230  177.8830  145.6940 C   0  0  0  0  0  0  0  0  0  0  0  0
  188.7490  177.4930  145.4080 C   0  0  0  0  0  0  0  0  0  0  0  0
  187.9050  177.9340  148.0870 C   0  0  0  0  0  3  0  0  0  0  0  0
  186.3620  178.1080  144.7950 C   0  0  0  0  0  0  0  0  0  0  0  0
  184.0360  178.6400  143.3350 C   0  0  0  0  0  3  0  0  0  0  0  0
  189.2210  177.5480  147.8120 C   0  0  0  0  0  3  0  0  0  0  0  0
  185.1820  178.4850  145.4350 C   0  0  0  0  0  0  0  0  0  0  0  0
  184.0110  178.7550  144.7320 C   0  0  0  0  0  3  0  0  0  0  0  0
  191.0280  176.9210  146.2060 C   0  0  0  0  0  0  0  0  0  0  0  0
  191.8560  176.7650  147.1430 O   0  0  0  0  0  0  0  0  0  0  0  0
  189.2050  177.2580  143.9890 C   0  0  0  0  0  2  0  0  0  0  0  0
  185.2180  178.2600  142.6730 C   0  0  0  0  0  3  0  0  0  0  0  0
  187.0310  178.0950  147.0180 C   0  0  0  0  0  0  0  0  0  0  0  0
  185.4100  178.5510  147.1010 S   0  0  0  0  0  0  0  0  0  0  0  0
  191.4410  176.6990  144.8580 N   0  0  0  0  0  0  0  0  0  0  0  0
  186.3880  177.9920  143.4010 C   0  0  0  0  0  3  0  0  0  0  0  0
  190.6460  176.8410  143.8350 C   0  0  0  0  0  0  0  0  0  0  0  0
  189.6450  177.3280  146.4880 C   0  0  0  0  0  0  0  0  0  0  0  0
  191.1380  176.5940  142.4760 C   0  0  0  0  0  3  0  0  0  0  0  0
  191.5890  177.5690  141.6930 C   0  0  0  0  0  3  0  0  0  0  0  0
  192.1760  177.1980  140.0480 S   0  0  0  0  0  0  0  0  0  0  0  0
  190.5090  176.7510  139.4730 C   0  0  0  0  0  2  0  0  0  0  0  0
  189.6910  177.9990  139.2020 C   0  0  0  0  0  3  0  0  0  0  0  0
  189.3460  178.0600  137.7300 C   0  0  0  0  0  1  0  0  0  0  0  0
  188.4080  177.9680  140.0110 C   0  0  0  0  0  1  0  0  0  0  0  0
  1 13  1  0  0  0  0
  2  1  2  0  0  0  0
  2 18  1  0  0  0  0
  4  7  1  0  0  0  0
  4  1  1  0  0  0  0
  5  8  1  0  0  0  0
  6  3  1  0  0  0  0
  7 14  1  0  0  0  0
  8  7  2  0  0  0  0
  9 18  1  0  0  0  0
  9 10  2  0  0  0  0
 11  2  1  0  0  0  0
 12  5  2  0  0  0  0
 12 16  1  0  0  0  0
 13 14  1  0  0  0  0
 13  3  2  0  0  0  0
 15  9  1  0  0  0  0
 16  4  2  0  0  0  0
 17 11  1  0  0  0  0
 17 15  2  0  0  0  0
 18  6  2  0  0  0  0
 19 17  1  0  0  0  0
 20 19  2  0  0  0  0
 21 20  1  0  0  0  0
 22 21  1  0  0  0  0
 23 22  1  0  0  0  0
 23 25  1  0  0  0  0
 24 23  1  0  0  0  0
M  END
>  <MODEL>
1

>  <REMARK>
 VINA RESULT:     -10.1      0.000      0.000
  Name = 
  4 active torsions:
  status: ('A' for Active; 'I' for Inactive)
    1  A    between atoms: C_2  and  C_25
    2  A    between atoms: C_6  and  C_23
    3  A    between atoms: C_15  and  S_21
    4  A    between atoms: S_21  and  C_25
                            x       y       z     vdW  Elec       q    Type
                         _______ _______ _______ _____ _____    ______ ____

>  <TORSDO>
F 4

$$$$
=
 OpenBabel10272400503D

 25 28  0  0  0  0  0  0  0  0999 V2000
  187.3110  177.9320  145.3510 C   0  0  0  0  0  0  0  0  0  0  0  0
  188.5900  177.5740  144.8720 C   0  0  0  0  0  0  0  0  0  0  0  0
  188.1020  177.8540  147.6580 C   0  0  0  0  0  3  0  0  0  0  0  0
  186.1400  178.1960  144.6120 C   0  0  0  0  0  0  0  0  0  0  0  0
  183.6420  178.7840  143.5010 C   0  0  0  0  0  3  0  0  0  0  0  0
  189.3720  177.4990  147.1930 C   0  0  0  0  0  3  0  0  0  0  0  0
  185.0530  178.5230  145.4210 C   0  0  0  0  0  0  0  0  0  0  0  0
  183.7990  178.8210  144.8940 C   0  0  0  0  0  3  0  0  0  0  0  0
  190.9550  176.9830  145.3310 C   0  0  0  0  0  0  0  0  0  0  0  0
  191.9000  176.7830  146.1410 O   0  0  0  0  0  0  0  0  0  0  0  0
  188.8570  177.4240  143.3940 C   0  0  0  0  0  2  0  0  0  0  0  0
  184.7280  178.4550  142.6700 C   0  0  0  0  0  3  0  0  0  0  0  0
  187.0960  178.0650  146.7240 C   0  0  0  0  0  0  0  0  0  0  0  0
  185.4980  178.4980  147.0440 S   0  0  0  0  0  0  0  0  0  0  0  0
  191.1880  176.8410  143.9300 N   0  0  0  0  0  0  0  0  0  0  0  0
  185.9840  178.1590  143.2220 C   0  0  0  0  0  3  0  0  0  0  0  0
  190.2660  177.0320  143.0300 C   0  0  0  0  0  0  0  0  0  0  0  0
  189.6200  177.3580  145.8130 C   0  0  0  0  0  0  0  0  0  0  0  0
  190.5770  176.8670  141.6050 C   0  0  0  0  0  3  0  0  0  0  0  0
  189.7700  177.3080  140.6450 C   0  0  0  0  0  3  0  0  0  0  0  0
  190.2100  177.0760  138.9300 S   0  0  0  0  0  0  0  0  0  0  0  0
  188.4720  176.8810  138.4320 C   0  0  0  0  0  2  0  0  0  0  0  0
  188.1550  177.7800  137.2520 C   0  0  0  0  0  3  0  0  0  0  0  0
  186.7100  178.2200  137.3330 C   0  0  0  0  0  1  0  0  0  0  0  0
  189.0490  179.0060  137.2750 C   0  0  0  0  0  1  0  0  0  0  0  0
  1 13  1  0  0  0  0
  2  1  2  0  0  0  0
  2 18  1  0  0  0  0
  4  1  1  0  0  0  0
  4  7  1  0  0  0  0
  5  8  1  0  0  0  0
  6  3  1  0  0  0  0
  7 14  1  0  0  0  0
  8  7  2  0  0  0  0
  9 18  1  0  0  0  0
  9 10  2  0  0  0  0
 11  2  1  0  0  0  0
 12 16  1  0  0  0  0
 12  5  2  0  0  0  0
 13 14  1  0  0  0  0
 13  3  2  0  0  0  0
 15  9  1  0  0  0  0
 16  4  2  0  0  0  0
 17 11  1  0  0  0  0
 17 15  2  0  0  0  0
 18  6  2  0  0  0  0
 19 17  1  0  0  0  0
 20 19  2  0  0  0  0
 21 20  1  0  0  0  0
 22 21  1  0  0  0  0
 23 25  1  0  0  0  0
 23 24  1  0  0  0  0
 23 22  1  0  0  0  0
M  END
>  <MODEL>
2

>  <REMARK>
 VINA RESULT:      -9.7      1.054      1.340
  Name = 
  4 active torsions:
  status: ('A' for Active; 'I' for Inactive)
    1  A    between atoms: C_2  and  C_25
    2  A    between atoms: C_6  and  C_23
    3  A    between atoms: C_15  and  S_21
    4  A    between atoms: S_21  and  C_25
                            x       y       z     vdW  Elec       q    Type
                         _______ _______ _______ _____ _____    ______ ____

>  <TORSDO>
F 4

$$$$
=
 OpenBabel10272400503D

 25 28  0  0  0  0  0  0  0  0999 V2000
  187.1470  177.9160  145.1710 C   0  0  0  0  0  0  0  0  0  0  0  0
  188.3820  177.5410  144.5980 C   0  0  0  0  0  0  0  0  0  0  0  0
  188.0830  177.7400  147.4180 C   0  0  0  0  0  3  0  0  0  0  0  0
  185.9400  178.2360  144.5190 C   0  0  0  0  0  0  0  0  0  0  0  0
  183.3930  178.9270  143.5920 C   0  0  0  0  0  3  0  0  0  0  0  0
  189.3090  177.3670  146.8600 C   0  0  0  0  0  3  0  0  0  0  0  0
  184.9170  178.5650  145.4070 C   0  0  0  0  0  0  0  0  0  0  0  0
  183.6400  178.9120  144.9720 C   0  0  0  0  0  3  0  0  0  0  0  0
  190.7540  176.8720  144.8840 C   0  0  0  0  0  0  0  0  0  0  0  0
  191.7420  176.6200  145.6240 O   0  0  0  0  0  0  0  0  0  0  0  0
  188.5490  177.4330  143.1020 C   0  0  0  0  0  2  0  0  0  0  0  0
  184.4140  178.5970  142.6820 C   0  0  0  0  0  3  0  0  0  0  0  0
  187.0240  178.0090  146.5580 C   0  0  0  0  0  0  0  0  0  0  0  0
  185.4640  178.4730  146.9960 S   0  0  0  0  0  0  0  0  0  0  0  0
  190.8930  176.7710  143.4660 N   0  0  0  0  0  0  0  0  0  0  0  0
  185.6930  178.2500  143.1420 C   0  0  0  0  0  3  0  0  0  0  0  0
  189.9210  177.0160  142.6350 C   0  0  0  0  0  0  0  0  0  0  0  0
  189.4640  177.2660  145.4640 C   0  0  0  0  0  0  0  0  0  0  0  0
  190.1340  176.8910  141.1890 C   0  0  0  0  0  3  0  0  0  0  0  0
  189.2180  177.2590  140.2990 C   0  0  0  0  0  3  0  0  0  0  0  0
  189.5440  177.0820  138.5520 S   0  0  0  0  0  0  0  0  0  0  0  0
  191.2780  176.6190  138.8460 C   0  0  0  0  0  2  0  0  0  0  0  0
  191.8830  176.0110  137.5960 C   0  0  0  0  0  3  0  0  0  0  0  0
  193.3910  176.0100  137.7200 C   0  0  0  0  0  1  0  0  0  0  0  0
  191.3980  174.5840  137.4210 C   0  0  0  0  0  1  0  0  0  0  0  0
  1 13  1  0  0  0  0
  2  1  2  0  0  0  0
  2 18  1  0  0  0  0
  4  1  1  0  0  0  0
  4  7  1  0  0  0  0
  5  8  1  0  0  0  0
  6  3  1  0  0  0  0
  7 14  1  0  0  0  0
  8  7  2  0  0  0  0
  9 18  1  0  0  0  0
  9 10  2  0  0  0  0
 11  2  1  0  0  0  0
 12 16  1  0  0  0  0
 12  5  2  0  0  0  0
 13 14  1  0  0  0  0
 13  3  2  0  0  0  0
 15  9  1  0  0  0  0
 16  4  2  0  0  0  0
 17 11  1  0  0  0  0
 17 15  2  0  0  0  0
 18  6  2  0  0  0  0
 19 17  1  0  0  0  0
 20 19  2  0  0  0  0
 21 22  1  0  0  0  0
 21 20  1  0  0  0  0
 23 24  1  0  0  0  0
 23 22  1  0  0  0  0
 25 23  1  0  0  0  0
M  END
>  <MODEL>
3

>  <REMARK>
 VINA RESULT:      -9.5      1.487      1.956
  Name = 
  4 active torsions:
  status: ('A' for Active; 'I' for Inactive)
    1  A    between atoms: C_2  and  C_25
    2  A    between atoms: C_6  and  C_23
    3  A    between atoms: C_15  and  S_21
    4  A    between atoms: S_21  and  C_25
                            x       y       z     vdW  Elec       q    Type
                         _______ _______ _______ _____ _____    ______ ____

>  <TORSDO>
F 4

$$$$
=
 OpenBabel10272400503D

 25 28  0  0  0  0  0  0  0  0999 V2000
  187.8920  177.6590  145.2380 C   0  0  0  0  0  0  0  0  0  0  0  0
  186.6640  178.0140  144.6390 C   0  0  0  0  0  0  0  0  0  0  0  0
  187.0060  178.1520  147.4580 C   0  0  0  0  0  3  0  0  0  0  0  0
  189.0740  177.2100  144.6150 C   0  0  0  0  0  0  0  0  0  0  0  0
  191.5730  176.3010  143.7480 C   0  0  0  0  0  3  0  0  0  0  0  0
  185.7860  178.5060  146.8740 C   0  0  0  0  0  3  0  0  0  0  0  0
  190.0980  176.9500  145.5240 C   0  0  0  0  0  0  0  0  0  0  0  0
  191.3510  176.4970  145.1190 C   0  0  0  0  0  3  0  0  0  0  0  0
  184.3270  178.8140  144.8710 C   0  0  0  0  0  0  0  0  0  0  0  0
  183.3630  179.1980  145.5870 O   0  0  0  0  0  0  0  0  0  0  0  0
  186.4740  177.9420  143.1440 C   0  0  0  0  0  2  0  0  0  0  0  0
  190.5500  176.5590  142.8180 C   0  0  0  0  0  3  0  0  0  0  0  0
  188.0370  177.7340  146.6250 C   0  0  0  0  0  0  0  0  0  0  0  0
  189.5850  177.2610  147.0960 S   0  0  0  0  0  0  0  0  0  0  0  0
  184.1660  178.7450  143.4530 N   0  0  0  0  0  0  0  0  0  0  0  0
  189.2940  177.0150  143.2470 C   0  0  0  0  0  3  0  0  0  0  0  0
  185.1120  178.3570  142.6460 C   0  0  0  0  0  0  0  0  0  0  0  0
  185.6100  178.4400  145.4780 C   0  0  0  0  0  0  0  0  0  0  0  0
  184.8780  178.3110  141.1990 C   0  0  0  0  0  3  0  0  0  0  0  0
  185.8270  178.6000  140.3140 C   0  0  0  0  0  3  0  0  0  0  0  0
  185.4730  178.5220  138.5650 S   0  0  0  0  0  0  0  0  0  0  0  0
  186.9730  177.5490  138.2290 C   0  0  0  0  0  2  0  0  0  0  0  0
  188.2060  178.3000  138.6950 C   0  0  0  0  0  3  0  0  0  0  0  0
  189.1230  177.3470  139.4300 C   0  0  0  0  0  1  0  0  0  0  0  0
  188.9450  178.8800  137.5040 C   0  0  0  0  0  1  0  0  0  0  0  0
  1 13  1  0  0  0  0
  2  1  2  0  0  0  0
  2 18  1  0  0  0  0
  4  1  1  0  0  0  0
  4  7  1  0  0  0  0
  5  8  1  0  0  0  0
  6  3  1  0  0  0  0
  7 14  1  0  0  0  0
  8  7  2  0  0  0  0
  9 18  1  0  0  0  0
  9 10  2  0  0  0  0
 11  2  1  0  0  0  0
 12 16  1  0  0  0  0
 12  5  2  0  0  0  0
 13 14  1  0  0  0  0
 13  3  2  0  0  0  0
 15  9  1  0  0  0  0
 16  4  2  0  0  0  0
 17 11  1  0  0  0  0
 17 15  2  0  0  0  0
 18  6  2  0  0  0  0
 19 17  1  0  0  0  0
 20 19  2  0  0  0  0
 21 20  1  0  0  0  0
 22 21  1  0  0  0  0
 22 23  1  0  0  0  0
 23 24  1  0  0  0  0
 25 23  1  0  0  0  0
M  END
>  <MODEL>
4

>  <REMARK>
 VINA RESULT:      -9.3      3.062      5.084
  Name = 
  4 active torsions:
  status: ('A' for Active; 'I' for Inactive)
    1  A    between atoms: C_2  and  C_25
    2  A    between atoms: C_6  and  C_23
    3  A    between atoms: C_15  and  S_21
    4  A    between atoms: S_21  and  C_25
                            x       y       z     vdW  Elec       q    Type
                         _______ _______ _______ _____ _____    ______ ____

>  <TORSDO>
F 4

$$$$
=
 OpenBabel10272400503D

 25 28  0  0  0  0  0  0  0  0999 V2000
  187.6680  177.7340  145.5220 C   0  0  0  0  0  0  0  0  0  0  0  0
  186.9380  178.0670  144.3600 C   0  0  0  0  0  0  0  0  0  0  0  0
  185.7090  178.1320  146.9230 C   0  0  0  0  0  3  0  0  0  0  0  0
  189.0170  177.3410  145.6270 C   0  0  0  0  0  0  0  0  0  0  0  0
  191.6280  176.5390  146.2310 C   0  0  0  0  0  3  0  0  0  0  0  0
  184.9790  178.4640  145.7780 C   0  0  0  0  0  3  0  0  0  0  0  0
  189.4050  177.0870  146.9420 C   0  0  0  0  0  0  0  0  0  0  0  0
  190.6970  176.6870  147.2700 C   0  0  0  0  0  3  0  0  0  0  0  0
  184.8090  178.7850  143.3060 C   0  0  0  0  0  0  0  0  0  0  0  0
  183.5970  179.1160  143.3960 O   0  0  0  0  0  0  0  0  0  0  0  0
  187.5830  178.0340  142.9960 C   0  0  0  0  0  2  0  0  0  0  0  0
  191.2530  176.7910  144.8980 C   0  0  0  0  0  3  0  0  0  0  0  0
  187.0430  177.7720  146.7700 C   0  0  0  0  0  0  0  0  0  0  0  0
  188.1150  177.3350  147.9950 S   0  0  0  0  0  0  0  0  0  0  0  0
  185.4370  178.7520  142.0240 N   0  0  0  0  0  0  0  0  0  0  0  0
  189.9450  177.1940  144.5900 C   0  0  0  0  0  3  0  0  0  0  0  0
  186.6840  178.4190  141.8480 C   0  0  0  0  0  0  0  0  0  0  0  0
  185.5820  178.4340  144.5050 C   0  0  0  0  0  0  0  0  0  0  0  0
  187.2650  178.4090  140.5010 C   0  0  0  0  0  3  0  0  0  0  0  0
  188.5730  178.3150  140.2900 C   0  0  0  0  0  3  0  0  0  0  0  0
  189.2130  178.3060  138.6230 S   0  0  0  0  0  0  0  0  0  0  0  0
  188.1280  176.9310  138.1340 C   0  0  0  0  0  2  0  0  0  0  0  0
  187.2620  177.3330  136.9550 C   0  0  0  0  0  3  0  0  0  0  0  0
  185.8040  177.1570  137.3240 C   0  0  0  0  0  1  0  0  0  0  0  0
  187.5110  178.7860  136.5960 C   0  0  0  0  0  1  0  0  0  0  0  0
  1  4  1  0  0  0  0
  1 13  2  0  0  0  0
  2 18  2  0  0  0  0
  2  1  1  0  0  0  0
  4  7  1  0  0  0  0
  5  8  1  0  0  0  0
  6  3  2  0  0  0  0
  7  8  2  0  0  0  0
  7 14  1  0  0  0  0
  9 10  2  0  0  0  0
  9 18  1  0  0  0  0
 11  2  1  0  0  0  0
 12  5  2  0  0  0  0
 13  3  1  0  0  0  0
 13 14  1  0  0  0  0
 15  9  1  0  0  0  0
 16 12  1  0  0  0  0
 16  4  2  0  0  0  0
 17 15  2  0  0  0  0
 17 11  1  0  0  0  0
 18  6  1  0  0  0  0
 19 17  1  0  0  0  0
 20 19  2  0  0  0  0
 21 20  1  0  0  0  0
 22 21  1  0  0  0  0
 23 24  1  0  0  0  0
 23 22  1  0  0  0  0
 25 23  1  0  0  0  0
M  END
>  <MODEL>
5

>  <REMARK>
 VINA RESULT:      -9.3      2.827      4.834
  Name = 
  4 active torsions:
  status: ('A' for Active; 'I' for Inactive)
    1  A    between atoms: C_2  and  C_25
    2  A    between atoms: C_6  and  C_23
    3  A    between atoms: C_15  and  S_21
    4  A    between atoms: S_21  and  C_25
                            x       y       z     vdW  Elec       q    Type
                         _______ _______ _______ _____ _____    ______ ____

>  <TORSDO>
F 4

$$$$
=
 OpenBabel10272400503D

 25 28  0  0  0  0  0  0  0  0999 V2000
  187.6750  177.8060  145.7000 C   0  0  0  0  0  0  0  0  0  0  0  0
  186.9500  178.1240  144.5310 C   0  0  0  0  0  0  0  0  0  0  0  0
  185.7300  178.2890  147.0930 C   0  0  0  0  0  3  0  0  0  0  0  0
  189.0150  177.3850  145.8140 C   0  0  0  0  0  0  0  0  0  0  0  0
  191.6070  176.5380  146.4350 C   0  0  0  0  0  3  0  0  0  0  0  0
  185.0040  178.6060  145.9400 C   0  0  0  0  0  3  0  0  0  0  0  0
  189.4000  177.1580  147.1340 C   0  0  0  0  0  0  0  0  0  0  0  0
  190.6830  176.7360  147.4710 C   0  0  0  0  0  3  0  0  0  0  0  0
  184.8370  178.8630  143.4610 C   0  0  0  0  0  0  0  0  0  0  0  0
  183.6330  179.2250  143.5440 O   0  0  0  0  0  0  0  0  0  0  0  0
  187.5910  178.0380  143.1670 C   0  0  0  0  0  2  0  0  0  0  0  0
  191.2350  176.7620  145.0970 C   0  0  0  0  0  3  0  0  0  0  0  0
  187.0540  177.8930  146.9470 C   0  0  0  0  0  0  0  0  0  0  0  0
  188.1180  177.4650  148.1820 S   0  0  0  0  0  0  0  0  0  0  0  0
  185.4610  178.7800  142.1790 N   0  0  0  0  0  0  0  0  0  0  0  0
  189.9360  177.1880  144.7790 C   0  0  0  0  0  3  0  0  0  0  0  0
  186.6990  178.4130  142.0110 C   0  0  0  0  0  0  0  0  0  0  0  0
  185.6040  178.5270  144.6680 C   0  0  0  0  0  0  0  0  0  0  0  0
  187.2760  178.3520  140.6630 C   0  0  0  0  0  3  0  0  0  0  0  0
  188.5550  178.0640  140.4480 C   0  0  0  0  0  3  0  0  0  0  0  0
  189.1920  178.0040  138.7810 S   0  0  0  0  0  0  0  0  0  0  0  0
  190.7500  177.2400  139.3230 C   0  0  0  0  0  2  0  0  0  0  0  0
  191.0600  176.0150  138.4830 C   0  0  0  0  0  3  0  0  0  0  0  0
  189.9030  175.7460  137.5470 C   0  0  0  0  0  1  0  0  0  0  0  0
  192.3170  176.2470  137.6660 C   0  0  0  0  0  1  0  0  0  0  0  0
  1  4  1  0  0  0  0
  1 13  2  0  0  0  0
  2 18  2  0  0  0  0
  2  1  1  0  0  0  0
  4  7  1  0  0  0  0
  5  8  1  0  0  0  0
  6  3  2  0  0  0  0
  7  8  2  0  0  0  0
  7 14  1  0  0  0  0
  9 10  2  0  0  0  0
  9 18  1  0  0  0  0
 11  2  1  0  0  0  0
 12  5  2  0  0  0  0
 13  3  1  0  0  0  0
 13 14  1  0  0  0  0
 15  9  1  0  0  0  0
 16 12  1  0  0  0  0
 16  4  2  0  0  0  0
 17 15  2  0  0  0  0
 17 11  1  0  0  0  0
 18  6  1  0  0  0  0
 19 17  1  0  0  0  0
 20 19  2  0  0  0  0
 21 22  1  0  0  0  0
 21 20  1  0  0  0  0
 23 22  1  0  0  0  0
 24 23  1  0  0  0  0
 25 23  1  0  0  0  0
M  END
>  <MODEL>
6

>  <REMARK>
 VINA RESULT:      -9.2      2.747      4.774
  Name = 
  4 active torsions:
  status: ('A' for Active; 'I' for Inactive)
    1  A    between atoms: C_2  and  C_25
    2  A    between atoms: C_6  and  C_23
    3  A    between atoms: C_15  and  S_21
    4  A    between atoms: S_21  and  C_25
                            x       y       z     vdW  Elec       q    Type
                         _______ _______ _______ _____ _____    ______ ____

>  <TORSDO>
F 4

$$$$
=
 OpenBabel10272400503D

 25 28  0  0  0  0  0  0  0  0999 V2000
  187.8920  177.6280  145.2820 C   0  0  0  0  0  0  0  0  0  0  0  0
  186.6170  177.9640  144.7790 C   0  0  0  0  0  0  0  0  0  0  0  0
  187.1910  178.1720  147.5560 C   0  0  0  0  0  3  0  0  0  0  0  0
  189.0200  177.1660  144.5740 C   0  0  0  0  0  0  0  0  0  0  0  0
  191.4420  176.2440  143.5240 C   0  0  0  0  0  3  0  0  0  0  0  0
  185.9250  178.5080  147.0670 C   0  0  0  0  0  3  0  0  0  0  0  0
  190.1180  176.9320  145.4000 C   0  0  0  0  0  0  0  0  0  0  0  0
  191.3350  176.4720  144.9030 C   0  0  0  0  0  3  0  0  0  0  0  0
  184.3030  178.7640  145.1850 C   0  0  0  0  0  0  0  0  0  0  0  0
  183.4000  179.1620  145.9700 O   0  0  0  0  0  0  0  0  0  0  0  0
  186.3030  177.8560  143.3070 C   0  0  0  0  0  2  0  0  0  0  0  0
  190.3440  176.4760  142.6760 C   0  0  0  0  0  3  0  0  0  0  0  0
  188.1510  177.7360  146.6500 C   0  0  0  0  0  0  0  0  0  0  0  0
  189.7350  177.2790  147.0020 S   0  0  0  0  0  0  0  0  0  0  0  0
  184.0260  178.6590  143.7880 N   0  0  0  0  0  0  0  0  0  0  0  0
  189.1260  176.9390  143.1970 C   0  0  0  0  0  3  0  0  0  0  0  0
  184.9030  178.2550  142.9150 C   0  0  0  0  0  0  0  0  0  0  0  0
  185.6340  178.4080  145.6920 C   0  0  0  0  0  0  0  0  0  0  0  0
  184.5490  178.1730  141.4930 C   0  0  0  0  0  3  0  0  0  0  0  0
  185.1200  178.9410  140.5720 C   0  0  0  0  0  3  0  0  0  0  0  0
  184.6430  178.7880  138.8570 S   0  0  0  0  0  0  0  0  0  0  0  0
  183.2110  177.7460  139.2710 C   0  0  0  0  0  2  0  0  0  0  0  0
  181.9180  178.4820  138.9750 C   0  0  0  0  0  3  0  0  0  0  0  0
  181.1020  178.5890  140.2440 C   0  0  0  0  0  1  0  0  0  0  0  0
  182.2180  179.8770  138.4590 C   0  0  0  0  0  1  0  0  0  0  0  0
  1 13  1  0  0  0  0
  2  1  2  0  0  0  0
  2 18  1  0  0  0  0
  4  1  1  0  0  0  0
  4  7  1  0  0  0  0
  5  8  1  0  0  0  0
  6  3  1  0  0  0  0
  7 14  1  0  0  0  0
  8  7  2  0  0  0  0
  9 18  1  0  0  0  0
  9 10  2  0  0  0  0
 11  2  1  0  0  0  0
 12 16  1  0  0  0  0
 12  5  2  0  0  0  0
 13 14  1  0  0  0  0
 13  3  2  0  0  0  0
 15  9  1  0  0  0  0
 16  4  2  0  0  0  0
 17 11  1  0  0  0  0
 17 15  2  0  0  0  0
 18  6  2  0  0  0  0
 19 17  1  0  0  0  0
 20 19  2  0  0  0  0
 21 22  1  0  0  0  0
 21 20  1  0  0  0  0
 23 22  1  0  0  0  0
 23 24  1  0  0  0  0
 25 23  1  0  0  0  0
M  END
>  <MODEL>
7

>  <REMARK>
 VINA RESULT:      -9.1      3.595      5.902
  Name = 
  4 active torsions:
  status: ('A' for Active; 'I' for Inactive)
    1  A    between atoms: C_2  and  C_25
    2  A    between atoms: C_6  and  C_23
    3  A    between atoms: C_15  and  S_21
    4  A    between atoms: S_21  and  C_25
                            x       y       z     vdW  Elec       q    Type
                         _______ _______ _______ _____ _____    ______ ____

>  <TORSDO>
F 4

$$$$
=
 OpenBabel10272400503D

 25 28  0  0  0  0  0  0  0  0999 V2000
  187.6020  177.7650  144.8070 C   0  0  0  0  0  0  0  0  0  0  0  0
  188.5300  177.4680  143.7860 C   0  0  0  0  0  0  0  0  0  0  0  0
  189.2670  177.2790  146.5250 C   0  0  0  0  0  3  0  0  0  0  0  0
  186.2600  178.1740  144.6810 C   0  0  0  0  0  0  0  0  0  0  0  0
  183.5890  178.9920  144.8300 C   0  0  0  0  0  3  0  0  0  0  0  0
  190.1920  176.9830  145.5200 C   0  0  0  0  0  3  0  0  0  0  0  0
  185.6390  178.3810  145.9120 C   0  0  0  0  0  0  0  0  0  0  0  0
  184.3110  178.7880  146.0140 C   0  0  0  0  0  3  0  0  0  0  0  0
  190.8100  176.7590  143.1100 C   0  0  0  0  0  0  0  0  0  0  0  0
  191.9830  176.4060  143.4060 O   0  0  0  0  0  0  0  0  0  0  0  0
  188.1470  177.5660  142.3300 C   0  0  0  0  0  2  0  0  0  0  0  0
  184.2000  178.7880  143.5790 C   0  0  0  0  0  3  0  0  0  0  0  0
  187.9870  177.6670  146.1460 C   0  0  0  0  0  0  0  0  0  0  0  0
  186.7110  178.0710  147.1720 S   0  0  0  0  0  0  0  0  0  0  0  0
  190.4280  176.8530  141.7370 N   0  0  0  0  0  0  0  0  0  0  0  0
  185.5390  178.3770  143.4980 C   0  0  0  0  0  3  0  0  0  0  0  0
  189.2380  177.2130  141.3500 C   0  0  0  0  0  0  0  0  0  0  0  0
  189.8330  177.0740  144.1610 C   0  0  0  0  0  0  0  0  0  0  0  0
  188.9150  177.2870  139.9210 C   0  0  0  0  0  3  0  0  0  0  0  0
  189.7770  177.7420  139.0190 C   0  0  0  0  0  3  0  0  0  0  0  0
  189.3190  177.8030  137.2930 S   0  0  0  0  0  0  0  0  0  0  0  0
  187.5460  177.8740  137.6890 C   0  0  0  0  0  2  0  0  0  0  0  0
  186.7510  177.0310  136.7100 C   0  0  0  0  0  3  0  0  0  0  0  0
  187.0320  175.5660  136.9690 C   0  0  0  0  0  1  0  0  0  0  0  0
  185.2660  177.2900  136.8830 C   0  0  0  0  0  1  0  0  0  0  0  0
  1 13  2  0  0  0  0
  2 18  2  0  0  0  0
  2  1  1  0  0  0  0
  4  1  1  0  0  0  0
  4  7  1  0  0  0  0
  5  8  1  0  0  0  0
  6  3  2  0  0  0  0
  7  8  2  0  0  0  0
  7 14  1  0  0  0  0
  9 10  2  0  0  0  0
  9 18  1  0  0  0  0
 11  2  1  0  0  0  0
 12  5  2  0  0  0  0
 13  3  1  0  0  0  0
 13 14  1  0  0  0  0
 15  9  1  0  0  0  0
 16 12  1  0  0  0  0
 16  4  2  0  0  0  0
 17 15  2  0  0  0  0
 17 11  1  0  0  0  0
 18  6  1  0  0  0  0
 19 17  1  0  0  0  0
 20 19  2  0  0  0  0
 21 22  1  0  0  0  0
 21 20  1  0  0  0  0
 23 25  1  0  0  0  0
 23 24  1  0  0  0  0
 23 22  1  0  0  0  0
M  END
>  <MODEL>
8

>  <REMARK>
 VINA RESULT:      -9.0      2.001      2.672
  Name = 
  4 active torsions:
  status: ('A' for Active; 'I' for Inactive)
    1  A    between atoms: C_2  and  C_25
    2  A    between atoms: C_6  and  C_23
    3  A    between atoms: C_15  and  S_21
    4  A    between atoms: S_21  and  C_25
                            x       y       z     vdW  Elec       q    Type
                         _______ _______ _______ _____ _____    ______ ____

>  <TORSDO>
F 4

$$$$
=
 OpenBabel10272400503D

 25 28  0  0  0  0  0  0  0  0999 V2000
  189.5880  177.5070  143.9300 C   0  0  0  0  0  0  0  0  0  0  0  0
  188.9600  177.8030  142.7010 C   0  0  0  0  0  0  0  0  0  0  0  0
  191.7190  177.1240  142.8030 C   0  0  0  0  0  3  0  0  0  0  0  0
  189.0250  177.4930  145.2220 C   0  0  0  0  0  0  0  0  0  0  0  0
  188.2720  177.3610  147.9130 C   0  0  0  0  0  3  0  0  0  0  0  0
  191.1050  177.4150  141.5810 C   0  0  0  0  0  3  0  0  0  0  0  0
  189.9480  177.1550  146.2100 C   0  0  0  0  0  0  0  0  0  0  0  0
  189.6000  177.0820  147.5570 C   0  0  0  0  0  3  0  0  0  0  0  0
  189.0990  178.0560  140.2370 C   0  0  0  0  0  0  0  0  0  0  0  0
  189.7620  178.0210  139.1650 O   0  0  0  0  0  0  0  0  0  0  0  0
  187.4970  178.1660  142.6390 C   0  0  0  0  0  2  0  0  0  0  0  0
  187.3280  177.7040  146.9280 C   0  0  0  0  0  3  0  0  0  0  0  0
  190.9450  177.1770  143.9560 C   0  0  0  0  0  0  0  0  0  0  0  0
  191.4610  176.8690  145.5310 S   0  0  0  0  0  0  0  0  0  0  0  0
  187.7120  178.3920  140.1960 N   0  0  0  0  0  0  0  0  0  0  0  0
  187.7000  177.7720  145.5760 C   0  0  0  0  0  3  0  0  0  0  0  0
  186.9610  178.4510  141.2590 C   0  0  0  0  0  0  0  0  0  0  0  0
  189.7390  177.7520  141.5240 C   0  0  0  0  0  0  0  0  0  0  0  0
  185.5410  178.8020  141.1430 C   0  0  0  0  0  3  0  0  0  0  0  0
  184.6020  178.2260  141.8850 C   0  0  0  0  0  3  0  0  0  0  0  0
  182.8910  178.7030  141.6940 S   0  0  0  0  0  0  0  0  0  0  0  0
  182.7210  179.0810  143.4650 C   0  0  0  0  0  2  0  0  0  0  0  0
  184.0700  179.0040  144.1550 C   0  0  0  0  0  3  0  0  0  0  0  0
  184.6440  180.3980  144.2860 C   0  0  0  0  0  1  0  0  0  0  0  0
  183.9160  178.3990  145.5370 C   0  0  0  0  0  1  0  0  0  0  0  0
  1 13  2  0  0  0  0
  1  4  1  0  0  0  0
  2  1  1  0  0  0  0
  3 13  1  0  0  0  0
  4 16  2  0  0  0  0
  4  7  1  0  0  0  0
  6  3  2  0  0  0  0
  7  8  2  0  0  0  0
  8  5  1  0  0  0  0
  9 18  1  0  0  0  0
 10  9  2  0  0  0  0
 11  2  1  0  0  0  0
 12  5  2  0  0  0  0
 13 14  1  0  0  0  0
 14  7  1  0  0  0  0
 15  9  1  0  0  0  0
 15 17  2  0  0  0  0
 16 12  1  0  0  0  0
 17 11  1  0  0  0  0
 18  6  1  0  0  0  0
 18  2  2  0  0  0  0
 19 17  1  0  0  0  0
 19 20  2  0  0  0  0
 21 20  1  0  0  0  0
 21 22  1  0  0  0  0
 22 23  1  0  0  0  0
 23 24  1  0  0  0  0
 23 25  1  0  0  0  0
M  END
>  <MODEL>
9

>  <REMARK>
 VINA RESULT:      -8.9      2.824      6.178
  Name = 
  4 active torsions:
  status: ('A' for Active; 'I' for Inactive)
    1  A    between atoms: C_2  and  C_25
    2  A    between atoms: C_6  and  C_23
    3  A    between atoms: C_15  and  S_21
    4  A    between atoms: S_21  and  C_25
                            x       y       z     vdW  Elec       q    Type
                         _______ _______ _______ _____ _____    ______ ____

>  <TORSDO>
F 4

$$$$
