=
 OpenBabel10262423423D

 34 38  0  0  1  0  0  0  0  0999 V2000
  189.5360  177.3580  137.8290 C   0  0  0  0  0  0  0  0  0  0  0  0
  190.9230  177.2990  139.7890 C   0  0  0  0  0  0  0  0  0  0  0  0
  188.7600  178.2630  140.1140 C   0  0  0  0  0  2  0  0  0  0  0  0
  191.0280  177.6750  141.5190 S   0  0  0  0  0  0  0  0  0  0  0  0
  190.5660  176.7010  137.1140 C   0  0  0  0  0  0  0  0  0  0  0  0
  191.8950  176.6440  139.1090 N   0  0  0  0  0  0  0  0  0  0  0  0
  191.7610  176.3290  137.7920 C   0  0  0  0  0  0  0  0  0  0  0  0
  189.2140  177.9020  141.5300 C   0  0  2  0  0  3  0  0  0  0  0  0
  189.7410  177.6400  139.1880 C   0  0  0  0  0  0  0  0  0  0  0  0
  187.5070  178.7520  137.8130 N   0  0  0  0  0  2  0  0  0  0  0  0
  187.2490  176.5230  136.9240 C   0  0  1  0  0  3  0  0  0  0  0  0
  186.1480  178.3780  137.8640 C   0  0  0  0  0  0  0  0  0  0  0  0
  185.8630  177.0510  137.2810 C   0  0  0  0  0  2  0  0  0  0  0  0
  188.2340  177.6970  137.1360 C   0  0  2  0  0  3  0  0  0  0  0  0
  185.2660  179.1150  138.3750 O   0  0  0  0  0  0  0  0  0  0  0  0
  187.5450  175.4300  137.7380 O   0  0  0  0  0  1  0  0  0  0  0  0
  194.8690  175.5540  135.7350 C   0  0  0  0  0  0  0  0  0  0  0  0
  194.9230  174.1660  135.8480 C   0  0  0  0  0  3  0  0  0  0  0  0
  192.8820  175.6030  137.1410 C   0  0  0  0  0  0  0  0  0  0  0  0
  193.9590  173.4910  136.5970 C   0  0  0  0  0  3  0  0  0  0  0  0
  193.8510  176.2670  136.3730 C   0  0  0  0  0  3  0  0  0  0  0  0
  192.9420  174.2050  137.2350 C   0  0  0  0  0  3  0  0  0  0  0  0
  195.8220  176.2260  134.9830 O   0  0  0  0  0  1  0  0  0  0  0  0
  190.0410  175.0240  135.3780 C   0  0  0  0  0  1  0  0  0  0  0  0
  190.4010  176.4690  135.6420 C   0  0  0  0  0  2  0  0  0  0  0  0
  188.6110  176.7070  141.9160 O   0  0  0  0  0  0  0  0  0  0  0  0
  189.3790  176.2390  142.9850 C   0  0  0  0  0  2  0  0  0  0  0  0
  190.5200  176.6620  145.8670 O   0  0  0  0  0  1  0  0  0  0  0  0
  188.6980  176.5580  144.3090 C   0  0  1  0  0  3  0  0  0  0  0  0
  189.5880  177.4490  145.1890 C   0  0  1  0  0  3  0  0  0  0  0  0
  187.4950  177.6160  146.6000 C   0  0  0  0  0  2  0  0  0  0  0  0
  186.5730  177.3940  145.3920 C   0  0  0  0  0  2  0  0  0  0  0  0
  187.3270  177.1900  144.0730 C   0  0  0  0  0  2  0  0  0  0  0  0
  188.7980  178.2980  146.1930 C   0  0  0  0  0  2  0  0  0  0  0  0
  1  9  1  0  0  0  0
  2  4  1  0  0  0  0
  3  8  1  0  0  0  0
  4  8  1  0  0  0  0
  5  7  1  0  0  0  0
  5  1  2  0  0  0  0
  6  2  1  0  0  0  0
  7  6  2  0  0  0  0
  8 26  1  6  0  0  0
  9  2  2  0  0  0  0
  9  3  1  0  0  0  0
 10 12  1  0  0  0  0
 11 14  1  0  0  0  0
 11 13  1  0  0  0  0
 11 16  1  1  0  0  0
 12 15  2  0  0  0  0
 13 12  1  0  0  0  0
 14 10  1  0  0  0  0
 14  1  1  1  0  0  0
 17 18  2  0  0  0  0
 17 21  1  0  0  0  0
 18 20  1  0  0  0  0
 19 22  1  0  0  0  0
 19  7  1  0  0  0  0
 20 22  2  0  0  0  0
 21 19  2  0  0  0  0
 23 17  1  0  0  0  0
 24 25  1  0  0  0  0
 25  5  1  0  0  0  0
 26 27  1  0  0  0  0
 29 27  1  6  0  0  0
 29 30  1  0  0  0  0
 30 28  1  1  0  0  0
 30 34  1  0  0  0  0
 32 31  1  0  0  0  0
 33 29  1  0  0  0  0
 33 32  1  0  0  0  0
 34 31  1  0  0  0  0
M  END
>  <MODEL>
1

>  <REMARK>
 VINA RESULT:      -8.1      0.000      0.000
  Name = 
  6 active torsions:
  status: ('A' for Active; 'I' for Inactive)
    1  A    between atoms: C_3  and  C_13
    2  A    between atoms: C_3  and  O_17
    3  A    between atoms: C_4  and  C_15
    4  A    between atoms: C_12  and  C_28
    5  A    between atoms: O_17  and  C_29
    6  A    between atoms: C_21  and  C_32
                            x       y       z     vdW  Elec       q    Type
                         _______ _______ _______ _____ _____    ______ ____

>  <TORSDO>
F 6

$$$$
=
 OpenBabel10262423423D

 34 38  0  0  1  0  0  0  0  0999 V2000
  189.5150  177.3930  137.9480 C   0  0  0  0  0  0  0  0  0  0  0  0
  190.8850  177.2650  139.9160 C   0  0  0  0  0  0  0  0  0  0  0  0
  188.7300  178.2450  140.2500 C   0  0  0  0  0  2  0  0  0  0  0  0
  190.9800  177.5930  141.6570 S   0  0  0  0  0  0  0  0  0  0  0  0
  190.5430  176.7440  137.2240 C   0  0  0  0  0  0  0  0  0  0  0  0
  191.8550  176.6170  139.2270 N   0  0  0  0  0  0  0  0  0  0  0  0
  191.7290  176.3400  137.9010 C   0  0  0  0  0  0  0  0  0  0  0  0
  189.1690  177.8400  141.6590 C   0  0  2  0  0  3  0  0  0  0  0  0
  189.7120  177.6360  139.3160 C   0  0  0  0  0  0  0  0  0  0  0  0
  187.4890  178.7910  137.9680 N   0  0  0  0  0  2  0  0  0  0  0  0
  187.2390  176.6060  136.9760 C   0  0  1  0  0  3  0  0  0  0  0  0
  186.1290  178.4190  137.9850 C   0  0  0  0  0  0  0  0  0  0  0  0
  185.8490  177.1200  137.3390 C   0  0  0  0  0  2  0  0  0  0  0  0
  188.2230  177.7660  137.2540 C   0  0  2  0  0  3  0  0  0  0  0  0
  185.2420  179.1330  138.5170 O   0  0  0  0  0  0  0  0  0  0  0  0
  187.5220  175.4760  137.7430 O   0  0  0  0  0  1  0  0  0  0  0  0
  194.8420  175.5830  135.8450 C   0  0  0  0  0  0  0  0  0  0  0  0
  194.8810  174.1930  135.9240 C   0  0  0  0  0  3  0  0  0  0  0  0
  192.8460  175.6180  137.2380 C   0  0  0  0  0  0  0  0  0  0  0  0
  193.9050  173.5090  136.6500 C   0  0  0  0  0  3  0  0  0  0  0  0
  193.8270  176.2910  136.4930 C   0  0  0  0  0  3  0  0  0  0  0  0
  192.8910  174.2180  137.2990 C   0  0  0  0  0  3  0  0  0  0  0  0
  195.8060  176.2630  135.1160 O   0  0  0  0  0  1  0  0  0  0  0  0
  190.0370  175.1150  135.4370 C   0  0  0  0  0  1  0  0  0  0  0  0
  190.3880  176.5540  135.7440 C   0  0  0  0  0  2  0  0  0  0  0  0
  188.5480  176.6430  142.0090 O   0  0  0  0  0  0  0  0  0  0  0  0
  189.0760  176.3090  143.2580 C   0  0  0  0  0  2  0  0  0  0  0  0
  186.2960  177.7280  143.4870 O   0  0  0  0  0  1  0  0  0  0  0  0
  188.4740  177.1940  144.3420 C   0  0  1  0  0  3  0  0  0  0  0  0
  186.9580  176.9750  144.4580 C   0  0  1  0  0  3  0  0  0  0  0  0
  187.2230  178.3920  146.5360 C   0  0  0  0  0  2  0  0  0  0  0  0
  188.6770  177.9440  146.7470 C   0  0  0  0  0  2  0  0  0  0  0  0
  189.1790  176.9670  145.6780 C   0  0  0  0  0  2  0  0  0  0  0  0
  186.3970  177.3100  145.8460 C   0  0  0  0  0  2  0  0  0  0  0  0
  1  9  1  0  0  0  0
  2  4  1  0  0  0  0
  3  8  1  0  0  0  0
  4  8  1  0  0  0  0
  5  7  1  0  0  0  0
  5  1  2  0  0  0  0
  6  2  1  0  0  0  0
  7  6  2  0  0  0  0
  8 26  1  6  0  0  0
  9  2  2  0  0  0  0
  9  3  1  0  0  0  0
 10 12  1  0  0  0  0
 11 14  1  0  0  0  0
 11 13  1  0  0  0  0
 11 16  1  1  0  0  0
 12 15  2  0  0  0  0
 13 12  1  0  0  0  0
 14  1  1  1  0  0  0
 14 10  1  0  0  0  0
 17 18  2  0  0  0  0
 17 21  1  0  0  0  0
 18 20  1  0  0  0  0
 19 22  1  0  0  0  0
 19  7  1  0  0  0  0
 20 22  2  0  0  0  0
 21 19  2  0  0  0  0
 23 17  1  0  0  0  0
 24 25  1  0  0  0  0
 25  5  1  0  0  0  0
 26 27  1  0  0  0  0
 29 27  1  6  0  0  0
 29 30  1  0  0  0  0
 29 33  1  0  0  0  0
 30 28  1  6  0  0  0
 30 34  1  0  0  0  0
 31 32  1  0  0  0  0
 33 32  1  0  0  0  0
 34 31  1  0  0  0  0
M  END
>  <MODEL>
2

>  <REMARK>
 VINA RESULT:      -8.1      0.807      1.254
  Name = 
  6 active torsions:
  status: ('A' for Active; 'I' for Inactive)
    1  A    between atoms: C_3  and  C_13
    2  A    between atoms: C_3  and  O_17
    3  A    between atoms: C_4  and  C_15
    4  A    between atoms: C_12  and  C_28
    5  A    between atoms: O_17  and  C_29
    6  A    between atoms: C_21  and  C_32
                            x       y       z     vdW  Elec       q    Type
                         _______ _______ _______ _____ _____    ______ ____

>  <TORSDO>
F 6

$$$$
=
 OpenBabel10262423423D

 34 38  0  0  1  0  0  0  0  0999 V2000
  188.9520  176.9070  138.6400 C   0  0  0  0  0  0  0  0  0  0  0  0
  190.5850  177.3030  140.3570 C   0  0  0  0  0  0  0  0  0  0  0  0
  188.3620  177.9950  140.9010 C   0  0  0  0  0  2  0  0  0  0  0  0
  190.8650  177.9180  141.9960 S   0  0  0  0  0  0  0  0  0  0  0  0
  189.9650  176.3080  137.8530 C   0  0  0  0  0  0  0  0  0  0  0  0
  191.5460  176.7030  139.6130 N   0  0  0  0  0  0  0  0  0  0  0  0
  191.2850  176.1990  138.3760 C   0  0  0  0  0  0  0  0  0  0  0  0
  189.0560  177.8930  142.2610 C   0  0  2  0  0  3  0  0  0  0  0  0
  189.2940  177.3940  139.9110 C   0  0  0  0  0  0  0  0  0  0  0  0
  187.2340  175.8920  137.1990 N   0  0  0  0  0  2  0  0  0  0  0  0
  187.1110  178.2890  137.4390 C   0  0  1  0  0  3  0  0  0  0  0  0
  186.5230  176.4390  136.1110 C   0  0  0  0  0  0  0  0  0  0  0  0
  186.3280  177.9010  136.1890 C   0  0  0  0  0  2  0  0  0  0  0  0
  187.5310  176.9680  138.1230 C   0  0  2  0  0  3  0  0  0  0  0  0
  186.1060  175.7340  135.1570 O   0  0  0  0  0  0  0  0  0  0  0  0
  188.2090  179.0660  137.0680 O   0  0  0  0  0  1  0  0  0  0  0  0
  194.4680  175.6700  136.3570 C   0  0  0  0  0  0  0  0  0  0  0  0
  194.4480  174.2870  136.1880 C   0  0  0  0  0  3  0  0  0  0  0  0
  192.4060  175.5530  137.6450 C   0  0  0  0  0  0  0  0  0  0  0  0
  193.4100  173.5340  136.7360 C   0  0  0  0  0  3  0  0  0  0  0  0
  193.4500  176.3000  137.0760 C   0  0  0  0  0  3  0  0  0  0  0  0
  192.3920  174.1640  137.4560 C   0  0  0  0  0  3  0  0  0  0  0  0
  195.4950  176.4210  135.8040 O   0  0  0  0  0  1  0  0  0  0  0  0
  190.1830  176.8520  135.4540 C   0  0  0  0  0  1  0  0  0  0  0  0
  189.6400  175.8610  136.4590 C   0  0  0  0  0  2  0  0  0  0  0  0
  188.7040  176.6890  142.8690 O   0  0  0  0  0  0  0  0  0  0  0  0
  187.6320  177.0020  143.7060 C   0  0  0  0  0  2  0  0  0  0  0  0
  186.2550  178.7770  145.8840 O   0  0  0  0  0  1  0  0  0  0  0  0
  188.1370  177.5580  145.0310 C   0  0  1  0  0  3  0  0  0  0  0  0
  187.0090  177.6180  146.0720 C   0  0  1  0  0  3  0  0  0  0  0  0
  188.9140  178.1440  147.6520 C   0  0  0  0  0  2  0  0  0  0  0  0
  189.9320  177.3710  146.8010 C   0  0  0  0  0  2  0  0  0  0  0  0
  189.3280  176.7460  145.5390 C   0  0  0  0  0  2  0  0  0  0  0  0
  187.5110  177.5560  147.5210 C   0  0  0  0  0  2  0  0  0  0  0  0
  1  9  1  0  0  0  0
  2  4  1  0  0  0  0
  3  8  1  0  0  0  0
  4  8  1  0  0  0  0
  5  7  1  0  0  0  0
  5  1  2  0  0  0  0
  6  2  1  0  0  0  0
  7  6  2  0  0  0  0
  8 26  1  6  0  0  0
  9  2  2  0  0  0  0
  9  3  1  0  0  0  0
 10 14  1  0  0  0  0
 11 16  1  6  0  0  0
 11 14  1  0  0  0  0
 12 13  1  0  0  0  0
 12 10  1  0  0  0  0
 13 11  1  0  0  0  0
 14  1  1  6  0  0  0
 15 12  2  0  0  0  0
 17 21  1  0  0  0  0
 18 17  2  0  0  0  0
 18 20  1  0  0  0  0
 19  7  1  0  0  0  0
 20 22  2  0  0  0  0
 21 19  2  0  0  0  0
 22 19  1  0  0  0  0
 23 17  1  0  0  0  0
 24 25  1  0  0  0  0
 25  5  1  0  0  0  0
 26 27  1  0  0  0  0
 29 27  1  6  0  0  0
 29 33  1  0  0  0  0
 29 30  1  0  0  0  0
 30 28  1  1  0  0  0
 30 34  1  0  0  0  0
 32 31  1  0  0  0  0
 33 32  1  0  0  0  0
 34 31  1  0  0  0  0
M  END
>  <MODEL>
3

>  <REMARK>
 VINA RESULT:      -8.0      1.513      2.018
  Name = 
  6 active torsions:
  status: ('A' for Active; 'I' for Inactive)
    1  A    between atoms: C_3  and  C_13
    2  A    between atoms: C_3  and  O_17
    3  A    between atoms: C_4  and  C_15
    4  A    between atoms: C_12  and  C_28
    5  A    between atoms: O_17  and  C_29
    6  A    between atoms: C_21  and  C_32
                            x       y       z     vdW  Elec       q    Type
                         _______ _______ _______ _____ _____    ______ ____

>  <TORSDO>
F 6

$$$$
=
 OpenBabel10262423423D

 34 38  0  0  1  0  0  0  0  0999 V2000
  184.6190  178.1990  138.5470 C   0  0  0  0  0  0  0  0  0  0  0  0
  186.6540  178.4130  139.8050 C   0  0  0  0  0  0  0  0  0  0  0  0
  184.6860  179.1640  140.9360 C   0  0  0  0  0  2  0  0  0  0  0  0
  187.3750  178.9100  141.3470 S   0  0  0  0  0  0  0  0  0  0  0  0
  185.3630  177.6090  137.4970 C   0  0  0  0  0  0  0  0  0  0  0  0
  187.3580  177.8220  138.8110 N   0  0  0  0  0  0  0  0  0  0  0  0
  186.7640  177.4100  137.6580 C   0  0  0  0  0  0  0  0  0  0  0  0
  185.6940  178.9450  142.0660 C   0  0  2  0  0  3  0  0  0  0  0  0
  185.3000  178.5890  139.7100 C   0  0  0  0  0  0  0  0  0  0  0  0
  182.6410  179.5970  138.9830 N   0  0  0  0  0  2  0  0  0  0  0  0
  182.2620  177.2150  139.0130 C   0  0  1  0  0  3  0  0  0  0  0  0
  181.4750  179.3140  139.7250 C   0  0  0  0  0  0  0  0  0  0  0  0
  181.1080  177.8840  139.7530 C   0  0  0  0  0  2  0  0  0  0  0  0
  183.1200  178.3540  138.4140 C   0  0  2  0  0  3  0  0  0  0  0  0
  180.8190  180.2100  140.3150 O   0  0  0  0  0  0  0  0  0  0  0  0
  182.9820  176.4240  139.9090 O   0  0  0  0  0  1  0  0  0  0  0  0
  188.7530  174.8170  135.7060 C   0  0  0  0  0  0  0  0  0  0  0  0
  189.3370  175.6140  134.7240 C   0  0  0  0  0  3  0  0  0  0  0  0
  187.6240  176.7650  136.6320 C   0  0  0  0  0  0  0  0  0  0  0  0
  189.0760  176.9840  134.6940 C   0  0  0  0  0  3  0  0  0  0  0  0
  187.9060  175.3900  136.6580 C   0  0  0  0  0  3  0  0  0  0  0  0
  188.2280  177.5560  135.6450 C   0  0  0  0  0  3  0  0  0  0  0  0
  189.0190  173.4560  135.7420 O   0  0  0  0  0  1  0  0  0  0  0  0
  184.2490  175.8140  136.2180 C   0  0  0  0  0  1  0  0  0  0  0  0
  184.6700  177.2660  136.2120 C   0  0  0  0  0  2  0  0  0  0  0  0
  185.4380  177.7210  142.6800 O   0  0  0  0  0  0  0  0  0  0  0  0
  185.0930  178.0380  143.9960 C   0  0  0  0  0  2  0  0  0  0  0  0
  185.6070  179.5370  146.6940 O   0  0  0  0  0  1  0  0  0  0  0  0
  186.3430  178.1860  144.8520 C   0  0  1  0  0  3  0  0  0  0  0  0
  185.9890  178.2400  146.3460 C   0  0  1  0  0  3  0  0  0  0  0  0
  188.4930  178.0330  146.6330 C   0  0  0  0  0  2  0  0  0  0  0  0
  188.6580  177.2780  145.3070 C   0  0  0  0  0  2  0  0  0  0  0  0
  187.3410  177.0680  144.5510 C   0  0  0  0  0  2  0  0  0  0  0  0
  187.1270  177.7720  147.2620 C   0  0  0  0  0  2  0  0  0  0  0  0
  1  9  1  0  0  0  0
  2  4  1  0  0  0  0
  3  8  1  0  0  0  0
  4  8  1  0  0  0  0
  5  7  1  0  0  0  0
  5  1  2  0  0  0  0
  6  2  1  0  0  0  0
  7  6  2  0  0  0  0
  8 26  1  6  0  0  0
  9  2  2  0  0  0  0
  9  3  1  0  0  0  0
 10 12  1  0  0  0  0
 11 13  1  0  0  0  0
 11 16  1  1  0  0  0
 12 13  1  0  0  0  0
 12 15  2  0  0  0  0
 14  1  1  1  0  0  0
 14 10  1  0  0  0  0
 14 11  1  0  0  0  0
 17 23  1  0  0  0  0
 17 21  1  0  0  0  0
 18 17  2  0  0  0  0
 19 21  2  0  0  0  0
 19  7  1  0  0  0  0
 20 18  1  0  0  0  0
 20 22  2  0  0  0  0
 22 19  1  0  0  0  0
 25 24  1  0  0  0  0
 25  5  1  0  0  0  0
 26 27  1  0  0  0  0
 29 27  1  6  0  0  0
 29 30  1  0  0  0  0
 30 28  1  1  0  0  0
 30 34  1  0  0  0  0
 31 34  1  0  0  0  0
 32 31  1  0  0  0  0
 33 29  1  0  0  0  0
 33 32  1  0  0  0  0
M  END
>  <MODEL>
4

>  <REMARK>
 VINA RESULT:      -7.6      3.488      4.902
  Name = 
  6 active torsions:
  status: ('A' for Active; 'I' for Inactive)
    1  A    between atoms: C_3  and  C_13
    2  A    between atoms: C_3  and  O_17
    3  A    between atoms: C_4  and  C_15
    4  A    between atoms: C_12  and  C_28
    5  A    between atoms: O_17  and  C_29
    6  A    between atoms: C_21  and  C_32
                            x       y       z     vdW  Elec       q    Type
                         _______ _______ _______ _____ _____    ______ ____

>  <TORSDO>
F 6

$$$$
=
 OpenBabel10262423423D

 34 38  0  0  1  0  0  0  0  0999 V2000
  188.7330  176.9450  138.5650 C   0  0  0  0  0  0  0  0  0  0  0  0
  190.3050  177.1560  140.3690 C   0  0  0  0  0  0  0  0  0  0  0  0
  188.1400  178.0690  140.8070 C   0  0  0  0  0  2  0  0  0  0  0  0
  190.5600  177.7260  142.0290 S   0  0  0  0  0  0  0  0  0  0  0  0
  189.7200  176.2510  137.8240 C   0  0  0  0  0  0  0  0  0  0  0  0
  191.2370  176.4660  139.6680 N   0  0  0  0  0  0  0  0  0  0  0  0
  190.9920  176.0020  138.4130 C   0  0  0  0  0  0  0  0  0  0  0  0
  188.7470  177.8850  142.2000 C   0  0  2  0  0  3  0  0  0  0  0  0
  189.0560  177.3840  139.8580 C   0  0  0  0  0  0  0  0  0  0  0  0
  186.9920  176.1150  137.0360 N   0  0  0  0  0  2  0  0  0  0  0  0
  187.1160  178.5130  137.2740 C   0  0  1  0  0  3  0  0  0  0  0  0
  186.4010  176.7310  135.9130 C   0  0  0  0  0  0  0  0  0  0  0  0
  186.3610  178.2060  135.9840 C   0  0  0  0  0  2  0  0  0  0  0  0
  187.3560  177.1560  137.9760 C   0  0  2  0  0  3  0  0  0  0  0  0
  185.9600  176.0720  134.9380 O   0  0  0  0  0  0  0  0  0  0  0  0
  188.3090  179.1650  136.9610 O   0  0  0  0  0  1  0  0  0  0  0  0
  192.9310  173.2510  136.6340 C   0  0  0  0  0  0  0  0  0  0  0  0
  194.1940  173.8330  136.5420 C   0  0  0  0  0  3  0  0  0  0  0  0
  192.0770  175.2490  137.7320 C   0  0  0  0  0  0  0  0  0  0  0  0
  194.4070  175.1160  137.0480 C   0  0  0  0  0  3  0  0  0  0  0  0
  191.8810  173.9530  137.2310 C   0  0  0  0  0  3  0  0  0  0  0  0
  193.3560  175.8170  137.6440 C   0  0  0  0  0  3  0  0  0  0  0  0
  192.7200  171.9720  136.1400 O   0  0  0  0  0  1  0  0  0  0  0  0
  190.1100  176.7950  135.4470 C   0  0  0  0  0  1  0  0  0  0  0  0
  189.4250  175.8510  136.4090 C   0  0  0  0  0  2  0  0  0  0  0  0
  188.2410  176.7190  142.7720 O   0  0  0  0  0  0  0  0  0  0  0  0
  188.3530  176.9100  144.1500 C   0  0  0  0  0  2  0  0  0  0  0  0
  187.4090  177.2890  147.1100 O   0  0  0  0  0  1  0  0  0  0  0  0
  187.0050  177.2970  144.7440 C   0  0  1  0  0  3  0  0  0  0  0  0
  187.1810  178.1330  146.0210 C   0  0  1  0  0  3  0  0  0  0  0  0
  184.6870  178.4730  145.7740 C   0  0  0  0  0  2  0  0  0  0  0  0
  184.7390  178.3030  144.2480 C   0  0  0  0  0  2  0  0  0  0  0  0
  186.1470  178.0260  143.7100 C   0  0  0  0  0  2  0  0  0  0  0  0
  185.9900  179.0520  146.3190 C   0  0  0  0  0  2  0  0  0  0  0  0
  1  9  1  0  0  0  0
  2  4  1  0  0  0  0
  3  8  1  0  0  0  0
  4  8  1  0  0  0  0
  5  7  1  0  0  0  0
  5  1  2  0  0  0  0
  6  2  1  0  0  0  0
  7  6  2  0  0  0  0
  8 26  1  6  0  0  0
  9  2  2  0  0  0  0
  9  3  1  0  0  0  0
 10 14  1  0  0  0  0
 11 16  1  6  0  0  0
 11 14  1  0  0  0  0
 12 13  1  0  0  0  0
 12 10  1  0  0  0  0
 13 11  1  0  0  0  0
 14  1  1  6  0  0  0
 15 12  2  0  0  0  0
 17 21  1  0  0  0  0
 18 17  2  0  0  0  0
 18 20  1  0  0  0  0
 19  7  1  0  0  0  0
 20 22  2  0  0  0  0
 21 19  2  0  0  0  0
 22 19  1  0  0  0  0
 23 17  1  0  0  0  0
 24 25  1  0  0  0  0
 25  5  1  0  0  0  0
 26 27  1  0  0  0  0
 29 27  1  6  0  0  0
 29 30  1  0  0  0  0
 30 34  1  0  0  0  0
 30 28  1  1  0  0  0
 31 34  1  0  0  0  0
 32 31  1  0  0  0  0
 33 32  1  0  0  0  0
 33 29  1  0  0  0  0
M  END
>  <MODEL>
5

>  <REMARK>
 VINA RESULT:      -7.5      1.830      2.315
  Name = 
  6 active torsions:
  status: ('A' for Active; 'I' for Inactive)
    1  A    between atoms: C_3  and  C_13
    2  A    between atoms: C_3  and  O_17
    3  A    between atoms: C_4  and  C_15
    4  A    between atoms: C_12  and  C_28
    5  A    between atoms: O_17  and  C_29
    6  A    between atoms: C_21  and  C_32
                            x       y       z     vdW  Elec       q    Type
                         _______ _______ _______ _____ _____    ______ ____

>  <TORSDO>
F 6

$$$$
=
 OpenBabel10262423423D

 34 38  0  0  1  0  0  0  0  0999 V2000
  187.8410  178.2100  142.1300 C   0  0  0  0  0  0  0  0  0  0  0  0
  188.1480  178.3270  139.7500 C   0  0  0  0  0  0  0  0  0  0  0  0
  190.1520  177.9920  141.0100 C   0  0  0  0  0  2  0  0  0  0  0  0
  189.3180  178.2420  138.4200 S   0  0  0  0  0  0  0  0  0  0  0  0
  186.4470  178.3510  141.9290 C   0  0  0  0  0  0  0  0  0  0  0  0
  186.8110  178.4320  139.5600 N   0  0  0  0  0  0  0  0  0  0  0  0
  185.9370  178.4470  140.6030 C   0  0  0  0  0  0  0  0  0  0  0  0
  190.5310  177.5440  139.5970 C   0  0  2  0  0  3  0  0  0  0  0  0
  188.6790  178.1920  141.0050 C   0  0  0  0  0  0  0  0  0  0  0  0
  189.6600  178.7070  143.7110 N   0  0  0  0  0  2  0  0  0  0  0  0
  188.5600  176.5830  144.0210 C   0  0  1  0  0  3  0  0  0  0  0  0
  190.5120  177.8340  144.4190 C   0  0  0  0  0  0  0  0  0  0  0  0
  189.9120  176.5190  144.7240 C   0  0  0  0  0  2  0  0  0  0  0  0
  188.3880  178.0390  143.5300 C   0  0  2  0  0  3  0  0  0  0  0  0
  191.6830  178.1540  144.7460 O   0  0  0  0  0  0  0  0  0  0  0  0
  188.5480  175.6640  142.9710 O   0  0  0  0  0  1  0  0  0  0  0  0
  182.6130  179.6800  139.2160 C   0  0  0  0  0  0  0  0  0  0  0  0
  181.7290  178.7770  139.8030 C   0  0  0  0  0  3  0  0  0  0  0  0
  184.4890  178.5570  140.2870 C   0  0  0  0  0  0  0  0  0  0  0  0
  182.2150  177.7690  140.6360 C   0  0  0  0  0  3  0  0  0  0  0  0
  183.9850  179.5750  139.4620 C   0  0  0  0  0  3  0  0  0  0  0  0
  183.5870  177.6630  140.8800 C   0  0  0  0  0  3  0  0  0  0  0  0
  182.1300  180.6890  138.3960 O   0  0  0  0  0  1  0  0  0  0  0  0
  185.2310  179.9130  143.4060 C   0  0  0  0  0  1  0  0  0  0  0  0
  185.5430  178.4610  143.1200 C   0  0  0  0  0  2  0  0  0  0  0  0
  190.4820  176.1530  139.5260 O   0  0  0  0  0  0  0  0  0  0  0  0
  190.4810  175.8570  138.1610 C   0  0  0  0  0  2  0  0  0  0  0  0
  190.7620  173.1640  136.5940 O   0  0  0  0  0  1  0  0  0  0  0  0
  191.6970  175.0160  137.7990 C   0  0  1  0  0  3  0  0  0  0  0  0
  191.5110  174.3310  136.4370 C   0  0  1  0  0  3  0  0  0  0  0  0
  193.9580  173.7630  136.7330 C   0  0  0  0  0  2  0  0  0  0  0  0
  194.2180  175.0030  137.6020 C   0  0  0  0  0  2  0  0  0  0  0  0
  192.9690  175.8630  137.8330 C   0  0  0  0  0  2  0  0  0  0  0  0
  192.8340  174.0060  135.7300 C   0  0  0  0  0  2  0  0  0  0  0  0
  2  9  1  0  0  0  0
  4  8  1  0  0  0  0
  4  2  1  0  0  0  0
  5  1  1  0  0  0  0
  5 25  1  0  0  0  0
  6  2  2  0  0  0  0
  6  7  1  0  0  0  0
  7  5  2  0  0  0  0
  8 26  1  1  0  0  0
  8  3  1  0  0  0  0
  9  3  1  0  0  0  0
  9  1  2  0  0  0  0
 10 12  1  0  0  0  0
 11 16  1  6  0  0  0
 11 13  1  0  0  0  0
 12 13  1  0  0  0  0
 12 15  2  0  0  0  0
 14  1  1  6  0  0  0
 14 10  1  0  0  0  0
 14 11  1  0  0  0  0
 17 21  2  0  0  0  0
 17 18  1  0  0  0  0
 18 20  2  0  0  0  0
 19  7  1  0  0  0  0
 19 22  2  0  0  0  0
 20 22  1  0  0  0  0
 21 19  1  0  0  0  0
 23 17  1  0  0  0  0
 25 24  1  0  0  0  0
 27 26  1  0  0  0  0
 29 33  1  0  0  0  0
 29 27  1  6  0  0  0
 30 28  1  1  0  0  0
 30 29  1  0  0  0  0
 31 32  1  0  0  0  0
 32 33  1  0  0  0  0
 34 30  1  0  0  0  0
 34 31  1  0  0  0  0
M  END
>  <MODEL>
6

>  <REMARK>
 VINA RESULT:      -7.5      2.671      8.781
  Name = 
  6 active torsions:
  status: ('A' for Active; 'I' for Inactive)
    1  A    between atoms: C_3  and  C_13
    2  A    between atoms: C_3  and  O_17
    3  A    between atoms: C_4  and  C_15
    4  A    between atoms: C_12  and  C_28
    5  A    between atoms: O_17  and  C_29
    6  A    between atoms: C_21  and  C_32
                            x       y       z     vdW  Elec       q    Type
                         _______ _______ _______ _____ _____    ______ ____

>  <TORSDO>
F 6

$$$$
=
 OpenBabel10262423423D

 34 38  0  0  1  0  0  0  0  0999 V2000
  191.6140  175.7400  136.9170 C   0  0  0  0  0  0  0  0  0  0  0  0
  192.6840  176.6910  138.8450 C   0  0  0  0  0  0  0  0  0  0  0  0
  190.3510  177.1730  138.6470 C   0  0  0  0  0  2  0  0  0  0  0  0
  192.4600  177.6580  140.3160 S   0  0  0  0  0  0  0  0  0  0  0  0
  192.8450  175.1370  136.5660 C   0  0  0  0  0  0  0  0  0  0  0  0
  193.8530  176.0880  138.5220 N   0  0  0  0  0  0  0  0  0  0  0  0
  193.9770  175.3140  137.4100 C   0  0  0  0  0  0  0  0  0  0  0  0
  190.6550  177.4430  140.1220 C   0  0  2  0  0  3  0  0  0  0  0  0
  191.5590  176.5160  138.0850 C   0  0  0  0  0  0  0  0  0  0  0  0
  189.5020  176.6510  136.0380 N   0  0  0  0  0  2  0  0  0  0  0  0
  189.5290  174.2710  136.4320 C   0  0  1  0  0  3  0  0  0  0  0  0
  188.1800  176.1830  136.1860 C   0  0  0  0  0  0  0  0  0  0  0  0
  188.0730  174.7210  136.3660 C   0  0  0  0  0  2  0  0  0  0  0  0
  190.3870  175.5030  136.0640 C   0  0  2  0  0  3  0  0  0  0  0  0
  187.1880  176.9550  136.1750 O   0  0  0  0  0  0  0  0  0  0  0  0
  189.8030  173.7980  137.7150 O   0  0  0  0  0  1  0  0  0  0  0  0
  197.5130  174.7130  136.1320 C   0  0  0  0  0  0  0  0  0  0  0  0
  197.7490  173.4230  136.6020 C   0  0  0  0  0  3  0  0  0  0  0  0
  195.3010  174.6900  137.1490 C   0  0  0  0  0  0  0  0  0  0  0  0
  196.7660  172.7590  137.3380 C   0  0  0  0  0  3  0  0  0  0  0  0
  196.2930  175.3410  136.3990 C   0  0  0  0  0  3  0  0  0  0  0  0
  195.5480  173.3880  137.6050 C   0  0  0  0  0  3  0  0  0  0  0  0
  198.4850  175.3700  135.3930 O   0  0  0  0  0  1  0  0  0  0  0  0
  192.6970  172.9050  135.5180 C   0  0  0  0  0  1  0  0  0  0  0  0
  192.9460  174.3770  135.2770 C   0  0  0  0  0  2  0  0  0  0  0  0
  190.2440  176.3500  140.8840 O   0  0  0  0  0  0  0  0  0  0  0  0
  190.9010  176.4920  142.1080 C   0  0  0  0  0  2  0  0  0  0  0  0
  191.2660  176.6280  145.2130 O   0  0  0  0  0  1  0  0  0  0  0  0
  189.8920  176.5690  143.2460 C   0  0  1  0  0  3  0  0  0  0  0  0
  190.4340  177.4120  144.4110 C   0  0  1  0  0  3  0  0  0  0  0  0
  188.0620  177.2000  145.2640 C   0  0  0  0  0  2  0  0  0  0  0  0
  187.4860  177.0590  143.8470 C   0  0  0  0  0  2  0  0  0  0  0  0
  188.5500  177.1010  142.7440 C   0  0  0  0  0  2  0  0  0  0  0  0
  189.3330  178.0450  145.2710 C   0  0  0  0  0  2  0  0  0  0  0  0
  1  9  1  0  0  0  0
  2  4  1  0  0  0  0
  3  8  1  0  0  0  0
  5  1  2  0  0  0  0
  5  7  1  0  0  0  0
  6  2  1  0  0  0  0
  7  6  2  0  0  0  0
  8  4  1  0  0  0  0
  8 26  1  1  0  0  0
  9  3  1  0  0  0  0
  9  2  2  0  0  0  0
 10 14  1  0  0  0  0
 10 12  1  0  0  0  0
 11 16  1  1  0  0  0
 12 13  1  0  0  0  0
 13 11  1  0  0  0  0
 14 11  1  0  0  0  0
 14  1  1  1  0  0  0
 15 12  2  0  0  0  0
 17 21  2  0  0  0  0
 17 18  1  0  0  0  0
 18 20  2  0  0  0  0
 19  7  1  0  0  0  0
 19 22  2  0  0  0  0
 20 22  1  0  0  0  0
 21 19  1  0  0  0  0
 23 17  1  0  0  0  0
 25 24  1  0  0  0  0
 25  5  1  0  0  0  0
 26 27  1  0  0  0  0
 29 27  1  6  0  0  0
 29 30  1  0  0  0  0
 30 28  1  1  0  0  0
 30 34  1  0  0  0  0
 31 34  1  0  0  0  0
 32 31  1  0  0  0  0
 33 29  1  0  0  0  0
 33 32  1  0  0  0  0
M  END
>  <MODEL>
7

>  <REMARK>
 VINA RESULT:      -7.4      1.779      2.579
  Name = 
  6 active torsions:
  status: ('A' for Active; 'I' for Inactive)
    1  A    between atoms: C_3  and  C_13
    2  A    between atoms: C_3  and  O_17
    3  A    between atoms: C_4  and  C_15
    4  A    between atoms: C_12  and  C_28
    5  A    between atoms: O_17  and  C_29
    6  A    between atoms: C_21  and  C_32
                            x       y       z     vdW  Elec       q    Type
                         _______ _______ _______ _____ _____    ______ ____

>  <TORSDO>
F 6

$$$$
=
 OpenBabel10262423423D

 34 38  0  0  1  0  0  0  0  0999 V2000
  189.2360  177.6720  142.1850 C   0  0  0  0  0  0  0  0  0  0  0  0
  188.3070  178.2310  140.0420 C   0  0  0  0  0  0  0  0  0  0  0  0
  190.6070  177.5790  140.0050 C   0  0  0  0  0  2  0  0  0  0  0  0
  188.6170  178.3560  138.3000 S   0  0  0  0  0  0  0  0  0  0  0  0
  187.9660  177.9060  142.7650 C   0  0  0  0  0  0  0  0  0  0  0  0
  187.0860  178.4260  140.5960 N   0  0  0  0  0  0  0  0  0  0  0  0
  186.8730  178.2760  141.9310 C   0  0  0  0  0  0  0  0  0  0  0  0
  190.1520  177.3960  138.5550 C   0  0  2  0  0  3  0  0  0  0  0  0
  189.3770  177.8360  140.7990 C   0  0  0  0  0  0  0  0  0  0  0  0
  189.9440  176.4620  144.2080 N   0  0  0  0  0  2  0  0  0  0  0  0
  191.3420  178.3190  143.5600 C   0  0  1  0  0  3  0  0  0  0  0  0
  190.6780  176.9120  145.3250 C   0  0  0  0  0  0  0  0  0  0  0  0
  191.6210  178.0090  145.0270 C   0  0  0  0  0  2  0  0  0  0  0  0
  190.3880  177.2130  143.0510 C   0  0  2  0  0  3  0  0  0  0  0  0
  190.5250  176.4220  146.4730 O   0  0  0  0  0  0  0  0  0  0  0  0
  190.7780  179.5910  143.4610 O   0  0  0  0  0  1  0  0  0  0  0  0
  183.9250  178.9180  144.2530 C   0  0  0  0  0  0  0  0  0  0  0  0
  182.8600  178.8300  143.3590 C   0  0  0  0  0  3  0  0  0  0  0  0
  185.4950  178.5040  142.4390 C   0  0  0  0  0  0  0  0  0  0  0  0
  183.1030  178.5730  142.0090 C   0  0  0  0  0  3  0  0  0  0  0  0
  185.2350  178.7500  143.7960 C   0  0  0  0  0  3  0  0  0  0  0  0
  184.4120  178.4060  141.5540 C   0  0  0  0  0  3  0  0  0  0  0  0
  183.6850  179.1630  145.5960 O   0  0  0  0  0  1  0  0  0  0  0  0
  187.0990  176.5450  144.6350 C   0  0  0  0  0  1  0  0  0  0  0  0
  187.8160  177.8210  144.2550 C   0  0  0  0  0  2  0  0  0  0  0  0
  189.8870  176.0470  138.3220 O   0  0  0  0  0  0  0  0  0  0  0  0
  191.1420  175.4410  138.2260 C   0  0  0  0  0  2  0  0  0  0  0  0
  193.8510  176.9130  137.6950 O   0  0  0  0  0  1  0  0  0  0  0  0
  191.8350  175.8560  136.9350 C   0  0  1  0  0  3  0  0  0  0  0  0
  193.3620  175.7630  137.0720 C   0  0  1  0  0  3  0  0  0  0  0  0
  193.3020  176.1630  134.5750 C   0  0  0  0  0  2  0  0  0  0  0  0
  191.9140  175.5230  134.4300 C   0  0  0  0  0  2  0  0  0  0  0  0
  191.3250  175.0280  135.7570 C   0  0  0  0  0  2  0  0  0  0  0  0
  194.0840  175.5520  135.7350 C   0  0  0  0  0  2  0  0  0  0  0  0
  1  5  1  0  0  0  0
  2  6  2  0  0  0  0
  2  9  1  0  0  0  0
  3  9  1  0  0  0  0
  4  8  1  0  0  0  0
  4  2  1  0  0  0  0
  5 25  1  0  0  0  0
  6  7  1  0  0  0  0
  7 19  1  0  0  0  0
  7  5  2  0  0  0  0
  8 26  1  1  0  0  0
  8  3  1  0  0  0  0
  9  1  2  0  0  0  0
 10 12  1  0  0  0  0
 11 16  1  1  0  0  0
 11 13  1  0  0  0  0
 12 15  2  0  0  0  0
 13 12  1  0  0  0  0
 14  1  1  1  0  0  0
 14 11  1  0  0  0  0
 14 10  1  0  0  0  0
 17 23  1  0  0  0  0
 18 17  2  0  0  0  0
 19 21  2  0  0  0  0
 20 18  1  0  0  0  0
 21 17  1  0  0  0  0
 22 20  2  0  0  0  0
 22 19  1  0  0  0  0
 25 24  1  0  0  0  0
 27 26  1  0  0  0  0
 29 30  1  0  0  0  0
 29 27  1  1  0  0  0
 30 28  1  6  0  0  0
 31 34  1  0  0  0  0
 32 31  1  0  0  0  0
 32 33  1  0  0  0  0
 33 29  1  0  0  0  0
 34 30  1  0  0  0  0
M  END
>  <MODEL>
8

>  <REMARK>
 VINA RESULT:      -7.2      2.742      9.206
  Name = 
  6 active torsions:
  status: ('A' for Active; 'I' for Inactive)
    1  A    between atoms: C_3  and  C_13
    2  A    between atoms: C_3  and  O_17
    3  A    between atoms: C_4  and  C_15
    4  A    between atoms: C_12  and  C_28
    5  A    between atoms: O_17  and  C_29
    6  A    between atoms: C_21  and  C_32
                            x       y       z     vdW  Elec       q    Type
                         _______ _______ _______ _____ _____    ______ ____

>  <TORSDO>
F 6

$$$$
=
 OpenBabel10262423423D

 34 38  0  0  1  0  0  0  0  0999 V2000
  187.7100  178.1900  139.0010 C   0  0  0  0  0  0  0  0  0  0  0  0
  185.8850  178.5420  140.5220 C   0  0  0  0  0  0  0  0  0  0  0  0
  185.2750  178.4920  138.2120 C   0  0  0  0  0  2  0  0  0  0  0  0
  184.1340  178.7770  140.6780 S   0  0  0  0  0  0  0  0  0  0  0  0
  188.5790  178.0830  140.1130 C   0  0  0  0  0  0  0  0  0  0  0  0
  186.7150  178.4100  141.5850 N   0  0  0  0  0  0  0  0  0  0  0  0
  188.0470  178.1830  141.4300 C   0  0  0  0  0  0  0  0  0  0  0  0
  183.9560  178.2300  138.9420 C   0  0  2  0  0  3  0  0  0  0  0  0
  186.3450  178.4130  139.2400 C   0  0  0  0  0  0  0  0  0  0  0  0
  187.5480  178.8330  136.6310 N   0  0  0  0  0  2  0  0  0  0  0  0
  188.2780  176.5730  137.0510 C   0  0  1  0  0  3  0  0  0  0  0  0
  187.3080  178.0400  135.4890 C   0  0  0  0  0  0  0  0  0  0  0  0
  187.7800  176.6460  135.6110 C   0  0  0  0  0  2  0  0  0  0  0  0
  188.2530  178.0180  137.6000 C   0  0  2  0  0  3  0  0  0  0  0  0
  186.7320  178.4900  134.4670 O   0  0  0  0  0  0  0  0  0  0  0  0
  187.4510  175.7160  137.7770 O   0  0  0  0  0  1  0  0  0  0  0  0
  190.8240  178.6050  143.9990 C   0  0  0  0  0  0  0  0  0  0  0  0
  190.4420  177.6710  144.9600 C   0  0  0  0  0  3  0  0  0  0  0  0
  188.8700  178.0450  142.6600 C   0  0  0  0  0  0  0  0  0  0  0  0
  189.2820  176.9180  144.7750 C   0  0  0  0  0  3  0  0  0  0  0  0
  190.0470  178.7860  142.8530 C   0  0  0  0  0  3  0  0  0  0  0  0
  188.5040  177.1000  143.6290 C   0  0  0  0  0  3  0  0  0  0  0  0
  191.9820  179.3480  144.1780 O   0  0  0  0  0  1  0  0  0  0  0  0
  190.4530  176.4780  139.9900 C   0  0  0  0  0  1  0  0  0  0  0  0
  190.0530  177.9320  139.8780 C   0  0  0  0  0  2  0  0  0  0  0  0
  183.6820  176.8640  138.9230 O   0  0  0  0  0  0  0  0  0  0  0  0
  183.7450  176.4980  137.5770 C   0  0  0  0  0  2  0  0  0  0  0  0
  181.3770  174.5190  138.0950 O   0  0  0  0  0  1  0  0  0  0  0  0
  183.6350  174.9860  137.4310 C   0  0  1  0  0  3  0  0  0  0  0  0
  182.2240  174.5730  136.9860 C   0  0  1  0  0  3  0  0  0  0  0  0
  183.3120  172.3090  136.6930 C   0  0  0  0  0  2  0  0  0  0  0  0
  184.6930  172.9240  136.4210 C   0  0  0  0  0  2  0  0  0  0  0  0
  184.7030  174.4570  136.4750 C   0  0  0  0  0  2  0  0  0  0  0  0
  182.1860  173.2340  136.2400 C   0  0  0  0  0  2  0  0  0  0  0  0
  1  9  2  0  0  0  0
  1  5  1  0  0  0  0
  2  4  1  0  0  0  0
  2  6  2  0  0  0  0
  3  8  1  0  0  0  0
  3  9  1  0  0  0  0
  5  7  2  0  0  0  0
  7  6  1  0  0  0  0
  7 19  1  0  0  0  0
  8 26  1  1  0  0  0
  8  4  1  0  0  0  0
  9  2  1  0  0  0  0
 10 14  1  0  0  0  0
 11 14  1  0  0  0  0
 11 16  1  1  0  0  0
 12 13  1  0  0  0  0
 12 10  1  0  0  0  0
 13 11  1  0  0  0  0
 14  1  1  1  0  0  0
 15 12  2  0  0  0  0
 17 23  1  0  0  0  0
 17 18  1  0  0  0  0
 19 21  1  0  0  0  0
 19 22  2  0  0  0  0
 20 18  2  0  0  0  0
 21 17  2  0  0  0  0
 22 20  1  0  0  0  0
 25 24  1  0  0  0  0
 25  5  1  0  0  0  0
 27 26  1  0  0  0  0
 29 27  1  6  0  0  0
 30 29  1  0  0  0  0
 30 28  1  1  0  0  0
 32 33  1  0  0  0  0
 32 31  1  0  0  0  0
 33 29  1  0  0  0  0
 34 31  1  0  0  0  0
 34 30  1  0  0  0  0
M  END
>  <MODEL>
9

>  <REMARK>
 VINA RESULT:      -7.1      3.558      7.364
  Name = 
  6 active torsions:
  status: ('A' for Active; 'I' for Inactive)
    1  A    between atoms: C_3  and  C_13
    2  A    between atoms: C_3  and  O_17
    3  A    between atoms: C_4  and  C_15
    4  A    between atoms: C_12  and  C_28
    5  A    between atoms: O_17  and  C_29
    6  A    between atoms: C_21  and  C_32
                            x       y       z     vdW  Elec       q    Type
                         _______ _______ _______ _____ _____    ______ ____

>  <TORSDO>
F 6

$$$$
