=
 OpenBabel10272415113D

 34 38  0  0  1  0  0  0  0  0999 V2000
  185.0860  178.0720  139.6980 C   0  0  1  0  0  3  0  0  0  0  0  0
  187.9300  178.5990  137.0200 C   0  0  0  0  0  2  0  0  0  0  0  0
  190.3650  177.0150  138.4490 C   0  0  0  0  0  0  0  0  0  0  0  0
  185.6000  177.7230  136.7820 C   0  0  0  0  0  2  0  0  0  0  0  0
  182.0260  179.2180  138.4330 F   0  0  0  0  0  0  0  0  0  0  0  0
  182.7710  178.0640  138.5880 C   0  0  2  0  0  0  0  0  0  0  0  0
  190.8910  177.0100  137.1630 O   0  0  0  0  0  0  0  0  0  0  0  0
  182.3000  177.2530  139.7940 C   0  0  0  0  0  1  0  0  0  0  0  0
  184.4540  177.3000  137.6480 C   0  0  1  0  0  3  0  0  0  0  0  0
  184.2020  178.3670  138.5770 N   0  0  2  0  0  0  0  0  0  0  0  0
  182.7580  177.0570  137.0550 S   0  0  0  0  0  0  0  0  0  0  0  0
  189.0530  179.0980  137.9310 C   0  0  0  0  0  2  0  0  0  0  0  0
  190.6800  176.0940  139.2490 O   0  0  0  0  0  1  0  0  0  0  0  0
  189.4770  178.0610  138.8630 N   0  0  0  0  0  0  0  0  0  0  0  0
  188.8800  178.0630  140.1910 C   0  0  0  0  0  2  0  0  0  0  0  0
  186.8270  177.7940  137.7210 C   0  0  2  0  0  3  0  0  0  0  0  0
  187.4770  177.4700  140.1490 C   0  0  0  0  0  2  0  0  0  0  0  0
  186.5550  178.2450  139.2090 C   0  0  2  0  0  3  0  0  0  0  0  0
  184.4820  178.5470  142.0540 C   0  0  0  0  0  3  0  0  0  0  0  0
  184.8170  179.0050  140.8470 C   0  0  0  0  0  3  0  0  0  0  0  0
  184.1720  179.5000  143.1650 C   0  0  1  0  0  3  0  0  0  0  0  0
  184.6990  179.0580  144.5370 C   0  0  2  0  0  3  0  0  0  0  0  0
  185.4640  180.0730  143.7110 C   0  0  0  0  0  2  0  0  0  0  0  0
  185.3830  177.7700  144.4890 N   0  0  0  0  0  2  0  0  0  0  0  0
  186.7710  178.2590  147.1450 C   0  0  0  0  0  1  0  0  0  0  0  0
  189.5480  177.0040  144.9240 C   0  0  0  0  0  0  0  0  0  0  0  0
  188.8250  177.4920  146.0190 C   0  0  0  0  0  3  0  0  0  0  0  0
  187.4560  177.7570  145.9220 C   0  0  0  0  0  0  0  0  0  0  0  0
  187.5120  177.0380  143.6060 C   0  0  0  0  0  3  0  0  0  0  0  0
  186.7840  177.5290  144.6930 C   0  0  0  0  0  0  0  0  0  0  0  0
  188.8780  176.7770  143.7150 C   0  0  0  0  0  3  0  0  0  0  0  0
  190.9540  176.7410  145.0490 N   0  0  0  0  0  0  0  0  0  0  0  0
  191.6740  175.9660  144.0480 C   0  0  0  0  0  1  0  0  0  0  0  0
  191.6420  177.2140  146.1140 O   0  0  0  0  0  1  0  0  0  0  0  0
  1 20  1  1  0  0  0
  2 16  1  0  0  0  0
  2 12  1  0  0  0  0
  3 14  1  0  0  0  0
  3 13  1  0  0  0  0
  4 16  1  0  0  0  0
  5  6  1  0  0  0  0
  6  8  1  1  0  0  0
  7  3  2  0  0  0  0
  9  4  1  6  0  0  0
  9 10  1  0  0  0  0
 10  6  1  0  0  0  0
 10  1  1  0  0  0  0
 11  9  1  0  0  0  0
 11  6  1  0  0  0  0
 12 14  1  0  0  0  0
 14 15  1  0  0  0  0
 16 18  1  0  0  0  0
 17 15  1  0  0  0  0
 18  1  1  0  0  0  0
 18 17  1  0  0  0  0
 19 21  1  0  0  0  0
 20 19  2  0  0  0  0
 21 23  1  0  0  0  0
 21 22  1  0  0  0  0
 23 22  1  0  0  0  0
 24 22  1  0  0  0  0
 24 30  1  0  0  0  0
 26 32  1  0  0  0  0
 26 27  1  0  0  0  0
 28 27  2  0  0  0  0
 28 25  1  0  0  0  0
 29 31  1  0  0  0  0
 29 30  2  0  0  0  0
 30 28  1  0  0  0  0
 31 26  2  0  0  0  0
 32 34  1  0  0  0  0
 33 32  1  0  0  0  0
M  END
>  <MODEL>
1

>  <REMARK>
 VINA RESULT:      -8.1      0.000      0.000
  Name = 
  5 active torsions:
  status: ('A' for Active; 'I' for Inactive)
    1  A    between atoms: C_1  and  C_9
    2  A    between atoms: N_6  and  C_28
    3  A    between atoms: N_6  and  C_30
    4  A    between atoms: C_7  and  N_11
    5  A    between atoms: C_8  and  C_18
                            x       y       z     vdW  Elec       q    Type
                         _______ _______ _______ _____ _____    ______ ____

>  <TORSDO>
F 5

$$$$
=
 OpenBabel10272415113D

 34 38  0  0  1  0  0  0  0  0999 V2000
  185.8710  177.5820  137.2430 C   0  0  1  0  0  3  0  0  0  0  0  0
  182.9540  176.3460  139.5890 C   0  0  0  0  0  2  0  0  0  0  0  0
  181.3490  179.1240  140.0220 C   0  0  0  0  0  0  0  0  0  0  0  0
  183.7540  175.4870  137.3800 C   0  0  0  0  0  2  0  0  0  0  0  0
  187.7010  174.8370  136.0630 F   0  0  0  0  0  0  0  0  0  0  0  0
  186.6740  175.6900  135.7050 C   0  0  2  0  0  0  0  0  0  0  0  0
  180.3160  178.2720  140.3940 O   0  0  0  0  0  1  0  0  0  0  0  0
  187.1660  176.7910  134.7660 C   0  0  0  0  0  1  0  0  0  0  0  0
  184.6920  175.8830  136.2830 C   0  0  1  0  0  3  0  0  0  0  0  0
  185.9630  176.1710  136.8890 N   0  0  2  0  0  0  0  0  0  0  0  0
  185.2680  174.7660  134.9760 S   0  0  0  0  0  0  0  0  0  0  0  0
  183.0500  177.3970  140.6960 C   0  0  0  0  0  2  0  0  0  0  0  0
  181.0730  180.2530  139.5360 O   0  0  0  0  0  0  0  0  0  0  0  0
  182.7140  178.7230  140.1950 N   0  0  0  0  0  0  0  0  0  0  0  0
  183.8120  179.5820  139.7730 C   0  0  0  0  0  2  0  0  0  0  0  0
  183.5590  176.7580  138.2400 C   0  0  2  0  0  3  0  0  0  0  0  0
  184.3120  179.1740  138.3930 C   0  0  0  0  0  2  0  0  0  0  0  0
  184.8000  177.7260  138.3650 C   0  0  2  0  0  3  0  0  0  0  0  0
  187.6950  177.7250  138.9150 C   0  0  0  0  0  3  0  0  0  0  0  0
  187.1970  178.0950  137.7340 C   0  0  0  0  0  3  0  0  0  0  0  0
  188.9930  178.2900  139.3990 C   0  0  1  0  0  3  0  0  0  0  0  0
  189.3040  177.9780  140.8680 C   0  0  2  0  0  3  0  0  0  0  0  0
  189.9320  177.1580  139.7600 C   0  0  0  0  0  2  0  0  0  0  0  0
  188.2500  177.2060  141.5160 N   0  0  0  0  0  2  0  0  0  0  0  0
  189.4030  176.8780  144.3060 C   0  0  0  0  0  1  0  0  0  0  0  0
  185.9710  178.3080  144.9400 C   0  0  0  0  0  0  0  0  0  0  0  0
  187.2580  177.7840  145.1150 C   0  0  0  0  0  3  0  0  0  0  0  0
  188.0420  177.4100  144.0190 C   0  0  0  0  0  0  0  0  0  0  0  0
  186.2440  178.0870  142.5390 C   0  0  0  0  0  3  0  0  0  0  0  0
  187.5280  177.5610  142.7060 C   0  0  0  0  0  0  0  0  0  0  0  0
  185.4700  178.4580  143.6400 C   0  0  0  0  0  3  0  0  0  0  0  0
  185.1860  178.6840  146.0810 N   0  0  0  0  0  0  0  0  0  0  0  0
  185.7800  178.8140  147.4030 C   0  0  0  0  0  1  0  0  0  0  0  0
  183.8610  178.9270  145.9450 O   0  0  0  0  0  1  0  0  0  0  0  0
  1 20  1  1  0  0  0
  1 18  1  0  0  0  0
  2 12  1  0  0  0  0
  3 14  1  0  0  0  0
  3  7  1  0  0  0  0
  4 16  1  0  0  0  0
  6  8  1  6  0  0  0
  6  5  1  0  0  0  0
  6 10  1  0  0  0  0
  9 10  1  0  0  0  0
  9  4  1  1  0  0  0
 10  1  1  0  0  0  0
 11  6  1  0  0  0  0
 11  9  1  0  0  0  0
 13  3  2  0  0  0  0
 14 12  1  0  0  0  0
 15 14  1  0  0  0  0
 16 18  1  0  0  0  0
 16  2  1  0  0  0  0
 17 15  1  0  0  0  0
 18 17  1  0  0  0  0
 19 21  1  0  0  0  0
 20 19  2  0  0  0  0
 21 23  1  0  0  0  0
 21 22  1  0  0  0  0
 22 24  1  0  0  0  0
 23 22  1  0  0  0  0
 24 30  1  0  0  0  0
 26 27  1  0  0  0  0
 26 32  1  0  0  0  0
 28 25  1  0  0  0  0
 28 27  2  0  0  0  0
 29 30  2  0  0  0  0
 29 31  1  0  0  0  0
 30 28  1  0  0  0  0
 31 26  2  0  0  0  0
 32 33  1  0  0  0  0
 34 32  1  0  0  0  0
M  END
>  <MODEL>
2

>  <REMARK>
 VINA RESULT:      -8.0      3.601      5.649
  Name = 
  5 active torsions:
  status: ('A' for Active; 'I' for Inactive)
    1  A    between atoms: C_1  and  C_9
    2  A    between atoms: N_6  and  C_28
    3  A    between atoms: N_6  and  C_30
    4  A    between atoms: C_7  and  N_11
    5  A    between atoms: C_8  and  C_18
                            x       y       z     vdW  Elec       q    Type
                         _______ _______ _______ _____ _____    ______ ____

>  <TORSDO>
F 5

$$$$
=
 OpenBabel10272415113D

 34 38  0  0  1  0  0  0  0  0999 V2000
  188.1780  177.6500  145.3950 C   0  0  1  0  0  3  0  0  0  0  0  0
  184.8570  179.7370  144.9930 C   0  0  0  0  0  2  0  0  0  0  0  0
  183.6410  178.3730  142.3220 C   0  0  0  0  0  0  0  0  0  0  0  0
  185.7720  178.4780  146.9510 C   0  0  0  0  0  2  0  0  0  0  0  0
  189.7060  178.4130  148.4540 F   0  0  0  0  0  0  0  0  0  0  0  0
  188.8660  177.4880  147.8630 C   0  0  2  0  0  0  0  0  0  0  0  0
  182.4580  178.9430  142.7740 O   0  0  0  0  0  1  0  0  0  0  0  0
  189.6200  176.2190  147.4710 C   0  0  0  0  0  1  0  0  0  0  0  0
  186.8800  177.5210  147.2650 C   0  0  1  0  0  3  0  0  0  0  0  0
  188.1000  178.1030  146.7780 N   0  0  2  0  0  0  0  0  0  0  0  0
  187.4320  177.1100  148.9430 S   0  0  0  0  0  0  0  0  0  0  0  0
  184.9790  180.1330  143.5210 C   0  0  0  0  0  2  0  0  0  0  0  0
  183.5930  177.3310  141.6140 O   0  0  0  0  0  0  0  0  0  0  0  0
  184.9030  178.9670  142.6520 N   0  0  0  0  0  0  0  0  0  0  0  0
  186.1570  178.3620  142.2250 C   0  0  0  0  0  2  0  0  0  0  0  0
  185.6690  178.5020  145.4080 C   0  0  2  0  0  3  0  0  0  0  0  0
  186.7480  177.5090  143.3400 C   0  0  0  0  0  2  0  0  0  0  0  0
  187.0160  178.3240  144.6050 C   0  0  2  0  0  3  0  0  0  0  0  0
  190.2880  177.1200  144.2100 C   0  0  0  0  0  3  0  0  0  0  0  0
  189.4980  178.0290  144.7840 C   0  0  0  0  0  3  0  0  0  0  0  0
  191.6190  177.5180  143.6540 C   0  0  1  0  0  3  0  0  0  0  0  0
  191.7370  177.3570  142.1330 C   0  0  2  0  0  3  0  0  0  0  0  0
  191.4460  178.7140  142.7410 C   0  0  0  0  0  2  0  0  0  0  0  0
  190.5240  176.8180  141.5270 N   0  0  0  0  0  2  0  0  0  0  0  0
  191.8400  176.1630  138.8700 C   0  0  0  0  0  1  0  0  0  0  0  0
  188.6980  177.9910  137.8640 C   0  0  0  0  0  0  0  0  0  0  0  0
  189.9190  177.3050  137.8310 C   0  0  0  0  0  3  0  0  0  0  0  0
  190.5540  176.9000  139.0090 C   0  0  0  0  0  0  0  0  0  0  0  0
  188.7340  177.8700  140.2870 C   0  0  0  0  0  3  0  0  0  0  0  0
  189.9540  177.1880  140.2620 C   0  0  0  0  0  0  0  0  0  0  0  0
  188.1100  178.2690  139.1040 C   0  0  0  0  0  3  0  0  0  0  0  0
  188.0670  178.3960  136.6400 N   0  0  0  0  0  0  0  0  0  0  0  0
  188.1860  177.6050  135.4250 C   0  0  0  0  0  1  0  0  0  0  0  0
  187.3400  179.5380  136.5960 O   0  0  0  0  0  1  0  0  0  0  0  0
  1 20  1  6  0  0  0
  1 10  1  0  0  0  0
  2 16  1  0  0  0  0
  3 14  1  0  0  0  0
  3  7  1  0  0  0  0
  6  8  1  6  0  0  0
  6  5  1  0  0  0  0
  6 11  1  0  0  0  0
  9  4  1  1  0  0  0
  9 11  1  0  0  0  0
 10  9  1  0  0  0  0
 10  6  1  0  0  0  0
 12  2  1  0  0  0  0
 13  3  2  0  0  0  0
 14 12  1  0  0  0  0
 15 14  1  0  0  0  0
 15 17  1  0  0  0  0
 16  4  1  0  0  0  0
 17 18  1  0  0  0  0
 18  1  1  0  0  0  0
 18 16  1  0  0  0  0
 19 20  2  0  0  0  0
 21 19  1  0  0  0  0
 22 23  1  0  0  0  0
 22 21  1  0  0  0  0
 23 21  1  0  0  0  0
 24 22  1  0  0  0  0
 25 28  1  0  0  0  0
 26 31  1  0  0  0  0
 27 26  2  0  0  0  0
 27 28  1  0  0  0  0
 28 30  2  0  0  0  0
 30 29  1  0  0  0  0
 30 24  1  0  0  0  0
 31 29  2  0  0  0  0
 32 26  1  0  0  0  0
 33 32  1  0  0  0  0
 34 32  1  0  0  0  0
M  END
>  <MODEL>
3

>  <REMARK>
 VINA RESULT:      -7.7      4.146      8.199
  Name = 
  5 active torsions:
  status: ('A' for Active; 'I' for Inactive)
    1  A    between atoms: C_1  and  C_9
    2  A    between atoms: N_6  and  C_28
    3  A    between atoms: N_6  and  C_30
    4  A    between atoms: C_7  and  N_11
    5  A    between atoms: C_8  and  C_18
                            x       y       z     vdW  Elec       q    Type
                         _______ _______ _______ _____ _____    ______ ____

>  <TORSDO>
F 5

$$$$
=
 OpenBabel10272415113D

 34 38  0  0  1  0  0  0  0  0999 V2000
  185.5970  177.1740  137.1890 C   0  0  1  0  0  3  0  0  0  0  0  0
  182.8230  176.6360  139.9390 C   0  0  0  0  0  2  0  0  0  0  0  0
  181.2590  179.4630  139.7370 C   0  0  0  0  0  0  0  0  0  0  0  0
  183.4840  175.2250  137.9820 C   0  0  0  0  0  2  0  0  0  0  0  0
  187.3400  174.1840  136.6490 F   0  0  0  0  0  0  0  0  0  0  0  0
  186.2970  174.9360  136.1440 C   0  0  2  0  0  0  0  0  0  0  0  0
  180.2470  178.7540  140.3740 O   0  0  0  0  0  1  0  0  0  0  0  0
  186.7340  175.7510  134.9270 C   0  0  0  0  0  1  0  0  0  0  0  0
  184.3550  175.3090  136.7670 C   0  0  1  0  0  3  0  0  0  0  0  0
  185.6610  175.7180  137.2040 N   0  0  2  0  0  0  0  0  0  0  0  0
  184.8450  173.8830  135.7600 S   0  0  0  0  0  0  0  0  0  0  0  0
  182.9910  177.9330  140.7310 C   0  0  0  0  0  2  0  0  0  0  0  0
  180.9580  180.4350  138.9950 O   0  0  0  0  0  0  0  0  0  0  0  0
  182.6300  179.0930  139.9280 N   0  0  0  0  0  0  0  0  0  0  0  0
  183.7030  179.7950  139.2360 C   0  0  0  0  0  2  0  0  0  0  0  0
  183.3460  176.6780  138.4960 C   0  0  2  0  0  3  0  0  0  0  0  0
  184.1160  179.0370  137.9800 C   0  0  0  0  0  2  0  0  0  0  0  0
  184.5960  177.6210  138.2970 C   0  0  2  0  0  3  0  0  0  0  0  0
  187.5130  177.7180  138.6630 C   0  0  0  0  0  3  0  0  0  0  0  0
  186.9520  177.7700  137.4540 C   0  0  0  0  0  3  0  0  0  0  0  0
  188.8410  178.3630  138.9080 C   0  0  1  0  0  3  0  0  0  0  0  0
  189.3470  178.2280  140.3500 C   0  0  2  0  0  3  0  0  0  0  0  0
  189.8580  177.3000  139.2670 C   0  0  0  0  0  2  0  0  0  0  0  0
  188.4120  177.5110  141.2110 N   0  0  0  0  0  2  0  0  0  0  0  0
  185.9720  177.9680  142.9610 C   0  0  0  0  0  1  0  0  0  0  0  0
  188.7050  177.2180  145.4480 C   0  0  0  0  0  0  0  0  0  0  0  0
  187.4700  177.5350  144.8690 C   0  0  0  0  0  3  0  0  0  0  0  0
  187.3280  177.6410  143.4820 C   0  0  0  0  0  0  0  0  0  0  0  0
  189.6800  177.1050  143.2290 C   0  0  0  0  0  3  0  0  0  0  0  0
  188.4520  177.4250  142.6440 C   0  0  0  0  0  0  0  0  0  0  0  0
  189.8100  177.0010  144.6150 C   0  0  0  0  0  3  0  0  0  0  0  0
  188.8260  177.1150  146.8750 N   0  0  0  0  0  0  0  0  0  0  0  0
  187.7800  177.6010  147.7630 C   0  0  0  0  0  1  0  0  0  0  0  0
  189.9310  176.5590  147.4260 O   0  0  0  0  0  1  0  0  0  0  0  0
  1 10  1  0  0  0  0
  1 20  1  1  0  0  0
  1 18  1  0  0  0  0
  2 12  1  0  0  0  0
  3 14  1  0  0  0  0
  3  7  1  0  0  0  0
  4 16  1  0  0  0  0
  6  8  1  6  0  0  0
  6  5  1  0  0  0  0
  6 10  1  0  0  0  0
  9 10  1  0  0  0  0
  9  4  1  1  0  0  0
 11  6  1  0  0  0  0
 11  9  1  0  0  0  0
 13  3  2  0  0  0  0
 14 12  1  0  0  0  0
 15 14  1  0  0  0  0
 16  2  1  0  0  0  0
 17 18  1  0  0  0  0
 17 15  1  0  0  0  0
 18 16  1  0  0  0  0
 19 21  1  0  0  0  0
 20 19  2  0  0  0  0
 21 23  1  0  0  0  0
 21 22  1  0  0  0  0
 22 24  1  0  0  0  0
 23 22  1  0  0  0  0
 24 30  1  0  0  0  0
 25 28  1  0  0  0  0
 26 32  1  0  0  0  0
 27 26  1  0  0  0  0
 28 27  2  0  0  0  0
 29 31  1  0  0  0  0
 30 29  2  0  0  0  0
 30 28  1  0  0  0  0
 31 26  2  0  0  0  0
 32 34  1  0  0  0  0
 32 33  1  0  0  0  0
M  END
>  <MODEL>
4

>  <REMARK>
 VINA RESULT:      -7.5      3.427      5.390
  Name = 
  5 active torsions:
  status: ('A' for Active; 'I' for Inactive)
    1  A    between atoms: C_1  and  C_9
    2  A    between atoms: N_6  and  C_28
    3  A    between atoms: N_6  and  C_30
    4  A    between atoms: C_7  and  N_11
    5  A    between atoms: C_8  and  C_18
                            x       y       z     vdW  Elec       q    Type
                         _______ _______ _______ _____ _____    ______ ____

>  <TORSDO>
F 5

$$$$
=
 OpenBabel10272415113D

 34 38  0  0  1  0  0  0  0  0999 V2000
  189.7310  174.7800  136.9300 C   0  0  1  0  0  3  0  0  0  0  0  0
  193.1890  174.4340  135.0690 C   0  0  0  0  0  2  0  0  0  0  0  0
  195.2160  174.6110  137.5870 C   0  0  0  0  0  0  0  0  0  0  0  0
  191.1360  173.0100  134.9850 C   0  0  0  0  0  2  0  0  0  0  0  0
  187.1040  174.1890  134.6880 F   0  0  0  0  0  0  0  0  0  0  0  0
  187.8740  173.5570  135.6470 C   0  0  2  0  0  0  0  0  0  0  0  0
  196.1050  174.0240  136.6950 O   0  0  0  0  0  0  0  0  0  0  0  0
  187.1390  173.4690  136.9840 C   0  0  0  0  0  1  0  0  0  0  0  0
  189.8270  172.8640  135.6980 C   0  0  1  0  0  3  0  0  0  0  0  0
  189.2050  174.1590  135.7210 N   0  0  2  0  0  0  0  0  0  0  0  0
  188.4220  171.9040  135.0720 S   0  0  0  0  0  0  0  0  0  0  0  0
  193.9300  175.6260  135.6790 C   0  0  0  0  0  2  0  0  0  0  0  0
  195.3600  174.4110  138.8230 O   0  0  0  0  0  1  0  0  0  0  0  0
  194.1490  175.4380  137.1060 N   0  0  0  0  0  0  0  0  0  0  0  0
  193.1800  176.0270  138.0210 C   0  0  0  0  0  2  0  0  0  0  0  0
  192.0080  173.9060  135.8950 C   0  0  2  0  0  3  0  0  0  0  0  0
  191.9200  175.1730  138.0880 C   0  0  0  0  0  2  0  0  0  0  0  0
  191.2550  175.0220  136.7200 C   0  0  2  0  0  3  0  0  0  0  0  0
  188.7240  176.4670  138.4400 C   0  0  0  0  0  3  0  0  0  0  0  0
  189.0390  176.0870  137.2010 C   0  0  0  0  0  3  0  0  0  0  0  0
  187.9910  177.7500  138.6750 C   0  0  1  0  0  3  0  0  0  0  0  0
  188.0760  178.2660  140.1170 C   0  0  2  0  0  3  0  0  0  0  0  0
  188.9820  178.8350  139.0440 C   0  0  0  0  0  2  0  0  0  0  0  0
  188.8410  177.3810  140.9890 N   0  0  0  0  0  2  0  0  0  0  0  0
  191.3720  177.4280  142.6670 C   0  0  0  0  0  1  0  0  0  0  0  0
  188.6170  177.3130  145.2400 C   0  0  0  0  0  0  0  0  0  0  0  0
  189.8740  177.3500  144.6220 C   0  0  0  0  0  3  0  0  0  0  0  0
  189.9940  177.3740  143.2290 C   0  0  0  0  0  0  0  0  0  0  0  0
  187.5760  177.3270  143.0490 C   0  0  0  0  0  3  0  0  0  0  0  0
  188.8260  177.3600  142.4250 C   0  0  0  0  0  0  0  0  0  0  0  0
  187.4670  177.3030  144.4400 C   0  0  0  0  0  3  0  0  0  0  0  0
  188.5200  177.2880  146.6720 N   0  0  0  0  0  0  0  0  0  0  0  0
  187.4820  178.0270  147.3760 C   0  0  0  0  0  1  0  0  0  0  0  0
  189.4040  176.5670  147.4010 O   0  0  0  0  0  1  0  0  0  0  0  0
  1 20  1  6  0  0  0
  2 12  1  0  0  0  0
  2 16  1  0  0  0  0
  3 13  1  0  0  0  0
  4 16  1  0  0  0  0
  5  6  1  0  0  0  0
  6 10  1  0  0  0  0
  6  8  1  1  0  0  0
  7  3  2  0  0  0  0
  9  4  1  6  0  0  0
  9 10  1  0  0  0  0
 10  1  1  0  0  0  0
 11  6  1  0  0  0  0
 11  9  1  0  0  0  0
 12 14  1  0  0  0  0
 14  3  1  0  0  0  0
 14 15  1  0  0  0  0
 15 17  1  0  0  0  0
 16 18  1  0  0  0  0
 18  1  1  0  0  0  0
 18 17  1  0  0  0  0
 19 21  1  0  0  0  0
 20 19  2  0  0  0  0
 21 23  1  0  0  0  0
 21 22  1  0  0  0  0
 22 24  1  0  0  0  0
 23 22  1  0  0  0  0
 24 30  1  0  0  0  0
 25 28  1  0  0  0  0
 26 32  1  0  0  0  0
 27 26  1  0  0  0  0
 28 27  2  0  0  0  0
 29 31  1  0  0  0  0
 30 29  2  0  0  0  0
 30 28  1  0  0  0  0
 31 26  2  0  0  0  0
 32 33  1  0  0  0  0
 32 34  1  0  0  0  0
M  END
>  <MODEL>
5

>  <REMARK>
 VINA RESULT:      -7.2      3.886      5.705
  Name = 
  5 active torsions:
  status: ('A' for Active; 'I' for Inactive)
    1  A    between atoms: C_1  and  C_9
    2  A    between atoms: N_6  and  C_28
    3  A    between atoms: N_6  and  C_30
    4  A    between atoms: C_7  and  N_11
    5  A    between atoms: C_8  and  C_18
                            x       y       z     vdW  Elec       q    Type
                         _______ _______ _______ _____ _____    ______ ____

>  <TORSDO>
F 5

$$$$
=
 OpenBabel10272415113D

 34 38  0  0  1  0  0  0  0  0999 V2000
  185.9580  178.5650  142.8630 C   0  0  1  0  0  3  0  0  0  0  0  0
  188.8110  176.0590  143.9230 C   0  0  0  0  0  2  0  0  0  0  0  0
  191.2890  177.2550  142.2180 C   0  0  0  0  0  0  0  0  0  0  0  0
  187.2350  177.4240  145.3040 C   0  0  0  0  0  2  0  0  0  0  0  0
  183.0940  178.0060  144.8020 F   0  0  0  0  0  0  0  0  0  0  0  0
  184.2150  178.8120  144.7310 C   0  0  2  0  0  0  0  0  0  0  0  0
  192.0460  176.5330  143.1330 O   0  0  0  0  0  1  0  0  0  0  0  0
  183.8860  180.1710  144.1140 C   0  0  0  0  0  1  0  0  0  0  0  0
  186.2290  178.5190  145.1260 C   0  0  1  0  0  3  0  0  0  0  0  0
  185.3230  178.1040  144.0910 N   0  0  2  0  0  0  0  0  0  0  0  0
  185.0050  178.9960  146.3760 S   0  0  0  0  0  0  0  0  0  0  0  0
  189.3510  175.6840  142.5420 C   0  0  0  0  0  2  0  0  0  0  0  0
  191.7840  178.2820  141.6830 O   0  0  0  0  0  0  0  0  0  0  0  0
  189.9610  176.8320  141.8840 N   0  0  0  0  0  0  0  0  0  0  0  0
  189.1350  177.5980  140.9610 C   0  0  0  0  0  2  0  0  0  0  0  0
  188.0490  177.3900  143.9890 C   0  0  2  0  0  3  0  0  0  0  0  0
  188.1920  178.5200  141.7250 C   0  0  0  0  0  2  0  0  0  0  0  0
  187.2680  177.7460  142.6640 C   0  0  2  0  0  3  0  0  0  0  0  0
  185.0560  179.2020  140.6450 C   0  0  0  0  0  3  0  0  0  0  0  0
  185.0470  178.3660  141.6840 C   0  0  0  0  0  3  0  0  0  0  0  0
  184.1020  179.0060  139.5080 C   0  0  1  0  0  3  0  0  0  0  0  0
  184.7620  178.5140  138.2140 C   0  0  2  0  0  3  0  0  0  0  0  0
  184.0590  177.5390  139.1350 C   0  0  0  0  0  2  0  0  0  0  0  0
  186.2070  178.3590  138.3410 N   0  0  0  0  0  2  0  0  0  0  0  0
  188.9790  179.2610  137.4880 C   0  0  0  0  0  1  0  0  0  0  0  0
  188.6240  175.8740  135.8690 C   0  0  0  0  0  0  0  0  0  0  0  0
  189.1190  177.1180  136.2800 C   0  0  0  0  0  3  0  0  0  0  0  0
  188.3600  177.9660  137.0920 C   0  0  0  0  0  0  0  0  0  0  0  0
  186.5800  176.3180  137.0990 C   0  0  0  0  0  3  0  0  0  0  0  0
  187.0650  177.5630  137.5090 C   0  0  0  0  0  0  0  0  0  0  0  0
  187.3460  175.4800  136.2880 C   0  0  0  0  0  3  0  0  0  0  0  0
  189.4220  175.0210  135.0340 N   0  0  0  0  0  0  0  0  0  0  0  0
  188.9600  173.6990  134.6360 C   0  0  0  0  0  1  0  0  0  0  0  0
  190.6340  175.4380  134.5990 O   0  0  0  0  0  1  0  0  0  0  0  0
  1 20  1  6  0  0  0
  1 10  1  0  0  0  0
  2 16  1  0  0  0  0
  3  7  1  0  0  0  0
  6  8  1  6  0  0  0
  6  5  1  0  0  0  0
  6 11  1  0  0  0  0
  9  4  1  1  0  0  0
  9 11  1  0  0  0  0
 10  6  1  0  0  0  0
 10  9  1  0  0  0  0
 12  2  1  0  0  0  0
 13  3  2  0  0  0  0
 14  3  1  0  0  0  0
 14 12  1  0  0  0  0
 15 17  1  0  0  0  0
 15 14  1  0  0  0  0
 16  4  1  0  0  0  0
 17 18  1  0  0  0  0
 18  1  1  0  0  0  0
 18 16  1  0  0  0  0
 19 20  2  0  0  0  0
 21 19  1  0  0  0  0
 22 24  1  0  0  0  0
 22 23  1  0  0  0  0
 22 21  1  0  0  0  0
 23 21  1  0  0  0  0
 26 27  2  0  0  0  0
 26 31  1  0  0  0  0
 27 28  1  0  0  0  0
 28 25  1  0  0  0  0
 28 30  2  0  0  0  0
 29 30  1  0  0  0  0
 30 24  1  0  0  0  0
 31 29  2  0  0  0  0
 32 26  1  0  0  0  0
 33 32  1  0  0  0  0
 34 32  1  0  0  0  0
M  END
>  <MODEL>
6

>  <REMARK>
 VINA RESULT:      -7.1      2.909      6.839
  Name = 
  5 active torsions:
  status: ('A' for Active; 'I' for Inactive)
    1  A    between atoms: C_1  and  C_9
    2  A    between atoms: N_6  and  C_28
    3  A    between atoms: N_6  and  C_30
    4  A    between atoms: C_7  and  N_11
    5  A    between atoms: C_8  and  C_18
                            x       y       z     vdW  Elec       q    Type
                         _______ _______ _______ _____ _____    ______ ____

>  <TORSDO>
F 5

$$$$
=
 OpenBabel10272415113D

 34 38  0  0  1  0  0  0  0  0999 V2000
  191.6290  176.2280  137.4370 C   0  0  1  0  0  3  0  0  0  0  0  0
  188.1240  174.5670  136.7320 C   0  0  0  0  0  2  0  0  0  0  0  0
  186.5240  177.1000  135.5060 C   0  0  0  0  0  0  0  0  0  0  0  0
  190.4300  173.8710  136.0590 C   0  0  0  0  0  2  0  0  0  0  0  0
  193.9490  173.7740  138.3710 F   0  0  0  0  0  0  0  0  0  0  0  0
  193.5150  174.4940  137.2740 C   0  0  2  0  0  0  0  0  0  0  0  0
  185.6840  176.1110  135.0080 O   0  0  0  0  0  1  0  0  0  0  0  0
  194.4430  175.6710  136.9750 C   0  0  0  0  0  1  0  0  0  0  0  0
  191.8260  174.4120  136.0730 C   0  0  1  0  0  3  0  0  0  0  0  0
  192.1030  174.8500  137.4130 N   0  0  2  0  0  0  0  0  0  0  0  0
  193.3140  173.4100  135.8080 S   0  0  0  0  0  0  0  0  0  0  0  0
  187.2120  175.5960  137.4020 C   0  0  0  0  0  2  0  0  0  0  0  0
  186.6230  178.1930  134.8890 O   0  0  0  0  0  0  0  0  0  0  0  0
  187.2660  176.8770  136.7120 N   0  0  0  0  0  0  0  0  0  0  0  0
  188.1850  177.8830  137.2280 C   0  0  0  0  0  2  0  0  0  0  0  0
  189.5110  175.0860  136.3280 C   0  0  2  0  0  3  0  0  0  0  0  0
  189.6140  177.5750  136.7960 C   0  0  0  0  0  2  0  0  0  0  0  0
  190.0790  176.2040  137.2870 C   0  0  2  0  0  3  0  0  0  0  0  0
  191.2470  176.7920  139.8190 C   0  0  0  0  0  3  0  0  0  0  0  0
  192.0070  176.8990  138.7280 C   0  0  0  0  0  3  0  0  0  0  0  0
  191.6240  177.5110  141.0770 C   0  0  1  0  0  3  0  0  0  0  0  0
  190.4320  177.8720  141.9730 C   0  0  2  0  0  3  0  0  0  0  0  0
  191.2760  176.6500  142.2730 C   0  0  0  0  0  2  0  0  0  0  0  0
  189.1530  177.4610  141.4040 N   0  0  0  0  0  2  0  0  0  0  0  0
  188.1670  176.7280  144.1810 C   0  0  0  0  0  1  0  0  0  0  0  0
  185.2410  178.5650  142.6680 C   0  0  0  0  0  0  0  0  0  0  0  0
  186.0670  177.8520  143.5460 C   0  0  0  0  0  3  0  0  0  0  0  0
  187.3590  177.4700  143.1730 C   0  0  0  0  0  0  0  0  0  0  0  0
  187.0160  178.5220  141.0150 C   0  0  0  0  0  3  0  0  0  0  0  0
  187.8450  177.8070  141.8840 C   0  0  0  0  0  0  0  0  0  0  0  0
  185.7280  178.8990  141.3980 C   0  0  0  0  0  3  0  0  0  0  0  0
  183.9170  178.9460  143.0750 N   0  0  0  0  0  0  0  0  0  0  0  0
  183.6550  179.4850  144.4010 C   0  0  0  0  0  1  0  0  0  0  0  0
  182.8770  178.8070  142.2190 O   0  0  0  0  0  1  0  0  0  0  0  0
  1 20  1  1  0  0  0
  2 12  1  0  0  0  0
  3 14  1  0  0  0  0
  4 16  1  0  0  0  0
  6  8  1  6  0  0  0
  6 10  1  0  0  0  0
  6  5  1  0  0  0  0
  7  3  1  0  0  0  0
  9  4  1  1  0  0  0
  9 10  1  0  0  0  0
 10  1  1  0  0  0  0
 11  9  1  0  0  0  0
 11  6  1  0  0  0  0
 13  3  2  0  0  0  0
 14 15  1  0  0  0  0
 14 12  1  0  0  0  0
 16  2  1  0  0  0  0
 16 18  1  0  0  0  0
 17 15  1  0  0  0  0
 17 18  1  0  0  0  0
 18  1  1  0  0  0  0
 19 21  1  0  0  0  0
 20 19  2  0  0  0  0
 21 22  1  0  0  0  0
 21 23  1  0  0  0  0
 22 23  1  0  0  0  0
 24 30  1  0  0  0  0
 24 22  1  0  0  0  0
 26 32  1  0  0  0  0
 26 27  1  0  0  0  0
 28 27  2  0  0  0  0
 28 25  1  0  0  0  0
 29 31  1  0  0  0  0
 29 30  2  0  0  0  0
 30 28  1  0  0  0  0
 31 26  2  0  0  0  0
 32 33  1  0  0  0  0
 34 32  1  0  0  0  0
M  END
>  <MODEL>
7

>  <REMARK>
 VINA RESULT:      -7.0      4.265      6.939
  Name = 
  5 active torsions:
  status: ('A' for Active; 'I' for Inactive)
    1  A    between atoms: C_1  and  C_9
    2  A    between atoms: N_6  and  C_28
    3  A    between atoms: N_6  and  C_30
    4  A    between atoms: C_7  and  N_11
    5  A    between atoms: C_8  and  C_18
                            x       y       z     vdW  Elec       q    Type
                         _______ _______ _______ _____ _____    ______ ____

>  <TORSDO>
F 5

$$$$
=
 OpenBabel10272415113D

 34 38  0  0  1  0  0  0  0  0999 V2000
  184.5690  178.2940  141.1780 C   0  0  1  0  0  3  0  0  0  0  0  0
  181.3120  179.0960  139.1070 C   0  0  0  0  0  2  0  0  0  0  0  0
  181.3220  176.6080  137.0360 C   0  0  0  0  0  0  0  0  0  0  0  0
  181.6770  178.9030  141.5740 C   0  0  0  0  0  2  0  0  0  0  0  0
  184.8070  180.4640  143.9180 F   0  0  0  0  0  0  0  0  0  0  0  0
  184.3770  179.1970  143.5740 C   0  0  2  0  0  0  0  0  0  0  0  0
  179.9820  176.9450  136.8890 O   0  0  0  0  0  1  0  0  0  0  0  0
  185.4070  178.1350  143.9550 C   0  0  0  0  0  1  0  0  0  0  0  0
  182.7410  178.4640  142.5310 C   0  0  1  0  0  3  0  0  0  0  0  0
  183.9490  179.1570  142.1760 N   0  0  2  0  0  0  0  0  0  0  0  0
  182.7350  178.8320  144.3060 S   0  0  0  0  0  0  0  0  0  0  0  0
  181.8720  178.9740  137.6890 C   0  0  0  0  0  2  0  0  0  0  0  0
  181.6830  175.4170  136.8410 O   0  0  0  0  0  0  0  0  0  0  0  0
  182.2830  177.6070  137.3990 N   0  0  0  0  0  0  0  0  0  0  0  0
  183.6850  177.2680  137.6000 C   0  0  0  0  0  2  0  0  0  0  0  0
  182.1110  178.3600  140.1920 C   0  0  2  0  0  3  0  0  0  0  0  0
  183.9780  177.0550  139.0800 C   0  0  0  0  0  2  0  0  0  0  0  0
  183.6630  178.2990  139.9110 C   0  0  2  0  0  3  0  0  0  0  0  0
  187.0400  178.2410  141.3510 C   0  0  0  0  0  3  0  0  0  0  0  0
  185.9440  178.7900  140.8260 C   0  0  0  0  0  3  0  0  0  0  0  0
  188.3930  178.7880  141.0190 C   0  0  1  0  0  3  0  0  0  0  0  0
  189.4610  178.5070  142.0840 C   0  0  2  0  0  3  0  0  0  0  0  0
  189.3690  177.6430  140.8420 C   0  0  0  0  0  2  0  0  0  0  0  0
  188.9350  177.7770  143.2320 N   0  0  0  0  0  2  0  0  0  0  0  0
  187.5830  177.6300  145.9480 C   0  0  0  0  0  1  0  0  0  0  0  0
  191.1750  176.7680  146.7100 C   0  0  0  0  0  0  0  0  0  0  0  0
  189.8060  177.0390  146.8330 C   0  0  0  0  0  3  0  0  0  0  0  0
  189.0320  177.3740  145.7180 C   0  0  0  0  0  0  0  0  0  0  0  0
  191.0050  177.1660  144.3220 C   0  0  0  0  0  3  0  0  0  0  0  0
  189.6400  177.4420  144.4380 C   0  0  0  0  0  0  0  0  0  0  0  0
  191.7680  176.8330  145.4420 C   0  0  0  0  0  3  0  0  0  0  0  0
  191.9490  176.4270  147.8700 N   0  0  0  0  0  0  0  0  0  0  0  0
  192.3160  175.0490  148.1600 C   0  0  0  0  0  1  0  0  0  0  0  0
  192.3530  177.3950  148.7260 O   0  0  0  0  0  1  0  0  0  0  0  0
  1 20  1  6  0  0  0
  1 10  1  0  0  0  0
  2 16  1  0  0  0  0
  3 14  1  0  0  0  0
  6  5  1  0  0  0  0
  6  8  1  1  0  0  0
  6 11  1  0  0  0  0
  7  3  1  0  0  0  0
  9  4  1  6  0  0  0
  9 11  1  0  0  0  0
 10  9  1  0  0  0  0
 10  6  1  0  0  0  0
 12  2  1  0  0  0  0
 13  3  2  0  0  0  0
 14 15  1  0  0  0  0
 14 12  1  0  0  0  0
 15 17  1  0  0  0  0
 16  4  1  0  0  0  0
 17 18  1  0  0  0  0
 18 16  1  0  0  0  0
 18  1  1  0  0  0  0
 20 19  2  0  0  0  0
 21 19  1  0  0  0  0
 21 22  1  0  0  0  0
 22 24  1  0  0  0  0
 23 21  1  0  0  0  0
 23 22  1  0  0  0  0
 24 30  1  0  0  0  0
 26 27  1  0  0  0  0
 26 32  1  0  0  0  0
 28 25  1  0  0  0  0
 28 27  2  0  0  0  0
 29 30  2  0  0  0  0
 29 31  1  0  0  0  0
 30 28  1  0  0  0  0
 31 26  2  0  0  0  0
 32 33  1  0  0  0  0
 32 34  1  0  0  0  0
M  END
>  <MODEL>
8

>  <REMARK>
 VINA RESULT:      -7.0      3.488      5.283
  Name = 
  5 active torsions:
  status: ('A' for Active; 'I' for Inactive)
    1  A    between atoms: C_1  and  C_9
    2  A    between atoms: N_6  and  C_28
    3  A    between atoms: N_6  and  C_30
    4  A    between atoms: C_7  and  N_11
    5  A    between atoms: C_8  and  C_18
                            x       y       z     vdW  Elec       q    Type
                         _______ _______ _______ _____ _____    ______ ____

>  <TORSDO>
F 5

$$$$
=
 OpenBabel10272415113D

 34 38  0  0  1  0  0  0  0  0999 V2000
  186.7800  175.7140  136.4280 C   0  0  1  0  0  3  0  0  0  0  0  0
  183.4760  174.5910  138.2610 C   0  0  0  0  0  2  0  0  0  0  0  0
  181.2970  176.3670  136.6560 C   0  0  0  0  0  0  0  0  0  0  0  0
  185.2910  173.2460  137.1900 C   0  0  0  0  0  2  0  0  0  0  0  0
  189.4660  173.7250  137.4800 F   0  0  0  0  0  0  0  0  0  0  0  0
  188.5320  173.8380  136.4660 C   0  0  2  0  0  0  0  0  0  0  0  0
  180.4070  175.4340  137.1740 O   0  0  0  0  0  1  0  0  0  0  0  0
  189.1320  174.5030  135.2280 C   0  0  0  0  0  1  0  0  0  0  0  0
  186.4990  173.4540  136.3300 C   0  0  1  0  0  3  0  0  0  0  0  0
  187.3050  174.4630  136.9600 N   0  0  2  0  0  0  0  0  0  0  0  0
  187.7910  172.2100  136.0620 S   0  0  0  0  0  0  0  0  0  0  0  0
  182.8750  175.9630  138.5730 C   0  0  0  0  0  2  0  0  0  0  0  0
  181.0220  176.9470  135.5720 O   0  0  0  0  0  0  0  0  0  0  0  0
  182.5120  176.6700  137.3520 N   0  0  0  0  0  0  0  0  0  0  0  0
  183.4790  177.6130  136.8060 C   0  0  0  0  0  2  0  0  0  0  0  0
  184.4920  174.5680  137.1110 C   0  0  2  0  0  3  0  0  0  0  0  0
  184.5870  176.8740  136.0650 C   0  0  0  0  0  2  0  0  0  0  0  0
  185.3320  175.8970  136.9730 C   0  0  2  0  0  3  0  0  0  0  0  0
  188.0000  177.0440  138.1270 C   0  0  0  0  0  3  0  0  0  0  0  0
  187.6360  176.8750  136.8550 C   0  0  0  0  0  3  0  0  0  0  0  0
  188.8110  178.2350  138.5300 C   0  0  1  0  0  3  0  0  0  0  0  0
  188.9070  178.4450  140.0470 C   0  0  2  0  0  3  0  0  0  0  0  0
  190.0370  177.7760  139.2910 C   0  0  0  0  0  2  0  0  0  0  0  0
  188.1590  177.4460  140.8030 N   0  0  0  0  0  2  0  0  0  0  0  0
  189.9360  176.2890  142.9770 C   0  0  0  0  0  1  0  0  0  0  0  0
  187.0000  177.6780  144.8920 C   0  0  0  0  0  0  0  0  0  0  0  0
  188.2080  177.0550  144.5590 C   0  0  0  0  0  3  0  0  0  0  0  0
  188.6290  176.9560  143.2290 C   0  0  0  0  0  0  0  0  0  0  0  0
  186.6160  178.1200  142.5380 C   0  0  0  0  0  3  0  0  0  0  0  0
  187.8190  177.4960  142.1970 C   0  0  0  0  0  0  0  0  0  0  0  0
  186.2060  178.2120  143.8690 C   0  0  0  0  0  3  0  0  0  0  0  0
  186.5900  177.7660  146.2660 N   0  0  0  0  0  0  0  0  0  0  0  0
  185.3010  178.3310  146.6390 C   0  0  0  0  0  1  0  0  0  0  0  0
  187.4060  177.3180  147.2490 O   0  0  0  0  0  1  0  0  0  0  0  0
  1 20  1  1  0  0  0
  1 10  1  0  0  0  0
  1 18  1  0  0  0  0
  2 12  1  0  0  0  0
  3  7  1  0  0  0  0
  3 14  1  0  0  0  0
  6  8  1  6  0  0  0
  6 10  1  0  0  0  0
  6  5  1  0  0  0  0
  9 10  1  0  0  0  0
  9  4  1  1  0  0  0
 11  9  1  0  0  0  0
 11  6  1  0  0  0  0
 13  3  2  0  0  0  0
 14 12  1  0  0  0  0
 15 14  1  0  0  0  0
 16  4  1  0  0  0  0
 16  2  1  0  0  0  0
 17 15  1  0  0  0  0
 17 18  1  0  0  0  0
 18 16  1  0  0  0  0
 19 21  1  0  0  0  0
 20 19  2  0  0  0  0
 21 23  1  0  0  0  0
 21 22  1  0  0  0  0
 22 24  1  0  0  0  0
 23 22  1  0  0  0  0
 24 30  1  0  0  0  0
 25 28  1  0  0  0  0
 26 32  1  0  0  0  0
 27 26  1  0  0  0  0
 28 27  2  0  0  0  0
 29 31  1  0  0  0  0
 30 29  2  0  0  0  0
 30 28  1  0  0  0  0
 31 26  2  0  0  0  0
 32 33  1  0  0  0  0
 32 34  1  0  0  0  0
M  END
>  <MODEL>
9

>  <REMARK>
 VINA RESULT:      -7.0      3.979      6.101
  Name = 
  5 active torsions:
  status: ('A' for Active; 'I' for Inactive)
    1  A    between atoms: C_1  and  C_9
    2  A    between atoms: N_6  and  C_28
    3  A    between atoms: N_6  and  C_30
    4  A    between atoms: C_7  and  N_11
    5  A    between atoms: C_8  and  C_18
                            x       y       z     vdW  Elec       q    Type
                         _______ _______ _______ _____ _____    ______ ____

>  <TORSDO>
F 5

$$$$
