=
 OpenBabel10272402043D

 32 37  0  0  1  0  0  0  0  0999 V2000
  186.0230  178.3490  139.0460 C   0  0  0  0  0  0  0  0  0  0  0  0
  186.7990  178.2430  141.3470 C   0  0  0  0  0  0  0  0  0  0  0  0
  186.3200  178.2670  137.6760 C   0  0  0  0  0  3  0  0  0  0  0  0
  187.0680  178.2190  139.9780 C   0  0  0  0  0  0  0  0  0  0  0  0
  187.8390  178.1200  142.2790 C   0  0  0  0  0  0  0  0  0  0  0  0
  183.7390  179.1050  145.0890 C   0  0  0  0  0  2  0  0  0  0  0  0
  185.4810  178.4040  141.7880 C   0  0  0  0  0  0  0  0  0  0  0  0
  186.0720  178.3830  145.5640 C   0  0  0  0  0  2  0  0  0  0  0  0
  186.2840  178.2600  144.0760 C   0  0  0  0  0  0  0  0  0  0  0  0
  188.3940  178.0310  139.5530 C   0  0  0  0  0  0  0  0  0  0  0  0
  187.5600  178.1460  143.6100 N   0  0  0  0  0  0  0  0  0  0  0  0
  189.3870  177.9090  140.4740 N   0  0  0  0  0  0  0  0  0  0  0  0
  188.6730  177.9370  138.1880 C   0  0  0  0  0  3  0  0  0  0  0  0
  184.4800  178.5390  140.8740 N   0  0  0  0  0  0  0  0  0  0  0  0
  184.7090  178.5080  139.5290 C   0  0  0  0  0  0  0  0  0  0  0  0
  185.2120  178.4350  143.1620 C   0  0  0  0  0  0  0  0  0  0  0  0
  189.1480  177.9690  141.8170 C   0  0  0  0  0  0  0  0  0  0  0  0
  187.6370  178.0540  137.2530 C   0  0  0  0  0  3  0  0  0  0  0  0
  184.6090  178.2230  145.9690 C   0  0  0  0  0  2  0  0  0  0  0  0
  183.7940  178.5920  143.6530 C   0  0  0  0  0  2  0  0  0  0  0  0
  181.6850  180.3330  138.1650 N   0  0  0  0  0  0  0  0  0  0  0  0
  181.5240  178.0740  136.4560 C   0  0  0  0  0  1  0  0  0  0  0  0
  181.0400  181.5150  138.7180 C   0  0  0  0  0  1  0  0  0  0  0  0
  183.1070  176.2990  138.1520 C   0  0  0  0  0  1  0  0  0  0  0  0
  183.5630  178.7640  138.5830 C   0  0  1  0  0  3  0  0  0  0  0  0
  180.7500  179.2290  138.3980 C   0  0  0  0  0  2  0  0  0  0  0  0
  182.5250  177.6280  138.6230 C   0  0  1  0  0  3  0  0  0  0  0  0
  182.8950  180.0990  138.9590 C   0  0  1  0  0  3  0  0  0  0  0  0
  183.8000  181.1320  138.7500 F   0  0  0  0  0  0  0  0  0  0  0  0
  181.2860  177.9620  137.8950 N   0  0  0  0  0  0  0  0  0  0  0  0
  190.1970  177.8720  142.7330 O   0  0  0  0  0  0  0  0  0  0  0  0
  191.4310  177.2610  142.3920 C   0  0  0  0  0  1  0  0  0  0  0  0
  1 15  2  0  0  0  0
  1  4  1  0  0  0  0
  2  7  1  0  0  0  0
  2  5  1  0  0  0  0
  3  1  1  0  0  0  0
  4  2  2  0  0  0  0
  5 11  2  0  0  0  0
  6 19  1  0  0  0  0
  7 16  1  0  0  0  0
  8 19  1  0  0  0  0
  9  8  1  0  0  0  0
 10  4  1  0  0  0  0
 10 12  1  0  0  0  0
 11  9  1  0  0  0  0
 12 17  2  0  0  0  0
 13 10  2  0  0  0  0
 14  7  2  0  0  0  0
 15 14  1  0  0  0  0
 16 20  1  0  0  0  0
 16  9  2  0  0  0  0
 17  5  1  0  0  0  0
 17 31  1  0  0  0  0
 18  3  2  0  0  0  0
 18 13  1  0  0  0  0
 20  6  1  0  0  0  0
 21 26  1  0  0  0  0
 21 23  1  0  0  0  0
 21 28  1  0  0  0  0
 22 30  1  0  0  0  0
 25 27  1  0  0  0  0
 25 28  1  0  0  0  0
 25 15  1  1  0  0  0
 27 24  1  6  0  0  0
 28 29  1  6  0  0  0
 30 26  1  0  0  0  0
 30 27  1  0  0  0  0
 32 31  1  0  0  0  0
M  END
>  <MODEL>
1

>  <REMARK>
 VINA RESULT:      -8.6      0.000      0.000
  Name = 
  2 active torsions:
  status: ('A' for Active; 'I' for Inactive)
    1  A    between atoms: O_13  and  C_29
    2  A    between atoms: C_16  and  C_27
                            x       y       z     vdW  Elec       q    Type
                         _______ _______ _______ _____ _____    ______ ____

>  <TORSDO>
F 2

$$$$
=
 OpenBabel10272402043D

 32 37  0  0  1  0  0  0  0  0999 V2000
  183.2640  178.6530  141.7810 C   0  0  0  0  0  0  0  0  0  0  0  0
  185.6680  178.3370  141.9300 C   0  0  0  0  0  0  0  0  0  0  0  0
  182.0390  178.8590  142.4360 C   0  0  0  0  0  3  0  0  0  0  0  0
  184.4290  178.4910  142.5510 C   0  0  0  0  0  0  0  0  0  0  0  0
  186.8320  178.1700  142.6940 C   0  0  0  0  0  0  0  0  0  0  0  0
  188.3650  177.5170  137.9090 C   0  0  0  0  0  2  0  0  0  0  0  0
  185.7450  178.3390  140.5330 C   0  0  0  0  0  0  0  0  0  0  0  0
  189.5020  177.7830  140.1050 C   0  0  0  0  0  2  0  0  0  0  0  0
  188.1510  178.0580  140.7160 C   0  0  0  0  0  0  0  0  0  0  0  0
  184.3740  178.5140  143.9540 C   0  0  0  0  0  0  0  0  0  0  0  0
  188.0320  178.0210  142.0730 N   0  0  0  0  0  0  0  0  0  0  0  0
  185.5160  178.3530  144.6770 N   0  0  0  0  0  0  0  0  0  0  0  0
  183.1520  178.7340  144.5930 C   0  0  0  0  0  3  0  0  0  0  0  0
  184.6070  178.4870  139.8000 N   0  0  0  0  0  0  0  0  0  0  0  0
  183.3810  178.6500  140.3760 C   0  0  0  0  0  0  0  0  0  0  0  0
  186.9890  178.1780  139.9090 C   0  0  0  0  0  0  0  0  0  0  0  0
  186.7310  178.1630  144.0870 C   0  0  0  0  0  0  0  0  0  0  0  0
  181.9880  178.9070  143.8340 C   0  0  0  0  0  3  0  0  0  0  0  0
  189.5620  178.1270  138.6190 C   0  0  0  0  0  2  0  0  0  0  0  0
  187.0890  178.1930  138.4040 C   0  0  0  0  0  2  0  0  0  0  0  0
  180.7680  177.3110  137.9860 N   0  0  0  0  0  0  0  0  0  0  0  0
  179.9820  180.0340  137.8640 C   0  0  0  0  0  1  0  0  0  0  0  0
  180.6930  175.9740  137.4160 C   0  0  0  0  0  1  0  0  0  0  0  0
  182.5280  181.1230  138.7970 C   0  0  0  0  0  1  0  0  0  0  0  0
  182.1570  178.7060  139.4980 C   0  0  1  0  0  3  0  0  0  0  0  0
  181.1400  178.1920  136.8770 C   0  0  0  0  0  2  0  0  0  0  0  0
  182.3410  179.6860  138.3250 C   0  0  1  0  0  3  0  0  0  0  0  0
  181.8620  177.2940  138.9620 C   0  0  1  0  0  3  0  0  0  0  0  0
  181.5290  176.4670  140.0270 F   0  0  0  0  0  0  0  0  0  0  0  0
  181.2640  179.5830  137.3210 N   0  0  0  0  0  0  0  0  0  0  0  0
  187.8780  177.9700  144.8610 O   0  0  0  0  0  0  0  0  0  0  0  0
  187.8010  177.5620  146.2180 C   0  0  0  0  0  1  0  0  0  0  0  0
  1  3  2  0  0  0  0
  1  4  1  0  0  0  0
  2  4  1  0  0  0  0
  2  5  1  0  0  0  0
  3 18  1  0  0  0  0
  4 10  2  0  0  0  0
  5 17  1  0  0  0  0
  6 20  1  0  0  0  0
  6 19  1  0  0  0  0
  7  2  2  0  0  0  0
  8  9  1  0  0  0  0
  9 11  1  0  0  0  0
 10 13  1  0  0  0  0
 10 12  1  0  0  0  0
 11  5  2  0  0  0  0
 14 15  2  0  0  0  0
 14  7  1  0  0  0  0
 15  1  1  0  0  0  0
 16  7  1  0  0  0  0
 16  9  2  0  0  0  0
 17 12  2  0  0  0  0
 17 31  1  0  0  0  0
 18 13  2  0  0  0  0
 19  8  1  0  0  0  0
 20 16  1  0  0  0  0
 21 28  1  0  0  0  0
 23 21  1  0  0  0  0
 25 15  1  6  0  0  0
 26 30  1  0  0  0  0
 26 21  1  0  0  0  0
 27 24  1  1  0  0  0
 27 25  1  0  0  0  0
 28 25  1  0  0  0  0
 28 29  1  1  0  0  0
 30 22  1  0  0  0  0
 30 27  1  0  0  0  0
 31 32  1  0  0  0  0
M  END
>  <MODEL>
2

>  <REMARK>
 VINA RESULT:      -8.0      1.692      4.794
  Name = 
  2 active torsions:
  status: ('A' for Active; 'I' for Inactive)
    1  A    between atoms: O_13  and  C_29
    2  A    between atoms: C_16  and  C_27
                            x       y       z     vdW  Elec       q    Type
                         _______ _______ _______ _____ _____    ______ ____

>  <TORSDO>
F 2

$$$$
=
 OpenBabel10272402043D

 32 37  0  0  1  0  0  0  0  0999 V2000
  184.0950  178.6050  141.8190 C   0  0  0  0  0  0  0  0  0  0  0  0
  186.3870  178.1780  142.5040 C   0  0  0  0  0  0  0  0  0  0  0  0
  182.7690  178.8930  142.1810 C   0  0  0  0  0  3  0  0  0  0  0  0
  185.0510  178.4140  142.8320 C   0  0  0  0  0  0  0  0  0  0  0  0
  187.3420  177.9810  143.5120 C   0  0  0  0  0  0  0  0  0  0  0  0
  189.8530  177.0890  139.2020 C   0  0  0  0  0  2  0  0  0  0  0  0
  186.7690  178.1280  141.1590 C   0  0  0  0  0  0  0  0  0  0  0  0
  190.4920  177.3750  141.5880 C   0  0  0  0  0  2  0  0  0  0  0  0
  189.0560  177.7360  141.8780 C   0  0  0  0  0  0  0  0  0  0  0  0
  184.6900  178.4870  144.1870 C   0  0  0  0  0  0  0  0  0  0  0  0
  188.6400  177.7520  143.1760 N   0  0  0  0  0  0  0  0  0  0  0  0
  185.6340  178.2970  145.1480 N   0  0  0  0  0  0  0  0  0  0  0  0
  183.3710  178.7890  144.5340 C   0  0  0  0  0  3  0  0  0  0  0  0
  185.8300  178.3050  140.1890 N   0  0  0  0  0  0  0  0  0  0  0  0
  184.5180  178.5480  140.4760 C   0  0  0  0  0  0  0  0  0  0  0  0
  188.1090  177.8850  140.8310 C   0  0  0  0  0  0  0  0  0  0  0  0
  186.9370  178.0270  144.8470 C   0  0  0  0  0  0  0  0  0  0  0  0
  182.4140  178.9920  143.5320 C   0  0  0  0  0  3  0  0  0  0  0  0
  190.8960  177.6630  140.1450 C   0  0  0  0  0  2  0  0  0  0  0  0
  188.5390  177.8420  139.3850 C   0  0  0  0  0  2  0  0  0  0  0  0
  181.9600  180.2070  138.2310 N   0  0  0  0  0  0  0  0  0  0  0  0
  181.6170  177.5660  137.2510 C   0  0  0  0  0  1  0  0  0  0  0  0
  181.4560  181.5690  138.3190 C   0  0  0  0  0  1  0  0  0  0  0  0
  182.7340  176.2280  139.5960 C   0  0  0  0  0  1  0  0  0  0  0  0
  183.5230  178.6330  139.3470 C   0  0  1  0  0  3  0  0  0  0  0  0
  180.8470  179.3480  138.6430 C   0  0  0  0  0  2  0  0  0  0  0  0
  182.3230  177.6960  139.5710 C   0  0  1  0  0  3  0  0  0  0  0  0
  183.0370  180.0880  139.2190 C   0  0  1  0  0  3  0  0  0  0  0  0
  184.1070  180.8910  138.8460 F   0  0  0  0  0  0  0  0  0  0  0  0
  181.2260  177.9330  138.6130 N   0  0  0  0  0  0  0  0  0  0  0  0
  187.8730  177.8060  145.8610 O   0  0  0  0  0  0  0  0  0  0  0  0
  187.4820  177.6630  147.2170 C   0  0  0  0  0  1  0  0  0  0  0  0
  1  3  2  0  0  0  0
  1  4  1  0  0  0  0
  2  4  1  0  0  0  0
  2  5  1  0  0  0  0
  3 18  1  0  0  0  0
  4 10  2  0  0  0  0
  5 17  1  0  0  0  0
  6 20  1  0  0  0  0
  6 19  1  0  0  0  0
  7  2  2  0  0  0  0
  8  9  1  0  0  0  0
  9 11  1  0  0  0  0
 10 13  1  0  0  0  0
 10 12  1  0  0  0  0
 11  5  2  0  0  0  0
 14 15  2  0  0  0  0
 14  7  1  0  0  0  0
 15  1  1  0  0  0  0
 16  7  1  0  0  0  0
 16  9  2  0  0  0  0
 17 12  2  0  0  0  0
 17 31  1  0  0  0  0
 18 13  2  0  0  0  0
 19  8  1  0  0  0  0
 20 16  1  0  0  0  0
 21 23  1  0  0  0  0
 21 26  1  0  0  0  0
 21 28  1  0  0  0  0
 22 30  1  0  0  0  0
 25 27  1  0  0  0  0
 25 15  1  1  0  0  0
 27 24  1  6  0  0  0
 28 29  1  6  0  0  0
 28 25  1  0  0  0  0
 30 26  1  0  0  0  0
 30 27  1  0  0  0  0
 31 32  1  0  0  0  0
M  END
>  <MODEL>
3

>  <REMARK>
 VINA RESULT:      -7.9      1.444      4.345
  Name = 
  2 active torsions:
  status: ('A' for Active; 'I' for Inactive)
    1  A    between atoms: O_13  and  C_29
    2  A    between atoms: C_16  and  C_27
                            x       y       z     vdW  Elec       q    Type
                         _______ _______ _______ _____ _____    ______ ____

>  <TORSDO>
F 2

$$$$
=
 OpenBabel10272402043D

 32 37  0  0  1  0  0  0  0  0999 V2000
  186.9540  178.0010  144.1610 C   0  0  0  0  0  0  0  0  0  0  0  0
  187.0940  178.1980  141.7430 C   0  0  0  0  0  0  0  0  0  0  0  0
  186.2080  178.1790  145.3370 C   0  0  0  0  0  3  0  0  0  0  0  0
  186.4010  178.4090  142.9350 C   0  0  0  0  0  0  0  0  0  0  0  0
  186.5470  178.6090  140.5190 C   0  0  0  0  0  0  0  0  0  0  0  0
  191.2090  177.0080  139.3430 C   0  0  0  0  0  2  0  0  0  0  0  0
  188.3500  177.5810  141.7760 C   0  0  0  0  0  0  0  0  0  0  0  0
  189.1880  177.6580  138.0470 C   0  0  0  0  0  2  0  0  0  0  0  0
  188.4440  177.7630  139.3550 C   0  0  0  0  0  0  0  0  0  0  0  0
  185.1300  179.0050  142.8810 C   0  0  0  0  0  0  0  0  0  0  0  0
  187.2370  178.3960  139.3660 N   0  0  0  0  0  0  0  0  0  0  0  0
  184.6170  179.3930  141.6820 N   0  0  0  0  0  0  0  0  0  0  0  0
  184.3920  179.1640  144.0560 C   0  0  0  0  0  3  0  0  0  0  0  0
  188.8780  177.2010  142.9720 N   0  0  0  0  0  0  0  0  0  0  0  0
  188.2210  177.3820  144.1540 C   0  0  0  0  0  0  0  0  0  0  0  0
  189.0490  177.3760  140.5790 C   0  0  0  0  0  0  0  0  0  0  0  0
  185.2970  179.2300  140.5110 C   0  0  0  0  0  0  0  0  0  0  0  0
  184.9310  178.7500  145.2810 C   0  0  0  0  0  3  0  0  0  0  0  0
  190.3720  176.6970  138.1140 C   0  0  0  0  0  2  0  0  0  0  0  0
  190.3970  176.6990  140.5970 C   0  0  0  0  0  2  0  0  0  0  0  0
  188.6460  177.1430  147.9080 N   0  0  0  0  0  0  0  0  0  0  0  0
  191.2550  176.2760  147.2100 C   0  0  0  0  0  1  0  0  0  0  0  0
  187.7370  177.6320  148.9340 C   0  0  0  0  0  1  0  0  0  0  0  0
  191.2530  177.4400  144.5310 C   0  0  0  0  0  1  0  0  0  0  0  0
  188.9150  177.0250  145.4430 C   0  0  1  0  0  3  0  0  0  0  0  0
  189.8140  178.0250  147.9640 C   0  0  0  0  0  2  0  0  0  0  0  0
  190.2370  177.7940  145.6120 C   0  0  1  0  0  3  0  0  0  0  0  0
  187.9730  177.3360  146.6190 C   0  0  1  0  0  3  0  0  0  0  0  0
  186.8620  176.5050  146.5410 F   0  0  0  0  0  0  0  0  0  0  0  0
  190.8140  177.6480  146.9620 N   0  0  0  0  0  0  0  0  0  0  0  0
  184.7520  179.6690  139.3020 O   0  0  0  0  0  0  0  0  0  0  0  0
  183.3540  179.6420  139.0610 C   0  0  0  0  0  1  0  0  0  0  0  0
  1  3  2  0  0  0  0
  2  7  1  0  0  0  0
  2  4  1  0  0  0  0
  4  1  1  0  0  0  0
  5  2  2  0  0  0  0
  6 20  1  0  0  0  0
  7 14  1  0  0  0  0
  8 19  1  0  0  0  0
  8  9  1  0  0  0  0
  9 11  2  0  0  0  0
  9 16  1  0  0  0  0
 10  4  2  0  0  0  0
 10 13  1  0  0  0  0
 11  5  1  0  0  0  0
 12 10  1  0  0  0  0
 13 18  2  0  0  0  0
 14 15  2  0  0  0  0
 15  1  1  0  0  0  0
 16 20  1  0  0  0  0
 16  7  2  0  0  0  0
 17  5  1  0  0  0  0
 17 12  2  0  0  0  0
 18  3  1  0  0  0  0
 19  6  1  0  0  0  0
 21 26  1  0  0  0  0
 21 23  1  0  0  0  0
 25 15  1  6  0  0  0
 25 27  1  0  0  0  0
 25 28  1  0  0  0  0
 27 24  1  6  0  0  0
 27 30  1  0  0  0  0
 28 29  1  1  0  0  0
 28 21  1  0  0  0  0
 30 22  1  0  0  0  0
 30 26  1  0  0  0  0
 31 17  1  0  0  0  0
 32 31  1  0  0  0  0
M  END
>  <MODEL>
4

>  <REMARK>
 VINA RESULT:      -7.5      3.128      8.349
  Name = 
  2 active torsions:
  status: ('A' for Active; 'I' for Inactive)
    1  A    between atoms: O_13  and  C_29
    2  A    between atoms: C_16  and  C_27
                            x       y       z     vdW  Elec       q    Type
                         _______ _______ _______ _____ _____    ______ ____

>  <TORSDO>
F 2

$$$$
=
 OpenBabel10272402043D

 32 37  0  0  1  0  0  0  0  0999 V2000
  189.5000  176.9420  138.3150 C   0  0  0  0  0  0  0  0  0  0  0  0
  188.8700  177.5900  140.5710 C   0  0  0  0  0  0  0  0  0  0  0  0
  189.2290  176.9780  136.9380 C   0  0  0  0  0  3  0  0  0  0  0  0
  188.6030  177.5620  139.2020 C   0  0  0  0  0  0  0  0  0  0  0  0
  187.9750  178.2030  141.4590 C   0  0  0  0  0  0  0  0  0  0  0  0
  191.4470  176.0500  144.4570 C   0  0  0  0  0  2  0  0  0  0  0  0
  190.0360  176.9900  141.0580 C   0  0  0  0  0  0  0  0  0  0  0  0
  189.5750  177.6540  144.7940 C   0  0  0  0  0  2  0  0  0  0  0  0
  189.3950  177.6820  143.2960 C   0  0  0  0  0  0  0  0  0  0  0  0
  187.4410  178.1930  138.7270 C   0  0  0  0  0  0  0  0  0  0  0  0
  188.2500  178.2200  142.7900 N   0  0  0  0  0  0  0  0  0  0  0  0
  186.5870  178.7850  139.6060 N   0  0  0  0  0  0  0  0  0  0  0  0
  187.1900  178.2340  137.3540 C   0  0  0  0  0  3  0  0  0  0  0  0
  190.8910  176.3840  140.1880 N   0  0  0  0  0  0  0  0  0  0  0  0
  190.6640  176.3490  138.8430 C   0  0  0  0  0  0  0  0  0  0  0  0
  190.3010  177.0120  142.4330 C   0  0  0  0  0  0  0  0  0  0  0  0
  186.8130  178.7880  140.9520 C   0  0  0  0  0  0  0  0  0  0  0  0
  188.0850  177.6280  136.4620 C   0  0  0  0  0  3  0  0  0  0  0  0
  190.9970  177.2890  145.2130 C   0  0  0  0  0  2  0  0  0  0  0  0
  191.5620  176.3820  142.9720 C   0  0  0  0  0  2  0  0  0  0  0  0
  193.5080  175.8670  136.3900 N   0  0  0  0  0  0  0  0  0  0  0  0
  192.5680  173.1900  136.3580 C   0  0  0  0  0  1  0  0  0  0  0  0
  194.3280  176.8990  135.7730 C   0  0  0  0  0  1  0  0  0  0  0  0
  189.8880  173.8010  137.3460 C   0  0  0  0  0  1  0  0  0  0  0  0
  191.6070  175.5720  137.9590 C   0  0  1  0  0  3  0  0  0  0  0  0
  192.6660  175.3370  135.3160 C   0  0  0  0  0  2  0  0  0  0  0  0
  190.8600  174.8520  136.8220 C   0  0  1  0  0  3  0  0  0  0  0  0
  192.6510  176.5380  137.3720 C   0  0  1  0  0  3  0  0  0  0  0  0
  193.4280  177.0460  138.4050 F   0  0  0  0  0  0  0  0  0  0  0  0
  191.7710  174.2870  135.8090 N   0  0  0  0  0  0  0  0  0  0  0  0
  185.8980  179.3790  141.8270 O   0  0  0  0  0  0  0  0  0  0  0  0
  184.6750  178.7460  142.1660 C   0  0  0  0  0  1  0  0  0  0  0  0
  1 15  2  0  0  0  0
  1  4  1  0  0  0  0
  2  7  1  0  0  0  0
  2  5  1  0  0  0  0
  3  1  1  0  0  0  0
  4  2  2  0  0  0  0
  5 11  2  0  0  0  0
  6 19  1  0  0  0  0
  7 16  1  0  0  0  0
  8 19  1  0  0  0  0
  9  8  1  0  0  0  0
 10  4  1  0  0  0  0
 10 12  1  0  0  0  0
 11  9  1  0  0  0  0
 12 17  2  0  0  0  0
 13 10  2  0  0  0  0
 14  7  2  0  0  0  0
 15 14  1  0  0  0  0
 16 20  1  0  0  0  0
 16  9  2  0  0  0  0
 17  5  1  0  0  0  0
 17 31  1  0  0  0  0
 18  3  2  0  0  0  0
 18 13  1  0  0  0  0
 20  6  1  0  0  0  0
 21 28  1  0  0  0  0
 23 21  1  0  0  0  0
 25 15  1  6  0  0  0
 26 30  1  0  0  0  0
 26 21  1  0  0  0  0
 27 24  1  1  0  0  0
 27 25  1  0  0  0  0
 28 25  1  0  0  0  0
 28 29  1  1  0  0  0
 30 22  1  0  0  0  0
 30 27  1  0  0  0  0
 31 32  1  0  0  0  0
M  END
>  <MODEL>
5

>  <REMARK>
 VINA RESULT:      -7.4      3.745      7.299
  Name = 
  2 active torsions:
  status: ('A' for Active; 'I' for Inactive)
    1  A    between atoms: O_13  and  C_29
    2  A    between atoms: C_16  and  C_27
                            x       y       z     vdW  Elec       q    Type
                         _______ _______ _______ _____ _____    ______ ____

>  <TORSDO>
F 2

$$$$
=
 OpenBabel10272402043D

 32 37  0  0  1  0  0  0  0  0999 V2000
  186.4440  178.0960  139.4400 C   0  0  0  0  0  0  0  0  0  0  0  0
  187.0290  178.0860  141.7980 C   0  0  0  0  0  0  0  0  0  0  0  0
  185.5110  178.4050  138.4380 C   0  0  0  0  0  3  0  0  0  0  0  0
  186.1050  178.3320  140.7840 C   0  0  0  0  0  0  0  0  0  0  0  0
  186.6910  178.3150  143.1400 C   0  0  0  0  0  0  0  0  0  0  0  0
  191.2640  176.1420  143.3460 C   0  0  0  0  0  2  0  0  0  0  0  0
  188.2980  177.5950  141.4720 C   0  0  0  0  0  0  0  0  0  0  0  0
  189.7780  177.2840  144.9820 C   0  0  0  0  0  2  0  0  0  0  0  0
  188.8620  177.6290  143.8340 C   0  0  0  0  0  0  0  0  0  0  0  0
  184.8450  178.8500  141.1270 C   0  0  0  0  0  0  0  0  0  0  0  0
  187.6040  178.0680  144.1180 N   0  0  0  0  0  0  0  0  0  0  0  0
  184.5390  179.0690  142.4350 N   0  0  0  0  0  0  0  0  0  0  0  0
  183.9310  179.1660  140.1200 C   0  0  0  0  0  3  0  0  0  0  0  0
  188.6090  177.3600  140.1670 N   0  0  0  0  0  0  0  0  0  0  0  0
  187.7320  177.6020  139.1500 C   0  0  0  0  0  0  0  0  0  0  0  0
  189.2240  177.3410  142.4920 C   0  0  0  0  0  0  0  0  0  0  0  0
  185.4170  178.7970  143.4440 C   0  0  0  0  0  0  0  0  0  0  0  0
  184.2650  178.9450  138.7780 C   0  0  0  0  0  3  0  0  0  0  0  0
  191.2260  177.0770  144.5430 C   0  0  0  0  0  2  0  0  0  0  0  0
  190.6010  176.8250  142.1540 C   0  0  0  0  0  2  0  0  0  0  0  0
  188.9850  175.3280  136.3950 N   0  0  0  0  0  0  0  0  0  0  0  0
  188.9080  177.7140  134.8630 C   0  0  0  0  0  1  0  0  0  0  0  0
  189.4480  173.9540  136.5230 C   0  0  0  0  0  1  0  0  0  0  0  0
  188.9820  179.5380  137.1430 C   0  0  0  0  0  1  0  0  0  0  0  0
  188.1170  177.2230  137.7420 C   0  0  1  0  0  3  0  0  0  0  0  0
  190.1820  176.1210  136.1040 C   0  0  0  0  0  2  0  0  0  0  0  0
  189.3090  178.0520  137.2340 C   0  0  1  0  0  3  0  0  0  0  0  0
  188.4650  175.7240  137.7070 C   0  0  1  0  0  3  0  0  0  0  0  0
  187.3260  174.9870  138.0020 F   0  0  0  0  0  0  0  0  0  0  0  0
  189.8580  177.5420  135.9620 N   0  0  0  0  0  0  0  0  0  0  0  0
  185.0570  179.0050  144.7780 O   0  0  0  0  0  0  0  0  0  0  0  0
  183.7310  178.7880  145.2350 C   0  0  0  0  0  1  0  0  0  0  0  0
  1  4  1  0  0  0  0
  2  5  1  0  0  0  0
  3 18  2  0  0  0  0
  3  1  1  0  0  0  0
  4 10  1  0  0  0  0
  4  2  2  0  0  0  0
  5 17  1  0  0  0  0
  5 11  2  0  0  0  0
  6 19  1  0  0  0  0
  7  2  1  0  0  0  0
  7 16  1  0  0  0  0
  9 11  1  0  0  0  0
  9  8  1  0  0  0  0
 10 12  1  0  0  0  0
 12 17  2  0  0  0  0
 13 10  2  0  0  0  0
 14  7  2  0  0  0  0
 15  1  2  0  0  0  0
 15 14  1  0  0  0  0
 16  9  2  0  0  0  0
 17 31  1  0  0  0  0
 18 13  1  0  0  0  0
 19  8  1  0  0  0  0
 20 16  1  0  0  0  0
 20  6  1  0  0  0  0
 21 23  1  0  0  0  0
 21 28  1  0  0  0  0
 22 30  1  0  0  0  0
 25 15  1  1  0  0  0
 26 21  1  0  0  0  0
 27 24  1  6  0  0  0
 27 25  1  0  0  0  0
 28 25  1  0  0  0  0
 28 29  1  6  0  0  0
 30 26  1  0  0  0  0
 30 27  1  0  0  0  0
 31 32  1  0  0  0  0
M  END
>  <MODEL>
6

>  <REMARK>
 VINA RESULT:      -7.4      2.666      5.941
  Name = 
  2 active torsions:
  status: ('A' for Active; 'I' for Inactive)
    1  A    between atoms: O_13  and  C_29
    2  A    between atoms: C_16  and  C_27
                            x       y       z     vdW  Elec       q    Type
                         _______ _______ _______ _____ _____    ______ ____

>  <TORSDO>
F 2

$$$$
=
 OpenBabel10272402043D

 32 37  0  0  1  0  0  0  0  0999 V2000
  186.9790  177.9060  144.8990 C   0  0  0  0  0  0  0  0  0  0  0  0
  185.2720  178.4610  143.2610 C   0  0  0  0  0  0  0  0  0  0  0  0
  187.3360  177.7250  146.2450 C   0  0  0  0  0  3  0  0  0  0  0  0
  185.6720  178.3230  144.5900 C   0  0  0  0  0  0  0  0  0  0  0  0
  183.9710  178.8820  142.9500 C   0  0  0  0  0  0  0  0  0  0  0  0
  186.3420  178.7050  138.4750 C   0  0  0  0  0  2  0  0  0  0  0  0
  186.1820  178.1880  142.2340 C   0  0  0  0  0  0  0  0  0  0  0  0
  183.9830  178.9860  139.2120 C   0  0  0  0  0  2  0  0  0  0  0  0
  184.4430  178.7170  140.6230 C   0  0  0  0  0  0  0  0  0  0  0  0
  184.7380  178.5750  145.6080 C   0  0  0  0  0  0  0  0  0  0  0  0
  183.5970  179.0130  141.6490 N   0  0  0  0  0  0  0  0  0  0  0  0
  183.4800  178.9790  145.2840 N   0  0  0  0  0  0  0  0  0  0  0  0
  185.1010  178.3770  146.9420 C   0  0  0  0  0  3  0  0  0  0  0  0
  187.4480  177.7960  142.5480 N   0  0  0  0  0  0  0  0  0  0  0  0
  187.8680  177.6400  143.8370 C   0  0  0  0  0  0  0  0  0  0  0  0
  185.7820  178.3340  140.9000 C   0  0  0  0  0  0  0  0  0  0  0  0
  183.0820  179.1570  143.9910 C   0  0  0  0  0  0  0  0  0  0  0  0
  186.3970  177.9520  147.2580 C   0  0  0  0  0  3  0  0  0  0  0  0
  184.8960  178.3600  138.1610 C   0  0  0  0  0  2  0  0  0  0  0  0
  186.7480  178.0290  139.7820 C   0  0  0  0  0  2  0  0  0  0  0  0
  191.5510  178.3380  144.3650 N   0  0  0  0  0  0  0  0  0  0  0  0
  191.7470  175.5100  144.2720 C   0  0  0  0  0  1  0  0  0  0  0  0
  192.2230  179.6280  144.3140 C   0  0  0  0  0  1  0  0  0  0  0  0
  189.2240  175.0800  142.8650 C   0  0  0  0  0  1  0  0  0  0  0  0
  189.3120  177.2990  144.1040 C   0  0  1  0  0  3  0  0  0  0  0  0
  191.9940  177.6150  143.1710 C   0  0  0  0  0  2  0  0  0  0  0  0
  189.9110  176.4360  142.9800 C   0  0  1  0  0  3  0  0  0  0  0  0
  190.1140  178.6040  144.2480 C   0  0  1  0  0  3  0  0  0  0  0  0
  189.6690  179.2870  145.3730 F   0  0  0  0  0  0  0  0  0  0  0  0
  191.3750  176.2900  143.0910 N   0  0  0  0  0  0  0  0  0  0  0  0
  181.7910  179.6030  143.6970 O   0  0  0  0  0  0  0  0  0  0  0  0
  180.6750  178.7280  143.7270 C   0  0  0  0  0  1  0  0  0  0  0  0
  1  3  2  0  0  0  0
  2  4  1  0  0  0  0
  3 18  1  0  0  0  0
  4  1  1  0  0  0  0
  4 10  2  0  0  0  0
  5  2  1  0  0  0  0
  5 17  1  0  0  0  0
  6 20  1  0  0  0  0
  7 14  1  0  0  0  0
  7  2  2  0  0  0  0
  8  9  1  0  0  0  0
  9 16  2  0  0  0  0
  9 11  1  0  0  0  0
 10 13  1  0  0  0  0
 11  5  2  0  0  0  0
 12 10  1  0  0  0  0
 13 18  2  0  0  0  0
 14 15  2  0  0  0  0
 15  1  1  0  0  0  0
 16  7  1  0  0  0  0
 17 12  2  0  0  0  0
 19  6  1  0  0  0  0
 19  8  1  0  0  0  0
 20 16  1  0  0  0  0
 23 21  1  0  0  0  0
 25 15  1  6  0  0  0
 25 28  1  0  0  0  0
 26 21  1  0  0  0  0
 27 24  1  1  0  0  0
 27 30  1  0  0  0  0
 27 25  1  0  0  0  0
 28 21  1  0  0  0  0
 28 29  1  1  0  0  0
 30 26  1  0  0  0  0
 30 22  1  0  0  0  0
 31 32  1  0  0  0  0
 31 17  1  0  0  0  0
M  END
>  <MODEL>
7

>  <REMARK>
 VINA RESULT:      -7.4      3.010      8.060
  Name = 
  2 active torsions:
  status: ('A' for Active; 'I' for Inactive)
    1  A    between atoms: O_13  and  C_29
    2  A    between atoms: C_16  and  C_27
                            x       y       z     vdW  Elec       q    Type
                         _______ _______ _______ _____ _____    ______ ____

>  <TORSDO>
F 2

$$$$
=
 OpenBabel10272402043D

 32 37  0  0  1  0  0  0  0  0999 V2000
  189.2940  177.4500  138.4850 C   0  0  0  0  0  0  0  0  0  0  0  0
  188.6320  177.7450  140.8040 C   0  0  0  0  0  0  0  0  0  0  0  0
  188.9940  177.6110  137.1230 C   0  0  0  0  0  3  0  0  0  0  0  0
  188.3430  177.8430  139.4430 C   0  0  0  0  0  0  0  0  0  0  0  0
  187.6830  178.1310  141.7620 C   0  0  0  0  0  0  0  0  0  0  0  0
  191.4580  176.1070  144.4690 C   0  0  0  0  0  2  0  0  0  0  0  0
  189.8740  177.2470  141.2120 C   0  0  0  0  0  0  0  0  0  0  0  0
  189.4060  177.4070  145.0020 C   0  0  0  0  0  2  0  0  0  0  0  0
  189.1940  177.5860  143.5190 C   0  0  0  0  0  0  0  0  0  0  0  0
  187.1010  178.3700  139.0510 C   0  0  0  0  0  0  0  0  0  0  0  0
  187.9800  178.0280  143.0850 N   0  0  0  0  0  0  0  0  0  0  0  0
  186.1970  178.7420  139.9970 N   0  0  0  0  0  0  0  0  0  0  0  0
  186.8210  178.5380  137.6940 C   0  0  0  0  0  3  0  0  0  0  0  0
  190.7810  176.8600  140.2730 N   0  0  0  0  0  0  0  0  0  0  0  0
  190.5350  176.9540  138.9340 C   0  0  0  0  0  0  0  0  0  0  0  0
  190.1610  177.1420  142.5790 C   0  0  0  0  0  0  0  0  0  0  0  0
  186.4470  178.6170  141.3330 C   0  0  0  0  0  0  0  0  0  0  0  0
  187.7670  178.1600  136.7320 C   0  0  0  0  0  3  0  0  0  0  0  0
  190.8700  177.1810  145.3690 C   0  0  0  0  0  2  0  0  0  0  0  0
  191.5020  176.6210  143.0340 C   0  0  0  0  0  2  0  0  0  0  0  0
  192.1120  174.3830  136.6460 N   0  0  0  0  0  0  0  0  0  0  0  0
  194.2040  176.2950  136.5090 C   0  0  0  0  0  1  0  0  0  0  0  0
  191.6640  173.0190  136.4050 C   0  0  0  0  0  1  0  0  0  0  0  0
  193.5010  177.6870  138.9800 C   0  0  0  0  0  1  0  0  0  0  0  0
  191.5500  176.4120  137.9600 C   0  0  1  0  0  3  0  0  0  0  0  0
  193.3490  174.2590  137.4210 C   0  0  0  0  0  2  0  0  0  0  0  0
  192.9510  176.3190  138.5900 C   0  0  1  0  0  3  0  0  0  0  0  0
  191.0940  175.0220  137.4850 C   0  0  1  0  0  3  0  0  0  0  0  0
  189.9110  175.1540  136.7690 F   0  0  0  0  0  0  0  0  0  0  0  0
  193.9070  175.5740  137.7470 N   0  0  0  0  0  0  0  0  0  0  0  0
  185.4820  178.9800  142.2760 O   0  0  0  0  0  0  0  0  0  0  0  0
  184.2060  178.3610  142.3130 C   0  0  0  0  0  1  0  0  0  0  0  0
  1 15  2  0  0  0  0
  1  4  1  0  0  0  0
  2  7  1  0  0  0  0
  2  5  1  0  0  0  0
  3  1  1  0  0  0  0
  4  2  2  0  0  0  0
  5 11  2  0  0  0  0
  6 19  1  0  0  0  0
  7 16  1  0  0  0  0
  8 19  1  0  0  0  0
  9  8  1  0  0  0  0
 10  4  1  0  0  0  0
 10 12  1  0  0  0  0
 11  9  1  0  0  0  0
 12 17  2  0  0  0  0
 13 10  2  0  0  0  0
 14  7  2  0  0  0  0
 15 14  1  0  0  0  0
 16 20  1  0  0  0  0
 16  9  2  0  0  0  0
 17  5  1  0  0  0  0
 17 31  1  0  0  0  0
 18  3  2  0  0  0  0
 18 13  1  0  0  0  0
 20  6  1  0  0  0  0
 21 26  1  0  0  0  0
 21 28  1  0  0  0  0
 22 30  1  0  0  0  0
 23 21  1  0  0  0  0
 25 27  1  0  0  0  0
 25 15  1  1  0  0  0
 26 30  1  0  0  0  0
 27 24  1  6  0  0  0
 28 29  1  6  0  0  0
 28 25  1  0  0  0  0
 30 27  1  0  0  0  0
 31 32  1  0  0  0  0
M  END
>  <MODEL>
8

>  <REMARK>
 VINA RESULT:      -7.2      3.482      7.425
  Name = 
  2 active torsions:
  status: ('A' for Active; 'I' for Inactive)
    1  A    between atoms: O_13  and  C_29
    2  A    between atoms: C_16  and  C_27
                            x       y       z     vdW  Elec       q    Type
                         _______ _______ _______ _____ _____    ______ ____

>  <TORSDO>
F 2

$$$$
=
 OpenBabel10272402043D

 32 37  0  0  1  0  0  0  0  0999 V2000
  186.4900  178.4810  143.9310 C   0  0  0  0  0  0  0  0  0  0  0  0
  186.9210  178.2990  141.5470 C   0  0  0  0  0  0  0  0  0  0  0  0
  185.5840  178.7570  144.9680 C   0  0  0  0  0  3  0  0  0  0  0  0
  186.0620  178.6160  142.5990 C   0  0  0  0  0  0  0  0  0  0  0  0
  186.4990  178.4380  140.2170 C   0  0  0  0  0  0  0  0  0  0  0  0
  191.4100  177.2390  139.8620 C   0  0  0  0  0  2  0  0  0  0  0  0
  188.2170  177.8510  141.8260 C   0  0  0  0  0  0  0  0  0  0  0  0
  189.5190  177.4230  138.2570 C   0  0  0  0  0  2  0  0  0  0  0  0
  188.6050  177.6480  139.4360 C   0  0  0  0  0  0  0  0  0  0  0  0
  184.7560  179.0390  142.3020 C   0  0  0  0  0  0  0  0  0  0  0  0
  187.3500  178.1260  139.2030 N   0  0  0  0  0  0  0  0  0  0  0  0
  184.3660  179.1630  141.0040 N   0  0  0  0  0  0  0  0  0  0  0  0
  183.8600  179.2960  143.3410 C   0  0  0  0  0  3  0  0  0  0  0  0
  188.6220  177.7360  143.1210 N   0  0  0  0  0  0  0  0  0  0  0  0
  187.8020  178.0260  144.1720 C   0  0  0  0  0  0  0  0  0  0  0  0
  189.0820  177.5400  140.7690 C   0  0  0  0  0  0  0  0  0  0  0  0
  185.2050  178.8950  139.9610 C   0  0  0  0  0  0  0  0  0  0  0  0
  184.2750  179.1530  144.6720 C   0  0  0  0  0  3  0  0  0  0  0  0
  190.7740  176.6340  138.6230 C   0  0  0  0  0  2  0  0  0  0  0  0
  190.4780  177.0420  141.0540 C   0  0  0  0  0  2  0  0  0  0  0  0
  190.4150  177.4080  146.8410 N   0  0  0  0  0  0  0  0  0  0  0  0
  188.2320  177.8600  148.5960 C   0  0  0  0  0  1  0  0  0  0  0  0
  191.7710  176.9130  146.6540 C   0  0  0  0  0  1  0  0  0  0  0  0
  186.1450  177.2880  146.6320 C   0  0  0  0  0  1  0  0  0  0  0  0
  188.3560  177.9680  145.5740 C   0  0  1  0  0  3  0  0  0  0  0  0
  189.6840  176.3180  147.4910 C   0  0  0  0  0  2  0  0  0  0  0  0
  187.6150  176.9320  146.4380 C   0  0  1  0  0  3  0  0  0  0  0  0
  189.8530  177.6200  145.5040 C   0  0  1  0  0  3  0  0  0  0  0  0
  190.5290  178.6550  144.8690 F   0  0  0  0  0  0  0  0  0  0  0  0
  188.2850  176.6830  147.7280 N   0  0  0  0  0  0  0  0  0  0  0  0
  184.7800  179.0640  138.6420 O   0  0  0  0  0  0  0  0  0  0  0  0
  183.7710  178.2440  138.0730 C   0  0  0  0  0  1  0  0  0  0  0  0
  1 15  1  0  0  0  0
  1  3  2  0  0  0  0
  2  7  1  0  0  0  0
  2  4  1  0  0  0  0
  4  1  1  0  0  0  0
  5  2  2  0  0  0  0
  6 20  1  0  0  0  0
  7 14  1  0  0  0  0
  8 19  1  0  0  0  0
  8  9  1  0  0  0  0
  9 16  1  0  0  0  0
 10  4  2  0  0  0  0
 10 13  1  0  0  0  0
 11  9  2  0  0  0  0
 11  5  1  0  0  0  0
 12 10  1  0  0  0  0
 13 18  2  0  0  0  0
 14 15  2  0  0  0  0
 16 20  1  0  0  0  0
 16  7  2  0  0  0  0
 17  5  1  0  0  0  0
 17 12  2  0  0  0  0
 18  3  1  0  0  0  0
 19  6  1  0  0  0  0
 21 26  1  0  0  0  0
 23 21  1  0  0  0  0
 25 15  1  6  0  0  0
 25 27  1  0  0  0  0
 26 30  1  0  0  0  0
 27 24  1  1  0  0  0
 27 30  1  0  0  0  0
 28 29  1  1  0  0  0
 28 25  1  0  0  0  0
 28 21  1  0  0  0  0
 30 22  1  0  0  0  0
 31 17  1  0  0  0  0
 32 31  1  0  0  0  0
M  END
>  <MODEL>
9

>  <REMARK>
 VINA RESULT:      -6.9      3.001      8.175
  Name = 
  2 active torsions:
  status: ('A' for Active; 'I' for Inactive)
    1  A    between atoms: O_13  and  C_29
    2  A    between atoms: C_16  and  C_27
                            x       y       z     vdW  Elec       q    Type
                         _______ _______ _______ _____ _____    ______ ____

>  <TORSDO>
F 2

$$$$
