=
 OpenBabel10262423503D

 34 39  0  0  1  0  0  0  0  0999 V2000
  185.5940  178.0300  144.1070 C   0  0  0  0  0  0  0  0  0  0  0  0
  185.6940  178.9560  141.8650 C   0  0  0  0  0  0  0  0  0  0  0  0
  187.7050  177.7920  142.8830 C   0  0  0  0  0  0  0  0  0  0  0  0
  189.7900  177.2170  141.7850 C   0  0  0  0  0  0  0  0  0  0  0  0
  183.5880  178.8870  143.0670 C   0  0  0  0  0  3  0  0  0  0  0  0
  184.3250  179.2260  141.9360 C   0  0  0  0  0  3  0  0  0  0  0  0
  187.9750  177.5780  140.4330 N   0  0  0  0  0  0  0  0  0  0  0  0
  186.3420  178.2410  142.9150 C   0  0  0  0  0  0  0  0  0  0  0  0
  188.7180  177.2120  138.1290 N   0  0  0  0  0  2  0  0  0  0  0  0
  190.4320  176.9450  140.2590 S   0  0  0  0  0  0  0  0  0  0  0  0
  184.2290  178.3180  144.1610 C   0  0  0  0  0  3  0  0  0  0  0  0
  188.3450  177.4300  144.1140 C   0  0  0  0  0  0  0  0  0  0  0  0
  186.2120  177.5740  145.2650 C   0  0  0  0  0  3  0  0  0  0  0  0
  186.3900  179.5070  140.7980 O   0  0  0  0  0  1  0  0  0  0  0  0
  190.4140  176.9970  142.9600 N   0  0  0  0  0  0  0  0  0  0  0  0
  189.7350  177.1020  144.1370 C   0  0  0  0  0  0  0  0  0  0  0  0
  188.9430  177.2730  139.5350 C   0  0  0  0  0  0  0  0  0  0  0  0
  188.4590  177.5830  141.7020 C   0  0  0  0  0  0  0  0  0  0  0  0
  187.5740  177.3100  145.2740 C   0  0  0  0  0  3  0  0  0  0  0  0
  190.9470  177.2550  147.7400 C   0  0  0  0  0  0  0  0  0  0  0  0
  191.9950  176.3330  147.7110 C   0  0  0  0  0  3  0  0  0  0  0  0
  190.4880  176.8260  145.3880 C   0  0  0  0  0  0  0  0  0  0  0  0
  192.3000  175.6620  146.5240 C   0  0  0  0  0  3  0  0  0  0  0  0
  190.2030  177.5050  146.5840 C   0  0  0  0  0  3  0  0  0  0  0  0
  191.5530  175.9120  145.3690 C   0  0  0  0  0  3  0  0  0  0  0  0
  190.6550  177.9120  148.8890 F   0  0  0  0  0  0  0  0  0  0  0  0
  187.4140  177.4960  137.5540 C   0  0  0  0  0  2  0  0  0  0  0  0
  184.6750  177.0680  136.6450 F   0  0  0  0  0  0  0  0  0  0  0  0
  186.9600  176.3350  136.6850 C   0  0  2  0  0  3  0  0  0  0  0  0
  185.4860  175.9900  136.9500 C   0  0  2  0  0  3  0  0  0  0  0  0
  185.7710  173.7650  136.6680 C   0  0  0  0  0  2  0  0  0  0  0  0
  187.2600  173.8650  136.3450 C   0  0  0  0  0  2  0  0  0  0  0  0
  187.8230  175.1170  137.0100 C   0  0  0  0  0  2  0  0  0  0  0  0
  185.0980  174.8900  136.1610 O   0  0  0  0  0  0  0  0  0  0  0  0
  1 11  1  0  0  0  0
  1 13  1  0  0  0  0
  2  6  2  0  0  0  0
  2  8  1  0  0  0  0
  3  8  1  0  0  0  0
  3 12  1  0  0  0  0
  4 15  2  0  0  0  0
  5 11  2  0  0  0  0
  6  5  1  0  0  0  0
  7 18  1  0  0  0  0
  8  1  2  0  0  0  0
  9 17  1  0  0  0  0
 10  4  1  0  0  0  0
 12 16  2  0  0  0  0
 12 19  1  0  0  0  0
 13 19  2  0  0  0  0
 14  2  1  0  0  0  0
 15 16  1  0  0  0  0
 16 22  1  0  0  0  0
 17 10  1  0  0  0  0
 17  7  2  0  0  0  0
 18  4  1  0  0  0  0
 18  3  2  0  0  0  0
 20 26  1  0  0  0  0
 21 20  1  0  0  0  0
 22 24  1  0  0  0  0
 23 21  2  0  0  0  0
 24 20  2  0  0  0  0
 25 22  2  0  0  0  0
 25 23  1  0  0  0  0
 27  9  1  0  0  0  0
 29 30  1  0  0  0  0
 29 33  1  0  0  0  0
 29 27  1  1  0  0  0
 30 28  1  6  0  0  0
 32 31  1  0  0  0  0
 32 33  1  0  0  0  0
 34 31  1  0  0  0  0
 34 30  1  0  0  0  0
M  END
>  <MODEL>
1

>  <REMARK>
 VINA RESULT:     -10.3      0.000      0.000
  Name = 
  3 active torsions:
  status: ('A' for Active; 'I' for Inactive)
    1  A    between atoms: C_3  and  C_13
    2  A    between atoms: C_3  and  N_17
    3  A    between atoms: C_12  and  C_28
                            x       y       z     vdW  Elec       q    Type
                         _______ _______ _______ _____ _____    ______ ____

>  <TORSDO>
F 3

$$$$
=
 OpenBabel10262423503D

 34 39  0  0  1  0  0  0  0  0999 V2000
  182.7330  178.7910  141.6930 C   0  0  0  0  0  0  0  0  0  0  0  0
  183.6390  179.5860  139.5860 C   0  0  0  0  0  0  0  0  0  0  0  0
  185.1680  178.7160  141.4140 C   0  0  0  0  0  0  0  0  0  0  0  0
  187.5550  178.3130  141.2740 C   0  0  0  0  0  0  0  0  0  0  0  0
  181.2420  179.3560  139.8770 C   0  0  0  0  0  3  0  0  0  0  0  0
  182.3370  179.7070  139.0930 C   0  0  0  0  0  3  0  0  0  0  0  0
  186.4010  178.3880  139.2950 N   0  0  0  0  0  0  0  0  0  0  0  0
  183.8720  179.0120  140.8700 C   0  0  0  0  0  0  0  0  0  0  0  0
  188.0220  177.9710  137.5080 N   0  0  0  0  0  2  0  0  0  0  0  0
  188.7680  178.0240  140.1510 S   0  0  0  0  0  0  0  0  0  0  0  0
  181.4400  178.9270  141.1840 C   0  0  0  0  0  3  0  0  0  0  0  0
  185.2940  178.5020  142.8260 C   0  0  0  0  0  0  0  0  0  0  0  0
  182.8760  178.4760  143.0390 C   0  0  0  0  0  3  0  0  0  0  0  0
  184.6550  180.1470  138.8240 O   0  0  0  0  0  1  0  0  0  0  0  0
  187.6790  178.2350  142.6140 N   0  0  0  0  0  0  0  0  0  0  0  0
  186.5830  178.3330  143.4190 C   0  0  0  0  0  0  0  0  0  0  0  0
  187.6670  178.1400  138.8780 C   0  0  0  0  0  0  0  0  0  0  0  0
  186.3410  178.5230  140.6450 C   0  0  0  0  0  0  0  0  0  0  0  0
  184.1390  178.3660  143.6020 C   0  0  0  0  0  3  0  0  0  0  0  0
  187.9960  177.3110  146.8010 C   0  0  0  0  0  0  0  0  0  0  0  0
  187.1140  177.9610  147.6670 C   0  0  0  0  0  3  0  0  0  0  0  0
  186.7980  178.2180  144.8850 C   0  0  0  0  0  0  0  0  0  0  0  0
  186.0690  178.7300  147.1500 C   0  0  0  0  0  3  0  0  0  0  0  0
  187.8350  177.4340  145.4180 C   0  0  0  0  0  3  0  0  0  0  0  0
  185.9100  178.8530  145.7680 C   0  0  0  0  0  3  0  0  0  0  0  0
  189.0060  176.5590  147.3000 F   0  0  0  0  0  0  0  0  0  0  0  0
  187.0340  178.0730  136.4470 C   0  0  0  0  0  2  0  0  0  0  0  0
  184.3040  177.0610  136.6170 F   0  0  0  0  0  0  0  0  0  0  0  0
  186.5950  176.6880  136.0050 C   0  0  2  0  0  3  0  0  0  0  0  0
  185.3770  176.2110  136.8140 C   0  0  2  0  0  3  0  0  0  0  0  0
  186.0260  174.0450  136.8510 C   0  0  0  0  0  2  0  0  0  0  0  0
  187.2910  174.2750  136.0280 C   0  0  0  0  0  2  0  0  0  0  0  0
  187.7520  175.7150  136.2270 C   0  0  0  0  0  2  0  0  0  0  0  0
  185.0100  174.9130  136.4120 O   0  0  0  0  0  0  0  0  0  0  0  0
  1 13  1  0  0  0  0
  2  8  1  0  0  0  0
  3 12  1  0  0  0  0
  4 15  2  0  0  0  0
  5 11  2  0  0  0  0
  6  2  2  0  0  0  0
  6  5  1  0  0  0  0
  7 18  1  0  0  0  0
  8  3  1  0  0  0  0
  8  1  2  0  0  0  0
  9 17  1  0  0  0  0
 10  4  1  0  0  0  0
 11  1  1  0  0  0  0
 12 16  2  0  0  0  0
 12 19  1  0  0  0  0
 13 19  2  0  0  0  0
 14  2  1  0  0  0  0
 15 16  1  0  0  0  0
 16 22  1  0  0  0  0
 17  7  2  0  0  0  0
 17 10  1  0  0  0  0
 18  4  1  0  0  0  0
 18  3  2  0  0  0  0
 20 26  1  0  0  0  0
 20 21  1  0  0  0  0
 22 24  1  0  0  0  0
 22 25  2  0  0  0  0
 23 21  2  0  0  0  0
 24 20  2  0  0  0  0
 25 23  1  0  0  0  0
 27  9  1  0  0  0  0
 29 33  1  0  0  0  0
 29 27  1  1  0  0  0
 29 30  1  0  0  0  0
 30 28  1  6  0  0  0
 32 33  1  0  0  0  0
 32 31  1  0  0  0  0
 34 30  1  0  0  0  0
 34 31  1  0  0  0  0
M  END
>  <MODEL>
2

>  <REMARK>
 VINA RESULT:     -10.2      2.031      3.199
  Name = 
  3 active torsions:
  status: ('A' for Active; 'I' for Inactive)
    1  A    between atoms: C_3  and  C_13
    2  A    between atoms: C_3  and  N_17
    3  A    between atoms: C_12  and  C_28
                            x       y       z     vdW  Elec       q    Type
                         _______ _______ _______ _____ _____    ______ ____

>  <TORSDO>
F 3

$$$$
=
 OpenBabel10262423503D

 34 39  0  0  1  0  0  0  0  0999 V2000
  186.6870  178.1380  145.6630 C   0  0  0  0  0  0  0  0  0  0  0  0
  188.4190  176.9830  144.4140 C   0  0  0  0  0  0  0  0  0  0  0  0
  186.4100  177.9840  143.2320 C   0  0  0  0  0  0  0  0  0  0  0  0
  186.0490  178.1770  140.8420 C   0  0  0  0  0  0  0  0  0  0  0  0
  188.7140  177.4370  146.7790 C   0  0  0  0  0  3  0  0  0  0  0  0
  189.1780  176.8950  145.5840 C   0  0  0  0  0  3  0  0  0  0  0  0
  188.2150  177.9100  141.5420 N   0  0  0  0  0  0  0  0  0  0  0  0
  187.1960  177.7140  144.4030 C   0  0  0  0  0  0  0  0  0  0  0  0
  189.6220  177.9420  139.5380 N   0  0  0  0  0  2  0  0  0  0  0  0
  186.8910  178.2080  139.3910 S   0  0  0  0  0  0  0  0  0  0  0  0
  187.4580  178.0310  146.8230 C   0  0  0  0  0  3  0  0  0  0  0  0
  185.0430  178.3860  143.3910 C   0  0  0  0  0  0  0  0  0  0  0  0
  185.3930  178.6300  145.7820 C   0  0  0  0  0  3  0  0  0  0  0  0
  188.8550  176.2430  143.3240 O   0  0  0  0  0  1  0  0  0  0  0  0
  184.7360  178.4360  141.0030 N   0  0  0  0  0  0  0  0  0  0  0  0
  184.1970  178.5380  142.2510 C   0  0  0  0  0  0  0  0  0  0  0  0
  188.3590  177.9980  140.1970 C   0  0  0  0  0  0  0  0  0  0  0  0
  186.9080  177.9740  141.9070 C   0  0  0  0  0  0  0  0  0  0  0  0
  184.5750  178.7210  144.6660 C   0  0  0  0  0  3  0  0  0  0  0  0
  180.6790  179.0060  143.6230 C   0  0  0  0  0  0  0  0  0  0  0  0
  179.9820  179.3510  142.4630 C   0  0  0  0  0  3  0  0  0  0  0  0
  182.7450  178.8440  142.3460 C   0  0  0  0  0  0  0  0  0  0  0  0
  180.6570  179.4350  141.2430 C   0  0  0  0  0  3  0  0  0  0  0  0
  182.0510  178.7480  143.5630 C   0  0  0  0  0  3  0  0  0  0  0  0
  182.0300  179.1780  141.1850 C   0  0  0  0  0  3  0  0  0  0  0  0
  180.0240  178.9160  144.8060 F   0  0  0  0  0  0  0  0  0  0  0  0
  190.8600  177.7660  140.2780 C   0  0  0  0  0  2  0  0  0  0  0  0
  193.7740  177.6430  140.3080 F   0  0  0  0  0  0  0  0  0  0  0  0
  191.6870  176.6520  139.6600 C   0  0  2  0  0  3  0  0  0  0  0  0
  193.0660  177.1670  139.2190 C   0  0  2  0  0  3  0  0  0  0  0  0
  193.1760  175.8410  137.3910 C   0  0  0  0  0  2  0  0  0  0  0  0
  191.8320  175.1630  137.6420 C   0  0  0  0  0  2  0  0  0  0  0  0
  190.9430  176.1130  138.4390 C   0  0  0  0  0  2  0  0  0  0  0  0
  193.8010  176.1280  138.6180 O   0  0  0  0  0  0  0  0  0  0  0  0
  1 13  1  0  0  0  0
  1 11  2  0  0  0  0
  2  6  1  0  0  0  0
  3 12  1  0  0  0  0
  3  8  1  0  0  0  0
  4 15  2  0  0  0  0
  4 18  1  0  0  0  0
  5 11  1  0  0  0  0
  6  5  2  0  0  0  0
  7 18  1  0  0  0  0
  8  2  2  0  0  0  0
  8  1  1  0  0  0  0
  9 17  1  0  0  0  0
  9 27  1  0  0  0  0
 10 17  1  0  0  0  0
 10  4  1  0  0  0  0
 12 19  1  0  0  0  0
 14  2  1  0  0  0  0
 15 16  1  0  0  0  0
 16 22  1  0  0  0  0
 16 12  2  0  0  0  0
 17  7  2  0  0  0  0
 18  3  2  0  0  0  0
 19 13  2  0  0  0  0
 20 26  1  0  0  0  0
 21 20  2  0  0  0  0
 22 24  2  0  0  0  0
 23 21  1  0  0  0  0
 24 20  1  0  0  0  0
 25 23  2  0  0  0  0
 25 22  1  0  0  0  0
 29 27  1  6  0  0  0
 30 29  1  0  0  0  0
 30 28  1  1  0  0  0
 31 32  1  0  0  0  0
 31 34  1  0  0  0  0
 32 33  1  0  0  0  0
 33 29  1  0  0  0  0
 34 30  1  0  0  0  0
M  END
>  <MODEL>
3

>  <REMARK>
 VINA RESULT:     -10.0      3.714      6.788
  Name = 
  3 active torsions:
  status: ('A' for Active; 'I' for Inactive)
    1  A    between atoms: C_3  and  C_13
    2  A    between atoms: C_3  and  N_17
    3  A    between atoms: C_12  and  C_28
                            x       y       z     vdW  Elec       q    Type
                         _______ _______ _______ _____ _____    ______ ____

>  <TORSDO>
F 3

$$$$
=
 OpenBabel10262423503D

 34 39  0  0  1  0  0  0  0  0999 V2000
  184.3590  178.7300  144.5980 C   0  0  0  0  0  0  0  0  0  0  0  0
  186.5190  177.7180  145.0500 C   0  0  0  0  0  0  0  0  0  0  0  0
  185.8480  178.3550  142.6880 C   0  0  0  0  0  0  0  0  0  0  0  0
  187.2350  178.3160  140.6990 C   0  0  0  0  0  0  0  0  0  0  0  0
  185.0750  178.3860  146.8810 C   0  0  0  0  0  3  0  0  0  0  0  0
  186.2590  177.8190  146.4190 C   0  0  0  0  0  3  0  0  0  0  0  0
  188.3220  178.3880  142.7150 N   0  0  0  0  0  0  0  0  0  0  0  0
  185.6150  178.2810  144.1020 C   0  0  0  0  0  0  0  0  0  0  0  0
  190.7210  178.4490  142.2310 N   0  0  0  0  0  2  0  0  0  0  0  0
  188.8450  178.3460  140.2270 S   0  0  0  0  0  0  0  0  0  0  0  0
  184.1160  178.8130  145.9710 C   0  0  0  0  0  3  0  0  0  0  0  0
  184.7370  178.5870  141.8120 C   0  0  0  0  0  0  0  0  0  0  0  0
  183.3240  179.0570  143.7300 C   0  0  0  0  0  3  0  0  0  0  0  0
  187.6180  176.9600  144.6720 O   0  0  0  0  0  1  0  0  0  0  0  0
  186.1670  178.4140  139.8820 N   0  0  0  0  0  0  0  0  0  0  0  0
  184.9110  178.5400  140.3950 C   0  0  0  0  0  0  0  0  0  0  0  0
  189.3530  178.3910  141.8360 C   0  0  0  0  0  0  0  0  0  0  0  0
  187.1250  178.3090  142.0770 C   0  0  0  0  0  0  0  0  0  0  0  0
  183.5030  178.9550  142.3590 C   0  0  0  0  0  3  0  0  0  0  0  0
  182.1990  180.0020  138.1610 C   0  0  0  0  0  0  0  0  0  0  0  0
  181.6020  178.8400  137.6680 C   0  0  0  0  0  3  0  0  0  0  0  0
  183.7860  178.6610  139.4300 C   0  0  0  0  0  0  0  0  0  0  0  0
  182.0850  177.5890  138.0590 C   0  0  0  0  0  3  0  0  0  0  0  0
  183.2810  179.9120  139.0420 C   0  0  0  0  0  3  0  0  0  0  0  0
  183.1670  177.5010  138.9390 C   0  0  0  0  0  3  0  0  0  0  0  0
  181.7280  181.2160  137.7890 F   0  0  0  0  0  0  0  0  0  0  0  0
  191.1080  178.4940  143.6320 C   0  0  0  0  0  2  0  0  0  0  0  0
  190.0980  178.0500  146.3320 F   0  0  0  0  0  0  0  0  0  0  0  0
  190.9150  177.1290  144.2720 C   0  0  2  0  0  3  0  0  0  0  0  0
  191.0600  177.2110  145.8000 C   0  0  2  0  0  3  0  0  0  0  0  0
  192.0440  175.1840  145.9940 C   0  0  0  0  0  2  0  0  0  0  0  0
  191.9820  174.8670  144.5010 C   0  0  0  0  0  2  0  0  0  0  0  0
  191.9760  176.1780  143.7210 C   0  0  0  0  0  2  0  0  0  0  0  0
  190.9130  175.9310  146.3680 O   0  0  0  0  0  0  0  0  0  0  0  0
  1 11  2  0  0  0  0
  2  6  1  0  0  0  0
  3  8  1  0  0  0  0
  4 18  2  0  0  0  0
  6  5  2  0  0  0  0
  8  1  1  0  0  0  0
  8  2  2  0  0  0  0
  9 27  1  0  0  0  0
 10  4  1  0  0  0  0
 10 17  1  0  0  0  0
 11  5  1  0  0  0  0
 12 19  1  0  0  0  0
 12  3  2  0  0  0  0
 13  1  1  0  0  0  0
 14  2  1  0  0  0  0
 15 16  2  0  0  0  0
 15  4  1  0  0  0  0
 16 12  1  0  0  0  0
 17  9  1  0  0  0  0
 17  7  2  0  0  0  0
 18  3  1  0  0  0  0
 18  7  1  0  0  0  0
 19 13  2  0  0  0  0
 20 24  1  0  0  0  0
 21 23  1  0  0  0  0
 21 20  2  0  0  0  0
 22 16  1  0  0  0  0
 23 25  2  0  0  0  0
 24 22  2  0  0  0  0
 25 22  1  0  0  0  0
 26 20  1  0  0  0  0
 29 27  1  6  0  0  0
 29 30  1  0  0  0  0
 30 28  1  1  0  0  0
 30 34  1  0  0  0  0
 31 34  1  0  0  0  0
 32 31  1  0  0  0  0
 33 29  1  0  0  0  0
 33 32  1  0  0  0  0
M  END
>  <MODEL>
4

>  <REMARK>
 VINA RESULT:      -9.9      3.084      7.941
  Name = 
  3 active torsions:
  status: ('A' for Active; 'I' for Inactive)
    1  A    between atoms: C_3  and  C_13
    2  A    between atoms: C_3  and  N_17
    3  A    between atoms: C_12  and  C_28
                            x       y       z     vdW  Elec       q    Type
                         _______ _______ _______ _____ _____    ______ ____

>  <TORSDO>
F 3

$$$$
=
 OpenBabel10262423503D

 34 39  0  0  1  0  0  0  0  0999 V2000
  189.4300  177.2010  145.8510 C   0  0  0  0  0  0  0  0  0  0  0  0
  190.8230  176.1510  144.1610 C   0  0  0  0  0  0  0  0  0  0  0  0
  188.6790  177.3460  143.5210 C   0  0  0  0  0  0  0  0  0  0  0  0
  187.8710  177.8340  141.2870 C   0  0  0  0  0  0  0  0  0  0  0  0
  191.5950  176.3110  146.4550 C   0  0  0  0  0  3  0  0  0  0  0  0
  191.7890  175.9010  145.1390 C   0  0  0  0  0  3  0  0  0  0  0  0
  190.1150  177.4200  141.5080 N   0  0  0  0  0  0  0  0  0  0  0  0
  189.6610  176.9150  144.4760 C   0  0  0  0  0  0  0  0  0  0  0  0
  191.1050  177.6480  139.2810 N   0  0  0  0  0  2  0  0  0  0  0  0
  188.4160  178.0130  139.7100 S   0  0  0  0  0  0  0  0  0  0  0  0
  190.4050  176.9320  146.8140 C   0  0  0  0  0  3  0  0  0  0  0  0
  187.3920  177.7680  143.9930 C   0  0  0  0  0  0  0  0  0  0  0  0
  188.2120  177.7140  146.2780 C   0  0  0  0  0  3  0  0  0  0  0  0
  190.9990  175.5330  142.9310 O   0  0  0  0  0  1  0  0  0  0  0  0
  186.6300  178.1120  141.7340 N   0  0  0  0  0  0  0  0  0  0  0  0
  186.3500  178.0810  143.0680 C   0  0  0  0  0  0  0  0  0  0  0  0
  189.9990  177.6630  140.1800 C   0  0  0  0  0  0  0  0  0  0  0  0
  188.9090  177.4800  142.1310 C   0  0  0  0  0  0  0  0  0  0  0  0
  187.1980  177.9620  145.3650 C   0  0  0  0  0  3  0  0  0  0  0  0
  182.6120  178.7880  142.9700 C   0  0  0  0  0  0  0  0  0  0  0  0
  182.3710  179.1420  144.2990 C   0  0  0  0  0  3  0  0  0  0  0  0
  184.9630  178.4170  143.4840 C   0  0  0  0  0  0  0  0  0  0  0  0
  183.4210  179.1440  145.2210 C   0  0  0  0  0  3  0  0  0  0  0  0
  183.9020  178.4340  142.5640 C   0  0  0  0  0  3  0  0  0  0  0  0
  184.7090  178.7880  144.8140 C   0  0  0  0  0  3  0  0  0  0  0  0
  181.5970  178.7930  142.0730 F   0  0  0  0  0  0  0  0  0  0  0  0
  192.4520  177.3480  139.7360 C   0  0  0  0  0  2  0  0  0  0  0  0
  194.9810  176.0290  140.3460 F   0  0  0  0  0  0  0  0  0  0  0  0
  192.9930  176.1300  139.0070 C   0  0  2  0  0  3  0  0  0  0  0  0
  194.5290  176.1020  139.0410 C   0  0  2  0  0  3  0  0  0  0  0  0
  194.7370  175.2180  136.9700 C   0  0  0  0  0  2  0  0  0  0  0  0
  193.2340  175.1220  136.7190 C   0  0  0  0  0  2  0  0  0  0  0  0
  192.5280  176.1860  137.5520 C   0  0  0  0  0  2  0  0  0  0  0  0
  195.0080  174.9850  138.3300 O   0  0  0  0  0  0  0  0  0  0  0  0
  1 13  1  0  0  0  0
  1 11  2  0  0  0  0
  2  8  2  0  0  0  0
  2  6  1  0  0  0  0
  3 12  1  0  0  0  0
  3  8  1  0  0  0  0
  4 15  2  0  0  0  0
  4 18  1  0  0  0  0
  5 11  1  0  0  0  0
  6  5  2  0  0  0  0
  7 18  1  0  0  0  0
  8  1  1  0  0  0  0
  9 27  1  0  0  0  0
  9 17  1  0  0  0  0
 10 17  1  0  0  0  0
 10  4  1  0  0  0  0
 12 19  1  0  0  0  0
 14  2  1  0  0  0  0
 15 16  1  0  0  0  0
 16 22  1  0  0  0  0
 16 12  2  0  0  0  0
 17  7  2  0  0  0  0
 18  3  2  0  0  0  0
 19 13  2  0  0  0  0
 20 21  1  0  0  0  0
 21 23  2  0  0  0  0
 22 25  2  0  0  0  0
 24 20  2  0  0  0  0
 24 22  1  0  0  0  0
 25 23  1  0  0  0  0
 26 20  1  0  0  0  0
 29 30  1  0  0  0  0
 29 27  1  1  0  0  0
 30 28  1  1  0  0  0
 31 34  1  0  0  0  0
 32 31  1  0  0  0  0
 32 33  1  0  0  0  0
 33 29  1  0  0  0  0
 34 30  1  0  0  0  0
M  END
>  <MODEL>
5

>  <REMARK>
 VINA RESULT:      -9.8      3.721      6.615
  Name = 
  3 active torsions:
  status: ('A' for Active; 'I' for Inactive)
    1  A    between atoms: C_3  and  C_13
    2  A    between atoms: C_3  and  N_17
    3  A    between atoms: C_12  and  C_28
                            x       y       z     vdW  Elec       q    Type
                         _______ _______ _______ _____ _____    ______ ____

>  <TORSDO>
F 3

$$$$
=
 OpenBabel10262423503D

 34 39  0  0  1  0  0  0  0  0999 V2000
  187.5990  178.4190  139.4670 C   0  0  0  0  0  0  0  0  0  0  0  0
  185.6920  177.9090  138.0530 C   0  0  0  0  0  0  0  0  0  0  0  0
  185.3870  178.4000  140.5220 C   0  0  0  0  0  0  0  0  0  0  0  0
  183.2990  178.6870  141.7230 C   0  0  0  0  0  0  0  0  0  0  0  0
  187.8900  178.2250  137.0750 C   0  0  0  0  0  3  0  0  0  0  0  0
  186.5340  177.9390  136.9380 C   0  0  0  0  0  3  0  0  0  0  0  0
  183.2340  178.9820  139.4510 N   0  0  0  0  0  0  0  0  0  0  0  0
  186.1900  178.2640  139.3400 C   0  0  0  0  0  0  0  0  0  0  0  0
  180.9310  179.5800  138.8750 N   0  0  0  0  0  2  0  0  0  0  0  0
  181.6870  179.0780  141.4680 S   0  0  0  0  0  0  0  0  0  0  0  0
  188.4240  178.4340  138.3400 C   0  0  0  0  0  3  0  0  0  0  0  0
  186.0300  178.3860  141.8040 C   0  0  0  0  0  0  0  0  0  0  0  0
  188.1970  178.5140  140.7170 C   0  0  0  0  0  3  0  0  0  0  0  0
  184.4090  177.4170  137.8590 O   0  0  0  0  0  1  0  0  0  0  0  0
  183.9020  178.5500  142.9210 N   0  0  0  0  0  0  0  0  0  0  0  0
  185.2530  178.3900  143.0030 C   0  0  0  0  0  0  0  0  0  0  0  0
  181.9480  179.2210  139.8060 C   0  0  0  0  0  0  0  0  0  0  0  0
  183.9920  178.6440  140.5270 C   0  0  0  0  0  0  0  0  0  0  0  0
  187.4250  178.4650  141.8680 C   0  0  0  0  0  3  0  0  0  0  0  0
  187.5810  177.4540  145.8640 C   0  0  0  0  0  0  0  0  0  0  0  0
  186.8890  177.9810  146.9560 C   0  0  0  0  0  3  0  0  0  0  0  0
  185.8470  178.2660  144.3600 C   0  0  0  0  0  0  0  0  0  0  0  0
  185.6730  178.6410  146.7590 C   0  0  0  0  0  3  0  0  0  0  0  0
  187.0590  177.5910  144.5740 C   0  0  0  0  0  3  0  0  0  0  0  0
  185.1540  178.7780  145.4690 C   0  0  0  0  0  3  0  0  0  0  0  0
  188.7560  176.8080  146.0540 F   0  0  0  0  0  0  0  0  0  0  0  0
  181.2070  179.6980  137.4530 C   0  0  0  0  0  2  0  0  0  0  0  0
  180.2560  179.9430  134.7060 F   0  0  0  0  0  0  0  0  0  0  0  0
  180.5100  180.9210  136.8830 C   0  0  2  0  0  3  0  0  0  0  0  0
  180.7600  181.0450  135.3710 C   0  0  2  0  0  3  0  0  0  0  0  0
  180.8400  183.3050  135.3900 C   0  0  0  0  0  2  0  0  0  0  0  0
  180.5720  183.4320  136.8870 C   0  0  0  0  0  2  0  0  0  0  0  0
  181.0580  182.1640  137.5820 C   0  0  0  0  0  2  0  0  0  0  0  0
  180.1350  182.2040  134.8720 O   0  0  0  0  0  0  0  0  0  0  0  0
  1 13  1  0  0  0  0
  2  8  1  0  0  0  0
  3 18  2  0  0  0  0
  3 12  1  0  0  0  0
  4 15  2  0  0  0  0
  5 11  2  0  0  0  0
  6  5  1  0  0  0  0
  6  2  2  0  0  0  0
  7 17  2  0  0  0  0
  7 18  1  0  0  0  0
  8  1  2  0  0  0  0
  8  3  1  0  0  0  0
  9 17  1  0  0  0  0
 10  4  1  0  0  0  0
 11  1  1  0  0  0  0
 12 19  1  0  0  0  0
 12 16  2  0  0  0  0
 13 19  2  0  0  0  0
 14  2  1  0  0  0  0
 15 16  1  0  0  0  0
 16 22  1  0  0  0  0
 17 10  1  0  0  0  0
 18  4  1  0  0  0  0
 20 26  1  0  0  0  0
 20 21  1  0  0  0  0
 22 24  1  0  0  0  0
 22 25  2  0  0  0  0
 23 21  2  0  0  0  0
 24 20  2  0  0  0  0
 25 23  1  0  0  0  0
 27  9  1  0  0  0  0
 29 27  1  1  0  0  0
 29 33  1  0  0  0  0
 30 28  1  6  0  0  0
 30 29  1  0  0  0  0
 31 32  1  0  0  0  0
 32 33  1  0  0  0  0
 34 30  1  0  0  0  0
 34 31  1  0  0  0  0
M  END
>  <MODEL>
6

>  <REMARK>
 VINA RESULT:      -9.4      4.410      6.524
  Name = 
  3 active torsions:
  status: ('A' for Active; 'I' for Inactive)
    1  A    between atoms: C_3  and  C_13
    2  A    between atoms: C_3  and  N_17
    3  A    between atoms: C_12  and  C_28
                            x       y       z     vdW  Elec       q    Type
                         _______ _______ _______ _____ _____    ______ ____

>  <TORSDO>
F 3

$$$$
=
 OpenBabel10262423503D

 34 39  0  0  1  0  0  0  0  0999 V2000
  191.8030  177.3440  141.1930 C   0  0  0  0  0  0  0  0  0  0  0  0
  190.4060  176.8070  139.2810 C   0  0  0  0  0  0  0  0  0  0  0  0
  189.3760  177.5360  141.4810 C   0  0  0  0  0  0  0  0  0  0  0  0
  187.0450  178.0390  141.9250 C   0  0  0  0  0  0  0  0  0  0  0  0
  192.8180  176.9180  139.0400 C   0  0  0  0  0  3  0  0  0  0  0  0
  191.5570  176.6910  138.4960 C   0  0  0  0  0  3  0  0  0  0  0  0
  187.7240  178.1290  139.7380 N   0  0  0  0  0  0  0  0  0  0  0  0
  190.4980  177.2520  140.6320 C   0  0  0  0  0  0  0  0  0  0  0  0
  185.7740  178.7890  138.4120 N   0  0  0  0  0  2  0  0  0  0  0  0
  185.6320  178.4870  141.1390 S   0  0  0  0  0  0  0  0  0  0  0  0
  192.9400  177.2150  140.3930 C   0  0  0  0  0  3  0  0  0  0  0  0
  189.5790  177.6060  142.8990 C   0  0  0  0  0  0  0  0  0  0  0  0
  191.9820  177.5220  142.5590 C   0  0  0  0  0  3  0  0  0  0  0  0
  189.2160  176.3660  138.7200 O   0  0  0  0  0  1  0  0  0  0  0  0
  187.2270  177.9810  143.2600 N   0  0  0  0  0  0  0  0  0  0  0  0
  188.4670  177.7600  143.7820 C   0  0  0  0  0  0  0  0  0  0  0  0
  186.4150  178.4650  139.6440 C   0  0  0  0  0  0  0  0  0  0  0  0
  188.0750  177.8510  141.0210 C   0  0  0  0  0  0  0  0  0  0  0  0
  190.8840  177.6190  143.4020 C   0  0  0  0  0  3  0  0  0  0  0  0
  189.8630  177.2810  147.2890 C   0  0  0  0  0  0  0  0  0  0  0  0
  188.7500  177.6050  148.0670 C   0  0  0  0  0  3  0  0  0  0  0  0
  188.5900  177.7290  145.2630 C   0  0  0  0  0  0  0  0  0  0  0  0
  187.5550  177.9820  147.4520 C   0  0  0  0  0  3  0  0  0  0  0  0
  189.7810  177.3360  145.8950 C   0  0  0  0  0  3  0  0  0  0  0  0
  187.4740  178.0390  146.0580 C   0  0  0  0  0  3  0  0  0  0  0  0
  191.0210  176.9080  147.8840 F   0  0  0  0  0  0  0  0  0  0  0  0
  186.4940  178.7620  137.1500 C   0  0  0  0  0  2  0  0  0  0  0  0
  188.9000  177.6240  135.9560 F   0  0  0  0  0  0  0  0  0  0  0  0
  186.6200  177.3330  136.6490 C   0  0  2  0  0  3  0  0  0  0  0  0
  187.6490  177.2360  135.5110 C   0  0  2  0  0  3  0  0  0  0  0  0
  186.5120  175.6430  134.3790 C   0  0  0  0  0  2  0  0  0  0  0  0
  185.3790  175.5430  135.3980 C   0  0  0  0  0  2  0  0  0  0  0  0
  185.2580  176.8760  136.1290 C   0  0  0  0  0  2  0  0  0  0  0  0
  187.7240  175.9120  135.0390 O   0  0  0  0  0  0  0  0  0  0  0  0
  1 13  1  0  0  0  0
  2  8  1  0  0  0  0
  3 12  1  0  0  0  0
  4 15  2  0  0  0  0
  5 11  2  0  0  0  0
  6  5  1  0  0  0  0
  6  2  2  0  0  0  0
  7 18  1  0  0  0  0
  8  1  2  0  0  0  0
  8  3  1  0  0  0  0
  9 17  1  0  0  0  0
 10  4  1  0  0  0  0
 11  1  1  0  0  0  0
 12 19  1  0  0  0  0
 12 16  2  0  0  0  0
 13 19  2  0  0  0  0
 14  2  1  0  0  0  0
 15 16  1  0  0  0  0
 16 22  1  0  0  0  0
 17  7  2  0  0  0  0
 17 10  1  0  0  0  0
 18  3  2  0  0  0  0
 18  4  1  0  0  0  0
 20 26  1  0  0  0  0
 20 21  1  0  0  0  0
 22 24  1  0  0  0  0
 22 25  2  0  0  0  0
 23 21  2  0  0  0  0
 24 20  2  0  0  0  0
 25 23  1  0  0  0  0
 27  9  1  0  0  0  0
 29 27  1  6  0  0  0
 30 28  1  1  0  0  0
 30 29  1  0  0  0  0
 31 34  1  0  0  0  0
 31 32  1  0  0  0  0
 32 33  1  0  0  0  0
 33 29  1  0  0  0  0
 34 30  1  0  0  0  0
M  END
>  <MODEL>
7

>  <REMARK>
 VINA RESULT:      -9.4      2.414      4.417
  Name = 
  3 active torsions:
  status: ('A' for Active; 'I' for Inactive)
    1  A    between atoms: C_3  and  C_13
    2  A    between atoms: C_3  and  N_17
    3  A    between atoms: C_12  and  C_28
                            x       y       z     vdW  Elec       q    Type
                         _______ _______ _______ _____ _____    ______ ____

>  <TORSDO>
F 3

$$$$
=
 OpenBabel10262423503D

 34 39  0  0  1  0  0  0  0  0999 V2000
  184.5560  178.3330  142.4180 C   0  0  0  0  0  0  0  0  0  0  0  0
  185.5760  178.7870  140.2620 C   0  0  0  0  0  0  0  0  0  0  0  0
  186.9820  178.0350  142.2350 C   0  0  0  0  0  0  0  0  0  0  0  0
  189.3320  177.4330  142.2280 C   0  0  0  0  0  0  0  0  0  0  0  0
  183.1610  178.7820  140.4950 C   0  0  0  0  0  3  0  0  0  0  0  0
  184.3010  178.9460  139.7130 C   0  0  0  0  0  3  0  0  0  0  0  0
  188.2380  177.3510  140.2160 N   0  0  0  0  0  0  0  0  0  0  0  0
  185.7300  178.3610  141.6130 C   0  0  0  0  0  0  0  0  0  0  0  0
  189.8640  176.5900  138.5510 N   0  0  0  0  0  2  0  0  0  0  0  0
  190.5450  176.9130  141.1930 S   0  0  0  0  0  0  0  0  0  0  0  0
  183.2910  178.5050  141.8510 C   0  0  0  0  0  3  0  0  0  0  0  0
  187.0560  177.9900  143.6660 C   0  0  0  0  0  0  0  0  0  0  0  0
  184.6390  178.1780  143.7960 C   0  0  0  0  0  3  0  0  0  0  0  0
  186.6530  179.1680  139.4730 O   0  0  0  0  0  1  0  0  0  0  0  0
  189.4150  177.5130  143.5720 N   0  0  0  0  0  0  0  0  0  0  0  0
  188.3110  177.7950  144.3200 C   0  0  0  0  0  0  0  0  0  0  0  0
  189.4890  176.9550  139.8770 C   0  0  0  0  0  0  0  0  0  0  0  0
  188.1550  177.6570  141.5370 C   0  0  0  0  0  0  0  0  0  0  0  0
  185.8740  178.0410  144.4120 C   0  0  0  0  0  3  0  0  0  0  0  0
  189.8580  177.6630  147.7930 C   0  0  0  0  0  0  0  0  0  0  0  0
  188.7340  177.8690  148.5960 C   0  0  0  0  0  3  0  0  0  0  0  0
  188.4790  177.8470  145.7960 C   0  0  0  0  0  0  0  0  0  0  0  0
  187.4820  178.0540  148.0060 C   0  0  0  0  0  3  0  0  0  0  0  0
  189.7300  177.6460  146.4020 C   0  0  0  0  0  3  0  0  0  0  0  0
  187.3550  178.0390  146.6150 C   0  0  0  0  0  3  0  0  0  0  0  0
  191.0730  177.4760  148.3640 F   0  0  0  0  0  0  0  0  0  0  0  0
  188.9140  176.6360  137.4510 C   0  0  0  0  0  2  0  0  0  0  0  0
  187.2760  175.9760  135.1300 F   0  0  0  0  0  0  0  0  0  0  0  0
  189.2700  175.5900  136.4080 C   0  0  2  0  0  3  0  0  0  0  0  0
  188.0040  174.9920  135.7730 C   0  0  2  0  0  3  0  0  0  0  0  0
  188.8750  172.9150  135.5630 C   0  0  0  0  0  2  0  0  0  0  0  0
  190.2370  173.2870  136.1450 C   0  0  0  0  0  2  0  0  0  0  0  0
  190.0610  174.4730  137.0870 C   0  0  0  0  0  2  0  0  0  0  0  0
  188.3570  174.0010  134.8360 O   0  0  0  0  0  0  0  0  0  0  0  0
  1 13  1  0  0  0  0
  2  8  1  0  0  0  0
  3 12  1  0  0  0  0
  4 15  2  0  0  0  0
  5 11  2  0  0  0  0
  6  2  2  0  0  0  0
  6  5  1  0  0  0  0
  7 18  1  0  0  0  0
  8  3  1  0  0  0  0
  8  1  2  0  0  0  0
  9 17  1  0  0  0  0
 10  4  1  0  0  0  0
 11  1  1  0  0  0  0
 12 16  2  0  0  0  0
 12 19  1  0  0  0  0
 13 19  2  0  0  0  0
 14  2  1  0  0  0  0
 15 16  1  0  0  0  0
 16 22  1  0  0  0  0
 17  7  2  0  0  0  0
 17 10  1  0  0  0  0
 18  4  1  0  0  0  0
 18  3  2  0  0  0  0
 20 26  1  0  0  0  0
 20 21  1  0  0  0  0
 22 24  1  0  0  0  0
 22 25  2  0  0  0  0
 23 21  2  0  0  0  0
 24 20  2  0  0  0  0
 25 23  1  0  0  0  0
 27  9  1  0  0  0  0
 29 33  1  0  0  0  0
 29 27  1  1  0  0  0
 30 28  1  6  0  0  0
 30 29  1  0  0  0  0
 31 32  1  0  0  0  0
 32 33  1  0  0  0  0
 34 31  1  0  0  0  0
 34 30  1  0  0  0  0
M  END
>  <MODEL>
8

>  <REMARK>
 VINA RESULT:      -9.3      1.690      2.381
  Name = 
  3 active torsions:
  status: ('A' for Active; 'I' for Inactive)
    1  A    between atoms: C_3  and  C_13
    2  A    between atoms: C_3  and  N_17
    3  A    between atoms: C_12  and  C_28
                            x       y       z     vdW  Elec       q    Type
                         _______ _______ _______ _____ _____    ______ ____

>  <TORSDO>
F 3

$$$$
=
 OpenBabel10262423503D

 34 39  0  0  1  0  0  0  0  0999 V2000
  190.7170  177.3290  140.0210 C   0  0  0  0  0  0  0  0  0  0  0  0
  188.5940  177.1710  138.8520 C   0  0  0  0  0  0  0  0  0  0  0  0
  188.6760  177.6230  141.3470 C   0  0  0  0  0  0  0  0  0  0  0  0
  186.8230  178.1930  142.8050 C   0  0  0  0  0  0  0  0  0  0  0  0
  190.6770  177.1710  137.6090 C   0  0  0  0  0  3  0  0  0  0  0  0
  189.2870  177.1050  137.6410 C   0  0  0  0  0  3  0  0  0  0  0  0
  186.5280  178.5700  140.5640 N   0  0  0  0  0  0  0  0  0  0  0  0
  189.2960  177.4010  140.0710 C   0  0  0  0  0  0  0  0  0  0  0  0
  184.2970  179.5390  140.2900 N   0  0  0  0  0  2  0  0  0  0  0  0
  185.2760  178.8400  142.7610 S   0  0  0  0  0  0  0  0  0  0  0  0
  191.3890  177.2530  138.8000 C   0  0  0  0  0  3  0  0  0  0  0  0
  189.4610  177.4660  142.5370 C   0  0  0  0  0  0  0  0  0  0  0  0
  191.4710  177.2880  141.1870 C   0  0  0  0  0  3  0  0  0  0  0  0
  187.2350  176.8930  138.8150 O   0  0  0  0  0  1  0  0  0  0  0  0
  187.5400  177.9250  143.9160 N   0  0  0  0  0  0  0  0  0  0  0  0
  188.8470  177.5520  143.8240 C   0  0  0  0  0  0  0  0  0  0  0  0
  185.3510  178.9950  141.0810 C   0  0  0  0  0  0  0  0  0  0  0  0
  187.3490  178.0820  141.5310 C   0  0  0  0  0  0  0  0  0  0  0  0
  190.8480  177.3240  142.4250 C   0  0  0  0  0  3  0  0  0  0  0  0
  189.7400  177.4040  147.5200 C   0  0  0  0  0  0  0  0  0  0  0  0
  191.0240  176.8590  147.4640 C   0  0  0  0  0  3  0  0  0  0  0  0
  189.5750  177.2920  145.0940 C   0  0  0  0  0  0  0  0  0  0  0  0
  191.5920  176.5380  146.2290 C   0  0  0  0  0  3  0  0  0  0  0  0
  189.0220  177.6250  146.3410 C   0  0  0  0  0  3  0  0  0  0  0  0
  190.8730  176.7580  145.0510 C   0  0  0  0  0  3  0  0  0  0  0  0
  189.1900  177.7230  148.7170 F   0  0  0  0  0  0  0  0  0  0  0  0
  184.4130  179.6590  138.8470 C   0  0  0  0  0  2  0  0  0  0  0  0
  181.6450  180.5600  138.6510 F   0  0  0  0  0  0  0  0  0  0  0  0
  183.2960  178.8860  138.1660 C   0  0  2  0  0  3  0  0  0  0  0  0
  181.9330  179.2150  138.7960 C   0  0  2  0  0  3  0  0  0  0  0  0
  181.1130  177.1220  138.5500 C   0  0  0  0  0  2  0  0  0  0  0  0
  182.3650  176.5720  137.8710 C   0  0  0  0  0  2  0  0  0  0  0  0
  183.5700  177.3920  138.3230 C   0  0  0  0  0  2  0  0  0  0  0  0
  180.9190  178.4630  138.1740 O   0  0  0  0  0  0  0  0  0  0  0  0
  1  8  2  0  0  0  0
  1 13  1  0  0  0  0
  2  8  1  0  0  0  0
  3 18  2  0  0  0  0
  3 12  1  0  0  0  0
  4 15  2  0  0  0  0
  5  6  1  0  0  0  0
  5 11  2  0  0  0  0
  6  2  2  0  0  0  0
  7 17  2  0  0  0  0
  7 18  1  0  0  0  0
  8  3  1  0  0  0  0
  9 17  1  0  0  0  0
 10  4  1  0  0  0  0
 11  1  1  0  0  0  0
 12 16  2  0  0  0  0
 13 19  2  0  0  0  0
 14  2  1  0  0  0  0
 16 15  1  0  0  0  0
 16 22  1  0  0  0  0
 17 10  1  0  0  0  0
 18  4  1  0  0  0  0
 19 12  1  0  0  0  0
 20 26  1  0  0  0  0
 21 20  1  0  0  0  0
 22 24  1  0  0  0  0
 23 21  2  0  0  0  0
 24 20  2  0  0  0  0
 25 22  2  0  0  0  0
 25 23  1  0  0  0  0
 27  9  1  0  0  0  0
 29 33  1  0  0  0  0
 29 30  1  0  0  0  0
 29 27  1  1  0  0  0
 30 28  1  6  0  0  0
 32 33  1  0  0  0  0
 32 31  1  0  0  0  0
 34 31  1  0  0  0  0
 34 30  1  0  0  0  0
M  END
>  <MODEL>
9

>  <REMARK>
 VINA RESULT:      -9.2      2.748      4.585
  Name = 
  3 active torsions:
  status: ('A' for Active; 'I' for Inactive)
    1  A    between atoms: C_3  and  C_13
    2  A    between atoms: C_3  and  N_17
    3  A    between atoms: C_12  and  C_28
                            x       y       z     vdW  Elec       q    Type
                         _______ _______ _______ _____ _____    ______ ____

>  <TORSDO>
F 3

$$$$
