=
 OpenBabel10272413213D

 32 38  0  0  1  0  0  0  0  0999 V2000
  187.2950  177.6340  137.0690 C   0  0  0  0  0  2  0  0  0  0  0  0
  187.5430  177.9100  142.2350 C   0  0  0  0  0  0  0  0  0  0  0  0
  182.9330  179.0820  143.2960 C   0  0  0  0  0  3  0  0  0  0  0  0
  183.2200  178.9750  144.6570 C   0  0  0  0  0  3  0  0  0  0  0  0
  189.3010  177.6030  144.0760 C   0  0  0  0  0  0  0  0  0  0  0  0
  189.4300  177.4740  145.5650 C   0  0  0  0  0  0  0  0  0  0  0  0
  188.2730  177.9130  139.9160 C   0  0  0  0  0  0  0  0  0  0  0  0
  186.0120  178.4710  140.4720 N   0  0  0  0  0  0  0  0  0  0  0  0
  188.9340  177.5230  147.6700 C   0  0  0  0  0  0  0  0  0  0  0  0
  186.5990  178.5690  138.0750 C   0  0  0  0  0  2  0  0  0  0  0  0
  183.9400  178.8610  142.3550 C   0  0  0  0  0  3  0  0  0  0  0  0
  186.2600  178.3120  141.8150 C   0  0  0  0  0  0  0  0  0  0  0  0
  185.2350  178.4990  142.7550 C   0  0  0  0  0  0  0  0  0  0  0  0
  186.8070  178.0400  144.5750 C   0  0  0  0  0  0  0  0  0  0  0  0
  190.2010  177.1810  147.5210 O   0  0  0  0  0  0  0  0  0  0  0  0
  189.3570  178.7150  137.7840 C   0  0  0  0  0  2  0  0  0  0  0  0
  186.9630  178.2670  139.5150 C   0  0  0  0  0  0  0  0  0  0  0  0
  190.5400  177.1530  146.2610 N   0  0  0  0  0  0  0  0  0  0  0  0
  189.4410  177.7660  138.9860 C   0  0  0  0  0  2  0  0  0  0  0  0
  188.6330  178.1030  136.6500 N   0  0  1  0  0  0  0  0  0  0  0  0
  184.5000  178.6230  145.0760 C   0  0  0  0  0  3  0  0  0  0  0  0
  185.5140  178.3680  144.1420 C   0  0  0  0  0  0  0  0  0  0  0  0
  187.1000  178.0500  145.9920 N   0  0  0  0  0  0  0  0  0  0  0  0
  188.5330  177.7180  141.2690 C   0  0  0  0  0  3  0  0  0  0  0  0
  190.1580  178.7880  143.6070 C   0  0  0  0  0  1  0  0  0  0  0  0
  188.2320  177.6550  148.9710 C   0  0  0  0  0  1  0  0  0  0  0  0
  187.8420  177.7920  143.6200 C   0  0  0  0  0  0  0  0  0  0  0  0
  188.4160  177.7280  146.4200 C   0  0  0  0  0  0  0  0  0  0  0  0
  189.6360  176.9550  134.6610 C   0  0  2  0  0  3  0  0  0  0  0  0
  189.3160  176.8970  136.1530 C   0  0  2  0  0  3  0  0  0  0  0  0
  188.4570  176.1270  135.1680 C   0  0  0  0  0  2  0  0  0  0  0  0
  190.6860  176.0840  134.3730 O   0  0  0  0  0  1  0  0  0  0  0  0
  1 10  1  0  0  0  0
  2 27  1  0  0  0  0
  3  4  1  0  0  0  0
  4 21  2  0  0  0  0
  5  6  1  0  0  0  0
  6 18  2  0  0  0  0
  6 28  1  0  0  0  0
  7 24  1  0  0  0  0
  8 12  2  0  0  0  0
  9 26  1  0  0  0  0
 10 17  1  0  0  0  0
 11 13  1  0  0  0  0
 11  3  2  0  0  0  0
 12  2  1  0  0  0  0
 12 13  1  0  0  0  0
 13 22  2  0  0  0  0
 14 23  2  0  0  0  0
 15  9  1  0  0  0  0
 16 19  1  0  0  0  0
 17  7  2  0  0  0  0
 17  8  1  0  0  0  0
 18 15  1  0  0  0  0
 19  7  1  0  0  0  0
 20  1  1  1  0  0  0
 20 16  1  0  0  0  0
 22 14  1  0  0  0  0
 22 21  1  0  0  0  0
 23 28  1  0  0  0  0
 24  2  2  0  0  0  0
 25  5  1  0  0  0  0
 27  5  2  0  0  0  0
 27 14  1  0  0  0  0
 28  9  2  0  0  0  0
 29 32  1  1  0  0  0
 29 31  1  0  0  0  0
 29 30  1  0  0  0  0
 30 31  1  6  0  0  0
 30 20  1  0  0  0  0
M  END
>  <MODEL>
1

>  <REMARK>
 VINA RESULT:     -11.3      0.000      0.000
  Name = 
  1 active torsions:
  status: ('A' for Active; 'I' for Inactive)
    1  A    between atoms: C_10  and  N_24
                            x       y       z     vdW  Elec       q    Type
                         _______ _______ _______ _____ _____    ______ ____

>  <TORSDO>
F 1

$$$$
=
 OpenBabel10272413213D

 32 38  0  0  1  0  0  0  0  0999 V2000
  189.8620  176.2000  137.2760 C   0  0  0  0  0  2  0  0  0  0  0  0
  189.0230  177.2520  142.2770 C   0  0  0  0  0  0  0  0  0  0  0  0
  184.4540  178.9380  142.0890 C   0  0  0  0  0  3  0  0  0  0  0  0
  184.4280  179.0210  143.4810 C   0  0  0  0  0  3  0  0  0  0  0  0
  190.2980  177.0940  144.4970 C   0  0  0  0  0  0  0  0  0  0  0  0
  190.0890  177.1880  145.9790 C   0  0  0  0  0  0  0  0  0  0  0  0
  190.2300  176.8380  140.2090 C   0  0  0  0  0  0  0  0  0  0  0  0
  187.9800  177.6540  140.1530 N   0  0  0  0  0  0  0  0  0  0  0  0
  189.1610  177.6020  147.8890 C   0  0  0  0  0  0  0  0  0  0  0  0
  189.0760  177.3320  137.9620 C   0  0  0  0  0  2  0  0  0  0  0  0
  185.6090  178.4950  141.4410 C   0  0  0  0  0  3  0  0  0  0  0  0
  187.9140  177.6850  141.5250 C   0  0  0  0  0  0  0  0  0  0  0  0
  186.7380  178.0970  142.1720 C   0  0  0  0  0  0  0  0  0  0  0  0
  187.8200  177.8010  144.3480 C   0  0  0  0  0  0  0  0  0  0  0  0
  190.3830  177.1410  148.0810 O   0  0  0  0  0  0  0  0  0  0  0  0
  191.8300  177.2100  138.2940 C   0  0  0  0  0  2  0  0  0  0  0  0
  189.0850  177.2290  139.4740 C   0  0  0  0  0  0  0  0  0  0  0  0
  190.9800  176.8910  146.9470 N   0  0  0  0  0  0  0  0  0  0  0  0
  191.5460  176.4550  139.5990 C   0  0  0  0  0  2  0  0  0  0  0  0
  191.3030  176.4900  137.1160 N   0  0  1  0  0  0  0  0  0  0  0  0
  185.5410  178.6370  144.2250 C   0  0  0  0  0  3  0  0  0  0  0  0
  186.6960  178.1600  143.5910 C   0  0  0  0  0  0  0  0  0  0  0  0
  187.8010  178.0070  145.7800 N   0  0  0  0  0  0  0  0  0  0  0  0
  190.1690  176.8340  141.5990 C   0  0  0  0  0  3  0  0  0  0  0  0
  191.3630  178.1210  144.0830 C   0  0  0  0  0  1  0  0  0  0  0  0
  188.2140  177.9890  148.9650 C   0  0  0  0  0  1  0  0  0  0  0  0
  189.0010  177.3270  143.6980 C   0  0  0  0  0  0  0  0  0  0  0  0
  188.9490  177.6510  146.5380 C   0  0  0  0  0  0  0  0  0  0  0  0
  191.5880  174.4910  135.6320 C   0  0  2  0  0  3  0  0  0  0  0  0
  191.9360  175.1700  136.9540 C   0  0  2  0  0  3  0  0  0  0  0  0
  190.9130  174.0520  136.9300 C   0  0  0  0  0  2  0  0  0  0  0  0
  192.5700  173.5540  135.3140 O   0  0  0  0  0  1  0  0  0  0  0  0
  1 10  1  0  0  0  0
  2 27  1  0  0  0  0
  3  4  1  0  0  0  0
  4 21  2  0  0  0  0
  5  6  1  0  0  0  0
  6 28  1  0  0  0  0
  6 18  2  0  0  0  0
  7 24  2  0  0  0  0
  8 12  1  0  0  0  0
  9 15  1  0  0  0  0
  9 26  1  0  0  0  0
 10 17  1  0  0  0  0
 11  3  2  0  0  0  0
 11 13  1  0  0  0  0
 12 13  1  0  0  0  0
 12  2  2  0  0  0  0
 13 22  2  0  0  0  0
 14 23  2  0  0  0  0
 16 19  1  0  0  0  0
 17  8  2  0  0  0  0
 17  7  1  0  0  0  0
 18 15  1  0  0  0  0
 19  7  1  0  0  0  0
 20  1  1  1  0  0  0
 20 16  1  0  0  0  0
 22 21  1  0  0  0  0
 22 14  1  0  0  0  0
 23 28  1  0  0  0  0
 24  2  1  0  0  0  0
 25  5  1  0  0  0  0
 27 14  1  0  0  0  0
 27  5  2  0  0  0  0
 28  9  2  0  0  0  0
 29 32  1  1  0  0  0
 29 31  1  0  0  0  0
 29 30  1  0  0  0  0
 30 31  1  1  0  0  0
 30 20  1  0  0  0  0
M  END
>  <MODEL>
2

>  <REMARK>
 VINA RESULT:     -10.3      1.720      2.073
  Name = 
  1 active torsions:
  status: ('A' for Active; 'I' for Inactive)
    1  A    between atoms: C_10  and  N_24
                            x       y       z     vdW  Elec       q    Type
                         _______ _______ _______ _____ _____    ______ ____

>  <TORSDO>
F 1

$$$$
=
 OpenBabel10272413213D

 32 38  0  0  1  0  0  0  0  0999 V2000
  183.6840  179.6790  138.9780 C   0  0  0  0  0  2  0  0  0  0  0  0
  187.2160  178.2010  142.4650 C   0  0  0  0  0  0  0  0  0  0  0  0
  191.0960  177.5390  139.5920 C   0  0  0  0  0  3  0  0  0  0  0  0
  191.8850  177.2890  140.7150 C   0  0  0  0  0  3  0  0  0  0  0  0
  187.3450  177.8080  144.9950 C   0  0  0  0  0  0  0  0  0  0  0  0
  188.3350  177.5730  146.0970 C   0  0  0  0  0  0  0  0  0  0  0  0
  185.0410  178.6130  141.4600 C   0  0  0  0  0  0  0  0  0  0  0  0
  186.9710  178.2960  140.0790 N   0  0  0  0  0  0  0  0  0  0  0  0
  190.1910  177.1230  147.1140 C   0  0  0  0  0  0  0  0  0  0  0  0
  184.8330  178.6570  138.8950 C   0  0  0  0  0  2  0  0  0  0  0  0
  189.7360  177.8110  139.7450 C   0  0  0  0  0  3  0  0  0  0  0  0
  187.7760  178.1060  141.1760 C   0  0  0  0  0  0  0  0  0  0  0  0
  189.1510  177.8690  141.0180 C   0  0  0  0  0  0  0  0  0  0  0  0
  189.4020  177.6560  143.4450 C   0  0  0  0  0  0  0  0  0  0  0  0
  189.2290  177.2910  148.0020 O   0  0  0  0  0  0  0  0  0  0  0  0
  182.7080  178.1610  140.6130 C   0  0  0  0  0  2  0  0  0  0  0  0
  185.6360  178.5650  140.1770 C   0  0  0  0  0  0  0  0  0  0  0  0
  188.0890  177.5530  147.4230 N   0  0  0  0  0  0  0  0  0  0  0  0
  183.5730  178.7870  141.7140 C   0  0  0  0  0  2  0  0  0  0  0  0
  182.4290  179.1180  139.5220 N   0  0  1  0  0  0  0  0  0  0  0  0
  191.3220  177.3360  141.9880 C   0  0  0  0  0  3  0  0  0  0  0  0
  189.9640  177.6370  142.1600 C   0  0  0  0  0  0  0  0  0  0  0  0
  190.2190  177.2790  144.5780 N   0  0  0  0  0  0  0  0  0  0  0  0
  185.8480  178.4530  142.5830 C   0  0  0  0  0  3  0  0  0  0  0  0
  186.3440  176.6430  144.9760 C   0  0  0  0  0  1  0  0  0  0  0  0
  191.6060  176.8080  147.4350 C   0  0  0  0  0  1  0  0  0  0  0  0
  188.0140  177.9530  143.6160 C   0  0  0  0  0  0  0  0  0  0  0  0
  189.6380  177.2900  145.8740 C   0  0  0  0  0  0  0  0  0  0  0  0
  180.3690  179.9150  140.7050 C   0  0  2  0  0  3  0  0  0  0  0  0
  181.6710  180.2870  140.0010 C   0  0  2  0  0  3  0  0  0  0  0  0
  180.3510  180.4420  139.2710 C   0  0  0  0  0  2  0  0  0  0  0  0
  179.9820  180.9510  141.5530 O   0  0  0  0  0  1  0  0  0  0  0  0
  2 24  1  0  0  0  0
  2 27  1  0  0  0  0
  3 11  2  0  0  0  0
  3  4  1  0  0  0  0
  4 21  2  0  0  0  0
  5  6  1  0  0  0  0
  6 18  2  0  0  0  0
  7 19  1  0  0  0  0
  7 24  2  0  0  0  0
  8 17  2  0  0  0  0
  8 12  1  0  0  0  0
  9 26  1  0  0  0  0
  9 15  1  0  0  0  0
 10  1  1  0  0  0  0
 10 17  1  0  0  0  0
 11 13  1  0  0  0  0
 12  2  2  0  0  0  0
 13 12  1  0  0  0  0
 13 22  2  0  0  0  0
 14 27  1  0  0  0  0
 14 23  2  0  0  0  0
 16 19  1  0  0  0  0
 17  7  1  0  0  0  0
 18 15  1  0  0  0  0
 20  1  1  1  0  0  0
 20 30  1  0  0  0  0
 20 16  1  0  0  0  0
 21 22  1  0  0  0  0
 22 14  1  0  0  0  0
 23 28  1  0  0  0  0
 25  5  1  0  0  0  0
 27  5  2  0  0  0  0
 28  6  1  0  0  0  0
 28  9  2  0  0  0  0
 29 32  1  1  0  0  0
 30 31  1  6  0  0  0
 30 29  1  0  0  0  0
 31 29  1  0  0  0  0
M  END
>  <MODEL>
3

>  <REMARK>
 VINA RESULT:      -9.7      3.256      5.856
  Name = 
  1 active torsions:
  status: ('A' for Active; 'I' for Inactive)
    1  A    between atoms: C_10  and  N_24
                            x       y       z     vdW  Elec       q    Type
                         _______ _______ _______ _____ _____    ______ ____

>  <TORSDO>
F 1

$$$$
=
 OpenBabel10272413213D

 32 38  0  0  1  0  0  0  0  0999 V2000
  183.2000  178.2090  145.3370 C   0  0  0  0  0  2  0  0  0  0  0  0
  187.8970  177.6720  143.2210 C   0  0  0  0  0  0  0  0  0  0  0  0
  190.5980  176.9130  147.2060 C   0  0  0  0  0  3  0  0  0  0  0  0
  191.7170  176.6860  146.4040 C   0  0  0  0  0  3  0  0  0  0  0  0
  188.9470  177.7070  140.8820 C   0  0  0  0  0  0  0  0  0  0  0  0
  190.2230  177.3820  140.1640 C   0  0  0  0  0  0  0  0  0  0  0  0
  185.5700  178.3320  143.4630 C   0  0  0  0  0  0  0  0  0  0  0  0
  186.9220  177.9380  145.3990 N   0  0  0  0  0  0  0  0  0  0  0  0
  192.3010  176.8910  139.8110 C   0  0  0  0  0  0  0  0  0  0  0  0
  184.5940  178.6470  145.8230 C   0  0  0  0  0  2  0  0  0  0  0  0
  189.3740  177.2320  146.6160 C   0  0  0  0  0  3  0  0  0  0  0  0
  188.0210  177.6520  144.6240 C   0  0  0  0  0  0  0  0  0  0  0  0
  189.2400  177.2970  145.2210 C   0  0  0  0  0  0  0  0  0  0  0  0
  190.2840  177.1290  143.0130 C   0  0  0  0  0  0  0  0  0  0  0  0
  191.6830  177.0570  138.6570 O   0  0  0  0  0  0  0  0  0  0  0  0
  183.5340  179.8190  143.5400 C   0  0  0  0  0  2  0  0  0  0  0  0
  185.7050  178.2550  144.8700 C   0  0  0  0  0  0  0  0  0  0  0  0
  190.4260  177.3670  138.8310 N   0  0  0  0  0  0  0  0  0  0  0  0
  184.3280  178.7730  142.7470 C   0  0  0  0  0  2  0  0  0  0  0  0
  182.5480  179.1910  144.4450 N   0  0  1  0  0  0  0  0  0  0  0  0
  191.6070  176.7510  145.0170 C   0  0  0  0  0  3  0  0  0  0  0  0
  190.3780  177.0400  144.4090 C   0  0  0  0  0  0  0  0  0  0  0  0
  191.4850  177.0020  142.2160 N   0  0  0  0  0  0  0  0  0  0  0  0
  186.6640  178.0150  142.6630 C   0  0  0  0  0  3  0  0  0  0  0  0
  188.6020  179.1830  140.6300 C   0  0  0  0  0  1  0  0  0  0  0  0
  193.7340  176.5380  139.9710 C   0  0  0  0  0  1  0  0  0  0  0  0
  189.0310  177.4350  142.3960 C   0  0  0  0  0  0  0  0  0  0  0  0
  191.3820  177.1050  140.8020 C   0  0  0  0  0  0  0  0  0  0  0  0
  180.6910  179.2660  142.7640 C   0  0  2  0  0  3  0  0  0  0  0  0
  181.5420  178.4130  143.7010 C   0  0  2  0  0  3  0  0  0  0  0  0
  180.1290  178.7880  144.1020 C   0  0  0  0  0  2  0  0  0  0  0  0
  180.1550  178.4650  141.7580 O   0  0  0  0  0  1  0  0  0  0  0  0
  1 10  1  0  0  0  0
  2 12  1  0  0  0  0
  4  3  2  0  0  0  0
  5 27  2  0  0  0  0
  6 28  1  0  0  0  0
  6  5  1  0  0  0  0
  7 17  2  0  0  0  0
  9 26  1  0  0  0  0
  9 28  2  0  0  0  0
 11  3  1  0  0  0  0
 12 13  1  0  0  0  0
 12  8  2  0  0  0  0
 13 11  2  0  0  0  0
 14 22  1  0  0  0  0
 15 18  1  0  0  0  0
 15  9  1  0  0  0  0
 17  8  1  0  0  0  0
 17 10  1  0  0  0  0
 18  6  2  0  0  0  0
 19  7  1  0  0  0  0
 19 16  1  0  0  0  0
 20 16  1  6  0  0  0
 20  1  1  0  0  0  0
 21  4  1  0  0  0  0
 22 21  2  0  0  0  0
 22 13  1  0  0  0  0
 23 14  2  0  0  0  0
 24  2  2  0  0  0  0
 24  7  1  0  0  0  0
 25  5  1  0  0  0  0
 27 14  1  0  0  0  0
 27  2  1  0  0  0  0
 28 23  1  0  0  0  0
 29 32  1  6  0  0  0
 29 30  1  0  0  0  0
 29 31  1  0  0  0  0
 30 31  1  1  0  0  0
 30 20  1  0  0  0  0
M  END
>  <MODEL>
4

>  <REMARK>
 VINA RESULT:      -9.6      3.033      7.562
  Name = 
  1 active torsions:
  status: ('A' for Active; 'I' for Inactive)
    1  A    between atoms: C_10  and  N_24
                            x       y       z     vdW  Elec       q    Type
                         _______ _______ _______ _____ _____    ______ ____

>  <TORSDO>
F 1

$$$$
=
 OpenBabel10272413213D

 32 38  0  0  1  0  0  0  0  0999 V2000
  191.4380  176.6090  144.5780 C   0  0  0  0  0  2  0  0  0  0  0  0
  186.7740  177.9750  142.7880 C   0  0  0  0  0  0  0  0  0  0  0  0
  187.6740  178.1970  138.0030 C   0  0  0  0  0  3  0  0  0  0  0  0
  186.3220  178.4390  137.7610 C   0  0  0  0  0  3  0  0  0  0  0  0
  184.4440  178.4770  143.7330 C   0  0  0  0  0  0  0  0  0  0  0  0
  183.0220  178.6870  143.3020 C   0  0  0  0  0  0  0  0  0  0  0  0
  188.6220  177.6840  144.3400 C   0  0  0  0  0  0  0  0  0  0  0  0
  189.0270  177.7840  141.9820 N   0  0  0  0  0  0  0  0  0  0  0  0
  181.3020  179.0400  142.0380 C   0  0  0  0  0  0  0  0  0  0  0  0
  191.0210  177.5330  143.4190 C   0  0  0  0  0  2  0  0  0  0  0  0
  188.1270  178.0390  139.3150 C   0  0  0  0  0  3  0  0  0  0  0  0
  187.6900  177.9640  141.7180 C   0  0  0  0  0  0  0  0  0  0  0  0
  187.2350  178.0860  140.3960 C   0  0  0  0  0  0  0  0  0  0  0  0
  184.9440  178.3950  141.2030 C   0  0  0  0  0  0  0  0  0  0  0  0
  180.9210  178.9890  143.3000 O   0  0  0  0  0  0  0  0  0  0  0  0
  190.4050  178.2740  146.0240 C   0  0  0  0  0  2  0  0  0  0  0  0
  189.5180  177.6250  143.2460 C   0  0  0  0  0  0  0  0  0  0  0  0
  181.9370  178.7880  144.0960 N   0  0  0  0  0  0  0  0  0  0  0  0
  189.0310  177.6360  145.7820 C   0  0  0  0  0  2  0  0  0  0  0  0
  191.5000  177.2900  145.8880 N   0  0  1  0  0  0  0  0  0  0  0  0
  185.4210  178.4970  138.8220 C   0  0  0  0  0  3  0  0  0  0  0  0
  185.8550  178.3090  140.1410 C   0  0  0  0  0  0  0  0  0  0  0  0
  183.5720  178.7610  140.9280 N   0  0  0  0  0  0  0  0  0  0  0  0
  187.2610  177.8340  144.0890 C   0  0  0  0  0  3  0  0  0  0  0  0
  184.9080  179.7130  144.5180 C   0  0  0  0  0  1  0  0  0  0  0  0
  180.4000  179.2600  140.8800 C   0  0  0  0  0  1  0  0  0  0  0  0
  185.3920  178.2150  142.5490 C   0  0  0  0  0  0  0  0  0  0  0  0
  182.6580  178.8570  142.0120 C   0  0  0  0  0  0  0  0  0  0  0  0
  192.7320  175.7880  147.4710 C   0  0  2  0  0  3  0  0  0  0  0  0
  191.3880  176.2080  146.8800 C   0  0  2  0  0  3  0  0  0  0  0  0
  192.0540  174.9320  146.4020 C   0  0  0  0  0  2  0  0  0  0  0  0
  192.5300  175.1780  148.7080 O   0  0  0  0  0  1  0  0  0  0  0  0
  2 24  1  0  0  0  0
  3 11  1  0  0  0  0
  4  3  2  0  0  0  0
  4 21  1  0  0  0  0
  5 25  1  0  0  0  0
  6  5  1  0  0  0  0
  6 18  2  0  0  0  0
  7 19  1  0  0  0  0
  8 17  2  0  0  0  0
  9 15  1  0  0  0  0
 10  1  1  0  0  0  0
 11 13  2  0  0  0  0
 12  8  1  0  0  0  0
 12  2  2  0  0  0  0
 13 12  1  0  0  0  0
 14 27  1  0  0  0  0
 15 18  1  0  0  0  0
 17 10  1  0  0  0  0
 17  7  1  0  0  0  0
 19 16  1  0  0  0  0
 20  1  1  6  0  0  0
 20 16  1  0  0  0  0
 20 30  1  0  0  0  0
 21 22  2  0  0  0  0
 22 13  1  0  0  0  0
 22 14  1  0  0  0  0
 23 14  2  0  0  0  0
 23 28  1  0  0  0  0
 24  7  2  0  0  0  0
 26  9  1  0  0  0  0
 27  2  1  0  0  0  0
 27  5  2  0  0  0  0
 28  9  2  0  0  0  0
 28  6  1  0  0  0  0
 29 32  1  1  0  0  0
 30 31  1  6  0  0  0
 30 29  1  0  0  0  0
 31 29  1  0  0  0  0
M  END
>  <MODEL>
5

>  <REMARK>
 VINA RESULT:      -9.6      3.181      7.649
  Name = 
  1 active torsions:
  status: ('A' for Active; 'I' for Inactive)
    1  A    between atoms: C_10  and  N_24
                            x       y       z     vdW  Elec       q    Type
                         _______ _______ _______ _____ _____    ______ ____

>  <TORSDO>
F 1

$$$$
=
 OpenBabel10272413213D

 32 38  0  0  1  0  0  0  0  0999 V2000
  185.9940  177.5990  137.6400 C   0  0  0  0  0  2  0  0  0  0  0  0
  187.7470  177.7320  142.5110 C   0  0  0  0  0  0  0  0  0  0  0  0
  183.7200  179.1190  144.8800 C   0  0  0  0  0  3  0  0  0  0  0  0
  184.3830  178.9630  146.0980 C   0  0  0  0  0  3  0  0  0  0  0  0
  189.9430  177.2860  143.7580 C   0  0  0  0  0  0  0  0  0  0  0  0
  190.4920  177.1140  145.1430 C   0  0  0  0  0  0  0  0  0  0  0  0
  187.7710  177.7550  140.0810 C   0  0  0  0  0  0  0  0  0  0  0  0
  185.8060  178.4170  141.2770 N   0  0  0  0  0  0  0  0  0  0  0  0
  190.6330  177.1360  147.3020 C   0  0  0  0  0  0  0  0  0  0  0  0
  185.6750  178.5440  138.8130 C   0  0  0  0  0  2  0  0  0  0  0  0
  184.3960  178.8690  143.6850 C   0  0  0  0  0  3  0  0  0  0  0  0
  186.4230  178.2120  142.4880 C   0  0  0  0  0  0  0  0  0  0  0  0
  185.7280  178.4300  143.6870 C   0  0  0  0  0  0  0  0  0  0  0  0
  187.7310  177.8420  144.9660 C   0  0  0  0  0  0  0  0  0  0  0  0
  191.7790  176.7320  146.7880 O   0  0  0  0  0  0  0  0  0  0  0  0
  188.2330  178.5510  137.7320 C   0  0  0  0  0  2  0  0  0  0  0  0
  186.4240  178.1870  140.0820 C   0  0  0  0  0  0  0  0  0  0  0  0
  191.7350  176.7170  145.4830 N   0  0  0  0  0  0  0  0  0  0  0  0
  188.6080  177.5690  138.8500 C   0  0  0  0  0  2  0  0  0  0  0  0
  187.1770  178.0070  136.8530 N   0  0  1  0  0  0  0  0  0  0  0  0
  185.7070  178.5340  146.1220 C   0  0  0  0  0  3  0  0  0  0  0  0
  186.3900  178.2490  144.9310 C   0  0  0  0  0  0  0  0  0  0  0  0
  188.4230  177.8010  146.2360 N   0  0  0  0  0  0  0  0  0  0  0  0
  188.4010  177.5120  141.2980 C   0  0  0  0  0  3  0  0  0  0  0  0
  190.6940  178.4360  143.0700 C   0  0  0  0  0  1  0  0  0  0  0  0
  190.3470  177.2730  148.7520 C   0  0  0  0  0  1  0  0  0  0  0  0
  188.4280  177.5640  143.7490 C   0  0  0  0  0  0  0  0  0  0  0  0
  189.7860  177.3990  146.2600 C   0  0  0  0  0  0  0  0  0  0  0  0
  186.4740  176.0260  135.4890 C   0  0  2  0  0  3  0  0  0  0  0  0
  187.6150  176.7790  136.1680 C   0  0  2  0  0  3  0  0  0  0  0  0
  187.0420  175.5350  136.8190 C   0  0  0  0  0  2  0  0  0  0  0  0
  186.9840  175.2180  134.4730 O   0  0  0  0  0  1  0  0  0  0  0  0
  1 10  1  0  0  0  0
  2 27  1  0  0  0  0
  3  4  1  0  0  0  0
  4 21  2  0  0  0  0
  5  6  1  0  0  0  0
  6 18  2  0  0  0  0
  6 28  1  0  0  0  0
  7 17  2  0  0  0  0
  7 24  1  0  0  0  0
  8 12  2  0  0  0  0
  9 26  1  0  0  0  0
 10 17  1  0  0  0  0
 11 13  1  0  0  0  0
 11  3  2  0  0  0  0
 12  2  1  0  0  0  0
 12 13  1  0  0  0  0
 13 22  2  0  0  0  0
 14 23  2  0  0  0  0
 15  9  1  0  0  0  0
 16 19  1  0  0  0  0
 17  8  1  0  0  0  0
 18 15  1  0  0  0  0
 19  7  1  0  0  0  0
 20  1  1  1  0  0  0
 20 16  1  0  0  0  0
 22 14  1  0  0  0  0
 22 21  1  0  0  0  0
 23 28  1  0  0  0  0
 24  2  2  0  0  0  0
 25  5  1  0  0  0  0
 27  5  2  0  0  0  0
 27 14  1  0  0  0  0
 28  9  2  0  0  0  0
 29 32  1  6  0  0  0
 29 30  1  0  0  0  0
 29 31  1  0  0  0  0
 30 31  1  1  0  0  0
 30 20  1  0  0  0  0
M  END
>  <MODEL>
6

>  <REMARK>
 VINA RESULT:      -9.5      1.390      1.571
  Name = 
  1 active torsions:
  status: ('A' for Active; 'I' for Inactive)
    1  A    between atoms: C_10  and  N_24
                            x       y       z     vdW  Elec       q    Type
                         _______ _______ _______ _____ _____    ______ ____

>  <TORSDO>
F 1

$$$$
=
 OpenBabel10272413213D

 32 38  0  0  1  0  0  0  0  0999 V2000
  181.2010  178.6200  140.1610 C   0  0  0  0  0  2  0  0  0  0  0  0
  185.8220  178.0170  142.4220 C   0  0  0  0  0  0  0  0  0  0  0  0
  184.6380  178.7320  147.0960 C   0  0  0  0  0  3  0  0  0  0  0  0
  185.9420  178.4090  147.4750 C   0  0  0  0  0  3  0  0  0  0  0  0
  188.2320  177.4940  141.7200 C   0  0  0  0  0  0  0  0  0  0  0  0
  189.5660  177.1190  142.2930 C   0  0  0  0  0  0  0  0  0  0  0  0
  184.1740  178.4590  140.6910 C   0  0  0  0  0  0  0  0  0  0  0  0
  183.6220  178.7870  142.9970 N   0  0  0  0  0  0  0  0  0  0  0  0
  191.1510  176.7770  143.7260 C   0  0  0  0  0  0  0  0  0  0  0  0
  181.8480  179.3290  141.3660 C   0  0  0  0  0  2  0  0  0  0  0  0
  184.2880  178.7330  145.7440 C   0  0  0  0  0  3  0  0  0  0  0  0
  184.8840  178.4130  143.3950 C   0  0  0  0  0  0  0  0  0  0  0  0
  185.2200  178.3800  144.7570 C   0  0  0  0  0  0  0  0  0  0  0  0
  187.5020  177.7010  144.1860 C   0  0  0  0  0  0  0  0  0  0  0  0
  191.5970  176.5370  142.5070 O   0  0  0  0  0  0  0  0  0  0  0  0
  182.9580  179.6740  138.8440 C   0  0  0  0  0  2  0  0  0  0  0  0
  183.2320  178.8040  141.6900 C   0  0  0  0  0  0  0  0  0  0  0  0
  190.6690  176.7440  141.6120 N   0  0  0  0  0  0  0  0  0  0  0  0
  183.9210  178.5380  139.2150 C   0  0  0  0  0  2  0  0  0  0  0  0
  181.5490  179.2270  138.8590 N   0  0  1  0  0  0  0  0  0  0  0  0
  186.8840  178.0610  146.5100 C   0  0  0  0  0  3  0  0  0  0  0  0
  186.5390  178.0270  145.1510 C   0  0  0  0  0  0  0  0  0  0  0  0
  188.8710  177.4830  144.6020 N   0  0  0  0  0  0  0  0  0  0  0  0
  185.4460  178.0480  141.0780 C   0  0  0  0  0  3  0  0  0  0  0  0
  188.3910  178.7890  140.9070 C   0  0  0  0  0  1  0  0  0  0  0  0
  191.9490  176.6450  144.9710 C   0  0  0  0  0  1  0  0  0  0  0  0
  187.1510  177.6790  142.8010 C   0  0  0  0  0  0  0  0  0  0  0  0
  189.8430  177.1650  143.6150 C   0  0  0  0  0  0  0  0  0  0  0  0
  181.4750  178.6300  136.4270 C   0  0  2  0  0  3  0  0  0  0  0  0
  181.3030  178.1640  137.8710 C   0  0  2  0  0  3  0  0  0  0  0  0
  180.0790  178.4540  137.0230 C   0  0  0  0  0  2  0  0  0  0  0  0
  181.7390  177.5320  135.6090 O   0  0  0  0  0  1  0  0  0  0  0  0
  1 10  1  0  0  0  0
  2 27  1  0  0  0  0
  2 12  1  0  0  0  0
  3  4  1  0  0  0  0
  5  6  1  0  0  0  0
  5 27  2  0  0  0  0
  6 28  1  0  0  0  0
  7 24  1  0  0  0  0
  7 17  2  0  0  0  0
  8 12  2  0  0  0  0
  9 26  1  0  0  0  0
 10 17  1  0  0  0  0
 11  3  2  0  0  0  0
 12 13  1  0  0  0  0
 13 22  2  0  0  0  0
 13 11  1  0  0  0  0
 14 23  2  0  0  0  0
 14 22  1  0  0  0  0
 15  9  1  0  0  0  0
 16 19  1  0  0  0  0
 17  8  1  0  0  0  0
 18  6  2  0  0  0  0
 18 15  1  0  0  0  0
 19  7  1  0  0  0  0
 20 16  1  1  0  0  0
 20  1  1  0  0  0  0
 21  4  2  0  0  0  0
 22 21  1  0  0  0  0
 24  2  2  0  0  0  0
 25  5  1  0  0  0  0
 27 14  1  0  0  0  0
 28  9  2  0  0  0  0
 28 23  1  0  0  0  0
 29 32  1  6  0  0  0
 29 31  1  0  0  0  0
 29 30  1  0  0  0  0
 30 31  1  6  0  0  0
 30 20  1  0  0  0  0
M  END
>  <MODEL>
7

>  <REMARK>
 VINA RESULT:      -8.9      3.321      4.961
  Name = 
  1 active torsions:
  status: ('A' for Active; 'I' for Inactive)
    1  A    between atoms: C_10  and  N_24
                            x       y       z     vdW  Elec       q    Type
                         _______ _______ _______ _____ _____    ______ ____

>  <TORSDO>
F 1

$$$$
=
 OpenBabel10272413213D

 32 38  0  0  1  0  0  0  0  0999 V2000
  191.1020  175.9350  136.7090 C   0  0  0  0  0  2  0  0  0  0  0  0
  188.6820  177.3060  141.0780 C   0  0  0  0  0  0  0  0  0  0  0  0
  184.5250  179.1040  139.2790 C   0  0  0  0  0  3  0  0  0  0  0  0
  184.0360  179.2700  140.5750 C   0  0  0  0  0  3  0  0  0  0  0  0
  189.1300  177.2460  143.6020 C   0  0  0  0  0  0  0  0  0  0  0  0
  188.4400  177.4340  144.9210 C   0  0  0  0  0  0  0  0  0  0  0  0
  190.4930  176.7360  139.5610 C   0  0  0  0  0  0  0  0  0  0  0  0
  188.4330  177.6090  138.7100 N   0  0  0  0  0  0  0  0  0  0  0  0
  186.9450  177.9870  146.3840 C   0  0  0  0  0  0  0  0  0  0  0  0
  190.1840  177.1270  137.0360 C   0  0  0  0  0  2  0  0  0  0  0  0
  185.8080  178.5910  139.0810 C   0  0  0  0  0  3  0  0  0  0  0  0
  187.9110  177.7240  139.9770 C   0  0  0  0  0  0  0  0  0  0  0  0
  186.6070  178.2060  140.1680 C   0  0  0  0  0  0  0  0  0  0  0  0
  186.8810  178.0110  142.5930 C   0  0  0  0  0  0  0  0  0  0  0  0
  188.0090  177.5050  146.9990 O   0  0  0  0  0  0  0  0  0  0  0  0
  192.6580  176.9500  138.2840 C   0  0  0  0  0  2  0  0  0  0  0  0
  189.6810  177.1140  138.4650 C   0  0  0  0  0  0  0  0  0  0  0  0
  188.9390  177.1710  146.1460 N   0  0  0  0  0  0  0  0  0  0  0  0
  191.9190  176.2820  139.4500 C   0  0  0  0  0  2  0  0  0  0  0  0
  192.5250  176.1750  137.0320 N   0  0  1  0  0  0  0  0  0  0  0  0
  184.8160  178.9000  141.6680 C   0  0  0  0  0  3  0  0  0  0  0  0
  186.0940  178.3550  141.4850 C   0  0  0  0  0  0  0  0  0  0  0  0
  186.3920  178.3030  143.9240 N   0  0  0  0  0  0  0  0  0  0  0  0
  189.9690  176.8170  140.8480 C   0  0  0  0  0  3  0  0  0  0  0  0
  190.3180  178.2170  143.5260 C   0  0  0  0  0  1  0  0  0  0  0  0
  185.7110  178.4630  147.0570 C   0  0  0  0  0  1  0  0  0  0  0  0
  188.1890  177.4660  142.4030 C   0  0  0  0  0  0  0  0  0  0  0  0
  187.2010  177.9610  145.0400 C   0  0  0  0  0  0  0  0  0  0  0  0
  194.6310  174.8190  136.9780 C   0  0  2  0  0  3  0  0  0  0  0  0
  193.1150  174.8320  137.1550 C   0  0  2  0  0  3  0  0  0  0  0  0
  193.7150  174.3560  135.8470 C   0  0  0  0  0  2  0  0  0  0  0  0
  195.1650  173.6880  137.5940 O   0  0  0  0  0  1  0  0  0  0  0  0
  1 10  1  0  0  0  0
  2 27  1  0  0  0  0
  3  4  1  0  0  0  0
  4 21  2  0  0  0  0
  5  6  1  0  0  0  0
  6 28  1  0  0  0  0
  6 18  2  0  0  0  0
  7 24  2  0  0  0  0
  8 12  1  0  0  0  0
  9 15  1  0  0  0  0
  9 26  1  0  0  0  0
 10 17  1  0  0  0  0
 11  3  2  0  0  0  0
 11 13  1  0  0  0  0
 12 13  1  0  0  0  0
 12  2  2  0  0  0  0
 13 22  2  0  0  0  0
 14 23  2  0  0  0  0
 16 19  1  0  0  0  0
 17  8  2  0  0  0  0
 17  7  1  0  0  0  0
 18 15  1  0  0  0  0
 19  7  1  0  0  0  0
 20  1  1  1  0  0  0
 20 30  1  0  0  0  0
 20 16  1  0  0  0  0
 22 21  1  0  0  0  0
 22 14  1  0  0  0  0
 23 28  1  0  0  0  0
 24  2  1  0  0  0  0
 25  5  1  0  0  0  0
 27 14  1  0  0  0  0
 27  5  2  0  0  0  0
 28  9  2  0  0  0  0
 29 30  1  0  0  0  0
 29 32  1  1  0  0  0
 30 31  1  6  0  0  0
 31 29  1  0  0  0  0
M  END
>  <MODEL>
8

>  <REMARK>
 VINA RESULT:      -8.8      2.545      3.328
  Name = 
  1 active torsions:
  status: ('A' for Active; 'I' for Inactive)
    1  A    between atoms: C_10  and  N_24
                            x       y       z     vdW  Elec       q    Type
                         _______ _______ _______ _____ _____    ______ ____

>  <TORSDO>
F 1

$$$$
=
 OpenBabel10272413213D

 32 38  0  0  1  0  0  0  0  0999 V2000
  191.6710  176.6560  143.7660 C   0  0  0  0  0  2  0  0  0  0  0  0
  187.3440  177.9900  141.2500 C   0  0  0  0  0  0  0  0  0  0  0  0
  188.9910  178.1880  136.6680 C   0  0  0  0  0  3  0  0  0  0  0  0
  187.6940  178.4230  136.2120 C   0  0  0  0  0  3  0  0  0  0  0  0
  184.8920  178.4860  141.8110 C   0  0  0  0  0  0  0  0  0  0  0  0
  183.5560  178.6870  141.1580 C   0  0  0  0  0  0  0  0  0  0  0  0
  188.9240  177.7170  143.0770 C   0  0  0  0  0  0  0  0  0  0  0  0
  189.6970  177.8050  140.8130 N   0  0  0  0  0  0  0  0  0  0  0  0
  182.0570  179.0250  139.6350 C   0  0  0  0  0  0  0  0  0  0  0  0
  191.4390  177.5720  142.5500 C   0  0  0  0  0  2  0  0  0  0  0  0
  189.2310  178.0390  138.0350 C   0  0  0  0  0  3  0  0  0  0  0  0
  188.4190  177.9770  140.3390 C   0  0  0  0  0  0  0  0  0  0  0  0
  188.1790  178.0890  138.9610 C   0  0  0  0  0  0  0  0  0  0  0  0
  185.7880  178.3920  139.3930 C   0  0  0  0  0  0  0  0  0  0  0  0
  181.4810  178.9800  140.8210 O   0  0  0  0  0  0  0  0  0  0  0  0
  190.4160  178.3250  145.0190 C   0  0  0  0  0  2  0  0  0  0  0  0
  189.9820  177.6550  142.1390 C   0  0  0  0  0  0  0  0  0  0  0  0
  182.3580  178.7890  141.7690 N   0  0  0  0  0  0  0  0  0  0  0  0
  189.1000  177.6790  144.5660 C   0  0  0  0  0  2  0  0  0  0  0  0
  191.5220  177.3450  145.0650 N   0  0  1  0  0  0  0  0  0  0  0  0
  186.6360  178.4820  137.1160 C   0  0  0  0  0  3  0  0  0  0  0  0
  186.8560  178.3040  138.4890 C   0  0  0  0  0  0  0  0  0  0  0  0
  184.4750  178.7500  138.9000 N   0  0  0  0  0  0  0  0  0  0  0  0
  187.6200  177.8590  142.6130 C   0  0  0  0  0  3  0  0  0  0  0  0
  185.2220  179.7300  142.6510 C   0  0  0  0  0  1  0  0  0  0  0  0
  181.3490  179.2340  138.3470 C   0  0  0  0  0  1  0  0  0  0  0  0
  186.0170  178.2220  140.7930 C   0  0  0  0  0  0  0  0  0  0  0  0
  183.4010  178.8480  139.8250 C   0  0  0  0  0  0  0  0  0  0  0  0
  190.4750  176.7360  147.2580 C   0  0  2  0  0  3  0  0  0  0  0  0
  191.2580  176.2690  146.0340 C   0  0  2  0  0  3  0  0  0  0  0  0
  191.9820  176.5000  147.3460 C   0  0  0  0  0  2  0  0  0  0  0  0
  189.8300  175.6490  147.8460 O   0  0  0  0  0  1  0  0  0  0  0  0
  2 24  1  0  0  0  0
  3 11  1  0  0  0  0
  4  3  2  0  0  0  0
  4 21  1  0  0  0  0
  5 25  1  0  0  0  0
  6 18  2  0  0  0  0
  6  5  1  0  0  0  0
  7 19  1  0  0  0  0
  8 17  2  0  0  0  0
  9 28  2  0  0  0  0
  9 15  1  0  0  0  0
 10  1  1  0  0  0  0
 11 13  2  0  0  0  0
 12  8  1  0  0  0  0
 12  2  2  0  0  0  0
 13 12  1  0  0  0  0
 14 27  1  0  0  0  0
 15 18  1  0  0  0  0
 16 20  1  0  0  0  0
 17 10  1  0  0  0  0
 17  7  1  0  0  0  0
 19 16  1  0  0  0  0
 20  1  1  6  0  0  0
 20 30  1  0  0  0  0
 21 22  2  0  0  0  0
 22 13  1  0  0  0  0
 22 14  1  0  0  0  0
 23 14  2  0  0  0  0
 23 28  1  0  0  0  0
 24  7  2  0  0  0  0
 26  9  1  0  0  0  0
 27  2  1  0  0  0  0
 27  5  2  0  0  0  0
 28  6  1  0  0  0  0
 29 31  1  0  0  0  0
 29 32  1  1  0  0  0
 30 29  1  0  0  0  0
 30 31  1  1  0  0  0
M  END
>  <MODEL>
9

>  <REMARK>
 VINA RESULT:      -8.4      2.842      7.985
  Name = 
  1 active torsions:
  status: ('A' for Active; 'I' for Inactive)
    1  A    between atoms: C_10  and  N_24
                            x       y       z     vdW  Elec       q    Type
                         _______ _______ _______ _____ _____    ______ ____

>  <TORSDO>
F 1

$$$$
