=
 OpenBabel10272415183D

 34 36  0  0  1  0  0  0  0  0999 V2000
  185.5250  178.8040  140.4670 C   0  0  0  0  0  0  0  0  0  0  0  0
  184.4280  179.1640  142.6750 C   0  0  1  0  0  3  0  0  0  0  0  0
  185.5420  178.6920  141.8000 C   0  0  0  0  0  3  0  0  0  0  0  0
  182.5440  178.4460  141.2280 C   0  0  0  0  0  3  0  0  0  0  0  0
  182.0690  179.5590  139.1900 F   0  0  0  0  0  0  0  0  0  0  0  0
  183.1740  178.4020  142.4010 C   0  0  0  0  0  3  0  0  0  0  0  0
  184.6390  180.1980  138.7800 O   0  0  0  0  0  0  0  0  0  0  0  0
  184.3850  179.4440  139.7570 C   0  0  0  0  0  0  0  0  0  0  0  0
  183.0070  179.1930  140.0920 N   0  0  0  0  0  0  0  0  0  0  0  0
  189.1180  177.9980  139.5090 C   0  0  0  0  0  3  0  0  0  0  0  0
  188.2280  178.9680  141.4790 F   0  0  0  0  0  0  0  0  0  0  0  0
  188.9570  177.4780  138.2220 C   0  0  0  0  0  0  0  0  0  0  0  0
  187.6700  177.4100  137.6710 C   0  0  0  0  0  3  0  0  0  0  0  0
  188.0160  178.4350  140.2500 C   0  0  0  0  0  0  0  0  0  0  0  0
  186.5640  177.8460  138.4030 C   0  0  0  0  0  3  0  0  0  0  0  0
  186.7180  178.3550  139.7030 C   0  0  0  0  0  0  0  0  0  0  0  0
  190.1010  177.0500  137.5300 O   0  0  0  0  0  0  0  0  0  0  0  0
  190.7190  174.9030  138.1760 O   0  0  0  0  0  0  0  0  0  0  0  0
  192.4350  176.5350  138.2240 C   0  0  0  0  0  1  0  0  0  0  0  0
  191.0350  176.1050  137.9760 C   0  0  0  0  0  0  0  0  0  0  0  0
  184.7880  179.0910  144.0560 O   0  0  0  0  0  0  0  0  0  0  0  0
  187.5450  176.6100  144.3440 C   0  0  0  0  0  2  0  0  0  0  0  0
  186.2180  178.4890  145.9820 C   0  0  0  0  0  3  0  0  0  0  0  0
  188.3110  177.2730  145.4970 C   0  0  2  0  0  3  0  0  0  0  0  0
  187.3560  177.9630  146.4450 C   0  0  0  0  0  0  0  0  0  0  0  0
  185.8420  178.3230  144.5690 C   0  0  0  0  0  0  0  0  0  0  0  0
  186.5000  177.4900  143.8140 N   0  0  0  0  0  0  0  0  0  0  0  0
  190.6080  178.0050  144.7460 C   0  0  0  0  0  3  0  0  0  0  0  0
  189.3120  178.2540  144.9730 C   0  0  0  0  0  3  0  0  0  0  0  0
  191.8340  176.3880  146.2920 C   0  0  0  0  0  1  0  0  0  0  0  0
  191.5940  175.9200  143.8620 C   0  0  0  0  0  1  0  0  0  0  0  0
  191.2860  176.7650  144.9990 N   0  0  0  0  0  0  0  0  0  0  0  0
  187.6840  178.1450  147.8640 C   0  0  0  0  0  3  0  0  0  0  0  0
  188.8630  177.8050  148.3700 C   0  0  0  0  0  2  0  0  0  0  0  0
  1  3  2  0  0  0  0
  2 21  1  1  0  0  0
  3  2  1  0  0  0  0
  4  6  2  0  0  0  0
  5  9  1  0  0  0  0
  6  2  1  0  0  0  0
  7  8  2  0  0  0  0
  8  9  1  0  0  0  0
  8  1  1  0  0  0  0
  9  4  1  0  0  0  0
 10 14  1  0  0  0  0
 12 10  2  0  0  0  0
 13 12  1  0  0  0  0
 13 15  2  0  0  0  0
 14 11  1  0  0  0  0
 15 16  1  0  0  0  0
 16 14  2  0  0  0  0
 16  1  1  0  0  0  0
 17 20  1  0  0  0  0
 17 12  1  0  0  0  0
 20 18  2  0  0  0  0
 20 19  1  0  0  0  0
 21 26  1  0  0  0  0
 22 24  1  0  0  0  0
 23 25  2  0  0  0  0
 24 29  1  6  0  0  0
 24 25  1  0  0  0  0
 25 33  1  0  0  0  0
 26 23  1  0  0  0  0
 27 22  1  0  0  0  0
 27 26  2  0  0  0  0
 28 29  2  0  0  0  0
 28 32  1  0  0  0  0
 31 32  1  0  0  0  0
 32 30  1  0  0  0  0
 33 34  2  0  0  0  0
M  END
>  <MODEL>
1

>  <REMARK>
 VINA RESULT:      -9.2      0.000      0.000
  Name = 
  8 active torsions:
  status: ('A' for Active; 'I' for Inactive)
    1  A    between atoms: C_1  and  C_34
    2  A    between atoms: C_7  and  N_21
    3  A    between atoms: C_8  and  O_18
    4  A    between atoms: C_14  and  C_16
    5  A    between atoms: O_18  and  C_30
    6  A    between atoms: O_23  and  C_24
    7  A    between atoms: O_23  and  C_25
    8  A    between atoms: C_26  and  C_28
                            x       y       z     vdW  Elec       q    Type
                         _______ _______ _______ _____ _____    ______ ____

>  <TORSDO>
F 8

$$$$
=
 OpenBabel10272415183D

 34 36  0  0  1  0  0  0  0  0999 V2000
  188.3340  177.6090  145.5740 C   0  0  0  0  0  0  0  0  0  0  0  0
  186.0330  177.8940  146.4860 C   0  0  1  0  0  3  0  0  0  0  0  0
  187.0320  177.8410  145.3770 C   0  0  0  0  0  3  0  0  0  0  0  0
  187.4390  179.0930  148.1410 C   0  0  0  0  0  3  0  0  0  0  0  0
  189.2770  178.0260  149.1910 F   0  0  0  0  0  0  0  0  0  0  0  0
  186.3240  179.0250  147.4140 C   0  0  0  0  0  3  0  0  0  0  0  0
  189.7620  176.4650  147.0670 O   0  0  0  0  0  0  0  0  0  0  0  0
  188.8790  177.3540  146.9340 C   0  0  0  0  0  0  0  0  0  0  0  0
  188.4930  178.1180  148.0930 N   0  0  0  0  0  0  0  0  0  0  0  0
  189.8470  176.5180  142.2580 C   0  0  0  0  0  3  0  0  0  0  0  0
  187.9770  175.6820  143.4480 F   0  0  0  0  0  0  0  0  0  0  0  0
  190.9350  177.3870  142.1440 C   0  0  0  0  0  0  0  0  0  0  0  0
  191.1730  178.3180  143.1660 C   0  0  0  0  0  3  0  0  0  0  0  0
  188.9960  176.5740  143.3650 C   0  0  0  0  0  0  0  0  0  0  0  0
  190.3290  178.3800  144.2760 C   0  0  0  0  0  3  0  0  0  0  0  0
  189.2250  177.5180  144.3880 C   0  0  0  0  0  0  0  0  0  0  0  0
  191.7520  177.2870  141.0070 O   0  0  0  0  0  0  0  0  0  0  0  0
  190.2540  177.8010  139.3030 O   0  0  0  0  0  0  0  0  0  0  0  0
  192.1270  176.4930  138.6780 C   0  0  0  0  0  1  0  0  0  0  0  0
  191.3150  177.2370  139.6760 C   0  0  0  0  0  0  0  0  0  0  0  0
  184.6990  177.9710  145.9770 O   0  0  0  0  0  0  0  0  0  0  0  0
  184.9180  179.4690  142.5800 C   0  0  0  0  0  2  0  0  0  0  0  0
  182.9210  178.7400  144.4380 C   0  0  0  0  0  3  0  0  0  0  0  0
  183.5350  179.0430  142.0670 C   0  0  2  0  0  3  0  0  0  0  0  0
  182.5280  179.0310  143.1950 C   0  0  0  0  0  0  0  0  0  0  0  0
  184.3460  178.5190  144.7370 C   0  0  0  0  0  0  0  0  0  0  0  0
  185.2500  178.8130  143.8460 N   0  0  0  0  0  0  0  0  0  0  0  0
  183.0310  177.3490  140.2630 C   0  0  0  0  0  3  0  0  0  0  0  0
  183.6020  177.6930  141.4240 C   0  0  0  0  0  3  0  0  0  0  0  0
  180.7640  178.2020  139.4620 C   0  0  0  0  0  1  0  0  0  0  0  0
  182.8800  178.9660  138.4020 C   0  0  0  0  0  1  0  0  0  0  0  0
  182.2180  178.1980  139.4380 N   0  0  0  0  0  0  0  0  0  0  0  0
  181.0990  179.2530  142.9480 C   0  0  0  0  0  3  0  0  0  0  0  0
  180.1530  178.6280  143.6370 C   0  0  0  0  0  2  0  0  0  0  0  0
  1  8  1  0  0  0  0
  2 21  1  6  0  0  0
  2  6  1  0  0  0  0
  3  1  2  0  0  0  0
  3  2  1  0  0  0  0
  6  4  2  0  0  0  0
  8  7  2  0  0  0  0
  8  9  1  0  0  0  0
  9  4  1  0  0  0  0
  9  5  1  0  0  0  0
 10 14  1  0  0  0  0
 12 10  2  0  0  0  0
 12 13  1  0  0  0  0
 13 15  2  0  0  0  0
 14 11  1  0  0  0  0
 14 16  2  0  0  0  0
 15 16  1  0  0  0  0
 16  1  1  0  0  0  0
 17 12  1  0  0  0  0
 18 20  2  0  0  0  0
 19 20  1  0  0  0  0
 20 17  1  0  0  0  0
 22 27  1  0  0  0  0
 23 26  1  0  0  0  0
 24 29  1  1  0  0  0
 24 22  1  0  0  0  0
 24 25  1  0  0  0  0
 25 23  2  0  0  0  0
 26 21  1  0  0  0  0
 27 26  2  0  0  0  0
 28 29  2  0  0  0  0
 31 32  1  0  0  0  0
 32 30  1  0  0  0  0
 32 28  1  0  0  0  0
 33 25  1  0  0  0  0
 33 34  2  0  0  0  0
M  END
>  <MODEL>
2

>  <REMARK>
 VINA RESULT:      -9.0      2.850      6.923
  Name = 
  8 active torsions:
  status: ('A' for Active; 'I' for Inactive)
    1  A    between atoms: C_1  and  C_34
    2  A    between atoms: C_7  and  N_21
    3  A    between atoms: C_8  and  O_18
    4  A    between atoms: C_14  and  C_16
    5  A    between atoms: O_18  and  C_30
    6  A    between atoms: O_23  and  C_24
    7  A    between atoms: O_23  and  C_25
    8  A    between atoms: C_26  and  C_28
                            x       y       z     vdW  Elec       q    Type
                         _______ _______ _______ _____ _____    ______ ____

>  <TORSDO>
F 8

$$$$
=
 OpenBabel10272415183D

 34 36  0  0  1  0  0  0  0  0999 V2000
  183.1280  178.2300  141.2070 C   0  0  0  0  0  0  0  0  0  0  0  0
  184.2020  179.3050  143.1810 C   0  0  1  0  0  3  0  0  0  0  0  0
  184.2180  178.4650  141.9470 C   0  0  0  0  0  3  0  0  0  0  0  0
  182.0290  178.5240  144.0870 C   0  0  0  0  0  3  0  0  0  0  0  0
  179.9820  179.1310  143.0590 F   0  0  0  0  0  0  0  0  0  0  0  0
  183.3420  178.6910  144.2350 C   0  0  0  0  0  3  0  0  0  0  0  0
  181.0850  179.2570  140.6200 O   0  0  0  0  0  0  0  0  0  0  0  0
  181.8110  178.8270  141.5550 C   0  0  0  0  0  0  0  0  0  0  0  0
  181.3000  178.8760  142.9010 N   0  0  0  0  0  0  0  0  0  0  0  0
  184.2150  177.0860  137.7440 C   0  0  0  0  0  3  0  0  0  0  0  0
  184.7350  179.0580  138.9500 F   0  0  0  0  0  0  0  0  0  0  0  0
  183.5380  175.8690  137.6240 C   0  0  0  0  0  0  0  0  0  0  0  0
  182.7180  175.4400  138.6760 C   0  0  0  0  0  3  0  0  0  0  0  0
  184.0900  177.8650  138.8980 C   0  0  0  0  0  0  0  0  0  0  0  0
  182.5860  176.2120  139.8320 C   0  0  0  0  0  3  0  0  0  0  0  0
  183.2750  177.4300  139.9640 C   0  0  0  0  0  0  0  0  0  0  0  0
  183.7070  175.1280  136.4440 O   0  0  0  0  0  0  0  0  0  0  0  0
  183.4300  172.9640  135.6370 O   0  0  0  0  0  0  0  0  0  0  0  0
  185.2280  173.2870  137.1460 C   0  0  0  0  0  1  0  0  0  0  0  0
  184.0660  173.7760  136.3590 C   0  0  0  0  0  0  0  0  0  0  0  0
  185.5280  179.5380  143.6640 O   0  0  0  0  0  0  0  0  0  0  0  0
  187.9220  176.6930  143.5670 C   0  0  0  0  0  2  0  0  0  0  0  0
  186.6680  178.3290  145.4970 C   0  0  0  0  0  3  0  0  0  0  0  0
  188.6380  176.9690  144.8960 C   0  0  2  0  0  3  0  0  0  0  0  0
  187.6800  177.5590  145.9060 C   0  0  0  0  0  0  0  0  0  0  0  0
  186.4230  178.5360  144.0600 C   0  0  0  0  0  0  0  0  0  0  0  0
  187.0510  177.8060  143.1820 N   0  0  0  0  0  0  0  0  0  0  0  0
  191.0880  177.5830  144.8830 C   0  0  0  0  0  3  0  0  0  0  0  0
  189.7990  177.8910  144.6900 C   0  0  0  0  0  3  0  0  0  0  0  0
  191.9070  176.0520  146.7520 C   0  0  0  0  0  1  0  0  0  0  0  0
  191.9770  175.3360  144.3710 C   0  0  0  0  0  1  0  0  0  0  0  0
  191.5930  176.3260  145.3590 N   0  0  0  0  0  0  0  0  0  0  0  0
  187.8790  177.3750  147.3480 C   0  0  0  0  0  3  0  0  0  0  0  0
  188.7140  178.1280  148.0530 C   0  0  0  0  0  2  0  0  0  0  0  0
  1  8  1  0  0  0  0
  1  3  2  0  0  0  0
  2 21  1  1  0  0  0
  2  6  1  0  0  0  0
  3  2  1  0  0  0  0
  4  6  2  0  0  0  0
  7  8  2  0  0  0  0
  8  9  1  0  0  0  0
  9  5  1  0  0  0  0
  9  4  1  0  0  0  0
 10 14  1  0  0  0  0
 12 10  2  0  0  0  0
 12 13  1  0  0  0  0
 13 15  2  0  0  0  0
 14 11  1  0  0  0  0
 14 16  2  0  0  0  0
 15 16  1  0  0  0  0
 16  1  1  0  0  0  0
 17 12  1  0  0  0  0
 18 20  2  0  0  0  0
 20 17  1  0  0  0  0
 20 19  1  0  0  0  0
 21 26  1  0  0  0  0
 22 24  1  0  0  0  0
 23 25  2  0  0  0  0
 24 29  1  6  0  0  0
 24 25  1  0  0  0  0
 25 33  1  0  0  0  0
 26 23  1  0  0  0  0
 27 22  1  0  0  0  0
 27 26  2  0  0  0  0
 28 32  1  0  0  0  0
 29 28  2  0  0  0  0
 31 32  1  0  0  0  0
 32 30  1  0  0  0  0
 33 34  2  0  0  0  0
M  END
>  <MODEL>
3

>  <REMARK>
 VINA RESULT:      -8.8      3.137      3.738
  Name = 
  8 active torsions:
  status: ('A' for Active; 'I' for Inactive)
    1  A    between atoms: C_1  and  C_34
    2  A    between atoms: C_7  and  N_21
    3  A    between atoms: C_8  and  O_18
    4  A    between atoms: C_14  and  C_16
    5  A    between atoms: O_18  and  C_30
    6  A    between atoms: O_23  and  C_24
    7  A    between atoms: O_23  and  C_25
    8  A    between atoms: C_26  and  C_28
                            x       y       z     vdW  Elec       q    Type
                         _______ _______ _______ _____ _____    ______ ____

>  <TORSDO>
F 8

$$$$
=
 OpenBabel10272415183D

 34 36  0  0  1  0  0  0  0  0999 V2000
  189.9300  176.7960  137.3750 C   0  0  0  0  0  0  0  0  0  0  0  0
  188.4150  178.2200  138.7470 C   0  0  1  0  0  3  0  0  0  0  0  0
  189.5840  177.3090  138.5600 C   0  0  0  0  0  3  0  0  0  0  0  0
  186.8500  177.0720  137.2010 C   0  0  0  0  0  3  0  0  0  0  0  0
  187.1630  177.1560  134.8540 F   0  0  0  0  0  0  0  0  0  0  0  0
  187.1360  177.5220  138.4220 C   0  0  0  0  0  3  0  0  0  0  0  0
  189.8290  177.3240  135.0760 O   0  0  0  0  0  0  0  0  0  0  0  0
  189.1770  177.1280  136.1360 C   0  0  0  0  0  0  0  0  0  0  0  0
  187.7380  177.1720  136.0770 N   0  0  0  0  0  0  0  0  0  0  0  0
  192.2460  173.8160  136.8890 C   0  0  0  0  0  3  0  0  0  0  0  0
  189.8870  173.9750  136.7390 F   0  0  0  0  0  0  0  0  0  0  0  0
  193.4960  174.3850  137.1490 C   0  0  0  0  0  0  0  0  0  0  0  0
  193.5670  175.7410  137.4970 C   0  0  0  0  0  3  0  0  0  0  0  0
  191.0800  174.5830  136.9610 C   0  0  0  0  0  0  0  0  0  0  0  0
  192.4080  176.5140  137.5720 C   0  0  0  0  0  3  0  0  0  0  0  0
  191.1500  175.9510  137.2980 C   0  0  0  0  0  0  0  0  0  0  0  0
  194.6320  173.5660  137.0550 O   0  0  0  0  0  0  0  0  0  0  0  0
  195.6330  173.3770  139.1470 O   0  0  0  0  0  0  0  0  0  0  0  0
  195.3260  171.3520  137.9570 C   0  0  0  0  0  1  0  0  0  0  0  0
  195.2090  172.8260  138.0970 C   0  0  0  0  0  0  0  0  0  0  0  0
  188.3880  178.7610  140.0700 O   0  0  0  0  0  0  0  0  0  0  0  0
  189.6480  176.4300  142.6800 C   0  0  0  0  0  2  0  0  0  0  0  0
  187.3780  178.0420  142.2110 C   0  0  0  0  0  3  0  0  0  0  0  0
  188.8780  177.0100  143.8760 C   0  0  2  0  0  3  0  0  0  0  0  0
  187.5310  177.5380  143.4380 C   0  0  0  0  0  0  0  0  0  0  0  0
  188.4890  178.0070  141.2470 C   0  0  0  0  0  0  0  0  0  0  0  0
  189.5520  177.2980  141.5050 N   0  0  0  0  0  0  0  0  0  0  0  0
  190.0910  178.0990  145.8050 C   0  0  0  0  0  3  0  0  0  0  0  0
  189.6670  178.0990  144.5350 C   0  0  0  0  0  3  0  0  0  0  0  0
  188.5740  176.9230  147.4860 C   0  0  0  0  0  1  0  0  0  0  0  0
  190.9570  176.2630  147.2120 C   0  0  0  0  0  1  0  0  0  0  0  0
  189.8370  177.0770  146.7800 N   0  0  0  0  0  0  0  0  0  0  0  0
  186.3910  177.5870  144.3610 C   0  0  0  0  0  3  0  0  0  0  0  0
  185.4310  178.4960  144.2570 C   0  0  0  0  0  2  0  0  0  0  0  0
  1  3  2  0  0  0  0
  2 21  1  1  0  0  0
  3  2  1  0  0  0  0
  4  6  2  0  0  0  0
  5  9  1  0  0  0  0
  6  2  1  0  0  0  0
  7  8  2  0  0  0  0
  8  1  1  0  0  0  0
  9  8  1  0  0  0  0
  9  4  1  0  0  0  0
 10 14  2  0  0  0  0
 10 12  1  0  0  0  0
 11 14  1  0  0  0  0
 12 13  2  0  0  0  0
 13 15  1  0  0  0  0
 14 16  1  0  0  0  0
 16  1  1  0  0  0  0
 16 15  2  0  0  0  0
 17 12  1  0  0  0  0
 17 20  1  0  0  0  0
 19 20  1  0  0  0  0
 20 18  2  0  0  0  0
 21 26  1  0  0  0  0
 22 24  1  0  0  0  0
 23 25  2  0  0  0  0
 24 29  1  6  0  0  0
 25 24  1  0  0  0  0
 25 33  1  0  0  0  0
 26 27  2  0  0  0  0
 26 23  1  0  0  0  0
 27 22  1  0  0  0  0
 28 32  1  0  0  0  0
 29 28  2  0  0  0  0
 32 31  1  0  0  0  0
 32 30  1  0  0  0  0
 34 33  2  0  0  0  0
M  END
>  <MODEL>
4

>  <REMARK>
 VINA RESULT:      -8.4      3.135      5.139
  Name = 
  8 active torsions:
  status: ('A' for Active; 'I' for Inactive)
    1  A    between atoms: C_1  and  C_34
    2  A    between atoms: C_7  and  N_21
    3  A    between atoms: C_8  and  O_18
    4  A    between atoms: C_14  and  C_16
    5  A    between atoms: O_18  and  C_30
    6  A    between atoms: O_23  and  C_24
    7  A    between atoms: O_23  and  C_25
    8  A    between atoms: C_26  and  C_28
                            x       y       z     vdW  Elec       q    Type
                         _______ _______ _______ _____ _____    ______ ____

>  <TORSDO>
F 8

$$$$
=
 OpenBabel10272415183D

 34 36  0  0  1  0  0  0  0  0999 V2000
  182.5430  177.9180  140.5400 C   0  0  0  0  0  0  0  0  0  0  0  0
  184.3120  178.9820  141.9340 C   0  0  1  0  0  3  0  0  0  0  0  0
  183.8210  177.9970  140.9240 C   0  0  0  0  0  3  0  0  0  0  0  0
  182.3830  178.8510  143.4890 C   0  0  0  0  0  3  0  0  0  0  0  0
  180.2750  179.7620  142.9060 F   0  0  0  0  0  0  0  0  0  0  0  0
  183.6920  178.7330  143.2690 C   0  0  0  0  0  3  0  0  0  0  0  0
  180.6390  179.2930  140.2930 O   0  0  0  0  0  0  0  0  0  0  0  0
  181.5110  178.8420  141.0830 C   0  0  0  0  0  0  0  0  0  0  0  0
  181.4230  179.1930  142.4770 N   0  0  0  0  0  0  0  0  0  0  0  0
  180.8220  175.0990  138.6500 C   0  0  0  0  0  3  0  0  0  0  0  0
  180.4700  175.9240  140.8430 F   0  0  0  0  0  0  0  0  0  0  0  0
  181.5150  175.1090  137.4360 C   0  0  0  0  0  0  0  0  0  0  0  0
  182.5530  176.0330  137.2530 C   0  0  0  0  0  3  0  0  0  0  0  0
  181.1450  176.0000  139.6680 C   0  0  0  0  0  0  0  0  0  0  0  0
  182.8830  176.9370  138.2640 C   0  0  0  0  0  3  0  0  0  0  0  0
  182.1800  176.9400  139.4810 C   0  0  0  0  0  0  0  0  0  0  0  0
  181.1410  174.1830  136.4500 O   0  0  0  0  0  0  0  0  0  0  0  0
  181.7580  172.1270  137.3460 O   0  0  0  0  0  0  0  0  0  0  0  0
  181.9040  172.3170  134.9890 C   0  0  0  0  0  1  0  0  0  0  0  0
  181.5980  172.8630  136.3370 C   0  0  0  0  0  0  0  0  0  0  0  0
  185.7400  178.9700  142.0160 O   0  0  0  0  0  0  0  0  0  0  0  0
  188.1500  176.5190  143.4350 C   0  0  0  0  0  2  0  0  0  0  0  0
  186.2080  178.3460  144.3630 C   0  0  0  0  0  3  0  0  0  0  0  0
  188.3280  177.1670  144.8150 C   0  0  2  0  0  3  0  0  0  0  0  0
  187.0440  177.8250  145.2660 C   0  0  0  0  0  0  0  0  0  0  0  0
  186.4840  178.2050  142.9240 C   0  0  0  0  0  0  0  0  0  0  0  0
  187.4200  177.3960  142.5170 N   0  0  0  0  0  0  0  0  0  0  0  0
  190.7410  177.9030  144.9480 C   0  0  0  0  0  3  0  0  0  0  0  0
  189.4380  178.1710  144.7890 C   0  0  0  0  0  3  0  0  0  0  0  0
  191.7230  176.1580  146.5280 C   0  0  0  0  0  1  0  0  0  0  0  0
  191.6570  175.7840  144.0700 C   0  0  0  0  0  1  0  0  0  0  0  0
  191.3110  176.6120  145.2090 N   0  0  0  0  0  0  0  0  0  0  0  0
  186.7220  177.9820  146.6890 C   0  0  0  0  0  3  0  0  0  0  0  0
  185.5400  178.4160  147.1070 C   0  0  0  0  0  2  0  0  0  0  0  0
  1  3  2  0  0  0  0
  1  8  1  0  0  0  0
  2 21  1  1  0  0  0
  2  6  1  0  0  0  0
  3  2  1  0  0  0  0
  6  4  2  0  0  0  0
  7  8  2  0  0  0  0
  8  9  1  0  0  0  0
  9  5  1  0  0  0  0
  9  4  1  0  0  0  0
 10 14  1  0  0  0  0
 12 10  2  0  0  0  0
 13 12  1  0  0  0  0
 13 15  2  0  0  0  0
 14 11  1  0  0  0  0
 15 16  1  0  0  0  0
 16 14  2  0  0  0  0
 16  1  1  0  0  0  0
 17 12  1  0  0  0  0
 19 20  1  0  0  0  0
 20 17  1  0  0  0  0
 20 18  2  0  0  0  0
 21 26  1  0  0  0  0
 22 24  1  0  0  0  0
 23 25  2  0  0  0  0
 24 29  1  6  0  0  0
 24 25  1  0  0  0  0
 25 33  1  0  0  0  0
 26 23  1  0  0  0  0
 27 26  2  0  0  0  0
 27 22  1  0  0  0  0
 28 32  1  0  0  0  0
 29 28  2  0  0  0  0
 31 32  1  0  0  0  0
 32 30  1  0  0  0  0
 33 34  2  0  0  0  0
M  END
>  <MODEL>
5

>  <REMARK>
 VINA RESULT:      -8.1      3.548      5.017
  Name = 
  8 active torsions:
  status: ('A' for Active; 'I' for Inactive)
    1  A    between atoms: C_1  and  C_34
    2  A    between atoms: C_7  and  N_21
    3  A    between atoms: C_8  and  O_18
    4  A    between atoms: C_14  and  C_16
    5  A    between atoms: O_18  and  C_30
    6  A    between atoms: O_23  and  C_24
    7  A    between atoms: O_23  and  C_25
    8  A    between atoms: C_26  and  C_28
                            x       y       z     vdW  Elec       q    Type
                         _______ _______ _______ _____ _____    ______ ____

>  <TORSDO>
F 8

$$$$
=
 OpenBabel10272415183D

 34 36  0  0  1  0  0  0  0  0999 V2000
  189.6580  177.6410  140.8520 C   0  0  0  0  0  0  0  0  0  0  0  0
  189.0110  178.3100  138.5410 C   0  0  1  0  0  3  0  0  0  0  0  0
  188.7500  178.1280  140.0000 C   0  0  0  0  0  3  0  0  0  0  0  0
  190.3070  176.2260  138.1740 C   0  0  0  0  0  3  0  0  0  0  0  0
  192.5010  175.9790  139.0360 F   0  0  0  0  0  0  0  0  0  0  0  0
  189.2630  176.9990  137.8750 C   0  0  0  0  0  3  0  0  0  0  0  0
  191.9990  177.5540  141.1450 O   0  0  0  0  0  0  0  0  0  0  0  0
  191.0250  177.2690  140.3990 C   0  0  0  0  0  0  0  0  0  0  0  0
  191.2810  176.5420  139.1810 N   0  0  0  0  0  0  0  0  0  0  0  0
  189.5550  178.3140  144.5960 C   0  0  0  0  0  3  0  0  0  0  0  0
  190.8740  179.2940  142.8890 F   0  0  0  0  0  0  0  0  0  0  0  0
  188.5980  177.3880  145.0220 C   0  0  0  0  0  0  0  0  0  0  0  0
  188.0050  176.5380  144.0780 C   0  0  0  0  0  3  0  0  0  0  0  0
  189.9120  178.4060  143.2480 C   0  0  0  0  0  0  0  0  0  0  0  0
  188.3560  176.6230  142.7300 C   0  0  0  0  0  3  0  0  0  0  0  0
  189.3070  177.5620  142.2940 C   0  0  0  0  0  0  0  0  0  0  0  0
  188.2770  177.3460  146.3880 O   0  0  0  0  0  0  0  0  0  0  0  0
  190.1710  176.5390  147.4710 O   0  0  0  0  0  0  0  0  0  0  0  0
  188.9820  178.2520  148.5960 C   0  0  0  0  0  1  0  0  0  0  0  0
  189.1870  177.3240  147.4540 C   0  0  0  0  0  0  0  0  0  0  0  0
  187.9410  179.0150  137.9080 O   0  0  0  0  0  0  0  0  0  0  0  0
  185.6690  177.2880  135.5230 C   0  0  0  0  0  2  0  0  0  0  0  0
  185.5500  178.4140  138.1100 C   0  0  0  0  0  3  0  0  0  0  0  0
  184.6790  176.7140  136.5470 C   0  0  2  0  0  3  0  0  0  0  0  0
  184.5230  177.6520  137.7220 C   0  0  0  0  0  0  0  0  0  0  0  0
  186.8080  178.4140  137.3450 C   0  0  0  0  0  0  0  0  0  0  0  0
  186.8570  177.8440  136.1750 N   0  0  0  0  0  0  0  0  0  0  0  0
  184.3690  174.2670  137.0870 C   0  0  0  0  0  3  0  0  0  0  0  0
  185.1280  175.3670  137.0200 C   0  0  0  0  0  3  0  0  0  0  0  0
  181.8980  174.3260  137.7200 C   0  0  0  0  0  1  0  0  0  0  0  0
  182.6270  173.7560  135.4120 C   0  0  0  0  0  1  0  0  0  0  0  0
  182.9750  174.1820  136.7530 N   0  0  0  0  0  0  0  0  0  0  0  0
  183.2870  177.6920  138.5110 C   0  0  0  0  0  3  0  0  0  0  0  0
  183.2330  177.2800  139.7710 C   0  0  0  0  0  2  0  0  0  0  0  0
  1 16  1  0  0  0  0
  2 21  1  6  0  0  0
  2  3  1  0  0  0  0
  3  1  2  0  0  0  0
  4  9  1  0  0  0  0
  5  9  1  0  0  0  0
  6  4  2  0  0  0  0
  6  2  1  0  0  0  0
  8  1  1  0  0  0  0
  8  7  2  0  0  0  0
  9  8  1  0  0  0  0
 10 12  1  0  0  0  0
 11 14  1  0  0  0  0
 12 17  1  0  0  0  0
 13 12  2  0  0  0  0
 14 10  2  0  0  0  0
 15 13  1  0  0  0  0
 16 15  2  0  0  0  0
 16 14  1  0  0  0  0
 17 20  1  0  0  0  0
 20 18  2  0  0  0  0
 20 19  1  0  0  0  0
 22 27  1  0  0  0  0
 22 24  1  0  0  0  0
 24 29  1  1  0  0  0
 24 25  1  0  0  0  0
 25 23  2  0  0  0  0
 25 33  1  0  0  0  0
 26 21  1  0  0  0  0
 26 23  1  0  0  0  0
 27 26  2  0  0  0  0
 29 28  2  0  0  0  0
 31 32  1  0  0  0  0
 32 28  1  0  0  0  0
 32 30  1  0  0  0  0
 33 34  2  0  0  0  0
M  END
>  <MODEL>
6

>  <REMARK>
 VINA RESULT:      -8.1      3.416      8.494
  Name = 
  8 active torsions:
  status: ('A' for Active; 'I' for Inactive)
    1  A    between atoms: C_1  and  C_34
    2  A    between atoms: C_7  and  N_21
    3  A    between atoms: C_8  and  O_18
    4  A    between atoms: C_14  and  C_16
    5  A    between atoms: O_18  and  C_30
    6  A    between atoms: O_23  and  C_24
    7  A    between atoms: O_23  and  C_25
    8  A    between atoms: C_26  and  C_28
                            x       y       z     vdW  Elec       q    Type
                         _______ _______ _______ _____ _____    ______ ____

>  <TORSDO>
F 8

$$$$
=
 OpenBabel10272415183D

 34 36  0  0  1  0  0  0  0  0999 V2000
  189.5050  177.7210  141.0230 C   0  0  0  0  0  0  0  0  0  0  0  0
  188.2630  178.1450  138.9050 C   0  0  1  0  0  3  0  0  0  0  0  0
  188.3960  178.1230  140.3920 C   0  0  0  0  0  3  0  0  0  0  0  0
  189.4580  176.0220  138.4340 C   0  0  0  0  0  3  0  0  0  0  0  0
  191.8050  175.8480  138.7120 F   0  0  0  0  0  0  0  0  0  0  0  0
  188.3580  176.7670  138.3390 C   0  0  0  0  0  3  0  0  0  0  0  0
  191.8430  177.6450  140.7000 O   0  0  0  0  0  0  0  0  0  0  0  0
  190.7130  177.2900  140.2700 C   0  0  0  0  0  0  0  0  0  0  0  0
  190.6550  176.4350  139.1120 N   0  0  0  0  0  0  0  0  0  0  0  0
  188.7700  177.0940  144.7040 C   0  0  0  0  0  3  0  0  0  0  0  0
  187.7940  176.1630  142.7560 F   0  0  0  0  0  0  0  0  0  0  0  0
  189.6620  177.9740  145.3230 C   0  0  0  0  0  0  0  0  0  0  0  0
  190.4900  178.7770  144.5270 C   0  0  0  0  0  3  0  0  0  0  0  0
  188.7040  177.0020  143.3110 C   0  0  0  0  0  0  0  0  0  0  0  0
  190.4290  178.6930  143.1350 C   0  0  0  0  0  3  0  0  0  0  0  0
  189.5440  177.8010  142.5070 C   0  0  0  0  0  0  0  0  0  0  0  0
  189.6870  178.0170  146.7260 O   0  0  0  0  0  0  0  0  0  0  0  0
  188.6540  176.2620  147.8500 O   0  0  0  0  0  0  0  0  0  0  0  0
  187.7280  178.4130  148.2100 C   0  0  0  0  0  1  0  0  0  0  0  0
  188.7150  177.4920  147.5890 C   0  0  0  0  0  0  0  0  0  0  0  0
  187.0510  178.7880  138.5040 O   0  0  0  0  0  0  0  0  0  0  0  0
  183.5860  179.5380  139.6280 C   0  0  0  0  0  2  0  0  0  0  0  0
  185.9880  178.5330  140.7220 C   0  0  0  0  0  3  0  0  0  0  0  0
  183.5210  178.5460  140.7990 C   0  0  2  0  0  3  0  0  0  0  0  0
  184.8770  178.4020  141.4530 C   0  0  0  0  0  0  0  0  0  0  0  0
  185.9050  178.9060  139.3010 C   0  0  0  0  0  0  0  0  0  0  0  0
  184.7750  179.3180  138.8010 N   0  0  0  0  0  0  0  0  0  0  0  0
  181.7590  176.8970  140.0550 C   0  0  0  0  0  3  0  0  0  0  0  0
  183.0300  177.2100  140.3340 C   0  0  0  0  0  3  0  0  0  0  0  0
  180.1380  178.6300  139.1170 C   0  0  0  0  0  1  0  0  0  0  0  0
  180.0460  177.9330  141.5030 C   0  0  0  0  0  1  0  0  0  0  0  0
  180.6260  177.7700  140.1840 N   0  0  0  0  0  0  0  0  0  0  0  0
  185.0090  178.0380  142.8680 C   0  0  0  0  0  3  0  0  0  0  0  0
  185.2600  178.9360  143.8120 C   0  0  0  0  0  2  0  0  0  0  0  0
  1 16  1  0  0  0  0
  2 21  1  1  0  0  0
  2  3  1  0  0  0  0
  3  1  2  0  0  0  0
  4  9  1  0  0  0  0
  5  9  1  0  0  0  0
  6  4  2  0  0  0  0
  6  2  1  0  0  0  0
  8  7  2  0  0  0  0
  8  1  1  0  0  0  0
  9  8  1  0  0  0  0
 10 12  1  0  0  0  0
 11 14  1  0  0  0  0
 12 17  1  0  0  0  0
 13 12  2  0  0  0  0
 14 10  2  0  0  0  0
 15 13  1  0  0  0  0
 16 15  2  0  0  0  0
 16 14  1  0  0  0  0
 17 20  1  0  0  0  0
 20 18  2  0  0  0  0
 20 19  1  0  0  0  0
 21 26  1  0  0  0  0
 22 24  1  0  0  0  0
 23 25  2  0  0  0  0
 24 29  1  6  0  0  0
 24 25  1  0  0  0  0
 25 33  1  0  0  0  0
 26 23  1  0  0  0  0
 27 26  2  0  0  0  0
 27 22  1  0  0  0  0
 28 32  1  0  0  0  0
 28 29  2  0  0  0  0
 30 32  1  0  0  0  0
 32 31  1  0  0  0  0
 33 34  2  0  0  0  0
M  END
>  <MODEL>
7

>  <REMARK>
 VINA RESULT:      -8.1      2.788      7.713
  Name = 
  8 active torsions:
  status: ('A' for Active; 'I' for Inactive)
    1  A    between atoms: C_1  and  C_34
    2  A    between atoms: C_7  and  N_21
    3  A    between atoms: C_8  and  O_18
    4  A    between atoms: C_14  and  C_16
    5  A    between atoms: O_18  and  C_30
    6  A    between atoms: O_23  and  C_24
    7  A    between atoms: O_23  and  C_25
    8  A    between atoms: C_26  and  C_28
                            x       y       z     vdW  Elec       q    Type
                         _______ _______ _______ _____ _____    ______ ____

>  <TORSDO>
F 8

$$$$
=
 OpenBabel10272415183D

 34 36  0  0  1  0  0  0  0  0999 V2000
  189.1010  177.7740  145.2380 C   0  0  0  0  0  0  0  0  0  0  0  0
  191.1950  177.7120  143.8890 C   0  0  1  0  0  3  0  0  0  0  0  0
  189.7220  177.8910  144.0590 C   0  0  0  0  0  3  0  0  0  0  0  0
  191.4800  175.8010  145.4450 C   0  0  0  0  0  3  0  0  0  0  0  0
  191.2910  176.0900  147.7900 F   0  0  0  0  0  0  0  0  0  0  0  0
  191.6070  176.3170  144.2240 C   0  0  0  0  0  3  0  0  0  0  0  0
  189.5200  178.0860  147.5410 O   0  0  0  0  0  0  0  0  0  0  0  0
  189.8560  177.4840  146.4870 C   0  0  0  0  0  0  0  0  0  0  0  0
  190.9080  176.5020  146.5610 N   0  0  0  0  0  0  0  0  0  0  0  0
  185.4280  178.0360  144.2810 C   0  0  0  0  0  3  0  0  0  0  0  0
  187.3060  177.3470  143.0120 F   0  0  0  0  0  0  0  0  0  0  0  0
  184.8630  178.5300  145.4600 C   0  0  0  0  0  0  0  0  0  0  0  0
  185.6970  178.7870  146.5580 C   0  0  0  0  0  3  0  0  0  0  0  0
  186.8010  177.7890  144.1910 C   0  0  0  0  0  0  0  0  0  0  0  0
  187.0690  178.5450  146.4770 C   0  0  0  0  0  3  0  0  0  0  0  0
  187.6400  178.0350  145.2980 C   0  0  0  0  0  0  0  0  0  0  0  0
  183.4780  178.7530  145.4920 O   0  0  0  0  0  0  0  0  0  0  0  0
  182.9830  180.1760  143.7200 O   0  0  0  0  0  0  0  0  0  0  0  0
  181.4450  178.4140  144.0970 C   0  0  0  0  0  1  0  0  0  0  0  0
  182.6810  179.1730  144.4180 C   0  0  0  0  0  0  0  0  0  0  0  0
  191.6100  178.0730  142.5690 O   0  0  0  0  0  0  0  0  0  0  0  0
  189.1870  176.7860  140.0570 C   0  0  0  0  0  2  0  0  0  0  0  0
  191.9730  177.1820  140.2900 C   0  0  0  0  0  3  0  0  0  0  0  0
  190.0130  177.0740  138.7950 C   0  0  2  0  0  3  0  0  0  0  0  0
  191.4900  176.9120  139.0750 C   0  0  0  0  0  0  0  0  0  0  0  0
  191.0650  177.5520  141.3880 C   0  0  0  0  0  0  0  0  0  0  0  0
  189.7780  177.4110  141.2430 N   0  0  0  0  0  0  0  0  0  0  0  0
  188.7530  178.7940  137.4410 C   0  0  0  0  0  3  0  0  0  0  0  0
  189.7350  178.4540  138.2860 C   0  0  0  0  0  3  0  0  0  0  0  0
  186.5040  177.5910  137.4030 C   0  0  0  0  0  1  0  0  0  0  0  0
  188.2510  177.1180  135.6980 C   0  0  0  0  0  1  0  0  0  0  0  0
  187.8090  177.8960  136.8390 N   0  0  0  0  0  0  0  0  0  0  0  0
  192.4320  176.5390  138.0140 C   0  0  0  0  0  3  0  0  0  0  0  0
  192.7320  175.2750  137.7420 C   0  0  0  0  0  2  0  0  0  0  0  0
  1 16  1  0  0  0  0
  1  8  1  0  0  0  0
  2 21  1  6  0  0  0
  2  3  1  0  0  0  0
  2  6  1  0  0  0  0
  3  1  2  0  0  0  0
  4  9  1  0  0  0  0
  6  4  2  0  0  0  0
  8  9  1  0  0  0  0
  8  7  2  0  0  0  0
  9  5  1  0  0  0  0
 10 12  1  0  0  0  0
 11 14  1  0  0  0  0
 12 17  1  0  0  0  0
 12 13  2  0  0  0  0
 14 10  2  0  0  0  0
 14 16  1  0  0  0  0
 15 13  1  0  0  0  0
 16 15  2  0  0  0  0
 18 20  2  0  0  0  0
 19 20  1  0  0  0  0
 20 17  1  0  0  0  0
 22 27  1  0  0  0  0
 23 26  1  0  0  0  0
 24 29  1  1  0  0  0
 24 25  1  0  0  0  0
 24 22  1  0  0  0  0
 25 23  2  0  0  0  0
 26 21  1  0  0  0  0
 27 26  2  0  0  0  0
 28 29  2  0  0  0  0
 31 32  1  0  0  0  0
 32 30  1  0  0  0  0
 32 28  1  0  0  0  0
 33 25  1  0  0  0  0
 34 33  2  0  0  0  0
M  END
>  <MODEL>
8

>  <REMARK>
 VINA RESULT:      -8.1      2.878      8.611
  Name = 
  8 active torsions:
  status: ('A' for Active; 'I' for Inactive)
    1  A    between atoms: C_1  and  C_34
    2  A    between atoms: C_7  and  N_21
    3  A    between atoms: C_8  and  O_18
    4  A    between atoms: C_14  and  C_16
    5  A    between atoms: O_18  and  C_30
    6  A    between atoms: O_23  and  C_24
    7  A    between atoms: O_23  and  C_25
    8  A    between atoms: C_26  and  C_28
                            x       y       z     vdW  Elec       q    Type
                         _______ _______ _______ _____ _____    ______ ____

>  <TORSDO>
F 8

$$$$
=
 OpenBabel10272415183D

 34 36  0  0  1  0  0  0  0  0999 V2000
  186.9780  176.6540  137.1910 C   0  0  0  0  0  0  0  0  0  0  0  0
  188.5450  177.9140  138.6630 C   0  0  1  0  0  3  0  0  0  0  0  0
  187.2060  177.3560  138.3070 C   0  0  0  0  0  3  0  0  0  0  0  0
  189.2190  178.6360  136.3870 C   0  0  0  0  0  3  0  0  0  0  0  0
  189.7810  177.0530  134.7150 F   0  0  0  0  0  0  0  0  0  0  0  0
  188.9820  178.9330  137.6640 C   0  0  0  0  0  3  0  0  0  0  0  0
  188.1040  175.2090  135.7010 O   0  0  0  0  0  0  0  0  0  0  0  0
  188.0710  176.3530  136.2270 C   0  0  0  0  0  0  0  0  0  0  0  0
  189.0510  177.3270  135.8190 N   0  0  0  0  0  0  0  0  0  0  0  0
  184.0300  174.2520  137.0560 C   0  0  0  0  0  3  0  0  0  0  0  0
  186.2770  173.9000  137.7210 F   0  0  0  0  0  0  0  0  0  0  0  0
  183.0190  175.0750  136.5510 C   0  0  0  0  0  0  0  0  0  0  0  0
  183.3170  176.4100  136.2440 C   0  0  0  0  0  3  0  0  0  0  0  0
  185.3200  174.7480  137.2660 C   0  0  0  0  0  0  0  0  0  0  0  0
  184.6030  176.9130  136.4500 C   0  0  0  0  0  3  0  0  0  0  0  0
  185.6200  176.0940  136.9710 C   0  0  0  0  0  0  0  0  0  0  0  0
  181.7420  174.5220  136.3670 O   0  0  0  0  0  0  0  0  0  0  0  0
  180.4480  172.8670  137.3650 O   0  0  0  0  0  0  0  0  0  0  0  0
  180.5030  174.9560  138.4810 C   0  0  0  0  0  1  0  0  0  0  0  0
  180.8920  174.0450  137.3740 C   0  0  0  0  0  0  0  0  0  0  0  0
  188.5440  178.4540  139.9870 O   0  0  0  0  0  0  0  0  0  0  0  0
  190.1050  176.1130  142.4190 C   0  0  0  0  0  2  0  0  0  0  0  0
  187.8690  177.8320  142.2840 C   0  0  0  0  0  3  0  0  0  0  0  0
  189.5740  176.7560  143.7080 C   0  0  2  0  0  3  0  0  0  0  0  0
  188.2000  177.3450  143.4830 C   0  0  0  0  0  0  0  0  0  0  0  0
  188.8020  177.7190  141.1510 C   0  0  0  0  0  0  0  0  0  0  0  0
  189.8570  176.9610  141.2510 N   0  0  0  0  0  0  0  0  0  0  0  0
  191.0920  177.8510  145.4030 C   0  0  0  0  0  3  0  0  0  0  0  0
  190.5130  177.8140  144.1960 C   0  0  0  0  0  3  0  0  0  0  0  0
  189.7420  176.9140  147.3540 C   0  0  0  0  0  1  0  0  0  0  0  0
  191.9820  176.0010  146.7760 C   0  0  0  0  0  1  0  0  0  0  0  0
  190.8920  176.9050  146.4650 N   0  0  0  0  0  0  0  0  0  0  0  0
  187.2340  177.4730  144.5800 C   0  0  0  0  0  3  0  0  0  0  0  0
  186.0430  178.0370  144.4170 C   0  0  0  0  0  2  0  0  0  0  0  0
  1  3  2  0  0  0  0
  2 21  1  1  0  0  0
  3  2  1  0  0  0  0
  4  6  2  0  0  0  0
  5  9  1  0  0  0  0
  6  2  1  0  0  0  0
  7  8  2  0  0  0  0
  8  1  1  0  0  0  0
  9  8  1  0  0  0  0
  9  4  1  0  0  0  0
 10 14  1  0  0  0  0
 12 10  2  0  0  0  0
 13 15  2  0  0  0  0
 13 12  1  0  0  0  0
 14 11  1  0  0  0  0
 15 16  1  0  0  0  0
 16  1  1  0  0  0  0
 16 14  2  0  0  0  0
 17 12  1  0  0  0  0
 17 20  1  0  0  0  0
 18 20  2  0  0  0  0
 20 19  1  0  0  0  0
 21 26  1  0  0  0  0
 22 24  1  0  0  0  0
 23 25  2  0  0  0  0
 24 29  1  6  0  0  0
 25 24  1  0  0  0  0
 25 33  1  0  0  0  0
 26 27  2  0  0  0  0
 26 23  1  0  0  0  0
 27 22  1  0  0  0  0
 28 32  1  0  0  0  0
 29 28  2  0  0  0  0
 32 31  1  0  0  0  0
 32 30  1  0  0  0  0
 34 33  2  0  0  0  0
M  END
>  <MODEL>
9

>  <REMARK>
 VINA RESULT:      -7.9      3.824      6.025
  Name = 
  8 active torsions:
  status: ('A' for Active; 'I' for Inactive)
    1  A    between atoms: C_1  and  C_34
    2  A    between atoms: C_7  and  N_21
    3  A    between atoms: C_8  and  O_18
    4  A    between atoms: C_14  and  C_16
    5  A    between atoms: O_18  and  C_30
    6  A    between atoms: O_23  and  C_24
    7  A    between atoms: O_23  and  C_25
    8  A    between atoms: C_26  and  C_28
                            x       y       z     vdW  Elec       q    Type
                         _______ _______ _______ _____ _____    ______ ____

>  <TORSDO>
F 8

$$$$
