=
 OpenBabel10272415163D

 34 37  0  0  1  0  0  0  0  0999 V2000
  188.0160  178.0270  142.4370 C   0  0  2  0  0  3  0  0  0  0  0  0
  186.5220  177.8320  142.6820 C   0  0  0  0  0  2  0  0  0  0  0  0
  185.7290  178.5720  141.6970 C   0  0  0  0  0  0  0  0  0  0  0  0
  185.0750  179.1800  140.8880 C   0  0  0  0  0  3  0  0  0  0  0  0
  188.4110  177.3410  141.1340 C   0  0  0  0  0  2  0  0  0  0  0  0
  188.7520  178.3800  140.0820 C   0  0  0  0  0  2  0  0  0  0  0  0
  190.0000  177.9710  139.3170 C   0  0  0  0  0  2  0  0  0  0  0  0
  188.9930  177.9650  136.4690 C   0  0  0  0  0  2  0  0  0  0  0  0
  191.7760  175.8850  137.6040 C   0  0  2  0  0  0  0  0  0  0  0  0
  190.9170  175.8850  138.8620 C   0  0  0  0  0  2  0  0  0  0  0  0
  189.7660  176.7220  138.5990 N   0  0  0  0  0  0  0  0  0  0  0  0
  191.1120  176.6060  136.5970 O   0  0  0  0  0  0  0  0  0  0  0  0
  189.8920  176.9710  137.1730 C   0  0  0  0  0  0  0  0  0  0  0  0
  191.9660  174.5690  137.1770 O   0  0  0  0  0  1  0  0  0  0  0  0
  188.7010  176.4710  136.3880 C   0  0  0  0  0  2  0  0  0  0  0  0
  193.1040  176.5140  137.9050 C   0  0  0  0  0  0  0  0  0  0  0  0
  193.9470  176.6980  136.9860 O   0  0  0  0  0  0  0  0  0  0  0  0
  193.3900  176.9550  139.1910 O   0  0  0  0  0  1  0  0  0  0  0  0
  188.8320  177.4630  143.6050 C   0  0  1  0  0  3  0  0  0  0  0  0
  190.6710  178.9630  143.2380 O   0  0  0  0  0  0  0  0  0  0  0  0
  191.1770  178.2200  144.3200 C   0  0  1  0  0  3  0  0  0  0  0  0
  189.7250  178.5560  144.1990 C   0  0  2  0  0  3  0  0  0  0  0  0
  192.1940  174.5430  144.2910 N   0  0  0  0  0  1  0  0  0  0  0  0
  191.9170  175.8500  144.7810 C   0  0  0  0  0  0  0  0  0  0  0  0
  192.0430  176.0970  146.0090 O   0  0  0  0  0  0  0  0  0  0  0  0
  191.4980  176.8690  143.8740 N   0  0  0  0  0  2  0  0  0  0  0  0
  187.9600  176.9860  144.6250 O   0  0  0  0  0  0  0  0  0  0  0  0
  188.9980  177.0250  146.7720 C   0  0  0  0  0  3  0  0  0  0  0  0
  188.0570  178.2040  148.6610 C   0  0  0  0  0  3  0  0  0  0  0  0
  189.0620  177.4070  148.1130 C   0  0  0  0  0  3  0  0  0  0  0  0
  186.9120  178.2440  146.5190 C   0  0  0  0  0  0  0  0  0  0  0  0
  187.9340  177.4310  145.9570 C   0  0  0  0  0  0  0  0  0  0  0  0
  186.9880  178.6190  147.8650 C   0  0  0  0  0  3  0  0  0  0  0  0
  185.7320  178.7300  145.7520 C   0  0  0  0  0  1  0  0  0  0  0  0
  1  5  1  6  0  0  0
  1  2  1  0  0  0  0
  1 19  1  0  0  0  0
  3  2  1  0  0  0  0
  4  3  3  0  0  0  0
  6  5  1  0  0  0  0
  7  6  1  0  0  0  0
  8 13  1  0  0  0  0
  9 14  1  6  0  0  0
  9 16  1  0  0  0  0
  9 10  1  0  0  0  0
 11 10  1  0  0  0  0
 11  7  1  0  0  0  0
 12 13  1  0  0  0  0
 12  9  1  0  0  0  0
 13 11  1  0  0  0  0
 15  8  1  0  0  0  0
 15 13  1  0  0  0  0
 16 18  1  0  0  0  0
 17 16  2  0  0  0  0
 19 27  1  1  0  0  0
 20 22  1  0  0  0  0
 20 21  1  0  0  0  0
 21 26  1  6  0  0  0
 22 19  1  6  0  0  0
 22 21  1  0  0  0  0
 23 24  1  0  0  0  0
 24 25  2  0  0  0  0
 26 24  1  0  0  0  0
 27 32  1  0  0  0  0
 28 30  1  0  0  0  0
 30 29  2  0  0  0  0
 31 33  2  0  0  0  0
 32 31  1  0  0  0  0
 32 28  2  0  0  0  0
 33 29  1  0  0  0  0
 34 31  1  0  0  0  0
M  END
>  <MODEL>
1

>  <REMARK>
 VINA RESULT:      -7.7      0.000      0.000
  Name = 
  12 active torsions:
  status: ('A' for Active; 'I' for Inactive)
    1  A    between atoms: O_1  and  C_20
    2  A    between atoms: O_1  and  C_34
    3  A    between atoms: C_4  and  N_16
    4  A    between atoms: C_4  and  C_31
    5  A    between atoms: C_5  and  C_18
    6  A    between atoms: C_5  and  C_33
    7  A    between atoms: C_5  and  C_34
    8  A    between atoms: C_7  and  C_11
    9  A    between atoms: C_8  and  C_18
   10  A    between atoms: C_23  and  N_27
   11  A    between atoms: C_31  and  C_33
   12  A    between atoms: C_32  and  C_34
                            x       y       z     vdW  Elec       q    Type
                         _______ _______ _______ _____ _____    ______ ____

>  <TORSDO>
F 12

$$$$
=
 OpenBabel10272415163D

 34 37  0  0  1  0  0  0  0  0999 V2000
  187.7690  178.1290  142.4490 C   0  0  2  0  0  3  0  0  0  0  0  0
  187.3780  176.9650  143.3550 C   0  0  0  0  0  2  0  0  0  0  0  0
  187.6690  177.2730  144.7580 C   0  0  0  0  0  0  0  0  0  0  0  0
  187.9090  177.5250  145.9120 C   0  0  0  0  0  3  0  0  0  0  0  0
  186.5100  178.7950  141.9050 C   0  0  0  0  0  2  0  0  0  0  0  0
  185.2790  178.0400  142.3710 C   0  0  0  0  0  2  0  0  0  0  0  0
  184.0380  178.9050  142.2220 C   0  0  0  0  0  2  0  0  0  0  0  0
  181.1760  179.3160  143.0940 C   0  0  0  0  0  2  0  0  0  0  0  0
  182.1800  179.0960  139.5860 C   0  0  2  0  0  0  0  0  0  0  0  0
  183.1780  178.1290  140.2070 C   0  0  0  0  0  2  0  0  0  0  0  0
  182.9490  178.1300  141.6370 N   0  0  0  0  0  0  0  0  0  0  0  0
  181.3190  179.5730  140.5900 O   0  0  0  0  0  0  0  0  0  0  0  0
  181.7180  178.8940  141.7450 C   0  0  0  0  0  0  0  0  0  0  0  0
  181.4280  178.4240  138.6200 O   0  0  0  0  0  1  0  0  0  0  0  0
  180.5960  178.1020  142.3760 C   0  0  0  0  0  2  0  0  0  0  0  0
  182.9170  180.2360  138.9480 C   0  0  0  0  0  0  0  0  0  0  0  0
  182.2840  181.1820  138.4060 O   0  0  0  0  0  0  0  0  0  0  0  0
  184.3040  180.2870  139.0040 O   0  0  0  0  0  1  0  0  0  0  0  0
  188.6520  177.6400  141.2970 C   0  0  1  0  0  3  0  0  0  0  0  0
  187.5510  177.7460  139.1660 O   0  0  0  0  0  0  0  0  0  0  0  0
  188.8880  177.8960  138.7540 C   0  0  1  0  0  3  0  0  0  0  0  0
  188.3840  178.4720  140.0390 C   0  0  2  0  0  3  0  0  0  0  0  0
  191.1650  174.8930  138.1650 N   0  0  0  0  0  1  0  0  0  0  0  0
  190.4850  176.1210  137.9340 C   0  0  0  0  0  0  0  0  0  0  0  0
  190.6760  176.7480  136.8590 O   0  0  0  0  0  0  0  0  0  0  0  0
  189.5940  176.6310  138.9240 N   0  0  0  0  0  2  0  0  0  0  0  0
  190.0270  177.7740  141.6440 O   0  0  0  0  0  0  0  0  0  0  0  0
  190.8220  175.9120  142.9050 C   0  0  0  0  0  3  0  0  0  0  0  0
  191.7970  176.1390  145.1040 C   0  0  0  0  0  3  0  0  0  0  0  0
  191.4030  175.3340  144.0350 C   0  0  0  0  0  3  0  0  0  0  0  0
  191.0320  178.1120  143.9120 C   0  0  0  0  0  0  0  0  0  0  0  0
  190.6270  177.2960  142.8210 C   0  0  0  0  0  0  0  0  0  0  0  0
  191.6120  177.5200  145.0400 C   0  0  0  0  0  3  0  0  0  0  0  0
  190.8700  179.5920  143.9380 C   0  0  0  0  0  1  0  0  0  0  0  0
  1  5  1  6  0  0  0
  1  2  1  0  0  0  0
  2  3  1  0  0  0  0
  3  4  3  0  0  0  0
  5  6  1  0  0  0  0
  7  6  1  0  0  0  0
  9 14  1  6  0  0  0
  9 10  1  0  0  0  0
  9 12  1  0  0  0  0
 10 11  1  0  0  0  0
 11 13  1  0  0  0  0
 11  7  1  0  0  0  0
 12 13  1  0  0  0  0
 13 15  1  0  0  0  0
 13  8  1  0  0  0  0
 15  8  1  0  0  0  0
 16 18  1  0  0  0  0
 16  9  1  0  0  0  0
 17 16  2  0  0  0  0
 19 27  1  1  0  0  0
 19  1  1  0  0  0  0
 20 22  1  0  0  0  0
 21 26  1  1  0  0  0
 21 20  1  0  0  0  0
 21 22  1  0  0  0  0
 22 19  1  1  0  0  0
 24 23  1  0  0  0  0
 24 26  1  0  0  0  0
 25 24  2  0  0  0  0
 27 32  1  0  0  0  0
 28 30  1  0  0  0  0
 30 29  2  0  0  0  0
 31 34  1  0  0  0  0
 31 33  2  0  0  0  0
 32 28  2  0  0  0  0
 32 31  1  0  0  0  0
 33 29  1  0  0  0  0
M  END
>  <MODEL>
2

>  <REMARK>
 VINA RESULT:      -7.5      3.778      7.188
  Name = 
  12 active torsions:
  status: ('A' for Active; 'I' for Inactive)
    1  A    between atoms: O_1  and  C_20
    2  A    between atoms: O_1  and  C_34
    3  A    between atoms: C_4  and  N_16
    4  A    between atoms: C_4  and  C_31
    5  A    between atoms: C_5  and  C_18
    6  A    between atoms: C_5  and  C_33
    7  A    between atoms: C_5  and  C_34
    8  A    between atoms: C_7  and  C_11
    9  A    between atoms: C_8  and  C_18
   10  A    between atoms: C_23  and  N_27
   11  A    between atoms: C_31  and  C_33
   12  A    between atoms: C_32  and  C_34
                            x       y       z     vdW  Elec       q    Type
                         _______ _______ _______ _____ _____    ______ ____

>  <TORSDO>
F 12

$$$$
=
 OpenBabel10272415163D

 34 37  0  0  1  0  0  0  0  0999 V2000
  188.1510  177.9400  142.5100 C   0  0  2  0  0  3  0  0  0  0  0  0
  186.6540  177.7030  142.6880 C   0  0  0  0  0  2  0  0  0  0  0  0
  185.8780  178.5450  141.7730 C   0  0  0  0  0  0  0  0  0  0  0  0
  185.2390  179.2380  141.0210 C   0  0  0  0  0  3  0  0  0  0  0  0
  188.6210  177.2730  141.2220 C   0  0  0  0  0  2  0  0  0  0  0  0
  188.9660  178.3270  140.1870 C   0  0  0  0  0  2  0  0  0  0  0  0
  188.5050  177.8860  138.8070 C   0  0  0  0  0  2  0  0  0  0  0  0
  190.5850  175.7340  138.3990 C   0  0  0  0  0  2  0  0  0  0  0  0
  188.8930  177.4220  135.6330 C   0  0  2  0  0  0  0  0  0  0  0  0
  188.9690  178.5670  136.6340 C   0  0  0  0  0  2  0  0  0  0  0  0
  189.5840  178.0490  137.8380 N   0  0  0  0  0  0  0  0  0  0  0  0
  189.5330  176.2950  136.1780 O   0  0  0  0  0  0  0  0  0  0  0  0
  190.0310  176.7350  137.4080 C   0  0  0  0  0  0  0  0  0  0  0  0
  189.5450  177.7960  134.4570 O   0  0  0  0  0  1  0  0  0  0  0  0
  191.5270  176.5610  137.5310 C   0  0  0  0  0  2  0  0  0  0  0  0
  187.4560  177.1100  135.3370 C   0  0  0  0  0  0  0  0  0  0  0  0
  186.7710  177.8830  134.6130 O   0  0  0  0  0  0  0  0  0  0  0  0
  186.8860  175.9340  135.8090 O   0  0  0  0  0  1  0  0  0  0  0  0
  188.9290  177.3890  143.7090 C   0  0  1  0  0  3  0  0  0  0  0  0
  190.7730  178.8810  143.3340 O   0  0  0  0  0  0  0  0  0  0  0  0
  191.2790  178.1390  144.4170 C   0  0  1  0  0  3  0  0  0  0  0  0
  189.8280  178.4800  144.2980 C   0  0  2  0  0  3  0  0  0  0  0  0
  192.2530  174.4500  144.4010 N   0  0  0  0  0  1  0  0  0  0  0  0
  191.9810  175.7590  144.8870 C   0  0  0  0  0  0  0  0  0  0  0  0
  192.0850  176.0030  146.1190 O   0  0  0  0  0  0  0  0  0  0  0  0
  191.5940  176.7850  143.9750 N   0  0  0  0  0  2  0  0  0  0  0  0
  188.0260  176.9520  144.7200 O   0  0  0  0  0  0  0  0  0  0  0  0
  189.0400  177.0380  146.8770 C   0  0  0  0  0  3  0  0  0  0  0  0
  188.0740  178.2490  148.7320 C   0  0  0  0  0  3  0  0  0  0  0  0
  189.0880  177.4470  148.2110 C   0  0  0  0  0  3  0  0  0  0  0  0
  186.9510  178.2420  146.5780 C   0  0  0  0  0  0  0  0  0  0  0  0
  187.9830  177.4240  146.0430 C   0  0  0  0  0  0  0  0  0  0  0  0
  187.0120  178.6440  147.9170 C   0  0  0  0  0  3  0  0  0  0  0  0
  185.7780  178.7090  145.7890 C   0  0  0  0  0  1  0  0  0  0  0  0
  1  5  1  6  0  0  0
  1  2  1  0  0  0  0
  1 19  1  0  0  0  0
  3  2  1  0  0  0  0
  4  3  3  0  0  0  0
  6  5  1  0  0  0  0
  7  6  1  0  0  0  0
  9 14  1  6  0  0  0
  9 12  1  0  0  0  0
  9 10  1  0  0  0  0
 10 11  1  0  0  0  0
 11  7  1  0  0  0  0
 12 13  1  0  0  0  0
 13 15  1  0  0  0  0
 13 11  1  0  0  0  0
 13  8  1  0  0  0  0
 15  8  1  0  0  0  0
 16  9  1  0  0  0  0
 16 18  1  0  0  0  0
 17 16  2  0  0  0  0
 19 27  1  1  0  0  0
 20 22  1  0  0  0  0
 20 21  1  0  0  0  0
 21 26  1  6  0  0  0
 22 19  1  6  0  0  0
 22 21  1  0  0  0  0
 23 24  1  0  0  0  0
 24 25  2  0  0  0  0
 26 24  1  0  0  0  0
 27 32  1  0  0  0  0
 28 30  1  0  0  0  0
 30 29  2  0  0  0  0
 31 33  2  0  0  0  0
 32 31  1  0  0  0  0
 32 28  2  0  0  0  0
 33 29  1  0  0  0  0
 34 31  1  0  0  0  0
M  END
>  <MODEL>
3

>  <REMARK>
 VINA RESULT:      -7.3      1.411      2.630
  Name = 
  12 active torsions:
  status: ('A' for Active; 'I' for Inactive)
    1  A    between atoms: O_1  and  C_20
    2  A    between atoms: O_1  and  C_34
    3  A    between atoms: C_4  and  N_16
    4  A    between atoms: C_4  and  C_31
    5  A    between atoms: C_5  and  C_18
    6  A    between atoms: C_5  and  C_33
    7  A    between atoms: C_5  and  C_34
    8  A    between atoms: C_7  and  C_11
    9  A    between atoms: C_8  and  C_18
   10  A    between atoms: C_23  and  N_27
   11  A    between atoms: C_31  and  C_33
   12  A    between atoms: C_32  and  C_34
                            x       y       z     vdW  Elec       q    Type
                         _______ _______ _______ _____ _____    ______ ____

>  <TORSDO>
F 12

$$$$
=
 OpenBabel10272415163D

 34 37  0  0  1  0  0  0  0  0999 V2000
  189.2950  177.1870  141.7750 C   0  0  2  0  0  3  0  0  0  0  0  0
  190.6720  177.1430  141.1200 C   0  0  0  0  0  2  0  0  0  0  0  0
  190.5940  176.5670  139.7740 C   0  0  0  0  0  0  0  0  0  0  0  0
  190.5320  176.0930  138.6680 C   0  0  0  0  0  3  0  0  0  0  0  0
  188.6220  178.5170  141.4570 C   0  0  0  0  0  2  0  0  0  0  0  0
  188.0810  178.5010  140.0400 C   0  0  0  0  0  2  0  0  0  0  0  0
  186.5790  178.2640  140.0490 C   0  0  0  0  0  2  0  0  0  0  0  0
  187.0770  176.8150  137.4460 C   0  0  0  0  0  2  0  0  0  0  0  0
  183.7560  177.9050  138.5180 C   0  0  2  0  0  0  0  0  0  0  0  0
  184.6030  179.0310  139.0960 C   0  0  0  0  0  2  0  0  0  0  0  0
  185.9870  178.7280  138.7980 N   0  0  0  0  0  0  0  0  0  0  0  0
  184.5910  177.0210  137.8120 O   0  0  0  0  0  0  0  0  0  0  0  0
  185.8610  177.5990  137.8920 C   0  0  0  0  0  0  0  0  0  0  0  0
  182.8120  178.4430  137.6420 O   0  0  0  0  0  1  0  0  0  0  0  0
  186.4660  177.8740  136.5340 C   0  0  0  0  0  2  0  0  0  0  0  0
  183.0570  177.1820  139.6310 C   0  0  0  0  0  0  0  0  0  0  0  0
  182.6080  176.0170  139.4530 O   0  0  0  0  0  0  0  0  0  0  0  0
  182.9540  177.7690  140.8860 O   0  0  0  0  0  1  0  0  0  0  0  0
  189.4140  176.9990  143.2910 C   0  0  1  0  0  3  0  0  0  0  0  0
  191.0460  178.7320  143.6030 O   0  0  0  0  0  0  0  0  0  0  0  0
  190.8770  178.3160  144.9360 C   0  0  1  0  0  3  0  0  0  0  0  0
  189.7430  178.3350  143.9620 C   0  0  2  0  0  3  0  0  0  0  0  0
  192.3640  175.1750  146.5100 N   0  0  0  0  0  1  0  0  0  0  0  0
  191.8120  176.4820  146.3980 C   0  0  0  0  0  0  0  0  0  0  0  0
  191.6330  177.1760  147.4340 O   0  0  0  0  0  0  0  0  0  0  0  0
  191.4680  176.9950  145.1120 N   0  0  0  0  0  2  0  0  0  0  0  0
  188.1840  176.5160  143.8220 O   0  0  0  0  0  0  0  0  0  0  0  0
  186.2050  177.8300  143.6040 C   0  0  0  0  0  3  0  0  0  0  0  0
  185.1320  178.9060  145.4830 C   0  0  0  0  0  3  0  0  0  0  0  0
  185.1800  178.6270  144.1180 C   0  0  0  0  0  3  0  0  0  0  0  0
  187.1400  177.5840  145.8320 C   0  0  0  0  0  0  0  0  0  0  0  0
  187.1940  177.2980  144.4410 C   0  0  0  0  0  0  0  0  0  0  0  0
  186.1080  178.3850  146.3340 C   0  0  0  0  0  3  0  0  0  0  0  0
  188.1380  177.0790  146.8160 C   0  0  0  0  0  1  0  0  0  0  0  0
  1  2  1  6  0  0  0
  1 19  1  0  0  0  0
  3  2  1  0  0  0  0
  4  3  3  0  0  0  0
  5  1  1  0  0  0  0
  6  7  1  0  0  0  0
  6  5  1  0  0  0  0
  8 13  1  0  0  0  0
  9 14  1  6  0  0  0
  9 10  1  0  0  0  0
  9 16  1  0  0  0  0
 11 10  1  0  0  0  0
 11  7  1  0  0  0  0
 12 13  1  0  0  0  0
 12  9  1  0  0  0  0
 13 11  1  0  0  0  0
 15  8  1  0  0  0  0
 15 13  1  0  0  0  0
 16 18  1  0  0  0  0
 17 16  2  0  0  0  0
 19 27  1  1  0  0  0
 20 22  1  0  0  0  0
 20 21  1  0  0  0  0
 21 26  1  6  0  0  0
 22 19  1  6  0  0  0
 22 21  1  0  0  0  0
 24 23  1  0  0  0  0
 24 25  2  0  0  0  0
 26 24  1  0  0  0  0
 27 32  1  0  0  0  0
 28 30  2  0  0  0  0
 28 32  1  0  0  0  0
 29 33  2  0  0  0  0
 30 29  1  0  0  0  0
 31 33  1  0  0  0  0
 31 34  1  0  0  0  0
 32 31  2  0  0  0  0
M  END
>  <MODEL>
4

>  <REMARK>
 VINA RESULT:      -7.3      3.037      5.082
  Name = 
  12 active torsions:
  status: ('A' for Active; 'I' for Inactive)
    1  A    between atoms: O_1  and  C_20
    2  A    between atoms: O_1  and  C_34
    3  A    between atoms: C_4  and  N_16
    4  A    between atoms: C_4  and  C_31
    5  A    between atoms: C_5  and  C_18
    6  A    between atoms: C_5  and  C_33
    7  A    between atoms: C_5  and  C_34
    8  A    between atoms: C_7  and  C_11
    9  A    between atoms: C_8  and  C_18
   10  A    between atoms: C_23  and  N_27
   11  A    between atoms: C_31  and  C_33
   12  A    between atoms: C_32  and  C_34
                            x       y       z     vdW  Elec       q    Type
                         _______ _______ _______ _____ _____    ______ ____

>  <TORSDO>
F 12

$$$$
=
 OpenBabel10272415163D

 34 37  0  0  1  0  0  0  0  0999 V2000
  185.2000  178.1630  142.8220 C   0  0  2  0  0  3  0  0  0  0  0  0
  184.4610  179.1510  143.7210 C   0  0  0  0  0  2  0  0  0  0  0  0
  184.6960  178.8490  145.1360 C   0  0  0  0  0  0  0  0  0  0  0  0
  184.8890  178.5990  146.2990 C   0  0  0  0  0  3  0  0  0  0  0  0
  186.6960  178.4520  142.8710 C   0  0  0  0  0  2  0  0  0  0  0  0
  187.4690  177.1630  143.0790 C   0  0  0  0  0  2  0  0  0  0  0  0
  187.6470  176.8850  144.5620 C   0  0  0  0  0  2  0  0  0  0  0  0
  188.4090  176.7480  147.4820 C   0  0  0  0  0  2  0  0  0  0  0  0
  190.8480  177.2590  144.8070 C   0  0  2  0  0  0  0  0  0  0  0  0
  189.6550  178.0050  144.2230 C   0  0  0  0  0  2  0  0  0  0  0  0
  188.5560  177.8610  145.1550 N   0  0  0  0  0  0  0  0  0  0  0  0
  190.5060  176.7810  146.0840 O   0  0  0  0  0  0  0  0  0  0  0  0
  189.2100  177.2570  146.3030 C   0  0  0  0  0  0  0  0  0  0  0  0
  191.9280  178.1360  144.9200 O   0  0  0  0  0  1  0  0  0  0  0  0
  189.1000  178.1060  147.5480 C   0  0  0  0  0  2  0  0  0  0  0  0
  191.2150  176.1190  143.9060 C   0  0  0  0  0  0  0  0  0  0  0  0
  192.0230  175.2320  144.2950 O   0  0  0  0  0  1  0  0  0  0  0  0
  190.6210  176.0000  142.6550 O   0  0  0  0  0  0  0  0  0  0  0  0
  184.6870  178.2570  141.3820 C   0  0  1  0  0  3  0  0  0  0  0  0
  182.3820  178.3980  142.0400 O   0  0  0  0  0  0  0  0  0  0  0  0
  182.2360  178.4380  140.6420 C   0  0  1  0  0  3  0  0  0  0  0  0
  183.3950  179.0780  141.3370 C   0  0  2  0  0  3  0  0  0  0  0  0
  182.1820  175.3010  138.4710 N   0  0  0  0  0  1  0  0  0  0  0  0
  181.8160  176.5740  138.9910 C   0  0  0  0  0  0  0  0  0  0  0  0
  180.8500  177.2020  138.4830 O   0  0  0  0  0  0  0  0  0  0  0  0
  182.5490  177.1270  140.0830 N   0  0  0  0  0  2  0  0  0  0  0  0
  185.6570  178.8940  140.5570 O   0  0  0  0  0  0  0  0  0  0  0  0
  185.1440  178.1650  138.3450 C   0  0  0  0  0  3  0  0  0  0  0  0
  186.8360  177.4500  136.7740 C   0  0  0  0  0  3  0  0  0  0  0  0
  185.4960  177.6840  137.0820 C   0  0  0  0  0  3  0  0  0  0  0  0
  187.4830  178.1810  138.9990 C   0  0  0  0  0  0  0  0  0  0  0  0
  186.1190  178.4200  139.3170 C   0  0  0  0  0  0  0  0  0  0  0  0
  187.8230  177.6990  137.7300 C   0  0  0  0  0  3  0  0  0  0  0  0
  188.6040  178.4110  139.9520 C   0  0  0  0  0  1  0  0  0  0  0  0
  1  5  1  6  0  0  0
  1  2  1  0  0  0  0
  2  3  1  0  0  0  0
  3  4  3  0  0  0  0
  5  6  1  0  0  0  0
  6  7  1  0  0  0  0
  7 11  1  0  0  0  0
  8 15  1  0  0  0  0
  9 14  1  1  0  0  0
  9 12  1  0  0  0  0
 10  9  1  0  0  0  0
 10 11  1  0  0  0  0
 11 13  1  0  0  0  0
 12 13  1  0  0  0  0
 13  8  1  0  0  0  0
 13 15  1  0  0  0  0
 16 17  1  0  0  0  0
 16  9  1  0  0  0  0
 18 16  2  0  0  0  0
 19 27  1  6  0  0  0
 19  1  1  0  0  0  0
 21 26  1  6  0  0  0
 21 22  1  0  0  0  0
 21 20  1  0  0  0  0
 22 19  1  6  0  0  0
 22 20  1  0  0  0  0
 23 24  1  0  0  0  0
 24 26  1  0  0  0  0
 25 24  2  0  0  0  0
 28 32  1  0  0  0  0
 29 30  1  0  0  0  0
 29 33  2  0  0  0  0
 30 28  2  0  0  0  0
 31 32  2  0  0  0  0
 31 34  1  0  0  0  0
 32 27  1  0  0  0  0
 33 31  1  0  0  0  0
M  END
>  <MODEL>
5

>  <REMARK>
 VINA RESULT:      -7.2      3.375      8.206
  Name = 
  12 active torsions:
  status: ('A' for Active; 'I' for Inactive)
    1  A    between atoms: O_1  and  C_20
    2  A    between atoms: O_1  and  C_34
    3  A    between atoms: C_4  and  N_16
    4  A    between atoms: C_4  and  C_31
    5  A    between atoms: C_5  and  C_18
    6  A    between atoms: C_5  and  C_33
    7  A    between atoms: C_5  and  C_34
    8  A    between atoms: C_7  and  C_11
    9  A    between atoms: C_8  and  C_18
   10  A    between atoms: C_23  and  N_27
   11  A    between atoms: C_31  and  C_33
   12  A    between atoms: C_32  and  C_34
                            x       y       z     vdW  Elec       q    Type
                         _______ _______ _______ _____ _____    ______ ____

>  <TORSDO>
F 12

$$$$
=
 OpenBabel10272415163D

 34 37  0  0  1  0  0  0  0  0999 V2000
  189.5540  177.7170  142.5260 C   0  0  2  0  0  3  0  0  0  0  0  0
  190.1500  179.1210  142.4830 C   0  0  0  0  0  2  0  0  0  0  0  0
  191.0750  179.3320  143.6000 C   0  0  0  0  0  0  0  0  0  0  0  0
  191.8370  179.5040  144.5180 C   0  0  0  0  0  3  0  0  0  0  0  0
  188.9870  177.3630  141.1560 C   0  0  0  0  0  2  0  0  0  0  0  0
  190.0650  177.4970  140.0970 C   0  0  0  0  0  2  0  0  0  0  0  0
  189.7040  176.6810  138.8670 C   0  0  0  0  0  2  0  0  0  0  0  0
  189.4830  175.5030  136.0940 C   0  0  0  0  0  2  0  0  0  0  0  0
  187.4960  178.3610  137.2100 C   0  0  2  0  0  0  0  0  0  0  0  0
  188.7870  178.6210  137.9760 C   0  0  0  0  0  2  0  0  0  0  0  0
  189.6920  177.5310  137.6810 N   0  0  0  0  0  0  0  0  0  0  0  0
  187.6640  177.2190  136.4070 O   0  0  0  0  0  0  0  0  0  0  0  0
  188.9930  176.8380  136.6120 C   0  0  0  0  0  0  0  0  0  0  0  0
  187.2170  179.4580  136.3940 O   0  0  0  0  0  1  0  0  0  0  0  0
  189.7920  176.7860  135.3310 C   0  0  0  0  0  2  0  0  0  0  0  0
  186.3710  178.1540  138.1800 C   0  0  0  0  0  0  0  0  0  0  0  0
  186.4140  178.6740  139.3280 O   0  0  0  0  0  1  0  0  0  0  0  0
  185.2450  177.4360  137.7970 O   0  0  0  0  0  0  0  0  0  0  0  0
  188.4590  177.6290  143.5940 C   0  0  1  0  0  3  0  0  0  0  0  0
  186.4310  178.5680  142.7150 O   0  0  0  0  0  0  0  0  0  0  0  0
  185.8990  177.7490  143.7280 C   0  0  1  0  0  3  0  0  0  0  0  0
  187.1040  177.3510  142.9370 C   0  0  2  0  0  3  0  0  0  0  0  0
  185.6050  179.4320  147.1380 N   0  0  0  0  0  1  0  0  0  0  0  0
  185.2350  178.9180  145.8650 C   0  0  0  0  0  0  0  0  0  0  0  0
  184.0370  179.0010  145.4820 O   0  0  0  0  0  0  0  0  0  0  0  0
  186.2230  178.3150  145.0320 N   0  0  0  0  0  2  0  0  0  0  0  0
  188.7470  176.5720  144.5040 O   0  0  0  0  0  0  0  0  0  0  0  0
  189.3180  177.1370  146.7500 C   0  0  0  0  0  3  0  0  0  0  0  0
  191.5210  176.7720  147.6730 C   0  0  0  0  0  3  0  0  0  0  0  0
  190.2090  177.2210  147.8210 C   0  0  0  0  0  3  0  0  0  0  0  0
  191.0560  176.1460  145.3730 C   0  0  0  0  0  0  0  0  0  0  0  0
  189.7180  176.6030  145.5190 C   0  0  0  0  0  0  0  0  0  0  0  0
  191.9400  176.2370  146.4540 C   0  0  0  0  0  3  0  0  0  0  0  0
  191.5950  175.5660  144.1120 C   0  0  0  0  0  1  0  0  0  0  0  0
  1  5  1  6  0  0  0
  1 19  1  0  0  0  0
  2  1  1  0  0  0  0
  2  3  1  0  0  0  0
  3  4  3  0  0  0  0
  6  5  1  0  0  0  0
  7  6  1  0  0  0  0
  8 13  1  0  0  0  0
  9 14  1  6  0  0  0
  9 10  1  0  0  0  0
  9 16  1  0  0  0  0
 11 10  1  0  0  0  0
 11  7  1  0  0  0  0
 12 13  1  0  0  0  0
 12  9  1  0  0  0  0
 13 11  1  0  0  0  0
 15  8  1  0  0  0  0
 15 13  1  0  0  0  0
 16 17  1  0  0  0  0
 18 16  2  0  0  0  0
 19 27  1  1  0  0  0
 20 22  1  0  0  0  0
 20 21  1  0  0  0  0
 21 26  1  1  0  0  0
 22 19  1  1  0  0  0
 22 21  1  0  0  0  0
 24 23  1  0  0  0  0
 25 24  2  0  0  0  0
 26 24  1  0  0  0  0
 27 32  1  0  0  0  0
 28 30  1  0  0  0  0
 29 30  2  0  0  0  0
 31 32  1  0  0  0  0
 31 33  2  0  0  0  0
 32 28  2  0  0  0  0
 33 29  1  0  0  0  0
 34 31  1  0  0  0  0
M  END
>  <MODEL>
6

>  <REMARK>
 VINA RESULT:      -7.1      2.964      4.911
  Name = 
  12 active torsions:
  status: ('A' for Active; 'I' for Inactive)
    1  A    between atoms: O_1  and  C_20
    2  A    between atoms: O_1  and  C_34
    3  A    between atoms: C_4  and  N_16
    4  A    between atoms: C_4  and  C_31
    5  A    between atoms: C_5  and  C_18
    6  A    between atoms: C_5  and  C_33
    7  A    between atoms: C_5  and  C_34
    8  A    between atoms: C_7  and  C_11
    9  A    between atoms: C_8  and  C_18
   10  A    between atoms: C_23  and  N_27
   11  A    between atoms: C_31  and  C_33
   12  A    between atoms: C_32  and  C_34
                            x       y       z     vdW  Elec       q    Type
                         _______ _______ _______ _____ _____    ______ ____

>  <TORSDO>
F 12

$$$$
=
 OpenBabel10272415163D

 34 37  0  0  1  0  0  0  0  0999 V2000
  189.5810  176.9660  142.5390 C   0  0  2  0  0  3  0  0  0  0  0  0
  191.0990  176.8320  142.4530 C   0  0  0  0  0  2  0  0  0  0  0  0
  191.5830  175.7830  143.3540 C   0  0  0  0  0  0  0  0  0  0  0  0
  191.9820  174.9190  144.0940 C   0  0  0  0  0  3  0  0  0  0  0  0
  189.1550  178.3060  141.9480 C   0  0  0  0  0  2  0  0  0  0  0  0
  188.5420  178.0980  140.5760 C   0  0  0  0  0  2  0  0  0  0  0  0
  189.6290  178.0210  139.5160 C   0  0  0  0  0  2  0  0  0  0  0  0
  188.8890  178.4160  136.6140 C   0  0  0  0  0  2  0  0  0  0  0  0
  191.4400  176.0410  137.7160 C   0  0  2  0  0  0  0  0  0  0  0  0
  190.4700  175.9480  138.8870 C   0  0  0  0  0  2  0  0  0  0  0  0
  189.3950  176.8840  138.6330 N   0  0  0  0  0  0  0  0  0  0  0  0
  190.9110  176.9160  136.7520 O   0  0  0  0  0  0  0  0  0  0  0  0
  189.6640  177.2890  137.2640 C   0  0  0  0  0  0  0  0  0  0  0  0
  191.5970  174.7750  137.1490 O   0  0  0  0  0  1  0  0  0  0  0  0
  188.5250  176.9630  136.3260 C   0  0  0  0  0  2  0  0  0  0  0  0
  192.7670  176.5430  138.2030 C   0  0  0  0  0  0  0  0  0  0  0  0
  192.9080  176.9150  139.4000 O   0  0  0  0  0  1  0  0  0  0  0  0
  193.8650  176.5460  137.3530 O   0  0  0  0  0  0  0  0  0  0  0  0
  189.1120  176.8520  143.9930 C   0  0  1  0  0  3  0  0  0  0  0  0
  190.7150  178.4190  144.8530 O   0  0  0  0  0  0  0  0  0  0  0  0
  190.0340  178.0940  146.0400 C   0  0  1  0  0  3  0  0  0  0  0  0
  189.3330  178.1810  144.7220 C   0  0  2  0  0  3  0  0  0  0  0  0
  191.5900  175.0900  147.8030 N   0  0  0  0  0  1  0  0  0  0  0  0
  191.3270  176.4420  147.4450 C   0  0  0  0  0  0  0  0  0  0  0  0
  191.9450  177.3740  148.0250 O   0  0  0  0  0  0  0  0  0  0  0  0
  190.3640  176.7290  146.4330 N   0  0  0  0  0  2  0  0  0  0  0  0
  187.7240  176.5380  144.0360 O   0  0  0  0  0  0  0  0  0  0  0  0
  186.7320  177.3410  146.0520 C   0  0  0  0  0  3  0  0  0  0  0  0
  184.7980  178.7900  146.0740 C   0  0  0  0  0  3  0  0  0  0  0  0
  185.7780  178.0740  146.7600 C   0  0  0  0  0  3  0  0  0  0  0  0
  185.7250  178.0440  143.9560 C   0  0  0  0  0  0  0  0  0  0  0  0
  186.7250  177.3120  144.6520 C   0  0  0  0  0  0  0  0  0  0  0  0
  184.7740  178.7730  144.6780 C   0  0  0  0  0  3  0  0  0  0  0  0
  185.6150  178.0830  142.4710 C   0  0  0  0  0  1  0  0  0  0  0  0
  1  5  1  1  0  0  0
  1 19  1  0  0  0  0
  2  1  1  0  0  0  0
  2  3  1  0  0  0  0
  3  4  3  0  0  0  0
  6  5  1  0  0  0  0
  7  6  1  0  0  0  0
  8 13  1  0  0  0  0
  9 14  1  6  0  0  0
  9 16  1  0  0  0  0
  9 10  1  0  0  0  0
 11 10  1  0  0  0  0
 11  7  1  0  0  0  0
 12 13  1  0  0  0  0
 12  9  1  0  0  0  0
 13 11  1  0  0  0  0
 15  8  1  0  0  0  0
 15 13  1  0  0  0  0
 16 17  1  0  0  0  0
 18 16  2  0  0  0  0
 19 27  1  6  0  0  0
 20 21  1  0  0  0  0
 21 26  1  6  0  0  0
 22 19  1  6  0  0  0
 22 20  1  0  0  0  0
 22 21  1  0  0  0  0
 24 23  1  0  0  0  0
 24 25  2  0  0  0  0
 26 24  1  0  0  0  0
 27 32  1  0  0  0  0
 28 30  1  0  0  0  0
 29 30  2  0  0  0  0
 31 32  1  0  0  0  0
 31 33  2  0  0  0  0
 32 28  2  0  0  0  0
 33 29  1  0  0  0  0
 34 31  1  0  0  0  0
M  END
>  <MODEL>
7

>  <REMARK>
 VINA RESULT:      -7.0      1.441      2.864
  Name = 
  12 active torsions:
  status: ('A' for Active; 'I' for Inactive)
    1  A    between atoms: O_1  and  C_20
    2  A    between atoms: O_1  and  C_34
    3  A    between atoms: C_4  and  N_16
    4  A    between atoms: C_4  and  C_31
    5  A    between atoms: C_5  and  C_18
    6  A    between atoms: C_5  and  C_33
    7  A    between atoms: C_5  and  C_34
    8  A    between atoms: C_7  and  C_11
    9  A    between atoms: C_8  and  C_18
   10  A    between atoms: C_23  and  N_27
   11  A    between atoms: C_31  and  C_33
   12  A    between atoms: C_32  and  C_34
                            x       y       z     vdW  Elec       q    Type
                         _______ _______ _______ _____ _____    ______ ____

>  <TORSDO>
F 12

$$$$
=
 OpenBabel10272415163D

 34 37  0  0  1  0  0  0  0  0999 V2000
  186.0750  178.4450  142.6750 C   0  0  2  0  0  3  0  0  0  0  0  0
  185.6730  178.3090  144.1420 C   0  0  0  0  0  2  0  0  0  0  0  0
  184.3010  178.7770  144.3550 C   0  0  0  0  0  0  0  0  0  0  0  0
  183.1720  179.1630  144.5300 C   0  0  0  0  0  3  0  0  0  0  0  0
  184.9040  178.0380  141.7880 C   0  0  0  0  0  2  0  0  0  0  0  0
  184.7120  179.0580  140.6810 C   0  0  0  0  0  2  0  0  0  0  0  0
  183.5780  178.6350  139.7610 C   0  0  0  0  0  2  0  0  0  0  0  0
  180.9760  179.5410  141.0000 C   0  0  0  0  0  2  0  0  0  0  0  0
  181.2560  176.5560  138.9090 C   0  0  2  0  0  0  0  0  0  0  0  0
  182.6150  176.5260  139.5950 C   0  0  0  0  0  2  0  0  0  0  0  0
  182.6960  177.6950  140.4450 N   0  0  0  0  0  0  0  0  0  0  0  0
  180.5140  177.6390  139.4120 O   0  0  0  0  0  0  0  0  0  0  0  0
  181.3360  178.2030  140.3920 C   0  0  0  0  0  0  0  0  0  0  0  0
  180.5760  175.3680  139.1850 O   0  0  0  0  0  1  0  0  0  0  0  0
  180.6790  178.2490  141.7520 C   0  0  0  0  0  2  0  0  0  0  0  0
  181.4440  176.6980  137.4280 C   0  0  0  0  0  0  0  0  0  0  0  0
  181.8970  177.7690  136.9420 O   0  0  0  0  0  1  0  0  0  0  0  0
  181.1770  175.6250  136.5860 O   0  0  0  0  0  0  0  0  0  0  0  0
  187.3000  177.5780  142.3700 C   0  0  1  0  0  3  0  0  0  0  0  0
  188.0420  179.4740  141.0960 O   0  0  0  0  0  0  0  0  0  0  0  0
  188.8390  178.4680  140.5190 C   0  0  1  0  0  3  0  0  0  0  0  0
  188.4850  178.4640  141.9720 C   0  0  2  0  0  3  0  0  0  0  0  0
  186.9060  176.9420  137.6060 N   0  0  0  0  0  1  0  0  0  0  0  0
  187.7090  177.8540  138.3470 C   0  0  0  0  0  0  0  0  0  0  0  0
  188.1540  178.8920  137.7880 O   0  0  0  0  0  0  0  0  0  0  0  0
  188.0020  177.5840  139.7160 N   0  0  0  0  0  2  0  0  0  0  0  0
  187.6660  176.8250  143.5220 O   0  0  0  0  0  0  0  0  0  0  0  0
  189.9430  176.1630  143.2640 C   0  0  0  0  0  3  0  0  0  0  0  0
  191.5990  176.4630  144.9990 C   0  0  0  0  0  3  0  0  0  0  0  0
  191.2550  176.0250  143.7200 C   0  0  0  0  0  3  0  0  0  0  0  0
  189.3110  177.1860  145.3750 C   0  0  0  0  0  0  0  0  0  0  0  0
  188.9560  176.7400  144.0730 C   0  0  0  0  0  0  0  0  0  0  0  0
  190.6290  177.0400  145.8200 C   0  0  0  0  0  3  0  0  0  0  0  0
  188.3460  177.8080  146.3240 C   0  0  0  0  0  1  0  0  0  0  0  0
  1  5  1  6  0  0  0
  1  2  1  0  0  0  0
  2  3  1  0  0  0  0
  3  4  3  0  0  0  0
  6  5  1  0  0  0  0
  7 11  1  0  0  0  0
  7  6  1  0  0  0  0
  8 15  1  0  0  0  0
  9 14  1  1  0  0  0
  9 12  1  0  0  0  0
  9 10  1  0  0  0  0
 10 11  1  0  0  0  0
 12 13  1  0  0  0  0
 13 11  1  0  0  0  0
 13  8  1  0  0  0  0
 13 15  1  0  0  0  0
 16  9  1  0  0  0  0
 17 16  1  0  0  0  0
 18 16  2  0  0  0  0
 19  1  1  0  0  0  0
 19 27  1  1  0  0  0
 20 22  1  0  0  0  0
 21 26  1  6  0  0  0
 21 20  1  0  0  0  0
 21 22  1  0  0  0  0
 22 19  1  6  0  0  0
 23 24  1  0  0  0  0
 24 26  1  0  0  0  0
 25 24  2  0  0  0  0
 27 32  1  0  0  0  0
 28 30  2  0  0  0  0
 28 32  1  0  0  0  0
 29 33  2  0  0  0  0
 30 29  1  0  0  0  0
 31 33  1  0  0  0  0
 31 34  1  0  0  0  0
 32 31  2  0  0  0  0
M  END
>  <MODEL>
8

>  <REMARK>
 VINA RESULT:      -7.0      4.256      7.118
  Name = 
  12 active torsions:
  status: ('A' for Active; 'I' for Inactive)
    1  A    between atoms: O_1  and  C_20
    2  A    between atoms: O_1  and  C_34
    3  A    between atoms: C_4  and  N_16
    4  A    between atoms: C_4  and  C_31
    5  A    between atoms: C_5  and  C_18
    6  A    between atoms: C_5  and  C_33
    7  A    between atoms: C_5  and  C_34
    8  A    between atoms: C_7  and  C_11
    9  A    between atoms: C_8  and  C_18
   10  A    between atoms: C_23  and  N_27
   11  A    between atoms: C_31  and  C_33
   12  A    between atoms: C_32  and  C_34
                            x       y       z     vdW  Elec       q    Type
                         _______ _______ _______ _____ _____    ______ ____

>  <TORSDO>
F 12

$$$$
=
 OpenBabel10272415163D

 34 37  0  0  1  0  0  0  0  0999 V2000
  185.8890  178.4180  142.6550 C   0  0  2  0  0  3  0  0  0  0  0  0
  185.6000  178.2490  144.1440 C   0  0  0  0  0  2  0  0  0  0  0  0
  184.2450  178.7020  144.4690 C   0  0  0  0  0  0  0  0  0  0  0  0
  183.1290  179.0740  144.7360 C   0  0  0  0  0  3  0  0  0  0  0  0
  184.6690  177.9870  141.8480 C   0  0  0  0  0  2  0  0  0  0  0  0
  184.4870  178.9010  140.6510 C   0  0  0  0  0  2  0  0  0  0  0  0
  184.1190  178.0930  139.4180 C   0  0  0  0  0  2  0  0  0  0  0  0
  182.6280  176.7790  137.1430 C   0  0  0  0  0  2  0  0  0  0  0  0
  181.0310  179.0390  139.5330 C   0  0  2  0  0  0  0  0  0  0  0  0
  182.4140  179.6720  139.4540 C   0  0  0  0  0  2  0  0  0  0  0  0
  183.2130  178.8560  138.5650 N   0  0  0  0  0  0  0  0  0  0  0  0
  180.9750  177.9510  138.6440 O   0  0  0  0  0  0  0  0  0  0  0  0
  182.2210  177.9530  138.0080 C   0  0  0  0  0  0  0  0  0  0  0  0
  180.0720  179.9830  139.1630 O   0  0  0  0  0  1  0  0  0  0  0  0
  182.1110  178.0640  136.5050 C   0  0  0  0  0  2  0  0  0  0  0  0
  180.7710  178.5770  140.9360 C   0  0  0  0  0  0  0  0  0  0  0  0
  181.0720  179.3110  141.9160 O   0  0  0  0  0  1  0  0  0  0  0  0
  180.1390  177.3610  141.1630 O   0  0  0  0  0  0  0  0  0  0  0  0
  187.1150  177.5940  142.2480 C   0  0  1  0  0  3  0  0  0  0  0  0
  187.8420  179.4870  140.9600 O   0  0  0  0  0  0  0  0  0  0  0  0
  188.7170  178.5050  140.4620 C   0  0  1  0  0  3  0  0  0  0  0  0
  188.2790  178.5240  141.8910 C   0  0  2  0  0  3  0  0  0  0  0  0
  186.9630  176.8460  137.5080 N   0  0  0  0  0  1  0  0  0  0  0  0
  187.6740  177.8160  138.2680 C   0  0  0  0  0  0  0  0  0  0  0  0
  188.0360  178.8930  137.7240 O   0  0  0  0  0  0  0  0  0  0  0  0
  187.9710  177.5590  139.6390 N   0  0  0  0  0  2  0  0  0  0  0  0
  187.5190  176.7540  143.3240 O   0  0  0  0  0  0  0  0  0  0  0  0
  189.7610  176.0020  143.0100 C   0  0  0  0  0  3  0  0  0  0  0  0
  191.4890  176.3010  144.6740 C   0  0  0  0  0  3  0  0  0  0  0  0
  191.0840  175.8320  143.4240 C   0  0  0  0  0  3  0  0  0  0  0  0
  189.2420  177.1190  145.1040 C   0  0  0  0  0  0  0  0  0  0  0  0
  188.8250  176.6420  143.8320 C   0  0  0  0  0  0  0  0  0  0  0  0
  190.5700  176.9410  145.5070 C   0  0  0  0  0  3  0  0  0  0  0  0
  188.3360  177.8090  146.0630 C   0  0  0  0  0  1  0  0  0  0  0  0
  1  5  1  6  0  0  0
  1  2  1  0  0  0  0
  2  3  1  0  0  0  0
  3  4  3  0  0  0  0
  6  5  1  0  0  0  0
  7  6  1  0  0  0  0
  8 13  1  0  0  0  0
  9 14  1  6  0  0  0
  9 16  1  0  0  0  0
 10  9  1  0  0  0  0
 11  7  1  0  0  0  0
 11 10  1  0  0  0  0
 12  9  1  0  0  0  0
 13 11  1  0  0  0  0
 13 12  1  0  0  0  0
 15  8  1  0  0  0  0
 15 13  1  0  0  0  0
 16 18  2  0  0  0  0
 16 17  1  0  0  0  0
 19  1  1  0  0  0  0
 19 27  1  1  0  0  0
 20 22  1  0  0  0  0
 21 26  1  6  0  0  0
 21 20  1  0  0  0  0
 21 22  1  0  0  0  0
 22 19  1  6  0  0  0
 23 24  1  0  0  0  0
 24 26  1  0  0  0  0
 25 24  2  0  0  0  0
 27 32  1  0  0  0  0
 28 30  2  0  0  0  0
 28 32  1  0  0  0  0
 29 33  2  0  0  0  0
 30 29  1  0  0  0  0
 31 33  1  0  0  0  0
 31 34  1  0  0  0  0
 32 31  2  0  0  0  0
M  END
>  <MODEL>
9

>  <REMARK>
 VINA RESULT:      -6.9      4.107      7.229
  Name = 
  12 active torsions:
  status: ('A' for Active; 'I' for Inactive)
    1  A    between atoms: O_1  and  C_20
    2  A    between atoms: O_1  and  C_34
    3  A    between atoms: C_4  and  N_16
    4  A    between atoms: C_4  and  C_31
    5  A    between atoms: C_5  and  C_18
    6  A    between atoms: C_5  and  C_33
    7  A    between atoms: C_5  and  C_34
    8  A    between atoms: C_7  and  C_11
    9  A    between atoms: C_8  and  C_18
   10  A    between atoms: C_23  and  N_27
   11  A    between atoms: C_31  and  C_33
   12  A    between atoms: C_32  and  C_34
                            x       y       z     vdW  Elec       q    Type
                         _______ _______ _______ _____ _____    ______ ____

>  <TORSDO>
F 12

$$$$
