=
 OpenBabel10272400463D

 25 28  0  0  1  0  0  0  0  0999 V2000
  187.9950  177.1650  144.9010 C   0  0  0  0  0  0  0  0  0  0  0  0
  186.8850  177.9170  145.1320 N   0  0  0  0  0  0  0  0  0  0  0  0
  187.6430  178.5330  147.3000 C   0  0  0  0  0  3  0  0  0  0  0  0
  185.7880  178.1750  144.4040 C   0  0  0  0  0  0  0  0  0  0  0  0
  190.4650  177.3240  141.9810 N   0  0  0  0  0  2  0  0  0  0  0  0
  183.3690  179.0190  143.3610 C   0  0  0  0  0  3  0  0  0  0  0  0
  188.7780  177.8100  147.0760 N   0  0  0  0  0  0  0  0  0  0  0  0
  184.9670  178.9880  145.1440 C   0  0  0  0  0  0  0  0  0  0  0  0
  183.7420  179.4330  144.6530 C   0  0  0  0  0  3  0  0  0  0  0  0
  190.2790  176.4250  145.5960 C   0  0  2  0  0  3  0  0  0  0  0  0
  191.3640  176.7310  146.6150 C   0  0  0  0  0  1  0  0  0  0  0  0
  189.7610  177.4500  140.7390 C   0  0  0  0  0  0  0  0  0  0  0  0
  188.2540  176.2230  143.3890 S   0  0  0  0  0  0  0  0  0  0  0  0
  184.2160  178.1820  142.6000 C   0  0  0  0  0  3  0  0  0  0  0  0
  186.6860  178.5830  146.2910 C   0  0  0  0  0  0  0  0  0  0  0  0
  185.5120  179.2620  146.3490 N   0  0  0  0  0  0  0  0  0  0  0  0
  190.7400  176.8170  144.2610 N   0  0  0  0  0  0  0  0  0  0  0  0
  185.4490  177.7470  143.1210 C   0  0  0  0  0  3  0  0  0  0  0  0
  189.9590  176.8080  143.2200 C   0  0  0  0  0  0  0  0  0  0  0  0
  188.9820  177.1320  145.9020 C   0  0  0  0  0  0  0  0  0  0  0  0
  188.5590  177.0920  140.6260 O   0  0  0  0  0  0  0  0  0  0  0  0
  190.4760  177.9900  139.5490 C   0  0  0  0  0  2  0  0  0  0  0  0
  189.5190  178.2160  138.4310 C   0  0  0  0  0  0  0  0  0  0  0  0
  188.9210  179.3180  138.3260 O   0  0  0  0  0  0  0  0  0  0  0  0
  189.3060  177.1970  137.4590 N   0  0  0  0  0  1  0  0  0  0  0  0
  1  2  1  0  0  0  0
  1 20  2  0  0  0  0
  2 15  1  0  0  0  0
  4  2  1  0  0  0  0
  4  8  1  0  0  0  0
  5 19  1  0  0  0  0
  6  9  1  0  0  0  0
  7  3  2  0  0  0  0
  8 16  1  0  0  0  0
  9  8  2  0  0  0  0
 10 20  1  0  0  0  0
 10 11  1  1  0  0  0
 12  5  1  0  0  0  0
 13  1  1  0  0  0  0
 14 18  1  0  0  0  0
 14  6  2  0  0  0  0
 15 16  2  0  0  0  0
 15  3  1  0  0  0  0
 17 10  1  0  0  0  0
 18  4  2  0  0  0  0
 19 13  1  0  0  0  0
 19 17  2  0  0  0  0
 20  7  1  0  0  0  0
 21 12  2  0  0  0  0
 22 12  1  0  0  0  0
 23 22  1  0  0  0  0
 24 23  2  0  0  0  0
 25 23  1  0  0  0  0
M  END
>  <MODEL>
1

>  <REMARK>
 VINA RESULT:      -8.5      0.000      0.000
  Name = 
  2 active torsions:
  status: ('A' for Active; 'I' for Inactive)
    1  A    between atoms: C_2  and  C_21
    2  A    between atoms: C_15  and  C_21
                            x       y       z     vdW  Elec       q    Type
                         _______ _______ _______ _____ _____    ______ ____

>  <TORSDO>
F 2

$$$$
=
 OpenBabel10272400463D

 25 28  0  0  1  0  0  0  0  0999 V2000
  187.6320  178.0420  142.5230 C   0  0  0  0  0  0  0  0  0  0  0  0
  188.6280  177.4540  141.8060 N   0  0  0  0  0  0  0  0  0  0  0  0
  189.5030  176.3770  143.7380 C   0  0  0  0  0  3  0  0  0  0  0  0
  188.9730  177.5000  140.5110 C   0  0  0  0  0  0  0  0  0  0  0  0
  183.8500  177.9610  141.9340 N   0  0  0  0  0  2  0  0  0  0  0  0
  190.1070  177.2430  138.0020 C   0  0  0  0  0  3  0  0  0  0  0  0
  188.4930  176.9330  144.4680 N   0  0  0  0  0  0  0  0  0  0  0  0
  190.0890  176.7220  140.3390 C   0  0  0  0  0  0  0  0  0  0  0  0
  190.6890  176.5680  139.0920 C   0  0  0  0  0  3  0  0  0  0  0  0
  186.3680  178.2770  144.6670 C   0  0  2  0  0  3  0  0  0  0  0  0
  186.2340  177.6360  146.0390 C   0  0  0  0  0  1  0  0  0  0  0  0
  183.5580  178.1560  140.5450 C   0  0  0  0  0  0  0  0  0  0  0  0
  186.4240  179.1630  141.7990 S   0  0  0  0  0  0  0  0  0  0  0  0
  188.9570  178.0430  138.1810 C   0  0  0  0  0  3  0  0  0  0  0  0
  189.5530  176.6490  142.3740 C   0  0  0  0  0  0  0  0  0  0  0  0
  190.4810  176.1690  141.5070 N   0  0  0  0  0  0  0  0  0  0  0  0
  185.1460  178.0380  143.8960 N   0  0  0  0  0  0  0  0  0  0  0  0
  188.3710  178.1810  139.4530 C   0  0  0  0  0  3  0  0  0  0  0  0
  185.0420  178.3430  142.6350 C   0  0  0  0  0  0  0  0  0  0  0  0
  187.5540  177.7510  143.8960 C   0  0  0  0  0  0  0  0  0  0  0  0
  184.3790  178.7180  139.7730 O   0  0  0  0  0  0  0  0  0  0  0  0
  182.2430  177.7080  140.0080 C   0  0  0  0  0  2  0  0  0  0  0  0
  181.1330  178.4200  140.7020 C   0  0  0  0  0  0  0  0  0  0  0  0
  181.0520  179.6740  140.6370 O   0  0  0  0  0  0  0  0  0  0  0  0
  180.1440  177.6800  141.4090 N   0  0  0  0  0  1  0  0  0  0  0  0
  1 20  2  0  0  0  0
  2 15  1  0  0  0  0
  2  1  1  0  0  0  0
  3  7  2  0  0  0  0
  4  2  1  0  0  0  0
  5 19  1  0  0  0  0
  6 14  2  0  0  0  0
  6  9  1  0  0  0  0
  8  4  1  0  0  0  0
  8 16  1  0  0  0  0
  9  8  2  0  0  0  0
 10 11  1  1  0  0  0
 12  5  1  0  0  0  0
 13  1  1  0  0  0  0
 13 19  1  0  0  0  0
 14 18  1  0  0  0  0
 15  3  1  0  0  0  0
 16 15  2  0  0  0  0
 17 10  1  0  0  0  0
 18  4  2  0  0  0  0
 19 17  2  0  0  0  0
 20  7  1  0  0  0  0
 20 10  1  0  0  0  0
 21 12  2  0  0  0  0
 22 12  1  0  0  0  0
 22 23  1  0  0  0  0
 23 25  1  0  0  0  0
 24 23  2  0  0  0  0
M  END
>  <MODEL>
2

>  <REMARK>
 VINA RESULT:      -7.5      3.057      6.280
  Name = 
  2 active torsions:
  status: ('A' for Active; 'I' for Inactive)
    1  A    between atoms: C_2  and  C_21
    2  A    between atoms: C_15  and  C_21
                            x       y       z     vdW  Elec       q    Type
                         _______ _______ _______ _____ _____    ______ ____

>  <TORSDO>
F 2

$$$$
=
 OpenBabel10272400463D

 25 28  0  0  1  0  0  0  0  0999 V2000
  186.0990  178.4590  142.5600 C   0  0  0  0  0  0  0  0  0  0  0  0
  187.2990  177.8300  142.6900 N   0  0  0  0  0  0  0  0  0  0  0  0
  186.9180  177.3820  144.9940 C   0  0  0  0  0  3  0  0  0  0  0  0
  188.3030  177.5900  141.8330 C   0  0  0  0  0  0  0  0  0  0  0  0
  183.2700  177.7920  140.0700 N   0  0  0  0  0  2  0  0  0  0  0  0
  190.6200  176.8450  140.5200 C   0  0  0  0  0  3  0  0  0  0  0  0
  185.6970  177.9820  144.8780 N   0  0  0  0  0  0  0  0  0  0  0  0
  189.2950  176.9300  142.5120 C   0  0  0  0  0  0  0  0  0  0  0  0
  190.4750  176.5380  141.8860 C   0  0  0  0  0  3  0  0  0  0  0  0
  183.8750  179.0760  143.5190 C   0  0  2  0  0  3  0  0  0  0  0  0
  182.9790  178.7880  144.7140 C   0  0  0  0  0  1  0  0  0  0  0  0
  183.8010  177.5970  138.7540 C   0  0  0  0  0  0  0  0  0  0  0  0
  185.5400  179.2140  141.0250 S   0  0  0  0  0  0  0  0  0  0  0  0
  189.5970  177.5250  139.8220 C   0  0  0  0  0  3  0  0  0  0  0  0
  187.7230  177.3070  143.8620 C   0  0  0  0  0  0  0  0  0  0  0  0
  188.9540  176.7370  143.8050 N   0  0  0  0  0  0  0  0  0  0  0  0
  183.2710  178.5100  142.3110 N   0  0  0  0  0  0  0  0  0  0  0  0
  188.4140  177.9090  140.4800 C   0  0  0  0  0  3  0  0  0  0  0  0
  183.8930  178.4740  141.1680 C   0  0  0  0  0  0  0  0  0  0  0  0
  185.2650  178.5150  143.6910 C   0  0  0  0  0  0  0  0  0  0  0  0
  184.9340  178.0390  138.4300 O   0  0  0  0  0  0  0  0  0  0  0  0
  182.9810  176.8780  137.7390 C   0  0  0  0  0  2  0  0  0  0  0  0
  182.7760  175.4620  138.1500 C   0  0  0  0  0  0  0  0  0  0  0  0
  183.7320  174.6450  138.0960 O   0  0  0  0  0  0  0  0  0  0  0  0
  181.5070  175.0380  138.6370 N   0  0  0  0  0  1  0  0  0  0  0  0
  1  2  1  0  0  0  0
  1 20  2  0  0  0  0
  2 15  1  0  0  0  0
  4  8  1  0  0  0  0
  4  2  1  0  0  0  0
  5 19  1  0  0  0  0
  6  9  1  0  0  0  0
  7  3  2  0  0  0  0
  8 16  1  0  0  0  0
  9  8  2  0  0  0  0
 10 20  1  0  0  0  0
 10 11  1  1  0  0  0
 12  5  1  0  0  0  0
 13 19  1  0  0  0  0
 13  1  1  0  0  0  0
 14 18  1  0  0  0  0
 14  6  2  0  0  0  0
 15  3  1  0  0  0  0
 16 15  2  0  0  0  0
 17 10  1  0  0  0  0
 18  4  2  0  0  0  0
 19 17  2  0  0  0  0
 20  7  1  0  0  0  0
 21 12  2  0  0  0  0
 22 23  1  0  0  0  0
 22 12  1  0  0  0  0
 23 25  1  0  0  0  0
 24 23  2  0  0  0  0
M  END
>  <MODEL>
3

>  <REMARK>
 VINA RESULT:      -7.5      3.482      6.057
  Name = 
  2 active torsions:
  status: ('A' for Active; 'I' for Inactive)
    1  A    between atoms: C_2  and  C_21
    2  A    between atoms: C_15  and  C_21
                            x       y       z     vdW  Elec       q    Type
                         _______ _______ _______ _____ _____    ______ ____

>  <TORSDO>
F 2

$$$$
=
 OpenBabel10272400463D

 25 28  0  0  1  0  0  0  0  0999 V2000
  187.3050  178.4530  141.6220 C   0  0  0  0  0  0  0  0  0  0  0  0
  187.2970  178.0960  142.9350 N   0  0  0  0  0  0  0  0  0  0  0  0
  184.9200  178.0380  142.9960 C   0  0  0  0  0  3  0  0  0  0  0  0
  188.2710  177.8860  143.8320 C   0  0  0  0  0  0  0  0  0  0  0  0
  189.1040  176.8020  138.6730 N   0  0  0  0  0  2  0  0  0  0  0  0
  189.8460  177.3470  146.0410 C   0  0  0  0  0  3  0  0  0  0  0  0
  184.9080  178.3660  141.6710 N   0  0  0  0  0  0  0  0  0  0  0  0
  187.6860  177.5660  145.0300 C   0  0  0  0  0  0  0  0  0  0  0  0
  188.4450  177.2880  146.1650 C   0  0  0  0  0  3  0  0  0  0  0  0
  186.0710  178.8170  139.4790 C   0  0  2  0  0  3  0  0  0  0  0  0
  184.7040  178.6040  138.8490 C   0  0  0  0  0  1  0  0  0  0  0  0
  190.4460  176.4580  139.0380 C   0  0  0  0  0  0  0  0  0  0  0  0
  188.8150  178.7790  140.6970 S   0  0  0  0  0  0  0  0  0  0  0  0
  190.4460  177.6760  144.8050 C   0  0  0  0  0  3  0  0  0  0  0  0
  186.1520  177.8970  143.6260 C   0  0  0  0  0  0  0  0  0  0  0  0
  186.3390  177.5670  144.9290 N   0  0  0  0  0  0  0  0  0  0  0  0
  187.0450  177.9260  138.8430 N   0  0  0  0  0  0  0  0  0  0  0  0
  189.6560  177.9520  143.6750 C   0  0  0  0  0  3  0  0  0  0  0  0
  188.2610  177.7870  139.2860 C   0  0  0  0  0  0  0  0  0  0  0  0
  186.0660  178.5690  140.9670 C   0  0  0  0  0  0  0  0  0  0  0  0
  191.0360  177.0330  139.9900 O   0  0  0  0  0  0  0  0  0  0  0  0
  191.1690  175.4170  138.2550 C   0  0  0  0  0  2  0  0  0  0  0  0
  192.0860  176.0560  137.2710 C   0  0  0  0  0  0  0  0  0  0  0  0
  191.7260  176.1990  136.0740 O   0  0  0  0  0  0  0  0  0  0  0  0
  193.3580  176.5380  137.6920 N   0  0  0  0  0  1  0  0  0  0  0  0
  1  2  1  0  0  0  0
  2 15  1  0  0  0  0
  2  4  1  0  0  0  0
  3 15  1  0  0  0  0
  4  8  1  0  0  0  0
  5 12  1  0  0  0  0
  5 19  1  0  0  0  0
  6  9  1  0  0  0  0
  7  3  2  0  0  0  0
  8  9  2  0  0  0  0
 10 11  1  6  0  0  0
 10 20  1  0  0  0  0
 12 21  2  0  0  0  0
 13  1  1  0  0  0  0
 14  6  2  0  0  0  0
 15 16  2  0  0  0  0
 16  8  1  0  0  0  0
 17 19  2  0  0  0  0
 17 10  1  0  0  0  0
 18  4  2  0  0  0  0
 18 14  1  0  0  0  0
 19 13  1  0  0  0  0
 20  1  2  0  0  0  0
 20  7  1  0  0  0  0
 22 12  1  0  0  0  0
 23 25  1  0  0  0  0
 23 22  1  0  0  0  0
 24 23  2  0  0  0  0
M  END
>  <MODEL>
4

>  <REMARK>
 VINA RESULT:      -7.3      2.564      5.010
  Name = 
  2 active torsions:
  status: ('A' for Active; 'I' for Inactive)
    1  A    between atoms: C_2  and  C_21
    2  A    between atoms: C_15  and  C_21
                            x       y       z     vdW  Elec       q    Type
                         _______ _______ _______ _____ _____    ______ ____

>  <TORSDO>
F 2

$$$$
=
 OpenBabel10272400463D

 25 28  0  0  1  0  0  0  0  0999 V2000
  189.4980  177.0190  143.6320 C   0  0  0  0  0  0  0  0  0  0  0  0
  189.7740  177.3720  144.9170 N   0  0  0  0  0  0  0  0  0  0  0  0
  192.0660  177.7560  144.4150 C   0  0  0  0  0  3  0  0  0  0  0  0
  189.0230  177.4440  146.0260 C   0  0  0  0  0  0  0  0  0  0  0  0
  186.8420  178.4110  141.2530 N   0  0  0  0  0  2  0  0  0  0  0  0
  187.9670  177.7580  148.5630 C   0  0  0  0  0  3  0  0  0  0  0  0
  191.8040  177.4350  143.1140 N   0  0  0  0  0  0  0  0  0  0  0  0
  189.8300  177.8400  147.0620 C   0  0  0  0  0  0  0  0  0  0  0  0
  189.3360  178.0080  148.3530 C   0  0  0  0  0  3  0  0  0  0  0  0
  190.2200  176.8310  141.2460 C   0  0  2  0  0  3  0  0  0  0  0  0
  191.3550  177.2310  140.3180 C   0  0  0  0  0  1  0  0  0  0  0  0
  185.5930  178.5660  141.9370 C   0  0  0  0  0  0  0  0  0  0  0  0
  187.8680  176.4890  143.0810 S   0  0  0  0  0  0  0  0  0  0  0  0
  187.1370  177.3510  147.4940 C   0  0  0  0  0  3  0  0  0  0  0  0
  191.0130  177.7250  145.3230 C   0  0  0  0  0  0  0  0  0  0  0  0
  191.1020  178.0240  146.6450 N   0  0  0  0  0  0  0  0  0  0  0  0
  189.0130  177.5810  140.8900 N   0  0  0  0  0  0  0  0  0  0  0  0
  187.6630  177.1880  146.2000 C   0  0  0  0  0  3  0  0  0  0  0  0
  187.9310  177.5500  141.6140 C   0  0  0  0  0  0  0  0  0  0  0  0
  190.5490  177.0750  142.6990 C   0  0  0  0  0  0  0  0  0  0  0  0
  185.3300  177.9140  142.9810 O   0  0  0  0  0  0  0  0  0  0  0  0
  184.5720  179.4990  141.3840 C   0  0  0  0  0  2  0  0  0  0  0  0
  184.3100  179.1870  139.9510 C   0  0  0  0  0  0  0  0  0  0  0  0
  184.5960  180.0280  139.0610 O   0  0  0  0  0  0  0  0  0  0  0  0
  183.7680  177.9220  139.5860 N   0  0  0  0  0  1  0  0  0  0  0  0
  1  2  1  0  0  0  0
  2 15  1  0  0  0  0
  2  4  1  0  0  0  0
  3 15  1  0  0  0  0
  4 18  2  0  0  0  0
  4  8  1  0  0  0  0
  5 19  1  0  0  0  0
  5 12  1  0  0  0  0
  7  3  2  0  0  0  0
  8  9  2  0  0  0  0
  9  6  1  0  0  0  0
 10 11  1  6  0  0  0
 10 20  1  0  0  0  0
 12 21  2  0  0  0  0
 13  1  1  0  0  0  0
 14  6  2  0  0  0  0
 15 16  2  0  0  0  0
 16  8  1  0  0  0  0
 17 10  1  0  0  0  0
 17 19  2  0  0  0  0
 18 14  1  0  0  0  0
 19 13  1  0  0  0  0
 20  7  1  0  0  0  0
 20  1  2  0  0  0  0
 22 12  1  0  0  0  0
 23 22  1  0  0  0  0
 24 23  2  0  0  0  0
 25 23  1  0  0  0  0
M  END
>  <MODEL>
5

>  <REMARK>
 VINA RESULT:      -7.2      2.474      4.810
  Name = 
  2 active torsions:
  status: ('A' for Active; 'I' for Inactive)
    1  A    between atoms: C_2  and  C_21
    2  A    between atoms: C_15  and  C_21
                            x       y       z     vdW  Elec       q    Type
                         _______ _______ _______ _____ _____    ______ ____

>  <TORSDO>
F 2

$$$$
=
 OpenBabel10272400463D

 25 28  0  0  1  0  0  0  0  0999 V2000
  187.5510  178.4280  141.5720 C   0  0  0  0  0  0  0  0  0  0  0  0
  188.0210  177.9290  142.7470 N   0  0  0  0  0  0  0  0  0  0  0  0
  185.8520  177.9470  143.7250 C   0  0  0  0  0  3  0  0  0  0  0  0
  189.2470  177.5880  143.1710 C   0  0  0  0  0  0  0  0  0  0  0  0
  187.9510  177.0520  138.0220 N   0  0  0  0  0  2  0  0  0  0  0  0
  191.5040  176.7550  144.5350 C   0  0  0  0  0  3  0  0  0  0  0  0
  185.3570  178.4190  142.5440 N   0  0  0  0  0  0  0  0  0  0  0  0
  189.1450  177.1580  144.4700 C   0  0  0  0  0  0  0  0  0  0  0  0
  190.2570  176.7310  145.1890 C   0  0  0  0  0  3  0  0  0  0  0  0
  185.6190  179.0690  140.1210 C   0  0  2  0  0  3  0  0  0  0  0  0
  184.1030  178.9740  140.0570 C   0  0  0  0  0  1  0  0  0  0  0  0
  189.3010  176.6240  137.8030 C   0  0  0  0  0  0  0  0  0  0  0  0
  188.6090  178.8020  140.1640 S   0  0  0  0  0  0  0  0  0  0  0  0
  191.6070  177.1980  143.1980 C   0  0  0  0  0  3  0  0  0  0  0  0
  187.2180  177.6950  143.8090 C   0  0  0  0  0  0  0  0  0  0  0  0
  187.8660  177.2170  144.9020 N   0  0  0  0  0  0  0  0  0  0  0  0
  186.2040  178.2210  139.0800 N   0  0  0  0  0  0  0  0  0  0  0  0
  190.4650  177.6240  142.4940 C   0  0  0  0  0  3  0  0  0  0  0  0
  187.4830  177.9920  139.0000 C   0  0  0  0  0  0  0  0  0  0  0  0
  186.1680  178.6590  141.4650 C   0  0  0  0  0  0  0  0  0  0  0  0
  190.2520  177.0700  138.4970 O   0  0  0  0  0  0  0  0  0  0  0  0
  189.5870  175.6520  136.7120 C   0  0  0  0  0  2  0  0  0  0  0  0
  190.1050  174.3760  137.2800 C   0  0  0  0  0  0  0  0  0  0  0  0
  189.3590  173.3650  137.3420 O   0  0  0  0  0  0  0  0  0  0  0  0
  191.4560  174.2900  137.7210 N   0  0  0  0  0  1  0  0  0  0  0  0
  1  2  1  0  0  0  0
  2  4  1  0  0  0  0
  2 15  1  0  0  0  0
  3 15  1  0  0  0  0
  4  8  1  0  0  0  0
  5 19  1  0  0  0  0
  6  9  1  0  0  0  0
  7  3  2  0  0  0  0
  8 16  1  0  0  0  0
  8  9  2  0  0  0  0
 10 11  1  1  0  0  0
 10 20  1  0  0  0  0
 12  5  1  0  0  0  0
 12 21  2  0  0  0  0
 13  1  1  0  0  0  0
 14  6  2  0  0  0  0
 15 16  2  0  0  0  0
 17 10  1  0  0  0  0
 18  4  2  0  0  0  0
 18 14  1  0  0  0  0
 19 17  2  0  0  0  0
 19 13  1  0  0  0  0
 20  1  2  0  0  0  0
 20  7  1  0  0  0  0
 22 23  1  0  0  0  0
 22 12  1  0  0  0  0
 23 24  2  0  0  0  0
 23 25  1  0  0  0  0
M  END
>  <MODEL>
6

>  <REMARK>
 VINA RESULT:      -7.1      2.594      5.396
  Name = 
  2 active torsions:
  status: ('A' for Active; 'I' for Inactive)
    1  A    between atoms: C_2  and  C_21
    2  A    between atoms: C_15  and  C_21
                            x       y       z     vdW  Elec       q    Type
                         _______ _______ _______ _____ _____    ______ ____

>  <TORSDO>
F 2

$$$$
=
 OpenBabel10272400463D

 25 28  0  0  1  0  0  0  0  0999 V2000
  187.3910  177.3980  142.6680 C   0  0  0  0  0  0  0  0  0  0  0  0
  187.7470  177.7950  141.4160 N   0  0  0  0  0  0  0  0  0  0  0  0
  185.8790  179.2580  141.2520 C   0  0  0  0  0  3  0  0  0  0  0  0
  188.7570  177.4560  140.6020 C   0  0  0  0  0  0  0  0  0  0  0  0
  189.4550  177.4140  145.8930 N   0  0  0  0  0  2  0  0  0  0  0  0
  190.5960  177.1300  138.5610 C   0  0  0  0  0  3  0  0  0  0  0  0
  185.5230  178.8960  142.5190 N   0  0  0  0  0  0  0  0  0  0  0  0
  188.6150  178.1560  139.4310 C   0  0  0  0  0  0  0  0  0  0  0  0
  189.5190  178.0190  138.3810 C   0  0  0  0  0  3  0  0  0  0  0  0
  185.9360  177.6670  144.6820 C   0  0  2  0  0  3  0  0  0  0  0  0
  184.8890  178.5990  145.2710 C   0  0  0  0  0  1  0  0  0  0  0  0
  190.7760  176.9220  145.6400 C   0  0  0  0  0  0  0  0  0  0  0  0
  188.3050  176.1660  143.6110 S   0  0  0  0  0  0  0  0  0  0  0  0
  190.7410  176.4100  139.7680 C   0  0  0  0  0  3  0  0  0  0  0  0
  187.0250  178.6890  140.7050 C   0  0  0  0  0  0  0  0  0  0  0  0
  187.5210  178.9470  139.4680 N   0  0  0  0  0  0  0  0  0  0  0  0
  187.1640  177.7510  145.4770 N   0  0  0  0  0  0  0  0  0  0  0  0
  189.8120  176.5680  140.8130 C   0  0  0  0  0  3  0  0  0  0  0  0
  188.2740  177.1760  145.1140 C   0  0  0  0  0  0  0  0  0  0  0  0
  186.2510  177.9890  143.2420 C   0  0  0  0  0  0  0  0  0  0  0  0
  191.0260  176.1870  144.6490 O   0  0  0  0  0  0  0  0  0  0  0  0
  191.8730  177.2630  146.5890 C   0  0  0  0  0  2  0  0  0  0  0  0
  192.0550  176.1680  147.5820 C   0  0  0  0  0  0  0  0  0  0  0  0
  191.3590  175.1230  147.5030 O   0  0  0  0  0  0  0  0  0  0  0  0
  193.0410  176.2880  148.6010 N   0  0  0  0  0  1  0  0  0  0  0  0
  1 20  2  0  0  0  0
  1 13  1  0  0  0  0
  2  1  1  0  0  0  0
  3  7  2  0  0  0  0
  4 18  1  0  0  0  0
  4  2  1  0  0  0  0
  6 14  1  0  0  0  0
  7 20  1  0  0  0  0
  8 16  1  0  0  0  0
  8  4  2  0  0  0  0
  9  6  2  0  0  0  0
  9  8  1  0  0  0  0
 10 11  1  1  0  0  0
 10 17  1  0  0  0  0
 12  5  1  0  0  0  0
 12 22  1  0  0  0  0
 13 19  1  0  0  0  0
 14 18  2  0  0  0  0
 15  3  1  0  0  0  0
 15  2  1  0  0  0  0
 16 15  2  0  0  0  0
 19 17  2  0  0  0  0
 19  5  1  0  0  0  0
 20 10  1  0  0  0  0
 21 12  2  0  0  0  0
 22 23  1  0  0  0  0
 23 25  1  0  0  0  0
 24 23  2  0  0  0  0
M  END
>  <MODEL>
7

>  <REMARK>
 VINA RESULT:      -7.0      2.577      6.457
  Name = 
  2 active torsions:
  status: ('A' for Active; 'I' for Inactive)
    1  A    between atoms: C_2  and  C_21
    2  A    between atoms: C_15  and  C_21
                            x       y       z     vdW  Elec       q    Type
                         _______ _______ _______ _____ _____    ______ ____

>  <TORSDO>
F 2

$$$$
=
 OpenBabel10272400463D

 25 28  0  0  1  0  0  0  0  0999 V2000
  188.3900  177.3730  138.2080 C   0  0  0  0  0  0  0  0  0  0  0  0
  187.2520  177.1250  137.5050 N   0  0  0  0  0  0  0  0  0  0  0  0
  188.4250  175.8350  135.8880 C   0  0  0  0  0  3  0  0  0  0  0  0
  185.9740  177.4980  137.6720 C   0  0  0  0  0  0  0  0  0  0  0  0
  189.1270  176.7750  141.9170 N   0  0  0  0  0  2  0  0  0  0  0  0
  183.2510  177.9640  137.5360 C   0  0  0  0  0  3  0  0  0  0  0  0
  189.5730  176.0470  136.5960 N   0  0  0  0  0  0  0  0  0  0  0  0
  185.2390  176.9740  136.6400 C   0  0  0  0  0  0  0  0  0  0  0  0
  183.8660  177.1860  136.5370 C   0  0  0  0  0  3  0  0  0  0  0  0
  190.8210  176.9400  138.5970 C   0  0  2  0  0  3  0  0  0  0  0  0
  191.9440  176.0140  138.1580 C   0  0  0  0  0  1  0  0  0  0  0  0
  188.0200  177.2010  142.7190 C   0  0  0  0  0  0  0  0  0  0  0  0
  188.4340  178.3990  139.6870 S   0  0  0  0  0  0  0  0  0  0  0  0
  184.0110  178.5020  138.5990 C   0  0  0  0  0  3  0  0  0  0  0  0
  187.2440  176.3890  136.3720 C   0  0  0  0  0  0  0  0  0  0  0  0
  186.0200  176.2650  135.7970 N   0  0  0  0  0  0  0  0  0  0  0  0
  190.4800  176.6620  139.9950 N   0  0  0  0  0  0  0  0  0  0  0  0
  185.3960  178.2710  138.6790 C   0  0  0  0  0  3  0  0  0  0  0  0
  189.4520  177.2000  140.5860 C   0  0  0  0  0  0  0  0  0  0  0  0
  189.5850  176.7940  137.7440 C   0  0  0  0  0  0  0  0  0  0  0  0
  187.1860  178.0430  142.2950 O   0  0  0  0  0  0  0  0  0  0  0  0
  187.8700  176.6580  144.0980 C   0  0  0  0  0  2  0  0  0  0  0  0
  188.2280  177.6960  145.1040 C   0  0  0  0  0  0  0  0  0  0  0  0
  187.3550  178.1320  145.8980 O   0  0  0  0  0  0  0  0  0  0  0  0
  189.5670  178.1710  145.1910 N   0  0  0  0  0  1  0  0  0  0  0  0
  1 13  1  0  0  0  0
  2  4  1  0  0  0  0
  2  1  1  0  0  0  0
  3 15  1  0  0  0  0
  3  7  2  0  0  0  0
  4 18  1  0  0  0  0
  5 12  1  0  0  0  0
  6 14  1  0  0  0  0
  7 20  1  0  0  0  0
  8  4  2  0  0  0  0
  9  8  1  0  0  0  0
  9  6  2  0  0  0  0
 10 11  1  6  0  0  0
 10 17  1  0  0  0  0
 12 22  1  0  0  0  0
 13 19  1  0  0  0  0
 14 18  2  0  0  0  0
 15  2  1  0  0  0  0
 16 15  2  0  0  0  0
 16  8  1  0  0  0  0
 17 19  2  0  0  0  0
 19  5  1  0  0  0  0
 20  1  2  0  0  0  0
 20 10  1  0  0  0  0
 21 12  2  0  0  0  0
 22 23  1  0  0  0  0
 23 25  1  0  0  0  0
 23 24  2  0  0  0  0
M  END
>  <MODEL>
8

>  <REMARK>
 VINA RESULT:      -6.9      3.256      7.182
  Name = 
  2 active torsions:
  status: ('A' for Active; 'I' for Inactive)
    1  A    between atoms: C_2  and  C_21
    2  A    between atoms: C_15  and  C_21
                            x       y       z     vdW  Elec       q    Type
                         _______ _______ _______ _____ _____    ______ ____

>  <TORSDO>
F 2

$$$$
=
 OpenBabel10272400463D

 25 28  0  0  1  0  0  0  0  0999 V2000
  188.2290  177.5350  137.8890 C   0  0  0  0  0  0  0  0  0  0  0  0
  186.8940  177.4860  137.6280 N   0  0  0  0  0  0  0  0  0  0  0  0
  187.2410  176.2620  135.6180 C   0  0  0  0  0  3  0  0  0  0  0  0
  185.8190  177.9700  138.2670 C   0  0  0  0  0  0  0  0  0  0  0  0
  190.1240  176.4640  141.0380 N   0  0  0  0  0  2  0  0  0  0  0  0
  183.3110  178.7330  139.1490 C   0  0  0  0  0  3  0  0  0  0  0  0
  188.5810  176.2740  135.8780 N   0  0  0  0  0  0  0  0  0  0  0  0
  184.7050  177.6420  137.5370 C   0  0  0  0  0  0  0  0  0  0  0  0
  183.4260  178.0080  137.9480 C   0  0  0  0  0  3  0  0  0  0  0  0
  190.5580  176.8080  137.3490 C   0  0  2  0  0  3  0  0  0  0  0  0
  191.3200  175.8230  136.4770 C   0  0  0  0  0  1  0  0  0  0  0  0
  189.4360  176.9160  142.2100 C   0  0  0  0  0  0  0  0  0  0  0  0
  188.9260  178.3840  139.3150 S   0  0  0  0  0  0  0  0  0  0  0  0
  184.4600  179.0700  139.9000 C   0  0  0  0  0  3  0  0  0  0  0  0
  186.3910  176.8820  136.5290 C   0  0  0  0  0  0  0  0  0  0  0  0
  185.0390  176.9510  136.4250 N   0  0  0  0  0  0  0  0  0  0  0  0
  190.6920  176.4180  138.7550 N   0  0  0  0  0  0  0  0  0  0  0  0
  185.7400  178.6870  139.4610 C   0  0  0  0  0  3  0  0  0  0  0  0
  190.0190  176.9940  139.7090 C   0  0  0  0  0  0  0  0  0  0  0  0
  189.0950  176.8870  136.9900 C   0  0  0  0  0  0  0  0  0  0  0  0
  188.6290  177.8810  142.1690 O   0  0  0  0  0  0  0  0  0  0  0  0
  189.7030  176.2450  143.5130 C   0  0  0  0  0  2  0  0  0  0  0  0
  191.1290  176.4250  143.9040 C   0  0  0  0  0  0  0  0  0  0  0  0
  191.9120  175.4400  143.9000 O   0  0  0  0  0  0  0  0  0  0  0  0
  191.6160  177.7170  144.2470 N   0  0  0  0  0  1  0  0  0  0  0  0
  1 13  1  0  0  0  0
  2  1  1  0  0  0  0
  2  4  1  0  0  0  0
  3  7  2  0  0  0  0
  3 15  1  0  0  0  0
  4 18  1  0  0  0  0
  5 12  1  0  0  0  0
  6 14  1  0  0  0  0
  7 20  1  0  0  0  0
  8  9  1  0  0  0  0
  8  4  2  0  0  0  0
  9  6  2  0  0  0  0
 10 11  1  6  0  0  0
 10 17  1  0  0  0  0
 12 22  1  0  0  0  0
 13 19  1  0  0  0  0
 15  2  1  0  0  0  0
 16 15  2  0  0  0  0
 16  8  1  0  0  0  0
 17 19  2  0  0  0  0
 18 14  2  0  0  0  0
 19  5  1  0  0  0  0
 20 10  1  0  0  0  0
 20  1  2  0  0  0  0
 21 12  2  0  0  0  0
 22 23  1  0  0  0  0
 23 25  1  0  0  0  0
 24 23  2  0  0  0  0
M  END
>  <MODEL>
9

>  <REMARK>
 VINA RESULT:      -6.7      3.536      7.064
  Name = 
  2 active torsions:
  status: ('A' for Active; 'I' for Inactive)
    1  A    between atoms: C_2  and  C_21
    2  A    between atoms: C_15  and  C_21
                            x       y       z     vdW  Elec       q    Type
                         _______ _______ _______ _____ _____    ______ ____

>  <TORSDO>
F 2

$$$$
