=
 OpenBabel10272400203D

 31 34  0  0  1  0  0  0  0  0999 V2000
  183.5350  178.7770  144.2710 C   0  0  0  0  0  0  0  0  0  0  0  0
  187.2150  178.0130  143.8920 C   0  0  0  0  0  0  0  0  0  0  0  0
  187.7250  177.7970  145.2210 C   0  0  0  0  0  0  0  0  0  0  0  0
  187.2850  178.4370  147.6370 C   0  0  0  0  0  2  0  0  0  0  0  0
  185.8430  178.3160  143.5950 C   0  0  0  0  0  0  0  0  0  0  0  0
  183.1540  178.9090  142.9390 C   0  0  0  0  0  3  0  0  0  0  0  0
  186.7820  177.7070  146.4010 C   0  0  0  0  0  2  0  0  0  0  0  0
  187.6910  178.0940  141.4660 C   0  0  0  0  0  0  0  0  0  0  0  0
  182.6190  178.9310  145.2570 F   0  0  0  0  0  0  0  0  0  0  0  0
  189.9640  177.4780  144.3000 C   0  0  0  0  0  3  0  0  0  0  0  0
  188.0730  177.4850  148.5340 C   0  0  0  0  0  2  0  0  0  0  0  0
  186.3490  178.3650  141.2120 C   0  0  0  0  0  3  0  0  0  0  0  0
  188.1240  177.9240  142.7930 C   0  0  0  0  0  0  0  0  0  0  0  0
  184.8630  178.4860  144.5900 C   0  0  0  0  0  3  0  0  0  0  0  0
  189.0320  176.5880  147.7520 C   0  0  0  0  0  2  0  0  0  0  0  0
  185.4340  178.4760  142.2460 C   0  0  0  0  0  0  0  0  0  0  0  0
  184.1030  178.7610  141.9280 C   0  0  0  0  0  3  0  0  0  0  0  0
  189.4750  177.6610  143.0200 C   0  0  0  0  0  3  0  0  0  0  0  0
  189.1190  177.5280  145.4000 C   0  0  0  0  0  0  0  0  0  0  0  0
  189.8140  177.3990  146.7320 C   0  0  0  0  0  2  0  0  0  0  0  0
  187.2250  178.4760  138.5720 O   0  0  0  0  0  0  0  0  0  0  0  0
  188.3890  178.2530  138.9950 C   0  0  0  0  0  0  0  0  0  0  0  0
  188.6380  178.0070  140.3860 N   0  0  0  0  0  2  0  0  0  0  0  0
  189.1510  178.8970  136.8450 O   0  0  0  0  0  1  0  0  0  0  0  0
  189.5250  178.2520  138.0260 C   0  0  2  0  0  3  0  0  0  0  0  0
  191.9340  175.2170  137.6320 C   0  0  0  0  0  0  0  0  0  0  0  0
  189.1240  176.0180  137.3220 O   0  0  0  0  0  0  0  0  0  0  0  0
  191.1410  174.0850  137.0720 C   0  0  0  0  0  1  0  0  0  0  0  0
  193.1590  175.0440  137.8590 O   0  0  0  0  0  0  0  0  0  0  0  0
  189.9700  176.8570  137.7330 C   0  0  0  0  0  0  0  0  0  0  0  0
  191.3460  176.4920  137.9160 N   0  0  0  0  0  2  0  0  0  0  0  0
  1 14  1  0  0  0  0
  1  9  1  0  0  0  0
  2  3  1  0  0  0  0
  3 19  2  0  0  0  0
  3  7  1  0  0  0  0
  4 11  1  0  0  0  0
  5  2  1  0  0  0  0
  5 14  2  0  0  0  0
  6  1  2  0  0  0  0
  7  4  1  0  0  0  0
  8 13  1  0  0  0  0
 10 19  1  0  0  0  0
 12  8  2  0  0  0  0
 12 16  1  0  0  0  0
 13 18  1  0  0  0  0
 13  2  2  0  0  0  0
 15 11  1  0  0  0  0
 16  5  1  0  0  0  0
 17 16  2  0  0  0  0
 17  6  1  0  0  0  0
 18 10  2  0  0  0  0
 19 20  1  0  0  0  0
 20 15  1  0  0  0  0
 21 22  2  0  0  0  0
 22 23  1  0  0  0  0
 23  8  1  0  0  0  0
 25 24  1  6  0  0  0
 25 22  1  0  0  0  0
 26 29  2  0  0  0  0
 26 31  1  0  0  0  0
 27 30  2  0  0  0  0
 28 26  1  0  0  0  0
 30 31  1  0  0  0  0
 30 25  1  0  0  0  0
M  END
>  <MODEL>
1

>  <REMARK>
 VINA RESULT:     -11.5      0.000      0.000
  Name = 
  3 active torsions:
  status: ('A' for Active; 'I' for Inactive)
    1  A    between atoms: C_9  and  C_22
    2  A    between atoms: C_15  and  N_23
    3  A    between atoms: C_19  and  C_22
                            x       y       z     vdW  Elec       q    Type
                         _______ _______ _______ _____ _____    ______ ____

>  <TORSDO>
F 3

$$$$
=
 OpenBabel10272400203D

 31 34  0  0  1  0  0  0  0  0999 V2000
  189.6030  177.4330  147.6150 C   0  0  0  0  0  0  0  0  0  0  0  0
  188.0850  177.5490  144.1580 C   0  0  0  0  0  0  0  0  0  0  0  0
  186.7380  178.0330  144.3210 C   0  0  0  0  0  0  0  0  0  0  0  0
  184.8590  178.1160  146.0250 C   0  0  0  0  0  2  0  0  0  0  0  0
  189.0130  177.3730  145.2390 C   0  0  0  0  0  0  0  0  0  0  0  0
  190.8960  177.0110  147.3210 C   0  0  0  0  0  3  0  0  0  0  0  0
  186.2660  178.5590  145.6590 C   0  0  0  0  0  2  0  0  0  0  0  0
  189.8440  176.7700  142.6040 C   0  0  0  0  0  0  0  0  0  0  0  0
  189.2430  177.6710  148.8990 F   0  0  0  0  0  0  0  0  0  0  0  0
  186.3680  177.7840  141.9200 C   0  0  0  0  0  3  0  0  0  0  0  0
  183.8360  179.1500  145.5570 C   0  0  0  0  0  2  0  0  0  0  0  0
  190.7270  176.6330  143.6720 C   0  0  0  0  0  3  0  0  0  0  0  0
  188.5330  177.2190  142.8420 C   0  0  0  0  0  0  0  0  0  0  0  0
  188.6770  177.6090  146.5850 C   0  0  0  0  0  3  0  0  0  0  0  0
  184.1160  179.6680  144.1470 C   0  0  0  0  0  2  0  0  0  0  0  0
  190.3320  176.9250  144.9680 C   0  0  0  0  0  0  0  0  0  0  0  0
  191.2590  176.7550  145.9990 C   0  0  0  0  0  3  0  0  0  0  0  0
  187.6670  177.3420  141.7550 C   0  0  0  0  0  3  0  0  0  0  0  0
  185.8910  178.1420  143.1740 C   0  0  0  0  0  0  0  0  0  0  0  0
  184.4300  178.5170  143.2050 C   0  0  0  0  0  2  0  0  0  0  0  0
  192.0250  177.9580  141.0010 O   0  0  0  0  0  0  0  0  0  0  0  0
  191.3570  176.9980  140.5360 C   0  0  0  0  0  0  0  0  0  0  0  0
  190.2560  176.4390  141.2660 N   0  0  0  0  0  2  0  0  0  0  0  0
  192.9790  176.9120  138.8100 O   0  0  0  0  0  1  0  0  0  0  0  0
  191.7270  176.4350  139.2040 C   0  0  2  0  0  3  0  0  0  0  0  0
  189.0710  178.5500  137.2950 C   0  0  0  0  0  0  0  0  0  0  0  0
  190.3630  175.9110  137.3300 O   0  0  0  0  0  0  0  0  0  0  0  0
  188.4690  177.6750  136.2490 C   0  0  0  0  0  1  0  0  0  0  0  0
  188.6580  179.7320  137.4070 O   0  0  0  0  0  0  0  0  0  0  0  0
  190.6980  176.7800  138.1780 C   0  0  0  0  0  0  0  0  0  0  0  0
  190.1020  178.0860  138.1760 N   0  0  0  0  0  2  0  0  0  0  0  0
  1  9  1  0  0  0  0
  2  3  1  0  0  0  0
  2  5  1  0  0  0  0
  3  7  1  0  0  0  0
  5 14  1  0  0  0  0
  6  1  1  0  0  0  0
  7  4  1  0  0  0  0
  8 13  1  0  0  0  0
  8 12  2  0  0  0  0
 10 19  1  0  0  0  0
 11  4  1  0  0  0  0
 12 16  1  0  0  0  0
 13  2  2  0  0  0  0
 14  1  2  0  0  0  0
 15 11  1  0  0  0  0
 16  5  2  0  0  0  0
 16 17  1  0  0  0  0
 17  6  2  0  0  0  0
 18 10  2  0  0  0  0
 18 13  1  0  0  0  0
 19 20  1  0  0  0  0
 19  3  2  0  0  0  0
 20 15  1  0  0  0  0
 22 21  2  0  0  0  0
 22 23  1  0  0  0  0
 23  8  1  0  0  0  0
 25 24  1  6  0  0  0
 25 22  1  0  0  0  0
 26 29  2  0  0  0  0
 26 31  1  0  0  0  0
 27 30  2  0  0  0  0
 28 26  1  0  0  0  0
 30 25  1  0  0  0  0
 31 30  1  0  0  0  0
M  END
>  <MODEL>
2

>  <REMARK>
 VINA RESULT:     -11.2      2.114      4.774
  Name = 
  3 active torsions:
  status: ('A' for Active; 'I' for Inactive)
    1  A    between atoms: C_9  and  C_22
    2  A    between atoms: C_15  and  N_23
    3  A    between atoms: C_19  and  C_22
                            x       y       z     vdW  Elec       q    Type
                         _______ _______ _______ _____ _____    ______ ____

>  <TORSDO>
F 3

$$$$
=
 OpenBabel10272400203D

 31 34  0  0  1  0  0  0  0  0999 V2000
  190.1730  176.9660  146.8800 C   0  0  0  0  0  0  0  0  0  0  0  0
  188.2760  177.6020  143.6760 C   0  0  0  0  0  0  0  0  0  0  0  0
  186.9560  178.0290  144.0620 C   0  0  0  0  0  0  0  0  0  0  0  0
  185.2800  177.8070  145.9550 C   0  0  0  0  0  2  0  0  0  0  0  0
  189.3210  177.2740  144.6050 C   0  0  0  0  0  0  0  0  0  0  0  0
  191.4260  176.6200  146.3810 C   0  0  0  0  0  3  0  0  0  0  0  0
  186.6380  178.3280  145.5110 C   0  0  0  0  0  2  0  0  0  0  0  0
  189.8500  177.1110  141.8320 C   0  0  0  0  0  0  0  0  0  0  0  0
  189.9600  176.9920  148.2170 F   0  0  0  0  0  0  0  0  0  0  0  0
  186.3190  178.1570  141.7090 C   0  0  0  0  0  3  0  0  0  0  0  0
  184.2120  178.8830  145.7750 C   0  0  0  0  0  2  0  0  0  0  0  0
  190.8470  176.8220  142.7600 C   0  0  0  0  0  3  0  0  0  0  0  0
  188.5740  177.4930  142.2820 C   0  0  0  0  0  0  0  0  0  0  0  0
  189.1380  177.2870  146.0000 C   0  0  0  0  0  3  0  0  0  0  0  0
  184.3320  179.6240  144.4430 C   0  0  0  0  0  2  0  0  0  0  0  0
  190.6000  176.8980  144.1210 C   0  0  0  0  0  0  0  0  0  0  0  0
  191.6380  176.5840  145.0030 C   0  0  0  0  0  3  0  0  0  0  0  0
  187.5910  177.7700  141.3320 C   0  0  0  0  0  3  0  0  0  0  0  0
  185.9850  178.3040  143.0480 C   0  0  0  0  0  0  0  0  0  0  0  0
  184.5380  178.6430  143.3010 C   0  0  0  0  0  2  0  0  0  0  0  0
  192.3880  177.5630  140.3860 O   0  0  0  0  0  0  0  0  0  0  0  0
  191.3690  177.1770  139.7560 C   0  0  0  0  0  0  0  0  0  0  0  0
  190.1090  177.0030  140.4210 N   0  0  0  0  0  2  0  0  0  0  0  0
  190.2180  176.6720  137.7470 O   0  0  0  0  0  1  0  0  0  0  0  0
  191.4840  176.8890  138.2960 C   0  0  2  0  0  3  0  0  0  0  0  0
  194.7040  174.8640  137.4610 C   0  0  0  0  0  0  0  0  0  0  0  0
  191.8570  174.5490  138.1150 O   0  0  0  0  0  0  0  0  0  0  0  0
  194.3250  173.4230  137.4040 C   0  0  0  0  0  1  0  0  0  0  0  0
  195.8990  175.1850  137.2360 O   0  0  0  0  0  0  0  0  0  0  0  0
  192.3600  175.7030  138.0580 C   0  0  0  0  0  0  0  0  0  0  0  0
  193.7520  175.8910  137.7620 N   0  0  0  0  0  2  0  0  0  0  0  0
  1  9  1  0  0  0  0
  2  3  1  0  0  0  0
  2  5  1  0  0  0  0
  3  7  1  0  0  0  0
  5 14  1  0  0  0  0
  6  1  1  0  0  0  0
  7  4  1  0  0  0  0
  8 13  1  0  0  0  0
  8 12  2  0  0  0  0
 10 19  1  0  0  0  0
 11  4  1  0  0  0  0
 12 16  1  0  0  0  0
 13  2  2  0  0  0  0
 14  1  2  0  0  0  0
 15 11  1  0  0  0  0
 16  5  2  0  0  0  0
 16 17  1  0  0  0  0
 17  6  2  0  0  0  0
 18 10  2  0  0  0  0
 18 13  1  0  0  0  0
 19 20  1  0  0  0  0
 19  3  2  0  0  0  0
 20 15  1  0  0  0  0
 22 21  2  0  0  0  0
 22 23  1  0  0  0  0
 23  8  1  0  0  0  0
 25 24  1  1  0  0  0
 25 22  1  0  0  0  0
 26 31  1  0  0  0  0
 28 26  1  0  0  0  0
 29 26  2  0  0  0  0
 30 27  2  0  0  0  0
 30 25  1  0  0  0  0
 31 30  1  0  0  0  0
M  END
>  <MODEL>
3

>  <REMARK>
 VINA RESULT:     -11.1      2.216      4.568
  Name = 
  3 active torsions:
  status: ('A' for Active; 'I' for Inactive)
    1  A    between atoms: C_9  and  C_22
    2  A    between atoms: C_15  and  N_23
    3  A    between atoms: C_19  and  C_22
                            x       y       z     vdW  Elec       q    Type
                         _______ _______ _______ _____ _____    ______ ____

>  <TORSDO>
F 3

$$$$
=
 OpenBabel10272400203D

 31 34  0  0  1  0  0  0  0  0999 V2000
  184.9610  178.4000  145.7320 C   0  0  0  0  0  0  0  0  0  0  0  0
  188.2620  177.7360  144.0200 C   0  0  0  0  0  0  0  0  0  0  0  0
  189.2030  177.4130  145.0620 C   0  0  0  0  0  0  0  0  0  0  0  0
  189.6480  177.8320  147.5250 C   0  0  0  0  0  2  0  0  0  0  0  0
  186.8780  178.0400  144.2510 C   0  0  0  0  0  0  0  0  0  0  0  0
  184.1380  178.6410  144.6350 C   0  0  0  0  0  3  0  0  0  0  0  0
  188.7330  177.2050  146.4850 C   0  0  0  0  0  2  0  0  0  0  0  0
  187.8570  178.0360  141.5980 C   0  0  0  0  0  0  0  0  0  0  0  0
  184.4510  178.4520  146.9860 F   0  0  0  0  0  0  0  0  0  0  0  0
  190.9710  177.2140  143.3890 C   0  0  0  0  0  3  0  0  0  0  0  0
  190.6870  176.8200  148.0000 C   0  0  0  0  0  2  0  0  0  0  0  0
  186.5160  178.3040  141.8560 C   0  0  0  0  0  3  0  0  0  0  0  0
  188.7260  177.7590  142.6690 C   0  0  0  0  0  0  0  0  0  0  0  0
  186.3120  178.1050  145.5380 C   0  0  0  0  0  3  0  0  0  0  0  0
  191.2970  176.0110  146.8570 C   0  0  0  0  0  2  0  0  0  0  0  0
  186.0230  178.3090  143.1510 C   0  0  0  0  0  0  0  0  0  0  0  0
  184.6700  178.5980  143.3470 C   0  0  0  0  0  3  0  0  0  0  0  0
  190.0670  177.5000  142.3830 C   0  0  0  0  0  3  0  0  0  0  0  0
  190.5660  177.1530  144.7160 C   0  0  0  0  0  0  0  0  0  0  0  0
  191.6830  176.9210  145.7020 C   0  0  0  0  0  2  0  0  0  0  0  0
  186.3640  178.4140  139.0760 O   0  0  0  0  0  0  0  0  0  0  0  0
  187.6170  178.3010  139.0510 C   0  0  0  0  0  0  0  0  0  0  0  0
  188.3630  178.0600  140.2520 N   0  0  0  0  0  2  0  0  0  0  0  0
  187.7350  179.4190  136.9650 O   0  0  0  0  0  1  0  0  0  0  0  0
  188.3320  178.4280  137.7460 C   0  0  2  0  0  3  0  0  0  0  0  0
  189.3140  174.7660  136.8510 C   0  0  0  0  0  0  0  0  0  0  0  0
  187.6000  176.9950  135.9970 O   0  0  0  0  0  0  0  0  0  0  0  0
  188.5960  174.4040  135.5950 C   0  0  0  0  0  1  0  0  0  0  0  0
  190.0750  173.9160  137.3790 O   0  0  0  0  0  0  0  0  0  0  0  0
  188.3320  177.1250  137.0140 C   0  0  0  0  0  0  0  0  0  0  0  0
  189.1650  176.0500  137.4710 N   0  0  0  0  0  2  0  0  0  0  0  0
  1  9  1  0  0  0  0
  2  5  1  0  0  0  0
  2  3  1  0  0  0  0
  3  7  1  0  0  0  0
  4 11  1  0  0  0  0
  5 14  2  0  0  0  0
  6  1  2  0  0  0  0
  7  4  1  0  0  0  0
  8 12  2  0  0  0  0
  8 13  1  0  0  0  0
 10 19  1  0  0  0  0
 12 16  1  0  0  0  0
 13  2  2  0  0  0  0
 14  1  1  0  0  0  0
 15 11  1  0  0  0  0
 16 17  2  0  0  0  0
 16  5  1  0  0  0  0
 17  6  1  0  0  0  0
 18 13  1  0  0  0  0
 18 10  2  0  0  0  0
 19  3  2  0  0  0  0
 19 20  1  0  0  0  0
 20 15  1  0  0  0  0
 22 21  2  0  0  0  0
 22 23  1  0  0  0  0
 23  8  1  0  0  0  0
 25 24  1  6  0  0  0
 25 22  1  0  0  0  0
 26 29  2  0  0  0  0
 26 31  1  0  0  0  0
 27 30  2  0  0  0  0
 28 26  1  0  0  0  0
 30 31  1  0  0  0  0
 30 25  1  0  0  0  0
M  END
>  <MODEL>
4

>  <REMARK>
 VINA RESULT:     -11.0      1.528      1.866
  Name = 
  3 active torsions:
  status: ('A' for Active; 'I' for Inactive)
    1  A    between atoms: C_9  and  C_22
    2  A    between atoms: C_15  and  N_23
    3  A    between atoms: C_19  and  C_22
                            x       y       z     vdW  Elec       q    Type
                         _______ _______ _______ _____ _____    ______ ____

>  <TORSDO>
F 3

$$$$
=
 OpenBabel10272400203D

 31 34  0  0  1  0  0  0  0  0999 V2000
  185.3840  178.6080  142.5540 C   0  0  0  0  0  0  0  0  0  0  0  0
  189.0180  177.6330  142.8850 C   0  0  0  0  0  0  0  0  0  0  0  0
  189.2540  177.4090  144.2880 C   0  0  0  0  0  0  0  0  0  0  0  0
  188.4000  178.1090  146.5740 C   0  0  0  0  0  2  0  0  0  0  0  0
  187.7480  178.0090  142.3310 C   0  0  0  0  0  0  0  0  0  0  0  0
  185.2710  178.7410  141.1730 C   0  0  0  0  0  3  0  0  0  0  0  0
  188.1000  177.3910  145.2680 C   0  0  0  0  0  2  0  0  0  0  0  0
  189.9500  177.6510  140.5930 C   0  0  0  0  0  0  0  0  0  0  0  0
  184.3080  178.8290  143.3470 F   0  0  0  0  0  0  0  0  0  0  0  0
  191.6040  176.9510  143.8110 C   0  0  0  0  0  3  0  0  0  0  0  0
  188.9480  177.1290  147.6080 C   0  0  0  0  0  2  0  0  0  0  0  0
  188.6980  177.9920  140.0870 C   0  0  0  0  0  3  0  0  0  0  0  0
  190.1130  177.4770  141.9790 C   0  0  0  0  0  0  0  0  0  0  0  0
  186.6080  178.2480  143.1210 C   0  0  0  0  0  3  0  0  0  0  0  0
  189.9840  176.1670  147.0270 C   0  0  0  0  0  2  0  0  0  0  0  0
  187.6110  178.1700  140.9280 C   0  0  0  0  0  0  0  0  0  0  0  0
  186.3840  178.5240  140.3620 C   0  0  0  0  0  3  0  0  0  0  0  0
  191.3780  177.1420  142.4610 C   0  0  0  0  0  3  0  0  0  0  0  0
  190.5700  177.0650  144.7300 C   0  0  0  0  0  0  0  0  0  0  0  0
  190.9910  176.9170  146.1700 C   0  0  0  0  0  2  0  0  0  0  0  0
  190.5160  175.4550  138.6980 O   0  0  0  0  0  0  0  0  0  0  0  0
  191.2950  176.4410  138.7640 C   0  0  0  0  0  0  0  0  0  0  0  0
  191.0770  177.4940  139.7140 N   0  0  0  0  0  2  0  0  0  0  0  0
  192.0160  176.4700  136.5070 O   0  0  0  0  0  1  0  0  0  0  0  0
  192.4580  176.5110  137.8310 C   0  0  2  0  0  3  0  0  0  0  0  0
  195.6040  174.6680  139.2000 C   0  0  0  0  0  0  0  0  0  0  0  0
  193.1840  174.2620  137.5840 O   0  0  0  0  0  0  0  0  0  0  0  0
  195.5830  173.2800  138.6540 C   0  0  0  0  0  1  0  0  0  0  0  0
  196.5590  175.0110  139.9420 O   0  0  0  0  0  0  0  0  0  0  0  0
  193.4130  175.3920  138.0910 C   0  0  0  0  0  0  0  0  0  0  0  0
  194.5740  175.6190  138.9030 N   0  0  0  0  0  2  0  0  0  0  0  0
  1 14  1  0  0  0  0
  1  9  1  0  0  0  0
  2  3  1  0  0  0  0
  3 19  2  0  0  0  0
  3  7  1  0  0  0  0
  4 11  1  0  0  0  0
  5  2  1  0  0  0  0
  5 14  2  0  0  0  0
  6  1  2  0  0  0  0
  7  4  1  0  0  0  0
  8 13  1  0  0  0  0
 10 19  1  0  0  0  0
 12  8  2  0  0  0  0
 12 16  1  0  0  0  0
 13 18  1  0  0  0  0
 13  2  2  0  0  0  0
 15 11  1  0  0  0  0
 16  5  1  0  0  0  0
 17 16  2  0  0  0  0
 17  6  1  0  0  0  0
 18 10  2  0  0  0  0
 19 20  1  0  0  0  0
 20 15  1  0  0  0  0
 21 22  2  0  0  0  0
 22 23  1  0  0  0  0
 23  8  1  0  0  0  0
 25 24  1  6  0  0  0
 25 30  1  0  0  0  0
 25 22  1  0  0  0  0
 26 29  2  0  0  0  0
 27 30  2  0  0  0  0
 28 26  1  0  0  0  0
 30 31  1  0  0  0  0
 31 26  1  0  0  0  0
M  END
>  <MODEL>
5

>  <REMARK>
 VINA RESULT:     -10.7      1.949      2.881
  Name = 
  3 active torsions:
  status: ('A' for Active; 'I' for Inactive)
    1  A    between atoms: C_9  and  C_22
    2  A    between atoms: C_15  and  N_23
    3  A    between atoms: C_19  and  C_22
                            x       y       z     vdW  Elec       q    Type
                         _______ _______ _______ _____ _____    ______ ____

>  <TORSDO>
F 3

$$$$
=
 OpenBabel10272400203D

 31 34  0  0  1  0  0  0  0  0999 V2000
  191.0770  177.4530  141.5580 C   0  0  0  0  0  0  0  0  0  0  0  0
  188.0630  177.7680  143.8110 C   0  0  0  0  0  0  0  0  0  0  0  0
  188.5500  177.6600  145.1620 C   0  0  0  0  0  0  0  0  0  0  0  0
  190.4500  176.6430  146.5030 C   0  0  0  0  0  2  0  0  0  0  0  0
  188.9000  177.7150  142.6450 C   0  0  0  0  0  0  0  0  0  0  0  0
  190.4920  177.6270  140.3070 C   0  0  0  0  0  3  0  0  0  0  0  0
  190.0370  177.6530  145.4440 C   0  0  0  0  0  2  0  0  0  0  0  0
  186.1140  178.0810  142.3190 C   0  0  0  0  0  0  0  0  0  0  0  0
  192.4120  177.2420  141.6580 F   0  0  0  0  0  0  0  0  0  0  0  0
  186.2620  177.8400  145.9930 C   0  0  0  0  0  3  0  0  0  0  0  0
  190.4600  177.2940  147.8840 C   0  0  0  0  0  2  0  0  0  0  0  0
  186.9570  178.0480  141.2110 C   0  0  0  0  0  3  0  0  0  0  0  0
  186.6580  177.9380  143.6080 C   0  0  0  0  0  0  0  0  0  0  0  0
  190.2880  177.4970  142.7080 C   0  0  0  0  0  3  0  0  0  0  0  0
  189.2430  178.1830  148.1320 C   0  0  0  0  0  2  0  0  0  0  0  0
  188.3240  177.8690  141.3580 C   0  0  0  0  0  0  0  0  0  0  0  0
  189.1170  177.8320  140.2080 C   0  0  0  0  0  3  0  0  0  0  0  0
  185.7900  177.9680  144.7000 C   0  0  0  0  0  3  0  0  0  0  0  0
  187.6190  177.6990  146.2470 C   0  0  0  0  0  0  0  0  0  0  0  0
  187.9670  177.4800  147.6980 C   0  0  0  0  0  2  0  0  0  0  0  0
  184.6580  179.5230  140.1900 O   0  0  0  0  0  0  0  0  0  0  0  0
  184.0170  178.9020  141.0760 C   0  0  0  0  0  0  0  0  0  0  0  0
  184.6940  178.2400  142.1540 N   0  0  0  0  0  2  0  0  0  0  0  0
  181.9720  178.8740  142.2740 O   0  0  0  0  0  1  0  0  0  0  0  0
  182.5270  178.8510  140.9930 C   0  0  2  0  0  3  0  0  0  0  0  0
  182.7520  175.6880  138.7300 C   0  0  0  0  0  0  0  0  0  0  0  0
  180.8630  177.3040  140.2960 O   0  0  0  0  0  0  0  0  0  0  0  0
  181.3700  175.1540  138.5690 C   0  0  0  0  0  1  0  0  0  0  0  0
  183.7000  175.1000  138.1500 O   0  0  0  0  0  0  0  0  0  0  0  0
  182.0790  177.6290  140.2590 C   0  0  0  0  0  0  0  0  0  0  0  0
  183.0320  176.8490  139.5220 N   0  0  0  0  0  2  0  0  0  0  0  0
  1  9  1  0  0  0  0
  1 14  1  0  0  0  0
  2  3  1  0  0  0  0
  3  7  1  0  0  0  0
  3 19  2  0  0  0  0
  4 11  1  0  0  0  0
  5 14  2  0  0  0  0
  5  2  1  0  0  0  0
  6  1  2  0  0  0  0
  7  4  1  0  0  0  0
  8 13  1  0  0  0  0
 10 19  1  0  0  0  0
 11 15  1  0  0  0  0
 12 16  1  0  0  0  0
 12  8  2  0  0  0  0
 13  2  2  0  0  0  0
 13 18  1  0  0  0  0
 16  5  1  0  0  0  0
 17  6  1  0  0  0  0
 17 16  2  0  0  0  0
 18 10  2  0  0  0  0
 19 20  1  0  0  0  0
 20 15  1  0  0  0  0
 21 22  2  0  0  0  0
 22 23  1  0  0  0  0
 23  8  1  0  0  0  0
 25 22  1  0  0  0  0
 25 24  1  1  0  0  0
 26 31  1  0  0  0  0
 28 26  1  0  0  0  0
 29 26  2  0  0  0  0
 30 27  2  0  0  0  0
 30 25  1  0  0  0  0
 31 30  1  0  0  0  0
M  END
>  <MODEL>
6

>  <REMARK>
 VINA RESULT:     -10.7      3.748      5.937
  Name = 
  3 active torsions:
  status: ('A' for Active; 'I' for Inactive)
    1  A    between atoms: C_9  and  C_22
    2  A    between atoms: C_15  and  N_23
    3  A    between atoms: C_19  and  C_22
                            x       y       z     vdW  Elec       q    Type
                         _______ _______ _______ _____ _____    ______ ____

>  <TORSDO>
F 3

$$$$
=
 OpenBabel10272400203D

 31 34  0  0  1  0  0  0  0  0999 V2000
  190.3940  176.9020  146.1450 C   0  0  0  0  0  0  0  0  0  0  0  0
  188.1220  177.8680  143.2880 C   0  0  0  0  0  0  0  0  0  0  0  0
  186.8330  178.1460  143.8680 C   0  0  0  0  0  0  0  0  0  0  0  0
  185.3930  177.5410  145.8680 C   0  0  0  0  0  2  0  0  0  0  0  0
  189.2790  177.4790  144.0440 C   0  0  0  0  0  0  0  0  0  0  0  0
  191.5990  176.7150  145.4740 C   0  0  0  0  0  3  0  0  0  0  0  0
  186.6640  178.2100  145.3710 C   0  0  0  0  0  2  0  0  0  0  0  0
  189.5020  177.7550  141.2380 C   0  0  0  0  0  0  0  0  0  0  0  0
  190.3300  176.7190  147.4860 F   0  0  0  0  0  0  0  0  0  0  0  0
  185.9320  178.5710  141.6390 C   0  0  0  0  0  3  0  0  0  0  0  0
  184.2580  178.5590  145.9630 C   0  0  0  0  0  2  0  0  0  0  0  0
  190.6100  177.4010  142.0040 C   0  0  0  0  0  3  0  0  0  0  0  0
  188.2670  177.9820  141.8700 C   0  0  0  0  0  0  0  0  0  0  0  0
  189.2520  177.2770  145.4360 C   0  0  0  0  0  3  0  0  0  0  0  0
  184.1910  179.4910  144.7540 C   0  0  0  0  0  2  0  0  0  0  0  0
  190.5130  177.2630  143.3800 C   0  0  0  0  0  0  0  0  0  0  0  0
  191.6570  176.8930  144.0920 C   0  0  0  0  0  3  0  0  0  0  0  0
  187.1720  178.3290  141.0790 C   0  0  0  0  0  3  0  0  0  0  0  0
  185.7430  178.5000  143.0130 C   0  0  0  0  0  0  0  0  0  0  0  0
  184.3170  178.7020  143.4610 C   0  0  0  0  0  2  0  0  0  0  0  0
  190.6460  175.8260  139.3130 O   0  0  0  0  0  0  0  0  0  0  0  0
  190.1200  176.8890  138.8950 C   0  0  0  0  0  0  0  0  0  0  0  0
  189.6070  177.8710  139.8080 N   0  0  0  0  0  2  0  0  0  0  0  0
  189.4340  178.3630  137.1710 O   0  0  0  0  0  1  0  0  0  0  0  0
  190.0240  177.1230  137.4240 C   0  0  2  0  0  3  0  0  0  0  0  0
  187.0790  174.6600  136.7610 C   0  0  0  0  0  0  0  0  0  0  0  0
  189.7490  175.4160  135.7940 O   0  0  0  0  0  0  0  0  0  0  0  0
  187.4960  173.7510  135.6550 C   0  0  0  0  0  1  0  0  0  0  0  0
  185.9450  174.5020  137.2800 O   0  0  0  0  0  0  0  0  0  0  0  0
  189.2400  176.0350  136.7660 C   0  0  0  0  0  0  0  0  0  0  0  0
  187.9300  175.7050  137.2490 N   0  0  0  0  0  2  0  0  0  0  0  0
  1  9  1  0  0  0  0
  2  3  1  0  0  0  0
  2  5  1  0  0  0  0
  3  7  1  0  0  0  0
  4 11  1  0  0  0  0
  5 14  1  0  0  0  0
  6  1  1  0  0  0  0
  7  4  1  0  0  0  0
  8 13  1  0  0  0  0
  8 12  2  0  0  0  0
 10 19  1  0  0  0  0
 12 16  1  0  0  0  0
 13  2  2  0  0  0  0
 14  1  2  0  0  0  0
 15 11  1  0  0  0  0
 16  5  2  0  0  0  0
 16 17  1  0  0  0  0
 17  6  2  0  0  0  0
 18 10  2  0  0  0  0
 18 13  1  0  0  0  0
 19 20  1  0  0  0  0
 19  3  2  0  0  0  0
 20 15  1  0  0  0  0
 22 21  2  0  0  0  0
 22 23  1  0  0  0  0
 23  8  1  0  0  0  0
 25 24  1  1  0  0  0
 25 22  1  0  0  0  0
 26 31  1  0  0  0  0
 26 29  2  0  0  0  0
 27 30  2  0  0  0  0
 28 26  1  0  0  0  0
 30 31  1  0  0  0  0
 30 25  1  0  0  0  0
M  END
>  <MODEL>
7

>  <REMARK>
 VINA RESULT:     -10.6      2.311      4.639
  Name = 
  3 active torsions:
  status: ('A' for Active; 'I' for Inactive)
    1  A    between atoms: C_9  and  C_22
    2  A    between atoms: C_15  and  N_23
    3  A    between atoms: C_19  and  C_22
                            x       y       z     vdW  Elec       q    Type
                         _______ _______ _______ _____ _____    ______ ____

>  <TORSDO>
F 3

$$$$
=
 OpenBabel10272400203D

 31 34  0  0  1  0  0  0  0  0999 V2000
  189.9680  177.3970  147.3850 C   0  0  0  0  0  0  0  0  0  0  0  0
  188.1550  177.6530  144.0820 C   0  0  0  0  0  0  0  0  0  0  0  0
  189.1620  177.5670  143.0560 C   0  0  0  0  0  0  0  0  0  0  0  0
  191.6240  178.0400  142.6580 C   0  0  0  0  0  2  0  0  0  0  0  0
  188.4290  177.5800  145.4890 C   0  0  0  0  0  0  0  0  0  0  0  0
  188.9000  177.4350  148.2760 C   0  0  0  0  0  3  0  0  0  0  0  0
  190.5910  177.2150  143.4100 C   0  0  0  0  0  2  0  0  0  0  0  0
  185.7530  177.8840  144.6280 C   0  0  0  0  0  0  0  0  0  0  0  0
  191.2360  177.2890  147.8500 F   0  0  0  0  0  0  0  0  0  0  0  0
  187.4400  177.8700  141.3520 C   0  0  0  0  0  3  0  0  0  0  0  0
  192.0450  177.3260  141.3760 C   0  0  0  0  0  2  0  0  0  0  0  0
  186.0520  177.7870  145.9840 C   0  0  0  0  0  3  0  0  0  0  0  0
  186.7930  177.8230  143.6820 C   0  0  0  0  0  0  0  0  0  0  0  0
  189.7310  177.4690  146.0110 C   0  0  0  0  0  3  0  0  0  0  0  0
  190.8650  176.7270  140.6120 C   0  0  0  0  0  2  0  0  0  0  0  0
  187.3600  177.6370  146.4190 C   0  0  0  0  0  0  0  0  0  0  0  0
  187.5980  177.5580  147.7940 C   0  0  0  0  0  3  0  0  0  0  0  0
  186.4660  177.9300  142.3310 C   0  0  0  0  0  3  0  0  0  0  0  0
  188.7750  177.6800  141.6840 C   0  0  0  0  0  0  0  0  0  0  0  0
  189.7250  177.7280  140.5140 C   0  0  0  0  0  2  0  0  0  0  0  0
  184.2180  180.3970  144.3790 O   0  0  0  0  0  0  0  0  0  0  0  0
  183.6960  179.3080  144.0260 C   0  0  0  0  0  0  0  0  0  0  0  0
  184.3950  178.0650  144.1880 N   0  0  0  0  0  2  0  0  0  0  0  0
  181.5020  178.4140  144.0940 O   0  0  0  0  0  1  0  0  0  0  0  0
  182.3300  179.3180  143.4240 C   0  0  2  0  0  3  0  0  0  0  0  0
  183.7480  179.1090  139.8020 C   0  0  0  0  0  0  0  0  0  0  0  0
  181.4050  178.4120  141.4320 O   0  0  0  0  0  0  0  0  0  0  0  0
  182.6890  178.5080  138.9410 C   0  0  0  0  0  1  0  0  0  0  0  0
  184.8390  179.4450  139.2750 O   0  0  0  0  0  0  0  0  0  0  0  0
  182.3910  178.9820  141.9700 C   0  0  0  0  0  0  0  0  0  0  0  0
  183.5590  179.3170  141.2070 N   0  0  0  0  0  2  0  0  0  0  0  0
  1  9  1  0  0  0  0
  1  6  1  0  0  0  0
  2  5  1  0  0  0  0
  3  7  1  0  0  0  0
  3  2  1  0  0  0  0
  4  7  1  0  0  0  0
  5 14  1  0  0  0  0
  5 16  2  0  0  0  0
  8 12  2  0  0  0  0
 10 19  1  0  0  0  0
 10 18  2  0  0  0  0
 11  4  1  0  0  0  0
 12 16  1  0  0  0  0
 13  2  2  0  0  0  0
 13  8  1  0  0  0  0
 14  1  2  0  0  0  0
 15 11  1  0  0  0  0
 16 17  1  0  0  0  0
 17  6  2  0  0  0  0
 18 13  1  0  0  0  0
 19  3  2  0  0  0  0
 20 15  1  0  0  0  0
 20 19  1  0  0  0  0
 22 23  1  0  0  0  0
 22 21  2  0  0  0  0
 23  8  1  0  0  0  0
 25 22  1  0  0  0  0
 25 24  1  1  0  0  0
 26 31  1  0  0  0  0
 27 30  2  0  0  0  0
 28 26  1  0  0  0  0
 29 26  2  0  0  0  0
 30 25  1  0  0  0  0
 31 30  1  0  0  0  0
M  END
>  <MODEL>
8

>  <REMARK>
 VINA RESULT:     -10.5      3.664      6.853
  Name = 
  3 active torsions:
  status: ('A' for Active; 'I' for Inactive)
    1  A    between atoms: C_9  and  C_22
    2  A    between atoms: C_15  and  N_23
    3  A    between atoms: C_19  and  C_22
                            x       y       z     vdW  Elec       q    Type
                         _______ _______ _______ _____ _____    ______ ____

>  <TORSDO>
F 3

$$$$
=
 OpenBabel10272400203D

 31 34  0  0  1  0  0  0  0  0999 V2000
  190.7260  176.8360  144.6320 C   0  0  0  0  0  0  0  0  0  0  0  0
  187.6650  178.0100  142.7560 C   0  0  0  0  0  0  0  0  0  0  0  0
  186.6200  178.1630  143.7360 C   0  0  0  0  0  0  0  0  0  0  0  0
  185.8830  177.2750  145.9960 C   0  0  0  0  0  2  0  0  0  0  0  0
  189.0040  177.5920  143.0640 C   0  0  0  0  0  0  0  0  0  0  0  0
  191.6610  176.7800  143.6030 C   0  0  0  0  0  3  0  0  0  0  0  0
  186.9300  178.0510  145.2130 C   0  0  0  0  0  2  0  0  0  0  0  0
  188.3360  178.1890  140.3820 C   0  0  0  0  0  0  0  0  0  0  0  0
  191.0860  176.5020  145.8950 F   0  0  0  0  0  0  0  0  0  0  0  0
  185.0630  178.7930  141.9640 C   0  0  0  0  0  3  0  0  0  0  0  0
  184.8270  178.2220  146.5590 C   0  0  0  0  0  2  0  0  0  0  0  0
  189.6300  177.8020  140.7190 C   0  0  0  0  0  3  0  0  0  0  0  0
  187.3580  178.2880  141.3880 C   0  0  0  0  0  0  0  0  0  0  0  0
  189.4160  177.2360  144.3620 C   0  0  0  0  0  3  0  0  0  0  0  0
  184.3770  179.2790  145.5520 C   0  0  0  0  0  2  0  0  0  0  0  0
  189.9700  177.5070  142.0290 C   0  0  0  0  0  0  0  0  0  0  0  0
  191.2830  177.1130  142.3030 C   0  0  0  0  0  3  0  0  0  0  0  0
  186.0680  178.6700  141.0220 C   0  0  0  0  0  3  0  0  0  0  0  0
  185.3140  178.5600  143.3090 C   0  0  0  0  0  0  0  0  0  0  0  0
  184.0990  178.6460  144.1980 C   0  0  0  0  0  2  0  0  0  0  0  0
  188.3180  176.3440  138.0730 O   0  0  0  0  0  0  0  0  0  0  0  0
  187.9360  177.5340  137.9260 C   0  0  0  0  0  0  0  0  0  0  0  0
  187.9870  178.4670  139.0140 N   0  0  0  0  0  2  0  0  0  0  0  0
  187.2700  179.3590  136.5700 O   0  0  0  0  0  1  0  0  0  0  0  0
  187.4160  177.9710  136.5970 C   0  0  2  0  0  3  0  0  0  0  0  0
  183.6430  177.0630  136.9320 C   0  0  0  0  0  0  0  0  0  0  0  0
  186.0560  176.4570  135.3690 O   0  0  0  0  0  0  0  0  0  0  0  0
  183.3530  175.9850  135.9440 C   0  0  0  0  0  1  0  0  0  0  0  0
  182.7130  177.4720  137.6720 O   0  0  0  0  0  0  0  0  0  0  0  0
  186.1110  177.3090  136.2960 C   0  0  0  0  0  0  0  0  0  0  0  0
  184.9460  177.6440  137.0640 N   0  0  0  0  0  2  0  0  0  0  0  0
  1  9  1  0  0  0  0
  2  5  1  0  0  0  0
  2  3  1  0  0  0  0
  3  7  1  0  0  0  0
  4 11  1  0  0  0  0
  5 14  2  0  0  0  0
  6  1  2  0  0  0  0
  7  4  1  0  0  0  0
  8 12  2  0  0  0  0
  8 13  1  0  0  0  0
 10 19  1  0  0  0  0
 12 16  1  0  0  0  0
 13  2  2  0  0  0  0
 14  1  1  0  0  0  0
 15 11  1  0  0  0  0
 16 17  2  0  0  0  0
 16  5  1  0  0  0  0
 17  6  1  0  0  0  0
 18 13  1  0  0  0  0
 18 10  2  0  0  0  0
 19  3  2  0  0  0  0
 19 20  1  0  0  0  0
 20 15  1  0  0  0  0
 22 21  2  0  0  0  0
 22 23  1  0  0  0  0
 23  8  1  0  0  0  0
 25 24  1  1  0  0  0
 25 22  1  0  0  0  0
 26 31  1  0  0  0  0
 26 29  2  0  0  0  0
 27 30  2  0  0  0  0
 28 26  1  0  0  0  0
 30 25  1  0  0  0  0
 30 31  1  0  0  0  0
M  END
>  <MODEL>
9

>  <REMARK>
 VINA RESULT:     -10.3      2.905      5.245
  Name = 
  3 active torsions:
  status: ('A' for Active; 'I' for Inactive)
    1  A    between atoms: C_9  and  C_22
    2  A    between atoms: C_15  and  N_23
    3  A    between atoms: C_19  and  C_22
                            x       y       z     vdW  Elec       q    Type
                         _______ _______ _______ _____ _____    ______ ____

>  <TORSDO>
F 3

$$$$
