=
 OpenBabel10272415183D

 34 38  0  0  1  0  0  0  0  0999 V2000
  184.3620  178.6710  141.9770 C   0  0  0  0  0  0  0  0  0  0  0  0
  185.3340  178.0790  138.4740 C   0  0  0  0  0  3  0  0  0  0  0  0
  183.3760  178.7850  139.4040 N   0  0  0  0  0  2  0  0  0  0  0  0
  183.9890  178.7510  144.3990 C   0  0  0  0  0  0  0  0  0  0  0  0
  184.8400  178.6070  143.3010 C   0  0  0  0  0  3  0  0  0  0  0  0
  182.1210  179.0680  142.8810 C   0  0  0  0  0  0  0  0  0  0  0  0
  180.7230  179.3060  142.7320 N   0  0  0  0  0  1  0  0  0  0  0  0
  182.6350  178.9850  144.1750 C   0  0  0  0  0  3  0  0  0  0  0  0
  182.5220  179.0110  140.4310 C   0  0  0  0  0  0  0  0  0  0  0  0
  182.9790  178.9120  141.7600 C   0  0  0  0  0  0  0  0  0  0  0  0
  181.3220  179.2870  140.1660 O   0  0  0  0  0  0  0  0  0  0  0  0
  186.6710  177.4210  138.4400 C   0  0  0  0  0  2  0  0  0  0  0  0
  187.7550  178.3010  138.9530 C   0  0  0  0  0  0  0  0  0  0  0  0
  187.7150  178.7510  140.2050 C   0  0  0  0  0  3  0  0  0  0  0  0
  184.6910  178.4970  139.5700 C   0  0  0  0  0  0  0  0  0  0  0  0
  186.5780  178.6400  141.1360 C   0  0  0  0  0  3  0  0  0  0  0  0
  185.2530  178.5420  140.8790 C   0  0  0  0  0  0  0  0  0  0  0  0
  188.9510  178.5310  138.1180 C   0  0  0  0  0  0  0  0  0  0  0  0
  189.0140  179.5480  137.3770 O   0  0  0  0  0  0  0  0  0  0  0  0
  190.1050  177.5860  138.1330 C   0  0  0  0  0  1  0  0  0  0  0  0
  184.4450  178.6990  145.7270 O   0  0  0  0  0  0  0  0  0  0  0  0
  187.4330  178.1340  147.9010 C   0  0  0  0  0  3  0  0  0  0  0  0
  186.6560  177.8950  145.2200 C   0  0  0  0  0  3  0  0  0  0  0  0
  190.5590  176.8650  146.3810 C   0  0  0  0  0  0  0  0  0  0  0  0
  189.6460  177.3260  147.3350 C   0  0  0  0  0  3  0  0  0  0  0  0
  188.3460  177.6710  146.9530 C   0  0  0  0  0  0  0  0  0  0  0  0
  188.8690  177.0880  144.6500 C   0  0  0  0  0  3  0  0  0  0  0  0
  187.9540  177.5510  145.6010 C   0  0  0  0  0  0  0  0  0  0  0  0
  190.1670  176.7460  145.0390 C   0  0  0  0  0  3  0  0  0  0  0  0
  185.7340  178.3550  146.1690 C   0  0  0  0  0  0  0  0  0  0  0  0
  186.1350  178.4770  147.5090 C   0  0  0  0  0  3  0  0  0  0  0  0
  191.9400  176.4960  146.8060 C   0  0  2  0  0  3  0  0  0  0  0  0
  192.1140  175.1260  146.7340 F   0  0  0  0  0  0  0  0  0  0  0  0
  192.1720  176.9330  148.1110 O   0  0  0  0  0  1  0  0  0  0  0  0
  1  5  1  0  0  0  0
  2 15  2  0  0  0  0
  3 15  1  0  0  0  0
  3  9  1  0  0  0  0
  4 21  1  0  0  0  0
  5  4  2  0  0  0  0
  6  8  2  0  0  0  0
  7  6  1  0  0  0  0
  8  4  1  0  0  0  0
  9 10  1  0  0  0  0
 10  1  2  0  0  0  0
 10  6  1  0  0  0  0
 11  9  2  0  0  0  0
 12  2  1  0  0  0  0
 12 13  1  0  0  0  0
 13 14  2  0  0  0  0
 14 16  1  0  0  0  0
 15 17  1  0  0  0  0
 17 16  2  0  0  0  0
 17  1  1  0  0  0  0
 18 20  1  0  0  0  0
 18 13  1  0  0  0  0
 19 18  2  0  0  0  0
 21 30  1  0  0  0  0
 23 28  2  0  0  0  0
 23 30  1  0  0  0  0
 24 32  1  0  0  0  0
 24 25  2  0  0  0  0
 26 25  1  0  0  0  0
 26 22  2  0  0  0  0
 27 29  2  0  0  0  0
 27 28  1  0  0  0  0
 28 26  1  0  0  0  0
 29 24  1  0  0  0  0
 30 31  2  0  0  0  0
 31 22  1  0  0  0  0
 32 33  1  1  0  0  0
 32 34  1  0  0  0  0
M  END
>  <MODEL>
1

>  <REMARK>
 VINA RESULT:     -11.5      0.000      0.000
  Name = 
  4 active torsions:
  status: ('A' for Active; 'I' for Inactive)
    1  A    between atoms: C_3  and  C_25
    2  A    between atoms: C_7  and  C_11
    3  A    between atoms: C_8  and  O_18
    4  A    between atoms: O_18  and  C_30
                            x       y       z     vdW  Elec       q    Type
                         _______ _______ _______ _____ _____    ______ ____

>  <TORSDO>
F 4

$$$$
=
 OpenBabel10272415183D

 34 38  0  0  1  0  0  0  0  0999 V2000
  186.9780  178.1220  144.2140 C   0  0  0  0  0  0  0  0  0  0  0  0
  188.8490  177.6240  147.3470 C   0  0  0  0  0  3  0  0  0  0  0  0
  186.6230  177.9020  146.9400 N   0  0  0  0  0  2  0  0  0  0  0  0
  186.0850  178.6520  141.9930 C   0  0  0  0  0  0  0  0  0  0  0  0
  187.1370  178.2510  142.8200 C   0  0  0  0  0  3  0  0  0  0  0  0
  184.6360  178.7820  143.9370 C   0  0  0  0  0  0  0  0  0  0  0  0
  183.3350  179.0660  144.4460 N   0  0  0  0  0  1  0  0  0  0  0  0
  184.8410  178.9090  142.5630 C   0  0  0  0  0  3  0  0  0  0  0  0
  185.5500  178.2150  146.1750 C   0  0  0  0  0  0  0  0  0  0  0  0
  185.7030  178.3850  144.7840 C   0  0  0  0  0  0  0  0  0  0  0  0
  184.4340  178.3690  146.7370 O   0  0  0  0  0  0  0  0  0  0  0  0
  190.3100  177.7080  147.0650 C   0  0  0  0  0  2  0  0  0  0  0  0
  190.7900  176.6000  146.1990 C   0  0  0  0  0  0  0  0  0  0  0  0
  190.2950  176.4450  144.9740 C   0  0  0  0  0  3  0  0  0  0  0  0
  187.8670  177.6980  146.4410 C   0  0  0  0  0  0  0  0  0  0  0  0
  189.1330  177.1520  144.4070 C   0  0  0  0  0  3  0  0  0  0  0  0
  188.0580  177.6930  145.0290 C   0  0  0  0  0  0  0  0  0  0  0  0
  191.9340  175.7800  146.6470 C   0  0  0  0  0  0  0  0  0  0  0  0
  192.4560  174.9460  145.8610 O   0  0  0  0  0  0  0  0  0  0  0  0
  192.5020  175.9200  148.0200 C   0  0  0  0  0  1  0  0  0  0  0  0
  186.2190  178.7790  140.6000 O   0  0  0  0  0  0  0  0  0  0  0  0
  188.1840  177.5230  137.6790 C   0  0  0  0  0  3  0  0  0  0  0  0
  188.5080  178.0630  140.4090 C   0  0  0  0  0  3  0  0  0  0  0  0
  191.7300  176.5800  138.1590 C   0  0  0  0  0  0  0  0  0  0  0  0
  190.4940  176.8060  137.5430 C   0  0  0  0  0  3  0  0  0  0  0  0
  189.4190  177.2980  138.2890 C   0  0  0  0  0  0  0  0  0  0  0  0
  190.8190  177.3450  140.2770 C   0  0  0  0  0  3  0  0  0  0  0  0
  189.5830  177.5710  139.6650 C   0  0  0  0  0  0  0  0  0  0  0  0
  191.8900  176.8520  139.5260 C   0  0  0  0  0  3  0  0  0  0  0  0
  187.2680  178.2950  139.8010 C   0  0  0  0  0  0  0  0  0  0  0  0
  187.1150  178.0150  138.4330 C   0  0  0  0  0  3  0  0  0  0  0  0
  192.8680  176.0600  137.3480 C   0  0  2  0  0  3  0  0  0  0  0  0
  193.2700  174.8240  137.8200 F   0  0  0  0  0  0  0  0  0  0  0  0
  193.9390  176.9530  137.3980 O   0  0  0  0  0  1  0  0  0  0  0  0
  1 10  1  0  0  0  0
  1 17  1  0  0  0  0
  4  8  2  0  0  0  0
  4  5  1  0  0  0  0
  5  1  2  0  0  0  0
  6  7  1  0  0  0  0
  6 10  2  0  0  0  0
  8  6  1  0  0  0  0
  9 11  2  0  0  0  0
  9  3  1  0  0  0  0
 10  9  1  0  0  0  0
 12  2  1  0  0  0  0
 13 18  1  0  0  0  0
 13 12  1  0  0  0  0
 14 13  2  0  0  0  0
 15  3  1  0  0  0  0
 15  2  2  0  0  0  0
 16 14  1  0  0  0  0
 16 17  2  0  0  0  0
 17 15  1  0  0  0  0
 18 20  1  0  0  0  0
 19 18  2  0  0  0  0
 21  4  1  0  0  0  0
 22 26  2  0  0  0  0
 22 31  1  0  0  0  0
 24 29  1  0  0  0  0
 25 24  2  0  0  0  0
 25 26  1  0  0  0  0
 26 28  1  0  0  0  0
 28 27  1  0  0  0  0
 28 23  2  0  0  0  0
 29 27  2  0  0  0  0
 30 23  1  0  0  0  0
 30 21  1  0  0  0  0
 31 30  2  0  0  0  0
 32 34  1  1  0  0  0
 32 33  1  0  0  0  0
 32 24  1  0  0  0  0
M  END
>  <MODEL>
2

>  <REMARK>
 VINA RESULT:     -11.3      2.720      7.336
  Name = 
  4 active torsions:
  status: ('A' for Active; 'I' for Inactive)
    1  A    between atoms: C_3  and  C_25
    2  A    between atoms: C_7  and  C_11
    3  A    between atoms: C_8  and  O_18
    4  A    between atoms: O_18  and  C_30
                            x       y       z     vdW  Elec       q    Type
                         _______ _______ _______ _____ _____    ______ ____

>  <TORSDO>
F 4

$$$$
=
 OpenBabel10272415183D

 34 38  0  0  1  0  0  0  0  0999 V2000
  188.4280  177.6850  144.8330 C   0  0  0  0  0  0  0  0  0  0  0  0
  191.6390  177.1470  143.1100 C   0  0  0  0  0  3  0  0  0  0  0  0
  191.0110  176.8240  145.2770 N   0  0  0  0  0  2  0  0  0  0  0  0
  186.2380  178.3600  145.7010 C   0  0  0  0  0  0  0  0  0  0  0  0
  187.1090  178.1340  144.6320 C   0  0  0  0  0  3  0  0  0  0  0  0
  187.9790  177.6570  147.2400 C   0  0  0  0  0  0  0  0  0  0  0  0
  188.3630  177.4310  148.5950 N   0  0  0  0  0  1  0  0  0  0  0  0
  186.6830  178.1140  146.9970 C   0  0  0  0  0  3  0  0  0  0  0  0
  190.1830  176.9500  146.3420 C   0  0  0  0  0  0  0  0  0  0  0  0
  188.8720  177.4350  146.1600 C   0  0  0  0  0  0  0  0  0  0  0  0
  190.6200  176.6470  147.4830 O   0  0  0  0  0  0  0  0  0  0  0  0
  191.5600  177.7180  141.7360 C   0  0  0  0  0  2  0  0  0  0  0  0
  190.5840  177.0010  140.8730 C   0  0  0  0  0  0  0  0  0  0  0  0
  189.2980  176.9560  141.2130 C   0  0  0  0  0  3  0  0  0  0  0  0
  190.6430  177.1050  144.0030 C   0  0  0  0  0  0  0  0  0  0  0  0
  188.7200  177.3830  142.5000 C   0  0  0  0  0  3  0  0  0  0  0  0
  189.2870  177.4420  143.7280 C   0  0  0  0  0  0  0  0  0  0  0  0
  191.0240  176.4880  139.5600 C   0  0  0  0  0  0  0  0  0  0  0  0
  190.2630  175.7380  138.8920 O   0  0  0  0  0  0  0  0  0  0  0  0
  192.3570  176.8420  138.9930 C   0  0  0  0  0  1  0  0  0  0  0  0
  184.9150  178.8000  145.5230 O   0  0  0  0  0  0  0  0  0  0  0  0
  182.0820  178.8100  143.0860 C   0  0  0  0  0  3  0  0  0  0  0  0
  184.8840  178.8020  143.1180 C   0  0  0  0  0  3  0  0  0  0  0  0
  182.8200  178.7980  139.4590 C   0  0  0  0  0  0  0  0  0  0  0  0
  182.1060  178.8050  140.6620 C   0  0  0  0  0  3  0  0  0  0  0  0
  182.7890  178.8050  141.8830 C   0  0  0  0  0  0  0  0  0  0  0  0
  184.9110  178.7960  140.6950 C   0  0  0  0  0  3  0  0  0  0  0  0
  184.2020  178.8020  141.8980 C   0  0  0  0  0  0  0  0  0  0  0  0
  184.2220  178.7950  139.4780 C   0  0  0  0  0  3  0  0  0  0  0  0
  184.1780  178.8130  144.3270 C   0  0  0  0  0  0  0  0  0  0  0  0
  182.7730  178.8100  144.3000 C   0  0  0  0  0  3  0  0  0  0  0  0
  182.0760  178.8040  138.1660 C   0  0  2  0  0  3  0  0  0  0  0  0
  182.8710  178.3010  137.1530 F   0  0  0  0  0  0  0  0  0  0  0  0
  181.6750  180.1020  137.8510 O   0  0  0  0  0  1  0  0  0  0  0  0
  1 10  1  0  0  0  0
  2 15  2  0  0  0  0
  3  9  1  0  0  0  0
  4  8  2  0  0  0  0
  5  1  2  0  0  0  0
  5  4  1  0  0  0  0
  6  7  1  0  0  0  0
  8  6  1  0  0  0  0
  9 11  2  0  0  0  0
 10  9  1  0  0  0  0
 10  6  2  0  0  0  0
 12  2  1  0  0  0  0
 13 14  2  0  0  0  0
 13 12  1  0  0  0  0
 14 16  1  0  0  0  0
 15  3  1  0  0  0  0
 16 17  2  0  0  0  0
 17 15  1  0  0  0  0
 17  1  1  0  0  0  0
 18 13  1  0  0  0  0
 19 18  2  0  0  0  0
 20 18  1  0  0  0  0
 21  4  1  0  0  0  0
 22 31  1  0  0  0  0
 23 30  1  0  0  0  0
 24 29  1  0  0  0  0
 24 25  2  0  0  0  0
 25 26  1  0  0  0  0
 26 28  1  0  0  0  0
 26 22  2  0  0  0  0
 27 28  1  0  0  0  0
 28 23  2  0  0  0  0
 29 27  2  0  0  0  0
 30 21  1  0  0  0  0
 31 30  2  0  0  0  0
 32 33  1  6  0  0  0
 32 24  1  0  0  0  0
 34 32  1  0  0  0  0
M  END
>  <MODEL>
3

>  <REMARK>
 VINA RESULT:     -11.2      3.725      7.559
  Name = 
  4 active torsions:
  status: ('A' for Active; 'I' for Inactive)
    1  A    between atoms: C_3  and  C_25
    2  A    between atoms: C_7  and  C_11
    3  A    between atoms: C_8  and  O_18
    4  A    between atoms: O_18  and  C_30
                            x       y       z     vdW  Elec       q    Type
                         _______ _______ _______ _____ _____    ______ ____

>  <TORSDO>
F 4

$$$$
=
 OpenBabel10272415183D

 34 38  0  0  1  0  0  0  0  0999 V2000
  183.3400  178.6150  141.4730 C   0  0  0  0  0  0  0  0  0  0  0  0
  183.4300  177.8350  137.8740 C   0  0  0  0  0  3  0  0  0  0  0  0
  181.7780  178.6780  139.2000 N   0  0  0  0  0  2  0  0  0  0  0  0
  183.5540  178.8090  143.9070 C   0  0  0  0  0  0  0  0  0  0  0  0
  184.1150  178.5780  142.6480 C   0  0  0  0  0  3  0  0  0  0  0  0
  181.3950  179.1630  142.8550 C   0  0  0  0  0  0  0  0  0  0  0  0
  180.0120  179.4690  143.0270 N   0  0  0  0  0  1  0  0  0  0  0  0
  182.1960  179.1050  143.9950 C   0  0  0  0  0  3  0  0  0  0  0  0
  181.2020  178.9900  140.3860 C   0  0  0  0  0  0  0  0  0  0  0  0
  181.9560  178.9190  141.5740 C   0  0  0  0  0  0  0  0  0  0  0  0
  179.9860  179.3170  140.3960 O   0  0  0  0  0  0  0  0  0  0  0  0
  184.6920  177.1070  137.5600 C   0  0  0  0  0  2  0  0  0  0  0  0
  185.9020  177.9480  137.7590 C   0  0  0  0  0  0  0  0  0  0  0  0
  186.1780  178.4490  138.9610 C   0  0  0  0  0  3  0  0  0  0  0  0
  183.0820  178.3290  139.0680 C   0  0  0  0  0  0  0  0  0  0  0  0
  185.2910  178.4350  140.1380 C   0  0  0  0  0  3  0  0  0  0  0  0
  183.9390  178.3960  140.2040 C   0  0  0  0  0  0  0  0  0  0  0  0
  186.8740  178.0830  136.6560 C   0  0  0  0  0  0  0  0  0  0  0  0
  186.5030  177.9070  135.4650 O   0  0  0  0  0  0  0  0  0  0  0  0
  188.3010  178.4330  136.9150 C   0  0  0  0  0  1  0  0  0  0  0  0
  184.3100  178.7860  145.0910 O   0  0  0  0  0  0  0  0  0  0  0  0
  187.6590  177.2730  144.4100 C   0  0  0  0  0  3  0  0  0  0  0  0
  186.2120  178.4190  146.5180 C   0  0  0  0  0  3  0  0  0  0  0  0
  190.1230  177.0290  147.1600 C   0  0  0  0  0  0  0  0  0  0  0  0
  189.5440  176.9210  145.8910 C   0  0  0  0  0  3  0  0  0  0  0  0
  188.2420  177.3810  145.6730 C   0  0  0  0  0  0  0  0  0  0  0  0
  188.0950  178.0670  148.0020 C   0  0  0  0  0  3  0  0  0  0  0  0
  187.5130  177.9600  146.7360 C   0  0  0  0  0  0  0  0  0  0  0  0
  189.3970  177.6040  148.2130 C   0  0  0  0  0  3  0  0  0  0  0  0
  185.6250  178.3180  145.2500 C   0  0  0  0  0  0  0  0  0  0  0  0
  186.3570  177.7360  144.2020 C   0  0  0  0  0  3  0  0  0  0  0  0
  191.5150  176.5390  147.3740 C   0  0  2  0  0  3  0  0  0  0  0  0
  191.5080  175.1880  147.6710 F   0  0  0  0  0  0  0  0  0  0  0  0
  192.1180  177.2470  148.4150 O   0  0  0  0  0  1  0  0  0  0  0  0
  1 10  2  0  0  0  0
  1  5  1  0  0  0  0
  2 15  2  0  0  0  0
  3  9  1  0  0  0  0
  4  8  1  0  0  0  0
  4 21  1  0  0  0  0
  5  4  2  0  0  0  0
  6  7  1  0  0  0  0
  6  8  2  0  0  0  0
  9 11  2  0  0  0  0
  9 10  1  0  0  0  0
 10  6  1  0  0  0  0
 12 13  1  0  0  0  0
 12  2  1  0  0  0  0
 13 14  2  0  0  0  0
 14 16  1  0  0  0  0
 15  3  1  0  0  0  0
 15 17  1  0  0  0  0
 16 17  2  0  0  0  0
 17  1  1  0  0  0  0
 18 20  1  0  0  0  0
 18 13  1  0  0  0  0
 19 18  2  0  0  0  0
 21 30  1  0  0  0  0
 22 26  1  0  0  0  0
 23 28  1  0  0  0  0
 24 32  1  0  0  0  0
 24 29  1  0  0  0  0
 25 24  2  0  0  0  0
 26 25  1  0  0  0  0
 26 28  2  0  0  0  0
 27 29  2  0  0  0  0
 28 27  1  0  0  0  0
 30 23  2  0  0  0  0
 31 22  2  0  0  0  0
 31 30  1  0  0  0  0
 32 33  1  1  0  0  0
 32 34  1  0  0  0  0
M  END
>  <MODEL>
4

>  <REMARK>
 VINA RESULT:     -11.1      1.242      1.896
  Name = 
  4 active torsions:
  status: ('A' for Active; 'I' for Inactive)
    1  A    between atoms: C_3  and  C_25
    2  A    between atoms: C_7  and  C_11
    3  A    between atoms: C_8  and  O_18
    4  A    between atoms: O_18  and  C_30
                            x       y       z     vdW  Elec       q    Type
                         _______ _______ _______ _____ _____    ______ ____

>  <TORSDO>
F 4

$$$$
=
 OpenBabel10272415183D

 34 38  0  0  1  0  0  0  0  0999 V2000
  187.2570  178.0820  140.8560 C   0  0  0  0  0  0  0  0  0  0  0  0
  189.2110  177.1130  137.8880 C   0  0  0  0  0  3  0  0  0  0  0  0
  187.2440  178.2460  138.1030 N   0  0  0  0  0  2  0  0  0  0  0  0
  186.1140  178.3700  143.0050 C   0  0  0  0  0  0  0  0  0  0  0  0
  187.2370  177.9980  142.2620 C   0  0  0  0  0  3  0  0  0  0  0  0
  184.9760  178.9680  140.9450 C   0  0  0  0  0  0  0  0  0  0  0  0
  183.7920  179.4720  140.3310 N   0  0  0  0  0  1  0  0  0  0  0  0
  184.9940  178.8570  142.3360 C   0  0  0  0  0  3  0  0  0  0  0  0
  186.1600  178.6960  138.7800 C   0  0  0  0  0  0  0  0  0  0  0  0
  186.1100  178.5820  140.1830 C   0  0  0  0  0  0  0  0  0  0  0  0
  185.2040  179.1900  138.1250 O   0  0  0  0  0  0  0  0  0  0  0  0
  190.3140  176.2010  138.3020 C   0  0  0  0  0  2  0  0  0  0  0  0
  191.3170  176.8740  139.1680 C   0  0  0  0  0  0  0  0  0  0  0  0
  190.9520  177.3920  140.3380 C   0  0  0  0  0  3  0  0  0  0  0  0
  188.3360  177.7120  138.7040 C   0  0  0  0  0  0  0  0  0  0  0  0
  189.5710  177.5630  140.8230 C   0  0  0  0  0  3  0  0  0  0  0  0
  188.4200  177.7170  140.1260 C   0  0  0  0  0  0  0  0  0  0  0  0
  192.7450  176.8140  138.7960 C   0  0  0  0  0  0  0  0  0  0  0  0
  193.6270  177.1600  139.6270 O   0  0  0  0  0  0  0  0  0  0  0  0
  193.1800  176.3410  137.4490 C   0  0  0  0  0  1  0  0  0  0  0  0
  186.0740  178.3030  144.4080 O   0  0  0  0  0  0  0  0  0  0  0  0
  188.0460  177.5200  147.4850 C   0  0  0  0  0  3  0  0  0  0  0  0
  188.3410  177.5510  144.6990 C   0  0  0  0  0  3  0  0  0  0  0  0
  191.5580  176.4050  147.1450 C   0  0  0  0  0  0  0  0  0  0  0  0
  190.3370  176.7700  147.7230 C   0  0  0  0  0  3  0  0  0  0  0  0
  189.2640  177.1530  146.9130 C   0  0  0  0  0  0  0  0  0  0  0  0
  190.6330  176.8020  144.9340 C   0  0  0  0  0  3  0  0  0  0  0  0
  189.4130  177.1680  145.5080 C   0  0  0  0  0  0  0  0  0  0  0  0
  191.7030  176.4200  145.7500 C   0  0  0  0  0  3  0  0  0  0  0  0
  187.1140  177.9140  145.2690 C   0  0  0  0  0  0  0  0  0  0  0  0
  186.9790  177.9010  146.6670 C   0  0  0  0  0  3  0  0  0  0  0  0
  192.6910  175.9930  148.0230 C   0  0  2  0  0  3  0  0  0  0  0  0
  192.3810  174.8210  148.6880 F   0  0  0  0  0  0  0  0  0  0  0  0
  192.9700  177.0000  148.9490 O   0  0  0  0  0  1  0  0  0  0  0  0
  1  5  1  0  0  0  0
  2 12  1  0  0  0  0
  2 15  2  0  0  0  0
  3 15  1  0  0  0  0
  3  9  1  0  0  0  0
  4 21  1  0  0  0  0
  5  4  2  0  0  0  0
  6  8  2  0  0  0  0
  7  6  1  0  0  0  0
  8  4  1  0  0  0  0
  9 10  1  0  0  0  0
 10  1  2  0  0  0  0
 10  6  1  0  0  0  0
 11  9  2  0  0  0  0
 12 13  1  0  0  0  0
 13 14  2  0  0  0  0
 14 16  1  0  0  0  0
 15 17  1  0  0  0  0
 17 16  2  0  0  0  0
 17  1  1  0  0  0  0
 18 13  1  0  0  0  0
 18 19  2  0  0  0  0
 20 18  1  0  0  0  0
 21 30  1  0  0  0  0
 23 30  2  0  0  0  0
 23 28  1  0  0  0  0
 24 25  1  0  0  0  0
 24 32  1  0  0  0  0
 26 22  1  0  0  0  0
 26 25  2  0  0  0  0
 27 28  2  0  0  0  0
 27 29  1  0  0  0  0
 28 26  1  0  0  0  0
 29 24  2  0  0  0  0
 30 31  1  0  0  0  0
 31 22  2  0  0  0  0
 32 33  1  1  0  0  0
 32 34  1  0  0  0  0
M  END
>  <MODEL>
5

>  <REMARK>
 VINA RESULT:     -11.1      1.965      3.037
  Name = 
  4 active torsions:
  status: ('A' for Active; 'I' for Inactive)
    1  A    between atoms: C_3  and  C_25
    2  A    between atoms: C_7  and  C_11
    3  A    between atoms: C_8  and  O_18
    4  A    between atoms: O_18  and  C_30
                            x       y       z     vdW  Elec       q    Type
                         _______ _______ _______ _____ _____    ______ ____

>  <TORSDO>
F 4

$$$$
=
 OpenBabel10272415183D

 34 38  0  0  1  0  0  0  0  0999 V2000
  185.0150  178.6120  142.8580 C   0  0  0  0  0  0  0  0  0  0  0  0
  185.0680  178.7990  146.5370 C   0  0  0  0  0  3  0  0  0  0  0  0
  183.3430  178.6880  145.0510 N   0  0  0  0  0  2  0  0  0  0  0  0
  185.3380  178.7180  140.4310 C   0  0  0  0  0  0  0  0  0  0  0  0
  185.8490  178.5860  141.7240 C   0  0  0  0  0  3  0  0  0  0  0  0
  183.0990  178.8750  141.3560 C   0  0  0  0  0  0  0  0  0  0  0  0
  181.7030  179.0240  141.1030 N   0  0  0  0  0  1  0  0  0  0  0  0
  183.9630  178.8560  140.2610 C   0  0  0  0  0  3  0  0  0  0  0  0
  182.7880  178.7380  143.8160 C   0  0  0  0  0  0  0  0  0  0  0  0
  183.6130  178.7520  142.6740 C   0  0  0  0  0  0  0  0  0  0  0  0
  181.5330  178.7940  143.7220 O   0  0  0  0  0  0  0  0  0  0  0  0
  186.4610  179.0630  146.9950 C   0  0  0  0  0  2  0  0  0  0  0  0
  187.3850  177.9380  146.6950 C   0  0  0  0  0  0  0  0  0  0  0  0
  187.5900  177.5570  145.4360 C   0  0  0  0  0  3  0  0  0  0  0  0
  184.6790  178.6100  145.2710 C   0  0  0  0  0  0  0  0  0  0  0  0
  186.8320  178.0060  144.2550 C   0  0  0  0  0  3  0  0  0  0  0  0
  185.5590  178.4550  144.1610 C   0  0  0  0  0  0  0  0  0  0  0  0
  188.1950  177.3610  147.7870 C   0  0  0  0  0  0  0  0  0  0  0  0
  187.7840  177.4260  148.9760 O   0  0  0  0  0  0  0  0  0  0  0  0
  189.4990  176.6870  147.5180 C   0  0  0  0  0  1  0  0  0  0  0  0
  186.1510  178.6860  139.2850 O   0  0  0  0  0  0  0  0  0  0  0  0
  189.6640  177.6950  140.0860 C   0  0  0  0  0  3  0  0  0  0  0  0
  187.8420  177.6050  137.9590 C   0  0  0  0  0  3  0  0  0  0  0  0
  191.7140  176.0480  137.4820 C   0  0  0  0  0  0  0  0  0  0  0  0
  191.3340  176.6100  138.7050 C   0  0  0  0  0  3  0  0  0  0  0  0
  190.0470  177.1310  138.8680 C   0  0  0  0  0  0  0  0  0  0  0  0
  189.5110  176.5210  136.5760 C   0  0  0  0  0  3  0  0  0  0  0  0
  189.1280  177.0850  137.7960 C   0  0  0  0  0  0  0  0  0  0  0  0
  190.8000  176.0030  136.4190 C   0  0  0  0  0  3  0  0  0  0  0  0
  187.4520  178.1670  139.1810 C   0  0  0  0  0  0  0  0  0  0  0  0
  188.3750  178.2130  140.2390 C   0  0  0  0  0  3  0  0  0  0  0  0
  193.0890  175.4920  137.3270 C   0  0  2  0  0  3  0  0  0  0  0  0
  193.1000  174.1440  137.6370 F   0  0  0  0  0  0  0  0  0  0  0  0
  193.9780  176.1740  138.1590 O   0  0  0  0  0  1  0  0  0  0  0  0
  1 17  1  0  0  0  0
  2 12  1  0  0  0  0
  3 15  1  0  0  0  0
  4  5  1  0  0  0  0
  5  1  2  0  0  0  0
  6 10  2  0  0  0  0
  7  6  1  0  0  0  0
  8  4  2  0  0  0  0
  8  6  1  0  0  0  0
  9  3  1  0  0  0  0
 10  1  1  0  0  0  0
 10  9  1  0  0  0  0
 11  9  2  0  0  0  0
 13 12  1  0  0  0  0
 13 18  1  0  0  0  0
 14 13  2  0  0  0  0
 15  2  2  0  0  0  0
 16 14  1  0  0  0  0
 17 16  2  0  0  0  0
 17 15  1  0  0  0  0
 18 19  2  0  0  0  0
 20 18  1  0  0  0  0
 21  4  1  0  0  0  0
 22 31  1  0  0  0  0
 23 30  1  0  0  0  0
 24 25  2  0  0  0  0
 25 26  1  0  0  0  0
 26 22  2  0  0  0  0
 27 28  1  0  0  0  0
 28 23  2  0  0  0  0
 28 26  1  0  0  0  0
 29 27  2  0  0  0  0
 29 24  1  0  0  0  0
 30 21  1  0  0  0  0
 30 31  2  0  0  0  0
 32 24  1  0  0  0  0
 32 33  1  1  0  0  0
 32 34  1  0  0  0  0
M  END
>  <MODEL>
6

>  <REMARK>
 VINA RESULT:     -11.0      2.628      7.069
  Name = 
  4 active torsions:
  status: ('A' for Active; 'I' for Inactive)
    1  A    between atoms: C_3  and  C_25
    2  A    between atoms: C_7  and  C_11
    3  A    between atoms: C_8  and  O_18
    4  A    between atoms: O_18  and  C_30
                            x       y       z     vdW  Elec       q    Type
                         _______ _______ _______ _____ _____    ______ ____

>  <TORSDO>
F 4

$$$$
=
 OpenBabel10272415183D

 34 38  0  0  1  0  0  0  0  0999 V2000
  189.0110  176.7000  137.7360 C   0  0  0  0  0  0  0  0  0  0  0  0
  191.3890  174.4040  136.1120 C   0  0  0  0  0  3  0  0  0  0  0  0
  189.4570  175.3580  135.3680 N   0  0  0  0  0  2  0  0  0  0  0  0
  187.5400  178.0300  139.1770 C   0  0  0  0  0  0  0  0  0  0  0  0
  188.7560  177.3840  138.9400 C   0  0  0  0  0  3  0  0  0  0  0  0
  186.7800  177.3600  136.9700 C   0  0  0  0  0  0  0  0  0  0  0  0
  185.7320  177.3850  136.0040 N   0  0  0  0  0  1  0  0  0  0  0  0
  186.5650  178.0150  138.1830 C   0  0  0  0  0  3  0  0  0  0  0  0
  188.2930  176.0370  135.5140 C   0  0  0  0  0  0  0  0  0  0  0  0
  188.0090  176.6920  136.7280 C   0  0  0  0  0  0  0  0  0  0  0  0
  187.4770  176.0440  134.5540 O   0  0  0  0  0  0  0  0  0  0  0  0
  192.3750  173.9230  137.1210 C   0  0  0  0  0  2  0  0  0  0  0  0
  193.2460  175.0130  137.6330 C   0  0  0  0  0  0  0  0  0  0  0  0
  192.7120  176.0570  138.2630 C   0  0  0  0  0  3  0  0  0  0  0  0
  190.4140  175.2950  136.3260 C   0  0  0  0  0  0  0  0  0  0  0  0
  191.2770  176.3810  138.3540 C   0  0  0  0  0  3  0  0  0  0  0  0
  190.2630  176.0690  137.5130 C   0  0  0  0  0  0  0  0  0  0  0  0
  194.7130  174.8460  137.5840 C   0  0  0  0  0  0  0  0  0  0  0  0
  195.3900  175.4860  136.7350 O   0  0  0  0  0  0  0  0  0  0  0  0
  195.4250  173.9360  138.5270 C   0  0  0  0  0  1  0  0  0  0  0  0
  187.2680  178.7250  140.3670 O   0  0  0  0  0  0  0  0  0  0  0  0
  187.0040  177.5670  143.9110 C   0  0  0  0  0  3  0  0  0  0  0  0
  188.9450  178.3560  142.0520 C   0  0  0  0  0  3  0  0  0  0  0  0
  190.0820  177.2430  145.9390 C   0  0  0  0  0  0  0  0  0  0  0  0
  188.7320  177.2170  145.5730 C   0  0  0  0  0  3  0  0  0  0  0  0
  188.3490  177.5880  144.2800 C   0  0  0  0  0  0  0  0  0  0  0  0
  190.6760  178.0090  143.7120 C   0  0  0  0  0  3  0  0  0  0  0  0
  189.3290  177.9860  143.3430 C   0  0  0  0  0  0  0  0  0  0  0  0
  191.0520  177.6380  145.0060 C   0  0  0  0  0  3  0  0  0  0  0  0
  187.5970  178.3300  141.6750 C   0  0  0  0  0  0  0  0  0  0  0  0
  186.6310  177.9390  142.6170 C   0  0  0  0  0  3  0  0  0  0  0  0
  190.4750  176.8380  147.3200 C   0  0  2  0  0  3  0  0  0  0  0  0
  189.8910  177.6780  148.2500 F   0  0  0  0  0  0  0  0  0  0  0  0
  191.8630  176.8780  147.4540 O   0  0  0  0  0  1  0  0  0  0  0  0
  1  5  1  0  0  0  0
  2 15  2  0  0  0  0
  2 12  1  0  0  0  0
  3  9  1  0  0  0  0
  3 15  1  0  0  0  0
  4 21  1  0  0  0  0
  5  4  2  0  0  0  0
  6  8  2  0  0  0  0
  7  6  1  0  0  0  0
  8  4  1  0  0  0  0
  9 10  1  0  0  0  0
 10  6  1  0  0  0  0
 10  1  2  0  0  0  0
 11  9  2  0  0  0  0
 12 13  1  0  0  0  0
 13 14  2  0  0  0  0
 14 16  1  0  0  0  0
 15 17  1  0  0  0  0
 17  1  1  0  0  0  0
 17 16  2  0  0  0  0
 18 13  1  0  0  0  0
 18 20  1  0  0  0  0
 19 18  2  0  0  0  0
 21 30  1  0  0  0  0
 22 26  1  0  0  0  0
 23 28  1  0  0  0  0
 24 32  1  0  0  0  0
 25 24  1  0  0  0  0
 26 25  2  0  0  0  0
 27 29  1  0  0  0  0
 28 27  2  0  0  0  0
 28 26  1  0  0  0  0
 29 24  2  0  0  0  0
 30 23  2  0  0  0  0
 30 31  1  0  0  0  0
 31 22  2  0  0  0  0
 32 34  1  6  0  0  0
 32 33  1  0  0  0  0
M  END
>  <MODEL>
7

>  <REMARK>
 VINA RESULT:     -10.3      3.361      5.915
  Name = 
  4 active torsions:
  status: ('A' for Active; 'I' for Inactive)
    1  A    between atoms: C_3  and  C_25
    2  A    between atoms: C_7  and  C_11
    3  A    between atoms: C_8  and  O_18
    4  A    between atoms: O_18  and  C_30
                            x       y       z     vdW  Elec       q    Type
                         _______ _______ _______ _____ _____    ______ ____

>  <TORSDO>
F 4

$$$$
=
 OpenBabel10272415183D

 34 38  0  0  1  0  0  0  0  0999 V2000
  185.9720  178.0850  144.1140 C   0  0  0  0  0  0  0  0  0  0  0  0
  182.3580  178.7890  144.0040 C   0  0  0  0  0  3  0  0  0  0  0  0
  183.8980  179.0290  145.6680 N   0  0  0  0  0  2  0  0  0  0  0  0
  188.2870  177.3050  143.9110 C   0  0  0  0  0  0  0  0  0  0  0  0
  187.0430  177.5920  143.3440 C   0  0  0  0  0  3  0  0  0  0  0  0
  187.4450  178.0310  146.0690 C   0  0  0  0  0  0  0  0  0  0  0  0
  187.7140  178.2340  147.4550 N   0  0  0  0  0  1  0  0  0  0  0  0
  188.4760  177.5330  145.2720 C   0  0  0  0  0  3  0  0  0  0  0  0
  185.1060  178.8440  146.2510 C   0  0  0  0  0  0  0  0  0  0  0  0
  186.1760  178.3150  145.5010 C   0  0  0  0  0  0  0  0  0  0  0  0
  185.2360  179.1320  147.4700 O   0  0  0  0  0  0  0  0  0  0  0  0
  181.7920  178.2520  142.7340 C   0  0  0  0  0  2  0  0  0  0  0  0
  182.3150  178.9550  141.5330 C   0  0  0  0  0  0  0  0  0  0  0  0
  183.6190  178.9430  141.2650 C   0  0  0  0  0  3  0  0  0  0  0  0
  183.6480  178.7690  144.3610 C   0  0  0  0  0  0  0  0  0  0  0  0
  184.6880  178.4600  142.1570 C   0  0  0  0  0  3  0  0  0  0  0  0
  184.7240  178.3890  143.5080 C   0  0  0  0  0  0  0  0  0  0  0  0
  181.3610  179.5200  140.5570 C   0  0  0  0  0  0  0  0  0  0  0  0
  181.6150  179.4610  139.3240 O   0  0  0  0  0  0  0  0  0  0  0  0
  180.0860  180.1580  140.9950 C   0  0  0  0  0  1  0  0  0  0  0  0
  189.3710  176.8210  143.1600 O   0  0  0  0  0  0  0  0  0  0  0  0
  190.9040  176.7150  139.7530 C   0  0  0  0  0  3  0  0  0  0  0  0
  188.4950  177.4160  141.0000 C   0  0  0  0  0  3  0  0  0  0  0  0
  188.9090  177.8230  136.8400 C   0  0  0  0  0  0  0  0  0  0  0  0
  189.9750  177.3350  137.6020 C   0  0  0  0  0  3  0  0  0  0  0  0
  189.8420  177.1990  138.9880 C   0  0  0  0  0  0  0  0  0  0  0  0
  187.5640  178.0390  138.8510 C   0  0  0  0  0  3  0  0  0  0  0  0
  188.6270  177.5530  139.6160 C   0  0  0  0  0  0  0  0  0  0  0  0
  187.7040  178.1730  137.4660 C   0  0  0  0  0  3  0  0  0  0  0  0
  189.5560  176.9250  141.7710 C   0  0  0  0  0  0  0  0  0  0  0  0
  190.7620  176.5820  141.1370 C   0  0  0  0  0  3  0  0  0  0  0  0
  189.0650  177.9570  135.3620 C   0  0  2  0  0  3  0  0  0  0  0  0
  187.8260  178.0080  134.7510 F   0  0  0  0  0  0  0  0  0  0  0  0
  189.7940  176.8790  134.8590 O   0  0  0  0  0  1  0  0  0  0  0  0
  1 10  1  0  0  0  0
  2 15  2  0  0  0  0
  3  9  1  0  0  0  0
  4  8  2  0  0  0  0
  5  4  1  0  0  0  0
  5  1  2  0  0  0  0
  6  7  1  0  0  0  0
  8  6  1  0  0  0  0
  9 11  2  0  0  0  0
 10  6  2  0  0  0  0
 10  9  1  0  0  0  0
 12  2  1  0  0  0  0
 13 12  1  0  0  0  0
 14 13  2  0  0  0  0
 14 16  1  0  0  0  0
 15  3  1  0  0  0  0
 16 17  2  0  0  0  0
 17  1  1  0  0  0  0
 17 15  1  0  0  0  0
 18 20  1  0  0  0  0
 18 13  1  0  0  0  0
 19 18  2  0  0  0  0
 21  4  1  0  0  0  0
 22 31  1  0  0  0  0
 23 30  1  0  0  0  0
 24 29  1  0  0  0  0
 24 25  2  0  0  0  0
 25 26  1  0  0  0  0
 26 28  1  0  0  0  0
 26 22  2  0  0  0  0
 27 28  1  0  0  0  0
 28 23  2  0  0  0  0
 29 27  2  0  0  0  0
 30 21  1  0  0  0  0
 31 30  2  0  0  0  0
 32 33  1  6  0  0  0
 32 24  1  0  0  0  0
 34 32  1  0  0  0  0
M  END
>  <MODEL>
8

>  <REMARK>
 VINA RESULT:     -10.2      3.319      7.461
  Name = 
  4 active torsions:
  status: ('A' for Active; 'I' for Inactive)
    1  A    between atoms: C_3  and  C_25
    2  A    between atoms: C_7  and  C_11
    3  A    between atoms: C_8  and  O_18
    4  A    between atoms: O_18  and  C_30
                            x       y       z     vdW  Elec       q    Type
                         _______ _______ _______ _____ _____    ______ ____

>  <TORSDO>
F 4

$$$$
=
 OpenBabel10272415183D

 34 38  0  0  1  0  0  0  0  0999 V2000
  187.7130  177.9380  143.8160 C   0  0  0  0  0  0  0  0  0  0  0  0
  189.0080  177.3510  147.2140 C   0  0  0  0  0  3  0  0  0  0  0  0
  186.8830  177.5810  146.4220 N   0  0  0  0  0  2  0  0  0  0  0  0
  187.2150  178.5430  141.4940 C   0  0  0  0  0  0  0  0  0  0  0  0
  188.1150  178.1360  142.4810 C   0  0  0  0  0  3  0  0  0  0  0  0
  185.4360  178.5400  143.1460 C   0  0  0  0  0  0  0  0  0  0  0  0
  184.0550  178.7610  143.4230 N   0  0  0  0  0  1  0  0  0  0  0  0
  185.8790  178.7360  141.8380 C   0  0  0  0  0  3  0  0  0  0  0  0
  185.9540  177.8970  145.4880 C   0  0  0  0  0  0  0  0  0  0  0  0
  186.3480  178.1360  144.1570 C   0  0  0  0  0  0  0  0  0  0  0  0
  184.7500  177.9920  145.8450 O   0  0  0  0  0  0  0  0  0  0  0  0
  190.4910  177.4920  147.2060 C   0  0  0  0  0  2  0  0  0  0  0  0
  191.1610  176.4390  146.3970 C   0  0  0  0  0  0  0  0  0  0  0  0
  190.9000  176.3260  145.0970 C   0  0  0  0  0  3  0  0  0  0  0  0
  188.2030  177.4370  146.1490 C   0  0  0  0  0  0  0  0  0  0  0  0
  189.8330  177.0240  144.3580 C   0  0  0  0  0  3  0  0  0  0  0  0
  188.6450  177.5040  144.7960 C   0  0  0  0  0  0  0  0  0  0  0  0
  192.2360  175.6340  147.0120 C   0  0  0  0  0  0  0  0  0  0  0  0
  192.7470  174.6760  146.3740 O   0  0  0  0  0  0  0  0  0  0  0  0
  192.7460  175.9320  148.3820 C   0  0  0  0  0  1  0  0  0  0  0  0
  187.5920  178.7380  140.1540 O   0  0  0  0  0  0  0  0  0  0  0  0
  188.0870  176.1390  137.5150 C   0  0  0  0  0  3  0  0  0  0  0  0
  189.5630  177.5700  139.4180 C   0  0  0  0  0  3  0  0  0  0  0  0
  191.4760  174.7660  136.9450 C   0  0  0  0  0  0  0  0  0  0  0  0
  190.1000  174.9860  136.8160 C   0  0  0  0  0  3  0  0  0  0  0  0
  189.4590  175.9180  137.6380 C   0  0  0  0  0  0  0  0  0  0  0  0
  191.5780  176.4180  138.7220 C   0  0  0  0  0  3  0  0  0  0  0  0
  190.2040  176.6390  138.5970 C   0  0  0  0  0  0  0  0  0  0  0  0
  192.2120  175.4840  137.8980 C   0  0  0  0  0  3  0  0  0  0  0  0
  188.1870  177.8000  139.2940 C   0  0  0  0  0  0  0  0  0  0  0  0
  187.4550  177.0720  138.3410 C   0  0  0  0  0  3  0  0  0  0  0  0
  192.1450  173.7730  136.0560 C   0  0  2  0  0  3  0  0  0  0  0  0
  191.3250  172.6770  135.8560 F   0  0  0  0  0  0  0  0  0  0  0  0
  193.3520  173.3600  136.6220 O   0  0  0  0  0  1  0  0  0  0  0  0
  1 10  1  0  0  0  0
  1 17  1  0  0  0  0
  4  8  2  0  0  0  0
  4  5  1  0  0  0  0
  5  1  2  0  0  0  0
  6  7  1  0  0  0  0
  6 10  2  0  0  0  0
  8  6  1  0  0  0  0
  9 11  2  0  0  0  0
  9  3  1  0  0  0  0
 10  9  1  0  0  0  0
 12  2  1  0  0  0  0
 13 18  1  0  0  0  0
 13 12  1  0  0  0  0
 14 13  2  0  0  0  0
 15  3  1  0  0  0  0
 15  2  2  0  0  0  0
 16 17  2  0  0  0  0
 16 14  1  0  0  0  0
 17 15  1  0  0  0  0
 18 20  1  0  0  0  0
 19 18  2  0  0  0  0
 21  4  1  0  0  0  0
 22 26  2  0  0  0  0
 22 31  1  0  0  0  0
 24 29  1  0  0  0  0
 25 24  2  0  0  0  0
 25 26  1  0  0  0  0
 26 28  1  0  0  0  0
 28 27  1  0  0  0  0
 28 23  2  0  0  0  0
 29 27  2  0  0  0  0
 30 23  1  0  0  0  0
 30 21  1  0  0  0  0
 31 30  2  0  0  0  0
 32 33  1  1  0  0  0
 32 34  1  0  0  0  0
 32 24  1  0  0  0  0
M  END
>  <MODEL>
9

>  <REMARK>
 VINA RESULT:     -10.1      3.233      7.988
  Name = 
  4 active torsions:
  status: ('A' for Active; 'I' for Inactive)
    1  A    between atoms: C_3  and  C_25
    2  A    between atoms: C_7  and  C_11
    3  A    between atoms: C_8  and  O_18
    4  A    between atoms: O_18  and  C_30
                            x       y       z     vdW  Elec       q    Type
                         _______ _______ _______ _____ _____    ______ ____

>  <TORSDO>
F 4

$$$$
