=
 OpenBabel10272401533D

 28 31  0  0  1  0  0  0  0  0999 V2000
  190.8420  176.7250  144.9900 C   0  0  1  0  0  3  0  0  0  0  0  0
  186.1350  177.9750  143.0060 C   0  0  0  0  0  3  0  0  0  0  0  0
  188.6600  179.0290  147.9440 F   0  0  0  0  0  0  0  0  0  0  0  0
  184.8110  178.5120  144.9720 C   0  0  0  0  0  0  0  0  0  0  0  0
  187.1500  177.8480  145.2370 C   0  0  0  0  0  0  0  0  0  0  0  0
  183.8180  178.6380  142.7670 C   0  0  0  0  0  0  0  0  0  0  0  0
  186.0430  178.1090  144.4010 C   0  0  0  0  0  0  0  0  0  0  0  0
  185.7820  178.3830  147.1800 C   0  0  0  0  0  3  0  0  0  0  0  0
  183.7100  178.7750  144.1540 C   0  0  0  0  0  3  0  0  0  0  0  0
  189.2780  176.9380  146.9610 C   0  0  2  0  0  3  0  0  0  0  0  0
  188.4360  177.3230  144.6420 C   0  0  0  0  0  2  0  0  0  0  0  0
  184.6910  178.6460  146.3550 C   0  0  0  0  0  3  0  0  0  0  0  0
  191.2790  175.9650  147.3210 C   0  0  0  0  0  2  0  0  0  0  0  0
  188.1670  177.7880  147.5760 C   0  0  2  0  0  3  0  0  0  0  0  0
  190.4010  176.9460  147.8090 O   0  0  0  0  0  0  0  0  0  0  0  0
  182.7210  178.9010  141.9580 O   0  0  0  0  0  1  0  0  0  0  0  0
  185.0270  178.2390  142.1950 C   0  0  0  0  0  3  0  0  0  0  0  0
  187.0060  177.9750  146.6390 C   0  0  0  0  0  0  0  0  0  0  0  0
  191.9280  176.4600  146.0340 C   0  0  0  0  0  2  0  0  0  0  0  0
  189.6390  177.4870  145.5690 C   0  0  2  0  0  3  0  0  0  0  0  0
  191.3920  177.3700  143.7070 C   0  0  2  0  0  3  0  0  0  0  0  0
  191.2020  178.7540  143.6960 O   0  0  0  0  0  1  0  0  0  0  0  0
  190.9940  176.7180  142.3700 C   0  0  0  0  0  2  0  0  0  0  0  0
  192.3580  177.3380  140.4650 O   0  0  0  0  0  1  0  0  0  0  0  0
  191.1370  177.5700  141.1010 C   0  0  1  0  0  3  0  0  0  0  0  0
  189.9710  177.4610  140.1550 C   0  0  0  0  0  0  0  0  0  0  0  0
  188.7770  177.9130  140.5320 C   0  0  0  0  0  2  0  0  0  0  0  0
  190.1500  176.9930  138.7480 C   0  0  0  0  0  1  0  0  0  0  0  0
  1 21  1  6  0  0  0
  1 20  1  0  0  0  0
  1 19  1  0  0  0  0
  2  7  1  0  0  0  0
  4 12  1  0  0  0  0
  5 18  2  0  0  0  0
  6  9  2  0  0  0  0
  7  4  2  0  0  0  0
  7  5  1  0  0  0  0
  9  4  1  0  0  0  0
 10 14  1  0  0  0  0
 10 15  1  1  0  0  0
 11  5  1  0  0  0  0
 12  8  2  0  0  0  0
 13 15  1  0  0  0  0
 14  3  1  6  0  0  0
 16  6  1  0  0  0  0
 17  6  1  0  0  0  0
 17  2  2  0  0  0  0
 18  8  1  0  0  0  0
 18 14  1  0  0  0  0
 19 13  1  0  0  0  0
 20 11  1  6  0  0  0
 20 10  1  0  0  0  0
 21 22  1  6  0  0  0
 23 21  1  0  0  0  0
 25 24  1  6  0  0  0
 25 23  1  0  0  0  0
 26 27  2  0  0  0  0
 26 25  1  0  0  0  0
 28 26  1  0  0  0  0
M  END
>  <MODEL>
1

>  <REMARK>
 VINA RESULT:     -11.2      0.000      0.000
  Name = 
  4 active torsions:
  status: ('A' for Active; 'I' for Inactive)
    1  A    between atoms: C_1  and  C_2
    2  A    between atoms: C_2  and  C_3
    3  A    between atoms: C_3  and  C_11
    4  A    between atoms: C_6  and  C_11
                            x       y       z     vdW  Elec       q    Type
                         _______ _______ _______ _____ _____    ______ ____

>  <TORSDO>
F 4

$$$$
=
 OpenBabel10272401533D

 28 31  0  0  1  0  0  0  0  0999 V2000
  189.0750  177.3310  145.1220 C   0  0  1  0  0  3  0  0  0  0  0  0
  185.1790  178.1770  141.6930 C   0  0  0  0  0  3  0  0  0  0  0  0
  186.0090  179.7030  147.0650 F   0  0  0  0  0  0  0  0  0  0  0  0
  183.2940  178.7710  143.1070 C   0  0  0  0  0  0  0  0  0  0  0  0
  185.4550  178.2580  144.1300 C   0  0  0  0  0  0  0  0  0  0  0  0
  183.0310  178.6910  140.7000 C   0  0  0  0  0  0  0  0  0  0  0  0
  184.6540  178.3990  142.9770 C   0  0  0  0  0  0  0  0  0  0  0  0
  183.5340  178.8460  145.5090 C   0  0  0  0  0  3  0  0  0  0  0  0
  182.4930  178.9140  141.9710 C   0  0  0  0  0  3  0  0  0  0  0  0
  186.9700  177.5890  146.4940 C   0  0  2  0  0  3  0  0  0  0  0  0
  186.8780  177.7680  144.0050 C   0  0  0  0  0  2  0  0  0  0  0  0
  182.7450  178.9910  144.3690 C   0  0  0  0  0  3  0  0  0  0  0  0
  188.7910  176.7570  147.5290 C   0  0  0  0  0  2  0  0  0  0  0  0
  185.6950  178.4140  146.6660 C   0  0  2  0  0  3  0  0  0  0  0  0
  187.7730  177.7170  147.6420 O   0  0  0  0  0  0  0  0  0  0  0  0
  182.2320  178.8360  139.5740 O   0  0  0  0  0  1  0  0  0  0  0  0
  184.3710  178.3230  140.5620 C   0  0  0  0  0  3  0  0  0  0  0  0
  184.8780  178.4720  145.4050 C   0  0  0  0  0  0  0  0  0  0  0  0
  189.7910  177.2000  146.4680 C   0  0  0  0  0  2  0  0  0  0  0  0
  187.7270  178.0610  145.2400 C   0  0  2  0  0  3  0  0  0  0  0  0
  189.9750  177.9180  144.0230 C   0  0  2  0  0  3  0  0  0  0  0  0
  190.5420  179.1360  144.4070 O   0  0  0  0  0  1  0  0  0  0  0  0
  189.3950  177.9720  142.5980 C   0  0  0  0  0  2  0  0  0  0  0  0
  190.4270  175.9410  141.7710 O   0  0  0  0  0  1  0  0  0  0  0  0
  190.1980  177.2880  141.4830 C   0  0  1  0  0  3  0  0  0  0  0  0
  189.6270  177.4890  140.1040 C   0  0  0  0  0  0  0  0  0  0  0  0
  190.0730  176.7440  139.0950 C   0  0  0  0  0  2  0  0  0  0  0  0
  188.4680  178.4000  139.8670 C   0  0  0  0  0  1  0  0  0  0  0  0
  1 21  1  6  0  0  0
  1 20  1  0  0  0  0
  1 19  1  0  0  0  0
  2  7  1  0  0  0  0
  4 12  1  0  0  0  0
  5 18  2  0  0  0  0
  6  9  2  0  0  0  0
  7  4  2  0  0  0  0
  7  5  1  0  0  0  0
  9  4  1  0  0  0  0
 10 14  1  0  0  0  0
 10 15  1  1  0  0  0
 11  5  1  0  0  0  0
 12  8  2  0  0  0  0
 13 15  1  0  0  0  0
 14  3  1  6  0  0  0
 16  6  1  0  0  0  0
 17  6  1  0  0  0  0
 17  2  2  0  0  0  0
 18  8  1  0  0  0  0
 18 14  1  0  0  0  0
 19 13  1  0  0  0  0
 20 11  1  6  0  0  0
 20 10  1  0  0  0  0
 21 22  1  1  0  0  0
 23 21  1  0  0  0  0
 25 24  1  1  0  0  0
 25 23  1  0  0  0  0
 26 25  1  0  0  0  0
 27 26  2  0  0  0  0
 28 26  1  0  0  0  0
M  END
>  <MODEL>
2

>  <REMARK>
 VINA RESULT:      -9.9      1.444      2.225
  Name = 
  4 active torsions:
  status: ('A' for Active; 'I' for Inactive)
    1  A    between atoms: C_1  and  C_2
    2  A    between atoms: C_2  and  C_3
    3  A    between atoms: C_3  and  C_11
    4  A    between atoms: C_6  and  C_11
                            x       y       z     vdW  Elec       q    Type
                         _______ _______ _______ _____ _____    ______ ____

>  <TORSDO>
F 4

$$$$
=
 OpenBabel10272401533D

 28 31  0  0  1  0  0  0  0  0999 V2000
  190.1600  176.4800  142.3980 C   0  0  1  0  0  3  0  0  0  0  0  0
  185.1560  178.0740  142.6570 C   0  0  0  0  0  3  0  0  0  0  0  0
  189.6250  178.7830  146.0330 F   0  0  0  0  0  0  0  0  0  0  0  0
  184.8470  178.6050  145.0080 C   0  0  0  0  0  0  0  0  0  0  0  0
  187.0210  177.7990  144.2280 C   0  0  0  0  0  0  0  0  0  0  0  0
  183.0130  178.8750  143.4500 C   0  0  0  0  0  0  0  0  0  0  0  0
  185.6820  178.1560  143.9560 C   0  0  0  0  0  0  0  0  0  0  0  0
  186.6620  178.3320  146.5790 C   0  0  0  0  0  3  0  0  0  0  0  0
  183.5210  178.9620  144.7490 C   0  0  0  0  0  3  0  0  0  0  0  0
  189.6150  176.7020  144.8540 C   0  0  2  0  0  3  0  0  0  0  0  0
  187.8870  177.2270  143.1300 C   0  0  0  0  0  2  0  0  0  0  0  0
  185.3420  178.6890  146.3080 C   0  0  0  0  0  3  0  0  0  0  0  0
  191.5050  175.6030  144.3020 C   0  0  0  0  0  2  0  0  0  0  0  0
  188.9380  177.5880  145.8990 C   0  0  2  0  0  3  0  0  0  0  0  0
  190.9920  176.6120  145.1330 O   0  0  0  0  0  0  0  0  0  0  0  0
  181.6960  179.2320  143.1960 O   0  0  0  0  0  1  0  0  0  0  0  0
  183.8280  178.4320  142.4070 C   0  0  0  0  0  3  0  0  0  0  0  0
  187.5020  177.8770  145.5570 C   0  0  0  0  0  0  0  0  0  0  0  0
  191.5700  176.1130  142.8680 C   0  0  0  0  0  2  0  0  0  0  0  0
  189.3790  177.2850  143.4490 C   0  0  2  0  0  3  0  0  0  0  0  0
  190.1490  177.1450  141.0120 C   0  0  2  0  0  3  0  0  0  0  0  0
  191.3980  177.6710  140.6740 O   0  0  0  0  0  1  0  0  0  0  0  0
  189.0040  178.1330  140.7190 C   0  0  0  0  0  2  0  0  0  0  0  0
  186.9290  178.6150  139.5640 O   0  0  0  0  0  1  0  0  0  0  0  0
  188.0570  177.7920  139.5600 C   0  0  1  0  0  3  0  0  0  0  0  0
  188.7290  177.7480  138.2130 C   0  0  0  0  0  0  0  0  0  0  0  0
  188.9350  176.5740  137.6210 C   0  0  0  0  0  2  0  0  0  0  0  0
  189.0360  178.9980  137.4550 C   0  0  0  0  0  1  0  0  0  0  0  0
  1 21  1  6  0  0  0
  1 19  1  0  0  0  0
  1 20  1  0  0  0  0
  2  7  1  0  0  0  0
  4 12  1  0  0  0  0
  5 18  2  0  0  0  0
  6  9  2  0  0  0  0
  7  5  1  0  0  0  0
  7  4  2  0  0  0  0
  9  4  1  0  0  0  0
 10 15  1  1  0  0  0
 10 14  1  0  0  0  0
 11  5  1  0  0  0  0
 12  8  2  0  0  0  0
 13 15  1  0  0  0  0
 14  3  1  6  0  0  0
 16  6  1  0  0  0  0
 17  2  2  0  0  0  0
 17  6  1  0  0  0  0
 18 14  1  0  0  0  0
 18  8  1  0  0  0  0
 19 13  1  0  0  0  0
 20 11  1  6  0  0  0
 20 10  1  0  0  0  0
 21 22  1  1  0  0  0
 23 21  1  0  0  0  0
 25 24  1  6  0  0  0
 25 23  1  0  0  0  0
 26 25  1  0  0  0  0
 27 26  2  0  0  0  0
 28 26  1  0  0  0  0
M  END
>  <MODEL>
3

>  <REMARK>
 VINA RESULT:      -9.6      1.564      2.390
  Name = 
  4 active torsions:
  status: ('A' for Active; 'I' for Inactive)
    1  A    between atoms: C_1  and  C_2
    2  A    between atoms: C_2  and  C_3
    3  A    between atoms: C_3  and  C_11
    4  A    between atoms: C_6  and  C_11
                            x       y       z     vdW  Elec       q    Type
                         _______ _______ _______ _____ _____    ______ ____

>  <TORSDO>
F 4

$$$$
=
 OpenBabel10272401533D

 28 31  0  0  1  0  0  0  0  0999 V2000
  189.9120  176.7460  142.0620 C   0  0  1  0  0  3  0  0  0  0  0  0
  184.9100  178.2610  142.6400 C   0  0  0  0  0  3  0  0  0  0  0  0
  189.4880  178.6900  145.9140 F   0  0  0  0  0  0  0  0  0  0  0  0
  184.6790  178.5640  145.0400 C   0  0  0  0  0  0  0  0  0  0  0  0
  186.8290  177.8570  144.1140 C   0  0  0  0  0  0  0  0  0  0  0  0
  182.7900  178.9630  143.5770 C   0  0  0  0  0  0  0  0  0  0  0  0
  185.4800  178.2250  143.9220 C   0  0  0  0  0  0  0  0  0  0  0  0
  186.5480  178.1610  146.5150 C   0  0  0  0  0  3  0  0  0  0  0  0
  183.3430  178.9310  144.8600 C   0  0  0  0  0  3  0  0  0  0  0  0
  189.4510  176.7300  144.5440 C   0  0  2  0  0  3  0  0  0  0  0  0
  187.6600  177.3990  142.9380 C   0  0  0  0  0  2  0  0  0  0  0  0
  185.2180  178.5300  146.3250 C   0  0  0  0  0  3  0  0  0  0  0  0
  191.3270  175.7070  143.8280 C   0  0  0  0  0  2  0  0  0  0  0  0
  188.8040  177.5070  145.6910 C   0  0  2  0  0  3  0  0  0  0  0  0
  190.8360  176.6270  144.7680 O   0  0  0  0  0  0  0  0  0  0  0  0
  181.4630  179.3300  143.4030 O   0  0  0  0  0  1  0  0  0  0  0  0
  183.5720  178.6280  142.4690 C   0  0  0  0  0  3  0  0  0  0  0  0
  187.3560  177.8140  145.4270 C   0  0  0  0  0  0  0  0  0  0  0  0
  191.3390  176.3500  142.4470 C   0  0  0  0  0  2  0  0  0  0  0  0
  189.1630  177.4410  143.2110 C   0  0  2  0  0  3  0  0  0  0  0  0
  189.8480  177.5390  140.7460 C   0  0  2  0  0  3  0  0  0  0  0  0
  188.6020  177.4220  140.1250 O   0  0  0  0  0  1  0  0  0  0  0  0
  191.0110  177.3440  139.7550 C   0  0  0  0  0  2  0  0  0  0  0  0
  190.2460  177.3560  137.4560 O   0  0  0  0  0  1  0  0  0  0  0  0
  190.7240  176.5380  138.4810 C   0  0  1  0  0  3  0  0  0  0  0  0
  191.8710  175.6710  138.0330 C   0  0  0  0  0  0  0  0  0  0  0  0
  191.6200  174.5110  137.4310 C   0  0  0  0  0  2  0  0  0  0  0  0
  193.2840  176.1480  138.1130 C   0  0  0  0  0  1  0  0  0  0  0  0
  1 21  1  6  0  0  0
  1 19  1  0  0  0  0
  1 20  1  0  0  0  0
  2  7  1  0  0  0  0
  4 12  1  0  0  0  0
  5 18  2  0  0  0  0
  6  9  2  0  0  0  0
  7  5  1  0  0  0  0
  7  4  2  0  0  0  0
  9  4  1  0  0  0  0
 10 15  1  1  0  0  0
 10 14  1  0  0  0  0
 11  5  1  0  0  0  0
 12  8  2  0  0  0  0
 13 15  1  0  0  0  0
 14  3  1  6  0  0  0
 16  6  1  0  0  0  0
 17  2  2  0  0  0  0
 17  6  1  0  0  0  0
 18 14  1  0  0  0  0
 18  8  1  0  0  0  0
 19 13  1  0  0  0  0
 20 11  1  6  0  0  0
 20 10  1  0  0  0  0
 21 22  1  6  0  0  0
 23 21  1  0  0  0  0
 25 24  1  6  0  0  0
 25 23  1  0  0  0  0
 26 28  1  0  0  0  0
 26 25  1  0  0  0  0
 27 26  2  0  0  0  0
M  END
>  <MODEL>
4

>  <REMARK>
 VINA RESULT:      -9.6      1.758      2.651
  Name = 
  4 active torsions:
  status: ('A' for Active; 'I' for Inactive)
    1  A    between atoms: C_1  and  C_2
    2  A    between atoms: C_2  and  C_3
    3  A    between atoms: C_3  and  C_11
    4  A    between atoms: C_6  and  C_11
                            x       y       z     vdW  Elec       q    Type
                         _______ _______ _______ _____ _____    ______ ____

>  <TORSDO>
F 4

$$$$
=
 OpenBabel10272401533D

 28 31  0  0  1  0  0  0  0  0999 V2000
  189.1130  177.4750  139.3050 C   0  0  1  0  0  3  0  0  0  0  0  0
  186.2200  178.0620  143.6570 C   0  0  0  0  0  3  0  0  0  0  0  0
  191.7530  178.4500  142.6030 F   0  0  0  0  0  0  0  0  0  0  0  0
  187.8340  177.8000  145.4550 C   0  0  0  0  0  0  0  0  0  0  0  0
  188.5790  177.6390  143.1310 C   0  0  0  0  0  0  0  0  0  0  0  0
  185.5040  178.2200  145.9650 C   0  0  0  0  0  0  0  0  0  0  0  0
  187.5430  177.8350  144.0690 C   0  0  0  0  0  0  0  0  0  0  0  0
  190.1600  177.3700  144.9660 C   0  0  0  0  0  3  0  0  0  0  0  0
  186.8150  177.9930  146.3910 C   0  0  0  0  0  3  0  0  0  0  0  0
  190.6120  176.8510  141.2400 C   0  0  2  0  0  3  0  0  0  0  0  0
  188.2590  177.5780  141.6560 C   0  0  0  0  0  2  0  0  0  0  0  0
  189.1370  177.5690  145.8910 C   0  0  0  0  0  3  0  0  0  0  0  0
  191.3050  176.3000  139.1670 C   0  0  0  0  0  2  0  0  0  0  0  0
  191.0550  177.2550  142.6460 C   0  0  2  0  0  3  0  0  0  0  0  0
  191.7110  176.9100  140.3640 O   0  0  0  0  0  0  0  0  0  0  0  0
  184.4950  178.4130  146.8990 O   0  0  0  0  0  1  0  0  0  0  0  0
  185.2070  178.2540  144.6010 C   0  0  0  0  0  3  0  0  0  0  0  0
  189.8950  177.3920  143.5920 C   0  0  0  0  0  0  0  0  0  0  0  0
  190.3420  177.2220  138.4290 C   0  0  0  0  0  2  0  0  0  0  0  0
  189.4830  177.7830  140.7650 C   0  0  2  0  0  3  0  0  0  0  0  0
  188.1550  178.5160  138.7020 C   0  0  2  0  0  3  0  0  0  0  0  0
  186.8690  178.4130  139.2360 O   0  0  0  0  0  1  0  0  0  0  0  0
  188.1390  178.6440  137.1680 C   0  0  0  0  0  2  0  0  0  0  0  0
  186.8380  178.3860  135.1390 O   0  0  0  0  0  1  0  0  0  0  0  0
  187.0730  177.8440  136.4050 C   0  0  1  0  0  3  0  0  0  0  0  0
  187.3390  176.3630  136.3530 C   0  0  0  0  0  0  0  0  0  0  0  0
  186.5040  175.5250  136.9630 C   0  0  0  0  0  2  0  0  0  0  0  0
  188.4350  175.7980  135.5090 C   0  0  0  0  0  1  0  0  0  0  0  0
  1 21  1  6  0  0  0
  1 20  1  0  0  0  0
  2  7  2  0  0  0  0
  2 17  1  0  0  0  0
  4 12  1  0  0  0  0
  4  9  2  0  0  0  0
  5 18  2  0  0  0  0
  5  7  1  0  0  0  0
  6  9  1  0  0  0  0
  6 16  1  0  0  0  0
  7  4  1  0  0  0  0
  8 12  2  0  0  0  0
 10 15  1  6  0  0  0
 10 14  1  0  0  0  0
 11  5  1  0  0  0  0
 13 15  1  0  0  0  0
 14  3  1  6  0  0  0
 14 18  1  0  0  0  0
 17  6  2  0  0  0  0
 18  8  1  0  0  0  0
 19 13  1  0  0  0  0
 19  1  1  0  0  0  0
 20 10  1  0  0  0  0
 20 11  1  1  0  0  0
 21 22  1  6  0  0  0
 23 21  1  0  0  0  0
 25 24  1  6  0  0  0
 25 23  1  0  0  0  0
 26 25  1  0  0  0  0
 26 27  2  0  0  0  0
 28 26  1  0  0  0  0
M  END
>  <MODEL>
5

>  <REMARK>
 VINA RESULT:      -8.9      2.956      5.273
  Name = 
  4 active torsions:
  status: ('A' for Active; 'I' for Inactive)
    1  A    between atoms: C_1  and  C_2
    2  A    between atoms: C_2  and  C_3
    3  A    between atoms: C_3  and  C_11
    4  A    between atoms: C_6  and  C_11
                            x       y       z     vdW  Elec       q    Type
                         _______ _______ _______ _____ _____    ______ ____

>  <TORSDO>
F 4

$$$$
=
 OpenBabel10272401533D

 28 31  0  0  1  0  0  0  0  0999 V2000
  188.5520  177.2820  143.8820 C   0  0  1  0  0  3  0  0  0  0  0  0
  184.1480  177.9340  141.0830 C   0  0  0  0  0  3  0  0  0  0  0  0
  185.9090  179.9440  146.0570 F   0  0  0  0  0  0  0  0  0  0  0  0
  182.5420  178.7320  142.7230 C   0  0  0  0  0  0  0  0  0  0  0  0
  184.8350  178.2420  143.4190 C   0  0  0  0  0  0  0  0  0  0  0  0
  181.8730  178.4280  140.4160 C   0  0  0  0  0  0  0  0  0  0  0  0
  183.8530  178.3000  142.4070 C   0  0  0  0  0  0  0  0  0  0  0  0
  183.1880  179.0310  145.0320 C   0  0  0  0  0  3  0  0  0  0  0  0
  181.5630  178.7940  141.7280 C   0  0  0  0  0  3  0  0  0  0  0  0
  186.7160  177.7500  145.5520 C   0  0  2  0  0  3  0  0  0  0  0  0
  186.2070  177.6900  143.1080 C   0  0  0  0  0  2  0  0  0  0  0  0
  182.2210  179.0940  144.0310 C   0  0  0  0  0  3  0  0  0  0  0  0
  188.6700  176.9560  146.3480 C   0  0  0  0  0  2  0  0  0  0  0  0
  185.5060  178.6350  145.8490 C   0  0  2  0  0  3  0  0  0  0  0  0
  187.7050  177.9590  146.5310 O   0  0  0  0  0  0  0  0  0  0  0  0
  180.8980  178.4930  139.4300 O   0  0  0  0  0  1  0  0  0  0  0  0
  183.1630  177.9990  140.0940 C   0  0  0  0  0  3  0  0  0  0  0  0
  184.4870  178.5990  144.7430 C   0  0  0  0  0  0  0  0  0  0  0  0
  189.4830  177.2560  145.0960 C   0  0  0  0  0  2  0  0  0  0  0  0
  187.2590  178.0700  144.1480 C   0  0  2  0  0  3  0  0  0  0  0  0
  189.2640  177.7260  142.5940 C   0  0  2  0  0  3  0  0  0  0  0  0
  190.5340  178.2480  142.8520 O   0  0  0  0  0  1  0  0  0  0  0  0
  188.4610  178.6080  141.6190 C   0  0  0  0  0  2  0  0  0  0  0  0
  186.9850  178.5620  139.6970 O   0  0  0  0  0  1  0  0  0  0  0  0
  188.1610  178.0290  140.2290 C   0  0  1  0  0  3  0  0  0  0  0  0
  189.3150  178.1170  139.2660 C   0  0  0  0  0  0  0  0  0  0  0  0
  190.4200  177.4120  139.5000 C   0  0  0  0  0  2  0  0  0  0  0  0
  189.1980  178.8620  137.9770 C   0  0  0  0  0  1  0  0  0  0  0  0
  1 21  1  6  0  0  0
  1 20  1  0  0  0  0
  1 19  1  0  0  0  0
  2  7  1  0  0  0  0
  4 12  1  0  0  0  0
  5 18  2  0  0  0  0
  6  9  2  0  0  0  0
  7  4  2  0  0  0  0
  7  5  1  0  0  0  0
  9  4  1  0  0  0  0
 10 14  1  0  0  0  0
 10 15  1  1  0  0  0
 11  5  1  0  0  0  0
 12  8  2  0  0  0  0
 13 15  1  0  0  0  0
 14  3  1  6  0  0  0
 16  6  1  0  0  0  0
 17  6  1  0  0  0  0
 17  2  2  0  0  0  0
 18  8  1  0  0  0  0
 18 14  1  0  0  0  0
 19 13  1  0  0  0  0
 20 11  1  6  0  0  0
 20 10  1  0  0  0  0
 21 22  1  1  0  0  0
 23 21  1  0  0  0  0
 25 24  1  6  0  0  0
 25 23  1  0  0  0  0
 26 27  2  0  0  0  0
 26 25  1  0  0  0  0
 28 26  1  0  0  0  0
M  END
>  <MODEL>
6

>  <REMARK>
 VINA RESULT:      -8.8      1.955      3.028
  Name = 
  4 active torsions:
  status: ('A' for Active; 'I' for Inactive)
    1  A    between atoms: C_1  and  C_2
    2  A    between atoms: C_2  and  C_3
    3  A    between atoms: C_3  and  C_11
    4  A    between atoms: C_6  and  C_11
                            x       y       z     vdW  Elec       q    Type
                         _______ _______ _______ _____ _____    ______ ____

>  <TORSDO>
F 4

$$$$
=
 OpenBabel10272401533D

 28 31  0  0  1  0  0  0  0  0999 V2000
  187.6230  178.1460  146.7730 C   0  0  1  0  0  3  0  0  0  0  0  0
  188.1450  178.2510  141.5410 C   0  0  0  0  0  3  0  0  0  0  0  0
  190.9940  175.6540  145.6660 F   0  0  0  0  0  0  0  0  0  0  0  0
  190.4350  177.5230  141.1820 C   0  0  0  0  0  0  0  0  0  0  0  0
  189.5620  177.6780  143.4610 C   0  0  0  0  0  0  0  0  0  0  0  0
  189.0280  178.0880  139.2930 C   0  0  0  0  0  0  0  0  0  0  0  0
  189.3720  177.8190  142.0700 C   0  0  0  0  0  0  0  0  0  0  0  0
  191.8560  176.9650  143.0540 C   0  0  0  0  0  3  0  0  0  0  0  0
  190.2560  177.6580  139.8020 C   0  0  0  0  0  3  0  0  0  0  0  0
  190.0740  177.7690  146.3000 C   0  0  2  0  0  3  0  0  0  0  0  0
  188.4650  178.0850  144.4170 C   0  0  0  0  0  2  0  0  0  0  0  0
  191.6660  177.0990  141.6800 C   0  0  0  0  0  3  0  0  0  0  0  0
  189.4870  178.2580  148.4210 C   0  0  0  0  0  2  0  0  0  0  0  0
  191.0650  177.0140  145.4130 C   0  0  2  0  0  3  0  0  0  0  0  0
  190.2370  177.3650  147.6380 O   0  0  0  0  0  0  0  0  0  0  0  0
  188.8550  178.2200  137.9220 O   0  0  0  0  0  1  0  0  0  0  0  0
  187.9750  178.3840  140.1600 C   0  0  0  0  0  3  0  0  0  0  0  0
  190.8230  177.2600  143.9500 C   0  0  0  0  0  0  0  0  0  0  0  0
  188.0030  177.9630  148.2440 C   0  0  0  0  0  2  0  0  0  0  0  0
  188.6380  177.5000  145.8170 C   0  0  2  0  0  3  0  0  0  0  0  0
  186.1740  177.7240  146.4750 C   0  0  2  0  0  3  0  0  0  0  0  0
  186.1150  176.6640  145.5670 O   0  0  0  0  0  1  0  0  0  0  0  0
  185.1780  178.8450  146.1240 C   0  0  0  0  0  2  0  0  0  0  0  0
  182.9360  179.1280  145.2490 O   0  0  0  0  0  1  0  0  0  0  0  0
  184.1900  178.5780  144.9800 C   0  0  1  0  0  3  0  0  0  0  0  0
  184.7070  178.9690  143.6210 C   0  0  0  0  0  0  0  0  0  0  0  0
  185.4330  180.0770  143.4890 C   0  0  0  0  0  2  0  0  0  0  0  0
  184.5520  178.0670  142.4400 C   0  0  0  0  0  1  0  0  0  0  0  0
  1 21  1  1  0  0  0
  1 19  1  0  0  0  0
  2  7  1  0  0  0  0
  4 12  2  0  0  0  0
  4  7  1  0  0  0  0
  5 18  1  0  0  0  0
  5 11  1  0  0  0  0
  6  9  2  0  0  0  0
  6 17  1  0  0  0  0
  7  5  2  0  0  0  0
  8 18  2  0  0  0  0
  9  4  1  0  0  0  0
 10 15  1  1  0  0  0
 12  8  1  0  0  0  0
 14  3  1  6  0  0  0
 14 10  1  0  0  0  0
 15 13  1  0  0  0  0
 16  6  1  0  0  0  0
 17  2  2  0  0  0  0
 18 14  1  0  0  0  0
 19 13  1  0  0  0  0
 20 11  1  6  0  0  0
 20 10  1  0  0  0  0
 20  1  1  0  0  0  0
 21 22  1  6  0  0  0
 23 21  1  0  0  0  0
 25 24  1  1  0  0  0
 25 23  1  0  0  0  0
 26 25  1  0  0  0  0
 27 26  2  0  0  0  0
 28 26  1  0  0  0  0
M  END
>  <MODEL>
7

>  <REMARK>
 VINA RESULT:      -8.8      1.920      5.670
  Name = 
  4 active torsions:
  status: ('A' for Active; 'I' for Inactive)
    1  A    between atoms: C_1  and  C_2
    2  A    between atoms: C_2  and  C_3
    3  A    between atoms: C_3  and  C_11
    4  A    between atoms: C_6  and  C_11
                            x       y       z     vdW  Elec       q    Type
                         _______ _______ _______ _____ _____    ______ ____

>  <TORSDO>
F 4

$$$$
=
 OpenBabel10272401533D

 28 31  0  0  1  0  0  0  0  0999 V2000
  185.3640  178.4580  140.9860 C   0  0  1  0  0  3  0  0  0  0  0  0
  189.1870  177.3000  144.4060 C   0  0  0  0  0  3  0  0  0  0  0  0
  189.1810  179.4580  139.1890 F   0  0  0  0  0  0  0  0  0  0  0  0
  191.1730  177.1510  143.0130 C   0  0  0  0  0  0  0  0  0  0  0  0
  189.0170  177.6850  141.9890 C   0  0  0  0  0  0  0  0  0  0  0  0
  191.3320  176.7750  145.4010 C   0  0  0  0  0  0  0  0  0  0  0  0
  189.7810  177.3810  143.1360 C   0  0  0  0  0  0  0  0  0  0  0  0
  191.0320  177.5130  140.6290 C   0  0  0  0  0  3  0  0  0  0  0  0
  191.9380  176.8510  144.1440 C   0  0  0  0  0  3  0  0  0  0  0  0
  187.4060  177.9100  139.6050 C   0  0  2  0  0  3  0  0  0  0  0  0
  187.5180  177.8340  142.0980 C   0  0  0  0  0  2  0  0  0  0  0  0
  191.7860  177.2190  141.7630 C   0  0  0  0  0  3  0  0  0  0  0  0
  185.4230  178.0120  138.5370 C   0  0  0  0  0  2  0  0  0  0  0  0
  188.9130  178.1300  139.4780 C   0  0  2  0  0  3  0  0  0  0  0  0
  186.7540  178.4570  138.4850 O   0  0  0  0  0  0  0  0  0  0  0  0
  192.0960  176.4780  146.5210 O   0  0  0  0  0  1  0  0  0  0  0  0
  189.9600  176.9980  145.5310 C   0  0  0  0  0  3  0  0  0  0  0  0
  189.6540  177.7350  140.7250 C   0  0  0  0  0  0  0  0  0  0  0  0
  184.6850  178.7500  139.6470 C   0  0  0  0  0  2  0  0  0  0  0  0
  186.8960  178.5570  140.9050 C   0  0  2  0  0  3  0  0  0  0  0  0
  184.7760  179.2810  142.1440 C   0  0  2  0  0  3  0  0  0  0  0  0
  185.6180  180.3300  142.5200 O   0  0  0  0  0  1  0  0  0  0  0  0
  184.2450  178.4980  143.3600 C   0  0  0  0  0  2  0  0  0  0  0  0
  183.1660  179.1790  145.4200 O   0  0  0  0  0  1  0  0  0  0  0  0
  184.3850  179.1580  144.7390 C   0  0  1  0  0  3  0  0  0  0  0  0
  185.5000  178.5930  145.5790 C   0  0  0  0  0  0  0  0  0  0  0  0
  185.8620  179.2200  146.6950 C   0  0  0  0  0  2  0  0  0  0  0  0
  186.1120  177.2660  145.2690 C   0  0  0  0  0  1  0  0  0  0  0  0
  1 21  1  1  0  0  0
  2 17  1  0  0  0  0
  4  7  1  0  0  0  0
  4  9  2  0  0  0  0
  5 11  1  0  0  0  0
  5  7  1  0  0  0  0
  6 17  2  0  0  0  0
  6 16  1  0  0  0  0
  7  2  2  0  0  0  0
  8 18  1  0  0  0  0
  8 12  2  0  0  0  0
  9  6  1  0  0  0  0
 10 15  1  6  0  0  0
 10 20  1  0  0  0  0
 12  4  1  0  0  0  0
 13 19  1  0  0  0  0
 14  3  1  1  0  0  0
 14 10  1  0  0  0  0
 14 18  1  0  0  0  0
 15 13  1  0  0  0  0
 18  5  2  0  0  0  0
 19  1  1  0  0  0  0
 20  1  1  0  0  0  0
 20 11  1  1  0  0  0
 21 22  1  1  0  0  0
 21 23  1  0  0  0  0
 23 25  1  0  0  0  0
 25 24  1  1  0  0  0
 25 26  1  0  0  0  0
 26 27  2  0  0  0  0
 28 26  1  0  0  0  0
M  END
>  <MODEL>
8

>  <REMARK>
 VINA RESULT:      -8.7      2.542      7.645
  Name = 
  4 active torsions:
  status: ('A' for Active; 'I' for Inactive)
    1  A    between atoms: C_1  and  C_2
    2  A    between atoms: C_2  and  C_3
    3  A    between atoms: C_3  and  C_11
    4  A    between atoms: C_6  and  C_11
                            x       y       z     vdW  Elec       q    Type
                         _______ _______ _______ _____ _____    ______ ____

>  <TORSDO>
F 4

$$$$
=
 OpenBabel10272401533D

 28 31  0  0  1  0  0  0  0  0999 V2000
  188.5070  177.5170  140.2160 C   0  0  1  0  0  3  0  0  0  0  0  0
  187.6460  177.6200  145.4020 C   0  0  0  0  0  3  0  0  0  0  0  0
  192.2980  178.0920  142.2390 F   0  0  0  0  0  0  0  0  0  0  0  0
  189.8310  177.1430  146.3530 C   0  0  0  0  0  0  0  0  0  0  0  0
  189.5680  177.2460  143.9230 C   0  0  0  0  0  0  0  0  0  0  0  0
  187.9280  177.5160  147.8050 C   0  0  0  0  0  0  0  0  0  0  0  0
  189.0090  177.3380  145.2160 C   0  0  0  0  0  0  0  0  0  0  0  0
  191.7370  176.7580  144.9200 C   0  0  0  0  0  3  0  0  0  0  0  0
  189.2870  177.2340  147.6370 C   0  0  0  0  0  3  0  0  0  0  0  0
  190.6220  176.6670  141.3000 C   0  0  2  0  0  3  0  0  0  0  0  0
  188.6780  177.3550  142.7070 C   0  0  0  0  0  2  0  0  0  0  0  0
  191.1860  176.8550  146.1970 C   0  0  0  0  0  3  0  0  0  0  0  0
  190.3920  176.3530  139.0800 C   0  0  0  0  0  2  0  0  0  0  0  0
  191.6150  176.9040  142.4380 C   0  0  2  0  0  3  0  0  0  0  0  0
  191.2780  176.8190  140.0640 O   0  0  0  0  0  0  0  0  0  0  0  0
  187.3930  177.6070  149.0820 O   0  0  0  0  0  1  0  0  0  0  0  0
  187.1100  177.7080  146.6900 C   0  0  0  0  0  3  0  0  0  0  0  0
  190.9430  176.9380  143.7830 C   0  0  0  0  0  0  0  0  0  0  0  0
  189.2640  177.3590  138.8950 C   0  0  0  0  0  2  0  0  0  0  0  0
  189.4480  177.6540  141.4230 C   0  0  2  0  0  3  0  0  0  0  0  0
  187.4430  178.6260  140.1630 C   0  0  2  0  0  3  0  0  0  0  0  0
  187.7120  179.6520  141.0720 O   0  0  0  0  0  1  0  0  0  0  0  0
  185.9680  178.1830  140.2080 C   0  0  0  0  0  2  0  0  0  0  0  0
  184.1380  179.7100  139.7670 O   0  0  0  0  0  1  0  0  0  0  0  0
  184.9490  179.1820  140.7740 C   0  0  1  0  0  3  0  0  0  0  0  0
  184.1490  178.6500  141.9330 C   0  0  0  0  0  0  0  0  0  0  0  0
  184.7670  178.3410  143.0710 C   0  0  0  0  0  2  0  0  0  0  0  0
  182.6560  178.5980  141.8890 C   0  0  0  0  0  1  0  0  0  0  0  0
  1 21  1  6  0  0  0
  1 20  1  0  0  0  0
  2 17  1  0  0  0  0
  4  9  2  0  0  0  0
  5  7  1  0  0  0  0
  6 16  1  0  0  0  0
  7  2  2  0  0  0  0
  7  4  1  0  0  0  0
  8 12  2  0  0  0  0
  9  6  1  0  0  0  0
 10 15  1  6  0  0  0
 10 20  1  0  0  0  0
 10 14  1  0  0  0  0
 11  5  1  0  0  0  0
 12  4  1  0  0  0  0
 13 15  1  0  0  0  0
 14  3  1  6  0  0  0
 14 18  1  0  0  0  0
 17  6  2  0  0  0  0
 18  5  2  0  0  0  0
 18  8  1  0  0  0  0
 19 13  1  0  0  0  0
 19  1  1  0  0  0  0
 20 11  1  1  0  0  0
 21 23  1  0  0  0  0
 21 22  1  1  0  0  0
 23 25  1  0  0  0  0
 25 24  1  6  0  0  0
 25 26  1  0  0  0  0
 26 27  2  0  0  0  0
 28 26  1  0  0  0  0
M  END
>  <MODEL>
9

>  <REMARK>
 VINA RESULT:      -8.6      2.044      6.097
  Name = 
  4 active torsions:
  status: ('A' for Active; 'I' for Inactive)
    1  A    between atoms: C_1  and  C_2
    2  A    between atoms: C_2  and  C_3
    3  A    between atoms: C_3  and  C_11
    4  A    between atoms: C_6  and  C_11
                            x       y       z     vdW  Elec       q    Type
                         _______ _______ _______ _____ _____    ______ ____

>  <TORSDO>
F 4

$$$$
