=
 OpenBabel10262423443D

 34 39  0  0  1  0  0  0  0  0999 V2000
  185.5050  178.3560  144.2540 C   0  0  0  0  0  0  0  0  0  0  0  0
  186.6780  177.8690  142.1910 C   0  0  0  0  0  0  0  0  0  0  0  0
  187.9350  177.9810  144.3010 C   0  0  0  0  0  0  0  0  0  0  0  0
  190.5190  178.0100  143.7650 C   0  0  2  0  0  0  0  0  0  0  0  0
  184.3250  178.2150  142.1610 C   0  0  0  0  0  3  0  0  0  0  0  0
  191.0840  176.7530  146.9090 C   0  0  1  0  0  3  0  0  0  0  0  0
  185.4970  177.9550  141.5220 N   0  0  0  0  0  0  0  0  0  0  0  0
  188.9690  176.9150  142.2700 C   0  0  1  0  0  3  0  0  0  0  0  0
  189.0220  176.3600  148.0720 O   0  0  0  0  0  1  0  0  0  0  0  0
  186.7150  178.0690  143.5860 C   0  0  0  0  0  0  0  0  0  0  0  0
  191.6910  177.5110  145.8750 O   0  0  0  0  0  0  0  0  0  0  0  0
  191.1520  177.9440  142.3870 C   0  0  0  0  0  2  0  0  0  0  0  0
  184.3090  178.4220  143.5400 C   0  0  0  0  0  3  0  0  0  0  0  0
  187.9060  178.2320  145.7030 C   0  0  0  0  0  0  0  0  0  0  0  0
  189.5550  176.7890  146.8550 C   0  0  1  0  0  3  0  0  0  0  0  0
  185.5030  178.5820  145.6260 C   0  0  0  0  0  3  0  0  0  0  0  0
  187.9410  177.6650  141.4200 C   0  0  0  0  0  2  0  0  0  0  0  0
  190.6150  179.4540  144.2460 C   0  0  0  0  0  1  0  0  0  0  0  0
  191.2830  176.9930  144.6320 C   0  0  0  0  0  2  0  0  0  0  0  0
  189.1090  178.2100  146.5770 C   0  0  0  0  0  2  0  0  0  0  0  0
  190.3590  176.8960  141.6360 C   0  0  2  0  0  3  0  0  0  0  0  0
  189.1280  177.5780  143.5640 N   0  0  0  0  0  0  0  0  0  0  0  0
  186.6960  178.5250  146.3400 C   0  0  0  0  0  3  0  0  0  0  0  0
  191.6220  175.3250  146.9870 C   0  0  0  0  0  2  0  0  0  0  0  0
  192.8230  175.2650  147.9100 C   0  0  0  0  0  1  0  0  0  0  0  0
  190.3440  177.1790  140.2670 O   0  0  0  0  0  0  0  0  0  0  0  0
  190.8230  176.0680  139.6850 O   0  0  0  0  0  0  0  0  0  0  0  0
  193.3420  177.2600  139.6040 F   0  0  0  0  0  0  0  0  0  0  0  0
  191.5720  176.1280  138.5090 C   0  0  0  0  0  0  0  0  0  0  0  0
  193.0640  176.3460  138.6050 C   0  0  1  0  0  3  0  0  0  0  0  0
  193.2550  175.8910  136.2820 C   0  0  0  0  0  2  0  0  0  0  0  0
  191.7550  176.0030  136.0300 C   0  0  0  0  0  2  0  0  0  0  0  0
  190.9890  175.9210  137.3200 C   0  0  0  0  0  3  0  0  0  0  0  0
  193.6330  176.8220  137.3410 N   0  0  0  0  0  2  0  0  0  0  0  0
  1 16  1  0  0  0  0
  2 10  1  0  0  0  0
  3 14  2  0  0  0  0
  4 18  1  1  0  0  0
  4 19  1  0  0  0  0
  5 13  2  0  0  0  0
  6 24  1  6  0  0  0
  7  5  1  0  0  0  0
  7  2  2  0  0  0  0
  8 17  1  6  0  0  0
  8 22  1  0  0  0  0
 10  1  2  0  0  0  0
 10  3  1  0  0  0  0
 11  6  1  0  0  0  0
 12  4  1  0  0  0  0
 13  1  1  0  0  0  0
 14 23  1  0  0  0  0
 14 20  1  0  0  0  0
 15  6  1  0  0  0  0
 15  9  1  1  0  0  0
 16 23  2  0  0  0  0
 17  2  1  0  0  0  0
 19 11  1  0  0  0  0
 20 15  1  0  0  0  0
 21 26  1  6  0  0  0
 21  8  1  0  0  0  0
 21 12  1  0  0  0  0
 22  4  1  0  0  0  0
 22  3  1  0  0  0  0
 24 25  1  0  0  0  0
 27 26  1  0  0  0  0
 29 30  1  0  0  0  0
 29 27  1  0  0  0  0
 30 28  1  1  0  0  0
 31 34  1  0  0  0  0
 32 31  1  0  0  0  0
 32 33  1  0  0  0  0
 33 29  2  0  0  0  0
 34 30  1  0  0  0  0
M  END
>  <MODEL>
1

>  <REMARK>
 VINA RESULT:      -9.6      0.000      0.000
  Name = 
  4 active torsions:
  status: ('A' for Active; 'I' for Inactive)
    1  A    between atoms: O_3  and  C_13
    2  A    between atoms: O_3  and  O_17
    3  A    between atoms: C_7  and  C_8
    4  A    between atoms: O_17  and  C_29
                            x       y       z     vdW  Elec       q    Type
                         _______ _______ _______ _____ _____    ______ ____

>  <TORSDO>
F 4

$$$$
=
 OpenBabel10262423443D

 34 39  0  0  1  0  0  0  0  0999 V2000
  185.4730  178.3770  144.2920 C   0  0  0  0  0  0  0  0  0  0  0  0
  186.7030  177.9190  142.2560 C   0  0  0  0  0  0  0  0  0  0  0  0
  187.9020  178.0050  144.4000 C   0  0  0  0  0  0  0  0  0  0  0  0
  190.4990  178.0440  143.9350 C   0  0  2  0  0  0  0  0  0  0  0  0
  184.3510  178.2620  142.1650 C   0  0  0  0  0  3  0  0  0  0  0  0
  190.9810  176.7460  147.0770 C   0  0  1  0  0  3  0  0  0  0  0  0
  185.5400  178.0120  141.5550 N   0  0  0  0  0  0  0  0  0  0  0  0
  188.9920  176.9670  142.3840 C   0  0  1  0  0  3  0  0  0  0  0  0
  188.8880  176.3350  148.1780 O   0  0  0  0  0  1  0  0  0  0  0  0
  186.7010  178.1000  143.6530 C   0  0  0  0  0  0  0  0  0  0  0  0
  191.6140  177.5190  146.0700 O   0  0  0  0  0  0  0  0  0  0  0  0
  191.1700  177.9980  142.5740 C   0  0  0  0  0  2  0  0  0  0  0  0
  184.2970  178.4510  143.5460 C   0  0  0  0  0  3  0  0  0  0  0  0
  187.8350  178.2370  145.8040 C   0  0  0  0  0  0  0  0  0  0  0  0
  189.4540  176.7810  146.9820 C   0  0  1  0  0  3  0  0  0  0  0  0
  185.4340  178.5850  145.6660 C   0  0  0  0  0  3  0  0  0  0  0  0
  187.9870  177.7270  141.5160 C   0  0  0  0  0  2  0  0  0  0  0  0
  190.5800  179.4820  144.4380 C   0  0  0  0  0  1  0  0  0  0  0  0
  191.2410  177.0170  144.8100 C   0  0  0  0  0  2  0  0  0  0  0  0
  189.0120  178.2050  146.7100 C   0  0  0  0  0  2  0  0  0  0  0  0
  190.3990  176.9580  141.7880 C   0  0  2  0  0  3  0  0  0  0  0  0
  189.1150  177.6140  143.6900 N   0  0  0  0  0  0  0  0  0  0  0  0
  186.6070  178.5200  146.4120 C   0  0  0  0  0  3  0  0  0  0  0  0
  191.5180  175.3180  147.1500 C   0  0  0  0  0  2  0  0  0  0  0  0
  192.7230  175.2570  148.0690 C   0  0  0  0  0  1  0  0  0  0  0  0
  190.4220  177.2590  140.4230 O   0  0  0  0  0  0  0  0  0  0  0  0
  190.5370  176.0690  139.8140 O   0  0  0  0  0  0  0  0  0  0  0  0
  188.1710  176.4600  138.3930 F   0  0  0  0  0  0  0  0  0  0  0  0
  190.4860  175.9540  138.4240 C   0  0  0  0  0  0  0  0  0  0  0  0
  189.3460  176.6100  137.6810 C   0  0  1  0  0  3  0  0  0  0  0  0
  190.4460  176.1380  135.6290 C   0  0  0  0  0  2  0  0  0  0  0  0
  191.4370  175.1670  136.2640 C   0  0  0  0  0  2  0  0  0  0  0  0
  191.4690  175.3350  137.7560 C   0  0  0  0  0  3  0  0  0  0  0  0
  189.1720  176.0510  136.3370 N   0  0  0  0  0  2  0  0  0  0  0  0
  1 16  1  0  0  0  0
  2 10  1  0  0  0  0
  3 14  2  0  0  0  0
  4 18  1  1  0  0  0
  4 19  1  0  0  0  0
  5 13  2  0  0  0  0
  6 24  1  6  0  0  0
  7  5  1  0  0  0  0
  7  2  2  0  0  0  0
  8 17  1  6  0  0  0
  8 22  1  0  0  0  0
 10  1  2  0  0  0  0
 10  3  1  0  0  0  0
 11  6  1  0  0  0  0
 12  4  1  0  0  0  0
 13  1  1  0  0  0  0
 14 23  1  0  0  0  0
 14 20  1  0  0  0  0
 15  6  1  0  0  0  0
 15  9  1  1  0  0  0
 16 23  2  0  0  0  0
 17  2  1  0  0  0  0
 19 11  1  0  0  0  0
 20 15  1  0  0  0  0
 21 26  1  6  0  0  0
 21  8  1  0  0  0  0
 21 12  1  0  0  0  0
 22  4  1  0  0  0  0
 22  3  1  0  0  0  0
 24 25  1  0  0  0  0
 27 26  1  0  0  0  0
 29 27  1  0  0  0  0
 30 28  1  1  0  0  0
 30 29  1  0  0  0  0
 31 32  1  0  0  0  0
 31 34  1  0  0  0  0
 32 33  1  0  0  0  0
 33 29  2  0  0  0  0
 34 30  1  0  0  0  0
M  END
>  <MODEL>
2

>  <REMARK>
 VINA RESULT:      -9.3      1.350      1.505
  Name = 
  4 active torsions:
  status: ('A' for Active; 'I' for Inactive)
    1  A    between atoms: O_3  and  C_13
    2  A    between atoms: O_3  and  O_17
    3  A    between atoms: C_7  and  C_8
    4  A    between atoms: O_17  and  C_29
                            x       y       z     vdW  Elec       q    Type
                         _______ _______ _______ _____ _____    ______ ____

>  <TORSDO>
F 4

$$$$
=
 OpenBabel10262423443D

 34 39  0  0  1  0  0  0  0  0999 V2000
  192.5670  175.7860  135.7090 C   0  0  0  0  0  0  0  0  0  0  0  0
  192.5330  176.1950  138.0960 C   0  0  0  0  0  0  0  0  0  0  0  0
  190.5240  176.6650  136.7590 C   0  0  0  0  0  0  0  0  0  0  0  0
  188.8120  178.0360  138.2260 C   0  0  2  0  0  0  0  0  0  0  0  0
  194.4960  175.3280  137.0730 C   0  0  0  0  0  3  0  0  0  0  0  0
  186.2950  176.8630  136.2090 C   0  0  1  0  0  3  0  0  0  0  0  0
  193.8200  175.7610  138.1700 N   0  0  0  0  0  0  0  0  0  0  0  0
  190.3640  176.5020  139.2650 C   0  0  1  0  0  3  0  0  0  0  0  0
  187.1460  175.3620  134.5400 O   0  0  0  0  0  1  0  0  0  0  0  0
  191.8660  176.2190  136.8550 C   0  0  0  0  0  0  0  0  0  0  0  0
  186.6390  177.9380  137.0660 O   0  0  0  0  0  0  0  0  0  0  0  0
  189.0030  178.4570  139.6720 C   0  0  0  0  0  2  0  0  0  0  0  0
  193.8820  175.3340  135.8210 C   0  0  0  0  0  3  0  0  0  0  0  0
  189.9240  176.7000  135.4680 C   0  0  0  0  0  0  0  0  0  0  0  0
  187.5170  176.1400  135.6380 C   0  0  1  0  0  3  0  0  0  0  0  0
  191.9510  175.8170  134.4630 C   0  0  0  0  0  3  0  0  0  0  0  0
  191.8750  176.7380  139.3230 C   0  0  0  0  0  2  0  0  0  0  0  0
  189.0340  179.2680  137.3560 C   0  0  0  0  0  1  0  0  0  0  0  0
  187.3960  177.4380  138.1420 C   0  0  0  0  0  2  0  0  0  0  0  0
  188.5390  177.1740  135.2070 C   0  0  0  0  0  2  0  0  0  0  0  0
  189.6060  177.2510  140.3600 C   0  0  2  0  0  3  0  0  0  0  0  0
  189.8280  176.9980  137.9970 N   0  0  0  0  0  0  0  0  0  0  0  0
  190.6430  176.2750  134.3460 C   0  0  0  0  0  3  0  0  0  0  0  0
  185.3030  175.8920  136.8480 C   0  0  0  0  0  2  0  0  0  0  0  0
  183.8970  176.4560  136.7800 C   0  0  0  0  0  1  0  0  0  0  0  0
  190.4240  177.6500  141.4220 O   0  0  0  0  0  0  0  0  0  0  0  0
  190.3040  176.6690  142.3300 O   0  0  0  0  0  0  0  0  0  0  0  0
  191.8630  176.0950  144.5670 F   0  0  0  0  0  0  0  0  0  0  0  0
  189.8550  176.9280  143.6260 C   0  0  0  0  0  0  0  0  0  0  0  0
  190.8700  177.0400  144.7390 C   0  0  1  0  0  3  0  0  0  0  0  0
  189.1560  177.8140  146.1900 C   0  0  0  0  0  2  0  0  0  0  0  0
  188.0290  177.4000  145.2490 C   0  0  0  0  0  2  0  0  0  0  0  0
  188.5540  177.1450  143.8660 C   0  0  0  0  0  3  0  0  0  0  0  0
  190.2590  176.8670  146.0600 N   0  0  0  0  0  2  0  0  0  0  0  0
  1 13  2  0  0  0  0
  1 10  1  0  0  0  0
  2  7  1  0  0  0  0
  2 17  1  0  0  0  0
  3 10  1  0  0  0  0
  3 22  1  0  0  0  0
  4 18  1  6  0  0  0
  4 12  1  0  0  0  0
  5  7  2  0  0  0  0
  6 24  1  1  0  0  0
  6 11  1  0  0  0  0
  8 17  1  6  0  0  0
  8 21  1  0  0  0  0
 10  2  2  0  0  0  0
 11 19  1  0  0  0  0
 12 21  1  0  0  0  0
 13  5  1  0  0  0  0
 14  3  2  0  0  0  0
 15  9  1  6  0  0  0
 15  6  1  0  0  0  0
 16  1  1  0  0  0  0
 19  4  1  0  0  0  0
 20 14  1  0  0  0  0
 20 15  1  0  0  0  0
 21 26  1  1  0  0  0
 22  4  1  0  0  0  0
 22  8  1  0  0  0  0
 23 16  2  0  0  0  0
 23 14  1  0  0  0  0
 25 24  1  0  0  0  0
 26 27  1  0  0  0  0
 27 29  1  0  0  0  0
 29 33  2  0  0  0  0
 29 30  1  0  0  0  0
 30 28  1  6  0  0  0
 30 34  1  0  0  0  0
 32 31  1  0  0  0  0
 33 32  1  0  0  0  0
 34 31  1  0  0  0  0
M  END
>  <MODEL>
3

>  <REMARK>
 VINA RESULT:      -8.1      3.004      9.205
  Name = 
  4 active torsions:
  status: ('A' for Active; 'I' for Inactive)
    1  A    between atoms: O_3  and  C_13
    2  A    between atoms: O_3  and  O_17
    3  A    between atoms: C_7  and  C_8
    4  A    between atoms: O_17  and  C_29
                            x       y       z     vdW  Elec       q    Type
                         _______ _______ _______ _____ _____    ______ ____

>  <TORSDO>
F 4

$$$$
=
 OpenBabel10262423443D

 34 39  0  0  1  0  0  0  0  0999 V2000
  183.2250  178.7790  144.3380 C   0  0  0  0  0  0  0  0  0  0  0  0
  185.3620  178.5940  143.2120 C   0  0  0  0  0  0  0  0  0  0  0  0
  183.3010  178.7490  141.8800 C   0  0  0  0  0  0  0  0  0  0  0  0
  183.8550  178.1770  139.3640 C   0  0  2  0  0  0  0  0  0  0  0  0
  185.2780  178.6420  145.5880 C   0  0  0  0  0  3  0  0  0  0  0  0
  181.0900  179.9930  138.4460 C   0  0  1  0  0  3  0  0  0  0  0  0
  185.9760  178.5570  144.4240 N   0  0  0  0  0  0  0  0  0  0  0  0
  185.5380  179.1510  140.7980 C   0  0  1  0  0  3  0  0  0  0  0  0
  180.0170  180.9700  140.3580 O   0  0  0  0  0  1  0  0  0  0  0  0
  183.9600  178.7070  143.1340 C   0  0  0  0  0  0  0  0  0  0  0  0
  181.9310  178.9340  138.0200 O   0  0  0  0  0  0  0  0  0  0  0  0
  185.2210  177.8290  138.8010 C   0  0  0  0  0  2  0  0  0  0  0  0
  183.8880  178.7530  145.5650 C   0  0  0  0  0  3  0  0  0  0  0  0
  181.8790  178.8260  141.8750 C   0  0  0  0  0  0  0  0  0  0  0  0
  181.1110  180.1980  139.9620 C   0  0  1  0  0  3  0  0  0  0  0  0
  181.8380  178.8680  144.3040 C   0  0  0  0  0  3  0  0  0  0  0  0
  186.1790  178.4100  141.9740 C   0  0  0  0  0  2  0  0  0  0  0  0
  183.0580  176.8810  139.4710 C   0  0  0  0  0  1  0  0  0  0  0  0
  183.2540  179.2220  138.4060 C   0  0  0  0  0  2  0  0  0  0  0  0
  181.0510  178.8440  140.6410 C   0  0  0  0  0  2  0  0  0  0  0  0
  186.1790  178.7990  139.4570 C   0  0  2  0  0  3  0  0  0  0  0  0
  184.1290  178.7760  140.6780 N   0  0  0  0  0  0  0  0  0  0  0  0
  181.1740  178.8860  143.0810 C   0  0  0  0  0  3  0  0  0  0  0  0
  181.3480  181.2940  137.6880 C   0  0  0  0  0  2  0  0  0  0  0  0
  180.4230  181.3970  136.4900 C   0  0  0  0  0  1  0  0  0  0  0  0
  187.4470  178.2250  139.5870 O   0  0  0  0  0  0  0  0  0  0  0  0
  188.1670  178.7620  138.5900 O   0  0  0  0  0  0  0  0  0  0  0  0
  190.5950  177.5780  139.2780 F   0  0  0  0  0  0  0  0  0  0  0  0
  188.8770  177.9630  137.6920 C   0  0  0  0  0  0  0  0  0  0  0  0
  189.9040  176.9950  138.2320 C   0  0  1  0  0  3  0  0  0  0  0  0
  190.1020  176.0370  136.0680 C   0  0  0  0  0  2  0  0  0  0  0  0
  189.3600  177.1790  135.3810 C   0  0  0  0  0  2  0  0  0  0  0  0
  188.6010  178.0020  136.3810 C   0  0  0  0  0  3  0  0  0  0  0  0
  190.8540  176.5690  137.2010 N   0  0  0  0  0  2  0  0  0  0  0  0
  1 13  2  0  0  0  0
  2  7  1  0  0  0  0
  3 10  1  0  0  0  0
  4 18  1  1  0  0  0
  4 22  1  0  0  0  0
  6 24  1  6  0  0  0
  6 15  1  0  0  0  0
  7  5  2  0  0  0  0
  8 17  1  1  0  0  0
 10  2  2  0  0  0  0
 10  1  1  0  0  0  0
 11 19  1  0  0  0  0
 11  6  1  0  0  0  0
 12  4  1  0  0  0  0
 12 21  1  0  0  0  0
 13  5  1  0  0  0  0
 14  3  2  0  0  0  0
 14 23  1  0  0  0  0
 15  9  1  1  0  0  0
 15 20  1  0  0  0  0
 16  1  1  0  0  0  0
 17  2  1  0  0  0  0
 19  4  1  0  0  0  0
 20 14  1  0  0  0  0
 21 26  1  1  0  0  0
 21  8  1  0  0  0  0
 22  8  1  0  0  0  0
 22  3  1  0  0  0  0
 23 16  2  0  0  0  0
 25 24  1  0  0  0  0
 27 26  1  0  0  0  0
 29 30  1  0  0  0  0
 29 27  1  0  0  0  0
 30 28  1  1  0  0  0
 31 34  1  0  0  0  0
 32 31  1  0  0  0  0
 32 33  1  0  0  0  0
 33 29  2  0  0  0  0
 34 30  1  0  0  0  0
M  END
>  <MODEL>
4

>  <REMARK>
 VINA RESULT:      -7.9      4.126      7.561
  Name = 
  4 active torsions:
  status: ('A' for Active; 'I' for Inactive)
    1  A    between atoms: O_3  and  C_13
    2  A    between atoms: O_3  and  O_17
    3  A    between atoms: C_7  and  C_8
    4  A    between atoms: O_17  and  C_29
                            x       y       z     vdW  Elec       q    Type
                         _______ _______ _______ _____ _____    ______ ____

>  <TORSDO>
F 4

$$$$
=
 OpenBabel10262423443D

 34 39  0  0  1  0  0  0  0  0999 V2000
  190.7810  176.9530  144.7290 C   0  0  0  0  0  0  0  0  0  0  0  0
  188.4310  177.3170  145.1920 C   0  0  0  0  0  0  0  0  0  0  0  0
  189.2620  177.5550  142.8910 C   0  0  0  0  0  0  0  0  0  0  0  0
  187.3900  178.6790  141.4100 C   0  0  2  0  0  0  0  0  0  0  0  0
  189.9060  176.7170  146.9590 C   0  0  0  0  0  3  0  0  0  0  0  0
  188.8400  177.2340  138.6540 C   0  0  1  0  0  3  0  0  0  0  0  0
  188.6680  177.0450  146.5040 N   0  0  0  0  0  0  0  0  0  0  0  0
  186.7930  177.3340  143.3260 C   0  0  1  0  0  3  0  0  0  0  0  0
  190.7210  175.8780  139.2730 O   0  0  0  0  0  1  0  0  0  0  0  0
  189.4890  177.2770  144.2620 C   0  0  0  0  0  0  0  0  0  0  0  0
  188.0360  178.3310  139.0570 O   0  0  0  0  0  0  0  0  0  0  0  0
  186.0070  179.0980  141.8750 C   0  0  0  0  0  2  0  0  0  0  0  0
  190.9860  176.6660  146.0780 C   0  0  0  0  0  3  0  0  0  0  0  0
  190.3820  177.5350  142.0120 C   0  0  0  0  0  0  0  0  0  0  0  0
  189.7010  176.6790  139.7910 C   0  0  1  0  0  3  0  0  0  0  0  0
  191.8550  176.9270  143.8460 C   0  0  0  0  0  3  0  0  0  0  0  0
  187.0660  177.7540  144.7720 C   0  0  0  0  0  2  0  0  0  0  0  0
  188.2330  179.9430  141.2810 C   0  0  0  0  0  1  0  0  0  0  0  0
  187.1800  177.9110  140.0920 C   0  0  0  0  0  2  0  0  0  0  0  0
  190.3050  177.8370  140.5580 C   0  0  0  0  0  2  0  0  0  0  0  0
  185.5240  177.9660  142.7560 C   0  0  2  0  0  3  0  0  0  0  0  0
  187.8860  177.7800  142.4610 N   0  0  0  0  0  0  0  0  0  0  0  0
  191.6540  177.2200  142.5010 C   0  0  0  0  0  3  0  0  0  0  0  0
  188.0370  176.1380  137.9560 C   0  0  0  0  0  2  0  0  0  0  0  0
  187.6120  176.5970  136.5740 C   0  0  0  0  0  1  0  0  0  0  0  0
  184.6570  178.4460  143.7420 O   0  0  0  0  0  0  0  0  0  0  0  0
  183.8280  179.2750  143.0890 O   0  0  0  0  0  0  0  0  0  0  0  0
  182.7470  179.3580  140.5220 F   0  0  0  0  0  0  0  0  0  0  0  0
  182.4990  178.9270  142.8380 C   0  0  0  0  0  0  0  0  0  0  0  0
  182.1000  178.5440  141.4320 C   0  0  1  0  0  3  0  0  0  0  0  0
  179.9840  177.8440  142.2510 C   0  0  0  0  0  2  0  0  0  0  0  0
  180.1680  178.5180  143.6070 C   0  0  0  0  0  2  0  0  0  0  0  0
  181.6110  178.8630  143.8400 C   0  0  0  0  0  3  0  0  0  0  0  0
  180.6520  178.6400  141.2270 N   0  0  0  0  0  2  0  0  0  0  0  0
  1 13  2  0  0  0  0
  2  7  1  0  0  0  0
  3 10  1  0  0  0  0
  4 18  1  6  0  0  0
  4 12  1  0  0  0  0
  4 22  1  0  0  0  0
  6 24  1  1  0  0  0
  6 11  1  0  0  0  0
  6 15  1  0  0  0  0
  7  5  2  0  0  0  0
  8 17  1  1  0  0  0
 10  1  1  0  0  0  0
 10  2  2  0  0  0  0
 11 19  1  0  0  0  0
 12 21  1  0  0  0  0
 13  5  1  0  0  0  0
 14 23  1  0  0  0  0
 14  3  2  0  0  0  0
 15  9  1  6  0  0  0
 15 20  1  0  0  0  0
 16  1  1  0  0  0  0
 17  2  1  0  0  0  0
 19  4  1  0  0  0  0
 20 14  1  0  0  0  0
 21  8  1  0  0  0  0
 21 26  1  1  0  0  0
 22  3  1  0  0  0  0
 22  8  1  0  0  0  0
 23 16  2  0  0  0  0
 25 24  1  0  0  0  0
 27 26  1  0  0  0  0
 29 27  1  0  0  0  0
 29 33  2  0  0  0  0
 30 28  1  6  0  0  0
 30 29  1  0  0  0  0
 31 32  1  0  0  0  0
 32 33  1  0  0  0  0
 34 30  1  0  0  0  0
 34 31  1  0  0  0  0
M  END
>  <MODEL>
5

>  <REMARK>
 VINA RESULT:      -7.7      3.403      8.086
  Name = 
  4 active torsions:
  status: ('A' for Active; 'I' for Inactive)
    1  A    between atoms: O_3  and  C_13
    2  A    between atoms: O_3  and  O_17
    3  A    between atoms: C_7  and  C_8
    4  A    between atoms: O_17  and  C_29
                            x       y       z     vdW  Elec       q    Type
                         _______ _______ _______ _____ _____    ______ ____

>  <TORSDO>
F 4

$$$$
=
 OpenBabel10262423443D

 34 39  0  0  1  0  0  0  0  0999 V2000
  192.3110  174.3390  136.8100 C   0  0  0  0  0  0  0  0  0  0  0  0
  191.6630  176.2120  138.2030 C   0  0  0  0  0  0  0  0  0  0  0  0
  189.9470  175.0050  136.9230 C   0  0  0  0  0  0  0  0  0  0  0  0
  187.6980  176.3840  136.9800 C   0  0  2  0  0  0  0  0  0  0  0  0
  193.9440  175.5480  138.1020 C   0  0  0  0  0  3  0  0  0  0  0  0
  186.0040  173.4580  136.3840 C   0  0  1  0  0  3  0  0  0  0  0  0
  192.9650  176.3690  138.5660 N   0  0  0  0  0  0  0  0  0  0  0  0
  189.2750  176.5350  138.8040 C   0  0  1  0  0  3  0  0  0  0  0  0
  187.5070  171.5900  136.2740 O   0  0  0  0  0  1  0  0  0  0  0  0
  191.2980  175.1860  137.3100 C   0  0  0  0  0  0  0  0  0  0  0  0
  185.9090  174.8640  136.2260 O   0  0  0  0  0  0  0  0  0  0  0  0
  187.4690  177.7000  137.7010 C   0  0  0  0  0  2  0  0  0  0  0  0
  193.6350  174.5190  137.2140 C   0  0  0  0  0  3  0  0  0  0  0  0
  189.6530  173.9720  135.9860 C   0  0  0  0  0  0  0  0  0  0  0  0
  187.4490  172.9670  136.4970 C   0  0  1  0  0  3  0  0  0  0  0  0
  191.9950  173.3300  135.9090 C   0  0  0  0  0  3  0  0  0  0  0  0
  190.6490  177.1990  138.6810 C   0  0  0  0  0  2  0  0  0  0  0  0
  187.8340  176.6920  135.4930 C   0  0  0  0  0  1  0  0  0  0  0  0
  186.4990  175.4870  137.3420 C   0  0  0  0  0  2  0  0  0  0  0  0
  188.2920  173.6860  135.4630 C   0  0  0  0  0  2  0  0  0  0  0  0
  188.1510  177.5410  139.0430 C   0  0  2  0  0  3  0  0  0  0  0  0
  188.9390  175.8470  137.5570 N   0  0  0  0  0  0  0  0  0  0  0  0
  190.6770  173.1530  135.4990 C   0  0  0  0  0  3  0  0  0  0  0  0
  185.1300  172.9310  137.5210 C   0  0  0  0  0  2  0  0  0  0  0  0
  184.0260  172.0490  136.9700 C   0  0  0  0  0  1  0  0  0  0  0  0
  188.6070  178.7770  139.5100 O   0  0  0  0  0  0  0  0  0  0  0  0
  187.8560  179.0300  140.5930 O   0  0  0  0  0  0  0  0  0  0  0  0
  185.8770  178.7150  142.5300 F   0  0  0  0  0  0  0  0  0  0  0  0
  188.1170  178.4170  141.8190 C   0  0  0  0  0  0  0  0  0  0  0  0
  186.9600  177.8610  142.6170 C   0  0  1  0  0  3  0  0  0  0  0  0
  188.5070  176.8320  144.0960 C   0  0  0  0  0  2  0  0  0  0  0  0
  189.6990  177.6280  143.5710 C   0  0  0  0  0  2  0  0  0  0  0  0
  189.3780  178.2580  142.2460 C   0  0  0  0  0  3  0  0  0  0  0  0
  187.3100  177.6640  144.0270 N   0  0  0  0  0  2  0  0  0  0  0  0
  1 13  2  0  0  0  0
  1 10  1  0  0  0  0
  2  7  1  0  0  0  0
  2 17  1  0  0  0  0
  3 10  1  0  0  0  0
  3 22  1  0  0  0  0
  4 18  1  6  0  0  0
  4 19  1  0  0  0  0
  4 22  1  0  0  0  0
  4 12  1  0  0  0  0
  5  7  2  0  0  0  0
  6 15  1  0  0  0  0
  6 24  1  1  0  0  0
  8 17  1  6  0  0  0
  8 21  1  0  0  0  0
 10  2  2  0  0  0  0
 11  6  1  0  0  0  0
 11 19  1  0  0  0  0
 12 21  1  0  0  0  0
 13  5  1  0  0  0  0
 14  3  2  0  0  0  0
 15  9  1  6  0  0  0
 16  1  1  0  0  0  0
 20 14  1  0  0  0  0
 20 15  1  0  0  0  0
 21 26  1  6  0  0  0
 22  8  1  0  0  0  0
 23 16  2  0  0  0  0
 23 14  1  0  0  0  0
 25 24  1  0  0  0  0
 26 27  1  0  0  0  0
 27 29  1  0  0  0  0
 29 33  2  0  0  0  0
 29 30  1  0  0  0  0
 30 28  1  1  0  0  0
 30 34  1  0  0  0  0
 32 31  1  0  0  0  0
 33 32  1  0  0  0  0
 34 31  1  0  0  0  0
M  END
>  <MODEL>
6

>  <REMARK>
 VINA RESULT:      -7.3      3.761      9.247
  Name = 
  4 active torsions:
  status: ('A' for Active; 'I' for Inactive)
    1  A    between atoms: O_3  and  C_13
    2  A    between atoms: O_3  and  O_17
    3  A    between atoms: C_7  and  C_8
    4  A    between atoms: O_17  and  C_29
                            x       y       z     vdW  Elec       q    Type
                         _______ _______ _______ _____ _____    ______ ____

>  <TORSDO>
F 4

$$$$
=
 OpenBabel10262423443D

 34 39  0  0  1  0  0  0  0  0999 V2000
  187.3620  177.9440  137.4860 C   0  0  0  0  0  0  0  0  0  0  0  0
  187.2700  178.4760  139.8470 C   0  0  0  0  0  0  0  0  0  0  0  0
  185.1910  177.9570  138.6420 C   0  0  0  0  0  0  0  0  0  0  0  0
  183.1300  178.5840  140.1650 C   0  0  2  0  0  0  0  0  0  0  0  0
  189.3650  178.4430  138.7240 C   0  0  0  0  0  3  0  0  0  0  0  0
  181.2570  176.3150  138.3970 C   0  0  1  0  0  3  0  0  0  0  0  0
  188.6210  178.6310  139.8460 N   0  0  0  0  0  0  0  0  0  0  0  0
  185.2330  177.9280  141.1570 C   0  0  1  0  0  3  0  0  0  0  0  0
  182.5860  175.1930  136.7420 O   0  0  0  0  0  1  0  0  0  0  0  0
  186.5980  178.1250  138.6590 C   0  0  0  0  0  0  0  0  0  0  0  0
  181.1530  177.4960  139.1740 O   0  0  0  0  0  0  0  0  0  0  0  0
  183.1920  179.1530  141.5710 C   0  0  0  0  0  2  0  0  0  0  0  0
  188.7480  178.0970  137.5220 C   0  0  0  0  0  3  0  0  0  0  0  0
  184.5730  177.6400  137.3980 C   0  0  0  0  0  0  0  0  0  0  0  0
  182.6430  176.1340  137.7720 C   0  0  1  0  0  3  0  0  0  0  0  0
  186.7340  177.6210  136.2880 C   0  0  0  0  0  3  0  0  0  0  0  0
  186.5020  178.7810  141.0920 C   0  0  0  0  0  2  0  0  0  0  0  0
  182.7670  179.7270  139.2240 C   0  0  0  0  0  1  0  0  0  0  0  0
  182.1000  177.4420  140.2140 C   0  0  0  0  0  2  0  0  0  0  0  0
  183.1070  177.4660  137.2180 C   0  0  0  0  0  2  0  0  0  0  0  0
  184.2810  178.3670  142.2690 C   0  0  2  0  0  3  0  0  0  0  0  0
  184.4780  178.0570  139.9110 N   0  0  0  0  0  0  0  0  0  0  0  0
  185.3510  177.4750  136.2480 C   0  0  0  0  0  3  0  0  0  0  0  0
  180.8030  175.0680  139.1530 C   0  0  0  0  0  2  0  0  0  0  0  0
  179.9820  174.1720  138.2450 C   0  0  0  0  0  1  0  0  0  0  0  0
  184.9010  179.1510  143.2480 O   0  0  0  0  0  0  0  0  0  0  0  0
  184.7870  178.4360  144.3770 O   0  0  0  0  0  0  0  0  0  0  0  0
  186.8540  176.7140  143.6470 F   0  0  0  0  0  0  0  0  0  0  0  0
  185.8850  178.2090  145.2090 C   0  0  0  0  0  0  0  0  0  0  0  0
  187.1570  177.6640  144.6040 C   0  0  1  0  0  3  0  0  0  0  0  0
  188.2760  178.0600  146.6610 C   0  0  0  0  0  2  0  0  0  0  0  0
  186.9840  178.2840  147.4410 C   0  0  0  0  0  2  0  0  0  0  0  0
  185.8340  178.5370  146.5080 C   0  0  0  0  0  3  0  0  0  0  0  0
  188.0370  177.0710  145.6150 N   0  0  0  0  0  2  0  0  0  0  0  0
  1 13  2  0  0  0  0
  1 10  1  0  0  0  0
  2 17  1  0  0  0  0
  3 10  1  0  0  0  0
  3 22  1  0  0  0  0
  4 18  1  6  0  0  0
  4 19  1  0  0  0  0
  4 12  1  0  0  0  0
  5  7  2  0  0  0  0
  6 24  1  1  0  0  0
  6 11  1  0  0  0  0
  7  2  1  0  0  0  0
  8 17  1  6  0  0  0
  8 21  1  0  0  0  0
 10  2  2  0  0  0  0
 11 19  1  0  0  0  0
 12 21  1  0  0  0  0
 13  5  1  0  0  0  0
 14  3  2  0  0  0  0
 15  9  1  6  0  0  0
 15  6  1  0  0  0  0
 16  1  1  0  0  0  0
 20 14  1  0  0  0  0
 20 15  1  0  0  0  0
 21 26  1  1  0  0  0
 22  4  1  0  0  0  0
 22  8  1  0  0  0  0
 23 16  2  0  0  0  0
 23 14  1  0  0  0  0
 25 24  1  0  0  0  0
 26 27  1  0  0  0  0
 27 29  1  0  0  0  0
 29 33  2  0  0  0  0
 30 28  1  6  0  0  0
 30 29  1  0  0  0  0
 30 34  1  0  0  0  0
 31 32  1  0  0  0  0
 33 32  1  0  0  0  0
 34 31  1  0  0  0  0
M  END
>  <MODEL>
7

>  <REMARK>
 VINA RESULT:      -7.1      4.417      9.300
  Name = 
  4 active torsions:
  status: ('A' for Active; 'I' for Inactive)
    1  A    between atoms: O_3  and  C_13
    2  A    between atoms: O_3  and  O_17
    3  A    between atoms: C_7  and  C_8
    4  A    between atoms: O_17  and  C_29
                            x       y       z     vdW  Elec       q    Type
                         _______ _______ _______ _____ _____    ______ ____

>  <TORSDO>
F 4

$$$$
=
 OpenBabel10262423443D

 34 39  0  0  1  0  0  0  0  0999 V2000
  191.9790  176.4720  137.9920 C   0  0  0  0  0  0  0  0  0  0  0  0
  190.6370  177.5240  139.7130 C   0  0  0  0  0  0  0  0  0  0  0  0
  189.5640  176.7650  137.6350 C   0  0  0  0  0  0  0  0  0  0  0  0
  187.1140  177.7380  137.5240 C   0  0  2  0  0  0  0  0  0  0  0  0
  192.9710  177.2200  140.0550 C   0  0  0  0  0  3  0  0  0  0  0  0
  186.2840  175.1450  135.4340 C   0  0  1  0  0  3  0  0  0  0  0  0
  191.7560  177.6630  140.4740 N   0  0  0  0  0  0  0  0  0  0  0  0
  188.1640  177.3040  139.6560 C   0  0  1  0  0  3  0  0  0  0  0  0
  188.1460  173.6670  135.1000 O   0  0  0  0  0  1  0  0  0  0  0  0
  190.7190  176.9210  138.4420 C   0  0  0  0  0  0  0  0  0  0  0  0
  185.9210  176.4720  135.7770 O   0  0  0  0  0  0  0  0  0  0  0  0
  186.4440  178.6090  138.5720 C   0  0  0  0  0  2  0  0  0  0  0  0
  193.1040  176.6170  138.8040 C   0  0  0  0  0  3  0  0  0  0  0  0
  189.7240  176.1810  136.3460 C   0  0  0  0  0  0  0  0  0  0  0  0
  187.7380  174.8160  135.7810 C   0  0  1  0  0  3  0  0  0  0  0  0
  192.1050  175.8930  136.7350 C   0  0  0  0  0  3  0  0  0  0  0  0
  189.3490  178.1090  140.1950 C   0  0  0  0  0  2  0  0  0  0  0  0
  187.5130  178.6430  136.3630 C   0  0  0  0  0  1  0  0  0  0  0  0
  186.0920  176.6450  137.1640 C   0  0  0  0  0  2  0  0  0  0  0  0
  188.6140  175.9840  135.3780 C   0  0  0  0  0  2  0  0  0  0  0  0
  186.8220  177.9910  139.9010 C   0  0  2  0  0  3  0  0  0  0  0  0
  188.2790  177.1550  138.2050 N   0  0  0  0  0  0  0  0  0  0  0  0
  190.9860  175.7540  135.9200 C   0  0  0  0  0  3  0  0  0  0  0  0
  185.3130  174.1050  135.9890 C   0  0  0  0  0  2  0  0  0  0  0  0
  183.9970  174.1600  135.2360 C   0  0  0  0  0  1  0  0  0  0  0  0
  186.8780  178.9700  140.8990 O   0  0  0  0  0  0  0  0  0  0  0  0
  185.8640  178.6710  141.7250 O   0  0  0  0  0  0  0  0  0  0  0  0
  184.6420  180.1780  143.7260 F   0  0  0  0  0  0  0  0  0  0  0  0
  186.0810  178.4110  143.0790 C   0  0  0  0  0  0  0  0  0  0  0  0
  185.0770  178.9170  144.0880 C   0  0  1  0  0  3  0  0  0  0  0  0
  186.1690  177.6500  145.7730 C   0  0  0  0  0  2  0  0  0  0  0  0
  187.4040  177.3810  144.9180 C   0  0  0  0  0  2  0  0  0  0  0  0
  187.1210  177.6620  143.4700 C   0  0  0  0  0  3  0  0  0  0  0  0
  185.6360  178.9680  145.4420 N   0  0  0  0  0  2  0  0  0  0  0  0
  1 10  1  0  0  0  0
  1 13  2  0  0  0  0
  2 17  1  0  0  0  0
  2  7  1  0  0  0  0
  3 22  1  0  0  0  0
  3 10  1  0  0  0  0
  4 18  1  6  0  0  0
  4 22  1  0  0  0  0
  4 12  1  0  0  0  0
  5  7  2  0  0  0  0
  6 11  1  0  0  0  0
  6 15  1  0  0  0  0
  6 24  1  1  0  0  0
  8 21  1  0  0  0  0
  8 17  1  6  0  0  0
 10  2  2  0  0  0  0
 11 19  1  0  0  0  0
 12 21  1  0  0  0  0
 13  5  1  0  0  0  0
 14  3  2  0  0  0  0
 15  9  1  6  0  0  0
 16  1  1  0  0  0  0
 19  4  1  0  0  0  0
 20 15  1  0  0  0  0
 20 14  1  0  0  0  0
 21 26  1  1  0  0  0
 22  8  1  0  0  0  0
 23 14  1  0  0  0  0
 23 16  2  0  0  0  0
 25 24  1  0  0  0  0
 26 27  1  0  0  0  0
 27 29  1  0  0  0  0
 29 33  2  0  0  0  0
 29 30  1  0  0  0  0
 30 28  1  6  0  0  0
 30 34  1  0  0  0  0
 32 31  1  0  0  0  0
 33 32  1  0  0  0  0
 34 31  1  0  0  0  0
M  END
>  <MODEL>
8

>  <REMARK>
 VINA RESULT:      -7.1      3.867      9.327
  Name = 
  4 active torsions:
  status: ('A' for Active; 'I' for Inactive)
    1  A    between atoms: O_3  and  C_13
    2  A    between atoms: O_3  and  O_17
    3  A    between atoms: C_7  and  C_8
    4  A    between atoms: O_17  and  C_29
                            x       y       z     vdW  Elec       q    Type
                         _______ _______ _______ _____ _____    ______ ____

>  <TORSDO>
F 4

$$$$
=
 OpenBabel10262423443D

 34 39  0  0  1  0  0  0  0  0999 V2000
  191.1040  177.1240  140.1610 C   0  0  0  0  0  0  0  0  0  0  0  0
  189.1990  178.0760  141.3150 C   0  0  0  0  0  0  0  0  0  0  0  0
  188.9550  177.3350  138.9840 C   0  0  0  0  0  0  0  0  0  0  0  0
  186.6580  178.2180  138.0330 C   0  0  2  0  0  0  0  0  0  0  0  0
  191.2770  177.8500  142.4500 C   0  0  0  0  0  3  0  0  0  0  0  0
  186.7290  175.6550  135.7510 C   0  0  1  0  0  3  0  0  0  0  0  0
  189.9730  178.2360  142.4220 N   0  0  0  0  0  0  0  0  0  0  0  0
  186.9150  177.7650  140.3930 C   0  0  1  0  0  3  0  0  0  0  0  0
  188.6540  174.2580  136.0730 O   0  0  0  0  0  1  0  0  0  0  0  0
  189.7470  177.5120  140.1460 C   0  0  0  0  0  0  0  0  0  0  0  0
  186.2100  176.9570  135.9630 O   0  0  0  0  0  0  0  0  0  0  0  0
  185.6250  179.0340  138.7910 C   0  0  0  0  0  2  0  0  0  0  0  0
  191.8660  177.2880  141.3180 C   0  0  0  0  0  3  0  0  0  0  0  0
  189.5830  176.7940  137.8250 C   0  0  0  0  0  0  0  0  0  0  0  0
  187.9830  175.3710  136.5820 C   0  0  1  0  0  3  0  0  0  0  0  0
  191.6880  176.5850  139.0200 C   0  0  0  0  0  3  0  0  0  0  0  0
  187.7990  178.5980  141.3230 C   0  0  0  0  0  2  0  0  0  0  0  0
  187.3960  179.1690  137.0970 C   0  0  0  0  0  1  0  0  0  0  0  0
  185.8760  177.0980  137.3230 C   0  0  0  0  0  2  0  0  0  0  0  0
  188.8910  176.5830  136.5270 C   0  0  0  0  0  2  0  0  0  0  0  0
  185.5420  178.3940  140.1600 C   0  0  2  0  0  3  0  0  0  0  0  0
  187.5360  177.6610  139.0720 N   0  0  0  0  0  0  0  0  0  0  0  0
  190.9320  176.4270  137.8630 C   0  0  0  0  0  3  0  0  0  0  0  0
  185.6730  174.5640  135.9170 C   0  0  0  0  0  2  0  0  0  0  0  0
  184.9530  174.3250  134.6030 C   0  0  0  0  0  1  0  0  0  0  0  0
  185.2010  179.3450  141.1270 O   0  0  0  0  0  0  0  0  0  0  0  0
  184.3400  178.7130  141.9370 O   0  0  0  0  0  0  0  0  0  0  0  0
  182.4650  179.7300  143.7320 F   0  0  0  0  0  0  0  0  0  0  0  0
  184.5400  178.6650  143.3180 C   0  0  0  0  0  0  0  0  0  0  0  0
  183.3450  178.7890  144.2330 C   0  0  1  0  0  3  0  0  0  0  0  0
  184.7260  178.2080  146.0750 C   0  0  0  0  0  2  0  0  0  0  0  0
  186.0240  178.4070  145.2990 C   0  0  0  0  0  2  0  0  0  0  0  0
  185.7620  178.4390  143.8200 C   0  0  0  0  0  3  0  0  0  0  0  0
  183.7320  179.1630  145.5960 N   0  0  0  0  0  2  0  0  0  0  0  0
  1 13  2  0  0  0  0
  2 17  1  0  0  0  0
  2  7  1  0  0  0  0
  3 22  1  0  0  0  0
  3 10  1  0  0  0  0
  4 18  1  6  0  0  0
  4 12  1  0  0  0  0
  4 22  1  0  0  0  0
  6 24  1  1  0  0  0
  6 11  1  0  0  0  0
  6 15  1  0  0  0  0
  7  5  2  0  0  0  0
  8 17  1  1  0  0  0
 10  1  1  0  0  0  0
 10  2  2  0  0  0  0
 11 19  1  0  0  0  0
 12 21  1  0  0  0  0
 13  5  1  0  0  0  0
 14 23  1  0  0  0  0
 14  3  2  0  0  0  0
 15  9  1  6  0  0  0
 16  1  1  0  0  0  0
 19  4  1  0  0  0  0
 20 15  1  0  0  0  0
 20 14  1  0  0  0  0
 21  8  1  0  0  0  0
 21 26  1  1  0  0  0
 22  8  1  0  0  0  0
 23 16  2  0  0  0  0
 25 24  1  0  0  0  0
 26 27  1  0  0  0  0
 27 29  1  0  0  0  0
 29 33  2  0  0  0  0
 29 30  1  0  0  0  0
 30 28  1  6  0  0  0
 30 34  1  0  0  0  0
 32 31  1  0  0  0  0
 33 32  1  0  0  0  0
 34 31  1  0  0  0  0
M  END
>  <MODEL>
9

>  <REMARK>
 VINA RESULT:      -7.0      4.005      9.079
  Name = 
  4 active torsions:
  status: ('A' for Active; 'I' for Inactive)
    1  A    between atoms: O_3  and  C_13
    2  A    between atoms: O_3  and  O_17
    3  A    between atoms: C_7  and  C_8
    4  A    between atoms: O_17  and  C_29
                            x       y       z     vdW  Elec       q    Type
                         _______ _______ _______ _____ _____    ______ ____

>  <TORSDO>
F 4

$$$$
