=
 OpenBabel10272400013D

 34 38  0  0  1  0  0  0  0  0999 V2000
  190.1110  174.2450  136.1110 N   0  0  0  0  0  0  0  0  0  0  0  0
  192.5870  176.7320  137.1070 O   0  0  0  0  0  0  0  0  0  0  0  0
  190.6360  176.1390  138.3590 N   0  0  0  0  0  0  0  0  0  0  0  0
  189.3210  177.8710  139.6970 C   0  0  2  0  0  3  0  0  0  0  0  0
  192.2670  174.4060  137.4320 C   0  0  1  0  0  3  0  0  0  0  0  0
  193.7040  174.6130  137.0470 C   0  0  0  0  0  2  0  0  0  0  0  0
  191.3170  176.7930  140.5020 O   0  0  0  0  0  0  0  0  0  0  0  0
  192.0090  175.8000  137.9680 C   0  0  1  0  0  3  0  0  0  0  0  0
  191.5550  174.0460  136.1190 C   0  0  0  0  0  2  0  0  0  0  0  0
  189.4690  175.9630  137.4960 C   0  0  1  0  0  3  0  0  0  0  0  0
  189.4140  173.3450  137.0410 C   0  0  0  0  0  1  0  0  0  0  0  0
  193.7690  176.0980  136.6730 C   0  0  0  0  0  2  0  0  0  0  0  0
  188.1820  177.5120  138.8500 N   0  0  0  0  0  2  0  0  0  0  0  0
  188.6460  177.2510  137.4890 C   0  0  2  0  0  3  0  0  0  0  0  0
  190.4580  176.8770  139.5830 C   0  0  0  0  0  0  0  0  0  0  0  0
  189.8260  175.5890  136.1830 O   0  0  0  0  0  0  0  0  0  0  0  0
  185.3430  176.3100  135.8440 C   0  0  0  0  0  0  0  0  0  0  0  0
  185.3810  177.1150  134.7020 C   0  0  0  0  0  3  0  0  0  0  0  0
  187.4920  177.1930  136.5410 C   0  0  0  0  0  0  0  0  0  0  0  0
  186.4770  177.9500  134.4780 C   0  0  0  0  0  3  0  0  0  0  0  0
  186.3960  176.3470  136.7610 C   0  0  0  0  0  3  0  0  0  0  0  0
  187.5290  177.9900  135.3950 C   0  0  0  0  0  3  0  0  0  0  0  0
  184.2790  175.5010  136.0650 F   0  0  0  0  0  0  0  0  0  0  0  0
  188.7580  178.0970  141.4250 S   0  0  0  0  0  0  0  0  0  0  0  0
  187.0750  178.5980  140.9600 C   0  0  0  0  0  2  0  0  0  0  0  0
  186.1410  178.4310  142.1440 C   0  0  0  0  0  2  0  0  0  0  0  0
  186.7590  177.4890  143.1680 C   0  0  0  0  0  2  0  0  0  0  0  0
  188.5590  177.1920  145.3550 O   0  0  0  0  0  0  0  0  0  0  0  0
  186.4930  177.9410  144.5310 N   0  0  0  0  0  0  0  0  0  0  0  0
  187.4200  177.6730  145.6010 C   0  0  0  0  0  0  0  0  0  0  0  0
  185.9150  178.9250  147.1580 C   0  0  0  0  0  2  0  0  0  0  0  0
  184.7830  178.6190  146.1840 C   0  0  0  0  0  2  0  0  0  0  0  0
  185.3000  178.7630  144.7570 C   0  0  0  0  0  2  0  0  0  0  0  0
  187.0100  177.8710  147.0310 C   0  0  0  0  0  2  0  0  0  0  0  0
  1  9  1  0  0  0  0
  1 16  1  0  0  0  0
  1 11  1  0  0  0  0
  3 15  1  0  0  0  0
  4 24  1  1  0  0  0
  5  9  1  6  0  0  0
  5  8  1  0  0  0  0
  6  5  1  0  0  0  0
  8  2  1  6  0  0  0
  8  3  1  0  0  0  0
 10 16  1  6  0  0  0
 10  3  1  0  0  0  0
 12  6  1  0  0  0  0
 12  2  1  0  0  0  0
 13  4  1  0  0  0  0
 14 19  1  6  0  0  0
 14 10  1  0  0  0  0
 14 13  1  0  0  0  0
 15  4  1  0  0  0  0
 15  7  2  0  0  0  0
 17 23  1  0  0  0  0
 17 21  1  0  0  0  0
 18 17  2  0  0  0  0
 19 21  2  0  0  0  0
 20 18  1  0  0  0  0
 20 22  2  0  0  0  0
 22 19  1  0  0  0  0
 25 24  1  0  0  0  0
 25 26  1  0  0  0  0
 26 27  1  0  0  0  0
 27 29  1  0  0  0  0
 28 30  2  0  0  0  0
 29 33  1  0  0  0  0
 29 30  1  0  0  0  0
 30 34  1  0  0  0  0
 32 31  1  0  0  0  0
 33 32  1  0  0  0  0
 34 31  1  0  0  0  0
M  END
>  <MODEL>
1

>  <REMARK>
 VINA RESULT:      -7.7      0.000      0.000
  Name = 
  6 active torsions:
  status: ('A' for Active; 'I' for Inactive)
    1  A    between atoms: C_3  and  N_13
    2  A    between atoms: C_3  and  C_17
    3  A    between atoms: C_5  and  S_18
    4  A    between atoms: C_12  and  C_28
    5  A    between atoms: C_17  and  C_29
    6  A    between atoms: S_18  and  C_29
                            x       y       z     vdW  Elec       q    Type
                         _______ _______ _______ _____ _____    ______ ____

>  <TORSDO>
F 6

$$$$
=
 OpenBabel10272400013D

 34 38  0  0  1  0  0  0  0  0999 V2000
  191.6040  174.7020  135.5860 N   0  0  0  0  0  0  0  0  0  0  0  0
  194.1650  177.2160  136.2420 O   0  0  0  0  0  0  0  0  0  0  0  0
  192.7650  176.1980  137.8940 N   0  0  0  0  0  0  0  0  0  0  0  0
  191.8970  177.5050  139.9090 C   0  0  2  0  0  3  0  0  0  0  0  0
  194.0670  174.8490  136.1610 C   0  0  1  0  0  3  0  0  0  0  0  0
  195.2860  175.2760  135.3930 C   0  0  0  0  0  2  0  0  0  0  0  0
  194.0900  176.5190  139.7990 O   0  0  0  0  0  0  0  0  0  0  0  0
  193.9430  176.0860  137.0280 C   0  0  1  0  0  3  0  0  0  0  0  0
  192.9760  174.6600  135.0950 C   0  0  0  0  0  2  0  0  0  0  0  0
  191.3860  176.0590  137.4280 C   0  0  1  0  0  3  0  0  0  0  0  0
  191.2930  173.5780  136.4810 C   0  0  0  0  0  1  0  0  0  0  0  0
  195.1600  176.8030  135.3340 C   0  0  0  0  0  2  0  0  0  0  0  0
  190.5570  177.1870  139.4110 N   0  0  0  0  0  2  0  0  0  0  0  0
  190.5540  177.2300  137.9500 C   0  0  2  0  0  3  0  0  0  0  0  0
  192.9720  176.6770  139.2370 C   0  0  0  0  0  0  0  0  0  0  0  0
  191.3030  175.9710  136.0230 O   0  0  0  0  0  0  0  0  0  0  0  0
  187.0150  176.1390  137.0650 C   0  0  0  0  0  0  0  0  0  0  0  0
  186.5550  177.2710  136.3860 C   0  0  0  0  0  3  0  0  0  0  0  0
  189.1550  177.2230  137.4250 C   0  0  0  0  0  0  0  0  0  0  0  0
  187.3980  178.3720  136.2200 C   0  0  0  0  0  3  0  0  0  0  0  0
  188.3120  176.1140  137.5820 C   0  0  0  0  0  3  0  0  0  0  0  0
  188.6930  178.3480  136.7390 C   0  0  0  0  0  3  0  0  0  0  0  0
  186.1980  175.0720  137.2290 F   0  0  0  0  0  0  0  0  0  0  0  0
  191.9290  177.3500  141.7330 S   0  0  0  0  0  0  0  0  0  0  0  0
  190.1560  176.9830  141.8740 C   0  0  0  0  0  2  0  0  0  0  0  0
  189.8780  176.2710  143.1850 C   0  0  0  0  0  2  0  0  0  0  0  0
  190.4480  177.0750  144.3470 C   0  0  0  0  0  2  0  0  0  0  0  0
  190.8830  176.8590  147.1530 O   0  0  0  0  0  0  0  0  0  0  0  0
  189.4330  177.3230  145.3660 N   0  0  0  0  0  0  0  0  0  0  0  0
  189.7090  177.1050  146.7640 C   0  0  0  0  0  0  0  0  0  0  0  0
  187.3980  177.8990  147.2980 C   0  0  0  0  0  2  0  0  0  0  0  0
  187.0190  177.5090  145.8740 C   0  0  0  0  0  2  0  0  0  0  0  0
  188.1540  177.8950  144.9320 C   0  0  0  0  0  2  0  0  0  0  0  0
  188.5920  177.0720  147.7650 C   0  0  0  0  0  2  0  0  0  0  0  0
  1 16  1  0  0  0  0
  1 11  1  0  0  0  0
  3 15  1  0  0  0  0
  4 24  1  1  0  0  0
  5  9  1  6  0  0  0
  5  8  1  0  0  0  0
  6  5  1  0  0  0  0
  8  2  1  6  0  0  0
  8  3  1  0  0  0  0
  9  1  1  0  0  0  0
 10 16  1  6  0  0  0
 10  3  1  0  0  0  0
 10 14  1  0  0  0  0
 12  6  1  0  0  0  0
 12  2  1  0  0  0  0
 13  4  1  0  0  0  0
 14 19  1  6  0  0  0
 14 13  1  0  0  0  0
 15  7  2  0  0  0  0
 15  4  1  0  0  0  0
 17 23  1  0  0  0  0
 17 21  1  0  0  0  0
 18 17  2  0  0  0  0
 19 21  2  0  0  0  0
 20 18  1  0  0  0  0
 20 22  2  0  0  0  0
 22 19  1  0  0  0  0
 24 25  1  0  0  0  0
 25 26  1  0  0  0  0
 26 27  1  0  0  0  0
 27 29  1  0  0  0  0
 29 30  1  0  0  0  0
 30 28  2  0  0  0  0
 30 34  1  0  0  0  0
 31 34  1  0  0  0  0
 32 31  1  0  0  0  0
 33 29  1  0  0  0  0
 33 32  1  0  0  0  0
M  END
>  <MODEL>
2

>  <REMARK>
 VINA RESULT:      -7.7      2.005      2.489
  Name = 
  6 active torsions:
  status: ('A' for Active; 'I' for Inactive)
    1  A    between atoms: C_3  and  N_13
    2  A    between atoms: C_3  and  C_17
    3  A    between atoms: C_5  and  S_18
    4  A    between atoms: C_12  and  C_28
    5  A    between atoms: C_17  and  C_29
    6  A    between atoms: S_18  and  C_29
                            x       y       z     vdW  Elec       q    Type
                         _______ _______ _______ _____ _____    ______ ____

>  <TORSDO>
F 6

$$$$
=
 OpenBabel10272400013D

 34 38  0  0  1  0  0  0  0  0999 V2000
  181.5570  178.5200  141.1210 N   0  0  0  0  0  0  0  0  0  0  0  0
  183.0900  180.9710  138.8950 O   0  0  0  0  0  0  0  0  0  0  0  0
  184.0240  178.8450  139.4710 N   0  0  0  0  0  0  0  0  0  0  0  0
  186.5390  178.5220  139.7740 C   0  0  2  0  0  3  0  0  0  0  0  0
  181.6180  179.1270  138.6620 C   0  0  1  0  0  3  0  0  0  0  0  0
  181.0470  180.2620  137.8610 C   0  0  0  0  0  2  0  0  0  0  0  0
  185.4390  178.5160  137.6340 O   0  0  0  0  0  0  0  0  0  0  0  0
  183.0590  179.5970  138.6610 C   0  0  1  0  0  3  0  0  0  0  0  0
  180.8890  179.1910  140.0120 C   0  0  0  0  0  2  0  0  0  0  0  0
  183.8440  178.5380  140.8890 C   0  0  1  0  0  3  0  0  0  0  0  0
  181.6330  177.0640  140.9340 C   0  0  0  0  0  1  0  0  0  0  0  0
  181.9460  181.4500  138.2240 C   0  0  0  0  0  2  0  0  0  0  0  0
  186.2180  178.1040  141.1410 N   0  0  0  0  0  2  0  0  0  0  0  0
  185.1130  178.9110  141.6540 C   0  0  2  0  0  3  0  0  0  0  0  0
  185.3140  178.5760  138.8870 C   0  0  0  0  0  0  0  0  0  0  0  0
  182.7180  179.1870  141.4380 O   0  0  0  0  0  0  0  0  0  0  0  0
  185.7530  177.8800  145.2630 C   0  0  0  0  0  0  0  0  0  0  0  0
  184.6200  178.4070  145.8910 C   0  0  0  0  0  3  0  0  0  0  0  0
  184.9710  178.7320  143.1300 C   0  0  0  0  0  0  0  0  0  0  0  0
  183.6620  179.0870  145.1360 C   0  0  0  0  0  3  0  0  0  0  0  0
  185.9280  178.0400  143.8870 C   0  0  0  0  0  3  0  0  0  0  0  0
  183.8370  179.2490  143.7610 C   0  0  0  0  0  3  0  0  0  0  0  0
  186.6850  177.2230  145.9940 F   0  0  0  0  0  0  0  0  0  0  0  0
  187.8520  177.4440  139.0920 S   0  0  0  0  0  0  0  0  0  0  0  0
  189.2110  178.5330  139.6100 C   0  0  0  0  0  2  0  0  0  0  0  0
  190.4530  177.7080  139.8960 C   0  0  0  0  0  2  0  0  0  0  0  0
  190.1140  176.5640  140.8420 C   0  0  0  0  0  2  0  0  0  0  0  0
  188.4620  175.8060  143.0340 O   0  0  0  0  0  0  0  0  0  0  0  0
  190.3550  176.9400  142.2320 N   0  0  0  0  0  0  0  0  0  0  0  0
  189.4210  176.5890  143.2730 C   0  0  0  0  0  0  0  0  0  0  0  0
  190.9450  177.6640  144.9400 C   0  0  0  0  0  2  0  0  0  0  0  0
  191.5010  178.4880  143.7840 C   0  0  0  0  0  2  0  0  0  0  0  0
  191.6250  177.5980  142.5520 C   0  0  0  0  0  2  0  0  0  0  0  0
  189.5180  177.2250  144.6290 C   0  0  0  0  0  2  0  0  0  0  0  0
  1 16  1  0  0  0  0
  3 10  1  0  0  0  0
  4 24  1  6  0  0  0
  4 13  1  0  0  0  0
  5  6  1  6  0  0  0
  5  9  1  0  0  0  0
  6 12  1  0  0  0  0
  7 15  2  0  0  0  0
  8  5  1  0  0  0  0
  8  2  1  1  0  0  0
  8  3  1  0  0  0  0
  9  1  1  0  0  0  0
 10 16  1  1  0  0  0
 10 14  1  0  0  0  0
 11  1  1  0  0  0  0
 12  2  1  0  0  0  0
 13 14  1  0  0  0  0
 14 19  1  1  0  0  0
 15  3  1  0  0  0  0
 15  4  1  0  0  0  0
 17 18  1  0  0  0  0
 17 23  1  0  0  0  0
 19 22  2  0  0  0  0
 19 21  1  0  0  0  0
 20 18  2  0  0  0  0
 21 17  2  0  0  0  0
 22 20  1  0  0  0  0
 24 25  1  0  0  0  0
 25 26  1  0  0  0  0
 26 27  1  0  0  0  0
 27 29  1  0  0  0  0
 28 30  2  0  0  0  0
 29 33  1  0  0  0  0
 29 30  1  0  0  0  0
 30 34  1  0  0  0  0
 32 31  1  0  0  0  0
 33 32  1  0  0  0  0
 34 31  1  0  0  0  0
M  END
>  <MODEL>
3

>  <REMARK>
 VINA RESULT:      -7.6      4.357      8.158
  Name = 
  6 active torsions:
  status: ('A' for Active; 'I' for Inactive)
    1  A    between atoms: C_3  and  N_13
    2  A    between atoms: C_3  and  C_17
    3  A    between atoms: C_5  and  S_18
    4  A    between atoms: C_12  and  C_28
    5  A    between atoms: C_17  and  C_29
    6  A    between atoms: S_18  and  C_29
                            x       y       z     vdW  Elec       q    Type
                         _______ _______ _______ _____ _____    ______ ____

>  <TORSDO>
F 6

$$$$
=
 OpenBabel10272400013D

 34 38  0  0  1  0  0  0  0  0999 V2000
  181.2590  176.9920  139.9230 N   0  0  0  0  0  0  0  0  0  0  0  0
  182.0750  179.4480  137.3510 O   0  0  0  0  0  0  0  0  0  0  0  0
  183.6210  177.9170  138.3480 N   0  0  0  0  0  0  0  0  0  0  0  0
  186.0460  178.5700  138.8130 C   0  0  2  0  0  3  0  0  0  0  0  0
  181.3660  177.1860  137.3990 C   0  0  1  0  0  3  0  0  0  0  0  0
  180.5250  177.9000  136.3790 C   0  0  0  0  0  2  0  0  0  0  0  0
  185.2470  177.8330  136.6650 O   0  0  0  0  0  0  0  0  0  0  0  0
  182.5470  178.1350  137.3730 C   0  0  1  0  0  3  0  0  0  0  0  0
  180.5210  177.1960  138.6820 C   0  0  0  0  0  2  0  0  0  0  0  0
  183.4090  177.7920  139.7890 C   0  0  1  0  0  3  0  0  0  0  0  0
  181.8530  175.6500  140.0100 C   0  0  0  0  0  1  0  0  0  0  0  0
  180.9150  179.3720  136.5550 C   0  0  0  0  0  2  0  0  0  0  0  0
  185.7470  178.2840  140.2180 N   0  0  0  0  0  2  0  0  0  0  0  0
  184.3840  178.7110  140.5260 C   0  0  2  0  0  3  0  0  0  0  0  0
  184.9780  178.0400  137.8790 C   0  0  0  0  0  0  0  0  0  0  0  0
  182.0780  178.0720  140.1600 O   0  0  0  0  0  0  0  0  0  0  0  0
  182.6980  178.8080  143.9380 C   0  0  0  0  0  0  0  0  0  0  0  0
  183.8130  178.7880  144.7820 C   0  0  0  0  0  3  0  0  0  0  0  0
  184.1570  178.7270  142.0030 C   0  0  0  0  0  0  0  0  0  0  0  0
  185.0960  178.7450  144.2340 C   0  0  0  0  0  3  0  0  0  0  0  0
  182.8680  178.7800  142.5530 C   0  0  0  0  0  3  0  0  0  0  0  0
  185.2680  178.7140  142.8490 C   0  0  0  0  0  3  0  0  0  0  0  0
  181.4520  178.8470  144.4680 F   0  0  0  0  0  0  0  0  0  0  0  0
  187.7150  177.9420  138.3970 S   0  0  0  0  0  0  0  0  0  0  0  0
  188.3240  178.0200  140.1070 C   0  0  0  0  0  2  0  0  0  0  0  0
  189.8160  177.7460  140.1370 C   0  0  0  0  0  2  0  0  0  0  0  0
  190.1210  176.6230  141.1190 C   0  0  0  0  0  2  0  0  0  0  0  0
  188.2150  175.7880  143.0630 O   0  0  0  0  0  0  0  0  0  0  0  0
  190.0770  177.1000  142.4980 N   0  0  0  0  0  0  0  0  0  0  0  0
  189.0250  176.6950  143.3960 C   0  0  0  0  0  0  0  0  0  0  0  0
  190.1100  178.0390  145.2040 C   0  0  0  0  0  2  0  0  0  0  0  0
  190.7600  178.8600  144.0960 C   0  0  0  0  0  2  0  0  0  0  0  0
  191.1920  177.9270  142.9710 C   0  0  0  0  0  2  0  0  0  0  0  0
  188.8160  177.4110  144.6980 C   0  0  0  0  0  2  0  0  0  0  0  0
  1 11  1  0  0  0  0
  1 16  1  0  0  0  0
  3 10  1  0  0  0  0
  4 24  1  6  0  0  0
  4 13  1  0  0  0  0
  5  6  1  6  0  0  0
  5  9  1  0  0  0  0
  6 12  1  0  0  0  0
  7 15  2  0  0  0  0
  8  2  1  1  0  0  0
  8  5  1  0  0  0  0
  8  3  1  0  0  0  0
  9  1  1  0  0  0  0
 10 16  1  6  0  0  0
 10 14  1  0  0  0  0
 12  2  1  0  0  0  0
 13 14  1  0  0  0  0
 14 19  1  1  0  0  0
 15  3  1  0  0  0  0
 15  4  1  0  0  0  0
 17 23  1  0  0  0  0
 17 18  1  0  0  0  0
 19 21  1  0  0  0  0
 19 22  2  0  0  0  0
 20 18  2  0  0  0  0
 21 17  2  0  0  0  0
 22 20  1  0  0  0  0
 24 25  1  0  0  0  0
 25 26  1  0  0  0  0
 26 27  1  0  0  0  0
 27 29  1  0  0  0  0
 28 30  2  0  0  0  0
 29 33  1  0  0  0  0
 29 30  1  0  0  0  0
 30 34  1  0  0  0  0
 32 31  1  0  0  0  0
 33 32  1  0  0  0  0
 34 31  1  0  0  0  0
M  END
>  <MODEL>
4

>  <REMARK>
 VINA RESULT:      -7.4      4.305      7.760
  Name = 
  6 active torsions:
  status: ('A' for Active; 'I' for Inactive)
    1  A    between atoms: C_3  and  N_13
    2  A    between atoms: C_3  and  C_17
    3  A    between atoms: C_5  and  S_18
    4  A    between atoms: C_12  and  C_28
    5  A    between atoms: C_17  and  C_29
    6  A    between atoms: S_18  and  C_29
                            x       y       z     vdW  Elec       q    Type
                         _______ _______ _______ _____ _____    ______ ____

>  <TORSDO>
F 6

$$$$
=
 OpenBabel10272400013D

 34 38  0  0  1  0  0  0  0  0999 V2000
  186.5040  175.9840  136.5190 N   0  0  0  0  0  0  0  0  0  0  0  0
  189.6170  177.7590  135.8340 O   0  0  0  0  0  0  0  0  0  0  0  0
  189.0600  176.6810  137.8960 N   0  0  0  0  0  0  0  0  0  0  0  0
  189.7730  177.6460  140.1500 C   0  0  2  0  0  3  0  0  0  0  0  0
  188.8320  175.5310  135.6270 C   0  0  1  0  0  3  0  0  0  0  0  0
  189.5350  175.8800  134.3470 C   0  0  0  0  0  2  0  0  0  0  0  0
  191.2090  176.3130  138.7510 O   0  0  0  0  0  0  0  0  0  0  0  0
  189.5290  176.5440  136.5130 C   0  0  1  0  0  3  0  0  0  0  0  0
  187.3450  175.7950  135.3440 C   0  0  0  0  0  2  0  0  0  0  0  0
  187.6660  176.9120  138.2710 C   0  0  1  0  0  3  0  0  0  0  0  0
  186.4020  174.7680  137.3400 C   0  0  0  0  0  1  0  0  0  0  0  0
  189.8330  177.3770  134.4940 C   0  0  0  0  0  2  0  0  0  0  0  0
  188.3440  177.7050  140.4630 N   0  0  0  0  0  2  0  0  0  0  0  0
  187.5950  178.0730  139.2630 C   0  0  2  0  0  3  0  0  0  0  0  0
  190.0590  176.8000  138.9270 C   0  0  0  0  0  0  0  0  0  0  0  0
  186.8440  177.1580  137.1510 O   0  0  0  0  0  0  0  0  0  0  0  0
  183.8960  178.9400  138.9980 C   0  0  0  0  0  0  0  0  0  0  0  0
  183.5890  179.1870  140.3400 C   0  0  0  0  0  3  0  0  0  0  0  0
  186.1910  178.4480  139.6130 C   0  0  0  0  0  0  0  0  0  0  0  0
  184.5840  179.0720  141.3120 C   0  0  0  0  0  3  0  0  0  0  0  0
  185.1940  178.5740  138.6350 C   0  0  0  0  0  3  0  0  0  0  0  0
  185.8800  178.7030  140.9500 C   0  0  0  0  0  3  0  0  0  0  0  0
  182.9320  179.0480  138.0540 F   0  0  0  0  0  0  0  0  0  0  0  0
  190.7040  177.0840  141.6240 S   0  0  0  0  0  0  0  0  0  0  0  0
  190.1510  178.4610  142.6720 C   0  0  0  0  0  2  0  0  0  0  0  0
  190.6200  178.2450  144.0990 C   0  0  0  0  0  2  0  0  0  0  0  0
  190.0070  176.9700  144.6620 C   0  0  0  0  0  2  0  0  0  0  0  0
  187.2050  177.4680  144.5770 O   0  0  0  0  0  0  0  0  0  0  0  0
  189.1780  177.2530  145.8300 N   0  0  0  0  0  0  0  0  0  0  0  0
  187.7810  177.5820  145.6930 C   0  0  0  0  0  0  0  0  0  0  0  0
  187.6170  177.7300  148.1840 C   0  0  0  0  0  2  0  0  0  0  0  0
  189.1190  177.9940  148.1890 C   0  0  0  0  0  2  0  0  0  0  0  0
  189.7860  177.0950  147.1540 C   0  0  0  0  0  2  0  0  0  0  0  0
  187.0170  178.1580  146.8490 C   0  0  0  0  0  2  0  0  0  0  0  0
  1 16  1  0  0  0  0
  1 11  1  0  0  0  0
  3 10  1  0  0  0  0
  3 15  1  0  0  0  0
  4 13  1  0  0  0  0
  4 24  1  1  0  0  0
  5  6  1  6  0  0  0
  5  8  1  0  0  0  0
  6 12  1  0  0  0  0
  7 15  2  0  0  0  0
  8  2  1  6  0  0  0
  8  3  1  0  0  0  0
  9  5  1  0  0  0  0
  9  1  1  0  0  0  0
 10 16  1  6  0  0  0
 10 14  1  0  0  0  0
 12  2  1  0  0  0  0
 14 19  1  1  0  0  0
 14 13  1  0  0  0  0
 15  4  1  0  0  0  0
 17 18  1  0  0  0  0
 18 20  2  0  0  0  0
 19 22  2  0  0  0  0
 21 17  2  0  0  0  0
 21 19  1  0  0  0  0
 22 20  1  0  0  0  0
 23 17  1  0  0  0  0
 24 25  1  0  0  0  0
 25 26  1  0  0  0  0
 26 27  1  0  0  0  0
 27 29  1  0  0  0  0
 28 30  2  0  0  0  0
 29 33  1  0  0  0  0
 30 29  1  0  0  0  0
 30 34  1  0  0  0  0
 31 32  1  0  0  0  0
 33 32  1  0  0  0  0
 34 31  1  0  0  0  0
M  END
>  <MODEL>
5

>  <REMARK>
 VINA RESULT:      -7.3      2.401      3.734
  Name = 
  6 active torsions:
  status: ('A' for Active; 'I' for Inactive)
    1  A    between atoms: C_3  and  N_13
    2  A    between atoms: C_3  and  C_17
    3  A    between atoms: C_5  and  S_18
    4  A    between atoms: C_12  and  C_28
    5  A    between atoms: C_17  and  C_29
    6  A    between atoms: S_18  and  C_29
                            x       y       z     vdW  Elec       q    Type
                         _______ _______ _______ _____ _____    ______ ____

>  <TORSDO>
F 6

$$$$
=
 OpenBabel10272400013D

 34 38  0  0  1  0  0  0  0  0999 V2000
  189.6480  177.4900  145.4710 N   0  0  0  0  0  0  0  0  0  0  0  0
  190.3200  174.7730  143.1300 O   0  0  0  0  0  0  0  0  0  0  0  0
  189.9030  177.0510  142.5290 N   0  0  0  0  0  0  0  0  0  0  0  0
  188.5980  177.6660  140.4210 C   0  0  2  0  0  3  0  0  0  0  0  0
  191.6060  176.3790  144.3090 C   0  0  1  0  0  3  0  0  0  0  0  0
  192.2870  175.0500  144.4710 C   0  0  0  0  0  2  0  0  0  0  0  0
  190.9400  177.1100  140.4300 O   0  0  0  0  0  0  0  0  0  0  0  0
  190.8560  176.0560  143.0320 C   0  0  1  0  0  3  0  0  0  0  0  0
  190.7470  176.5370  145.5730 C   0  0  0  0  0  2  0  0  0  0  0  0
  188.8290  177.6370  143.3290 C   0  0  1  0  0  3  0  0  0  0  0  0
  190.1170  178.8720  145.2980 C   0  0  0  0  0  1  0  0  0  0  0  0
  191.2970  174.0570  143.8510 C   0  0  0  0  0  2  0  0  0  0  0  0
  187.6570  178.3350  141.3220 N   0  0  0  0  0  2  0  0  0  0  0  0
  187.5160  177.5570  142.5510 C   0  0  2  0  0  3  0  0  0  0  0  0
  189.8980  177.3090  141.1110 C   0  0  0  0  0  0  0  0  0  0  0  0
  188.7030  177.0180  144.5900 O   0  0  0  0  0  0  0  0  0  0  0  0
  185.2410  178.4990  145.4550 C   0  0  0  0  0  0  0  0  0  0  0  0
  184.0960  178.9120  144.7680 C   0  0  0  0  0  3  0  0  0  0  0  0
  186.3440  178.0350  143.3450 C   0  0  0  0  0  0  0  0  0  0  0  0
  184.0750  178.8780  143.3720 C   0  0  0  0  0  3  0  0  0  0  0  0
  186.3620  178.0600  144.7470 C   0  0  0  0  0  3  0  0  0  0  0  0
  185.1950  178.4410  142.6630 C   0  0  0  0  0  3  0  0  0  0  0  0
  185.2650  178.5340  146.8090 F   0  0  0  0  0  0  0  0  0  0  0  0
  188.8570  178.6910  138.9260 S   0  0  0  0  0  0  0  0  0  0  0  0
  188.6660  177.3030  137.7700 C   0  0  0  0  0  2  0  0  0  0  0  0
  187.1960  176.9650  137.6060 C   0  0  0  0  0  2  0  0  0  0  0  0
  186.3600  178.2380  137.6520 C   0  0  0  0  0  2  0  0  0  0  0  0
  184.8520  179.9130  139.3920 O   0  0  0  0  0  0  0  0  0  0  0  0
  184.9980  177.9590  138.0990 N   0  0  0  0  0  0  0  0  0  0  0  0
  184.3350  178.8140  139.0520 C   0  0  0  0  0  0  0  0  0  0  0  0
  182.3030  177.3690  138.8680 C   0  0  0  0  0  2  0  0  0  0  0  0
  183.2340  176.2530  138.4060 C   0  0  0  0  0  2  0  0  0  0  0  0
  184.2890  176.8390  137.4740 C   0  0  0  0  0  2  0  0  0  0  0  0
  183.0720  178.3670  139.7270 C   0  0  0  0  0  2  0  0  0  0  0  0
  1  9  1  0  0  0  0
  2 12  1  0  0  0  0
  3  8  1  0  0  0  0
  3 10  1  0  0  0  0
  4 24  1  6  0  0  0
  4 15  1  0  0  0  0
  4 13  1  0  0  0  0
  5  6  1  1  0  0  0
  5  9  1  0  0  0  0
  7 15  2  0  0  0  0
  8  2  1  1  0  0  0
  8  5  1  0  0  0  0
 10 16  1  1  0  0  0
 11  1  1  0  0  0  0
 12  6  1  0  0  0  0
 13 14  1  0  0  0  0
 14 10  1  0  0  0  0
 14 19  1  1  0  0  0
 15  3  1  0  0  0  0
 16  1  1  0  0  0  0
 17 23  1  0  0  0  0
 18 17  1  0  0  0  0
 19 21  1  0  0  0  0
 20 18  2  0  0  0  0
 21 17  2  0  0  0  0
 22 19  2  0  0  0  0
 22 20  1  0  0  0  0
 25 24  1  0  0  0  0
 26 27  1  0  0  0  0
 26 25  1  0  0  0  0
 27 29  1  0  0  0  0
 29 30  1  0  0  0  0
 30 28  2  0  0  0  0
 30 34  1  0  0  0  0
 31 34  1  0  0  0  0
 32 31  1  0  0  0  0
 33 29  1  0  0  0  0
 33 32  1  0  0  0  0
M  END
>  <MODEL>
6

>  <REMARK>
 VINA RESULT:      -7.2      3.601      7.282
  Name = 
  6 active torsions:
  status: ('A' for Active; 'I' for Inactive)
    1  A    between atoms: C_3  and  N_13
    2  A    between atoms: C_3  and  C_17
    3  A    between atoms: C_5  and  S_18
    4  A    between atoms: C_12  and  C_28
    5  A    between atoms: C_17  and  C_29
    6  A    between atoms: S_18  and  C_29
                            x       y       z     vdW  Elec       q    Type
                         _______ _______ _______ _____ _____    ______ ____

>  <TORSDO>
F 6

$$$$
=
 OpenBabel10272400013D

 34 38  0  0  1  0  0  0  0  0999 V2000
  185.6760  175.8690  136.0300 N   0  0  0  0  0  0  0  0  0  0  0  0
  188.6100  177.9870  135.5720 O   0  0  0  0  0  0  0  0  0  0  0  0
  187.8570  177.0930  137.6590 N   0  0  0  0  0  0  0  0  0  0  0  0
  188.0570  178.4140  139.8360 C   0  0  2  0  0  3  0  0  0  0  0  0
  188.1570  175.6600  135.5670 C   0  0  1  0  0  3  0  0  0  0  0  0
  189.0160  175.9540  134.3690 C   0  0  0  0  0  2  0  0  0  0  0  0
  189.8620  177.1490  138.8680 O   0  0  0  0  0  0  0  0  0  0  0  0
  188.5640  176.8630  136.3950 C   0  0  1  0  0  3  0  0  0  0  0  0
  186.7180  175.6670  135.0310 C   0  0  0  0  0  2  0  0  0  0  0  0
  186.4020  177.1600  137.7870 C   0  0  1  0  0  3  0  0  0  0  0  0
  185.5920  174.7580  136.9890 C   0  0  0  0  0  1  0  0  0  0  0  0
  189.0930  177.4850  134.3460 C   0  0  0  0  0  2  0  0  0  0  0  0
  186.5990  178.3000  139.9200 N   0  0  0  0  0  2  0  0  0  0  0  0
  186.0210  178.4070  138.5830 C   0  0  2  0  0  3  0  0  0  0  0  0
  188.6470  177.4800  138.8010 C   0  0  0  0  0  0  0  0  0  0  0  0
  185.7550  177.1470  136.5330 O   0  0  0  0  0  0  0  0  0  0  0  0
  182.2680  177.7690  138.6520 C   0  0  0  0  0  0  0  0  0  0  0  0
  181.7830  179.0740  138.7880 C   0  0  0  0  0  3  0  0  0  0  0  0
  184.5430  178.6110  138.6630 C   0  0  0  0  0  0  0  0  0  0  0  0
  182.6780  180.1430  138.8510 C   0  0  0  0  0  3  0  0  0  0  0  0
  183.6430  177.5380  138.5890 C   0  0  0  0  0  3  0  0  0  0  0  0
  184.0530  179.9130  138.7900 C   0  0  0  0  0  3  0  0  0  0  0  0
  181.4010  176.7300  138.5930 F   0  0  0  0  0  0  0  0  0  0  0  0
  188.7920  178.1750  141.4960 S   0  0  0  0  0  0  0  0  0  0  0  0
  187.2160  178.3760  142.3770 C   0  0  0  0  0  2  0  0  0  0  0  0
  187.0730  177.2960  143.4330 C   0  0  0  0  0  2  0  0  0  0  0  0
  186.2670  177.8220  144.6130 C   0  0  0  0  0  2  0  0  0  0  0  0
  185.3600  178.7870  147.1340 O   0  0  0  0  0  0  0  0  0  0  0  0
  187.0570  177.8100  145.8410 N   0  0  0  0  0  0  0  0  0  0  0  0
  186.5570  178.3980  147.0580 C   0  0  0  0  0  0  0  0  0  0  0  0
  188.6540  177.6790  148.2150 C   0  0  0  0  0  2  0  0  0  0  0  0
  189.3150  177.6640  146.8420 C   0  0  0  0  0  2  0  0  0  0  0  0
  188.3350  177.0910  145.8230 C   0  0  0  0  0  2  0  0  0  0  0  0
  187.4760  178.6470  148.2170 C   0  0  0  0  0  2  0  0  0  0  0  0
  1 16  1  0  0  0  0
  1 11  1  0  0  0  0
  3 10  1  0  0  0  0
  3 15  1  0  0  0  0
  4 13  1  0  0  0  0
  4 24  1  1  0  0  0
  5  6  1  6  0  0  0
  5  8  1  0  0  0  0
  8  2  1  6  0  0  0
  8  3  1  0  0  0  0
  9  5  1  0  0  0  0
  9  1  1  0  0  0  0
 10 16  1  6  0  0  0
 10 14  1  0  0  0  0
 12  6  1  0  0  0  0
 12  2  1  0  0  0  0
 14 19  1  1  0  0  0
 14 13  1  0  0  0  0
 15  7  2  0  0  0  0
 15  4  1  0  0  0  0
 17 18  1  0  0  0  0
 18 20  2  0  0  0  0
 19 22  2  0  0  0  0
 21 17  2  0  0  0  0
 21 19  1  0  0  0  0
 22 20  1  0  0  0  0
 23 17  1  0  0  0  0
 24 25  1  0  0  0  0
 25 26  1  0  0  0  0
 26 27  1  0  0  0  0
 27 29  1  0  0  0  0
 29 30  1  0  0  0  0
 30 28  2  0  0  0  0
 30 34  1  0  0  0  0
 31 34  1  0  0  0  0
 32 31  1  0  0  0  0
 33 29  1  0  0  0  0
 33 32  1  0  0  0  0
M  END
>  <MODEL>
7

>  <REMARK>
 VINA RESULT:      -7.2      2.727      3.784
  Name = 
  6 active torsions:
  status: ('A' for Active; 'I' for Inactive)
    1  A    between atoms: C_3  and  N_13
    2  A    between atoms: C_3  and  C_17
    3  A    between atoms: C_5  and  S_18
    4  A    between atoms: C_12  and  C_28
    5  A    between atoms: C_17  and  C_29
    6  A    between atoms: S_18  and  C_29
                            x       y       z     vdW  Elec       q    Type
                         _______ _______ _______ _____ _____    ______ ____

>  <TORSDO>
F 6

$$$$
=
 OpenBabel10272400013D

 34 38  0  0  1  0  0  0  0  0999 V2000
  188.9560  176.7330  134.9010 N   0  0  0  0  0  0  0  0  0  0  0  0
  186.4200  175.7630  137.3380 O   0  0  0  0  0  0  0  0  0  0  0  0
  188.4260  176.9720  137.8290 N   0  0  0  0  0  0  0  0  0  0  0  0
  189.7130  176.6080  140.0040 C   0  0  2  0  0  3  0  0  0  0  0  0
  186.8340  177.6380  135.9470 C   0  0  1  0  0  3  0  0  0  0  0  0
  185.3800  177.2870  135.8080 C   0  0  0  0  0  2  0  0  0  0  0  0
  187.7810  178.0310  139.8160 O   0  0  0  0  0  0  0  0  0  0  0  0
  187.0560  177.0040  137.3050 C   0  0  1  0  0  3  0  0  0  0  0  0
  187.5210  176.9460  134.7590 C   0  0  0  0  0  2  0  0  0  0  0  0
  189.5740  176.4420  137.0950 C   0  0  1  0  0  3  0  0  0  0  0  0
  189.7110  177.9930  134.9420 C   0  0  0  0  0  1  0  0  0  0  0  0
  185.2510  175.9660  136.5770 C   0  0  0  0  0  2  0  0  0  0  0  0
  190.8410  176.2220  139.1530 N   0  0  0  0  0  2  0  0  0  0  0  0
  190.3490  175.4800  137.9940 C   0  0  2  0  0  3  0  0  0  0  0  0
  188.6110  177.2910  139.2220 C   0  0  0  0  0  0  0  0  0  0  0  0
  189.1940  175.8100  135.8930 O   0  0  0  0  0  0  0  0  0  0  0  0
  192.4180  172.9310  136.0650 C   0  0  0  0  0  0  0  0  0  0  0  0
  193.6470  173.5940  135.9910 C   0  0  0  0  0  3  0  0  0  0  0  0
  191.4770  174.8070  137.2820 C   0  0  0  0  0  0  0  0  0  0  0  0
  193.7910  174.8560  136.5710 C   0  0  0  0  0  3  0  0  0  0  0  0
  191.3360  173.5350  136.7100 C   0  0  0  0  0  3  0  0  0  0  0  0
  192.7100  175.4610  137.2130 C   0  0  0  0  0  3  0  0  0  0  0  0
  192.2760  171.7080  135.5010 F   0  0  0  0  0  0  0  0  0  0  0  0
  190.3160  177.6270  141.4010 S   0  0  0  0  0  0  0  0  0  0  0  0
  190.1890  176.2850  142.6190 C   0  0  0  0  0  2  0  0  0  0  0  0
  188.7820  176.2310  143.1830 C   0  0  0  0  0  2  0  0  0  0  0  0
  188.7130  177.0080  144.4910 C   0  0  0  0  0  2  0  0  0  0  0  0
  187.6460  177.9140  146.9710 O   0  0  0  0  0  0  0  0  0  0  0  0
  187.4200  177.6670  144.6480 N   0  0  0  0  0  0  0  0  0  0  0  0
  186.9120  178.0160  145.9510 C   0  0  0  0  0  0  0  0  0  0  0  0
  184.9010  179.0160  144.8500 C   0  0  0  0  0  2  0  0  0  0  0  0
  185.1920  178.1020  143.6650 C   0  0  0  0  0  2  0  0  0  0  0  0
  186.6980  178.0530  143.4310 C   0  0  0  0  0  2  0  0  0  0  0  0
  185.4750  178.4120  146.1270 C   0  0  0  0  0  2  0  0  0  0  0  0
  1 11  1  0  0  0  0
  1 16  1  0  0  0  0
  3 15  1  0  0  0  0
  4 24  1  1  0  0  0
  5  9  1  6  0  0  0
  5  8  1  0  0  0  0
  6  5  1  0  0  0  0
  6 12  1  0  0  0  0
  8  2  1  6  0  0  0
  8  3  1  0  0  0  0
  9  1  1  0  0  0  0
 10 16  1  6  0  0  0
 10  3  1  0  0  0  0
 10 14  1  0  0  0  0
 12  2  1  0  0  0  0
 13  4  1  0  0  0  0
 14 19  1  6  0  0  0
 14 13  1  0  0  0  0
 15  7  2  0  0  0  0
 15  4  1  0  0  0  0
 17 21  1  0  0  0  0
 18 17  2  0  0  0  0
 18 20  1  0  0  0  0
 20 22  2  0  0  0  0
 21 19  2  0  0  0  0
 22 19  1  0  0  0  0
 23 17  1  0  0  0  0
 24 25  1  0  0  0  0
 25 26  1  0  0  0  0
 26 27  1  0  0  0  0
 27 29  1  0  0  0  0
 29 30  1  0  0  0  0
 30 34  1  0  0  0  0
 30 28  2  0  0  0  0
 31 34  1  0  0  0  0
 32 31  1  0  0  0  0
 33 32  1  0  0  0  0
 33 29  1  0  0  0  0
M  END
>  <MODEL>
8

>  <REMARK>
 VINA RESULT:      -7.2      2.220      4.875
  Name = 
  6 active torsions:
  status: ('A' for Active; 'I' for Inactive)
    1  A    between atoms: C_3  and  N_13
    2  A    between atoms: C_3  and  C_17
    3  A    between atoms: C_5  and  S_18
    4  A    between atoms: C_12  and  C_28
    5  A    between atoms: C_17  and  C_29
    6  A    between atoms: S_18  and  C_29
                            x       y       z     vdW  Elec       q    Type
                         _______ _______ _______ _____ _____    ______ ____

>  <TORSDO>
F 6

$$$$
=
 OpenBabel10272400013D

 34 38  0  0  1  0  0  0  0  0999 V2000
  188.9200  176.3240  134.5710 N   0  0  0  0  0  0  0  0  0  0  0  0
  186.7110  175.4320  137.3340 O   0  0  0  0  0  0  0  0  0  0  0  0
  188.7310  176.7000  137.5260 N   0  0  0  0  0  0  0  0  0  0  0  0
  190.2730  176.4690  139.5490 C   0  0  2  0  0  3  0  0  0  0  0  0
  186.9140  177.2420  135.8160 C   0  0  1  0  0  3  0  0  0  0  0  0
  185.4620  176.8580  135.8670 C   0  0  0  0  0  2  0  0  0  0  0  0
  188.2990  177.8460  139.5230 O   0  0  0  0  0  0  0  0  0  0  0  0
  187.3090  176.6810  137.1670 C   0  0  1  0  0  3  0  0  0  0  0  0
  187.4740  176.5040  134.5900 C   0  0  0  0  0  2  0  0  0  0  0  0
  189.7980  176.1550  136.6880 C   0  0  1  0  0  3  0  0  0  0  0  0
  189.6440  177.5990  134.4620 C   0  0  0  0  0  1  0  0  0  0  0  0
  185.4560  175.5760  136.7080 C   0  0  0  0  0  2  0  0  0  0  0  0
  191.3020  176.0610  138.5900 N   0  0  0  0  0  2  0  0  0  0  0  0
  190.6960  175.2530  137.5340 C   0  0  2  0  0  3  0  0  0  0  0  0
  189.0710  177.0910  138.8710 C   0  0  0  0  0  0  0  0  0  0  0  0
  189.2950  175.4560  135.5700 O   0  0  0  0  0  0  0  0  0  0  0  0
  192.7480  172.5690  135.7780 C   0  0  0  0  0  0  0  0  0  0  0  0
  193.7740  173.3430  135.2270 C   0  0  0  0  0  3  0  0  0  0  0  0
  191.7480  174.5660  136.7260 C   0  0  0  0  0  0  0  0  0  0  0  0
  193.7890  174.7230  135.4340 C   0  0  0  0  0  3  0  0  0  0  0  0
  191.7390  173.1780  136.5270 C   0  0  0  0  0  3  0  0  0  0  0  0
  192.7800  175.3330  136.1800 C   0  0  0  0  0  3  0  0  0  0  0  0
  192.7300  171.2300  135.5760 F   0  0  0  0  0  0  0  0  0  0  0  0
  191.0110  177.5680  140.8140 S   0  0  0  0  0  0  0  0  0  0  0  0
  190.4900  176.5360  142.2160 C   0  0  0  0  0  2  0  0  0  0  0  0
  191.5630  176.5450  143.2900 C   0  0  0  0  0  2  0  0  0  0  0  0
  191.4220  177.7890  144.1570 C   0  0  0  0  0  2  0  0  0  0  0  0
  191.9650  176.8770  146.8000 O   0  0  0  0  0  0  0  0  0  0  0  0
  190.4130  177.5990  145.1950 N   0  0  0  0  0  0  0  0  0  0  0  0
  190.7570  177.0490  146.4820 C   0  0  0  0  0  0  0  0  0  0  0  0
  188.3740  177.3230  147.1880 C   0  0  0  0  0  2  0  0  0  0  0  0
  188.0130  177.2880  145.7070 C   0  0  0  0  0  2  0  0  0  0  0  0
  189.0540  178.0770  144.9210 C   0  0  0  0  0  2  0  0  0  0  0  0
  189.6860  176.5820  147.4220 C   0  0  0  0  0  2  0  0  0  0  0  0
  1  9  1  0  0  0  0
  1 16  1  0  0  0  0
  3 15  1  0  0  0  0
  4 24  1  1  0  0  0
  5  9  1  6  0  0  0
  5  6  1  0  0  0  0
  5  8  1  0  0  0  0
  6 12  1  0  0  0  0
  8  2  1  6  0  0  0
  8  3  1  0  0  0  0
 10 16  1  6  0  0  0
 10  3  1  0  0  0  0
 10 14  1  0  0  0  0
 11  1  1  0  0  0  0
 12  2  1  0  0  0  0
 13  4  1  0  0  0  0
 14 19  1  6  0  0  0
 14 13  1  0  0  0  0
 15  7  2  0  0  0  0
 15  4  1  0  0  0  0
 17 21  1  0  0  0  0
 18 20  1  0  0  0  0
 18 17  2  0  0  0  0
 20 22  2  0  0  0  0
 21 19  2  0  0  0  0
 22 19  1  0  0  0  0
 23 17  1  0  0  0  0
 24 25  1  0  0  0  0
 25 26  1  0  0  0  0
 26 27  1  0  0  0  0
 27 29  1  0  0  0  0
 29 30  1  0  0  0  0
 30 28  2  0  0  0  0
 30 34  1  0  0  0  0
 31 34  1  0  0  0  0
 32 31  1  0  0  0  0
 33 29  1  0  0  0  0
 33 32  1  0  0  0  0
M  END
>  <MODEL>
9

>  <REMARK>
 VINA RESULT:      -7.2      2.753      5.196
  Name = 
  6 active torsions:
  status: ('A' for Active; 'I' for Inactive)
    1  A    between atoms: C_3  and  N_13
    2  A    between atoms: C_3  and  C_17
    3  A    between atoms: C_5  and  S_18
    4  A    between atoms: C_12  and  C_28
    5  A    between atoms: C_17  and  C_29
    6  A    between atoms: S_18  and  C_29
                            x       y       z     vdW  Elec       q    Type
                         _______ _______ _______ _____ _____    ______ ____

>  <TORSDO>
F 6

$$$$
