=
 OpenBabel10272402003D

 28 32  0  0  1  0  0  0  0  0999 V2000
  190.1260  178.2870  142.5280 C   0  0  2  0  0  3  0  0  0  0  0  0
  185.0150  179.0060  142.7430 C   0  0  0  0  0  3  0  0  0  0  0  0
  188.8380  177.0440  147.2820 C   0  0  0  0  0  1  0  0  0  0  0  0
  184.4230  178.4210  145.0250 C   0  0  0  0  0  0  0  0  0  0  0  0
  186.7540  178.2550  144.3110 C   0  0  0  0  0  0  0  0  0  0  0  0
  182.7130  179.1610  143.4770 C   0  0  0  0  0  0  0  0  0  0  0  0
  185.4070  178.5630  144.0170 C   0  0  0  0  0  0  0  0  0  0  0  0
  186.1110  177.6790  146.5870 C   0  0  0  0  0  3  0  0  0  0  0  0
  183.0860  178.7210  144.7490 C   0  0  0  0  0  3  0  0  0  0  0  0
  189.4460  177.6530  144.9140 C   0  0  0  0  0  0  0  0  0  0  0  0
  187.7500  178.3800  143.3360 C   0  0  0  0  0  3  0  0  0  0  0  0
  184.7820  177.9810  146.2980 C   0  0  0  0  0  3  0  0  0  0  0  0
  191.8540  178.0450  144.3270 C   0  0  0  0  0  2  0  0  0  0  0  0
  188.4550  177.5090  145.9070 C   0  0  0  0  0  0  0  0  0  0  0  0
  190.8790  177.3030  145.2290 C   0  0  0  0  0  2  0  0  0  0  0  0
  181.3840  179.4570  143.2080 O   0  0  0  0  0  1  0  0  0  0  0  0
  183.6760  179.3040  142.4760 C   0  0  0  0  0  3  0  0  0  0  0  0
  187.1090  177.8100  145.6080 C   0  0  0  0  0  0  0  0  0  0  0  0
  191.5110  177.7380  142.8810 C   0  0  0  0  0  2  0  0  0  0  0  0
  189.0830  178.0600  143.6080 C   0  0  0  0  0  0  0  0  0  0  0  0
  189.6930  177.7660  141.1900 C   0  0  0  0  0  0  0  0  0  0  0  0
  188.5610  178.2860  140.5430 C   0  0  0  0  0  3  0  0  0  0  0  0
  188.9290  176.7810  138.6790 C   0  0  0  0  0  0  0  0  0  0  0  0
  190.4390  176.7550  140.5740 C   0  0  0  0  0  3  0  0  0  0  0  0
  187.0560  178.3160  138.6610 O   0  0  0  0  0  1  0  0  0  0  0  0
  188.1790  177.7940  139.2920 C   0  0  0  0  0  0  0  0  0  0  0  0
  188.5580  176.2860  137.4360 O   0  0  0  0  0  1  0  0  0  0  0  0
  190.0580  176.2630  139.3230 C   0  0  0  0  0  3  0  0  0  0  0  0
  1 21  1  6  0  0  0
  1 19  1  0  0  0  0
  1 20  1  0  0  0  0
  2  7  1  0  0  0  0
  4 12  1  0  0  0  0
  5 18  1  0  0  0  0
  6  9  2  0  0  0  0
  7  5  1  0  0  0  0
  7  4  2  0  0  0  0
  9  4  1  0  0  0  0
 10 15  1  0  0  0  0
 10 14  1  0  0  0  0
 11 20  1  0  0  0  0
 11  5  2  0  0  0  0
 12  8  2  0  0  0  0
 13 15  1  0  0  0  0
 14  3  1  0  0  0  0
 16  6  1  0  0  0  0
 17  2  2  0  0  0  0
 17  6  1  0  0  0  0
 18 14  2  0  0  0  0
 18  8  1  0  0  0  0
 19 13  1  0  0  0  0
 20 10  2  0  0  0  0
 22 21  2  0  0  0  0
 23 26  2  0  0  0  0
 23 28  1  0  0  0  0
 24 21  1  0  0  0  0
 25 26  1  0  0  0  0
 26 22  1  0  0  0  0
 27 23  1  0  0  0  0
 28 24  2  0  0  0  0
M  END
>  <MODEL>
1

>  <REMARK>
 VINA RESULT:     -10.9      0.000      0.000
  Name = 
  1 active torsions:
  status: ('A' for Active; 'I' for Inactive)
    1  A    between atoms: C_1  and  C_2
                            x       y       z     vdW  Elec       q    Type
                         _______ _______ _______ _____ _____    ______ ____

>  <TORSDO>
F 1

$$$$
=
 OpenBabel10272402003D

 28 32  0  0  1  0  0  0  0  0999 V2000
  189.9370  177.8460  140.1160 C   0  0  2  0  0  3  0  0  0  0  0  0
  185.2000  178.6300  142.0220 C   0  0  0  0  0  3  0  0  0  0  0  0
  190.3640  176.8950  145.0870 C   0  0  0  0  0  1  0  0  0  0  0  0
  185.4300  178.1840  144.4000 C   0  0  0  0  0  0  0  0  0  0  0  0
  187.3780  177.9530  142.9430 C   0  0  0  0  0  0  0  0  0  0  0  0
  183.2870  178.8510  143.4890 C   0  0  0  0  0  0  0  0  0  0  0  0
  186.0090  178.2570  143.1090 C   0  0  0  0  0  0  0  0  0  0  0  0
  187.5580  177.5170  145.3300 C   0  0  0  0  0  3  0  0  0  0  0  0
  184.0770  178.4820  144.5800 C   0  0  0  0  0  3  0  0  0  0  0  0
  190.1190  177.3590  142.6230 C   0  0  0  0  0  0  0  0  0  0  0  0
  187.9790  178.0110  141.6800 C   0  0  0  0  0  3  0  0  0  0  0  0
  186.2070  177.8160  145.4970 C   0  0  0  0  0  3  0  0  0  0  0  0
  192.1780  177.6910  141.2270 C   0  0  0  0  0  2  0  0  0  0  0  0
  189.5300  177.2830  143.9010 C   0  0  0  0  0  0  0  0  0  0  0  0
  191.5780  177.0130  142.4480 C   0  0  0  0  0  2  0  0  0  0  0  0
  181.9430  179.1450  143.6740 O   0  0  0  0  0  1  0  0  0  0  0  0
  183.8480  178.9250  142.2120 C   0  0  0  0  0  3  0  0  0  0  0  0
  188.1590  177.5810  144.0640 C   0  0  0  0  0  0  0  0  0  0  0  0
  191.3640  177.3040  140.0050 C   0  0  0  0  0  2  0  0  0  0  0  0
  189.3280  177.6930  141.4980 C   0  0  0  0  0  0  0  0  0  0  0  0
  189.0780  177.2530  139.0380 C   0  0  0  0  0  0  0  0  0  0  0  0
  187.8790  177.8700  138.6470 C   0  0  0  0  0  3  0  0  0  0  0  0
  187.5100  176.1240  137.0070 C   0  0  0  0  0  0  0  0  0  0  0  0
  189.4860  176.0720  138.4090 C   0  0  0  0  0  3  0  0  0  0  0  0
  185.9120  177.9260  137.2560 O   0  0  0  0  0  1  0  0  0  0  0  0
  187.0970  177.3070  137.6350 C   0  0  0  0  0  0  0  0  0  0  0  0
  186.7400  175.5570  136.0000 O   0  0  0  0  0  1  0  0  0  0  0  0
  188.7050  175.5090  137.3960 C   0  0  0  0  0  3  0  0  0  0  0  0
  1 21  1  6  0  0  0
  1 20  1  0  0  0  0
  2 17  2  0  0  0  0
  2  7  1  0  0  0  0
  4  9  1  0  0  0  0
  4 12  1  0  0  0  0
  5  7  1  0  0  0  0
  5 18  1  0  0  0  0
  6 16  1  0  0  0  0
  6  9  2  0  0  0  0
  7  4  2  0  0  0  0
  8 12  2  0  0  0  0
 10 14  1  0  0  0  0
 11  5  2  0  0  0  0
 13 15  1  0  0  0  0
 14 18  2  0  0  0  0
 14  3  1  0  0  0  0
 15 10  1  0  0  0  0
 17  6  1  0  0  0  0
 18  8  1  0  0  0  0
 19  1  1  0  0  0  0
 19 13  1  0  0  0  0
 20 11  1  0  0  0  0
 20 10  2  0  0  0  0
 22 21  1  0  0  0  0
 23 28  2  0  0  0  0
 23 26  1  0  0  0  0
 24 21  2  0  0  0  0
 25 26  1  0  0  0  0
 26 22  2  0  0  0  0
 27 23  1  0  0  0  0
 28 24  1  0  0  0  0
M  END
>  <MODEL>
2

>  <REMARK>
 VINA RESULT:     -10.5      1.216      2.044
  Name = 
  1 active torsions:
  status: ('A' for Active; 'I' for Inactive)
    1  A    between atoms: C_1  and  C_2
                            x       y       z     vdW  Elec       q    Type
                         _______ _______ _______ _____ _____    ______ ____

>  <TORSDO>
F 1

$$$$
=
 OpenBabel10272402003D

 28 32  0  0  1  0  0  0  0  0999 V2000
  186.7060  177.3200  142.6510 C   0  0  2  0  0  3  0  0  0  0  0  0
  190.7710  176.2700  145.6610 C   0  0  0  0  0  3  0  0  0  0  0  0
  185.6110  179.4840  147.1140 C   0  0  0  0  0  1  0  0  0  0  0  0
  190.2210  177.3000  147.7920 C   0  0  0  0  0  0  0  0  0  0  0  0
  188.6490  177.4850  145.9300 C   0  0  0  0  0  0  0  0  0  0  0  0
  192.3100  176.1040  147.5230 C   0  0  0  0  0  0  0  0  0  0  0  0
  189.8760  177.0150  146.4480 C   0  0  0  0  0  0  0  0  0  0  0  0
  188.1430  178.5000  148.0830 C   0  0  0  0  0  3  0  0  0  0  0  0
  191.4320  176.8430  148.3190 C   0  0  0  0  0  3  0  0  0  0  0  0
  186.1870  178.4130  144.9070 C   0  0  0  0  0  0  0  0  0  0  0  0
  188.2820  177.2230  144.6050 C   0  0  0  0  0  3  0  0  0  0  0  0
  189.3540  178.0380  148.5960 C   0  0  0  0  0  3  0  0  0  0  0  0
  184.3840  178.0890  143.1930 C   0  0  0  0  0  2  0  0  0  0  0  0
  186.5450  178.6970  146.2410 C   0  0  0  0  0  0  0  0  0  0  0  0
  184.8840  178.9350  144.3530 C   0  0  0  0  0  2  0  0  0  0  0  0
  193.5110  175.6530  148.0510 O   0  0  0  0  0  1  0  0  0  0  0  0
  191.9800  175.8170  146.1960 C   0  0  0  0  0  3  0  0  0  0  0  0
  187.7750  178.2330  146.7550 C   0  0  0  0  0  0  0  0  0  0  0  0
  185.4620  178.0400  142.1250 C   0  0  0  0  0  2  0  0  0  0  0  0
  187.0800  177.6990  144.0730 C   0  0  0  0  0  0  0  0  0  0  0  0
  187.8450  177.4940  141.6900 C   0  0  0  0  0  0  0  0  0  0  0  0
  187.6940  178.2520  140.5190 C   0  0  0  0  0  3  0  0  0  0  0  0
  190.0040  177.8140  139.9310 C   0  0  0  0  0  0  0  0  0  0  0  0
  189.0790  176.9000  141.9760 C   0  0  0  0  0  3  0  0  0  0  0  0
  188.6080  179.1630  138.4840 O   0  0  0  0  0  1  0  0  0  0  0  0
  188.7690  178.4110  139.6410 C   0  0  0  0  0  0  0  0  0  0  0  0
  191.0790  177.9660  139.0650 O   0  0  0  0  0  1  0  0  0  0  0  0
  190.1550  177.0590  141.0990 C   0  0  0  0  0  3  0  0  0  0  0  0
  1 21  1  6  0  0  0
  1 20  1  0  0  0  0
  2 17  2  0  0  0  0
  2  7  1  0  0  0  0
  4  9  1  0  0  0  0
  4 12  1  0  0  0  0
  5  7  1  0  0  0  0
  5 18  1  0  0  0  0
  6 16  1  0  0  0  0
  6  9  2  0  0  0  0
  7  4  2  0  0  0  0
  8 12  2  0  0  0  0
 10 14  1  0  0  0  0
 11  5  2  0  0  0  0
 13 15  1  0  0  0  0
 14 18  2  0  0  0  0
 14  3  1  0  0  0  0
 15 10  1  0  0  0  0
 17  6  1  0  0  0  0
 18  8  1  0  0  0  0
 19  1  1  0  0  0  0
 19 13  1  0  0  0  0
 20 11  1  0  0  0  0
 20 10  2  0  0  0  0
 21 24  1  0  0  0  0
 22 21  2  0  0  0  0
 23 28  1  0  0  0  0
 25 26  1  0  0  0  0
 26 23  2  0  0  0  0
 26 22  1  0  0  0  0
 27 23  1  0  0  0  0
 28 24  2  0  0  0  0
M  END
>  <MODEL>
3

>  <REMARK>
 VINA RESULT:     -10.2      2.725      5.555
  Name = 
  1 active torsions:
  status: ('A' for Active; 'I' for Inactive)
    1  A    between atoms: C_1  and  C_2
                            x       y       z     vdW  Elec       q    Type
                         _______ _______ _______ _____ _____    ______ ____

>  <TORSDO>
F 1

$$$$
=
 OpenBabel10272402003D

 28 32  0  0  1  0  0  0  0  0999 V2000
  184.3330  178.0060  142.4900 C   0  0  2  0  0  3  0  0  0  0  0  0
  189.1450  176.2420  143.1430 C   0  0  0  0  0  3  0  0  0  0  0  0
  185.6070  179.4170  147.2010 C   0  0  0  0  0  1  0  0  0  0  0  0
  189.7280  176.9130  145.4040 C   0  0  0  0  0  0  0  0  0  0  0  0
  187.5310  177.4990  144.5080 C   0  0  0  0  0  0  0  0  0  0  0  0
  191.3150  175.6750  144.0560 C   0  0  0  0  0  0  0  0  0  0  0  0
  188.7920  176.8840  144.3420 C   0  0  0  0  0  0  0  0  0  0  0  0
  188.1610  178.1490  146.7670 C   0  0  0  0  0  3  0  0  0  0  0  0
  190.9790  176.3100  145.2540 C   0  0  0  0  0  3  0  0  0  0  0  0
  185.0080  178.7160  144.8560 C   0  0  0  0  0  0  0  0  0  0  0  0
  186.5860  177.4910  143.4760 C   0  0  0  0  0  3  0  0  0  0  0  0
  189.4060  177.5440  146.6040 C   0  0  0  0  0  3  0  0  0  0  0  0
  182.6070  178.7890  144.1290 C   0  0  0  0  0  2  0  0  0  0  0  0
  185.9510  178.7450  145.9030 C   0  0  0  0  0  0  0  0  0  0  0  0
  183.6710  179.3930  145.0320 C   0  0  0  0  0  2  0  0  0  0  0  0
  192.5590  175.0780  143.9120 O   0  0  0  0  0  1  0  0  0  0  0  0
  190.3990  175.6410  143.0020 C   0  0  0  0  0  3  0  0  0  0  0  0
  187.2130  178.1360  145.7320 C   0  0  0  0  0  0  0  0  0  0  0  0
  183.0860  178.8700  142.6910 C   0  0  0  0  0  2  0  0  0  0  0  0
  185.3420  178.1130  143.6200 C   0  0  0  0  0  0  0  0  0  0  0  0
  184.9410  178.2860  141.1470 C   0  0  0  0  0  0  0  0  0  0  0  0
  186.3300  178.4130  140.9930 C   0  0  0  0  0  3  0  0  0  0  0  0
  186.0390  178.7880  138.6170 C   0  0  0  0  0  0  0  0  0  0  0  0
  184.1070  178.4110  140.0310 C   0  0  0  0  0  3  0  0  0  0  0  0
  188.2550  178.7880  139.5930 O   0  0  0  0  0  1  0  0  0  0  0  0
  186.8780  178.6640  139.7330 C   0  0  0  0  0  0  0  0  0  0  0  0
  186.5730  179.0370  137.3600 O   0  0  0  0  0  1  0  0  0  0  0  0
  184.6540  178.6610  138.7690 C   0  0  0  0  0  3  0  0  0  0  0  0
  1 21  1  6  0  0  0
  1 19  1  0  0  0  0
  1 20  1  0  0  0  0
  2  7  1  0  0  0  0
  4 12  1  0  0  0  0
  5 18  1  0  0  0  0
  6  9  2  0  0  0  0
  7  5  1  0  0  0  0
  7  4  2  0  0  0  0
  9  4  1  0  0  0  0
 10 15  1  0  0  0  0
 10 14  1  0  0  0  0
 11 20  1  0  0  0  0
 11  5  2  0  0  0  0
 12  8  2  0  0  0  0
 13 15  1  0  0  0  0
 14  3  1  0  0  0  0
 16  6  1  0  0  0  0
 17  2  2  0  0  0  0
 17  6  1  0  0  0  0
 18 14  2  0  0  0  0
 18  8  1  0  0  0  0
 19 13  1  0  0  0  0
 20 10  2  0  0  0  0
 22 21  1  0  0  0  0
 23 28  2  0  0  0  0
 23 26  1  0  0  0  0
 24 21  2  0  0  0  0
 25 26  1  0  0  0  0
 26 22  2  0  0  0  0
 27 23  1  0  0  0  0
 28 24  1  0  0  0  0
M  END
>  <MODEL>
4

>  <REMARK>
 VINA RESULT:     -10.1      2.316      5.670
  Name = 
  1 active torsions:
  status: ('A' for Active; 'I' for Inactive)
    1  A    between atoms: C_1  and  C_2
                            x       y       z     vdW  Elec       q    Type
                         _______ _______ _______ _____ _____    ______ ____

>  <TORSDO>
F 1

$$$$
=
 OpenBabel10272402003D

 28 32  0  0  1  0  0  0  0  0999 V2000
  190.0500  178.1910  141.3500 C   0  0  2  0  0  3  0  0  0  0  0  0
  185.0050  178.9280  140.5170 C   0  0  0  0  0  3  0  0  0  0  0  0
  187.8690  177.4920  145.8840 C   0  0  0  0  0  1  0  0  0  0  0  0
  183.9840  178.6040  142.6980 C   0  0  0  0  0  0  0  0  0  0  0  0
  186.4030  178.3590  142.4580 C   0  0  0  0  0  0  0  0  0  0  0  0
  182.6100  179.1630  140.7830 C   0  0  0  0  0  0  0  0  0  0  0  0
  185.1420  178.6310  141.8840 C   0  0  0  0  0  0  0  0  0  0  0  0
  185.3350  178.0440  144.6220 C   0  0  0  0  0  3  0  0  0  0  0  0
  182.7290  178.8700  142.1440 C   0  0  0  0  0  3  0  0  0  0  0  0
  188.9220  177.8300  143.6190 C   0  0  0  0  0  0  0  0  0  0  0  0
  187.5660  178.3740  141.6800 C   0  0  0  0  0  3  0  0  0  0  0  0
  184.0890  178.3110  144.0570 C   0  0  0  0  0  3  0  0  0  0  0  0
  191.4050  178.1550  143.4570 C   0  0  0  0  0  2  0  0  0  0  0  0
  187.7610  177.7990  144.4180 C   0  0  0  0  0  0  0  0  0  0  0  0
  190.2640  177.5180  144.2350 C   0  0  0  0  0  2  0  0  0  0  0  0
  181.3610  179.4260  140.2380 O   0  0  0  0  0  1  0  0  0  0  0  0
  183.7460  179.1920  139.9710 C   0  0  0  0  0  3  0  0  0  0  0  0
  186.5000  178.0640  143.8400 C   0  0  0  0  0  0  0  0  0  0  0  0
  191.3320  177.6860  142.0150 C   0  0  0  0  0  2  0  0  0  0  0  0
  188.8180  178.0870  142.2320 C   0  0  0  0  0  0  0  0  0  0  0  0
  189.8640  177.5220  140.0190 C   0  0  0  0  0  0  0  0  0  0  0  0
  190.5940  176.3740  139.6780 C   0  0  0  0  0  3  0  0  0  0  0  0
  189.4710  176.2910  137.5320 C   0  0  0  0  0  0  0  0  0  0  0  0
  188.9380  178.0490  139.1120 C   0  0  0  0  0  3  0  0  0  0  0  0
  191.1290  174.6230  138.1100 O   0  0  0  0  0  1  0  0  0  0  0  0
  190.4000  175.7600  138.4380 C   0  0  0  0  0  0  0  0  0  0  0  0
  189.2700  175.6870  136.2980 O   0  0  0  0  0  1  0  0  0  0  0  0
  188.7420  177.4350  137.8720 C   0  0  0  0  0  3  0  0  0  0  0  0
  1 21  1  6  0  0  0
  1 19  1  0  0  0  0
  1 20  1  0  0  0  0
  2  7  1  0  0  0  0
  4 12  1  0  0  0  0
  5 18  1  0  0  0  0
  6  9  2  0  0  0  0
  7  5  1  0  0  0  0
  7  4  2  0  0  0  0
  9  4  1  0  0  0  0
 10 15  1  0  0  0  0
 10 14  1  0  0  0  0
 11 20  1  0  0  0  0
 11  5  2  0  0  0  0
 12  8  2  0  0  0  0
 13 15  1  0  0  0  0
 14  3  1  0  0  0  0
 16  6  1  0  0  0  0
 17  2  2  0  0  0  0
 17  6  1  0  0  0  0
 18 14  2  0  0  0  0
 18  8  1  0  0  0  0
 19 13  1  0  0  0  0
 20 10  2  0  0  0  0
 22 21  1  0  0  0  0
 23 28  2  0  0  0  0
 23 26  1  0  0  0  0
 24 21  2  0  0  0  0
 25 26  1  0  0  0  0
 26 22  2  0  0  0  0
 27 23  1  0  0  0  0
 28 24  1  0  0  0  0
M  END
>  <MODEL>
5

>  <REMARK>
 VINA RESULT:     -10.0      1.454      2.273
  Name = 
  1 active torsions:
  status: ('A' for Active; 'I' for Inactive)
    1  A    between atoms: C_1  and  C_2
                            x       y       z     vdW  Elec       q    Type
                         _______ _______ _______ _____ _____    ______ ____

>  <TORSDO>
F 1

$$$$
=
 OpenBabel10272402003D

 28 32  0  0  1  0  0  0  0  0999 V2000
  188.9980  177.8620  138.8920 C   0  0  2  0  0  3  0  0  0  0  0  0
  185.5890  178.6820  142.6860 C   0  0  0  0  0  3  0  0  0  0  0  0
  191.2840  176.1390  143.0880 C   0  0  0  0  0  1  0  0  0  0  0  0
  186.7060  177.8650  144.6830 C   0  0  0  0  0  0  0  0  0  0  0  0
  187.8460  177.7190  142.5260 C   0  0  0  0  0  0  0  0  0  0  0  0
  184.4820  178.8120  144.8360 C   0  0  0  0  0  0  0  0  0  0  0  0
  186.7150  178.0910  143.2850 C   0  0  0  0  0  0  0  0  0  0  0  0
  188.9250  176.9150  144.5540 C   0  0  0  0  0  3  0  0  0  0  0  0
  185.5940  178.2260  145.4460 C   0  0  0  0  0  3  0  0  0  0  0  0
  190.1200  176.9890  141.0210 C   0  0  0  0  0  0  0  0  0  0  0  0
  187.8840  177.9260  141.1420 C   0  0  0  0  0  3  0  0  0  0  0  0
  187.8080  177.2800  145.3040 C   0  0  0  0  0  3  0  0  0  0  0  0
  191.4570  177.3820  138.9340 C   0  0  0  0  0  2  0  0  0  0  0  0
  190.0970  176.7620  142.4120 C   0  0  0  0  0  0  0  0  0  0  0  0
  191.3240  176.5700  140.2130 C   0  0  0  0  0  2  0  0  0  0  0  0
  183.3800  179.1690  145.5980 O   0  0  0  0  0  1  0  0  0  0  0  0
  184.4800  179.0400  143.4570 C   0  0  0  0  0  3  0  0  0  0  0  0
  188.9620  177.1270  143.1670 C   0  0  0  0  0  0  0  0  0  0  0  0
  190.1750  177.2430  138.1330 C   0  0  0  0  0  2  0  0  0  0  0  0
  188.9900  177.5440  140.3770 C   0  0  0  0  0  0  0  0  0  0  0  0
  187.7070  177.5020  138.2180 C   0  0  0  0  0  0  0  0  0  0  0  0
  187.5850  176.3220  137.4690 C   0  0  0  0  0  3  0  0  0  0  0  0
  185.2700  176.8550  136.9930 C   0  0  0  0  0  0  0  0  0  0  0  0
  186.6040  178.3540  138.3510 C   0  0  0  0  0  3  0  0  0  0  0  0
  186.2630  174.8280  136.1180 O   0  0  0  0  0  1  0  0  0  0  0  0
  186.3710  175.9990  136.8580 C   0  0  0  0  0  0  0  0  0  0  0  0
  184.0590  176.5430  136.3900 O   0  0  0  0  0  1  0  0  0  0  0  0
  185.3900  178.0310  137.7410 C   0  0  0  0  0  3  0  0  0  0  0  0
  1 21  1  6  0  0  0
  1 20  1  0  0  0  0
  2  7  2  0  0  0  0
  2 17  1  0  0  0  0
  4 12  1  0  0  0  0
  4  9  2  0  0  0  0
  5 18  1  0  0  0  0
  5  7  1  0  0  0  0
  6  9  1  0  0  0  0
  6 16  1  0  0  0  0
  7  4  1  0  0  0  0
  8 12  2  0  0  0  0
 10 14  1  0  0  0  0
 11  5  2  0  0  0  0
 13 15  1  0  0  0  0
 14  3  1  0  0  0  0
 14 18  2  0  0  0  0
 15 10  1  0  0  0  0
 17  6  2  0  0  0  0
 18  8  1  0  0  0  0
 19  1  1  0  0  0  0
 19 13  1  0  0  0  0
 20 10  2  0  0  0  0
 20 11  1  0  0  0  0
 21 24  1  0  0  0  0
 22 21  2  0  0  0  0
 23 28  1  0  0  0  0
 25 26  1  0  0  0  0
 26 23  2  0  0  0  0
 26 22  1  0  0  0  0
 27 23  1  0  0  0  0
 28 24  2  0  0  0  0
M  END
>  <MODEL>
6

>  <REMARK>
 VINA RESULT:      -9.9      1.914      3.696
  Name = 
  1 active torsions:
  status: ('A' for Active; 'I' for Inactive)
    1  A    between atoms: C_1  and  C_2
                            x       y       z     vdW  Elec       q    Type
                         _______ _______ _______ _____ _____    ______ ____

>  <TORSDO>
F 1

$$$$
=
 OpenBabel10272402003D

 28 32  0  0  1  0  0  0  0  0999 V2000
  186.7140  178.7880  138.5360 C   0  0  2  0  0  3  0  0  0  0  0  0
  185.2380  178.6330  143.4850 C   0  0  0  0  0  3  0  0  0  0  0  0
  190.7230  176.9130  141.0300 C   0  0  0  0  0  1  0  0  0  0  0  0
  187.1720  177.7480  144.6590 C   0  0  0  0  0  0  0  0  0  0  0  0
  187.2700  178.0350  142.2350 C   0  0  0  0  0  0  0  0  0  0  0  0
  185.1680  178.3370  145.8870 C   0  0  0  0  0  0  0  0  0  0  0  0
  186.5540  178.1430  143.4480 C   0  0  0  0  0  0  0  0  0  0  0  0
  189.1810  177.1530  143.4560 C   0  0  0  0  0  3  0  0  0  0  0  0
  186.4770  177.8470  145.8670 C   0  0  0  0  0  3  0  0  0  0  0  0
  188.7140  177.8320  139.8170 C   0  0  0  0  0  0  0  0  0  0  0  0
  186.6860  178.4130  141.0200 C   0  0  0  0  0  3  0  0  0  0  0  0
  188.4760  177.2570  144.6530 C   0  0  0  0  0  3  0  0  0  0  0  0
  188.9770  178.6690  137.4660 C   0  0  0  0  0  2  0  0  0  0  0  0
  189.3150  177.4350  141.0290 C   0  0  0  0  0  0  0  0  0  0  0  0
  189.4770  177.6950  138.5220 C   0  0  0  0  0  2  0  0  0  0  0  0
  184.4820  178.4330  147.0890 O   0  0  0  0  0  1  0  0  0  0  0  0
  184.5500  178.7290  144.6970 C   0  0  0  0  0  3  0  0  0  0  0  0
  188.5950  177.5370  142.2400 C   0  0  0  0  0  0  0  0  0  0  0  0
  187.4890  178.4450  137.2620 C   0  0  0  0  0  2  0  0  0  0  0  0
  187.3760  178.2930  139.8100 C   0  0  0  0  0  0  0  0  0  0  0  0
  185.2910  178.3300  138.4110 C   0  0  0  0  0  0  0  0  0  0  0  0
  184.2370  179.0870  138.9460 C   0  0  0  0  0  3  0  0  0  0  0  0
  182.6440  177.4500  138.1380 C   0  0  0  0  0  0  0  0  0  0  0  0
  185.0130  177.1340  137.7390 C   0  0  0  0  0  3  0  0  0  0  0  0
  181.8820  179.4050  139.3460 O   0  0  0  0  0  1  0  0  0  0  0  0
  182.9180  178.6480  138.8110 C   0  0  0  0  0  0  0  0  0  0  0  0
  181.3360  177.0050  137.9970 O   0  0  0  0  0  1  0  0  0  0  0  0
  183.6930  176.6960  137.6030 C   0  0  0  0  0  3  0  0  0  0  0  0
  1 21  1  6  0  0  0
  1 20  1  0  0  0  0
  2 17  1  0  0  0  0
  4  9  2  0  0  0  0
  5 18  1  0  0  0  0
  5  7  1  0  0  0  0
  6 16  1  0  0  0  0
  7  2  2  0  0  0  0
  7  4  1  0  0  0  0
  8 12  2  0  0  0  0
  9  6  1  0  0  0  0
 10 14  1  0  0  0  0
 11  5  2  0  0  0  0
 12  4  1  0  0  0  0
 13 15  1  0  0  0  0
 14  3  1  0  0  0  0
 14 18  2  0  0  0  0
 15 10  1  0  0  0  0
 17  6  2  0  0  0  0
 18  8  1  0  0  0  0
 19 13  1  0  0  0  0
 19  1  1  0  0  0  0
 20 10  2  0  0  0  0
 20 11  1  0  0  0  0
 21 22  1  0  0  0  0
 23 26  1  0  0  0  0
 24 21  2  0  0  0  0
 26 22  2  0  0  0  0
 26 25  1  0  0  0  0
 27 23  1  0  0  0  0
 28 24  1  0  0  0  0
 28 23  2  0  0  0  0
M  END
>  <MODEL>
7

>  <REMARK>
 VINA RESULT:      -9.9      2.676      5.002
  Name = 
  1 active torsions:
  status: ('A' for Active; 'I' for Inactive)
    1  A    between atoms: C_1  and  C_2
                            x       y       z     vdW  Elec       q    Type
                         _______ _______ _______ _____ _____    ______ ____

>  <TORSDO>
F 1

$$$$
=
 OpenBabel10272402003D

 28 32  0  0  1  0  0  0  0  0999 V2000
  189.2670  177.9820  146.4930 C   0  0  2  0  0  3  0  0  0  0  0  0
  188.1260  178.2180  141.4600 C   0  0  0  0  0  3  0  0  0  0  0  0
  184.2150  178.4840  146.3280 C   0  0  0  0  0  1  0  0  0  0  0  0
  185.7100  178.4730  141.4040 C   0  0  0  0  0  0  0  0  0  0  0  0
  186.8470  178.2840  143.5590 C   0  0  0  0  0  0  0  0  0  0  0  0
  186.9740  178.4070  139.3390 C   0  0  0  0  0  0  0  0  0  0  0  0
  186.9060  178.3250  142.1490 C   0  0  0  0  0  0  0  0  0  0  0  0
  184.4290  178.5400  143.4520 C   0  0  0  0  0  3  0  0  0  0  0  0
  185.7520  178.5130  140.0080 C   0  0  0  0  0  3  0  0  0  0  0  0
  186.7200  178.2220  146.3790 C   0  0  0  0  0  0  0  0  0  0  0  0
  188.0100  178.1340  144.3230 C   0  0  0  0  0  3  0  0  0  0  0  0
  184.4850  178.5790  142.0600 C   0  0  0  0  0  3  0  0  0  0  0  0
  187.9500  178.6030  148.5320 C   0  0  0  0  0  2  0  0  0  0  0  0
  185.5360  178.3620  145.6260 C   0  0  0  0  0  0  0  0  0  0  0  0
  186.6480  178.1590  147.8850 C   0  0  0  0  0  2  0  0  0  0  0  0
  187.0100  178.4470  137.9520 O   0  0  0  0  0  1  0  0  0  0  0  0
  188.1590  178.2600  140.0630 C   0  0  0  0  0  3  0  0  0  0  0  0
  185.5970  178.3940  144.2160 C   0  0  0  0  0  0  0  0  0  0  0  0
  189.0810  177.7450  147.9930 C   0  0  0  0  0  2  0  0  0  0  0  0
  187.9630  178.0730  145.7190 C   0  0  0  0  0  0  0  0  0  0  0  0
  190.2050  176.9590  145.9240 C   0  0  0  0  0  0  0  0  0  0  0  0
  190.1350  176.5850  144.5730 C   0  0  0  0  0  3  0  0  0  0  0  0
  191.9890  175.0580  144.8940 C   0  0  0  0  0  0  0  0  0  0  0  0
  191.1700  176.3780  146.7540 C   0  0  0  0  0  3  0  0  0  0  0  0
  190.9440  175.2740  142.7200 O   0  0  0  0  0  1  0  0  0  0  0  0
  191.0230  175.6370  144.0590 C   0  0  0  0  0  0  0  0  0  0  0  0
  192.8770  174.1160  144.3930 O   0  0  0  0  0  1  0  0  0  0  0  0
  192.0600  175.4310  146.2400 C   0  0  0  0  0  3  0  0  0  0  0  0
  1 21  1  6  0  0  0
  1 19  1  0  0  0  0
  2  7  1  0  0  0  0
  4 12  2  0  0  0  0
  4  7  1  0  0  0  0
  5 18  1  0  0  0  0
  5 11  1  0  0  0  0
  6  9  2  0  0  0  0
  6 17  1  0  0  0  0
  7  5  2  0  0  0  0
  8 18  2  0  0  0  0
  9  4  1  0  0  0  0
 10 15  1  0  0  0  0
 11 20  2  0  0  0  0
 12  8  1  0  0  0  0
 14  3  1  0  0  0  0
 14 10  2  0  0  0  0
 15 13  1  0  0  0  0
 16  6  1  0  0  0  0
 17  2  2  0  0  0  0
 18 14  1  0  0  0  0
 19 13  1  0  0  0  0
 20 10  1  0  0  0  0
 20  1  1  0  0  0  0
 21 24  1  0  0  0  0
 22 21  2  0  0  0  0
 23 28  1  0  0  0  0
 25 26  1  0  0  0  0
 26 22  1  0  0  0  0
 26 23  2  0  0  0  0
 27 23  1  0  0  0  0
 28 24  2  0  0  0  0
M  END
>  <MODEL>
8

>  <REMARK>
 VINA RESULT:      -9.6      2.392      5.055
  Name = 
  1 active torsions:
  status: ('A' for Active; 'I' for Inactive)
    1  A    between atoms: C_1  and  C_2
                            x       y       z     vdW  Elec       q    Type
                         _______ _______ _______ _____ _____    ______ ____

>  <TORSDO>
F 1

$$$$
=
 OpenBabel10272402003D

 28 32  0  0  1  0  0  0  0  0999 V2000
  186.9640  177.1590  145.0730 C   0  0  2  0  0  3  0  0  0  0  0  0
  188.0820  177.1020  140.0300 C   0  0  0  0  0  3  0  0  0  0  0  0
  191.9820  177.9140  144.8460 C   0  0  0  0  0  1  0  0  0  0  0  0
  190.4850  177.4500  139.9450 C   0  0  0  0  0  0  0  0  0  0  0  0
  189.3570  177.3990  142.1120 C   0  0  0  0  0  0  0  0  0  0  0  0
  189.2260  177.1570  137.8960 C   0  0  0  0  0  0  0  0  0  0  0  0
  189.2970  177.3150  140.7030 C   0  0  0  0  0  0  0  0  0  0  0  0
  191.7620  177.7450  141.9750 C   0  0  0  0  0  3  0  0  0  0  0  0
  190.4420  177.3700  138.5500 C   0  0  0  0  0  3  0  0  0  0  0  0
  189.4890  177.5520  144.9280 C   0  0  0  0  0  0  0  0  0  0  0  0
  188.2000  177.2740  142.8890 C   0  0  0  0  0  3  0  0  0  0  0  0
  191.7040  177.6630  140.5850 C   0  0  0  0  0  3  0  0  0  0  0  0
  188.4110  176.9260  147.1050 C   0  0  0  0  0  2  0  0  0  0  0  0
  190.6640  177.6920  144.1610 C   0  0  0  0  0  0  0  0  0  0  0  0
  189.5580  177.6640  146.4310 C   0  0  0  0  0  2  0  0  0  0  0  0
  189.1880  177.0790  136.5110 O   0  0  0  0  0  1  0  0  0  0  0  0
  188.0480  177.0230  138.6350 C   0  0  0  0  0  3  0  0  0  0  0  0
  190.6010  177.6150  142.7530 C   0  0  0  0  0  0  0  0  0  0  0  0
  187.0990  177.4670  146.5660 C   0  0  0  0  0  2  0  0  0  0  0  0
  188.2420  177.3760  144.2830 C   0  0  0  0  0  0  0  0  0  0  0  0
  185.7970  177.9070  144.4980 C   0  0  0  0  0  0  0  0  0  0  0  0
  185.6340  178.0380  143.1100 C   0  0  0  0  0  3  0  0  0  0  0  0
  183.5930  179.2940  143.4630 C   0  0  0  0  0  0  0  0  0  0  0  0
  184.8530  178.4720  145.3620 C   0  0  0  0  0  3  0  0  0  0  0  0
  184.3850  178.8540  141.2180 O   0  0  0  0  0  1  0  0  0  0  0  0
  184.5360  178.7300  142.5940 C   0  0  0  0  0  0  0  0  0  0  0  0
  182.4970  179.9830  142.9600 O   0  0  0  0  0  1  0  0  0  0  0  0
  183.7540  179.1630  144.8460 C   0  0  0  0  0  3  0  0  0  0  0  0
  1 21  1  6  0  0  0
  1 19  1  0  0  0  0
  2  7  1  0  0  0  0
  4 12  2  0  0  0  0
  4  7  1  0  0  0  0
  5 18  1  0  0  0  0
  5 11  1  0  0  0  0
  6  9  2  0  0  0  0
  6 17  1  0  0  0  0
  7  5  2  0  0  0  0
  8 18  2  0  0  0  0
  9  4  1  0  0  0  0
 10 15  1  0  0  0  0
 11 20  2  0  0  0  0
 12  8  1  0  0  0  0
 14  3  1  0  0  0  0
 14 10  2  0  0  0  0
 15 13  1  0  0  0  0
 16  6  1  0  0  0  0
 17  2  2  0  0  0  0
 18 14  1  0  0  0  0
 19 13  1  0  0  0  0
 20 10  1  0  0  0  0
 20  1  1  0  0  0  0
 21 24  1  0  0  0  0
 22 21  2  0  0  0  0
 23 28  1  0  0  0  0
 25 26  1  0  0  0  0
 26 22  1  0  0  0  0
 26 23  2  0  0  0  0
 27 23  1  0  0  0  0
 28 24  2  0  0  0  0
M  END
>  <MODEL>
9

>  <REMARK>
 VINA RESULT:      -9.5      1.203      6.147
  Name = 
  1 active torsions:
  status: ('A' for Active; 'I' for Inactive)
    1  A    between atoms: C_1  and  C_2
                            x       y       z     vdW  Elec       q    Type
                         _______ _______ _______ _____ _____    ______ ____

>  <TORSDO>
F 1

$$$$
