=
 OpenBabel10272413553D

 30 32  0  0  1  0  0  0  0  0999 V2000
  184.6750  179.1740  144.0940 O   0  0  0  0  0  0  0  0  0  0  0  0
  183.3090  179.0800  143.8300 C   0  0  0  0  0  2  0  0  0  0  0  0
  183.0940  178.8280  142.3540 C   0  0  0  0  0  2  0  0  0  0  0  0
  184.3710  178.3080  141.7120 C   0  0  0  0  0  2  0  0  0  0  0  0
  184.7070  179.1200  140.4730 C   0  0  0  0  0  2  0  0  0  0  0  0
  185.1140  177.9390  137.9040 O   0  0  0  0  0  0  0  0  0  0  0  0
  186.1250  178.0990  138.6410 C   0  0  0  0  0  0  0  0  0  0  0  0
  185.9890  178.6950  139.9360 N   0  0  0  0  0  2  0  0  0  0  0  0
  189.8840  177.5780  139.0770 C   0  0  0  0  0  2  0  0  0  0  0  0
  191.5030  175.9230  138.1420 C   0  0  0  0  0  1  0  0  0  0  0  0
  188.2270  178.7470  137.4920 C   0  0  1  0  0  3  0  0  0  0  0  0
  190.0780  176.4360  138.0710 C   0  0  2  0  0  3  0  0  0  0  0  0
  188.5660  178.3670  138.9340 C   0  0  1  0  0  3  0  0  0  0  0  0
  189.7350  176.8130  136.6270 C   0  0  0  0  0  2  0  0  0  0  0  0
  189.2670  178.2620  136.4600 C   0  0  0  0  0  2  0  0  0  0  0  0
  187.4640  177.6180  138.1860 C   0  0  1  0  0  3  0  0  0  0  0  0
  184.7970  178.8560  145.4440 C   0  0  0  0  0  2  0  0  0  0  0  0
  186.1650  178.2560  145.7120 C   0  0  0  0  0  2  0  0  0  0  0  0
  186.4120  177.2150  144.8110 O   0  0  0  0  0  0  0  0  0  0  0  0
  187.7670  177.5330  142.7430 C   0  0  0  0  0  2  0  0  0  0  0  0
  188.1520  176.2590  143.4710 C   0  0  0  0  0  2  0  0  0  0  0  0
  187.6760  177.4620  144.2590 C   0  0  0  0  0  0  0  0  0  0  0  0
  188.7750  177.9940  145.1860 C   0  0  0  0  0  2  0  0  0  0  0  0
  189.9340  177.0140  145.3570 C   0  0  1  0  0  3  0  0  0  0  0  0
  191.2050  177.4630  144.6190 C   0  0  2  0  0  3  0  0  0  0  0  0
  191.1250  178.8810  144.0630 C   0  0  0  0  0  1  0  0  0  0  0  0
  191.6520  176.4610  143.5600 C   0  0  0  0  0  2  0  0  0  0  0  0
  192.0570  175.2580  144.1420 O   0  0  0  0  0  1  0  0  0  0  0  0
  190.2150  176.7980  146.8350 C   0  0  0  0  0  2  0  0  0  0  0  0
  189.1090  177.8240  147.8410 S   0  0  0  0  0  1  0  0  0  0  0  0
  1 17  1  0  0  0  0
  2  1  1  0  0  0  0
  3  2  1  0  0  0  0
  4  3  1  0  0  0  0
  5  4  1  0  0  0  0
  6  7  2  0  0  0  0
  7  8  1  0  0  0  0
  8  5  1  0  0  0  0
 11 15  1  6  0  0  0
 11 16  1  0  0  0  0
 11 13  1  0  0  0  0
 12 10  1  6  0  0  0
 12  9  1  0  0  0  0
 13  9  1  6  0  0  0
 14 12  1  0  0  0  0
 15 14  1  0  0  0  0
 16  7  1  1  0  0  0
 16 13  1  0  0  0  0
 17 18  1  0  0  0  0
 19 18  1  0  0  0  0
 20 21  1  0  0  0  0
 20 22  1  0  0  0  0
 21 22  1  0  0  0  0
 22 19  1  0  0  0  0
 22 23  1  0  0  0  0
 24 23  1  1  0  0  0
 24 29  1  0  0  0  0
 25 26  1  6  0  0  0
 25 24  1  0  0  0  0
 27 28  1  0  0  0  0
 27 25  1  0  0  0  0
 29 30  1  0  0  0  0
M  END
>  <MODEL>
1

>  <REMARK>
 VINA RESULT:      -6.7      0.000      0.000
  Name = 
  15 active torsions:
  status: ('A' for Active; 'I' for Inactive)
    1  A    between atoms: C_2  and  C_18
    2  A    between atoms: C_2  and  C_22
    3  A    between atoms: C_4  and  C_23
    4  A    between atoms: C_7  and  C_16
    5  A    between atoms: C_7  and  C_30
    6  A    between atoms: O_10  and  C_19
    7  A    between atoms: O_10  and  C_25
    8  A    between atoms: N_13  and  C_27
    9  A    between atoms: O_15  and  C_16
   10  A    between atoms: O_15  and  C_26
   11  A    between atoms: C_18  and  C_20
   12  A    between atoms: C_18  and  C_28
   13  A    between atoms: C_19  and  C_28
   14  A    between atoms: C_25  and  C_26
   15  A    between atoms: C_27  and  C_30
                            x       y       z     vdW  Elec       q    Type
                         _______ _______ _______ _____ _____    ______ ____

>  <TORSDO>
F 15

$$$$
=
 OpenBabel10272413553D

 30 32  0  0  1  0  0  0  0  0999 V2000
  185.8680  179.1900  142.5930 O   0  0  0  0  0  0  0  0  0  0  0  0
  184.4780  179.0840  142.6300 C   0  0  0  0  0  2  0  0  0  0  0  0
  184.0320  178.7490  144.0370 C   0  0  0  0  0  2  0  0  0  0  0  0
  185.0330  179.2810  145.0510 C   0  0  0  0  0  2  0  0  0  0  0  0
  185.2140  178.2870  146.1840 C   0  0  0  0  0  2  0  0  0  0  0  0
  186.8880  176.8300  144.3850 O   0  0  0  0  0  0  0  0  0  0  0  0
  187.4110  177.2680  145.4450 C   0  0  0  0  0  0  0  0  0  0  0  0
  186.6290  178.0150  146.3830 N   0  0  0  0  0  2  0  0  0  0  0  0
  190.4550  177.1890  147.7520 C   0  0  0  0  0  2  0  0  0  0  0  0
  192.5060  175.7670  147.8320 C   0  0  0  0  0  1  0  0  0  0  0  0
  189.7120  178.1960  145.5030 C   0  0  1  0  0  3  0  0  0  0  0  0
  191.2670  176.1080  147.0280 C   0  0  2  0  0  3  0  0  0  0  0  0
  189.3110  177.8190  146.9290 C   0  0  1  0  0  3  0  0  0  0  0  0
  191.6650  176.4820  145.5970 C   0  0  0  0  0  2  0  0  0  0  0  0
  191.1810  177.8690  145.1620 C   0  0  0  0  0  2  0  0  0  0  0  0
  188.8410  176.9650  145.7530 C   0  0  1  0  0  3  0  0  0  0  0  0
  186.2160  178.8200  141.2960 C   0  0  0  0  0  2  0  0  0  0  0  0
  187.7170  178.6220  141.2010 C   0  0  0  0  0  2  0  0  0  0  0  0
  188.0040  177.2780  140.9450 O   0  0  0  0  0  0  0  0  0  0  0  0
  190.1690  176.4940  141.9010 C   0  0  0  0  0  2  0  0  0  0  0  0
  190.0930  178.0090  141.8630 C   0  0  0  0  0  2  0  0  0  0  0  0
  189.3950  177.1920  140.7950 C   0  0  0  0  0  0  0  0  0  0  0  0
  189.9870  177.4630  139.4070 C   0  0  0  0  0  2  0  0  0  0  0  0
  189.2640  176.7080  138.2940 C   0  0  1  0  0  3  0  0  0  0  0  0
  188.6030  177.6460  137.2730 C   0  0  2  0  0  3  0  0  0  0  0  0
  189.0910  179.0890  137.3550 C   0  0  0  0  0  1  0  0  0  0  0  0
  187.0800  177.5590  137.2980 C   0  0  0  0  0  2  0  0  0  0  0  0
  186.5180  178.7190  137.8380 O   0  0  0  0  0  1  0  0  0  0  0  0
  190.2270  175.7530  137.6070 C   0  0  0  0  0  2  0  0  0  0  0  0
  191.9330  176.1280  138.0870 S   0  0  0  0  0  1  0  0  0  0  0  0
  1  2  1  0  0  0  0
  2  3  1  0  0  0  0
  3  4  1  0  0  0  0
  4  5  1  0  0  0  0
  5  8  1  0  0  0  0
  6  7  2  0  0  0  0
  7  8  1  0  0  0  0
 11 15  1  1  0  0  0
 11 16  1  0  0  0  0
 11 13  1  0  0  0  0
 12  9  1  0  0  0  0
 12 10  1  1  0  0  0
 13  9  1  1  0  0  0
 14 12  1  0  0  0  0
 15 14  1  0  0  0  0
 16  7  1  6  0  0  0
 16 13  1  0  0  0  0
 17  1  1  0  0  0  0
 18 17  1  0  0  0  0
 19 18  1  0  0  0  0
 21 20  1  0  0  0  0
 22 19  1  0  0  0  0
 22 21  1  0  0  0  0
 22 20  1  0  0  0  0
 23 22  1  0  0  0  0
 24 29  1  6  0  0  0
 24 23  1  0  0  0  0
 25 27  1  0  0  0  0
 25 26  1  1  0  0  0
 25 24  1  0  0  0  0
 27 28  1  0  0  0  0
 29 30  1  0  0  0  0
M  END
>  <MODEL>
2

>  <REMARK>
 VINA RESULT:      -6.7      2.760      6.890
  Name = 
  15 active torsions:
  status: ('A' for Active; 'I' for Inactive)
    1  A    between atoms: C_2  and  C_18
    2  A    between atoms: C_2  and  C_22
    3  A    between atoms: C_4  and  C_23
    4  A    between atoms: C_7  and  C_16
    5  A    between atoms: C_7  and  C_30
    6  A    between atoms: O_10  and  C_19
    7  A    between atoms: O_10  and  C_25
    8  A    between atoms: N_13  and  C_27
    9  A    between atoms: O_15  and  C_16
   10  A    between atoms: O_15  and  C_26
   11  A    between atoms: C_18  and  C_20
   12  A    between atoms: C_18  and  C_28
   13  A    between atoms: C_19  and  C_28
   14  A    between atoms: C_25  and  C_26
   15  A    between atoms: C_27  and  C_30
                            x       y       z     vdW  Elec       q    Type
                         _______ _______ _______ _____ _____    ______ ____

>  <TORSDO>
F 15

$$$$
=
 OpenBabel10272413553D

 30 32  0  0  1  0  0  0  0  0999 V2000
  184.1900  179.2850  145.6070 O   0  0  0  0  0  0  0  0  0  0  0  0
  183.8590  178.4950  144.5070 C   0  0  0  0  0  2  0  0  0  0  0  0
  184.0960  179.2760  143.2330 C   0  0  0  0  0  2  0  0  0  0  0  0
  184.8780  178.4370  142.2340 C   0  0  0  0  0  2  0  0  0  0  0  0
  185.3210  179.2940  141.0610 C   0  0  0  0  0  2  0  0  0  0  0  0
  188.1330  178.8970  141.3700 O   0  0  0  0  0  0  0  0  0  0  0  0
  187.5730  178.3620  140.3750 C   0  0  0  0  0  0  0  0  0  0  0  0
  186.1650  178.5140  140.1690 N   0  0  0  0  0  2  0  0  0  0  0  0
  190.8200  176.7890  139.1170 C   0  0  0  0  0  2  0  0  0  0  0  0
  191.3170  174.9100  137.5500 C   0  0  0  0  0  1  0  0  0  0  0  0
  189.1000  178.5760  138.4300 C   0  0  1  0  0  3  0  0  0  0  0  0
  190.2220  175.7940  138.1150 C   0  0  2  0  0  3  0  0  0  0  0  0
  189.8700  177.9170  139.5740 C   0  0  1  0  0  3  0  0  0  0  0  0
  189.4450  176.4510  136.9710 C   0  0  0  0  0  2  0  0  0  0  0  0
  189.4170  177.9820  137.0420 C   0  0  0  0  0  2  0  0  0  0  0  0
  188.3880  177.6080  139.3750 C   0  0  1  0  0  3  0  0  0  0  0  0
  184.7970  178.4080  146.5030 C   0  0  0  0  0  2  0  0  0  0  0  0
  186.2960  178.6420  146.5200 C   0  0  0  0  0  2  0  0  0  0  0  0
  186.9670  177.4540  146.2170 O   0  0  0  0  0  0  0  0  0  0  0  0
  188.3540  176.7000  148.1460 C   0  0  0  0  0  2  0  0  0  0  0  0
  188.0480  178.1840  148.2260 C   0  0  0  0  0  2  0  0  0  0  0  0
  188.2020  177.5180  146.8740 C   0  0  0  0  0  0  0  0  0  0  0  0
  189.3990  178.0890  146.1030 C   0  0  0  0  0  2  0  0  0  0  0  0
  190.1480  177.0280  145.2980 C   0  0  1  0  0  3  0  0  0  0  0  0
  190.0370  177.2460  143.7820 C   0  0  2  0  0  3  0  0  0  0  0  0
  189.7540  175.9700  142.9950 C   0  0  0  0  0  1  0  0  0  0  0  0
  191.2260  178.0130  143.2120 C   0  0  0  0  0  2  0  0  0  0  0  0
  191.9600  177.2200  142.3260 O   0  0  0  0  0  1  0  0  0  0  0  0
  191.6040  176.9830  145.7330 C   0  0  0  0  0  2  0  0  0  0  0  0
  191.7690  176.0510  147.2790 S   0  0  0  0  0  1  0  0  0  0  0  0
  1 17  1  0  0  0  0
  2  1  1  0  0  0  0
  3  2  1  0  0  0  0
  4  3  1  0  0  0  0
  5  4  1  0  0  0  0
  7  6  2  0  0  0  0
  8  7  1  0  0  0  0
  8  5  1  0  0  0  0
 11 15  1  6  0  0  0
 11 16  1  0  0  0  0
 11 13  1  0  0  0  0
 12 10  1  6  0  0  0
 12  9  1  0  0  0  0
 13  9  1  6  0  0  0
 14 15  1  0  0  0  0
 14 12  1  0  0  0  0
 16 13  1  0  0  0  0
 16  7  1  1  0  0  0
 17 18  1  0  0  0  0
 19 18  1  0  0  0  0
 19 22  1  0  0  0  0
 20 21  1  0  0  0  0
 22 20  1  0  0  0  0
 22 21  1  0  0  0  0
 23 22  1  0  0  0  0
 24 29  1  1  0  0  0
 24 23  1  0  0  0  0
 25 26  1  6  0  0  0
 25 24  1  0  0  0  0
 27 25  1  0  0  0  0
 28 27  1  0  0  0  0
 29 30  1  0  0  0  0
M  END
>  <MODEL>
3

>  <REMARK>
 VINA RESULT:      -6.7      1.717      2.245
  Name = 
  15 active torsions:
  status: ('A' for Active; 'I' for Inactive)
    1  A    between atoms: C_2  and  C_18
    2  A    between atoms: C_2  and  C_22
    3  A    between atoms: C_4  and  C_23
    4  A    between atoms: C_7  and  C_16
    5  A    between atoms: C_7  and  C_30
    6  A    between atoms: O_10  and  C_19
    7  A    between atoms: O_10  and  C_25
    8  A    between atoms: N_13  and  C_27
    9  A    between atoms: O_15  and  C_16
   10  A    between atoms: O_15  and  C_26
   11  A    between atoms: C_18  and  C_20
   12  A    between atoms: C_18  and  C_28
   13  A    between atoms: C_19  and  C_28
   14  A    between atoms: C_25  and  C_26
   15  A    between atoms: C_27  and  C_30
                            x       y       z     vdW  Elec       q    Type
                         _______ _______ _______ _____ _____    ______ ____

>  <TORSDO>
F 15

$$$$
=
 OpenBabel10272413553D

 30 32  0  0  1  0  0  0  0  0999 V2000
  184.5470  179.3670  139.9660 O   0  0  0  0  0  0  0  0  0  0  0  0
  183.9630  178.6290  140.9950 C   0  0  0  0  0  2  0  0  0  0  0  0
  184.4010  179.1890  142.3310 C   0  0  0  0  0  2  0  0  0  0  0  0
  183.3710  178.8690  143.4040 C   0  0  0  0  0  2  0  0  0  0  0  0
  183.8870  179.2880  144.7690 C   0  0  0  0  0  2  0  0  0  0  0  0
  185.3800  179.4640  147.1990 O   0  0  0  0  0  0  0  0  0  0  0  0
  185.9310  178.9030  146.2130 C   0  0  0  0  0  0  0  0  0  0  0  0
  185.2320  178.7740  144.9700 N   0  0  0  0  0  2  0  0  0  0  0  0
  188.9580  176.9300  144.9720 C   0  0  0  0  0  2  0  0  0  0  0  0
  191.4180  177.1660  145.3270 C   0  0  0  0  0  1  0  0  0  0  0  0
  187.3780  177.0480  147.0000 C   0  0  1  0  0  3  0  0  0  0  0  0
  190.0520  177.6720  145.7500 C   0  0  2  0  0  3  0  0  0  0  0  0
  187.5180  177.1530  145.4820 C   0  0  1  0  0  3  0  0  0  0  0  0
  189.9120  177.5720  147.2720 C   0  0  0  0  0  2  0  0  0  0  0  0
  188.7060  176.7450  147.7280 C   0  0  0  0  0  2  0  0  0  0  0  0
  187.3390  178.4170  146.3210 C   0  0  1  0  0  3  0  0  0  0  0  0
  184.1240  178.7380  138.7970 C   0  0  0  0  0  2  0  0  0  0  0  0
  185.3230  178.2030  138.0360 C   0  0  0  0  0  2  0  0  0  0  0  0
  186.5050  178.6110  138.6620 O   0  0  0  0  0  0  0  0  0  0  0  0
  188.0110  178.8660  136.6910 C   0  0  0  0  0  2  0  0  0  0  0  0
  187.0730  177.6840  136.5270 C   0  0  0  0  0  2  0  0  0  0  0  0
  187.5580  178.0760  137.9080 C   0  0  0  0  0  0  0  0  0  0  0  0
  188.4020  176.9640  138.5410 C   0  0  0  0  0  2  0  0  0  0  0  0
  189.5340  177.5000  139.4160 C   0  0  1  0  0  3  0  0  0  0  0  0
  189.2780  177.2830  140.9150 C   0  0  2  0  0  3  0  0  0  0  0  0
  188.5390  178.4360  141.5880 C   0  0  0  0  0  1  0  0  0  0  0  0
  190.5430  176.8990  141.6750 C   0  0  0  0  0  2  0  0  0  0  0  0
  190.4170  175.6360  142.2590 O   0  0  0  0  0  1  0  0  0  0  0  0
  190.8540  176.8750  138.9960 C   0  0  0  0  0  2  0  0  0  0  0  0
  190.5710  175.5820  137.7580 S   0  0  0  0  0  1  0  0  0  0  0  0
  1  2  1  0  0  0  0
  2  3  1  0  0  0  0
  3  4  1  0  0  0  0
  4  5  1  0  0  0  0
  5  8  1  0  0  0  0
  7  6  2  0  0  0  0
  8  7  1  0  0  0  0
  9 12  1  0  0  0  0
 11 15  1  1  0  0  0
 12 10  1  6  0  0  0
 12 14  1  0  0  0  0
 13  9  1  1  0  0  0
 13 16  1  0  0  0  0
 13 11  1  0  0  0  0
 14 15  1  0  0  0  0
 16  7  1  6  0  0  0
 16 11  1  0  0  0  0
 17  1  1  0  0  0  0
 18 19  1  0  0  0  0
 18 17  1  0  0  0  0
 20 22  1  0  0  0  0
 21 20  1  0  0  0  0
 21 22  1  0  0  0  0
 22 23  1  0  0  0  0
 22 19  1  0  0  0  0
 24 23  1  6  0  0  0
 24 25  1  0  0  0  0
 25 26  1  1  0  0  0
 25 27  1  0  0  0  0
 27 28  1  0  0  0  0
 29 24  1  0  0  0  0
 30 29  1  0  0  0  0
M  END
>  <MODEL>
4

>  <REMARK>
 VINA RESULT:      -6.5      2.622      6.810
  Name = 
  15 active torsions:
  status: ('A' for Active; 'I' for Inactive)
    1  A    between atoms: C_2  and  C_18
    2  A    between atoms: C_2  and  C_22
    3  A    between atoms: C_4  and  C_23
    4  A    between atoms: C_7  and  C_16
    5  A    between atoms: C_7  and  C_30
    6  A    between atoms: O_10  and  C_19
    7  A    between atoms: O_10  and  C_25
    8  A    between atoms: N_13  and  C_27
    9  A    between atoms: O_15  and  C_16
   10  A    between atoms: O_15  and  C_26
   11  A    between atoms: C_18  and  C_20
   12  A    between atoms: C_18  and  C_28
   13  A    between atoms: C_19  and  C_28
   14  A    between atoms: C_25  and  C_26
   15  A    between atoms: C_27  and  C_30
                            x       y       z     vdW  Elec       q    Type
                         _______ _______ _______ _____ _____    ______ ____

>  <TORSDO>
F 15

$$$$
=
 OpenBabel10272413553D

 30 32  0  0  1  0  0  0  0  0999 V2000
  187.5700  178.1240  139.9770 O   0  0  0  0  0  0  0  0  0  0  0  0
  188.7910  177.7420  139.4210 C   0  0  0  0  0  2  0  0  0  0  0  0
  189.6080  176.9990  140.4550 C   0  0  0  0  0  2  0  0  0  0  0  0
  191.0940  177.2320  140.2260 C   0  0  0  0  0  2  0  0  0  0  0  0
  191.7820  177.5720  141.5360 C   0  0  0  0  0  2  0  0  0  0  0  0
  191.9730  179.0860  143.9510 O   0  0  0  0  0  0  0  0  0  0  0  0
  190.9760  178.3260  143.8150 C   0  0  0  0  0  0  0  0  0  0  0  0
  190.8160  177.5490  142.6230 N   0  0  0  0  0  2  0  0  0  0  0  0
  189.8350  177.0650  147.2360 C   0  0  0  0  0  2  0  0  0  0  0  0
  188.1650  177.8940  148.8960 C   0  0  0  0  0  1  0  0  0  0  0  0
  189.1700  176.9080  144.7550 C   0  0  1  0  0  3  0  0  0  0  0  0
  188.7180  178.0830  147.4970 C   0  0  2  0  0  3  0  0  0  0  0  0
  190.3100  176.9670  145.7710 C   0  0  1  0  0  3  0  0  0  0  0  0
  187.5760  178.0290  146.4770 C   0  0  0  0  0  2  0  0  0  0  0  0
  187.7650  176.9650  145.3920 C   0  0  0  0  0  2  0  0  0  0  0  0
  189.9810  178.1930  144.9210 C   0  0  1  0  0  3  0  0  0  0  0  0
  187.9080  178.7530  141.1730 C   0  0  0  0  0  2  0  0  0  0  0  0
  186.7650  178.6280  142.1630 C   0  0  0  0  0  2  0  0  0  0  0  0
  185.6810  179.4030  141.7380 O   0  0  0  0  0  0  0  0  0  0  0  0
  184.3040  179.7370  143.7890 C   0  0  0  0  0  2  0  0  0  0  0  0
  185.0320  178.4070  143.8180 C   0  0  0  0  0  2  0  0  0  0  0  0
  184.5780  178.9880  142.4950 C   0  0  0  0  0  0  0  0  0  0  0  0
  183.5370  178.0890  141.8180 C   0  0  0  0  0  2  0  0  0  0  0  0
  182.5000  178.8760  141.0180 C   0  0  1  0  0  3  0  0  0  0  0  0
  182.6980  178.7470  139.5000 C   0  0  2  0  0  3  0  0  0  0  0  0
  183.2250  177.3840  139.0620 C   0  0  0  0  0  1  0  0  0  0  0  0
  183.5240  179.8890  138.9180 C   0  0  0  0  0  2  0  0  0  0  0  0
  184.8270  179.4740  138.6320 O   0  0  0  0  0  1  0  0  0  0  0  0
  181.0990  178.4440  141.4200 C   0  0  0  0  0  2  0  0  0  0  0  0
  180.7020  179.0640  143.0760 S   0  0  0  0  0  1  0  0  0  0  0  0
  1 17  1  0  0  0  0
  2  1  1  0  0  0  0
  2  3  1  0  0  0  0
  4  3  1  0  0  0  0
  4  5  1  0  0  0  0
  5  8  1  0  0  0  0
  7  6  2  0  0  0  0
  8  7  1  0  0  0  0
  9 12  1  0  0  0  0
 11 16  1  0  0  0  0
 11 15  1  1  0  0  0
 11 13  1  0  0  0  0
 12 10  1  1  0  0  0
 13  9  1  1  0  0  0
 14 12  1  0  0  0  0
 15 14  1  0  0  0  0
 16  7  1  6  0  0  0
 16 13  1  0  0  0  0
 17 18  1  0  0  0  0
 19 18  1  0  0  0  0
 19 22  1  0  0  0  0
 20 21  1  0  0  0  0
 22 20  1  0  0  0  0
 22 21  1  0  0  0  0
 23 22  1  0  0  0  0
 24 29  1  6  0  0  0
 24 23  1  0  0  0  0
 25 26  1  1  0  0  0
 25 24  1  0  0  0  0
 27 25  1  0  0  0  0
 28 27  1  0  0  0  0
 29 30  1  0  0  0  0
M  END
>  <MODEL>
5

>  <REMARK>
 VINA RESULT:      -6.3      2.842      7.862
  Name = 
  15 active torsions:
  status: ('A' for Active; 'I' for Inactive)
    1  A    between atoms: C_2  and  C_18
    2  A    between atoms: C_2  and  C_22
    3  A    between atoms: C_4  and  C_23
    4  A    between atoms: C_7  and  C_16
    5  A    between atoms: C_7  and  C_30
    6  A    between atoms: O_10  and  C_19
    7  A    between atoms: O_10  and  C_25
    8  A    between atoms: N_13  and  C_27
    9  A    between atoms: O_15  and  C_16
   10  A    between atoms: O_15  and  C_26
   11  A    between atoms: C_18  and  C_20
   12  A    between atoms: C_18  and  C_28
   13  A    between atoms: C_19  and  C_28
   14  A    between atoms: C_25  and  C_26
   15  A    between atoms: C_27  and  C_30
                            x       y       z     vdW  Elec       q    Type
                         _______ _______ _______ _____ _____    ______ ____

>  <TORSDO>
F 15

$$$$
=
 OpenBabel10272413553D

 30 32  0  0  1  0  0  0  0  0999 V2000
  186.0570  177.5510  143.1200 O   0  0  0  0  0  0  0  0  0  0  0  0
  185.0850  178.5330  142.9230 C   0  0  0  0  0  2  0  0  0  0  0  0
  185.2510  179.1400  141.5470 C   0  0  0  0  0  2  0  0  0  0  0  0
  183.9660  178.9970  140.7450 C   0  0  0  0  0  2  0  0  0  0  0  0
  184.2360  179.2360  139.2700 C   0  0  0  0  0  2  0  0  0  0  0  0
  184.9380  177.2810  137.3090 O   0  0  0  0  0  0  0  0  0  0  0  0
  185.8750  177.8270  137.9530 C   0  0  0  0  0  0  0  0  0  0  0  0
  185.5910  178.8220  138.9420 N   0  0  0  0  0  2  0  0  0  0  0  0
  189.5550  177.5510  138.9430 C   0  0  0  0  0  2  0  0  0  0  0  0
  191.3690  175.9390  138.3550 C   0  0  0  0  0  1  0  0  0  0  0  0
  188.0860  178.5260  137.0680 C   0  0  1  0  0  3  0  0  0  0  0  0
  189.9460  176.3640  138.0520 C   0  0  2  0  0  3  0  0  0  0  0  0
  188.2330  178.2530  138.5650 C   0  0  1  0  0  3  0  0  0  0  0  0
  189.7940  176.6340  136.5520 C   0  0  0  0  0  2  0  0  0  0  0  0
  189.2850  178.0420  136.2260 C   0  0  0  0  0  2  0  0  0  0  0  0
  187.2880  177.3980  137.7230 C   0  0  1  0  0  3  0  0  0  0  0  0
  187.1150  177.9310  142.2980 C   0  0  0  0  0  2  0  0  0  0  0  0
  188.4200  177.3980  142.8560 C   0  0  0  0  0  2  0  0  0  0  0  0
  189.3660  178.4250  142.9200 O   0  0  0  0  0  0  0  0  0  0  0  0
  191.6270  178.8340  143.8900 C   0  0  0  0  0  2  0  0  0  0  0  0
  191.6050  177.5800  143.0350 C   0  0  0  0  0  2  0  0  0  0  0  0
  190.3650  177.9910  143.8020 C   0  0  0  0  0  0  0  0  0  0  0  0
  189.9870  176.9440  144.8560 C   0  0  0  0  0  2  0  0  0  0  0  0
  189.6670  177.5590  146.2170 C   0  0  1  0  0  3  0  0  0  0  0  0
  188.2260  177.2810  146.6700 C   0  0  2  0  0  3  0  0  0  0  0  0
  187.2090  178.2870  146.1410 C   0  0  0  0  0  1  0  0  0  0  0  0
  188.1110  177.0980  148.1800 C   0  0  0  0  0  2  0  0  0  0  0  0
  187.7970  178.3030  148.8110 O   0  0  0  0  0  1  0  0  0  0  0  0
  190.6640  177.0670  147.2540 C   0  0  0  0  0  2  0  0  0  0  0  0
  191.9110  176.0080  146.4740 S   0  0  0  0  0  1  0  0  0  0  0  0
  2  1  1  0  0  0  0
  3  2  1  0  0  0  0
  4  3  1  0  0  0  0
  5  4  1  0  0  0  0
  6  7  2  0  0  0  0
  7  8  1  0  0  0  0
  8  5  1  0  0  0  0
 11 15  1  6  0  0  0
 11 16  1  0  0  0  0
 11 13  1  0  0  0  0
 12 10  1  6  0  0  0
 12  9  1  0  0  0  0
 13  9  1  6  0  0  0
 14 12  1  0  0  0  0
 15 14  1  0  0  0  0
 16  7  1  1  0  0  0
 16 13  1  0  0  0  0
 17 18  1  0  0  0  0
 17  1  1  0  0  0  0
 18 19  1  0  0  0  0
 19 22  1  0  0  0  0
 21 22  1  0  0  0  0
 21 20  1  0  0  0  0
 22 20  1  0  0  0  0
 22 23  1  0  0  0  0
 24 23  1  6  0  0  0
 24 25  1  0  0  0  0
 24 29  1  0  0  0  0
 25 26  1  1  0  0  0
 25 27  1  0  0  0  0
 27 28  1  0  0  0  0
 30 29  1  0  0  0  0
M  END
>  <MODEL>
6

>  <REMARK>
 VINA RESULT:      -6.1      1.586      2.825
  Name = 
  15 active torsions:
  status: ('A' for Active; 'I' for Inactive)
    1  A    between atoms: C_2  and  C_18
    2  A    between atoms: C_2  and  C_22
    3  A    between atoms: C_4  and  C_23
    4  A    between atoms: C_7  and  C_16
    5  A    between atoms: C_7  and  C_30
    6  A    between atoms: O_10  and  C_19
    7  A    between atoms: O_10  and  C_25
    8  A    between atoms: N_13  and  C_27
    9  A    between atoms: O_15  and  C_16
   10  A    between atoms: O_15  and  C_26
   11  A    between atoms: C_18  and  C_20
   12  A    between atoms: C_18  and  C_28
   13  A    between atoms: C_19  and  C_28
   14  A    between atoms: C_25  and  C_26
   15  A    between atoms: C_27  and  C_30
                            x       y       z     vdW  Elec       q    Type
                         _______ _______ _______ _____ _____    ______ ____

>  <TORSDO>
F 15

$$$$
=
 OpenBabel10272413553D

 30 32  0  0  1  0  0  0  0  0999 V2000
  184.9380  178.9540  143.8860 O   0  0  0  0  0  0  0  0  0  0  0  0
  183.5650  179.0980  143.6870 C   0  0  0  0  0  2  0  0  0  0  0  0
  183.2630  179.0800  142.2040 C   0  0  0  0  0  2  0  0  0  0  0  0
  184.3370  178.3080  141.4530 C   0  0  0  0  0  2  0  0  0  0  0  0
  184.5450  178.9040  140.0720 C   0  0  0  0  0  2  0  0  0  0  0  0
  185.1280  177.6110  137.5920 O   0  0  0  0  0  0  0  0  0  0  0  0
  186.1000  177.9150  138.3350 C   0  0  0  0  0  0  0  0  0  0  0  0
  185.8760  178.5750  139.5860 N   0  0  0  0  0  2  0  0  0  0  0  0
  189.8440  177.5360  138.9910 C   0  0  0  0  0  2  0  0  0  0  0  0
  191.6080  176.0500  138.0330 C   0  0  0  0  0  1  0  0  0  0  0  0
  188.2360  178.7640  137.4010 C   0  0  1  0  0  3  0  0  0  0  0  0
  190.1650  176.5000  137.9060 C   0  0  2  0  0  3  0  0  0  0  0  0
  188.4980  178.2710  138.8240 C   0  0  1  0  0  3  0  0  0  0  0  0
  189.8990  176.9890  136.4790 C   0  0  0  0  0  2  0  0  0  0  0  0
  189.3670  178.4240  136.4070 C   0  0  0  0  0  2  0  0  0  0  0  0
  187.4900  177.5420  137.9370 C   0  0  1  0  0  3  0  0  0  0  0  0
  185.0530  178.3360  145.1290 C   0  0  0  0  0  2  0  0  0  0  0  0
  186.4530  177.7770  145.3010 C   0  0  0  0  0  2  0  0  0  0  0  0
  187.0930  178.4170  146.3660 O   0  0  0  0  0  0  0  0  0  0  0  0
  188.2020  177.0420  148.1250 C   0  0  0  0  0  2  0  0  0  0  0  0
  189.0140  178.2790  147.7910 C   0  0  0  0  0  2  0  0  0  0  0  0
  188.1830  177.6100  146.7150 C   0  0  0  0  0  0  0  0  0  0  0  0
  189.0660  177.0640  145.5860 C   0  0  0  0  0  2  0  0  0  0  0  0
  190.4160  177.7740  145.4910 C   0  0  1  0  0  3  0  0  0  0  0  0
  191.6000  176.7960  145.4630 C   0  0  2  0  0  3  0  0  0  0  0  0
  191.6050  175.8690  144.2520 C   0  0  0  0  0  1  0  0  0  0  0  0
  191.7520  176.0240  146.7700 C   0  0  0  0  0  2  0  0  0  0  0  0
  192.0340  176.8850  147.8340 O   0  0  0  0  0  1  0  0  0  0  0  0
  190.4370  178.6830  144.2720 C   0  0  0  0  0  2  0  0  0  0  0  0
  189.3450  178.0290  142.9820 S   0  0  0  0  0  1  0  0  0  0  0  0
  1 17  1  0  0  0  0
  2  1  1  0  0  0  0
  3  2  1  0  0  0  0
  4  3  1  0  0  0  0
  5  4  1  0  0  0  0
  6  7  2  0  0  0  0
  7  8  1  0  0  0  0
  8  5  1  0  0  0  0
 11 15  1  6  0  0  0
 11 16  1  0  0  0  0
 11 13  1  0  0  0  0
 12 10  1  6  0  0  0
 12  9  1  0  0  0  0
 13  9  1  6  0  0  0
 14 12  1  0  0  0  0
 15 14  1  0  0  0  0
 16  7  1  1  0  0  0
 16 13  1  0  0  0  0
 17 18  1  0  0  0  0
 18 19  1  0  0  0  0
 19 22  1  0  0  0  0
 21 20  1  0  0  0  0
 22 21  1  0  0  0  0
 22 20  1  0  0  0  0
 23 22  1  0  0  0  0
 24 29  1  6  0  0  0
 24 23  1  0  0  0  0
 25 26  1  6  0  0  0
 25 24  1  0  0  0  0
 25 27  1  0  0  0  0
 27 28  1  0  0  0  0
 30 29  1  0  0  0  0
M  END
>  <MODEL>
7

>  <REMARK>
 VINA RESULT:      -6.0      1.539      2.154
  Name = 
  15 active torsions:
  status: ('A' for Active; 'I' for Inactive)
    1  A    between atoms: C_2  and  C_18
    2  A    between atoms: C_2  and  C_22
    3  A    between atoms: C_4  and  C_23
    4  A    between atoms: C_7  and  C_16
    5  A    between atoms: C_7  and  C_30
    6  A    between atoms: O_10  and  C_19
    7  A    between atoms: O_10  and  C_25
    8  A    between atoms: N_13  and  C_27
    9  A    between atoms: O_15  and  C_16
   10  A    between atoms: O_15  and  C_26
   11  A    between atoms: C_18  and  C_20
   12  A    between atoms: C_18  and  C_28
   13  A    between atoms: C_19  and  C_28
   14  A    between atoms: C_25  and  C_26
   15  A    between atoms: C_27  and  C_30
                            x       y       z     vdW  Elec       q    Type
                         _______ _______ _______ _____ _____    ______ ____

>  <TORSDO>
F 15

$$$$
=
 OpenBabel10272413553D

 30 32  0  0  1  0  0  0  0  0999 V2000
  185.2540  179.4980  142.2240 O   0  0  0  0  0  0  0  0  0  0  0  0
  184.1370  178.8330  142.7280 C   0  0  0  0  0  2  0  0  0  0  0  0
  183.7440  179.4380  144.0580 C   0  0  0  0  0  2  0  0  0  0  0  0
  184.8910  179.3290  145.0500 C   0  0  0  0  0  2  0  0  0  0  0  0
  185.1200  177.8780  145.4330 C   0  0  0  0  0  2  0  0  0  0  0  0
  187.1570  176.8870  143.6920 O   0  0  0  0  0  0  0  0  0  0  0  0
  187.4850  177.1650  144.8770 C   0  0  0  0  0  0  0  0  0  0  0  0
  186.5140  177.6760  145.7970 N   0  0  0  0  0  2  0  0  0  0  0  0
  190.2670  177.2410  147.4940 C   0  0  0  0  0  2  0  0  0  0  0  0
  192.3360  175.8850  147.8340 C   0  0  0  0  0  1  0  0  0  0  0  0
  189.7410  178.1640  145.1500 C   0  0  1  0  0  3  0  0  0  0  0  0
  191.1810  176.1660  146.8930 C   0  0  2  0  0  3  0  0  0  0  0  0
  189.2010  177.8130  146.5370 C   0  0  1  0  0  3  0  0  0  0  0  0
  191.7190  176.5120  145.5020 C   0  0  0  0  0  2  0  0  0  0  0  0
  191.2470  177.8720  144.9770 C   0  0  0  0  0  2  0  0  0  0  0  0
  188.8820  176.9140  145.3440 C   0  0  1  0  0  3  0  0  0  0  0  0
  185.4510  178.9510  140.9580 C   0  0  0  0  0  2  0  0  0  0  0  0
  184.2140  179.1630  140.1060 C   0  0  0  0  0  2  0  0  0  0  0  0
  184.5860  179.4070  138.7800 O   0  0  0  0  0  0  0  0  0  0  0  0
  183.0030  178.0930  137.3720 C   0  0  0  0  0  2  0  0  0  0  0  0
  183.2190  177.4400  138.7250 C   0  0  0  0  0  2  0  0  0  0  0  0
  184.3440  178.2200  138.0760 C   0  0  0  0  0  0  0  0  0  0  0  0
  185.5410  177.3150  137.7590 C   0  0  0  0  0  2  0  0  0  0  0  0
  186.4120  177.8550  136.6270 C   0  0  1  0  0  3  0  0  0  0  0  0
  187.7940  178.3200  137.1110 C   0  0  2  0  0  3  0  0  0  0  0  0
  188.9110  178.0890  136.0980 C   0  0  0  0  0  1  0  0  0  0  0  0
  188.1490  177.7640  138.4860 C   0  0  0  0  0  2  0  0  0  0  0  0
  188.5080  178.7870  139.3660 O   0  0  0  0  0  1  0  0  0  0  0  0
  186.5450  176.8090  135.5330 C   0  0  0  0  0  2  0  0  0  0  0  0
  185.5560  175.3460  135.9390 S   0  0  0  0  0  1  0  0  0  0  0  0
  1  2  1  0  0  0  0
  2  3  1  0  0  0  0
  3  4  1  0  0  0  0
  4  5  1  0  0  0  0
  5  8  1  0  0  0  0
  6  7  2  0  0  0  0
  7  8  1  0  0  0  0
 11 15  1  1  0  0  0
 11 16  1  0  0  0  0
 11 13  1  0  0  0  0
 12  9  1  0  0  0  0
 12 10  1  1  0  0  0
 13  9  1  1  0  0  0
 14 12  1  0  0  0  0
 15 14  1  0  0  0  0
 16  7  1  6  0  0  0
 16 13  1  0  0  0  0
 17  1  1  0  0  0  0
 18 17  1  0  0  0  0
 19 18  1  0  0  0  0
 20 22  1  0  0  0  0
 20 21  1  0  0  0  0
 22 21  1  0  0  0  0
 22 19  1  0  0  0  0
 23 22  1  0  0  0  0
 24 29  1  6  0  0  0
 24 25  1  0  0  0  0
 24 23  1  0  0  0  0
 25 26  1  6  0  0  0
 25 27  1  0  0  0  0
 27 28  1  0  0  0  0
 29 30  1  0  0  0  0
M  END
>  <MODEL>
8

>  <REMARK>
 VINA RESULT:      -6.0      3.079      7.474
  Name = 
  15 active torsions:
  status: ('A' for Active; 'I' for Inactive)
    1  A    between atoms: C_2  and  C_18
    2  A    between atoms: C_2  and  C_22
    3  A    between atoms: C_4  and  C_23
    4  A    between atoms: C_7  and  C_16
    5  A    between atoms: C_7  and  C_30
    6  A    between atoms: O_10  and  C_19
    7  A    between atoms: O_10  and  C_25
    8  A    between atoms: N_13  and  C_27
    9  A    between atoms: O_15  and  C_16
   10  A    between atoms: O_15  and  C_26
   11  A    between atoms: C_18  and  C_20
   12  A    between atoms: C_18  and  C_28
   13  A    between atoms: C_19  and  C_28
   14  A    between atoms: C_25  and  C_26
   15  A    between atoms: C_27  and  C_30
                            x       y       z     vdW  Elec       q    Type
                         _______ _______ _______ _____ _____    ______ ____

>  <TORSDO>
F 15

$$$$
=
 OpenBabel10272413553D

 30 32  0  0  1  0  0  0  0  0999 V2000
  184.9550  179.1130  140.1800 O   0  0  0  0  0  0  0  0  0  0  0  0
  184.0420  178.3210  140.8760 C   0  0  0  0  0  2  0  0  0  0  0  0
  184.3960  178.3140  142.3470 C   0  0  0  0  0  2  0  0  0  0  0  0
  183.3010  178.9860  143.1600 C   0  0  0  0  0  2  0  0  0  0  0  0
  183.7510  179.1710  144.5990 C   0  0  0  0  0  2  0  0  0  0  0  0
  185.2350  179.1660  147.0400 O   0  0  0  0  0  0  0  0  0  0  0  0
  185.8300  178.7900  145.9930 C   0  0  0  0  0  0  0  0  0  0  0  0
  185.1390  178.7590  144.7400 N   0  0  0  0  0  2  0  0  0  0  0  0
  188.9880  177.1730  144.5780 C   0  0  0  0  0  2  0  0  0  0  0  0
  191.4260  177.6020  144.9080 C   0  0  0  0  0  1  0  0  0  0  0  0
  187.4500  177.0230  146.6360 C   0  0  1  0  0  3  0  0  0  0  0  0
  190.0310  177.9570  145.3850 C   0  0  2  0  0  3  0  0  0  0  0  0
  187.5470  177.2360  145.1250 C   0  0  1  0  0  3  0  0  0  0  0  0
  189.9330  177.7500  146.8990 C   0  0  0  0  0  2  0  0  0  0  0  0
  188.8130  176.7930  147.3210 C   0  0  0  0  0  2  0  0  0  0  0  0
  187.2770  178.4240  146.0470 C   0  0  1  0  0  3  0  0  0  0  0  0
  184.6860  178.8630  138.8360 C   0  0  0  0  0  2  0  0  0  0  0  0
  185.8930  178.2210  138.1780 C   0  0  0  0  0  2  0  0  0  0  0  0
  186.5770  179.1690  137.4110 O   0  0  0  0  0  0  0  0  0  0  0  0
  187.2090  178.0480  135.2750 C   0  0  0  0  0  2  0  0  0  0  0  0
  187.0930  177.0520  136.4150 C   0  0  0  0  0  2  0  0  0  0  0  0
  187.5560  178.4670  136.6950 C   0  0  0  0  0  0  0  0  0  0  0  0
  188.9930  178.4890  137.2290 C   0  0  0  0  0  2  0  0  0  0  0  0
  189.3550  177.2300  138.0160 C   0  0  1  0  0  3  0  0  0  0  0  0
  190.3160  176.3080  137.2510 C   0  0  2  0  0  3  0  0  0  0  0  0
  189.9410  174.8310  137.3220 C   0  0  0  0  0  1  0  0  0  0  0  0
  191.7760  176.5420  137.6280 C   0  0  0  0  0  2  0  0  0  0  0  0
  192.2750  175.4840  138.3900 O   0  0  0  0  0  1  0  0  0  0  0  0
  189.9340  177.6140  139.3680 C   0  0  0  0  0  2  0  0  0  0  0  0
  188.6020  177.9050  140.5620 S   0  0  0  0  0  1  0  0  0  0  0  0
  1  2  1  0  0  0  0
  2  3  1  0  0  0  0
  3  4  1  0  0  0  0
  4  5  1  0  0  0  0
  5  8  1  0  0  0  0
  7  6  2  0  0  0  0
  8  7  1  0  0  0  0
  9 12  1  0  0  0  0
 11 15  1  1  0  0  0
 12 10  1  6  0  0  0
 12 14  1  0  0  0  0
 13  9  1  1  0  0  0
 13 16  1  0  0  0  0
 13 11  1  0  0  0  0
 14 15  1  0  0  0  0
 16  7  1  6  0  0  0
 16 11  1  0  0  0  0
 17  1  1  0  0  0  0
 18 17  1  0  0  0  0
 19 18  1  0  0  0  0
 20 21  1  0  0  0  0
 20 22  1  0  0  0  0
 21 22  1  0  0  0  0
 22 23  1  0  0  0  0
 22 19  1  0  0  0  0
 24 23  1  6  0  0  0
 24 29  1  0  0  0  0
 25 26  1  1  0  0  0
 25 27  1  0  0  0  0
 25 24  1  0  0  0  0
 27 28  1  0  0  0  0
 29 30  1  0  0  0  0
M  END
>  <MODEL>
9

>  <REMARK>
 VINA RESULT:      -6.0      2.345      7.085
  Name = 
  15 active torsions:
  status: ('A' for Active; 'I' for Inactive)
    1  A    between atoms: C_2  and  C_18
    2  A    between atoms: C_2  and  C_22
    3  A    between atoms: C_4  and  C_23
    4  A    between atoms: C_7  and  C_16
    5  A    between atoms: C_7  and  C_30
    6  A    between atoms: O_10  and  C_19
    7  A    between atoms: O_10  and  C_25
    8  A    between atoms: N_13  and  C_27
    9  A    between atoms: O_15  and  C_16
   10  A    between atoms: O_15  and  C_26
   11  A    between atoms: C_18  and  C_20
   12  A    between atoms: C_18  and  C_28
   13  A    between atoms: C_19  and  C_28
   14  A    between atoms: C_25  and  C_26
   15  A    between atoms: C_27  and  C_30
                            x       y       z     vdW  Elec       q    Type
                         _______ _______ _______ _____ _____    ______ ____

>  <TORSDO>
F 15

$$$$
