=
 OpenBabel10272413223D

 32 36  0  0  0  0  0  0  0  0999 V2000
  186.8690  175.5820  136.9920 C   0  0  0  0  0  2  0  0  0  0  0  0
  188.2420  178.2030  140.3110 C   0  0  0  0  0  0  0  0  0  0  0  0
  183.7960  178.3240  142.3100 N   0  0  0  0  0  2  0  0  0  0  0  0
  184.3410  178.8780  143.5420 C   0  0  0  0  0  2  0  0  0  0  0  0
  190.1820  177.5480  141.7850 C   0  0  0  0  0  0  0  0  0  0  0  0
  190.6760  177.2880  143.0740 C   0  0  0  0  0  0  0  0  0  0  0  0
  188.6100  176.9100  138.1290 C   0  0  0  0  0  0  0  0  0  0  0  0
  186.2230  178.6440  138.9050 N   0  0  0  0  0  0  0  0  0  0  0  0
  187.7960  173.9710  135.2400 N   0  0  0  0  0  2  0  0  0  0  0  0
  186.4030  177.9580  137.8090 C   0  0  0  0  0  3  0  0  0  0  0  0
  184.5880  178.8510  141.2000 C   0  0  0  0  0  2  0  0  0  0  0  0
  186.8530  178.4330  140.1870 C   0  0  0  0  0  0  0  0  0  0  0  0
  186.0450  178.4760  141.3310 C   0  0  0  0  0  0  0  0  0  0  0  0
  187.9630  177.9380  142.7290 C   0  0  0  0  0  0  0  0  0  0  0  0
  189.2060  174.8990  136.8820 N   0  0  0  0  0  0  0  0  0  0  0  0
  187.3520  176.8360  137.6680 C   0  0  0  0  0  0  0  0  0  0  0  0
  192.0200  176.9570  143.2250 O   0  0  0  0  0  1  0  0  0  0  0  0
  189.5000  175.7020  138.0700 C   0  0  0  0  0  2  0  0  0  0  0  0
  188.0110  174.8080  136.3790 C   0  0  0  0  0  0  0  0  0  0  0  0
  185.6990  178.2430  143.8230 C   0  0  0  0  0  2  0  0  0  0  0  0
  186.5980  178.2520  142.6040 C   0  0  0  0  0  0  0  0  0  0  0  0
  188.4880  177.6750  143.9980 C   0  0  0  0  0  3  0  0  0  0  0  0
  189.2360  178.4310  138.8260 S   0  0  0  0  0  0  0  0  0  0  0  0
  191.0920  177.4030  140.6980 N   0  0  0  0  0  1  0  0  0  0  0  0
  188.8100  177.8940  141.5860 C   0  0  0  0  0  0  0  0  0  0  0  0
  189.8300  177.3570  144.1920 C   0  0  0  0  0  0  0  0  0  0  0  0
  186.4900  173.7860  134.6250 C   0  0  0  0  0  3  0  0  0  0  0  0
  185.6660  173.0760  135.4960 O   0  0  0  0  0  1  0  0  0  0  0  0
  185.9170  175.0280  134.3550 O   0  0  0  0  0  1  0  0  0  0  0  0
  190.3070  177.0940  145.5700 C   0  0  0  0  0  0  0  0  0  0  0  0
  191.6340  177.3080  145.9250 O   0  0  0  0  0  0  0  0  0  0  0  0
  189.5050  176.6730  146.4460 O   0  0  0  0  0  1  0  0  0  0  0  0
  1 16  1  0  0  0  0
  2 25  1  0  0  0  0
  3  4  1  0  0  0  0
  4 20  1  0  0  0  0
  5  6  1  0  0  0  0
  6 17  1  0  0  0  0
  6 26  2  0  0  0  0
  7 23  1  0  0  0  0
  8 12  1  0  0  0  0
  9 19  1  0  0  0  0
 10  8  2  0  0  0  0
 11 13  1  0  0  0  0
 11  3  1  0  0  0  0
 12  2  2  0  0  0  0
 12 13  1  0  0  0  0
 13 21  2  0  0  0  0
 14 22  2  0  0  0  0
 15 18  1  0  0  0  0
 16 10  1  0  0  0  0
 16  7  2  0  0  0  0
 18  7  1  0  0  0  0
 19 15  2  0  0  0  0
 19  1  1  0  0  0  0
 21 14  1  0  0  0  0
 21 20  1  0  0  0  0
 22 26  1  0  0  0  0
 23  2  1  0  0  0  0
 24  5  1  0  0  0  0
 25  5  2  0  0  0  0
 25 14  1  0  0  0  0
 26 30  1  0  0  0  0
 27  9  1  0  0  0  0
 27 28  1  0  0  0  0
 29 27  1  0  0  0  0
 30 31  2  0  0  0  0
 30 32  1  0  0  0  0
M  END
>  <MODEL>
1

>  <REMARK>
 VINA RESULT:      -9.3      0.000      0.000
  Name = 
  2 active torsions:
  status: ('A' for Active; 'I' for Inactive)
    1  A    between atoms: C_1  and  N_10
    2  A    between atoms: C_11  and  C_32
                            x       y       z     vdW  Elec       q    Type
                         _______ _______ _______ _____ _____    ______ ____

>  <TORSDO>
F 2

$$$$
=
 OpenBabel10272413223D

 32 36  0  0  0  0  0  0  0  0999 V2000
  184.8750  176.0000  137.2200 C   0  0  0  0  0  2  0  0  0  0  0  0
  187.4540  178.3590  139.9690 C   0  0  0  0  0  0  0  0  0  0  0  0
  184.0980  178.2650  143.5050 N   0  0  0  0  0  2  0  0  0  0  0  0
  185.0800  178.7230  144.4790 C   0  0  0  0  0  2  0  0  0  0  0  0
  189.7930  177.6090  140.5400 C   0  0  0  0  0  0  0  0  0  0  0  0
  190.7330  177.2510  141.5210 C   0  0  0  0  0  0  0  0  0  0  0  0
  186.9430  177.2520  137.7140 C   0  0  0  0  0  0  0  0  0  0  0  0
  185.0620  178.8880  139.4720 N   0  0  0  0  0  0  0  0  0  0  0  0
  185.0380  174.5480  135.1240 N   0  0  0  0  0  2  0  0  0  0  0  0
  184.8000  178.2960  138.3380 C   0  0  0  0  0  3  0  0  0  0  0  0
  184.4220  178.8890  142.2240 C   0  0  0  0  0  2  0  0  0  0  0  0
  186.1250  178.5810  140.3990 C   0  0  0  0  0  0  0  0  0  0  0  0
  185.8120  178.5210  141.7630 C   0  0  0  0  0  0  0  0  0  0  0  0
  188.1050  177.8950  142.2820 C   0  0  0  0  0  0  0  0  0  0  0  0
  186.9830  175.3560  136.1780 N   0  0  0  0  0  0  0  0  0  0  0  0
  185.6030  177.2010  137.7600 C   0  0  0  0  0  0  0  0  0  0  0  0
  192.0270  176.9250  141.1240 O   0  0  0  0  0  1  0  0  0  0  0  0
  187.7200  176.0630  137.2260 C   0  0  0  0  0  2  0  0  0  0  0  0
  185.6840  175.2920  136.1600 C   0  0  0  0  0  0  0  0  0  0  0  0
  186.4300  178.0830  144.1730 C   0  0  0  0  0  2  0  0  0  0  0  0
  186.8010  178.2020  142.7100 C   0  0  0  0  0  0  0  0  0  0  0  0
  189.0660  177.5350  143.2330 C   0  0  0  0  0  3  0  0  0  0  0  0
  187.8160  178.7190  138.2410 S   0  0  0  0  0  0  0  0  0  0  0  0
  190.2220  177.5640  139.1810 N   0  0  0  0  0  1  0  0  0  0  0  0
  188.4560  177.9540  140.9040 C   0  0  0  0  0  0  0  0  0  0  0  0
  190.3750  177.2190  142.8780 C   0  0  0  0  0  0  0  0  0  0  0  0
  183.5930  174.3980  135.0370 C   0  0  0  0  0  3  0  0  0  0  0  0
  183.0550  175.4890  134.3560 O   0  0  0  0  0  1  0  0  0  0  0  0
  183.2820  173.2260  134.3490 O   0  0  0  0  0  1  0  0  0  0  0  0
  191.3330  176.8510  143.9470 C   0  0  0  0  0  0  0  0  0  0  0  0
  191.8150  177.8010  144.8390 O   0  0  0  0  0  1  0  0  0  0  0  0
  191.7230  175.6580  144.0610 O   0  0  0  0  0  0  0  0  0  0  0  0
  1 16  1  0  0  0  0
  2 12  2  0  0  0  0
  2 25  1  0  0  0  0
  3  4  1  0  0  0  0
  5 25  2  0  0  0  0
  5  6  1  0  0  0  0
  6 26  2  0  0  0  0
  7 16  2  0  0  0  0
  7 23  1  0  0  0  0
  8 12  1  0  0  0  0
  9 19  1  0  0  0  0
 10  8  2  0  0  0  0
 11  3  1  0  0  0  0
 12 13  1  0  0  0  0
 13 11  1  0  0  0  0
 13 21  2  0  0  0  0
 14 21  1  0  0  0  0
 14 22  2  0  0  0  0
 15 18  1  0  0  0  0
 16 10  1  0  0  0  0
 17  6  1  0  0  0  0
 18  7  1  0  0  0  0
 19 15  2  0  0  0  0
 19  1  1  0  0  0  0
 20  4  1  0  0  0  0
 21 20  1  0  0  0  0
 23  2  1  0  0  0  0
 24  5  1  0  0  0  0
 25 14  1  0  0  0  0
 26 22  1  0  0  0  0
 26 30  1  0  0  0  0
 27  9  1  0  0  0  0
 28 27  1  0  0  0  0
 29 27  1  0  0  0  0
 30 32  2  0  0  0  0
 30 31  1  0  0  0  0
M  END
>  <MODEL>
2

>  <REMARK>
 VINA RESULT:      -8.7      1.527      1.876
  Name = 
  2 active torsions:
  status: ('A' for Active; 'I' for Inactive)
    1  A    between atoms: C_1  and  N_10
    2  A    between atoms: C_11  and  C_32
                            x       y       z     vdW  Elec       q    Type
                         _______ _______ _______ _____ _____    ______ ____

>  <TORSDO>
F 2

$$$$
=
 OpenBabel10272413223D

 32 36  0  0  0  0  0  0  0  0999 V2000
  183.8830  176.2630  137.7250 C   0  0  0  0  0  2  0  0  0  0  0  0
  188.0220  177.8870  137.7510 C   0  0  0  0  0  0  0  0  0  0  0  0
  188.2330  177.7880  142.6220 N   0  0  0  0  0  2  0  0  0  0  0  0
  189.6760  177.9830  142.5850 C   0  0  0  0  0  2  0  0  0  0  0  0
  189.8800  176.7660  136.4660 C   0  0  0  0  0  0  0  0  0  0  0  0
  191.1490  176.1640  136.4700 C   0  0  0  0  0  0  0  0  0  0  0  0
  185.8700  177.1540  136.5660 C   0  0  0  0  0  0  0  0  0  0  0  0
  186.1410  178.7880  139.1290 N   0  0  0  0  0  0  0  0  0  0  0  0
  182.2390  175.0820  136.1660 N   0  0  0  0  0  2  0  0  0  0  0  0
  185.0490  178.3860  138.5360 C   0  0  0  0  0  3  0  0  0  0  0  0
  187.6590  178.5220  141.4970 C   0  0  0  0  0  2  0  0  0  0  0  0
  187.4650  178.2270  139.0060 C   0  0  0  0  0  0  0  0  0  0  0  0
  188.2090  178.0350  140.1770 C   0  0  0  0  0  0  0  0  0  0  0  0
  190.0210  177.0480  138.8880 C   0  0  0  0  0  0  0  0  0  0  0  0
  184.4580  175.4820  135.4880 N   0  0  0  0  0  0  0  0  0  0  0  0
  184.9830  177.2770  137.5650 C   0  0  0  0  0  0  0  0  0  0  0  0
  191.6880  175.7220  135.2640 O   0  0  0  0  0  1  0  0  0  0  0  0
  185.8340  175.9450  135.6770 C   0  0  0  0  0  2  0  0  0  0  0  0
  183.5500  175.5940  136.4120 C   0  0  0  0  0  0  0  0  0  0  0  0
  190.2590  177.2140  141.4050 C   0  0  0  0  0  2  0  0  0  0  0  0
  189.4950  177.4690  140.1220 C   0  0  0  0  0  0  0  0  0  0  0  0
  191.2840  176.4460  138.8560 C   0  0  0  0  0  3  0  0  0  0  0  0
  187.1080  178.4130  136.2910 S   0  0  0  0  0  0  0  0  0  0  0  0
  189.1990  176.8380  135.2160 N   0  0  0  0  0  1  0  0  0  0  0  0
  189.2930  177.2360  137.6800 C   0  0  0  0  0  0  0  0  0  0  0  0
  191.8630  176.0060  137.6690 C   0  0  0  0  0  0  0  0  0  0  0  0
  181.1670  175.1370  137.1490 C   0  0  0  0  0  3  0  0  0  0  0  0
  180.2690  176.1440  136.7970 O   0  0  0  0  0  1  0  0  0  0  0  0
  180.4980  173.9140  137.1850 O   0  0  0  0  0  1  0  0  0  0  0  0
  193.2050  175.3800  137.7210 C   0  0  0  0  0  0  0  0  0  0  0  0
  193.3560  173.9990  137.7190 O   0  0  0  0  0  0  0  0  0  0  0  0
  194.2370  176.1030  137.7650 O   0  0  0  0  0  1  0  0  0  0  0  0
  2 12  1  0  0  0  0
  4  3  1  0  0  0  0
  5  6  2  0  0  0  0
  5 25  1  0  0  0  0
  6 26  1  0  0  0  0
  7 16  2  0  0  0  0
  9 19  1  0  0  0  0
  9 27  1  0  0  0  0
 10  8  2  0  0  0  0
 11  3  1  0  0  0  0
 12  8  1  0  0  0  0
 12 13  2  0  0  0  0
 13 11  1  0  0  0  0
 14 21  2  0  0  0  0
 15 18  1  0  0  0  0
 15 19  2  0  0  0  0
 16  1  1  0  0  0  0
 16 10  1  0  0  0  0
 17  6  1  0  0  0  0
 18  7  1  0  0  0  0
 19  1  1  0  0  0  0
 20  4  1  0  0  0  0
 21 13  1  0  0  0  0
 21 20  1  0  0  0  0
 22 14  1  0  0  0  0
 23  7  1  0  0  0  0
 23  2  1  0  0  0  0
 24  5  1  0  0  0  0
 25  2  2  0  0  0  0
 25 14  1  0  0  0  0
 26 30  1  0  0  0  0
 26 22  2  0  0  0  0
 27 29  1  0  0  0  0
 28 27  1  0  0  0  0
 30 32  1  0  0  0  0
 31 30  2  0  0  0  0
M  END
>  <MODEL>
3

>  <REMARK>
 VINA RESULT:      -8.3      3.593      5.347
  Name = 
  2 active torsions:
  status: ('A' for Active; 'I' for Inactive)
    1  A    between atoms: C_1  and  N_10
    2  A    between atoms: C_11  and  C_32
                            x       y       z     vdW  Elec       q    Type
                         _______ _______ _______ _____ _____    ______ ____

>  <TORSDO>
F 2

$$$$
=
 OpenBabel10272413223D

 32 36  0  0  0  0  0  0  0  0999 V2000
  190.2860  176.7220  142.6110 C   0  0  0  0  0  2  0  0  0  0  0  0
  188.9740  177.2200  138.3920 C   0  0  0  0  0  0  0  0  0  0  0  0
  191.5410  173.3390  136.9350 N   0  0  0  0  0  2  0  0  0  0  0  0
  190.8320  173.3200  135.6620 C   0  0  0  0  0  2  0  0  0  0  0  0
  186.5290  177.3160  137.7810 C   0  0  0  0  0  0  0  0  0  0  0  0
  185.4550  176.7950  137.0400 C   0  0  0  0  0  0  0  0  0  0  0  0
  189.0640  177.9430  140.8500 C   0  0  0  0  0  0  0  0  0  0  0  0
  191.3500  176.9210  139.1070 N   0  0  0  0  0  0  0  0  0  0  0  0
  189.6100  177.4000  144.9800 N   0  0  0  0  0  2  0  0  0  0  0  0
  191.3830  177.2610  140.3670 C   0  0  0  0  0  3  0  0  0  0  0  0
  191.6740  174.7350  137.3460 C   0  0  0  0  0  2  0  0  0  0  0  0
  190.1990  176.5170  138.3350 C   0  0  0  0  0  0  0  0  0  0  0  0
  190.3270  175.3990  137.5000 C   0  0  0  0  0  0  0  0  0  0  0  0
  187.9870  175.5860  136.8600 C   0  0  0  0  0  0  0  0  0  0  0  0
  188.2290  177.9170  143.1430 N   0  0  0  0  0  0  0  0  0  0  0  0
  190.1980  177.3430  141.2440 C   0  0  0  0  0  0  0  0  0  0  0  0
  184.2060  177.3990  137.1490 O   0  0  0  0  0  1  0  0  0  0  0  0
  187.8490  177.8950  141.7290 C   0  0  0  0  0  2  0  0  0  0  0  0
  189.3260  177.3720  143.5780 C   0  0  0  0  0  0  0  0  0  0  0  0
  189.3730  173.6990  135.8920 C   0  0  0  0  0  2  0  0  0  0  0  0
  189.2330  174.9440  136.7440 C   0  0  0  0  0  0  0  0  0  0  0  0
  186.8970  175.0930  136.1350 C   0  0  0  0  0  3  0  0  0  0  0  0
  188.9820  178.7880  139.2780 S   0  0  0  0  0  0  0  0  0  0  0  0
  186.2490  178.4130  138.6460 N   0  0  0  0  0  1  0  0  0  0  0  0
  187.8270  176.7270  137.6950 C   0  0  0  0  0  0  0  0  0  0  0  0
  185.6360  175.6810  136.2040 C   0  0  0  0  0  0  0  0  0  0  0  0
  190.7970  176.7930  145.5620 C   0  0  0  0  0  3  0  0  0  0  0  0
  191.8760  177.6630  145.4240 O   0  0  0  0  0  1  0  0  0  0  0  0
  190.5790  176.5380  146.9150 O   0  0  0  0  0  1  0  0  0  0  0  0
  184.5340  175.0990  135.4020 C   0  0  0  0  0  0  0  0  0  0  0  0
  183.9020  173.9250  135.7930 O   0  0  0  0  0  1  0  0  0  0  0  0
  184.1530  175.6710  134.3460 O   0  0  0  0  0  0  0  0  0  0  0  0
  1 19  1  0  0  0  0
  2 23  1  0  0  0  0
  3 11  1  0  0  0  0
  4 20  1  0  0  0  0
  4  3  1  0  0  0  0
  5 24  1  0  0  0  0
  6 17  1  0  0  0  0
  6  5  2  0  0  0  0
  7 16  2  0  0  0  0
  7 18  1  0  0  0  0
  8 10  2  0  0  0  0
  9 27  1  0  0  0  0
 10 16  1  0  0  0  0
 11 13  1  0  0  0  0
 12  2  1  0  0  0  0
 12  8  1  0  0  0  0
 13 12  2  0  0  0  0
 14 25  1  0  0  0  0
 15 19  2  0  0  0  0
 16  1  1  0  0  0  0
 18 15  1  0  0  0  0
 19  9  1  0  0  0  0
 20 21  1  0  0  0  0
 21 14  2  0  0  0  0
 21 13  1  0  0  0  0
 22 26  2  0  0  0  0
 22 14  1  0  0  0  0
 23  7  1  0  0  0  0
 25  5  1  0  0  0  0
 25  2  2  0  0  0  0
 26  6  1  0  0  0  0
 27 29  1  0  0  0  0
 28 27  1  0  0  0  0
 30 31  1  0  0  0  0
 30 26  1  0  0  0  0
 32 30  2  0  0  0  0
M  END
>  <MODEL>
4

>  <REMARK>
 VINA RESULT:      -8.2      1.965      8.538
  Name = 
  2 active torsions:
  status: ('A' for Active; 'I' for Inactive)
    1  A    between atoms: C_1  and  N_10
    2  A    between atoms: C_11  and  C_32
                            x       y       z     vdW  Elec       q    Type
                         _______ _______ _______ _____ _____    ______ ____

>  <TORSDO>
F 2

$$$$
=
 OpenBabel10272413223D

 32 36  0  0  0  0  0  0  0  0999 V2000
  182.0200  181.2990  137.9020 C   0  0  0  0  0  2  0  0  0  0  0  0
  183.6250  178.3210  140.7870 C   0  0  0  0  0  0  0  0  0  0  0  0
  188.1520  178.7800  139.0350 N   0  0  0  0  0  2  0  0  0  0  0  0
  188.6950  178.0830  140.1930 C   0  0  0  0  0  2  0  0  0  0  0  0
  183.2880  178.5870  143.2730 C   0  0  0  0  0  0  0  0  0  0  0  0
  183.8500  178.6970  144.5550 C   0  0  0  0  0  0  0  0  0  0  0  0
  181.7170  179.6590  139.7200 C   0  0  0  0  0  0  0  0  0  0  0  0
  184.0510  178.2750  138.3240 N   0  0  0  0  0  0  0  0  0  0  0  0
  180.0090  182.8410  137.5740 N   0  0  0  0  0  2  0  0  0  0  0  0
  183.0930  178.9840  137.7900 C   0  0  0  0  0  3  0  0  0  0  0  0
  186.8440  178.1990  138.7410 C   0  0  0  0  0  2  0  0  0  0  0  0
  184.5170  178.3160  139.6900 C   0  0  0  0  0  0  0  0  0  0  0  0
  185.9000  178.3370  139.9120 C   0  0  0  0  0  0  0  0  0  0  0  0
  185.5320  178.4940  142.3120 C   0  0  0  0  0  0  0  0  0  0  0  0
  180.2700  181.6180  139.5700 N   0  0  0  0  0  0  0  0  0  0  0  0
  182.2550  179.9510  138.5260 C   0  0  0  0  0  0  0  0  0  0  0  0
  183.0020  178.8080  145.6540 O   0  0  0  0  0  1  0  0  0  0  0  0
  180.9730  180.7160  140.4830 C   0  0  0  0  0  2  0  0  0  0  0  0
  180.7330  181.9200  138.3930 C   0  0  0  0  0  0  0  0  0  0  0  0
  187.9090  178.4840  141.4370 C   0  0  0  0  0  2  0  0  0  0  0  0
  186.4130  178.4020  141.2200 C   0  0  0  0  0  0  0  0  0  0  0  0
  186.0580  178.6040  143.6040 C   0  0  0  0  0  3  0  0  0  0  0  0
  181.8870  178.0230  140.4180 S   0  0  0  0  0  0  0  0  0  0  0  0
  181.8670  178.6490  143.1780 N   0  0  0  0  0  1  0  0  0  0  0  0
  184.1220  178.4690  142.1190 C   0  0  0  0  0  0  0  0  0  0  0  0
  185.2430  178.6990  144.7290 C   0  0  0  0  0  0  0  0  0  0  0  0
  180.4620  183.2590  136.2560 C   0  0  0  0  0  3  0  0  0  0  0  0
  179.9830  182.3670  135.2980 O   0  0  0  0  0  1  0  0  0  0  0  0
  179.9830  184.5380  135.9770 O   0  0  0  0  0  1  0  0  0  0  0  0
  185.8800  178.8090  146.0620 C   0  0  0  0  0  0  0  0  0  0  0  0
  186.8570  177.9090  146.4690 O   0  0  0  0  0  0  0  0  0  0  0  0
  185.5410  179.7330  146.8490 O   0  0  0  0  0  1  0  0  0  0  0  0
  1 19  1  0  0  0  0
  1 16  1  0  0  0  0
  2 25  1  0  0  0  0
  3  4  1  0  0  0  0
  4 20  1  0  0  0  0
  5  6  1  0  0  0  0
  6 26  2  0  0  0  0
  6 17  1  0  0  0  0
  7 23  1  0  0  0  0
  7 18  1  0  0  0  0
  8 12  1  0  0  0  0
  9 19  1  0  0  0  0
 10  8  2  0  0  0  0
 10 16  1  0  0  0  0
 11  3  1  0  0  0  0
 11 13  1  0  0  0  0
 12 13  1  0  0  0  0
 12  2  2  0  0  0  0
 13 21  2  0  0  0  0
 14 22  2  0  0  0  0
 15 18  1  0  0  0  0
 16  7  2  0  0  0  0
 19 15  2  0  0  0  0
 21 20  1  0  0  0  0
 21 14  1  0  0  0  0
 22 26  1  0  0  0  0
 23  2  1  0  0  0  0
 24  5  1  0  0  0  0
 25 14  1  0  0  0  0
 25  5  2  0  0  0  0
 26 30  1  0  0  0  0
 27  9  1  0  0  0  0
 28 27  1  0  0  0  0
 29 27  1  0  0  0  0
 30 31  2  0  0  0  0
 30 32  1  0  0  0  0
M  END
>  <MODEL>
5

>  <REMARK>
 VINA RESULT:      -7.9      4.499      7.112
  Name = 
  2 active torsions:
  status: ('A' for Active; 'I' for Inactive)
    1  A    between atoms: C_1  and  N_10
    2  A    between atoms: C_11  and  C_32
                            x       y       z     vdW  Elec       q    Type
                         _______ _______ _______ _____ _____    ______ ____

>  <TORSDO>
F 2

$$$$
=
 OpenBabel10272413223D

 32 36  0  0  0  0  0  0  0  0999 V2000
  188.7290  175.5650  137.5010 C   0  0  0  0  0  2  0  0  0  0  0  0
  187.7750  178.4480  140.7490 C   0  0  0  0  0  0  0  0  0  0  0  0
  182.9760  177.8250  140.1520 N   0  0  0  0  0  2  0  0  0  0  0  0
  182.7100  178.4880  141.4210 C   0  0  0  0  0  2  0  0  0  0  0  0
  188.7220  178.1700  143.0700 C   0  0  0  0  0  0  0  0  0  0  0  0
  188.4970  178.0250  144.4490 C   0  0  0  0  0  0  0  0  0  0  0  0
  189.4100  177.1980  139.2200 C   0  0  0  0  0  0  0  0  0  0  0  0
  186.7560  178.5010  138.4670 N   0  0  0  0  0  0  0  0  0  0  0  0
  190.6520  174.1090  136.6590 N   0  0  0  0  0  2  0  0  0  0  0  0
  187.5780  177.8370  137.7000 C   0  0  0  0  0  3  0  0  0  0  0  0
  184.1490  178.4610  139.5580 C   0  0  0  0  0  2  0  0  0  0  0  0
  186.6410  178.4270  139.9040 C   0  0  0  0  0  0  0  0  0  0  0  0
  185.3570  178.3500  140.4590 C   0  0  0  0  0  0  0  0  0  0  0  0
  186.3090  178.1830  142.6910 C   0  0  0  0  0  0  0  0  0  0  0  0
  190.8450  175.2990  138.6820 N   0  0  0  0  0  0  0  0  0  0  0  0
  188.6050  176.8970  138.1900 C   0  0  0  0  0  0  0  0  0  0  0  0
  189.5930  177.9370  145.3040 O   0  0  0  0  0  1  0  0  0  0  0  0
  190.3560  176.1640  139.7570 C   0  0  0  0  0  2  0  0  0  0  0  0
  190.1180  174.9910  137.6490 C   0  0  0  0  0  0  0  0  0  0  0  0
  183.7910  178.1060  142.4270 C   0  0  0  0  0  2  0  0  0  0  0  0
  185.1840  178.2500  141.8500 C   0  0  0  0  0  0  0  0  0  0  0  0
  186.1200  178.0390  144.0700 C   0  0  0  0  0  3  0  0  0  0  0  0
  189.3570  178.8180  139.9710 S   0  0  0  0  0  0  0  0  0  0  0  0
  190.0770  178.1660  142.6290 N   0  0  0  0  0  1  0  0  0  0  0  0
  187.6260  178.2660  142.1590 C   0  0  0  0  0  0  0  0  0  0  0  0
  187.1900  177.9650  144.9590 C   0  0  0  0  0  0  0  0  0  0  0  0
  189.9040  173.6860  135.4850 C   0  0  0  0  0  3  0  0  0  0  0  0
  190.6850  173.8780  134.3460 O   0  0  0  0  0  1  0  0  0  0  0  0
  189.5750  172.3360  135.5970 O   0  0  0  0  0  1  0  0  0  0  0  0
  186.9040  177.8160  146.4050 C   0  0  0  0  0  0  0  0  0  0  0  0
  187.8890  178.0400  147.3600 O   0  0  0  0  0  1  0  0  0  0  0  0
  185.7510  177.4840  146.7900 O   0  0  0  0  0  0  0  0  0  0  0  0
  1 19  1  0  0  0  0
  1 16  1  0  0  0  0
  2 25  1  0  0  0  0
  3  4  1  0  0  0  0
  4 20  1  0  0  0  0
  5  6  1  0  0  0  0
  6 26  2  0  0  0  0
  6 17  1  0  0  0  0
  7 18  1  0  0  0  0
  7 23  1  0  0  0  0
  8 12  1  0  0  0  0
  9 19  1  0  0  0  0
 10 16  1  0  0  0  0
 10  8  2  0  0  0  0
 11  3  1  0  0  0  0
 11 13  1  0  0  0  0
 12 13  1  0  0  0  0
 12  2  2  0  0  0  0
 13 21  2  0  0  0  0
 14 22  2  0  0  0  0
 15 18  1  0  0  0  0
 16  7  2  0  0  0  0
 19 15  2  0  0  0  0
 21 20  1  0  0  0  0
 21 14  1  0  0  0  0
 22 26  1  0  0  0  0
 23  2  1  0  0  0  0
 24  5  1  0  0  0  0
 25 14  1  0  0  0  0
 25  5  2  0  0  0  0
 26 30  1  0  0  0  0
 27 29  1  0  0  0  0
 27  9  1  0  0  0  0
 28 27  1  0  0  0  0
 30 32  2  0  0  0  0
 30 31  1  0  0  0  0
M  END
>  <MODEL>
6

>  <REMARK>
 VINA RESULT:      -7.7      2.010      2.593
  Name = 
  2 active torsions:
  status: ('A' for Active; 'I' for Inactive)
    1  A    between atoms: C_1  and  N_10
    2  A    between atoms: C_11  and  C_32
                            x       y       z     vdW  Elec       q    Type
                         _______ _______ _______ _____ _____    ______ ____

>  <TORSDO>
F 2

$$$$
=
 OpenBabel10272413223D

 32 36  0  0  0  0  0  0  0  0999 V2000
  191.3440  176.6450  142.7620 C   0  0  0  0  0  2  0  0  0  0  0  0
  190.2310  176.6310  138.4570 C   0  0  0  0  0  0  0  0  0  0  0  0
  193.9090  173.6370  137.3210 N   0  0  0  0  0  2  0  0  0  0  0  0
  193.3240  173.3800  136.0120 C   0  0  0  0  0  2  0  0  0  0  0  0
  187.9110  175.9900  137.7030 C   0  0  0  0  0  0  0  0  0  0  0  0
  187.0890  175.1590  136.9250 C   0  0  0  0  0  0  0  0  0  0  0  0
  189.9410  177.4090  140.8820 C   0  0  0  0  0  0  0  0  0  0  0  0
  192.5380  177.0590  139.3200 N   0  0  0  0  0  0  0  0  0  0  0  0
  190.3400  177.1540  145.0560 N   0  0  0  0  0  2  0  0  0  0  0  0
  192.3850  177.4250  140.5640 C   0  0  0  0  0  3  0  0  0  0  0  0
  193.6030  175.0210  137.6780 C   0  0  0  0  0  2  0  0  0  0  0  0
  191.6090  176.3160  138.5020 C   0  0  0  0  0  0  0  0  0  0  0  0
  192.1130  175.2650  137.7250 C   0  0  0  0  0  0  0  0  0  0  0  0
  189.8690  174.7410  136.9440 C   0  0  0  0  0  0  0  0  0  0  0  0
  188.9970  177.1980  143.1220 N   0  0  0  0  0  0  0  0  0  0  0  0
  191.1710  177.1780  141.3660 C   0  0  0  0  0  0  0  0  0  0  0  0
  185.7130  175.3730  136.9370 O   0  0  0  0  0  1  0  0  0  0  0  0
  188.7360  177.0300  141.6920 C   0  0  0  0  0  2  0  0  0  0  0  0
  190.1730  177.0090  143.6440 C   0  0  0  0  0  0  0  0  0  0  0  0
  191.8050  173.3200  136.1410 C   0  0  0  0  0  2  0  0  0  0  0  0
  191.2520  174.4900  136.9280 C   0  0  0  0  0  0  0  0  0  0  0  0
  189.0210  173.9320  136.1800 C   0  0  0  0  0  3  0  0  0  0  0  0
  189.7230  178.1540  139.2730 S   0  0  0  0  0  0  0  0  0  0  0  0
  187.2670  176.9790  138.5020 N   0  0  0  0  0  1  0  0  0  0  0  0
  189.3280  175.8060  137.7180 C   0  0  0  0  0  0  0  0  0  0  0  0
  187.6420  174.1260  136.1510 C   0  0  0  0  0  0  0  0  0  0  0  0
  191.6110  176.9360  145.7320 C   0  0  0  0  0  3  0  0  0  0  0  0
  191.4810  177.2690  147.0790 O   0  0  0  0  0  1  0  0  0  0  0  0
  191.9790  175.5960  145.6220 O   0  0  0  0  0  1  0  0  0  0  0  0
  186.8140  173.2270  135.3130 C   0  0  0  0  0  0  0  0  0  0  0  0
  186.7670  171.8590  135.5550 O   0  0  0  0  0  1  0  0  0  0  0  0
  186.1340  173.6990  134.3630 O   0  0  0  0  0  0  0  0  0  0  0  0
  1 19  1  0  0  0  0
  2 12  1  0  0  0  0
  2 23  1  0  0  0  0
  3 11  1  0  0  0  0
  4 20  1  0  0  0  0
  4  3  1  0  0  0  0
  5 25  1  0  0  0  0
  5 24  1  0  0  0  0
  6 17  1  0  0  0  0
  6  5  2  0  0  0  0
  7 16  2  0  0  0  0
  7 18  1  0  0  0  0
  8 10  2  0  0  0  0
  9 27  1  0  0  0  0
 10 16  1  0  0  0  0
 11 13  1  0  0  0  0
 12  8  1  0  0  0  0
 13 12  2  0  0  0  0
 14 25  1  0  0  0  0
 15 19  2  0  0  0  0
 16  1  1  0  0  0  0
 18 15  1  0  0  0  0
 19  9  1  0  0  0  0
 20 21  1  0  0  0  0
 21 14  2  0  0  0  0
 21 13  1  0  0  0  0
 22 14  1  0  0  0  0
 23  7  1  0  0  0  0
 25  2  2  0  0  0  0
 26 22  2  0  0  0  0
 26  6  1  0  0  0  0
 27 28  1  0  0  0  0
 29 27  1  0  0  0  0
 30 31  1  0  0  0  0
 30 26  1  0  0  0  0
 32 30  2  0  0  0  0
M  END
>  <MODEL>
7

>  <REMARK>
 VINA RESULT:      -7.7      2.475      8.838
  Name = 
  2 active torsions:
  status: ('A' for Active; 'I' for Inactive)
    1  A    between atoms: C_1  and  N_10
    2  A    between atoms: C_11  and  C_32
                            x       y       z     vdW  Elec       q    Type
                         _______ _______ _______ _____ _____    ______ ____

>  <TORSDO>
F 2

$$$$
=
 OpenBabel10272413223D

 32 36  0  0  0  0  0  0  0  0999 V2000
  189.5940  176.9960  140.9040 C   0  0  0  0  0  2  0  0  0  0  0  0
  186.8630  176.6400  137.4130 C   0  0  0  0  0  0  0  0  0  0  0  0
  188.2290  172.0350  136.5730 N   0  0  0  0  0  2  0  0  0  0  0  0
  187.0980  171.8400  135.6760 C   0  0  0  0  0  2  0  0  0  0  0  0
  184.3960  177.1200  137.6220 C   0  0  0  0  0  0  0  0  0  0  0  0
  183.0710  176.6780  137.4790 C   0  0  0  0  0  0  0  0  0  0  0  0
  187.9510  177.9490  139.3290 C   0  0  0  0  0  0  0  0  0  0  0  0
  189.2830  176.0120  137.3850 N   0  0  0  0  0  0  0  0  0  0  0  0
  189.9370  178.4140  143.0010 N   0  0  0  0  0  2  0  0  0  0  0  0
  189.8240  176.6580  138.3820 C   0  0  0  0  0  3  0  0  0  0  0  0
  188.6680  173.4220  136.4360 C   0  0  0  0  0  2  0  0  0  0  0  0
  187.8880  175.6880  137.2010 C   0  0  0  0  0  0  0  0  0  0  0  0
  187.5630  174.3900  136.7860 C   0  0  0  0  0  0  0  0  0  0  0  0
  185.1920  174.9240  136.9060 C   0  0  0  0  0  0  0  0  0  0  0  0
  188.0390  178.7230  141.6420 N   0  0  0  0  0  0  0  0  0  0  0  0
  189.0720  177.2350  139.5130 C   0  0  0  0  0  0  0  0  0  0  0  0
  182.0320  177.5560  137.7780 O   0  0  0  0  0  1  0  0  0  0  0  0
  187.1570  178.4140  140.5160 C   0  0  0  0  0  2  0  0  0  0  0  0
  189.1490  178.0800  141.8570 C   0  0  0  0  0  0  0  0  0  0  0  0
  185.8860  172.5860  136.2240 C   0  0  0  0  0  2  0  0  0  0  0  0
  186.2200  174.0100  136.6150 C   0  0  0  0  0  0  0  0  0  0  0  0
  183.8600  174.5160  136.7730 C   0  0  0  0  0  3  0  0  0  0  0  0
  187.3840  178.3430  137.6810 S   0  0  0  0  0  0  0  0  0  0  0  0
  184.5900  178.4420  138.1190 N   0  0  0  0  0  1  0  0  0  0  0  0
  185.4900  176.2520  137.3230 C   0  0  0  0  0  0  0  0  0  0  0  0
  182.7940  175.3710  137.0460 C   0  0  0  0  0  0  0  0  0  0  0  0
  191.1780  177.7320  143.3380 C   0  0  0  0  0  3  0  0  0  0  0  0
  191.9820  178.5810  144.0950 O   0  0  0  0  0  1  0  0  0  0  0  0
  190.8970  176.5830  144.0760 O   0  0  0  0  0  1  0  0  0  0  0  0
  181.4130  174.8610  136.8780 C   0  0  0  0  0  0  0  0  0  0  0  0
  180.7400  174.2480  137.9270 O   0  0  0  0  0  1  0  0  0  0  0  0
  180.8270  174.9830  135.7690 O   0  0  0  0  0  0  0  0  0  0  0  0
  1 19  1  0  0  0  0
  2 23  1  0  0  0  0
  4 20  1  0  0  0  0
  4  3  1  0  0  0  0
  5 24  1  0  0  0  0
  6  5  1  0  0  0  0
  6 17  1  0  0  0  0
  7 16  2  0  0  0  0
  7 18  1  0  0  0  0
  8 10  2  0  0  0  0
  9 27  1  0  0  0  0
 10 16  1  0  0  0  0
 11  3  1  0  0  0  0
 11 13  1  0  0  0  0
 12  8  1  0  0  0  0
 12  2  2  0  0  0  0
 13 12  1  0  0  0  0
 14 25  1  0  0  0  0
 15 19  2  0  0  0  0
 16  1  1  0  0  0  0
 18 15  1  0  0  0  0
 19  9  1  0  0  0  0
 20 21  1  0  0  0  0
 21 13  2  0  0  0  0
 21 14  1  0  0  0  0
 22 14  2  0  0  0  0
 22 26  1  0  0  0  0
 23  7  1  0  0  0  0
 25  2  1  0  0  0  0
 25  5  2  0  0  0  0
 26  6  2  0  0  0  0
 27 29  1  0  0  0  0
 27 28  1  0  0  0  0
 30 26  1  0  0  0  0
 30 31  1  0  0  0  0
 32 30  2  0  0  0  0
M  END
>  <MODEL>
8

>  <REMARK>
 VINA RESULT:      -7.2      2.713      8.409
  Name = 
  2 active torsions:
  status: ('A' for Active; 'I' for Inactive)
    1  A    between atoms: C_1  and  N_10
    2  A    between atoms: C_11  and  C_32
                            x       y       z     vdW  Elec       q    Type
                         _______ _______ _______ _____ _____    ______ ____

>  <TORSDO>
F 2

$$$$
=
 OpenBabel10272413223D

 32 36  0  0  0  0  0  0  0  0999 V2000
  194.5890  171.6830  136.5480 C   0  0  0  0  0  2  0  0  0  0  0  0
  192.3550  175.5200  136.7980 C   0  0  0  0  0  0  0  0  0  0  0  0
  188.3840  173.5610  134.7550 N   0  0  0  0  0  2  0  0  0  0  0  0
  187.5820  174.7060  135.1630 C   0  0  0  0  0  2  0  0  0  0  0  0
  192.0770  176.7360  138.9900 C   0  0  0  0  0  0  0  0  0  0  0  0
  191.2200  177.2880  139.9570 C   0  0  0  0  0  0  0  0  0  0  0  0
  194.4550  174.0820  137.1080 C   0  0  0  0  0  0  0  0  0  0  0  0
  192.5390  174.1230  134.7330 N   0  0  0  0  0  0  0  0  0  0  0  0
  196.6080  170.5060  137.5810 N   0  0  0  0  0  2  0  0  0  0  0  0
  193.5930  173.3730  134.9110 C   0  0  0  0  0  3  0  0  0  0  0  0
  189.7290  174.0470  134.4530 C   0  0  0  0  0  2  0  0  0  0  0  0
  191.7550  174.7910  135.7450 C   0  0  0  0  0  0  0  0  0  0  0  0
  190.3600  174.7140  135.6520 C   0  0  0  0  0  0  0  0  0  0  0  0
  190.1330  175.9760  137.7200 C   0  0  0  0  0  0  0  0  0  0  0  0
  195.8790  172.5880  138.4080 N   0  0  0  0  0  0  0  0  0  0  0  0
  194.2190  173.1040  136.2200 C   0  0  0  0  0  0  0  0  0  0  0  0
  191.7750  177.9250  141.0630 O   0  0  0  0  0  1  0  0  0  0  0  0
  194.9830  173.7430  138.4710 C   0  0  0  0  0  2  0  0  0  0  0  0
  195.7130  171.6210  137.5550 C   0  0  0  0  0  0  0  0  0  0  0  0
  188.0390  175.1780  136.5390 C   0  0  0  0  0  2  0  0  0  0  0  0
  189.5450  175.3230  136.6230 C   0  0  0  0  0  0  0  0  0  0  0  0
  189.3090  176.5380  138.7010 C   0  0  0  0  0  3  0  0  0  0  0  0
  194.1320  175.7890  136.6870 S   0  0  0  0  0  0  0  0  0  0  0  0
  193.4780  176.8220  139.2390 N   0  0  0  0  0  1  0  0  0  0  0  0
  191.5480  176.0770  137.8390 C   0  0  0  0  0  0  0  0  0  0  0  0
  189.8260  177.1980  139.8130 C   0  0  0  0  0  0  0  0  0  0  0  0
  196.4840  169.3670  136.6840 C   0  0  0  0  0  3  0  0  0  0  0  0
  197.7550  168.9010  136.3510 O   0  0  0  0  0  1  0  0  0  0  0  0
  195.7690  168.3490  137.3130 O   0  0  0  0  0  1  0  0  0  0  0  0
  188.8840  177.7680  140.8040 C   0  0  0  0  0  0  0  0  0  0  0  0
  188.7290  177.1970  142.0610 O   0  0  0  0  0  1  0  0  0  0  0  0
  188.2060  178.7910  140.5150 O   0  0  0  0  0  0  0  0  0  0  0  0
  1 19  1  0  0  0  0
  2 25  1  0  0  0  0
  3  4  1  0  0  0  0
  4 20  1  0  0  0  0
  5 24  1  0  0  0  0
  5  6  1  0  0  0  0
  6 17  1  0  0  0  0
  7 18  1  0  0  0  0
  8 10  2  0  0  0  0
  8 12  1  0  0  0  0
 10 16  1  0  0  0  0
 11  3  1  0  0  0  0
 11 13  1  0  0  0  0
 12  2  2  0  0  0  0
 13 12  1  0  0  0  0
 13 21  2  0  0  0  0
 14 25  1  0  0  0  0
 14 22  2  0  0  0  0
 15 18  1  0  0  0  0
 16  1  1  0  0  0  0
 16  7  2  0  0  0  0
 19  9  1  0  0  0  0
 19 15  2  0  0  0  0
 20 21  1  0  0  0  0
 21 14  1  0  0  0  0
 22 26  1  0  0  0  0
 23  2  1  0  0  0  0
 23  7  1  0  0  0  0
 25  5  2  0  0  0  0
 26  6  2  0  0  0  0
 26 30  1  0  0  0  0
 27 29  1  0  0  0  0
 27  9  1  0  0  0  0
 28 27  1  0  0  0  0
 30 31  1  0  0  0  0
 32 30  2  0  0  0  0
M  END
>  <MODEL>
9

>  <REMARK>
 VINA RESULT:      -7.2      5.236      7.651
  Name = 
  2 active torsions:
  status: ('A' for Active; 'I' for Inactive)
    1  A    between atoms: C_1  and  N_10
    2  A    between atoms: C_11  and  C_32
                            x       y       z     vdW  Elec       q    Type
                         _______ _______ _______ _____ _____    ______ ____

>  <TORSDO>
F 2

$$$$
