=
 OpenBabel10272415073D

 37 38  0  0  1  0  0  0  0  0999 V2000
  188.4530  176.0040  138.3040 O   0  0  0  0  0  0  0  0  0  0  0  0
  188.2460  175.5870  135.8520 C   0  0  2  0  0  0  0  0  0  0  0  0
  188.9910  177.2950  138.3440 C   0  0  2  0  0  3  0  0  0  0  0  0
  189.0160  175.3670  137.1800 C   0  0  1  0  0  3  0  0  0  0  0  0
  186.7810  178.2670  138.2780 O   0  0  0  0  0  1  0  0  0  0  0  0
  189.1390  175.6760  134.7810 O   0  0  0  0  0  1  0  0  0  0  0  0
  190.5600  175.1920  137.1630 C   0  0  2  0  0  3  0  0  0  0  0  0
  189.2100  178.4050  135.5760 C   0  0  0  0  0  1  0  0  0  0  0  0
  187.3330  176.8470  135.8620 C   0  0  0  0  0  2  0  0  0  0  0  0
  191.1150  174.8980  138.5670 C   0  0  0  0  0  2  0  0  0  0  0  0
  187.9430  178.1360  136.2470 N   0  0  0  0  0  0  0  0  0  0  0  0
  189.5840  177.6300  139.7270 C   0  0  2  0  0  3  0  0  0  0  0  0
  190.4250  176.4400  140.2150 C   0  0  0  0  0  2  0  0  0  0  0  0
  191.4830  176.1260  139.2670 N   0  0  0  0  0  2  0  0  0  0  0  0
  188.0530  178.3210  137.7000 C   0  0  2  0  0  3  0  0  0  0  0  0
  185.8920  174.6110  135.8920 C   0  0  0  0  0  1  0  0  0  0  0  0
  187.3690  174.3440  135.6330 C   0  0  2  0  0  3  0  0  0  0  0  0
  187.7950  173.2760  136.4280 O   0  0  0  0  0  1  0  0  0  0  0  0
  188.2910  179.4050  140.7260 O   0  0  0  0  0  1  0  0  0  0  0  0
  188.5170  178.0270  140.7700 C   0  0  2  0  0  3  0  0  0  0  0  0
  189.8900  178.1850  142.7940 C   0  0  0  0  0  0  0  0  0  0  0  0
  188.8730  177.6370  142.1780 C   0  0  0  0  0  0  0  0  0  0  0  0
  190.8510  178.7040  143.3760 O   0  0  0  0  0  0  0  0  0  0  0  0
  188.0080  176.6650  142.9110 C   0  0  0  0  0  2  0  0  0  0  0  0
  187.2460  177.4140  145.1150 C   0  0  0  0  0  2  0  0  0  0  0  0
  185.9050  178.1420  143.2110 C   0  0  0  0  0  1  0  0  0  0  0  0
  187.0390  177.3740  143.8020 C   0  0  0  0  0  0  0  0  0  0  0  0
  191.2000  176.3000  136.5850 O   0  0  0  0  0  0  0  0  0  0  0  0
  192.0620  176.2020  134.3490 C   0  0  0  0  0  1  0  0  0  0  0  0
  192.2480  175.7900  135.8040 C   0  0  1  0  0  3  0  0  0  0  0  0
  193.6180  176.2230  136.3550 C   0  0  2  0  0  0  0  0  0  0  0  0
  193.4390  177.1330  137.3990 O   0  0  0  0  0  1  0  0  0  0  0  0
  194.3260  176.8540  135.3490 F   0  0  0  0  0  0  0  0  0  0  0  0
  194.6080  174.8090  136.9580 P   0  0  0  0  0  0  0  0  0  0  0  0
  193.7350  173.3710  136.7780 O   0  0  0  0  0  1  0  0  0  0  0  0
  194.9610  175.0020  138.4150 O   0  0  0  0  0  1  0  0  0  0  0  0
  196.0320  174.7050  136.0520 O   0  0  0  0  0  0  0  0  0  0  0  0
  2  6  1  6  0  0  0
  2  9  1  0  0  0  0
  2  4  1  0  0  0  0
  3  1  1  1  0  0  0
  3 12  1  0  0  0  0
  4  1  1  1  0  0  0
  7 28  1  1  0  0  0
  7  4  1  0  0  0  0
  7 10  1  0  0  0  0
  8 11  1  0  0  0  0
  9 11  1  0  0  0  0
 10 14  1  0  0  0  0
 11 15  1  0  0  0  0
 12 13  1  0  0  0  0
 12 20  1  1  0  0  0
 14 13  1  0  0  0  0
 15  5  1  1  0  0  0
 15  3  1  0  0  0  0
 17  2  1  0  0  0  0
 17 16  1  1  0  0  0
 17 18  1  0  0  0  0
 20 19  1  1  0  0  0
 20 22  1  0  0  0  0
 21 23  2  0  0  0  0
 22 21  2  0  0  0  0
 22 24  1  0  0  0  0
 24 27  1  0  0  0  0
 26 27  1  0  0  0  0
 27 25  2  0  0  0  0
 30 29  1  6  0  0  0
 30 31  1  0  0  0  0
 30 28  1  0  0  0  0
 31 33  1  6  0  0  0
 31 34  1  0  0  0  0
 31 32  1  0  0  0  0
 34 36  1  0  0  0  0
 35 34  1  0  0  0  0
 37 34  2  0  0  0  0
M  END
>  <MODEL>
1

>  <REMARK>
 VINA RESULT:      -5.5      0.000      0.000
  Name = 
  9 active torsions:
  status: ('A' for Active; 'I' for Inactive)
    1  A    between atoms: C_1  and  P_5
    2  A    between atoms: C_1  and  C_23
    3  A    between atoms: C_6  and  C_8
    4  A    between atoms: C_6  and  C_31
    5  A    between atoms: C_8  and  C_19
    6  A    between atoms: C_9  and  C_30
    7  A    between atoms: C_20  and  O_25
    8  A    between atoms: C_23  and  O_25
    9  A    between atoms: C_29  and  C_31
                            x       y       z     vdW  Elec       q    Type
                         _______ _______ _______ _____ _____    ______ ____

>  <TORSDO>
F 9

$$$$
=
 OpenBabel10272415073D

 37 38  0  0  1  0  0  0  0  0999 V2000
  188.4270  176.0770  138.3280 O   0  0  0  0  0  0  0  0  0  0  0  0
  188.2160  175.6570  135.8770 C   0  0  2  0  0  0  0  0  0  0  0  0
  188.9890  177.3590  138.3650 C   0  0  2  0  0  3  0  0  0  0  0  0
  188.9800  175.4270  137.2070 C   0  0  1  0  0  3  0  0  0  0  0  0
  186.7980  178.3720  138.2920 O   0  0  0  0  0  1  0  0  0  0  0  0
  189.1120  175.7260  134.8070 O   0  0  0  0  0  1  0  0  0  0  0  0
  190.5200  175.2220  137.1920 C   0  0  2  0  0  3  0  0  0  0  0  0
  189.2340  178.4550  135.5930 C   0  0  0  0  0  1  0  0  0  0  0  0
  187.3270  176.9340  135.8810 C   0  0  0  0  0  2  0  0  0  0  0  0
  191.0680  174.9220  138.5980 C   0  0  0  0  0  2  0  0  0  0  0  0
  187.9600  178.2130  136.2630 N   0  0  0  0  0  0  0  0  0  0  0  0
  189.5870  177.6870  139.7480 C   0  0  2  0  0  3  0  0  0  0  0  0
  190.4050  176.4830  140.2410 C   0  0  0  0  0  2  0  0  0  0  0  0
  191.4580  176.1460  139.2950 N   0  0  0  0  0  2  0  0  0  0  0  0
  188.0720  178.4000  137.7160 C   0  0  2  0  0  3  0  0  0  0  0  0
  186.0960  174.4250  136.5730 C   0  0  0  0  0  1  0  0  0  0  0  0
  187.3160  174.4300  135.6610 C   0  0  2  0  0  3  0  0  0  0  0  0
  188.0290  173.2410  135.8320 O   0  0  0  0  0  1  0  0  0  0  0  0
  188.3320  179.4900  140.7440 O   0  0  0  0  0  1  0  0  0  0  0  0
  188.5270  178.1080  140.7870 C   0  0  2  0  0  3  0  0  0  0  0  0
  188.3450  176.6400  142.7420 C   0  0  0  0  0  0  0  0  0  0  0  0
  188.8690  177.7080  142.1970 C   0  0  0  0  0  0  0  0  0  0  0  0
  187.8510  175.6300  143.2570 O   0  0  0  0  0  0  0  0  0  0  0  0
  189.8790  178.5020  142.9580 C   0  0  0  0  0  2  0  0  0  0  0  0
  191.6930  176.9720  143.5670 C   0  0  0  0  0  2  0  0  0  0  0  0
  190.1940  177.6330  145.3750 C   0  0  0  0  0  1  0  0  0  0  0  0
  190.6080  177.6420  143.9420 C   0  0  0  0  0  0  0  0  0  0  0  0
  191.1810  176.3160  136.6120 O   0  0  0  0  0  0  0  0  0  0  0  0
  191.9660  176.2200  134.3480 C   0  0  0  0  0  1  0  0  0  0  0  0
  192.1850  175.7820  135.7900 C   0  0  1  0  0  3  0  0  0  0  0  0
  193.5870  176.1620  136.3000 C   0  0  2  0  0  0  0  0  0  0  0  0
  193.4730  176.9950  137.4150 O   0  0  0  0  0  1  0  0  0  0  0  0
  194.2510  176.8580  135.3080 F   0  0  0  0  0  0  0  0  0  0  0  0
  194.5870  174.6980  136.7480 P   0  0  0  0  0  0  0  0  0  0  0  0
  195.2910  174.9190  138.2710 O   0  0  0  0  0  1  0  0  0  0  0  0
  195.6740  174.4750  135.7210 O   0  0  0  0  0  0  0  0  0  0  0  0
  193.5850  173.3370  136.7970 O   0  0  0  0  0  1  0  0  0  0  0  0
  2  6  1  6  0  0  0
  2  9  1  0  0  0  0
  2  4  1  0  0  0  0
  3  1  1  1  0  0  0
  3 12  1  0  0  0  0
  4  1  1  1  0  0  0
  7 28  1  1  0  0  0
  7  4  1  0  0  0  0
  7 10  1  0  0  0  0
  8 11  1  0  0  0  0
  9 11  1  0  0  0  0
 10 14  1  0  0  0  0
 11 15  1  0  0  0  0
 12 13  1  0  0  0  0
 12 20  1  1  0  0  0
 14 13  1  0  0  0  0
 15  5  1  1  0  0  0
 15  3  1  0  0  0  0
 17 18  1  0  0  0  0
 17  2  1  0  0  0  0
 17 16  1  1  0  0  0
 20 19  1  1  0  0  0
 20 22  1  0  0  0  0
 21 23  2  0  0  0  0
 22 21  2  0  0  0  0
 22 24  1  0  0  0  0
 24 27  1  0  0  0  0
 25 27  2  0  0  0  0
 27 26  1  0  0  0  0
 30 29  1  6  0  0  0
 30 31  1  0  0  0  0
 30 28  1  0  0  0  0
 31 33  1  6  0  0  0
 31 34  1  0  0  0  0
 31 32  1  0  0  0  0
 34 37  1  0  0  0  0
 34 35  1  0  0  0  0
 36 34  2  0  0  0  0
M  END
>  <MODEL>
2

>  <REMARK>
 VINA RESULT:      -4.9      0.973      1.750
  Name = 
  9 active torsions:
  status: ('A' for Active; 'I' for Inactive)
    1  A    between atoms: C_1  and  P_5
    2  A    between atoms: C_1  and  C_23
    3  A    between atoms: C_6  and  C_8
    4  A    between atoms: C_6  and  C_31
    5  A    between atoms: C_8  and  C_19
    6  A    between atoms: C_9  and  C_30
    7  A    between atoms: C_20  and  O_25
    8  A    between atoms: C_23  and  O_25
    9  A    between atoms: C_29  and  C_31
                            x       y       z     vdW  Elec       q    Type
                         _______ _______ _______ _____ _____    ______ ____

>  <TORSDO>
F 9

$$$$
=
 OpenBabel10272415073D

 37 38  0  0  1  0  0  0  0  0999 V2000
  182.5990  176.9590  138.2510 O   0  0  0  0  0  0  0  0  0  0  0  0
  183.4780  175.2600  136.6490 C   0  0  2  0  0  0  0  0  0  0  0  0
  182.4500  178.0880  137.4380 C   0  0  2  0  0  3  0  0  0  0  0  0
  183.7430  176.2770  137.7880 C   0  0  1  0  0  3  0  0  0  0  0  0
  180.2220  177.3990  136.8110 O   0  0  0  0  0  1  0  0  0  0  0  0
  184.5500  175.2440  135.7520 O   0  0  0  0  0  1  0  0  0  0  0  0
  185.0970  177.0370  137.8530 C   0  0  2  0  0  3  0  0  0  0  0  0
  183.1090  177.4070  134.6010 C   0  0  0  0  0  1  0  0  0  0  0  0
  182.1610  175.5270  135.8660 C   0  0  0  0  0  2  0  0  0  0  0  0
  185.1910  177.9280  139.1030 C   0  0  0  0  0  2  0  0  0  0  0  0
  181.9510  176.8820  135.3160 N   0  0  0  0  0  0  0  0  0  0  0  0
  182.3020  179.3800  138.2660 C   0  0  2  0  0  3  0  0  0  0  0  0
  183.3530  179.3830  139.3860 C   0  0  0  0  0  2  0  0  0  0  0  0
  184.6970  179.2780  138.8390 N   0  0  0  0  0  2  0  0  0  0  0  0
  181.4470  177.8440  136.3050 C   0  0  2  0  0  3  0  0  0  0  0  0
  184.7570  173.2880  137.6360 C   0  0  0  0  0  1  0  0  0  0  0  0
  183.3900  173.8710  137.3020 C   0  0  2  0  0  3  0  0  0  0  0  0
  182.6860  172.9740  136.4940 O   0  0  0  0  0  1  0  0  0  0  0  0
  180.5840  180.9460  138.9120 O   0  0  0  0  0  1  0  0  0  0  0  0
  180.8800  179.5830  138.8320 C   0  0  2  0  0  3  0  0  0  0  0  0
  180.4680  177.6730  140.3110 C   0  0  0  0  0  0  0  0  0  0  0  0
  180.6730  178.9590  140.1850 C   0  0  0  0  0  0  0  0  0  0  0  0
  180.2760  176.4570  140.4300 O   0  0  0  0  0  0  0  0  0  0  0  0
  180.7760  179.8100  141.4070 C   0  0  0  0  0  2  0  0  0  0  0  0
  182.5370  178.8340  142.8040 C   0  0  0  0  0  2  0  0  0  0  0  0
  180.2460  178.5080  143.5790 C   0  0  0  0  0  1  0  0  0  0  0  0
  181.2370  179.0080  142.5830 C   0  0  0  0  0  0  0  0  0  0  0  0
  185.3300  177.7770  136.6830 O   0  0  0  0  0  0  0  0  0  0  0  0
  186.4270  177.0770  134.6680 C   0  0  0  0  0  1  0  0  0  0  0  0
  186.5540  177.3240  136.1650 C   0  0  1  0  0  3  0  0  0  0  0  0
  187.6960  178.3030  136.4930 C   0  0  2  0  0  0  0  0  0  0  0  0
  187.1660  179.5500  136.8250 O   0  0  0  0  0  1  0  0  0  0  0  0
  188.4890  178.4560  135.3720 F   0  0  0  0  0  0  0  0  0  0  0  0
  188.7470  177.7140  137.8680 P   0  0  0  0  0  0  0  0  0  0  0  0
  190.3540  177.5810  137.3550 O   0  0  0  0  0  0  0  0  0  0  0  0
  188.2640  176.3670  138.3560 O   0  0  0  0  0  1  0  0  0  0  0  0
  188.6660  178.8240  139.1410 O   0  0  0  0  0  1  0  0  0  0  0  0
  2  6  1  6  0  0  0
  2 17  1  0  0  0  0
  2  4  1  0  0  0  0
  3  1  1  1  0  0  0
  3 12  1  0  0  0  0
  4  7  1  0  0  0  0
  4  1  1  6  0  0  0
  7 28  1  6  0  0  0
  7 10  1  0  0  0  0
  8 11  1  0  0  0  0
  9  2  1  0  0  0  0
 11  9  1  0  0  0  0
 11 15  1  0  0  0  0
 12 20  1  1  0  0  0
 12 13  1  0  0  0  0
 14 10  1  0  0  0  0
 14 13  1  0  0  0  0
 15  5  1  1  0  0  0
 15  3  1  0  0  0  0
 17 16  1  6  0  0  0
 18 17  1  0  0  0  0
 20 19  1  1  0  0  0
 20 22  1  0  0  0  0
 21 23  2  0  0  0  0
 22 21  2  0  0  0  0
 22 24  1  0  0  0  0
 24 27  1  0  0  0  0
 27 25  2  0  0  0  0
 27 26  1  0  0  0  0
 30 29  1  6  0  0  0
 30 31  1  0  0  0  0
 30 28  1  0  0  0  0
 31 33  1  6  0  0  0
 31 32  1  0  0  0  0
 31 34  1  0  0  0  0
 34 36  1  0  0  0  0
 34 37  1  0  0  0  0
 35 34  2  0  0  0  0
M  END
>  <MODEL>
3

>  <REMARK>
 VINA RESULT:      -4.4      4.587      6.716
  Name = 
  9 active torsions:
  status: ('A' for Active; 'I' for Inactive)
    1  A    between atoms: C_1  and  P_5
    2  A    between atoms: C_1  and  C_23
    3  A    between atoms: C_6  and  C_8
    4  A    between atoms: C_6  and  C_31
    5  A    between atoms: C_8  and  C_19
    6  A    between atoms: C_9  and  C_30
    7  A    between atoms: C_20  and  O_25
    8  A    between atoms: C_23  and  O_25
    9  A    between atoms: C_29  and  C_31
                            x       y       z     vdW  Elec       q    Type
                         _______ _______ _______ _____ _____    ______ ____

>  <TORSDO>
F 9

$$$$
=
 OpenBabel10272415073D

 37 38  0  0  1  0  0  0  0  0999 V2000
  184.8280  176.0260  135.9120 O   0  0  0  0  0  0  0  0  0  0  0  0
  182.4520  176.7440  136.1600 C   0  0  2  0  0  0  0  0  0  0  0  0
  185.0350  175.2690  137.0710 C   0  0  2  0  0  3  0  0  0  0  0  0
  183.9620  177.0790  136.2670 C   0  0  1  0  0  3  0  0  0  0  0  0
  184.2270  173.2770  135.9690 O   0  0  0  0  0  1  0  0  0  0  0  0
  181.7380  177.3810  137.1780 O   0  0  0  0  0  1  0  0  0  0  0  0
  184.4610  178.0750  137.3500 C   0  0  2  0  0  3  0  0  0  0  0  0
  182.4880  175.0510  138.6240 C   0  0  0  0  0  1  0  0  0  0  0  0
  182.1450  175.2190  136.1980 C   0  0  0  0  0  2  0  0  0  0  0  0
  185.9730  178.3360  137.2290 C   0  0  0  0  0  2  0  0  0  0  0  0
  182.7010  174.4340  137.3190 N   0  0  0  0  0  0  0  0  0  0  0  0
  186.5340  175.0450  137.3550 C   0  0  2  0  0  3  0  0  0  0  0  0
  187.2840  176.3740  137.1700 C   0  0  0  0  0  2  0  0  0  0  0  0
  186.7450  177.4020  138.0460 N   0  0  0  0  0  2  0  0  0  0  0  0
  184.1060  174.0520  137.1260 C   0  0  2  0  0  3  0  0  0  0  0  0
  181.6680  178.8040  134.8790 C   0  0  0  0  0  1  0  0  0  0  0  0
  181.9630  177.3120  134.8160 C   0  0  2  0  0  3  0  0  0  0  0  0
  180.8300  176.6320  134.3610 O   0  0  0  0  0  1  0  0  0  0  0  0
  187.1310  172.7140  137.1910 O   0  0  0  0  0  1  0  0  0  0  0  0
  187.1580  173.9250  136.4950 C   0  0  2  0  0  3  0  0  0  0  0  0
  189.5670  174.1010  136.9080 C   0  0  0  0  0  0  0  0  0  0  0  0
  188.5710  174.2090  136.0650 C   0  0  0  0  0  0  0  0  0  0  0  0
  190.5080  173.9980  137.7040 O   0  0  0  0  0  0  0  0  0  0  0  0
  188.8490  174.5450  134.6380 C   0  0  0  0  0  2  0  0  0  0  0  0
  189.6790  176.8490  134.7020 C   0  0  0  0  0  2  0  0  0  0  0  0
  191.3570  175.1140  134.3460 C   0  0  0  0  0  1  0  0  0  0  0  0
  189.9450  175.5580  134.5280 C   0  0  0  0  0  0  0  0  0  0  0  0
  184.1210  177.6470  138.6430 O   0  0  0  0  0  0  0  0  0  0  0  0
  183.1200  179.8180  138.8450 C   0  0  0  0  0  1  0  0  0  0  0  0
  184.0810  178.7990  139.4440 C   0  0  1  0  0  3  0  0  0  0  0  0
  183.7210  178.4540  140.9000 C   0  0  2  0  0  0  0  0  0  0  0  0
  183.4340  177.0920  141.0050 O   0  0  0  0  0  1  0  0  0  0  0  0
  182.5900  179.1620  141.2610 F   0  0  0  0  0  0  0  0  0  0  0  0
  185.0630  178.8740  142.0690 P   0  0  0  0  0  0  0  0  0  0  0  0
  186.3270  179.6450  141.2500 O   0  0  0  0  0  0  0  0  0  0  0  0
  185.5870  177.6210  142.7340 O   0  0  0  0  0  1  0  0  0  0  0  0
  184.4580  179.9170  143.2540 O   0  0  0  0  0  1  0  0  0  0  0  0
  2  9  1  0  0  0  0
  2  4  1  0  0  0  0
  2  6  1  1  0  0  0
  3  1  1  6  0  0  0
  3 15  1  0  0  0  0
  3 12  1  0  0  0  0
  4  1  1  1  0  0  0
  4  7  1  0  0  0  0
  7 28  1  1  0  0  0
  9 11  1  0  0  0  0
 10  7  1  0  0  0  0
 10 14  1  0  0  0  0
 11  8  1  0  0  0  0
 12 20  1  6  0  0  0
 13 12  1  0  0  0  0
 13 14  1  0  0  0  0
 15  5  1  6  0  0  0
 15 11  1  0  0  0  0
 17 16  1  1  0  0  0
 17  2  1  0  0  0  0
 18 17  1  0  0  0  0
 20 19  1  1  0  0  0
 21 23  2  0  0  0  0
 22 20  1  0  0  0  0
 22 21  2  0  0  0  0
 24 22  1  0  0  0  0
 26 27  1  0  0  0  0
 27 24  1  0  0  0  0
 27 25  2  0  0  0  0
 28 30  1  0  0  0  0
 30 29  1  6  0  0  0
 30 31  1  0  0  0  0
 31 32  1  1  0  0  0
 31 33  1  0  0  0  0
 31 34  1  0  0  0  0
 34 36  1  0  0  0  0
 34 37  1  0  0  0  0
 35 34  2  0  0  0  0
M  END
>  <MODEL>
4

>  <REMARK>
 VINA RESULT:      -4.1      4.550      8.333
  Name = 
  9 active torsions:
  status: ('A' for Active; 'I' for Inactive)
    1  A    between atoms: C_1  and  P_5
    2  A    between atoms: C_1  and  C_23
    3  A    between atoms: C_6  and  C_8
    4  A    between atoms: C_6  and  C_31
    5  A    between atoms: C_8  and  C_19
    6  A    between atoms: C_9  and  C_30
    7  A    between atoms: C_20  and  O_25
    8  A    between atoms: C_23  and  O_25
    9  A    between atoms: C_29  and  C_31
                            x       y       z     vdW  Elec       q    Type
                         _______ _______ _______ _____ _____    ______ ____

>  <TORSDO>
F 9

$$$$
=
 OpenBabel10272415073D

 37 38  0  0  1  0  0  0  0  0999 V2000
  189.6650  177.4490  137.4650 O   0  0  0  0  0  0  0  0  0  0  0  0
  189.7290  175.9980  135.4360 C   0  0  2  0  0  0  0  0  0  0  0  0
  189.1750  176.5760  138.4430 C   0  0  2  0  0  3  0  0  0  0  0  0
  189.0230  177.1060  136.2590 C   0  0  1  0  0  3  0  0  0  0  0  0
  191.4100  175.8150  138.9510 O   0  0  0  0  0  1  0  0  0  0  0  0
  188.7850  175.1860  134.8020 O   0  0  0  0  0  1  0  0  0  0  0  0
  187.4750  177.2370  136.2160 C   0  0  2  0  0  3  0  0  0  0  0  0
  188.8490  173.8310  137.3000 C   0  0  0  0  0  1  0  0  0  0  0  0
  190.6840  175.1060  136.2810 C   0  0  0  0  0  2  0  0  0  0  0  0
  186.9840  178.4490  137.0280 C   0  0  0  0  0  2  0  0  0  0  0  0
  190.1400  174.4800  137.5030 N   0  0  0  0  0  0  0  0  0  0  0  0
  188.6660  177.3300  139.6880 C   0  0  2  0  0  3  0  0  0  0  0  0
  187.8120  178.5250  139.2370 C   0  0  0  0  0  2  0  0  0  0  0  0
  186.6960  178.0860  138.4130 N   0  0  0  0  0  2  0  0  0  0  0  0
  190.1120  175.3830  138.6610 C   0  0  2  0  0  3  0  0  0  0  0  0
  192.0460  176.4480  134.4750 C   0  0  0  0  0  1  0  0  0  0  0  0
  190.5510  176.7060  134.3460 C   0  0  2  0  0  3  0  0  0  0  0  0
  190.3140  178.0830  134.3480 O   0  0  0  0  0  1  0  0  0  0  0  0
  191.0320  177.6980  139.9840 O   0  0  0  0  0  1  0  0  0  0  0  0
  189.7990  177.7760  140.6360 C   0  0  2  0  0  3  0  0  0  0  0  0
  190.9980  176.8530  142.5630 C   0  0  0  0  0  0  0  0  0  0  0  0
  189.8710  176.9800  141.9100 C   0  0  0  0  0  0  0  0  0  0  0  0
  192.0630  176.7340  143.1820 O   0  0  0  0  0  0  0  0  0  0  0  0
  188.6230  176.3870  142.4760 C   0  0  0  0  0  2  0  0  0  0  0  0
  186.7810  177.9290  142.9540 C   0  0  0  0  0  2  0  0  0  0  0  0
  188.4120  177.6180  144.7420 C   0  0  0  0  0  1  0  0  0  0  0  0
  187.9150  177.3660  143.3580 C   0  0  0  0  0  0  0  0  0  0  0  0
  186.8440  176.0560  136.6370 O   0  0  0  0  0  0  0  0  0  0  0  0
  185.7410  176.3390  134.5260 C   0  0  0  0  0  1  0  0  0  0  0  0
  185.5890  176.0320  136.0100 C   0  0  1  0  0  3  0  0  0  0  0  0
  184.8700  174.6920  136.2500 C   0  0  2  0  0  0  0  0  0  0  0  0
  185.3980  174.0710  137.3830 O   0  0  0  0  0  1  0  0  0  0  0  0
  185.0880  173.8660  135.1640 F   0  0  0  0  0  0  0  0  0  0  0  0
  183.0660  174.8970  136.4660 P   0  0  0  0  0  0  0  0  0  0  0  0
  182.2450  173.6000  135.7540 O   0  0  0  0  0  0  0  0  0  0  0  0
  182.6070  176.1900  135.8300 O   0  0  0  0  0  1  0  0  0  0  0  0
  182.7070  174.9360  138.1180 O   0  0  0  0  0  1  0  0  0  0  0  0
  2  6  1  6  0  0  0
  2  4  1  0  0  0  0
  2  9  1  0  0  0  0
  3  1  1  6  0  0  0
  3 15  1  0  0  0  0
  3 12  1  0  0  0  0
  4  1  1  1  0  0  0
  7  4  1  0  0  0  0
  7 28  1  1  0  0  0
  7 10  1  0  0  0  0
  8 11  1  0  0  0  0
  9 11  1  0  0  0  0
 10 14  1  0  0  0  0
 11 15  1  0  0  0  0
 12 20  1  6  0  0  0
 13 12  1  0  0  0  0
 14 13  1  0  0  0  0
 15  5  1  6  0  0  0
 17 18  1  0  0  0  0
 17 16  1  1  0  0  0
 17  2  1  0  0  0  0
 20 19  1  6  0  0  0
 20 22  1  0  0  0  0
 21 23  2  0  0  0  0
 22 24  1  0  0  0  0
 22 21  2  0  0  0  0
 24 27  1  0  0  0  0
 25 27  2  0  0  0  0
 27 26  1  0  0  0  0
 30 29  1  6  0  0  0
 30 31  1  0  0  0  0
 30 28  1  0  0  0  0
 31 33  1  6  0  0  0
 31 34  1  0  0  0  0
 31 32  1  0  0  0  0
 34 37  1  0  0  0  0
 35 34  2  0  0  0  0
 36 34  1  0  0  0  0
M  END
>  <MODEL>
5

>  <REMARK>
 VINA RESULT:      -4.1      3.329      5.908
  Name = 
  9 active torsions:
  status: ('A' for Active; 'I' for Inactive)
    1  A    between atoms: C_1  and  P_5
    2  A    between atoms: C_1  and  C_23
    3  A    between atoms: C_6  and  C_8
    4  A    between atoms: C_6  and  C_31
    5  A    between atoms: C_8  and  C_19
    6  A    between atoms: C_9  and  C_30
    7  A    between atoms: C_20  and  O_25
    8  A    between atoms: C_23  and  O_25
    9  A    between atoms: C_29  and  C_31
                            x       y       z     vdW  Elec       q    Type
                         _______ _______ _______ _____ _____    ______ ____

>  <TORSDO>
F 9

$$$$
=
 OpenBabel10272415073D

 37 38  0  0  1  0  0  0  0  0999 V2000
  189.6470  177.3590  137.5380 O   0  0  0  0  0  0  0  0  0  0  0  0
  189.5710  176.1370  135.3640 C   0  0  2  0  0  0  0  0  0  0  0  0
  189.0540  176.4460  138.4170 C   0  0  2  0  0  3  0  0  0  0  0  0
  188.9820  177.2210  136.3030 C   0  0  1  0  0  3  0  0  0  0  0  0
  191.1860  175.3930  138.8350 O   0  0  0  0  0  1  0  0  0  0  0  0
  188.5500  175.5070  134.6480 O   0  0  0  0  0  1  0  0  0  0  0  0
  187.4590  177.5260  136.2780 C   0  0  2  0  0  3  0  0  0  0  0  0
  188.4390  173.8930  136.9850 C   0  0  0  0  0  1  0  0  0  0  0  0
  190.4130  175.0590  136.1060 C   0  0  0  0  0  2  0  0  0  0  0  0
  187.0960  178.6900  137.2170 C   0  0  0  0  0  2  0  0  0  0  0  0
  189.7910  174.3690  137.2540 N   0  0  0  0  0  0  0  0  0  0  0  0
  188.6190  177.1130  139.7370 C   0  0  2  0  0  3  0  0  0  0  0  0
  187.9060  178.4370  139.4190 C   0  0  0  0  0  2  0  0  0  0  0  0
  186.7560  178.2150  138.5560 N   0  0  0  0  0  2  0  0  0  0  0  0
  189.8520  175.1410  138.5030 C   0  0  2  0  0  3  0  0  0  0  0  0
  191.9270  176.4070  134.4320 C   0  0  0  0  0  1  0  0  0  0  0  0
  190.4760  176.8630  134.3560 C   0  0  2  0  0  3  0  0  0  0  0  0
  190.4140  178.2480  134.5240 O   0  0  0  0  0  1  0  0  0  0  0  0
  190.4920  176.1370  140.9000 O   0  0  0  0  0  1  0  0  0  0  0  0
  189.7840  177.3280  140.7260 C   0  0  2  0  0  3  0  0  0  0  0  0
  188.1270  177.6500  142.5020 C   0  0  0  0  0  0  0  0  0  0  0  0
  189.3490  177.8370  142.0730 C   0  0  0  0  0  0  0  0  0  0  0  0
  186.9720  177.4720  142.9090 O   0  0  0  0  0  0  0  0  0  0  0  0
  190.3470  178.5010  142.9630 C   0  0  0  0  0  2  0  0  0  0  0  0
  189.8760  178.0190  145.3180 C   0  0  0  0  0  2  0  0  0  0  0  0
  191.4340  176.5080  144.2040 C   0  0  0  0  0  1  0  0  0  0  0  0
  190.5560  177.7140  144.2170 C   0  0  0  0  0  0  0  0  0  0  0  0
  186.6980  176.3830  136.5700 O   0  0  0  0  0  0  0  0  0  0  0  0
  185.3940  176.8030  134.6010 C   0  0  0  0  0  1  0  0  0  0  0  0
  185.3970  176.6470  136.1160 C   0  0  1  0  0  3  0  0  0  0  0  0
  184.4110  175.5620  136.5850 C   0  0  2  0  0  0  0  0  0  0  0  0
  185.0850  174.6130  137.3550 O   0  0  0  0  0  1  0  0  0  0  0  0
  183.8860  174.9250  135.4770 F   0  0  0  0  0  0  0  0  0  0  0  0
  183.0280  176.2520  137.5630 P   0  0  0  0  0  0  0  0  0  0  0  0
  183.2230  177.9220  137.7490 O   0  0  0  0  0  1  0  0  0  0  0  0
  182.9760  175.5990  138.9260 O   0  0  0  0  0  1  0  0  0  0  0  0
  181.5740  175.9540  136.7520 O   0  0  0  0  0  0  0  0  0  0  0  0
  2  6  1  6  0  0  0
  2  9  1  0  0  0  0
  2  4  1  0  0  0  0
  3  1  1  1  0  0  0
  3 15  1  0  0  0  0
  3 12  1  0  0  0  0
  4  1  1  1  0  0  0
  7  4  1  0  0  0  0
  7 28  1  1  0  0  0
  7 10  1  0  0  0  0
  8 11  1  0  0  0  0
  9 11  1  0  0  0  0
 10 14  1  0  0  0  0
 11 15  1  0  0  0  0
 12 20  1  1  0  0  0
 13 12  1  0  0  0  0
 14 13  1  0  0  0  0
 15  5  1  6  0  0  0
 17 16  1  1  0  0  0
 17 18  1  0  0  0  0
 17  2  1  0  0  0  0
 20 19  1  1  0  0  0
 20 22  1  0  0  0  0
 21 23  2  0  0  0  0
 22 21  2  0  0  0  0
 22 24  1  0  0  0  0
 24 27  1  0  0  0  0
 26 27  1  0  0  0  0
 27 25  2  0  0  0  0
 30 29  1  6  0  0  0
 30 28  1  0  0  0  0
 30 31  1  0  0  0  0
 31 33  1  6  0  0  0
 31 32  1  0  0  0  0
 31 34  1  0  0  0  0
 34 35  1  0  0  0  0
 34 36  1  0  0  0  0
 37 34  2  0  0  0  0
M  END
>  <MODEL>
6

>  <REMARK>
 VINA RESULT:      -3.9      3.456      6.156
  Name = 
  9 active torsions:
  status: ('A' for Active; 'I' for Inactive)
    1  A    between atoms: C_1  and  P_5
    2  A    between atoms: C_1  and  C_23
    3  A    between atoms: C_6  and  C_8
    4  A    between atoms: C_6  and  C_31
    5  A    between atoms: C_8  and  C_19
    6  A    between atoms: C_9  and  C_30
    7  A    between atoms: C_20  and  O_25
    8  A    between atoms: C_23  and  O_25
    9  A    between atoms: C_29  and  C_31
                            x       y       z     vdW  Elec       q    Type
                         _______ _______ _______ _____ _____    ______ ____

>  <TORSDO>
F 9

$$$$
=
 OpenBabel10272415073D

 37 38  0  0  1  0  0  0  0  0999 V2000
  188.1550  176.1010  137.1080 O   0  0  0  0  0  0  0  0  0  0  0  0
  186.0750  177.4610  137.3370 C   0  0  2  0  0  0  0  0  0  0  0  0
  188.2630  175.9510  135.7200 C   0  0  2  0  0  3  0  0  0  0  0  0
  186.7780  176.0810  137.4090 C   0  0  1  0  0  3  0  0  0  0  0  0
  189.4950  178.0210  135.5480 O   0  0  0  0  0  1  0  0  0  0  0  0
  184.7730  177.3200  136.8530 O   0  0  0  0  0  1  0  0  0  0  0  0
  185.9910  174.7890  137.0510 C   0  0  2  0  0  3  0  0  0  0  0  0
  186.1030  177.4980  134.3470 C   0  0  0  0  0  1  0  0  0  0  0  0
  186.8340  178.5030  136.4650 C   0  0  0  0  0  2  0  0  0  0  0  0
  186.8410  173.5260  137.2720 C   0  0  0  0  0  2  0  0  0  0  0  0
  187.1990  178.1130  135.0880 N   0  0  0  0  0  0  0  0  0  0  0  0
  189.2370  174.8190  135.3360 C   0  0  2  0  0  3  0  0  0  0  0  0
  188.9510  173.5910  136.2140 C   0  0  0  0  0  2  0  0  0  0  0  0
  187.5720  173.1530  136.0620 N   0  0  0  0  0  2  0  0  0  0  0  0
  188.4210  177.3020  135.0150 C   0  0  2  0  0  3  0  0  0  0  0  0
  184.7660  178.8720  139.0080 C   0  0  0  0  0  1  0  0  0  0  0  0
  185.9880  177.9930  138.7770 C   0  0  2  0  0  3  0  0  0  0  0  0
  187.1420  178.6990  139.1280 O   0  0  0  0  0  1  0  0  0  0  0  0
  191.4380  174.6800  134.3590 O   0  0  0  0  0  1  0  0  0  0  0  0
  190.7210  175.2350  135.4210 C   0  0  2  0  0  3  0  0  0  0  0  0
  191.2100  175.5470  137.8020 C   0  0  0  0  0  0  0  0  0  0  0  0
  191.3860  174.8440  136.7130 C   0  0  0  0  0  0  0  0  0  0  0  0
  191.0440  176.2130  138.8320 O   0  0  0  0  0  0  0  0  0  0  0  0
  192.1970  173.5920  136.7700 C   0  0  0  0  0  2  0  0  0  0  0  0
  194.3080  174.5120  137.6060 C   0  0  0  0  0  2  0  0  0  0  0  0
  194.4110  173.3800  135.4470 C   0  0  0  0  0  1  0  0  0  0  0  0
  193.6560  173.8900  136.6280 C   0  0  0  0  0  0  0  0  0  0  0  0
  185.4840  174.8390  135.7430 O   0  0  0  0  0  0  0  0  0  0  0  0
  183.2610  175.5900  135.2460 C   0  0  0  0  0  1  0  0  0  0  0  0
  184.1290  174.4830  135.8300 C   0  0  1  0  0  3  0  0  0  0  0  0
  183.8630  173.1260  135.1560 C   0  0  2  0  0  0  0  0  0  0  0  0
  184.9470  172.7810  134.3460 O   0  0  0  0  0  1  0  0  0  0  0  0
  182.7430  173.2360  134.3530 F   0  0  0  0  0  0  0  0  0  0  0  0
  183.5740  171.7880  136.3690 P   0  0  0  0  0  0  0  0  0  0  0  0
  184.4200  170.3960  135.9110 O   0  0  0  0  0  0  0  0  0  0  0  0
  182.0990  171.4720  136.4550 O   0  0  0  0  0  1  0  0  0  0  0  0
  184.1220  172.2910  137.8870 O   0  0  0  0  0  1  0  0  0  0  0  0
  2  6  1  6  0  0  0
  2  4  1  0  0  0  0
  2 17  1  0  0  0  0
  3  1  1  1  0  0  0
  4  1  1  6  0  0  0
  7 28  1  6  0  0  0
  7 10  1  0  0  0  0
  7  4  1  0  0  0  0
  8 11  1  0  0  0  0
  9  2  1  0  0  0  0
 11  9  1  0  0  0  0
 12 20  1  1  0  0  0
 12  3  1  0  0  0  0
 12 13  1  0  0  0  0
 14 13  1  0  0  0  0
 14 10  1  0  0  0  0
 15 11  1  0  0  0  0
 15  5  1  1  0  0  0
 15  3  1  0  0  0  0
 17 16  1  6  0  0  0
 17 18  1  0  0  0  0
 20 19  1  6  0  0  0
 20 22  1  0  0  0  0
 21 23  2  0  0  0  0
 22 24  1  0  0  0  0
 22 21  2  0  0  0  0
 26 27  1  0  0  0  0
 27 24  1  0  0  0  0
 27 25  2  0  0  0  0
 28 30  1  0  0  0  0
 30 29  1  6  0  0  0
 31 32  1  6  0  0  0
 31 30  1  0  0  0  0
 31 34  1  0  0  0  0
 33 31  1  0  0  0  0
 34 36  1  0  0  0  0
 34 37  1  0  0  0  0
 35 34  2  0  0  0  0
M  END
>  <MODEL>
7

>  <REMARK>
 VINA RESULT:      -3.6      4.217      7.485
  Name = 
  9 active torsions:
  status: ('A' for Active; 'I' for Inactive)
    1  A    between atoms: C_1  and  P_5
    2  A    between atoms: C_1  and  C_23
    3  A    between atoms: C_6  and  C_8
    4  A    between atoms: C_6  and  C_31
    5  A    between atoms: C_8  and  C_19
    6  A    between atoms: C_9  and  C_30
    7  A    between atoms: C_20  and  O_25
    8  A    between atoms: C_23  and  O_25
    9  A    between atoms: C_29  and  C_31
                            x       y       z     vdW  Elec       q    Type
                         _______ _______ _______ _____ _____    ______ ____

>  <TORSDO>
F 9

$$$$
=
 OpenBabel10272415073D

 37 38  0  0  1  0  0  0  0  0999 V2000
  185.0930  176.2540  137.9700 O   0  0  0  0  0  0  0  0  0  0  0  0
  185.2820  174.5440  136.1630 C   0  0  2  0  0  0  0  0  0  0  0  0
  185.3180  177.4490  137.2770 C   0  0  2  0  0  3  0  0  0  0  0  0
  185.9160  175.2790  137.3720 C   0  0  1  0  0  3  0  0  0  0  0  0
  182.9710  177.6320  136.7390 O   0  0  0  0  0  1  0  0  0  0  0  0
  186.2540  174.2630  135.2000 O   0  0  0  0  0  1  0  0  0  0  0  0
  187.4510  175.5210  137.4160 C   0  0  2  0  0  3  0  0  0  0  0  0
  185.6140  176.9000  134.3520 C   0  0  0  0  0  1  0  0  0  0  0  0
  184.1150  175.3280  135.4980 C   0  0  0  0  0  2  0  0  0  0  0  0
  187.8850  176.1850  138.7340 C   0  0  0  0  0  2  0  0  0  0  0  0
  184.3680  176.7250  135.0910 N   0  0  0  0  0  0  0  0  0  0  0  0
  185.6500  178.6150  138.2290 C   0  0  2  0  0  3  0  0  0  0  0  0
  186.6720  178.1370  139.2720 C   0  0  0  0  0  2  0  0  0  0  0  0
  187.8800  177.6420  138.6290 N   0  0  0  0  0  2  0  0  0  0  0  0
  184.2580  177.6860  136.1960 C   0  0  2  0  0  3  0  0  0  0  0  0
  183.2200  173.1220  136.6340 C   0  0  0  0  0  1  0  0  0  0  0  0
  184.7400  173.2050  136.6900 C   0  0  2  0  0  3  0  0  0  0  0  0
  185.1720  172.9620  137.9960 O   0  0  0  0  0  1  0  0  0  0  0  0
  184.4730  180.6210  138.8710 O   0  0  0  0  0  1  0  0  0  0  0  0
  184.4040  179.2260  138.9040 C   0  0  2  0  0  3  0  0  0  0  0  0
  183.4290  177.7730  140.6210 C   0  0  0  0  0  0  0  0  0  0  0  0
  184.2090  178.7830  140.3290 C   0  0  0  0  0  0  0  0  0  0  0  0
  182.6930  176.8180  140.8960 O   0  0  0  0  0  0  0  0  0  0  0  0
  184.9760  179.4580  141.4170 C   0  0  0  0  0  2  0  0  0  0  0  0
  184.1510  178.4290  143.4820 C   0  0  0  0  0  2  0  0  0  0  0  0
  186.3550  177.7040  142.7280 C   0  0  0  0  0  1  0  0  0  0  0  0
  185.1380  178.5560  142.6000 C   0  0  0  0  0  0  0  0  0  0  0  0
  187.8890  176.2610  136.3070 O   0  0  0  0  0  0  0  0  0  0  0  0
  188.9190  175.2520  134.3890 C   0  0  0  0  0  1  0  0  0  0  0  0
  189.0640  175.6400  135.8550 C   0  0  1  0  0  3  0  0  0  0  0  0
  190.2950  176.5310  136.0960 C   0  0  2  0  0  0  0  0  0  0  0  0
  189.9020  177.7230  136.7050 O   0  0  0  0  0  1  0  0  0  0  0  0
  190.8710  176.8380  134.8770 F   0  0  0  0  0  0  0  0  0  0  0  0
  191.5550  175.7140  137.1390 P   0  0  0  0  0  0  0  0  0  0  0  0
  190.8970  174.3420  137.8780 O   0  0  0  0  0  1  0  0  0  0  0  0
  192.0510  176.6670  138.2030 O   0  0  0  0  0  1  0  0  0  0  0  0
  192.8570  175.2440  136.1680 O   0  0  0  0  0  0  0  0  0  0  0  0
  2  6  1  6  0  0  0
  2 17  1  0  0  0  0
  2  4  1  0  0  0  0
  3  1  1  1  0  0  0
  3 12  1  0  0  0  0
  4  7  1  0  0  0  0
  4  1  1  6  0  0  0
  7 28  1  6  0  0  0
  7 10  1  0  0  0  0
  8 11  1  0  0  0  0
  9  2  1  0  0  0  0
 11  9  1  0  0  0  0
 11 15  1  0  0  0  0
 12 20  1  1  0  0  0
 12 13  1  0  0  0  0
 14 10  1  0  0  0  0
 14 13  1  0  0  0  0
 15  5  1  1  0  0  0
 15  3  1  0  0  0  0
 17 16  1  1  0  0  0
 17 18  1  0  0  0  0
 20 19  1  1  0  0  0
 20 22  1  0  0  0  0
 21 23  2  0  0  0  0
 22 21  2  0  0  0  0
 22 24  1  0  0  0  0
 24 27  1  0  0  0  0
 27 26  1  0  0  0  0
 27 25  2  0  0  0  0
 30 29  1  6  0  0  0
 30 31  1  0  0  0  0
 30 28  1  0  0  0  0
 31 33  1  6  0  0  0
 31 32  1  0  0  0  0
 31 34  1  0  0  0  0
 34 35  1  0  0  0  0
 34 36  1  0  0  0  0
 37 34  2  0  0  0  0
M  END
>  <MODEL>
8

>  <REMARK>
 VINA RESULT:      -3.5      2.639      3.960
  Name = 
  9 active torsions:
  status: ('A' for Active; 'I' for Inactive)
    1  A    between atoms: C_1  and  P_5
    2  A    between atoms: C_1  and  C_23
    3  A    between atoms: C_6  and  C_8
    4  A    between atoms: C_6  and  C_31
    5  A    between atoms: C_8  and  C_19
    6  A    between atoms: C_9  and  C_30
    7  A    between atoms: C_20  and  O_25
    8  A    between atoms: C_23  and  O_25
    9  A    between atoms: C_29  and  C_31
                            x       y       z     vdW  Elec       q    Type
                         _______ _______ _______ _____ _____    ______ ____

>  <TORSDO>
F 9

$$$$
=
 OpenBabel10272415073D

 37 38  0  0  1  0  0  0  0  0999 V2000
  188.8200  176.1460  137.3030 O   0  0  0  0  0  0  0  0  0  0  0  0
  186.9260  177.7580  137.5000 C   0  0  2  0  0  0  0  0  0  0  0  0
  188.8390  175.8720  135.9310 C   0  0  2  0  0  3  0  0  0  0  0  0
  187.4680  176.3150  137.6620 C   0  0  1  0  0  3  0  0  0  0  0  0
  190.2900  177.7600  135.5260 O   0  0  0  0  0  1  0  0  0  0  0  0
  185.5920  177.7340  137.0860 O   0  0  0  0  0  1  0  0  0  0  0  0
  186.5210  175.1010  137.4530 C   0  0  2  0  0  3  0  0  0  0  0  0
  186.8020  177.5470  134.5200 C   0  0  0  0  0  1  0  0  0  0  0  0
  187.7530  178.6280  136.5100 C   0  0  0  0  0  2  0  0  0  0  0  0
  187.2300  173.7680  137.7460 C   0  0  0  0  0  2  0  0  0  0  0  0
  187.9980  178.0860  135.1580 N   0  0  0  0  0  0  0  0  0  0  0  0
  189.6540  174.6040  135.6060 C   0  0  2  0  0  3  0  0  0  0  0  0
  189.2750  173.4950  136.5990 C   0  0  0  0  0  2  0  0  0  0  0  0
  187.8480  173.2130  136.5440 N   0  0  0  0  0  2  0  0  0  0  0  0
  189.1140  177.1320  135.1040 C   0  0  2  0  0  3  0  0  0  0  0  0
  187.8910  177.6740  139.8580 C   0  0  0  0  0  1  0  0  0  0  0  0
  186.9760  178.4130  138.8910 C   0  0  2  0  0  3  0  0  0  0  0  0
  185.6980  178.5180  139.4480 O   0  0  0  0  0  1  0  0  0  0  0  0
  191.7130  174.4780  134.3550 O   0  0  0  0  0  1  0  0  0  0  0  0
  191.1790  174.8460  135.5920 C   0  0  2  0  0  3  0  0  0  0  0  0
  192.5840  173.0170  136.4210 C   0  0  0  0  0  0  0  0  0  0  0  0
  191.9170  174.1140  136.6780 C   0  0  0  0  0  0  0  0  0  0  0  0
  193.2140  171.9810  136.1760 O   0  0  0  0  0  0  0  0  0  0  0  0
  191.9520  174.6870  138.0560 C   0  0  0  0  0  2  0  0  0  0  0  0
  191.6840  177.0160  138.7680 C   0  0  0  0  0  2  0  0  0  0  0  0
  193.5550  176.5600  137.2700 C   0  0  0  0  0  1  0  0  0  0  0  0
  192.3450  176.1300  138.0290 C   0  0  0  0  0  0  0  0  0  0  0  0
  185.9550  175.1030  136.1680 O   0  0  0  0  0  0  0  0  0  0  0  0
  183.5970  175.5190  136.3170 C   0  0  0  0  0  1  0  0  0  0  0  0
  184.7050  174.4750  136.2840 C   0  0  1  0  0  3  0  0  0  0  0  0
  184.4920  173.4440  135.1620 C   0  0  2  0  0  0  0  0  0  0  0  0
  185.6490  173.3440  134.3880 O   0  0  0  0  0  1  0  0  0  0  0  0
  183.4630  173.8760  134.3460 F   0  0  0  0  0  0  0  0  0  0  0  0
  184.0590  171.7890  135.8070 P   0  0  0  0  0  0  0  0  0  0  0  0
  185.4080  170.7690  135.7420 O   0  0  0  0  0  1  0  0  0  0  0  0
  182.9370  171.1870  134.9920 O   0  0  0  0  0  0  0  0  0  0  0  0
  183.5580  171.9360  137.4150 O   0  0  0  0  0  1  0  0  0  0  0  0
  2  6  1  6  0  0  0
  2  4  1  0  0  0  0
  2 17  1  0  0  0  0
  3  1  1  1  0  0  0
  4  1  1  6  0  0  0
  7 28  1  6  0  0  0
  7  4  1  0  0  0  0
  7 10  1  0  0  0  0
  8 11  1  0  0  0  0
  9  2  1  0  0  0  0
 11  9  1  0  0  0  0
 12 20  1  1  0  0  0
 12  3  1  0  0  0  0
 12 13  1  0  0  0  0
 14 13  1  0  0  0  0
 14 10  1  0  0  0  0
 15 11  1  0  0  0  0
 15  5  1  1  0  0  0
 15  3  1  0  0  0  0
 17 18  1  0  0  0  0
 17 16  1  1  0  0  0
 20 19  1  6  0  0  0
 20 22  1  0  0  0  0
 21 22  2  0  0  0  0
 22 24  1  0  0  0  0
 23 21  2  0  0  0  0
 26 27  1  0  0  0  0
 27 24  1  0  0  0  0
 27 25  2  0  0  0  0
 28 30  1  0  0  0  0
 30 29  1  6  0  0  0
 31 33  1  6  0  0  0
 31 34  1  0  0  0  0
 31 30  1  0  0  0  0
 32 31  1  0  0  0  0
 34 37  1  0  0  0  0
 35 34  1  0  0  0  0
 36 34  2  0  0  0  0
M  END
>  <MODEL>
9

>  <REMARK>
 VINA RESULT:      -3.3      3.777      7.186
  Name = 
  9 active torsions:
  status: ('A' for Active; 'I' for Inactive)
    1  A    between atoms: C_1  and  P_5
    2  A    between atoms: C_1  and  C_23
    3  A    between atoms: C_6  and  C_8
    4  A    between atoms: C_6  and  C_31
    5  A    between atoms: C_8  and  C_19
    6  A    between atoms: C_9  and  C_30
    7  A    between atoms: C_20  and  O_25
    8  A    between atoms: C_23  and  O_25
    9  A    between atoms: C_29  and  C_31
                            x       y       z     vdW  Elec       q    Type
                         _______ _______ _______ _____ _____    ______ ____

>  <TORSDO>
F 9

$$$$
