=
 OpenBabel10272401033D

 27 31  0  0  1  0  0  0  0  0999 V2000
  184.8240  179.5910  139.9740 N   0  0  0  0  0  2  0  0  0  0  0  0
  184.5550  178.8510  142.3510 C   0  0  0  0  0  0  0  0  0  0  0  0
  186.9100  178.2930  141.5290 N   0  0  0  0  0  0  0  0  0  0  0  0
  185.8480  178.0220  146.2750 C   0  0  0  0  0  3  0  0  0  0  0  0
  187.5610  177.3390  147.7820 F   0  0  0  0  0  0  0  0  0  0  0  0
  183.7000  178.9910  143.4520 C   0  0  0  0  0  3  0  0  0  0  0  0
  187.6370  177.7240  144.1480 C   0  0  0  0  0  3  0  0  0  0  0  0
  188.0740  178.1410  138.0740 C   0  0  0  0  0  0  0  0  0  0  0  0
  188.0510  177.4530  145.4540 C   0  0  0  0  0  3  0  0  0  0  0  0
  189.2120  177.9820  137.4170 C   0  0  0  0  0  2  0  0  0  0  0  0
  186.3230  178.1460  143.8850 C   0  0  0  0  0  0  0  0  0  0  0  0
  183.9070  179.1700  141.0260 C   0  0  2  0  0  3  0  0  0  0  0  0
  187.1580  177.6010  146.5170 C   0  0  0  0  0  0  0  0  0  0  0  0
  185.4270  178.2940  144.9700 C   0  0  0  0  0  0  0  0  0  0  0  0
  185.5460  178.4300  139.4970 C   0  0  1  0  0  3  0  0  0  0  0  0
  185.9020  178.4190  142.5600 C   0  0  0  0  0  0  0  0  0  0  0  0
  188.0640  178.1380  139.4990 N   0  0  0  0  0  2  0  0  0  0  0  0
  184.1250  178.7170  144.7460 C   0  0  0  0  0  3  0  0  0  0  0  0
  186.8280  178.3600  137.3430 C   0  0  0  0  0  3  0  0  0  0  0  0
  185.6750  178.5040  137.9960 C   0  0  0  0  0  3  0  0  0  0  0  0
  186.8480  178.3100  140.2320 C   0  0  0  0  0  0  0  0  0  0  0  0
  180.9120  176.4130  139.6940 C   0  0  0  0  0  3  0  0  0  0  0  0
  182.8720  178.1740  140.5690 C   0  0  0  0  0  0  0  0  0  0  0  0
  183.2280  176.8860  140.1480 C   0  0  0  0  0  3  0  0  0  0  0  0
  182.2450  175.9990  139.7100 C   0  0  0  0  0  3  0  0  0  0  0  0
  180.5830  177.6700  140.1000 N   0  0  0  0  0  0  0  0  0  0  0  0
  181.5270  178.5490  140.5300 C   0  0  0  0  0  3  0  0  0  0  0  0
  1 12  1  0  0  0  0
  2 16  2  0  0  0  0
  2  6  1  0  0  0  0
  3 16  1  0  0  0  0
  4 13  1  0  0  0  0
  6 18  2  0  0  0  0
  7  9  1  0  0  0  0
  8 17  1  0  0  0  0
  9 13  2  0  0  0  0
 10  8  2  0  0  0  0
 11  7  2  0  0  0  0
 11 14  1  0  0  0  0
 12 23  1  6  0  0  0
 12  2  1  0  0  0  0
 13  5  1  0  0  0  0
 14  4  2  0  0  0  0
 15 20  1  6  0  0  0
 15  1  1  0  0  0  0
 15 21  1  0  0  0  0
 16 11  1  0  0  0  0
 17 21  1  0  0  0  0
 18 14  1  0  0  0  0
 19 20  2  0  0  0  0
 19  8  1  0  0  0  0
 21  3  2  0  0  0  0
 22 25  2  0  0  0  0
 22 26  1  0  0  0  0
 24 23  2  0  0  0  0
 25 24  1  0  0  0  0
 26 27  2  0  0  0  0
 27 23  1  0  0  0  0
M  END
>  <MODEL>
1

>  <REMARK>
 VINA RESULT:      -9.9      0.000      0.000
  Name = 
  1 active torsions:
  status: ('A' for Active; 'I' for Inactive)
    1  A    between atoms: C_9  and  C_15
                            x       y       z     vdW  Elec       q    Type
                         _______ _______ _______ _____ _____    ______ ____

>  <TORSDO>
F 1

$$$$
=
 OpenBabel10272401033D

 27 31  0  0  1  0  0  0  0  0999 V2000
  189.7350  178.6870  144.1600 N   0  0  0  0  0  2  0  0  0  0  0  0
  190.8330  177.7000  142.1380 C   0  0  0  0  0  0  0  0  0  0  0  0
  188.2960  177.7140  141.8290 N   0  0  0  0  0  0  0  0  0  0  0  0
  191.2170  176.8100  138.0370 C   0  0  0  0  0  3  0  0  0  0  0  0
  190.2200  176.3640  135.9200 F   0  0  0  0  0  0  0  0  0  0  0  0
  192.0870  177.5630  141.5300 C   0  0  0  0  0  3  0  0  0  0  0  0
  188.6670  177.0770  139.1520 C   0  0  0  0  0  3  0  0  0  0  0  0
  185.7490  178.1120  144.4120 C   0  0  0  0  0  0  0  0  0  0  0  0
  188.8100  176.7820  137.7930 C   0  0  0  0  0  3  0  0  0  0  0  0
  184.4360  178.2500  144.4970 C   0  0  0  0  0  1  0  0  0  0  0  0
  189.7950  177.2410  139.9730 C   0  0  0  0  0  0  0  0  0  0  0  0
  190.8960  177.9950  143.6160 C   0  0  2  0  0  3  0  0  0  0  0  0
  190.0830  176.6480  137.2370 C   0  0  0  0  0  0  0  0  0  0  0  0
  191.0800  177.1050  139.3970 C   0  0  0  0  0  0  0  0  0  0  0  0
  188.6380  177.7460  144.2560 C   0  0  1  0  0  3  0  0  0  0  0  0
  189.6500  177.5380  141.3500 C   0  0  0  0  0  0  0  0  0  0  0  0
  186.3740  177.9800  143.1380 N   0  0  0  0  0  0  0  0  0  0  0  0
  192.2150  177.2680  140.1780 C   0  0  0  0  0  3  0  0  0  0  0  0
  186.5710  178.1340  145.6210 C   0  0  0  0  0  3  0  0  0  0  0  0
  187.8920  177.9780  145.5460 C   0  0  0  0  0  3  0  0  0  0  0  0
  187.7920  177.8330  143.0200 C   0  0  0  0  0  0  0  0  0  0  0  0
  192.3220  174.7140  145.9730 C   0  0  0  0  0  3  0  0  0  0  0  0
  191.3790  176.8520  144.4720 C   0  0  0  0  0  0  0  0  0  0  0  0
  191.5410  176.9880  145.8570 C   0  0  0  0  0  3  0  0  0  0  0  0
  192.0120  175.9150  146.6140 C   0  0  0  0  0  3  0  0  0  0  0  0
  192.1670  174.6000  144.6260 N   0  0  0  0  0  0  0  0  0  0  0  0
  191.7090  175.6340  143.8710 C   0  0  0  0  0  3  0  0  0  0  0  0
  1 15  1  0  0  0  0
  2 12  1  0  0  0  0
  3 21  2  0  0  0  0
  4 14  1  0  0  0  0
  5 13  1  0  0  0  0
  6  2  1  0  0  0  0
  7 11  1  0  0  0  0
  8 10  1  0  0  0  0
  8 19  1  0  0  0  0
  9  7  2  0  0  0  0
 11 16  1  0  0  0  0
 12  1  1  0  0  0  0
 12 23  1  1  0  0  0
 13  9  1  0  0  0  0
 13  4  2  0  0  0  0
 14 11  2  0  0  0  0
 14 18  1  0  0  0  0
 15 20  1  1  0  0  0
 16  3  1  0  0  0  0
 16  2  2  0  0  0  0
 17  8  2  0  0  0  0
 18  6  2  0  0  0  0
 20 19  2  0  0  0  0
 21 17  1  0  0  0  0
 21 15  1  0  0  0  0
 22 25  1  0  0  0  0
 23 24  1  0  0  0  0
 24 25  2  0  0  0  0
 26 22  2  0  0  0  0
 27 23  2  0  0  0  0
 27 26  1  0  0  0  0
M  END
>  <MODEL>
2

>  <REMARK>
 VINA RESULT:      -9.1      3.947      8.489
  Name = 
  1 active torsions:
  status: ('A' for Active; 'I' for Inactive)
    1  A    between atoms: C_9  and  C_15
                            x       y       z     vdW  Elec       q    Type
                         _______ _______ _______ _____ _____    ______ ____

>  <TORSDO>
F 1

$$$$
=
 OpenBabel10272401033D

 27 31  0  0  1  0  0  0  0  0999 V2000
  189.0580  176.5020  141.6500 N   0  0  0  0  0  2  0  0  0  0  0  0
  187.5180  177.2950  143.4580 C   0  0  0  0  0  0  0  0  0  0  0  0
  186.7080  178.1510  141.1900 N   0  0  0  0  0  0  0  0  0  0  0  0
  183.8170  178.4650  145.0980 C   0  0  0  0  0  3  0  0  0  0  0  0
  181.6640  179.4500  144.8380 F   0  0  0  0  0  0  0  0  0  0  0  0
  187.2110  177.0800  144.8080 C   0  0  0  0  0  3  0  0  0  0  0  0
  184.3260  178.9280  142.3880 C   0  0  0  0  0  3  0  0  0  0  0  0
  188.6060  178.3240  138.0780 C   0  0  0  0  0  0  0  0  0  0  0  0
  183.1030  179.3100  142.9460 C   0  0  0  0  0  3  0  0  0  0  0  0
  188.3980  178.6180  136.8050 C   0  0  0  0  0  2  0  0  0  0  0  0
  185.3120  178.3100  143.1760 C   0  0  0  0  0  0  0  0  0  0  0  0
  188.8970  176.8310  143.0610 C   0  0  2  0  0  3  0  0  0  0  0  0
  182.8490  179.0800  144.2990 C   0  0  0  0  0  0  0  0  0  0  0  0
  185.0420  178.0810  144.5460 C   0  0  0  0  0  0  0  0  0  0  0  0
  189.1040  177.7350  140.8900 C   0  0  1  0  0  3  0  0  0  0  0  0
  186.5520  177.9240  142.6110 C   0  0  0  0  0  0  0  0  0  0  0  0
  187.5310  178.3860  139.0120 N   0  0  0  0  0  2  0  0  0  0  0  0
  185.9910  177.4660  145.3490 C   0  0  0  0  0  3  0  0  0  0  0  0
  189.9290  177.8980  138.5280 C   0  0  0  0  0  3  0  0  0  0  0  0
  190.1530  177.6170  139.8110 C   0  0  0  0  0  3  0  0  0  0  0  0
  187.7290  178.0710  140.3930 C   0  0  0  0  0  0  0  0  0  0  0  0
  192.1740  179.0740  144.6670 C   0  0  0  0  0  3  0  0  0  0  0  0
  190.0300  177.6470  143.6280 C   0  0  0  0  0  0  0  0  0  0  0  0
  190.1330  179.0250  143.3930 C   0  0  0  0  0  3  0  0  0  0  0  0
  191.2070  179.7440  143.9150 C   0  0  0  0  0  3  0  0  0  0  0  0
  192.0640  177.7340  144.8810 N   0  0  0  0  0  0  0  0  0  0  0  0
  191.0240  177.0160  144.3800 C   0  0  0  0  0  3  0  0  0  0  0  0
  1 12  1  0  0  0  0
  2  6  1  0  0  0  0
  3 16  1  0  0  0  0
  6 18  2  0  0  0  0
  7  9  2  0  0  0  0
  7 11  1  0  0  0  0
  8 19  1  0  0  0  0
  8 17  1  0  0  0  0
  9 13  1  0  0  0  0
 10  8  2  0  0  0  0
 11 14  2  0  0  0  0
 12  2  1  0  0  0  0
 12 23  1  6  0  0  0
 13  5  1  0  0  0  0
 13  4  2  0  0  0  0
 14  4  1  0  0  0  0
 14 18  1  0  0  0  0
 15 20  1  6  0  0  0
 15  1  1  0  0  0  0
 16 11  1  0  0  0  0
 16  2  2  0  0  0  0
 17 21  1  0  0  0  0
 19 20  2  0  0  0  0
 21 15  1  0  0  0  0
 21  3  2  0  0  0  0
 22 26  1  0  0  0  0
 23 27  1  0  0  0  0
 24 23  2  0  0  0  0
 24 25  1  0  0  0  0
 25 22  2  0  0  0  0
 27 26  2  0  0  0  0
M  END
>  <MODEL>
3

>  <REMARK>
 VINA RESULT:      -8.4      2.685      5.907
  Name = 
  1 active torsions:
  status: ('A' for Active; 'I' for Inactive)
    1  A    between atoms: C_9  and  C_15
                            x       y       z     vdW  Elec       q    Type
                         _______ _______ _______ _____ _____    ______ ____

>  <TORSDO>
F 1

$$$$
=
 OpenBabel10272401033D

 27 31  0  0  1  0  0  0  0  0999 V2000
  189.7140  178.0920  137.5230 N   0  0  0  0  0  2  0  0  0  0  0  0
  188.5600  177.8990  139.7370 C   0  0  0  0  0  0  0  0  0  0  0  0
  190.8080  176.6840  139.8190 N   0  0  0  0  0  0  0  0  0  0  0  0
  188.3520  177.5680  143.9320 C   0  0  0  0  0  3  0  0  0  0  0  0
  189.2870  176.8220  145.9920 F   0  0  0  0  0  0  0  0  0  0  0  0
  187.4890  178.4330  140.4640 C   0  0  0  0  0  3  0  0  0  0  0  0
  190.5410  176.4790  142.5760 C   0  0  0  0  0  3  0  0  0  0  0  0
  192.8590  175.6200  136.9950 C   0  0  0  0  0  0  0  0  0  0  0  0
  190.4580  176.3780  143.9670 C   0  0  0  0  0  3  0  0  0  0  0  0
  194.0520  175.0900  136.7800 C   0  0  0  0  0  2  0  0  0  0  0  0
  189.5310  177.1250  141.8420 C   0  0  0  0  0  0  0  0  0  0  0  0
  188.4480  178.0940  138.2450 C   0  0  2  0  0  3  0  0  0  0  0  0
  189.3650  176.9210  144.6440 C   0  0  0  0  0  0  0  0  0  0  0  0
  188.4290  177.6730  142.5400 C   0  0  0  0  0  0  0  0  0  0  0  0
  190.2010  176.7300  137.4450 C   0  0  1  0  0  3  0  0  0  0  0  0
  189.6140  177.2260  140.4320 C   0  0  0  0  0  0  0  0  0  0  0  0
  192.4260  175.8920  138.3250 N   0  0  0  0  0  2  0  0  0  0  0  0
  187.4190  178.3230  141.8470 C   0  0  0  0  0  3  0  0  0  0  0  0
  191.9950  175.9670  135.8690 C   0  0  0  0  0  3  0  0  0  0  0  0
  190.7850  176.4860  136.0760 C   0  0  0  0  0  3  0  0  0  0  0  0
  191.1420  176.4670  138.5830 C   0  0  0  0  0  0  0  0  0  0  0  0
  185.3610  175.8650  136.2830 C   0  0  0  0  0  3  0  0  0  0  0  0
  187.3660  177.2850  137.5780 C   0  0  0  0  0  0  0  0  0  0  0  0
  187.3860  175.8840  137.5840 C   0  0  0  0  0  3  0  0  0  0  0  0
  186.3790  175.1680  136.9370 C   0  0  0  0  0  3  0  0  0  0  0  0
  185.3590  177.2260  136.2800 N   0  0  0  0  0  0  0  0  0  0  0  0
  186.3320  177.9410  136.9060 C   0  0  0  0  0  3  0  0  0  0  0  0
  1 12  1  0  0  0  0
  2 16  2  0  0  0  0
  2  6  1  0  0  0  0
  3 16  1  0  0  0  0
  4 13  1  0  0  0  0
  6 18  2  0  0  0  0
  7  9  1  0  0  0  0
  8 17  1  0  0  0  0
  9 13  2  0  0  0  0
 10  8  2  0  0  0  0
 11 14  1  0  0  0  0
 11  7  2  0  0  0  0
 12 23  1  6  0  0  0
 12  2  1  0  0  0  0
 13  5  1  0  0  0  0
 14  4  2  0  0  0  0
 15 20  1  6  0  0  0
 15  1  1  0  0  0  0
 15 21  1  0  0  0  0
 16 11  1  0  0  0  0
 17 21  1  0  0  0  0
 18 14  1  0  0  0  0
 19 20  2  0  0  0  0
 19  8  1  0  0  0  0
 21  3  2  0  0  0  0
 22 25  1  0  0  0  0
 23 24  1  0  0  0  0
 25 24  2  0  0  0  0
 26 22  2  0  0  0  0
 26 27  1  0  0  0  0
 27 23  2  0  0  0  0
M  END
>  <MODEL>
4

>  <REMARK>
 VINA RESULT:      -8.1      3.496      4.886
  Name = 
  1 active torsions:
  status: ('A' for Active; 'I' for Inactive)
    1  A    between atoms: C_9  and  C_15
                            x       y       z     vdW  Elec       q    Type
                         _______ _______ _______ _____ _____    ______ ____

>  <TORSDO>
F 1

$$$$
=
 OpenBabel10272401033D

 27 31  0  0  1  0  0  0  0  0999 V2000
  187.2220  178.7640  137.8130 N   0  0  0  0  0  2  0  0  0  0  0  0
  185.1750  178.5860  139.2450 C   0  0  0  0  0  0  0  0  0  0  0  0
  187.2670  178.2160  140.6670 N   0  0  0  0  0  0  0  0  0  0  0  0
  182.9500  178.9360  142.8060 C   0  0  0  0  0  3  0  0  0  0  0  0
  182.8460  178.9090  145.1850 F   0  0  0  0  0  0  0  0  0  0  0  0
  183.8010  178.8530  139.2290 C   0  0  0  0  0  3  0  0  0  0  0  0
  185.6930  178.4140  142.9460 C   0  0  0  0  0  3  0  0  0  0  0  0
  190.6310  177.4180  139.4990 C   0  0  0  0  0  0  0  0  0  0  0  0
  184.9420  178.5330  144.1190 C   0  0  0  0  0  3  0  0  0  0  0  0
  191.8490  177.2820  140.0000 C   0  0  0  0  0  2  0  0  0  0  0  0
  185.0840  178.5530  141.6880 C   0  0  0  0  0  0  0  0  0  0  0  0
  185.7950  178.4720  137.8740 C   0  0  2  0  0  3  0  0  0  0  0  0
  183.5720  178.7930  144.0490 C   0  0  0  0  0  0  0  0  0  0  0  0
  183.6960  178.8180  141.6300 C   0  0  0  0  0  0  0  0  0  0  0  0
  187.9470  177.6470  138.3830 C   0  0  1  0  0  3  0  0  0  0  0  0
  185.8450  178.4300  140.4990 C   0  0  0  0  0  0  0  0  0  0  0  0
  189.5400  177.7570  140.3520 N   0  0  0  0  0  2  0  0  0  0  0  0
  183.0660  178.9680  140.4030 C   0  0  0  0  0  3  0  0  0  0  0  0
  190.4040  177.2590  138.0640 C   0  0  0  0  0  3  0  0  0  0  0  0
  189.1780  177.3760  137.5540 C   0  0  0  0  0  3  0  0  0  0  0  0
  188.2150  177.9110  139.8350 C   0  0  0  0  0  0  0  0  0  0  0  0
  184.7170  175.0090  135.5950 C   0  0  0  0  0  3  0  0  0  0  0  0
  185.3890  177.2480  137.0930 C   0  0  0  0  0  0  0  0  0  0  0  0
  184.7770  176.1510  137.7130 C   0  0  0  0  0  3  0  0  0  0  0  0
  184.4360  175.0260  136.9630 C   0  0  0  0  0  3  0  0  0  0  0  0
  185.3190  176.0800  135.0090 N   0  0  0  0  0  0  0  0  0  0  0  0
  185.6580  177.1860  135.7240 C   0  0  0  0  0  3  0  0  0  0  0  0
  1 12  1  0  0  0  0
  1 15  1  0  0  0  0
  2 16  1  0  0  0  0
  4 13  2  0  0  0  0
  6  2  2  0  0  0  0
  6 18  1  0  0  0  0
  7  9  2  0  0  0  0
  8 10  2  0  0  0  0
  8 17  1  0  0  0  0
 11  7  1  0  0  0  0
 12 23  1  1  0  0  0
 12  2  1  0  0  0  0
 13  9  1  0  0  0  0
 13  5  1  0  0  0  0
 14 11  1  0  0  0  0
 14  4  1  0  0  0  0
 15 20  1  6  0  0  0
 15 21  1  0  0  0  0
 16  3  1  0  0  0  0
 16 11  2  0  0  0  0
 18 14  2  0  0  0  0
 19  8  1  0  0  0  0
 20 19  2  0  0  0  0
 21 17  1  0  0  0  0
 21  3  2  0  0  0  0
 22 25  1  0  0  0  0
 23 24  1  0  0  0  0
 25 24  2  0  0  0  0
 26 22  2  0  0  0  0
 26 27  1  0  0  0  0
 27 23  2  0  0  0  0
M  END
>  <MODEL>
5

>  <REMARK>
 VINA RESULT:      -8.0      2.445      3.956
  Name = 
  1 active torsions:
  status: ('A' for Active; 'I' for Inactive)
    1  A    between atoms: C_9  and  C_15
                            x       y       z     vdW  Elec       q    Type
                         _______ _______ _______ _____ _____    ______ ____

>  <TORSDO>
F 1

$$$$
=
 OpenBabel10272401033D

 27 31  0  0  1  0  0  0  0  0999 V2000
  188.9570  178.6980  140.3210 N   0  0  0  0  0  2  0  0  0  0  0  0
  189.2090  178.1530  142.7520 C   0  0  0  0  0  0  0  0  0  0  0  0
  190.4490  176.4200  141.3400 N   0  0  0  0  0  0  0  0  0  0  0  0
  191.1750  176.6270  146.1520 C   0  0  0  0  0  3  0  0  0  0  0  0
  192.6830  175.0690  147.1380 F   0  0  0  0  0  0  0  0  0  0  0  0
  189.0110  178.7050  144.0240 C   0  0  0  0  0  3  0  0  0  0  0  0
  191.6480  175.4640  143.6540 C   0  0  0  0  0  3  0  0  0  0  0  0
  190.0410  175.7630  137.7730 C   0  0  0  0  0  0  0  0  0  0  0  0
  192.2930  174.9690  144.7910 C   0  0  0  0  0  3  0  0  0  0  0  0
  190.6060  175.0270  136.8290 C   0  0  0  0  0  2  0  0  0  0  0  0
  190.7570  176.5460  143.7490 C   0  0  0  0  0  0  0  0  0  0  0  0
  188.4020  178.8160  141.6630 C   0  0  2  0  0  3  0  0  0  0  0  0
  192.0560  175.5500  146.0380 C   0  0  0  0  0  0  0  0  0  0  0  0
  190.5270  177.1270  145.0180 C   0  0  0  0  0  0  0  0  0  0  0  0
  188.7400  177.3470  139.8470 C   0  0  1  0  0  3  0  0  0  0  0  0
  190.1020  177.0460  142.5980 C   0  0  0  0  0  0  0  0  0  0  0  0
  190.5390  175.7210  139.1080 N   0  0  0  0  0  2  0  0  0  0  0  0
  189.6590  178.2010  145.1450 C   0  0  0  0  0  3  0  0  0  0  0  0
  188.9290  176.6530  137.4450 C   0  0  0  0  0  3  0  0  0  0  0  0
  188.3430  177.3850  138.3920 C   0  0  0  0  0  3  0  0  0  0  0  0
  189.9480  176.5100  140.1450 C   0  0  0  0  0  0  0  0  0  0  0  0
  184.1860  178.1140  141.9540 C   0  0  0  0  0  3  0  0  0  0  0  0
  186.9170  178.5670  141.7310 C   0  0  0  0  0  0  0  0  0  0  0  0
  186.0540  178.9840  140.7090 C   0  0  0  0  0  3  0  0  0  0  0  0
  184.6820  178.7560  140.8180 C   0  0  0  0  0  3  0  0  0  0  0  0
  185.0360  177.7210  142.9410 N   0  0  0  0  0  0  0  0  0  0  0  0
  186.3770  177.9340  142.8540 C   0  0  0  0  0  3  0  0  0  0  0  0
  1 12  1  0  0  0  0
  2  6  1  0  0  0  0
  3 16  1  0  0  0  0
  6 18  2  0  0  0  0
  7 11  2  0  0  0  0
  7  9  1  0  0  0  0
  8 17  1  0  0  0  0
  9 13  2  0  0  0  0
 10  8  2  0  0  0  0
 11 14  1  0  0  0  0
 12 23  1  6  0  0  0
 12  2  1  0  0  0  0
 13  4  1  0  0  0  0
 13  5  1  0  0  0  0
 14 18  1  0  0  0  0
 14  4  2  0  0  0  0
 15 20  1  6  0  0  0
 15 21  1  0  0  0  0
 15  1  1  0  0  0  0
 16  2  2  0  0  0  0
 16 11  1  0  0  0  0
 17 21  1  0  0  0  0
 19  8  1  0  0  0  0
 19 20  2  0  0  0  0
 21  3  2  0  0  0  0
 22 26  1  0  0  0  0
 23 27  1  0  0  0  0
 24 25  1  0  0  0  0
 24 23  2  0  0  0  0
 25 22  2  0  0  0  0
 27 26  2  0  0  0  0
M  END
>  <MODEL>
6

>  <REMARK>
 VINA RESULT:      -7.9      2.855      4.459
  Name = 
  1 active torsions:
  status: ('A' for Active; 'I' for Inactive)
    1  A    between atoms: C_9  and  C_15
                            x       y       z     vdW  Elec       q    Type
                         _______ _______ _______ _____ _____    ______ ____

>  <TORSDO>
F 1

$$$$
=
 OpenBabel10272401033D

 27 31  0  0  1  0  0  0  0  0999 V2000
  188.3130  178.7850  138.7060 N   0  0  0  0  0  2  0  0  0  0  0  0
  185.9120  178.5860  139.3910 C   0  0  0  0  0  0  0  0  0  0  0  0
  187.4280  178.2050  141.4140 N   0  0  0  0  0  0  0  0  0  0  0  0
  182.6460  178.8920  142.0350 C   0  0  0  0  0  3  0  0  0  0  0  0
  181.7720  178.8380  144.2500 F   0  0  0  0  0  0  0  0  0  0  0  0
  184.6160  178.8510  138.9310 C   0  0  0  0  0  3  0  0  0  0  0  0
  185.1960  178.3750  143.0570 C   0  0  0  0  0  3  0  0  0  0  0  0
  190.9930  177.4270  141.3990 C   0  0  0  0  0  0  0  0  0  0  0  0
  184.1030  178.4790  143.9220 C   0  0  0  0  0  3  0  0  0  0  0  0
  191.9820  177.2880  142.2680 C   0  0  0  0  0  1  0  0  0  0  0  0
  185.0300  178.5260  141.6700 C   0  0  0  0  0  0  0  0  0  0  0  0
  186.9450  178.4890  138.2960 C   0  0  2  0  0  3  0  0  0  0  0  0
  182.8290  178.7370  143.4110 C   0  0  0  0  0  0  0  0  0  0  0  0
  183.7350  178.7890  141.1650 C   0  0  0  0  0  0  0  0  0  0  0  0
  188.8190  177.6630  139.4700 C   0  0  1  0  0  3  0  0  0  0  0  0
  186.1380  178.4180  140.7940 C   0  0  0  0  0  0  0  0  0  0  0  0
  189.6820  177.7540  141.8520 N   0  0  0  0  0  0  0  0  0  0  0  0
  183.5390  178.9510  139.8020 C   0  0  0  0  0  3  0  0  0  0  0  0
  191.2470  177.2840  139.9670 C   0  0  0  0  0  3  0  0  0  0  0  0
  190.2550  177.4040  139.0860 C   0  0  0  0  0  3  0  0  0  0  0  0
  188.5970  177.9110  140.9330 C   0  0  0  0  0  0  0  0  0  0  0  0
  186.6920  175.0430  135.7650 C   0  0  0  0  0  3  0  0  0  0  0  0
  186.8230  177.2730  137.4140 C   0  0  0  0  0  0  0  0  0  0  0  0
  185.9410  176.2290  137.7200 C   0  0  0  0  0  3  0  0  0  0  0  0
  185.8720  175.1080  136.8930 C   0  0  0  0  0  3  0  0  0  0  0  0
  187.5490  176.0620  135.4850 N   0  0  0  0  0  0  0  0  0  0  0  0
  187.6320  177.1630  136.2800 C   0  0  0  0  0  3  0  0  0  0  0  0
  1 15  1  0  0  0  0
  2 16  1  0  0  0  0
  4 13  2  0  0  0  0
  6  2  2  0  0  0  0
  6 18  1  0  0  0  0
  7  9  2  0  0  0  0
  8 17  2  0  0  0  0
  8 10  1  0  0  0  0
 11  7  1  0  0  0  0
 12 23  1  1  0  0  0
 12  1  1  0  0  0  0
 12  2  1  0  0  0  0
 13  9  1  0  0  0  0
 13  5  1  0  0  0  0
 14 11  1  0  0  0  0
 14  4  1  0  0  0  0
 15 20  1  1  0  0  0
 15 21  1  0  0  0  0
 16  3  1  0  0  0  0
 16 11  2  0  0  0  0
 18 14  2  0  0  0  0
 19  8  1  0  0  0  0
 20 19  2  0  0  0  0
 21  3  2  0  0  0  0
 21 17  1  0  0  0  0
 22 25  1  0  0  0  0
 23 24  1  0  0  0  0
 25 24  2  0  0  0  0
 26 22  2  0  0  0  0
 26 27  1  0  0  0  0
 27 23  2  0  0  0  0
M  END
>  <MODEL>
7

>  <REMARK>
 VINA RESULT:      -7.8      2.772      4.784
  Name = 
  1 active torsions:
  status: ('A' for Active; 'I' for Inactive)
    1  A    between atoms: C_9  and  C_15
                            x       y       z     vdW  Elec       q    Type
                         _______ _______ _______ _____ _____    ______ ____

>  <TORSDO>
F 1

$$$$
=
 OpenBabel10272401033D

 27 31  0  0  1  0  0  0  0  0999 V2000
  189.0410  178.4970  138.0750 N   0  0  0  0  0  2  0  0  0  0  0  0
  187.5600  178.2390  140.0770 C   0  0  0  0  0  0  0  0  0  0  0  0
  189.8450  177.1940  140.5460 N   0  0  0  0  0  0  0  0  0  0  0  0
  186.6990  177.9310  144.1900 C   0  0  0  0  0  3  0  0  0  0  0  0
  187.3380  177.2740  146.3890 F   0  0  0  0  0  0  0  0  0  0  0  0
  186.3500  178.6990  140.6110 C   0  0  0  0  0  3  0  0  0  0  0  0
  189.1500  176.9940  143.2270 C   0  0  0  0  0  3  0  0  0  0  0  0
  192.3980  176.2590  138.1110 C   0  0  0  0  0  0  0  0  0  0  0  0
  188.8500  176.8990  144.5880 C   0  0  0  0  0  3  0  0  0  0  0  0
  193.6450  175.8150  138.1020 C   0  0  0  0  0  2  0  0  0  0  0  0
  188.2290  177.5570  142.3270 C   0  0  0  0  0  0  0  0  0  0  0  0
  187.6780  178.4120  138.5830 C   0  0  2  0  0  3  0  0  0  0  0  0
  187.6260  177.3660  145.0690 C   0  0  0  0  0  0  0  0  0  0  0  0
  186.9930  178.0280  142.8270 C   0  0  0  0  0  0  0  0  0  0  0  0
  189.6290  177.1740  138.1050 C   0  0  1  0  0  3  0  0  0  0  0  0
  188.5320  177.6520  140.9470 C   0  0  0  0  0  0  0  0  0  0  0  0
  191.7360  176.5090  139.3480 N   0  0  0  0  0  2  0  0  0  0  0  0
  186.0650  178.5970  141.9670 C   0  0  0  0  0  3  0  0  0  0  0  0
  191.7050  176.5310  136.8540 C   0  0  0  0  0  3  0  0  0  0  0  0
  190.4440  176.9610  136.8520 C   0  0  0  0  0  3  0  0  0  0  0  0
  190.3900  176.9910  139.3850 C   0  0  0  0  0  0  0  0  0  0  0  0
  185.1080  175.9480  136.2020 C   0  0  0  0  0  3  0  0  0  0  0  0
  186.7780  177.5190  137.7670 C   0  0  0  0  0  0  0  0  0  0  0  0
  186.9750  176.1330  137.7090 C   0  0  0  0  0  3  0  0  0  0  0  0
  186.1360  175.3410  136.9250 C   0  0  0  0  0  3  0  0  0  0  0  0
  184.9340  177.2960  136.2620 N   0  0  0  0  0  0  0  0  0  0  0  0
  185.7410  178.0850  137.0210 C   0  0  0  0  0  3  0  0  0  0  0  0
  1 15  1  0  0  0  0
  1 12  1  0  0  0  0
  2  6  2  0  0  0  0
  2 16  1  0  0  0  0
  3 16  1  0  0  0  0
  4 13  2  0  0  0  0
  6 18  1  0  0  0  0
  7  9  2  0  0  0  0
  8 17  1  0  0  0  0
  9 13  1  0  0  0  0
 10  8  2  0  0  0  0
 11 14  1  0  0  0  0
 11  7  1  0  0  0  0
 12 23  1  6  0  0  0
 12  2  1  0  0  0  0
 13  5  1  0  0  0  0
 14  4  1  0  0  0  0
 15 20  1  6  0  0  0
 15 21  1  0  0  0  0
 16 11  2  0  0  0  0
 17 21  1  0  0  0  0
 18 14  2  0  0  0  0
 19  8  1  0  0  0  0
 20 19  2  0  0  0  0
 21  3  2  0  0  0  0
 22 26  2  0  0  0  0
 22 25  1  0  0  0  0
 24 23  1  0  0  0  0
 25 24  2  0  0  0  0
 26 27  1  0  0  0  0
 27 23  2  0  0  0  0
M  END
>  <MODEL>
8

>  <REMARK>
 VINA RESULT:      -7.7      2.785      4.071
  Name = 
  1 active torsions:
  status: ('A' for Active; 'I' for Inactive)
    1  A    between atoms: C_9  and  C_15
                            x       y       z     vdW  Elec       q    Type
                         _______ _______ _______ _____ _____    ______ ____

>  <TORSDO>
F 1

$$$$
=
 OpenBabel10272401033D

 27 31  0  0  1  0  0  0  0  0999 V2000
  189.0000  178.6910  139.0640 N   0  0  0  0  0  2  0  0  0  0  0  0
  186.5100  178.4280  139.1210 C   0  0  0  0  0  0  0  0  0  0  0  0
  187.4490  178.3340  141.4970 N   0  0  0  0  0  0  0  0  0  0  0  0
  182.6550  178.8130  140.7770 C   0  0  0  0  0  3  0  0  0  0  0  0
  181.2300  178.9310  142.6820 F   0  0  0  0  0  0  0  0  0  0  0  0
  185.3750  178.5740  138.3140 C   0  0  0  0  0  3  0  0  0  0  0  0
  184.8590  178.5420  142.4760 C   0  0  0  0  0  3  0  0  0  0  0  0
  190.9120  177.7580  142.4920 C   0  0  0  0  0  0  0  0  0  0  0  0
  183.5740  178.6710  143.0110 C   0  0  0  0  0  3  0  0  0  0  0  0
  191.6400  177.7620  143.5970 C   0  0  0  0  0  1  0  0  0  0  0  0
  185.0600  178.5450  141.0850 C   0  0  0  0  0  0  0  0  0  0  0  0
  187.7980  178.2810  138.3490 C   0  0  2  0  0  3  0  0  0  0  0  0
  182.4740  178.8060  142.1630 C   0  0  0  0  0  0  0  0  0  0  0  0
  183.9380  178.6850  140.2360 C   0  0  0  0  0  0  0  0  0  0  0  0
  189.3170  177.6800  140.0520 C   0  0  1  0  0  3  0  0  0  0  0  0
  186.3620  178.4130  140.5440 C   0  0  0  0  0  0  0  0  0  0  0  0
  189.5190  178.0550  142.5510 N   0  0  0  0  0  0  0  0  0  0  0  0
  184.1030  178.7000  138.8590 C   0  0  0  0  0  3  0  0  0  0  0  0
  191.5380  177.4880  141.2000 C   0  0  0  0  0  3  0  0  0  0  0  0
  190.8100  177.4650  140.0840 C   0  0  0  0  0  3  0  0  0  0  0  0
  188.7110  178.0600  141.3710 C   0  0  0  0  0  0  0  0  0  0  0  0
  188.1230  174.5730  136.2290 C   0  0  0  0  0  3  0  0  0  0  0  0
  187.9460  176.9780  137.6050 C   0  0  0  0  0  0  0  0  0  0  0  0
  189.0390  176.7340  136.7620 C   0  0  0  0  0  3  0  0  0  0  0  0
  189.1310  175.5250  136.0720 C   0  0  0  0  0  3  0  0  0  0  0  0
  187.0650  174.8270  137.0460 N   0  0  0  0  0  0  0  0  0  0  0  0
  186.9570  176.0000  137.7270 C   0  0  0  0  0  3  0  0  0  0  0  0
  1 15  1  0  0  0  0
  2 16  1  0  0  0  0
  4 13  2  0  0  0  0
  6 18  1  0  0  0  0
  6  2  2  0  0  0  0
  7  9  2  0  0  0  0
  8 17  2  0  0  0  0
  8 10  1  0  0  0  0
 11  7  1  0  0  0  0
 12 23  1  1  0  0  0
 12  1  1  0  0  0  0
 12  2  1  0  0  0  0
 13  5  1  0  0  0  0
 13  9  1  0  0  0  0
 14  4  1  0  0  0  0
 14 11  1  0  0  0  0
 15 20  1  1  0  0  0
 15 21  1  0  0  0  0
 16 11  2  0  0  0  0
 16  3  1  0  0  0  0
 18 14  2  0  0  0  0
 19  8  1  0  0  0  0
 20 19  2  0  0  0  0
 21  3  2  0  0  0  0
 21 17  1  0  0  0  0
 22 26  1  0  0  0  0
 23 27  1  0  0  0  0
 24 23  2  0  0  0  0
 25 22  2  0  0  0  0
 25 24  1  0  0  0  0
 26 27  2  0  0  0  0
M  END
>  <MODEL>
9

>  <REMARK>
 VINA RESULT:      -7.7      2.991      5.564
  Name = 
  1 active torsions:
  status: ('A' for Active; 'I' for Inactive)
    1  A    between atoms: C_9  and  C_15
                            x       y       z     vdW  Elec       q    Type
                         _______ _______ _______ _____ _____    ______ ____

>  <TORSDO>
F 1

$$$$
