=
 OpenBabel10272414143D

 43 47  0  0  1  0  0  0  0  0999 V2000
  189.0160  176.9270  137.7120 C   0  0  0  0  0  0  0  0  0  0  0  0
  188.1810  177.8620  137.8540 O   0  0  0  0  0  0  0  0  0  0  0  0
  190.1860  176.8850  138.5570 N   0  0  0  0  0  0  0  0  0  0  0  0
  193.6700  175.6210  138.0870 O   0  0  0  0  0  0  0  0  0  0  0  0
  193.3680  174.4930  137.3230 C   0  0  0  0  0  0  0  0  0  0  0  0
  191.5710  173.0740  136.1280 C   0  0  0  0  0  2  0  0  0  0  0  0
  192.6470  176.5230  138.5170 C   0  0  2  0  0  3  0  0  0  0  0  0
  194.3390  173.8340  136.6920 C   0  0  0  0  0  3  0  0  0  0  0  0
  191.0930  175.2030  137.1850 O   0  0  0  0  0  0  0  0  0  0  0  0
  192.9290  176.9700  139.9370 C   0  0  0  0  0  1  0  0  0  0  0  0
  194.0470  172.6300  135.8480 C   0  0  2  0  0  3  0  0  0  0  0  0
  191.2450  175.8870  138.4060 C   0  0  2  0  0  3  0  0  0  0  0  0
  192.7120  172.8310  135.1300 C   0  0  0  0  0  2  0  0  0  0  0  0
  191.9170  174.0670  137.2520 C   0  0  2  0  0  3  0  0  0  0  0  0
  194.0340  171.3580  136.6850 C   0  0  0  0  0  2  0  0  0  0  0  0
  195.4310  171.0370  137.1850 C   0  0  0  0  0  2  0  0  0  0  0  0
  195.3650  170.5720  138.4990 O   0  0  0  0  0  0  0  0  0  0  0  0
  195.2440  169.1850  138.3740 C   0  0  0  0  0  2  0  0  0  0  0  0
  194.2410  169.4240  140.5260 O   0  0  0  0  0  1  0  0  0  0  0  0
  195.0030  168.5610  139.7370 C   0  0  0  0  0  2  0  0  0  0  0  0
  190.2510  177.7330  139.7420 C   0  0  0  0  0  2  0  0  0  0  0  0
  189.0160  176.1050  142.9930 C   0  0  0  0  0  2  0  0  0  0  0  0
  188.2190  177.2800  143.5670 C   0  0  0  0  0  0  0  0  0  0  0  0
  187.1560  176.7320  144.4940 C   0  0  0  0  0  1  0  0  0  0  0  0
  188.5170  178.4940  141.3590 C   0  0  0  0  0  2  0  0  0  0  0  0
  189.9950  176.5570  141.9080 C   0  0  0  0  0  2  0  0  0  0  0  0
  189.2510  177.2800  140.7920 C   0  0  0  0  0  3  0  0  0  0  0  0
  189.1260  178.1980  144.3730 C   0  0  0  0  0  1  0  0  0  0  0  0
  187.5280  178.0630  142.4450 C   0  0  0  0  0  2  0  0  0  0  0  0
  188.7530  175.8650  136.6720 C   0  0  1  0  0  3  0  0  0  0  0  0
  185.0020  173.8130  137.2900 C   0  0  0  0  0  0  0  0  0  0  0  0
  187.4030  173.7280  136.9400 C   0  0  0  0  0  0  0  0  0  0  0  0
  185.0370  175.2060  137.2200 C   0  0  0  0  0  3  0  0  0  0  0  0
  183.4800  172.9880  137.5470 Cl  0  0  0  0  0  0  0  0  0  0  0  0
  187.4480  175.1390  136.8960 C   0  0  0  0  0  0  0  0  0  0  0  0
  186.1830  173.0770  137.1450 C   0  0  0  0  0  3  0  0  0  0  0  0
  186.2530  175.8640  137.0240 C   0  0  0  0  0  3  0  0  0  0  0  0
  188.6230  172.8990  136.7260 C   0  0  0  0  0  1  0  0  0  0  0  0
  189.9630  177.2860  135.1070 O   0  0  0  0  0  0  0  0  0  0  0  0
  190.1740  176.0160  134.5300 C   0  0  0  0  0  2  0  0  0  0  0  0
  188.9160  176.3580  135.2250 C   0  0  1  0  0  0  0  0  0  0  0  0
  187.7330  176.7420  134.3460 C   0  0  0  0  0  2  0  0  0  0  0  0
  187.3480  178.0570  134.5960 O   0  0  0  0  0  1  0  0  0  0  0  0
  1  2  2  0  0  0  0
  1  3  1  0  0  0  0
  3 21  1  0  0  0  0
  4  7  1  0  0  0  0
  5  4  1  0  0  0  0
  7 10  1  1  0  0  0
  8  5  2  0  0  0  0
  9 14  1  0  0  0  0
  9 12  1  0  0  0  0
 11 15  1  1  0  0  0
 11  8  1  0  0  0  0
 12  7  1  0  0  0  0
 12  3  1  6  0  0  0
 13 11  1  0  0  0  0
 13  6  1  0  0  0  0
 14  6  1  6  0  0  0
 14  5  1  0  0  0  0
 15 16  1  0  0  0  0
 16 17  1  0  0  0  0
 18 17  1  0  0  0  0
 18 20  1  0  0  0  0
 20 19  1  0  0  0  0
 21 27  1  0  0  0  0
 22 23  1  0  0  0  0
 23 28  1  0  0  0  0
 23 24  1  0  0  0  0
 25 29  1  0  0  0  0
 26 22  1  0  0  0  0
 27 25  1  0  0  0  0
 27 26  1  0  0  0  0
 29 23  1  0  0  0  0
 30 35  1  0  0  0  0
 30  1  1  1  0  0  0
 31 34  1  0  0  0  0
 32 36  1  0  0  0  0
 33 31  1  0  0  0  0
 35 32  2  0  0  0  0
 35 37  1  0  0  0  0
 36 31  2  0  0  0  0
 37 33  2  0  0  0  0
 38 32  1  0  0  0  0
 39 41  1  0  0  0  0
 40 39  1  0  0  0  0
 40 41  1  0  0  0  0
 41 42  1  6  0  0  0
 41 30  1  0  0  0  0
 42 43  1  0  0  0  0
M  END
>  <MODEL>
1

>  <REMARK>
 VINA RESULT:      -6.5      0.000      0.000
  Name = 
  12 active torsions:
  status: ('A' for Active; 'I' for Inactive)
    1  A    between atoms: C_1  and  N_34
    2  A    between atoms: C_1  and  C_35
    3  A    between atoms: C_2  and  C_27
    4  A    between atoms: C_8  and  C_30
    5  A    between atoms: C_11  and  C_22
    6  A    between atoms: C_11  and  C_36
    7  A    between atoms: C_21  and  C_30
    8  A    between atoms: C_27  and  C_30
    9  A    between atoms: O_29  and  C_31
   10  A    between atoms: O_29  and  C_36
   11  A    between atoms: C_31  and  C_40
   12  A    between atoms: N_34  and  C_38
                            x       y       z     vdW  Elec       q    Type
                         _______ _______ _______ _____ _____    ______ ____

>  <TORSDO>
F 12

$$$$
=
 OpenBabel10272414143D

 43 47  0  0  1  0  0  0  0  0999 V2000
  186.1460  177.1780  137.7300 C   0  0  0  0  0  0  0  0  0  0  0  0
  185.0620  177.6130  138.2080 O   0  0  0  0  0  0  0  0  0  0  0  0
  187.3890  177.4800  138.3990 N   0  0  0  0  0  0  0  0  0  0  0  0
  190.2250  177.3940  135.9680 O   0  0  0  0  0  0  0  0  0  0  0  0
  190.6090  176.0670  136.1630 C   0  0  0  0  0  0  0  0  0  0  0  0
  190.1710  173.8090  137.3380 C   0  0  0  0  0  2  0  0  0  0  0  0
  189.1030  177.9520  136.6590 C   0  0  2  0  0  3  0  0  0  0  0  0
  191.4550  175.4850  135.3120 C   0  0  0  0  0  3  0  0  0  0  0  0
  188.6920  175.7180  137.5410 O   0  0  0  0  0  0  0  0  0  0  0  0
  189.4250  179.3680  137.0870 C   0  0  0  0  0  1  0  0  0  0  0  0
  191.8730  174.0550  135.4800 C   0  0  2  0  0  3  0  0  0  0  0  0
  188.6960  177.0870  137.8720 C   0  0  2  0  0  3  0  0  0  0  0  0
  190.6900  173.2430  136.0090 C   0  0  0  0  0  2  0  0  0  0  0  0
  190.0330  175.3420  137.3600 C   0  0  2  0  0  3  0  0  0  0  0  0
  193.0760  173.9370  136.4060 C   0  0  0  0  0  2  0  0  0  0  0  0
  194.1820  174.8780  135.9630 C   0  0  0  0  0  2  0  0  0  0  0  0
  194.8130  175.4220  137.0820 O   0  0  0  0  0  0  0  0  0  0  0  0
  194.9240  174.3540  137.9770 C   0  0  0  0  0  2  0  0  0  0  0  0
  196.8350  174.3770  139.4050 O   0  0  0  0  0  1  0  0  0  0  0  0
  195.5220  174.8340  139.2870 C   0  0  0  0  0  2  0  0  0  0  0  0
  187.3660  178.0220  139.7530 C   0  0  0  0  0  2  0  0  0  0  0  0
  190.7220  177.2760  141.4630 C   0  0  0  0  0  2  0  0  0  0  0  0
  190.2510  177.2400  142.9210 C   0  0  0  0  0  0  0  0  0  0  0  0
  191.2110  176.3800  143.7140 C   0  0  0  0  0  1  0  0  0  0  0  0
  187.8540  177.3240  142.0930 C   0  0  0  0  0  2  0  0  0  0  0  0
  189.7110  177.9770  140.5550 C   0  0  0  0  0  2  0  0  0  0  0  0
  188.3520  177.2920  140.6490 C   0  0  0  0  0  3  0  0  0  0  0  0
  190.2570  178.6390  143.5190 C   0  0  0  0  0  1  0  0  0  0  0  0
  188.8510  176.6230  143.0190 C   0  0  0  0  0  2  0  0  0  0  0  0
  186.1060  176.3330  136.4790 C   0  0  1  0  0  3  0  0  0  0  0  0
  183.9260  172.6450  137.0320 C   0  0  0  0  0  0  0  0  0  0  0  0
  185.8160  173.8390  136.0860 C   0  0  0  0  0  0  0  0  0  0  0  0
  183.4510  173.8320  137.5910 C   0  0  0  0  0  3  0  0  0  0  0  0
  183.0410  171.1530  137.2640 Cl  0  0  0  0  0  0  0  0  0  0  0  0
  185.3550  175.0380  136.6730 C   0  0  0  0  0  0  0  0  0  0  0  0
  185.1040  172.6510  136.2770 C   0  0  0  0  0  3  0  0  0  0  0  0
  184.1620  175.0200  137.4120 C   0  0  0  0  0  3  0  0  0  0  0  0
  187.0300  173.8080  135.2210 C   0  0  0  0  0  1  0  0  0  0  0  0
  186.0220  178.4530  135.2810 O   0  0  0  0  0  0  0  0  0  0  0  0
  186.7040  177.6460  134.3460 C   0  0  0  0  0  2  0  0  0  0  0  0
  185.6510  177.1000  135.2260 C   0  0  1  0  0  0  0  0  0  0  0  0
  184.2680  176.9280  134.6110 C   0  0  0  0  0  2  0  0  0  0  0  0
  183.3260  177.6710  135.3190 O   0  0  0  0  0  1  0  0  0  0  0  0
  1  2  2  0  0  0  0
  1  3  1  0  0  0  0
  3 21  1  0  0  0  0
  4  5  1  0  0  0  0
  4  7  1  0  0  0  0
  5 14  1  0  0  0  0
  7 10  1  1  0  0  0
  7 12  1  0  0  0  0
  8 11  1  0  0  0  0
  8  5  2  0  0  0  0
  9 12  1  0  0  0  0
 11 13  1  0  0  0  0
 11 15  1  1  0  0  0
 12  3  1  6  0  0  0
 13  6  1  0  0  0  0
 14  6  1  6  0  0  0
 14  9  1  0  0  0  0
 16 15  1  0  0  0  0
 16 17  1  0  0  0  0
 17 18  1  0  0  0  0
 18 20  1  0  0  0  0
 20 19  1  0  0  0  0
 21 27  1  0  0  0  0
 22 23  1  0  0  0  0
 23 29  1  0  0  0  0
 23 28  1  0  0  0  0
 23 24  1  0  0  0  0
 25 29  1  0  0  0  0
 26 27  1  0  0  0  0
 26 22  1  0  0  0  0
 27 25  1  0  0  0  0
 30 35  1  0  0  0  0
 30  1  1  1  0  0  0
 31 34  1  0  0  0  0
 31 33  1  0  0  0  0
 32 36  1  0  0  0  0
 32 35  2  0  0  0  0
 35 37  1  0  0  0  0
 36 31  2  0  0  0  0
 37 33  2  0  0  0  0
 38 32  1  0  0  0  0
 40 41  1  0  0  0  0
 40 39  1  0  0  0  0
 41 42  1  6  0  0  0
 41 39  1  0  0  0  0
 41 30  1  0  0  0  0
 42 43  1  0  0  0  0
M  END
>  <MODEL>
2

>  <REMARK>
 VINA RESULT:      -6.3      2.326      3.275
  Name = 
  12 active torsions:
  status: ('A' for Active; 'I' for Inactive)
    1  A    between atoms: C_1  and  N_34
    2  A    between atoms: C_1  and  C_35
    3  A    between atoms: C_2  and  C_27
    4  A    between atoms: C_8  and  C_30
    5  A    between atoms: C_11  and  C_22
    6  A    between atoms: C_11  and  C_36
    7  A    between atoms: C_21  and  C_30
    8  A    between atoms: C_27  and  C_30
    9  A    between atoms: O_29  and  C_31
   10  A    between atoms: O_29  and  C_36
   11  A    between atoms: C_31  and  C_40
   12  A    between atoms: N_34  and  C_38
                            x       y       z     vdW  Elec       q    Type
                         _______ _______ _______ _____ _____    ______ ____

>  <TORSDO>
F 12

$$$$
=
 OpenBabel10272414143D

 43 47  0  0  1  0  0  0  0  0999 V2000
  186.4610  177.9400  137.4350 C   0  0  0  0  0  0  0  0  0  0  0  0
  185.8510  178.3710  136.4180 O   0  0  0  0  0  0  0  0  0  0  0  0
  186.0480  178.3760  138.7480 N   0  0  0  0  0  0  0  0  0  0  0  0
  187.2540  178.7300  142.2670 O   0  0  0  0  0  0  0  0  0  0  0  0
  188.4890  178.1000  142.1140 C   0  0  0  0  0  0  0  0  0  0  0  0
  190.1870  176.9590  140.5380 C   0  0  0  0  0  2  0  0  0  0  0  0
  186.3690  178.9090  141.1570 C   0  0  2  0  0  3  0  0  0  0  0  0
  189.4120  178.1980  143.0720 C   0  0  0  0  0  3  0  0  0  0  0  0
  188.1400  177.9950  139.7560 O   0  0  0  0  0  0  0  0  0  0  0  0
  184.9430  178.6600  141.5990 C   0  0  0  0  0  1  0  0  0  0  0  0
  190.7560  177.5510  142.9320 C   0  0  2  0  0  3  0  0  0  0  0  0
  186.7490  177.9930  139.9740 C   0  0  2  0  0  3  0  0  0  0  0  0
  191.2040  177.6300  141.4720 C   0  0  0  0  0  2  0  0  0  0  0  0
  188.7210  177.3170  140.8400 C   0  0  2  0  0  3  0  0  0  0  0  0
  190.7280  176.1080  143.4200 C   0  0  0  0  0  2  0  0  0  0  0  0
  191.8140  175.8760  144.4540 C   0  0  0  0  0  2  0  0  0  0  0  0
  191.7580  176.8730  145.4280 O   0  0  0  0  0  0  0  0  0  0  0  0
  191.1930  176.2450  146.5410 C   0  0  0  0  0  2  0  0  0  0  0  0
  188.9080  176.9020  146.3410 O   0  0  0  0  0  1  0  0  0  0  0  0
  190.0650  177.0930  147.0990 C   0  0  0  0  0  2  0  0  0  0  0  0
  184.7710  179.0620  138.9120 C   0  0  0  0  0  2  0  0  0  0  0  0
  182.3860  176.1070  138.3400 C   0  0  0  0  0  2  0  0  0  0  0  0
  181.0500  176.8530  138.4240 C   0  0  0  0  0  0  0  0  0  0  0  0
  180.0160  176.0730  137.6420 C   0  0  0  0  0  1  0  0  0  0  0  0
  182.3310  179.0430  138.4200 C   0  0  0  0  0  2  0  0  0  0  0  0
  183.5290  176.9180  138.9540 C   0  0  0  0  0  2  0  0  0  0  0  0
  183.6430  178.2750  138.2680 C   0  0  0  0  0  3  0  0  0  0  0  0
  180.5820  176.9500  139.8690 C   0  0  0  0  0  1  0  0  0  0  0  0
  181.1730  178.2510  137.8080 C   0  0  0  0  0  2  0  0  0  0  0  0
  187.5950  176.9610  137.2470 C   0  0  1  0  0  3  0  0  0  0  0  0
  186.2030  172.9990  136.2350 C   0  0  0  0  0  0  0  0  0  0  0  0
  187.9940  174.4670  136.9640 C   0  0  0  0  0  0  0  0  0  0  0  0
  185.3380  174.0900  136.1460 C   0  0  0  0  0  3  0  0  0  0  0  0
  185.6310  171.3950  135.8290 Cl  0  0  0  0  0  0  0  0  0  0  0  0
  187.1150  175.5720  136.9030 C   0  0  0  0  0  0  0  0  0  0  0  0
  187.5290  173.1890  136.6380 C   0  0  0  0  0  3  0  0  0  0  0  0
  185.7930  175.3690  136.4780 C   0  0  0  0  0  3  0  0  0  0  0  0
  189.4300  174.6290  137.3260 C   0  0  0  0  0  1  0  0  0  0  0  0
  189.2430  178.6790  136.7290 O   0  0  0  0  0  0  0  0  0  0  0  0
  190.0690  177.5400  136.8320 C   0  0  0  0  0  2  0  0  0  0  0  0
  188.6950  177.4610  136.2960 C   0  0  1  0  0  0  0  0  0  0  0  0
  188.5540  177.4230  134.7800 C   0  0  0  0  0  2  0  0  0  0  0  0
  188.3040  176.1240  134.3470 O   0  0  0  0  0  1  0  0  0  0  0  0
  1  3  1  0  0  0  0
  2  1  2  0  0  0  0
  3 21  1  0  0  0  0
  5  4  1  0  0  0  0
  5  8  2  0  0  0  0
  6 13  1  0  0  0  0
  7 10  1  1  0  0  0
  7  4  1  0  0  0  0
  9 12  1  0  0  0  0
  9 14  1  0  0  0  0
 11  8  1  0  0  0  0
 11 15  1  6  0  0  0
 12  3  1  6  0  0  0
 12  7  1  0  0  0  0
 13 11  1  0  0  0  0
 14  6  1  6  0  0  0
 14  5  1  0  0  0  0
 15 16  1  0  0  0  0
 16 17  1  0  0  0  0
 17 18  1  0  0  0  0
 18 20  1  0  0  0  0
 19 20  1  0  0  0  0
 22 23  1  0  0  0  0
 22 26  1  0  0  0  0
 23 28  1  0  0  0  0
 24 23  1  0  0  0  0
 27 25  1  0  0  0  0
 27 21  1  0  0  0  0
 27 26  1  0  0  0  0
 29 25  1  0  0  0  0
 29 23  1  0  0  0  0
 30  1  1  6  0  0  0
 31 36  1  0  0  0  0
 32 38  1  0  0  0  0
 33 31  2  0  0  0  0
 33 37  1  0  0  0  0
 34 31  1  0  0  0  0
 35 32  1  0  0  0  0
 35 30  1  0  0  0  0
 36 32  2  0  0  0  0
 37 35  2  0  0  0  0
 39 40  1  0  0  0  0
 41 42  1  6  0  0  0
 41 39  1  0  0  0  0
 41 40  1  0  0  0  0
 41 30  1  0  0  0  0
 43 42  1  0  0  0  0
M  END
>  <MODEL>
3

>  <REMARK>
 VINA RESULT:      -6.2      3.906      6.694
  Name = 
  12 active torsions:
  status: ('A' for Active; 'I' for Inactive)
    1  A    between atoms: C_1  and  N_34
    2  A    between atoms: C_1  and  C_35
    3  A    between atoms: C_2  and  C_27
    4  A    between atoms: C_8  and  C_30
    5  A    between atoms: C_11  and  C_22
    6  A    between atoms: C_11  and  C_36
    7  A    between atoms: C_21  and  C_30
    8  A    between atoms: C_27  and  C_30
    9  A    between atoms: O_29  and  C_31
   10  A    between atoms: O_29  and  C_36
   11  A    between atoms: C_31  and  C_40
   12  A    between atoms: N_34  and  C_38
                            x       y       z     vdW  Elec       q    Type
                         _______ _______ _______ _____ _____    ______ ____

>  <TORSDO>
F 12

$$$$
=
 OpenBabel10272414143D

 43 47  0  0  1  0  0  0  0  0999 V2000
  188.7410  177.2390  138.9720 C   0  0  0  0  0  0  0  0  0  0  0  0
  188.0500  178.0320  139.6700 O   0  0  0  0  0  0  0  0  0  0  0  0
  189.9990  176.7520  139.4860 N   0  0  0  0  0  0  0  0  0  0  0  0
  192.7640  175.9470  137.1050 O   0  0  0  0  0  0  0  0  0  0  0  0
  192.2150  174.7890  136.5520 C   0  0  0  0  0  0  0  0  0  0  0  0
  190.2220  173.1510  136.4310 C   0  0  0  0  0  2  0  0  0  0  0  0
  192.0550  176.7100  138.0860 C   0  0  2  0  0  3  0  0  0  0  0  0
  192.7440  174.2610  135.4490 C   0  0  0  0  0  3  0  0  0  0  0  0
  190.1780  175.2000  137.7260 O   0  0  0  0  0  0  0  0  0  0  0  0
  193.0200  177.1890  139.1500 C   0  0  0  0  0  1  0  0  0  0  0  0
  192.1670  173.0300  134.8170 C   0  0  2  0  0  3  0  0  0  0  0  0
  190.9010  175.8980  138.7120 C   0  0  2  0  0  3  0  0  0  0  0  0
  190.6450  173.0570  134.9590 C   0  0  0  0  0  2  0  0  0  0  0  0
  191.0190  174.1800  137.2520 C   0  0  2  0  0  3  0  0  0  0  0  0
  192.7540  171.7670  135.4330 C   0  0  0  0  0  2  0  0  0  0  0  0
  193.9750  171.3140  134.6550 C   0  0  0  0  0  2  0  0  0  0  0  0
  195.0220  171.0440  135.5370 O   0  0  0  0  0  0  0  0  0  0  0  0
  194.5830  171.5440  136.7660 C   0  0  0  0  0  2  0  0  0  0  0  0
  195.3670  172.4100  138.8460 O   0  0  0  0  0  1  0  0  0  0  0  0
  195.7580  171.6890  137.7170 C   0  0  0  0  0  2  0  0  0  0  0  0
  190.3210  176.9340  140.8970 C   0  0  0  0  0  2  0  0  0  0  0  0
  187.8630  176.0600  143.7140 C   0  0  0  0  0  2  0  0  0  0  0  0
  187.6880  177.4540  144.3260 C   0  0  0  0  0  0  0  0  0  0  0  0
  186.3470  177.5060  145.0250 C   0  0  0  0  0  1  0  0  0  0  0  0
  188.9590  178.4220  142.3550 C   0  0  0  0  0  2  0  0  0  0  0  0
  189.1130  175.9770  142.8370 C   0  0  0  0  0  2  0  0  0  0  0  0
  189.0590  177.0290  141.7360 C   0  0  0  0  0  3  0  0  0  0  0  0
  188.7730  177.7230  145.3580 C   0  0  0  0  0  1  0  0  0  0  0  0
  187.7100  178.5290  143.2350 C   0  0  0  0  0  2  0  0  0  0  0  0
  188.2170  176.8080  137.6230 C   0  0  1  0  0  3  0  0  0  0  0  0
  183.9360  176.2280  137.5940 C   0  0  0  0  0  0  0  0  0  0  0  0
  186.1740  175.3240  137.3320 C   0  0  0  0  0  0  0  0  0  0  0  0
  184.4720  177.4910  137.8510 C   0  0  0  0  0  3  0  0  0  0  0  0
  182.2010  175.9990  137.5900 Cl  0  0  0  0  0  0  0  0  0  0  0  0
  186.7230  176.5940  137.6190 C   0  0  0  0  0  0  0  0  0  0  0  0
  184.7870  175.1490  137.3310 C   0  0  0  0  0  3  0  0  0  0  0  0
  185.8570  177.6720  137.8620 C   0  0  0  0  0  3  0  0  0  0  0  0
  187.0370  174.1600  136.9820 C   0  0  0  0  0  1  0  0  0  0  0  0
  189.6120  177.0230  135.6370 O   0  0  0  0  0  0  0  0  0  0  0  0
  188.3340  177.2660  135.0920 C   0  0  0  0  0  2  0  0  0  0  0  0
  188.6920  177.6940  136.4590 C   0  0  1  0  0  0  0  0  0  0  0  0
  189.0740  179.1570  136.6390 C   0  0  0  0  0  2  0  0  0  0  0  0
  187.9520  179.9160  136.9630 O   0  0  0  0  0  1  0  0  0  0  0  0
  1  3  1  0  0  0  0
  1  2  2  0  0  0  0
  3 21  1  0  0  0  0
  4  7  1  0  0  0  0
  5  4  1  0  0  0  0
  5 14  1  0  0  0  0
  7 12  1  0  0  0  0
  7 10  1  1  0  0  0
  8  5  2  0  0  0  0
  9 12  1  0  0  0  0
 11 13  1  0  0  0  0
 11 15  1  1  0  0  0
 11  8  1  0  0  0  0
 12  3  1  6  0  0  0
 13  6  1  0  0  0  0
 14  6  1  6  0  0  0
 14  9  1  0  0  0  0
 16 15  1  0  0  0  0
 16 17  1  0  0  0  0
 17 18  1  0  0  0  0
 18 20  1  0  0  0  0
 20 19  1  0  0  0  0
 21 27  1  0  0  0  0
 22 23  1  0  0  0  0
 23 24  1  0  0  0  0
 23 28  1  0  0  0  0
 25 29  1  0  0  0  0
 26 22  1  0  0  0  0
 27 25  1  0  0  0  0
 27 26  1  0  0  0  0
 29 23  1  0  0  0  0
 30  1  1  1  0  0  0
 31 33  1  0  0  0  0
 32 35  2  0  0  0  0
 33 37  2  0  0  0  0
 34 31  1  0  0  0  0
 35 30  1  0  0  0  0
 35 37  1  0  0  0  0
 36 32  1  0  0  0  0
 36 31  2  0  0  0  0
 38 32  1  0  0  0  0
 39 41  1  0  0  0  0
 40 39  1  0  0  0  0
 40 41  1  0  0  0  0
 41 42  1  1  0  0  0
 41 30  1  0  0  0  0
 42 43  1  0  0  0  0
M  END
>  <MODEL>
4

>  <REMARK>
 VINA RESULT:      -5.7      1.570      2.032
  Name = 
  12 active torsions:
  status: ('A' for Active; 'I' for Inactive)
    1  A    between atoms: C_1  and  N_34
    2  A    between atoms: C_1  and  C_35
    3  A    between atoms: C_2  and  C_27
    4  A    between atoms: C_8  and  C_30
    5  A    between atoms: C_11  and  C_22
    6  A    between atoms: C_11  and  C_36
    7  A    between atoms: C_21  and  C_30
    8  A    between atoms: C_27  and  C_30
    9  A    between atoms: O_29  and  C_31
   10  A    between atoms: O_29  and  C_36
   11  A    between atoms: C_31  and  C_40
   12  A    between atoms: N_34  and  C_38
                            x       y       z     vdW  Elec       q    Type
                         _______ _______ _______ _____ _____    ______ ____

>  <TORSDO>
F 12

$$$$
=
 OpenBabel10272414143D

 43 47  0  0  1  0  0  0  0  0999 V2000
  187.1170  177.4430  137.7960 C   0  0  0  0  0  0  0  0  0  0  0  0
  186.0930  178.1800  137.7710 O   0  0  0  0  0  0  0  0  0  0  0  0
  188.1610  177.7100  138.7570 N   0  0  0  0  0  0  0  0  0  0  0  0
  191.6470  176.9150  139.8390 O   0  0  0  0  0  0  0  0  0  0  0  0
  192.1130  176.3950  138.6300 C   0  0  0  0  0  0  0  0  0  0  0  0
  191.6450  175.8700  136.1450 C   0  0  0  0  0  2  0  0  0  0  0  0
  190.3190  177.4300  139.9630 C   0  0  2  0  0  3  0  0  0  0  0  0
  193.4180  176.1930  138.4490 C   0  0  0  0  0  3  0  0  0  0  0  0
  190.0840  177.0630  137.5660 O   0  0  0  0  0  0  0  0  0  0  0  0
  189.7390  177.0200  141.3000 C   0  0  0  0  0  1  0  0  0  0  0  0
  193.9550  175.6560  137.1570 C   0  0  2  0  0  3  0  0  0  0  0  0
  189.4160  176.9600  138.8020 C   0  0  2  0  0  3  0  0  0  0  0  0
  193.1320  176.2180  135.9970 C   0  0  0  0  0  2  0  0  0  0  0  0
  191.0860  176.0790  137.5640 C   0  0  2  0  0  3  0  0  0  0  0  0
  193.9460  174.1330  137.1470 C   0  0  0  0  0  2  0  0  0  0  0  0
  195.3630  173.5940  137.0590 C   0  0  0  0  0  2  0  0  0  0  0  0
  196.2020  174.3400  137.8870 O   0  0  0  0  0  0  0  0  0  0  0  0
  197.4280  174.3630  137.2160 C   0  0  0  0  0  2  0  0  0  0  0  0
  197.2960  176.3830  135.9530 O   0  0  0  0  0  1  0  0  0  0  0  0
  197.2570  174.9920  135.8450 C   0  0  0  0  0  2  0  0  0  0  0  0
  187.9030  178.6200  139.8670 C   0  0  0  0  0  2  0  0  0  0  0  0
  185.8590  177.6790  142.9780 C   0  0  0  0  0  2  0  0  0  0  0  0
  184.6690  178.6240  142.7830 C   0  0  0  0  0  0  0  0  0  0  0  0
  183.4690  178.0380  143.4950 C   0  0  0  0  0  1  0  0  0  0  0  0
  185.5520  179.1760  140.4690 C   0  0  0  0  0  2  0  0  0  0  0  0
  187.0670  178.1060  142.1420 C   0  0  0  0  0  2  0  0  0  0  0  0
  186.6900  178.1760  140.6670 C   0  0  0  0  0  3  0  0  0  0  0  0
  184.9640  179.9880  143.3910 C   0  0  0  0  0  1  0  0  0  0  0  0
  184.3300  178.7650  141.2950 C   0  0  0  0  0  2  0  0  0  0  0  0
  187.2100  176.2890  136.8270 C   0  0  1  0  0  3  0  0  0  0  0  0
  184.0120  173.4290  137.3280 C   0  0  0  0  0  0  0  0  0  0  0  0
  186.3810  173.9010  137.0910 C   0  0  0  0  0  0  0  0  0  0  0  0
  183.7250  174.7900  137.2210 C   0  0  0  0  0  3  0  0  0  0  0  0
  182.7120  172.2760  137.5370 Cl  0  0  0  0  0  0  0  0  0  0  0  0
  186.1000  175.2830  137.0100 C   0  0  0  0  0  0  0  0  0  0  0  0
  185.3370  172.9860  137.2580 C   0  0  0  0  0  3  0  0  0  0  0  0
  184.7640  175.7110  137.0630 C   0  0  0  0  0  3  0  0  0  0  0  0
  187.7700  173.3760  136.9570 C   0  0  0  0  0  1  0  0  0  0  0  0
  188.6450  177.2940  135.1340 O   0  0  0  0  0  0  0  0  0  0  0  0
  188.4160  176.0230  134.5670 C   0  0  0  0  0  2  0  0  0  0  0  0
  187.3830  176.7200  135.3610 C   0  0  1  0  0  0  0  0  0  0  0  0
  186.2950  177.4440  134.5800 C   0  0  0  0  0  2  0  0  0  0  0  0
  186.6620  178.7670  134.3490 O   0  0  0  0  0  1  0  0  0  0  0  0
  1  3  1  0  0  0  0
  2  1  2  0  0  0  0
  3 21  1  0  0  0  0
  4  7  1  0  0  0  0
  5  4  1  0  0  0  0
  7 10  1  1  0  0  0
  8  5  2  0  0  0  0
  9 12  1  0  0  0  0
 11 15  1  1  0  0  0
 11  8  1  0  0  0  0
 12  3  1  6  0  0  0
 12  7  1  0  0  0  0
 13  6  1  0  0  0  0
 13 11  1  0  0  0  0
 14  6  1  6  0  0  0
 14  9  1  0  0  0  0
 14  5  1  0  0  0  0
 16 15  1  0  0  0  0
 16 17  1  0  0  0  0
 18 17  1  0  0  0  0
 20 19  1  0  0  0  0
 20 18  1  0  0  0  0
 21 27  1  0  0  0  0
 23 22  1  0  0  0  0
 23 28  1  0  0  0  0
 23 24  1  0  0  0  0
 25 27  1  0  0  0  0
 25 29  1  0  0  0  0
 26 22  1  0  0  0  0
 27 26  1  0  0  0  0
 29 23  1  0  0  0  0
 30 35  1  0  0  0  0
 30  1  1  1  0  0  0
 31 34  1  0  0  0  0
 32 36  2  0  0  0  0
 33 31  2  0  0  0  0
 35 37  2  0  0  0  0
 35 32  1  0  0  0  0
 36 31  1  0  0  0  0
 37 33  1  0  0  0  0
 38 32  1  0  0  0  0
 39 41  1  0  0  0  0
 40 39  1  0  0  0  0
 40 41  1  0  0  0  0
 41 42  1  6  0  0  0
 41 30  1  0  0  0  0
 43 42  1  0  0  0  0
M  END
>  <MODEL>
5

>  <REMARK>
 VINA RESULT:      -5.7      2.218      3.212
  Name = 
  12 active torsions:
  status: ('A' for Active; 'I' for Inactive)
    1  A    between atoms: C_1  and  N_34
    2  A    between atoms: C_1  and  C_35
    3  A    between atoms: C_2  and  C_27
    4  A    between atoms: C_8  and  C_30
    5  A    between atoms: C_11  and  C_22
    6  A    between atoms: C_11  and  C_36
    7  A    between atoms: C_21  and  C_30
    8  A    between atoms: C_27  and  C_30
    9  A    between atoms: O_29  and  C_31
   10  A    between atoms: O_29  and  C_36
   11  A    between atoms: C_31  and  C_40
   12  A    between atoms: N_34  and  C_38
                            x       y       z     vdW  Elec       q    Type
                         _______ _______ _______ _____ _____    ______ ____

>  <TORSDO>
F 12

$$$$
=
 OpenBabel10272414143D

 43 47  0  0  1  0  0  0  0  0999 V2000
  186.0570  177.7540  137.5960 C   0  0  0  0  0  0  0  0  0  0  0  0
  185.6240  178.8010  138.1510 O   0  0  0  0  0  0  0  0  0  0  0  0
  187.4710  177.4620  137.6370 N   0  0  0  0  0  0  0  0  0  0  0  0
  188.7610  175.4850  134.7410 O   0  0  0  0  0  0  0  0  0  0  0  0
  188.3830  174.2180  135.1860 C   0  0  0  0  0  0  0  0  0  0  0  0
  187.1940  172.7890  136.9790 C   0  0  0  0  0  2  0  0  0  0  0  0
  188.4500  176.6600  135.4950 C   0  0  2  0  0  3  0  0  0  0  0  0
  188.4170  173.1790  134.3500 C   0  0  0  0  0  3  0  0  0  0  0  0
  187.1960  175.2130  137.0010 O   0  0  0  0  0  0  0  0  0  0  0  0
  189.6250  177.6150  135.4530 C   0  0  0  0  0  1  0  0  0  0  0  0
  187.9990  171.8090  134.7880 C   0  0  2  0  0  3  0  0  0  0  0  0
  188.0690  176.3170  136.9510 C   0  0  2  0  0  3  0  0  0  0  0  0
  186.8270  171.9270  135.7630 C   0  0  0  0  0  2  0  0  0  0  0  0
  187.9460  174.0860  136.6280 C   0  0  2  0  0  3  0  0  0  0  0  0
  189.1610  171.0520  135.4180 C   0  0  0  0  0  2  0  0  0  0  0  0
  189.9640  170.3290  134.3530 C   0  0  0  0  0  2  0  0  0  0  0  0
  191.3120  170.3060  134.7140 O   0  0  0  0  0  0  0  0  0  0  0  0
  191.6490  171.6490  134.9000 C   0  0  0  0  0  2  0  0  0  0  0  0
  193.5770  172.9850  135.3370 O   0  0  0  0  0  1  0  0  0  0  0  0
  192.9810  171.7550  135.6200 C   0  0  0  0  0  2  0  0  0  0  0  0
  188.3340  178.2030  138.5500 C   0  0  0  0  0  2  0  0  0  0  0  0
  190.0300  176.5600  141.5770 C   0  0  0  0  0  2  0  0  0  0  0  0
  189.3840  177.3850  142.6960 C   0  0  0  0  0  0  0  0  0  0  0  0
  189.3970  176.5630  143.9670 C   0  0  0  0  0  1  0  0  0  0  0  0
  187.8120  178.3890  140.9770 C   0  0  0  0  0  2  0  0  0  0  0  0
  189.8980  177.2450  140.2170 C   0  0  0  0  0  2  0  0  0  0  0  0
  188.4310  177.5050  139.8950 C   0  0  0  0  0  3  0  0  0  0  0  0
  190.1770  178.6590  142.9450 C   0  0  0  0  0  1  0  0  0  0  0  0
  187.9300  177.7190  142.3480 C   0  0  0  0  0  2  0  0  0  0  0  0
  185.0770  176.8250  136.9220 C   0  0  1  0  0  3  0  0  0  0  0  0
  181.6950  175.8740  139.4370 C   0  0  0  0  0  0  0  0  0  0  0  0
  183.2710  175.2190  137.7100 C   0  0  0  0  0  0  0  0  0  0  0  0
  182.2950  177.1310  139.5130 C   0  0  0  0  0  3  0  0  0  0  0  0
  180.3290  175.4930  140.4630 Cl  0  0  0  0  0  0  0  0  0  0  0  0
  183.9000  176.4810  137.8020 C   0  0  0  0  0  0  0  0  0  0  0  0
  182.1800  174.9220  138.5330 C   0  0  0  0  0  3  0  0  0  0  0  0
  183.3900  177.4320  138.7000 C   0  0  0  0  0  3  0  0  0  0  0  0
  183.7100  174.1970  136.7180 C   0  0  0  0  0  1  0  0  0  0  0  0
  185.6670  178.0130  134.8790 O   0  0  0  0  0  0  0  0  0  0  0  0
  185.3960  176.7260  134.3690 C   0  0  0  0  0  2  0  0  0  0  0  0
  184.6520  177.2820  135.5170 C   0  0  1  0  0  0  0  0  0  0  0  0
  183.2770  177.8680  135.2210 C   0  0  0  0  0  2  0  0  0  0  0  0
  182.4470  176.9000  134.6620 O   0  0  0  0  0  1  0  0  0  0  0  0
  1  3  1  0  0  0  0
  1  2  2  0  0  0  0
  3 21  1  0  0  0  0
  4  5  1  0  0  0  0
  4  7  1  0  0  0  0
  5 14  1  0  0  0  0
  7 10  1  1  0  0  0
  7 12  1  0  0  0  0
  8 11  1  0  0  0  0
  8  5  2  0  0  0  0
 11 15  1  1  0  0  0
 11 13  1  0  0  0  0
 12  9  1  0  0  0  0
 12  3  1  6  0  0  0
 13  6  1  0  0  0  0
 14  6  1  6  0  0  0
 14  9  1  0  0  0  0
 16 17  1  0  0  0  0
 16 15  1  0  0  0  0
 17 18  1  0  0  0  0
 18 20  1  0  0  0  0
 19 20  1  0  0  0  0
 21 27  1  0  0  0  0
 22 23  1  0  0  0  0
 23 28  1  0  0  0  0
 23 24  1  0  0  0  0
 25 29  1  0  0  0  0
 26 22  1  0  0  0  0
 27 26  1  0  0  0  0
 27 25  1  0  0  0  0
 29 23  1  0  0  0  0
 30  1  1  1  0  0  0
 30 35  1  0  0  0  0
 31 33  1  0  0  0  0
 31 34  1  0  0  0  0
 32 35  2  0  0  0  0
 32 36  1  0  0  0  0
 35 37  1  0  0  0  0
 36 31  2  0  0  0  0
 37 33  2  0  0  0  0
 38 32  1  0  0  0  0
 39 41  1  0  0  0  0
 40 39  1  0  0  0  0
 40 41  1  0  0  0  0
 41 42  1  6  0  0  0
 41 30  1  0  0  0  0
 43 42  1  0  0  0  0
M  END
>  <MODEL>
6

>  <REMARK>
 VINA RESULT:      -5.6      2.602      4.392
  Name = 
  12 active torsions:
  status: ('A' for Active; 'I' for Inactive)
    1  A    between atoms: C_1  and  N_34
    2  A    between atoms: C_1  and  C_35
    3  A    between atoms: C_2  and  C_27
    4  A    between atoms: C_8  and  C_30
    5  A    between atoms: C_11  and  C_22
    6  A    between atoms: C_11  and  C_36
    7  A    between atoms: C_21  and  C_30
    8  A    between atoms: C_27  and  C_30
    9  A    between atoms: O_29  and  C_31
   10  A    between atoms: O_29  and  C_36
   11  A    between atoms: C_31  and  C_40
   12  A    between atoms: N_34  and  C_38
                            x       y       z     vdW  Elec       q    Type
                         _______ _______ _______ _____ _____    ______ ____

>  <TORSDO>
F 12

$$$$
=
 OpenBabel10272414143D

 43 47  0  0  1  0  0  0  0  0999 V2000
  186.0250  177.4940  137.1880 C   0  0  0  0  0  0  0  0  0  0  0  0
  184.9770  177.5920  136.4920 O   0  0  0  0  0  0  0  0  0  0  0  0
  186.2510  178.4270  138.2670 N   0  0  0  0  0  0  0  0  0  0  0  0
  189.8880  177.9710  138.9880 O   0  0  0  0  0  0  0  0  0  0  0  0
  189.7740  177.5540  140.3150 C   0  0  0  0  0  0  0  0  0  0  0  0
  188.2310  176.9360  142.2920 C   0  0  0  0  0  2  0  0  0  0  0  0
  188.7310  178.2500  138.1950 C   0  0  2  0  0  3  0  0  0  0  0  0
  190.8250  177.0240  140.9420 C   0  0  0  0  0  3  0  0  0  0  0  0
  187.4020  177.4520  140.0740 O   0  0  0  0  0  0  0  0  0  0  0  0
  188.9850  179.4740  137.3400 C   0  0  0  0  0  1  0  0  0  0  0  0
  190.7310  176.5470  142.3590 C   0  0  2  0  0  3  0  0  0  0  0  0
  187.4740  178.4380  139.0700 C   0  0  2  0  0  3  0  0  0  0  0  0
  189.3510  175.9320  142.5930 C   0  0  0  0  0  2  0  0  0  0  0  0
  188.4300  177.7300  140.9890 C   0  0  2  0  0  3  0  0  0  0  0  0
  191.0000  177.6800  143.3420 C   0  0  0  0  0  2  0  0  0  0  0  0
  190.9910  177.1600  144.7670 C   0  0  0  0  0  2  0  0  0  0  0  0
  190.1310  177.9350  145.5460 O   0  0  0  0  0  0  0  0  0  0  0  0
  189.3100  177.0080  146.1920 C   0  0  0  0  0  2  0  0  0  0  0  0
  187.2810  178.0150  145.4410 O   0  0  0  0  0  1  0  0  0  0  0  0
  187.9980  177.6620  146.5850 C   0  0  0  0  0  2  0  0  0  0  0  0
  185.1570  179.2740  138.7290 C   0  0  0  0  0  2  0  0  0  0  0  0
  182.6430  177.9740  141.3230 C   0  0  0  0  0  2  0  0  0  0  0  0
  181.3460  178.1940  140.5370 C   0  0  0  0  0  0  0  0  0  0  0  0
  180.3020  177.2270  141.0540 C   0  0  0  0  0  1  0  0  0  0  0  0
  182.7400  178.7290  138.4860 C   0  0  0  0  0  2  0  0  0  0  0  0
  183.8020  178.7870  140.7460 C   0  0  0  0  0  2  0  0  0  0  0  0
  184.0140  178.4370  139.2770 C   0  0  0  0  0  3  0  0  0  0  0  0
  180.8280  179.6100  140.7460 C   0  0  0  0  0  1  0  0  0  0  0  0
  181.5660  177.9210  139.0450 C   0  0  0  0  0  2  0  0  0  0  0  0
  187.0040  176.3850  136.8840 C   0  0  1  0  0  3  0  0  0  0  0  0
  185.1030  172.5110  136.6780 C   0  0  0  0  0  0  0  0  0  0  0  0
  187.0910  173.8510  137.0630 C   0  0  0  0  0  0  0  0  0  0  0  0
  184.3700  173.6670  136.4110 C   0  0  0  0  0  3  0  0  0  0  0  0
  184.3260  170.9450  136.5990 Cl  0  0  0  0  0  0  0  0  0  0  0  0
  186.3460  175.0270  136.8220 C   0  0  0  0  0  0  0  0  0  0  0  0
  186.4620  172.6030  136.9980 C   0  0  0  0  0  3  0  0  0  0  0  0
  184.9880  174.9170  136.4830 C   0  0  0  0  0  3  0  0  0  0  0  0
  188.5540  173.8950  137.3450 C   0  0  0  0  0  1  0  0  0  0  0  0
  187.2930  176.2560  134.4680 O   0  0  0  0  0  0  0  0  0  0  0  0
  187.4130  177.6460  134.6770 C   0  0  0  0  0  2  0  0  0  0  0  0
  187.9010  176.6650  135.6670 C   0  0  1  0  0  0  0  0  0  0  0  0
  189.3950  176.3720  135.6590 C   0  0  0  0  0  2  0  0  0  0  0  0
  189.6950  175.4010  134.7070 O   0  0  0  0  0  1  0  0  0  0  0  0
  1  3  1  0  0  0  0
  2  1  2  0  0  0  0
  3 21  1  0  0  0  0
  4  5  1  0  0  0  0
  5  8  2  0  0  0  0
  5 14  1  0  0  0  0
  6 13  1  0  0  0  0
  7 10  1  1  0  0  0
  7  4  1  0  0  0  0
  7 12  1  0  0  0  0
  8 11  1  0  0  0  0
  9 14  1  0  0  0  0
 11 13  1  0  0  0  0
 11 15  1  1  0  0  0
 12  3  1  6  0  0  0
 12  9  1  0  0  0  0
 14  6  1  1  0  0  0
 15 16  1  0  0  0  0
 16 17  1  0  0  0  0
 17 18  1  0  0  0  0
 18 20  1  0  0  0  0
 19 20  1  0  0  0  0
 21 27  1  0  0  0  0
 23 28  1  0  0  0  0
 23 24  1  0  0  0  0
 23 22  1  0  0  0  0
 25 29  1  0  0  0  0
 25 27  1  0  0  0  0
 26 22  1  0  0  0  0
 27 26  1  0  0  0  0
 29 23  1  0  0  0  0
 30  1  1  6  0  0  0
 31 36  1  0  0  0  0
 32 38  1  0  0  0  0
 33 37  1  0  0  0  0
 33 31  2  0  0  0  0
 34 31  1  0  0  0  0
 35 30  1  0  0  0  0
 35 32  1  0  0  0  0
 36 32  2  0  0  0  0
 37 35  2  0  0  0  0
 39 40  1  0  0  0  0
 39 41  1  0  0  0  0
 40 41  1  0  0  0  0
 41 42  1  1  0  0  0
 41 30  1  0  0  0  0
 43 42  1  0  0  0  0
M  END
>  <MODEL>
7

>  <REMARK>
 VINA RESULT:      -5.3      3.878      6.465
  Name = 
  12 active torsions:
  status: ('A' for Active; 'I' for Inactive)
    1  A    between atoms: C_1  and  N_34
    2  A    between atoms: C_1  and  C_35
    3  A    between atoms: C_2  and  C_27
    4  A    between atoms: C_8  and  C_30
    5  A    between atoms: C_11  and  C_22
    6  A    between atoms: C_11  and  C_36
    7  A    between atoms: C_21  and  C_30
    8  A    between atoms: C_27  and  C_30
    9  A    between atoms: O_29  and  C_31
   10  A    between atoms: O_29  and  C_36
   11  A    between atoms: C_31  and  C_40
   12  A    between atoms: N_34  and  C_38
                            x       y       z     vdW  Elec       q    Type
                         _______ _______ _______ _____ _____    ______ ____

>  <TORSDO>
F 12

$$$$
=
 OpenBabel10272414143D

 43 47  0  0  1  0  0  0  0  0999 V2000
  185.2070  175.4240  137.4760 C   0  0  0  0  0  0  0  0  0  0  0  0
  184.1780  175.0540  138.1040 O   0  0  0  0  0  0  0  0  0  0  0  0
  186.2660  174.4750  137.2230 N   0  0  0  0  0  0  0  0  0  0  0  0
  188.7950  174.6320  134.4780 O   0  0  0  0  0  0  0  0  0  0  0  0
  189.9440  174.5840  135.2680 C   0  0  0  0  0  0  0  0  0  0  0  0
  190.9740  174.3660  137.6260 C   0  0  0  0  0  2  0  0  0  0  0  0
  187.4900  174.5560  135.0590 C   0  0  2  0  0  3  0  0  0  0  0  0
  191.1330  174.3630  134.7050 C   0  0  0  0  0  3  0  0  0  0  0  0
  188.5980  174.1630  137.1930 O   0  0  0  0  0  0  0  0  0  0  0  0
  186.5620  175.5200  134.3510 C   0  0  0  0  0  1  0  0  0  0  0  0
  192.3840  174.2850  135.5260 C   0  0  2  0  0  3  0  0  0  0  0  0
  187.5270  174.8380  136.5770 C   0  0  2  0  0  3  0  0  0  0  0  0
  192.0690  173.6100  136.8620 C   0  0  0  0  0  2  0  0  0  0  0  0
  189.7770  174.7910  136.7580 C   0  0  2  0  0  3  0  0  0  0  0  0
  192.9920  175.6650  135.7390 C   0  0  0  0  0  2  0  0  0  0  0  0
  194.5070  175.5810  135.7590 C   0  0  0  0  0  2  0  0  0  0  0  0
  194.9510  175.3940  137.0690 O   0  0  0  0  0  0  0  0  0  0  0  0
  195.5210  174.1180  137.0680 C   0  0  0  0  0  2  0  0  0  0  0  0
  196.3300  175.0410  139.1140 O   0  0  0  0  0  1  0  0  0  0  0  0
  196.1900  173.8480  138.4040 C   0  0  0  0  0  2  0  0  0  0  0  0
  186.0220  173.0520  137.4280 C   0  0  0  0  0  2  0  0  0  0  0  0
  184.5100  170.9340  134.6050 C   0  0  0  0  0  2  0  0  0  0  0  0
  183.3110  170.3460  135.3560 C   0  0  0  0  0  0  0  0  0  0  0  0
  182.2400  169.9910  134.3480 C   0  0  0  0  0  1  0  0  0  0  0  0
  183.8060  171.9270  137.2780 C   0  0  0  0  0  2  0  0  0  0  0  0
  185.5670  171.4850  135.5630 C   0  0  0  0  0  2  0  0  0  0  0  0
  184.9540  172.5390  136.4770 C   0  0  0  0  0  3  0  0  0  0  0  0
  183.7120  169.0760  136.0920 C   0  0  0  0  0  1  0  0  0  0  0  0
  182.7330  171.3720  136.3370 C   0  0  0  0  0  2  0  0  0  0  0  0
  185.2910  176.8510  136.9870 C   0  0  1  0  0  3  0  0  0  0  0  0
  181.6090  179.0440  137.5280 C   0  0  0  0  0  0  0  0  0  0  0  0
  182.9830  177.5560  136.1890 C   0  0  0  0  0  0  0  0  0  0  0  0
  182.6180  179.1200  138.4880 C   0  0  0  0  0  3  0  0  0  0  0  0
  180.1170  179.9300  137.7560 Cl  0  0  0  0  0  0  0  0  0  0  0  0
  183.9970  177.6070  137.1710 C   0  0  0  0  0  0  0  0  0  0  0  0
  181.7940  178.2670  136.3790 C   0  0  0  0  0  3  0  0  0  0  0  0
  183.8050  178.4060  138.3090 C   0  0  0  0  0  3  0  0  0  0  0  0
  183.1600  176.7950  134.9200 C   0  0  0  0  0  1  0  0  0  0  0  0
  187.5950  177.5570  136.6340 O   0  0  0  0  0  0  0  0  0  0  0  0
  186.9510  178.8050  136.7590 C   0  0  0  0  0  2  0  0  0  0  0  0
  186.5090  177.6210  137.5220 C   0  0  1  0  0  0  0  0  0  0  0  0
  186.9710  177.5300  138.9710 C   0  0  0  0  0  2  0  0  0  0  0  0
  188.3170  177.1810  139.0300 O   0  0  0  0  0  1  0  0  0  0  0  0
  1  2  2  0  0  0  0
  3 21  1  0  0  0  0
  3  1  1  0  0  0  0
  4  7  1  0  0  0  0
  4  5  1  0  0  0  0
  5 14  1  0  0  0  0
  7 10  1  6  0  0  0
  7 12  1  0  0  0  0
  8  5  2  0  0  0  0
  8 11  1  0  0  0  0
 11 15  1  1  0  0  0
 11 13  1  0  0  0  0
 12  9  1  0  0  0  0
 12  3  1  1  0  0  0
 13  6  1  0  0  0  0
 14  9  1  0  0  0  0
 14  6  1  1  0  0  0
 15 16  1  0  0  0  0
 16 17  1  0  0  0  0
 18 17  1  0  0  0  0
 18 20  1  0  0  0  0
 20 19  1  0  0  0  0
 22 23  1  0  0  0  0
 22 26  1  0  0  0  0
 23 28  1  0  0  0  0
 23 29  1  0  0  0  0
 24 23  1  0  0  0  0
 26 27  1  0  0  0  0
 27 25  1  0  0  0  0
 27 21  1  0  0  0  0
 29 25  1  0  0  0  0
 30 35  1  0  0  0  0
 30  1  1  1  0  0  0
 30 41  1  0  0  0  0
 31 34  1  0  0  0  0
 31 33  1  0  0  0  0
 32 36  1  0  0  0  0
 32 35  2  0  0  0  0
 35 37  1  0  0  0  0
 36 31  2  0  0  0  0
 37 33  2  0  0  0  0
 38 32  1  0  0  0  0
 39 40  1  0  0  0  0
 39 41  1  0  0  0  0
 40 41  1  0  0  0  0
 41 42  1  1  0  0  0
 42 43  1  0  0  0  0
M  END
>  <MODEL>
8

>  <REMARK>
 VINA RESULT:      -5.1      3.334      6.523
  Name = 
  12 active torsions:
  status: ('A' for Active; 'I' for Inactive)
    1  A    between atoms: C_1  and  N_34
    2  A    between atoms: C_1  and  C_35
    3  A    between atoms: C_2  and  C_27
    4  A    between atoms: C_8  and  C_30
    5  A    between atoms: C_11  and  C_22
    6  A    between atoms: C_11  and  C_36
    7  A    between atoms: C_21  and  C_30
    8  A    between atoms: C_27  and  C_30
    9  A    between atoms: O_29  and  C_31
   10  A    between atoms: O_29  and  C_36
   11  A    between atoms: C_31  and  C_40
   12  A    between atoms: N_34  and  C_38
                            x       y       z     vdW  Elec       q    Type
                         _______ _______ _______ _____ _____    ______ ____

>  <TORSDO>
F 12

$$$$
=
 OpenBabel10272414143D

 43 47  0  0  1  0  0  0  0  0999 V2000
  184.2640  178.9060  138.3290 C   0  0  0  0  0  0  0  0  0  0  0  0
  184.9430  179.9610  138.4690 O   0  0  0  0  0  0  0  0  0  0  0  0
  184.6970  177.9040  137.3850 N   0  0  0  0  0  0  0  0  0  0  0  0
  182.4060  175.6650  135.4620 O   0  0  0  0  0  0  0  0  0  0  0  0
  181.7850  175.0430  136.5460 C   0  0  0  0  0  0  0  0  0  0  0  0
  181.5170  174.8600  139.1080 C   0  0  0  0  0  2  0  0  0  0  0  0
  183.3850  176.6900  135.6540 C   0  0  2  0  0  3  0  0  0  0  0  0
  180.6860  174.3140  136.3570 C   0  0  0  0  0  3  0  0  0  0  0  0
  182.8870  176.5480  138.0350 O   0  0  0  0  0  0  0  0  0  0  0  0
  184.5070  176.5150  134.6520 C   0  0  0  0  0  1  0  0  0  0  0  0
  179.9820  173.6480  137.5010 C   0  0  2  0  0  3  0  0  0  0  0  0
  183.9300  176.6910  137.0990 C   0  0  2  0  0  3  0  0  0  0  0  0
  180.0610  174.5500  138.7330 C   0  0  0  0  0  2  0  0  0  0  0  0
  182.4100  175.2320  137.9110 C   0  0  2  0  0  3  0  0  0  0  0  0
  180.5730  172.2740  137.7880 C   0  0  0  0  0  2  0  0  0  0  0  0
  181.0780  171.6350  136.5070 C   0  0  0  0  0  2  0  0  0  0  0  0
  182.3920  171.2000  136.6840 O   0  0  0  0  0  0  0  0  0  0  0  0
  182.8170  170.8350  135.4040 C   0  0  0  0  0  2  0  0  0  0  0  0
  185.1710  170.6450  135.0690 O   0  0  0  0  0  1  0  0  0  0  0  0
  184.0420  169.9450  135.4980 C   0  0  0  0  0  2  0  0  0  0  0  0
  186.0420  177.9740  136.8240 C   0  0  0  0  0  2  0  0  0  0  0  0
  188.7680  175.8700  138.5230 C   0  0  0  0  0  2  0  0  0  0  0  0
  189.8660  176.9340  138.6290 C   0  0  0  0  0  0  0  0  0  0  0  0
  190.7820  176.5660  139.7760 C   0  0  0  0  0  1  0  0  0  0  0  0
  188.1760  178.6780  137.8960 C   0  0  0  0  0  2  0  0  0  0  0  0
  187.6970  176.2590  137.5030 C   0  0  0  0  0  2  0  0  0  0  0  0
  187.0860  177.6080  137.8650 C   0  0  0  0  0  3  0  0  0  0  0  0
  190.6950  176.9750  137.3530 C   0  0  0  0  0  1  0  0  0  0  0  0
  189.2580  178.3110  138.9150 C   0  0  0  0  0  2  0  0  0  0  0  0
  183.0270  178.7160  139.1730 C   0  0  1  0  0  3  0  0  0  0  0  0
  183.8900  178.8120  143.4050 C   0  0  0  0  0  0  0  0  0  0  0  0
  182.3260  178.3970  141.5950 C   0  0  0  0  0  0  0  0  0  0  0  0
  184.8690  179.1780  142.4810 C   0  0  0  0  0  3  0  0  0  0  0  0
  184.2480  178.8480  145.1180 Cl  0  0  0  0  0  0  0  0  0  0  0  0
  183.3220  178.7390  140.6540 C   0  0  0  0  0  0  0  0  0  0  0  0
  182.6200  178.4270  142.9620 C   0  0  0  0  0  3  0  0  0  0  0  0
  184.5860  179.1410  141.1140 C   0  0  0  0  0  3  0  0  0  0  0  0
  180.9400  178.0430  141.1750 C   0  0  0  0  0  1  0  0  0  0  0  0
  181.6080  179.6080  137.4060 O   0  0  0  0  0  0  0  0  0  0  0  0
  180.6440  179.0080  138.2440 C   0  0  0  0  0  2  0  0  0  0  0  0
  181.8620  179.6420  138.7870 C   0  0  1  0  0  0  0  0  0  0  0  0
  181.7090  181.0510  139.3450 C   0  0  0  0  0  2  0  0  0  0  0  0
  181.8150  181.9920  138.3240 O   0  0  0  0  0  1  0  0  0  0  0  0
  1  2  2  0  0  0  0
  3  1  1  0  0  0  0
  4  7  1  0  0  0  0
  4  5  1  0  0  0  0
  5 14  1  0  0  0  0
  7 10  1  6  0  0  0
  7 12  1  0  0  0  0
  8  5  2  0  0  0  0
  8 11  1  0  0  0  0
 11 15  1  1  0  0  0
 11 13  1  0  0  0  0
 12  3  1  1  0  0  0
 12  9  1  0  0  0  0
 13  6  1  0  0  0  0
 14  9  1  0  0  0  0
 14  6  1  1  0  0  0
 16 17  1  0  0  0  0
 16 15  1  0  0  0  0
 18 20  1  0  0  0  0
 18 17  1  0  0  0  0
 19 20  1  0  0  0  0
 21  3  1  0  0  0  0
 21 27  1  0  0  0  0
 22 23  1  0  0  0  0
 23 29  1  0  0  0  0
 23 24  1  0  0  0  0
 25 29  1  0  0  0  0
 26 27  1  0  0  0  0
 26 22  1  0  0  0  0
 27 25  1  0  0  0  0
 28 23  1  0  0  0  0
 30  1  1  6  0  0  0
 30 35  1  0  0  0  0
 31 34  1  0  0  0  0
 32 36  2  0  0  0  0
 33 31  2  0  0  0  0
 35 37  2  0  0  0  0
 35 32  1  0  0  0  0
 36 31  1  0  0  0  0
 37 33  1  0  0  0  0
 38 32  1  0  0  0  0
 39 40  1  0  0  0  0
 39 41  1  0  0  0  0
 40 41  1  0  0  0  0
 41 30  1  0  0  0  0
 41 42  1  1  0  0  0
 43 42  1  0  0  0  0
M  END
>  <MODEL>
9

>  <REMARK>
 VINA RESULT:      -5.1      5.190      9.174
  Name = 
  12 active torsions:
  status: ('A' for Active; 'I' for Inactive)
    1  A    between atoms: C_1  and  N_34
    2  A    between atoms: C_1  and  C_35
    3  A    between atoms: C_2  and  C_27
    4  A    between atoms: C_8  and  C_30
    5  A    between atoms: C_11  and  C_22
    6  A    between atoms: C_11  and  C_36
    7  A    between atoms: C_21  and  C_30
    8  A    between atoms: C_27  and  C_30
    9  A    between atoms: O_29  and  C_31
   10  A    between atoms: O_29  and  C_36
   11  A    between atoms: C_31  and  C_40
   12  A    between atoms: N_34  and  C_38
                            x       y       z     vdW  Elec       q    Type
                         _______ _______ _______ _____ _____    ______ ____

>  <TORSDO>
F 12

$$$$
