=
 OpenBabel10272401583D

 28 32  0  0  1  0  0  0  0  0999 V2000
  190.1610  176.3980  143.7430 C   0  0  0  0  0  0  0  0  0  0  0  0
  185.3490  177.7250  143.1420 C   0  0  0  0  0  2  0  0  0  0  0  0
  189.0120  178.0290  148.2920 C   0  0  0  0  0  1  0  0  0  0  0  0
  184.7810  178.6310  145.4160 C   0  0  0  0  0  0  0  0  0  0  0  0
  187.0290  177.7810  145.0400 C   0  0  0  0  0  0  0  0  0  0  0  0
  183.1800  178.9180  143.5960 C   0  0  0  0  0  0  0  0  0  0  0  0
  185.7460  178.0810  144.5520 C   0  0  0  0  0  0  0  0  0  0  0  0
  186.3740  178.5980  147.2360 C   0  0  0  0  0  3  0  0  0  0  0  0
  183.4380  178.9520  144.9070 C   0  0  0  0  0  3  0  0  0  0  0  0
  189.5920  177.1980  145.9810 C   0  0  0  0  0  0  0  0  0  0  0  0
  187.9640  177.2380  144.2170 N   0  0  0  0  0  0  0  0  0  0  0  0
  185.0970  178.8850  146.7510 C   0  0  0  0  0  3  0  0  0  0  0  0
  191.8190  176.3470  145.5140 C   0  0  0  0  0  3  0  0  0  0  0  0
  188.6450  177.7540  146.8640 C   0  0  0  0  0  0  0  0  0  0  0  0
  190.8940  176.8920  146.4050 C   0  0  0  0  0  3  0  0  0  0  0  0
  181.8790  179.2530  143.1300 N   0  0  0  0  0  1  0  0  0  0  0  0
  184.2850  178.6850  142.6000 C   0  0  0  0  0  2  0  0  0  0  0  0
  187.3520  178.0500  146.3910 C   0  0  0  0  0  0  0  0  0  0  0  0
  191.4540  176.1030  144.1890 C   0  0  0  0  0  3  0  0  0  0  0  0
  189.2220  176.9450  144.6390 C   0  0  0  0  0  0  0  0  0  0  0  0
  189.8140  176.1460  142.3040 C   0  0  0  0  0  2  0  0  0  0  0  0
  190.0490  177.3630  141.4050 C   0  0  2  0  0  3  0  0  0  0  0  0
  190.1890  177.6730  139.0750 N   0  0  0  0  0  0  0  0  0  0  0  0
  188.8370  177.9190  140.9840 O   0  0  0  0  0  0  0  0  0  0  0  0
  192.2650  177.5180  140.3160 C   0  0  0  0  0  1  0  0  0  0  0  0
  190.8440  177.0090  140.1760 C   0  0  1  0  0  3  0  0  0  0  0  0
  189.6130  176.6350  138.2350 C   0  0  0  0  0  1  0  0  0  0  0  0
  189.0760  178.3930  139.6830 C   0  0  0  0  0  2  0  0  0  0  0  0
  1 19  2  0  0  0  0
  1 20  1  0  0  0  0
  2  7  1  0  0  0  0
  4 12  1  0  0  0  0
  5 18  1  0  0  0  0
  6  9  2  0  0  0  0
  7  5  1  0  0  0  0
  7  4  2  0  0  0  0
  9  4  1  0  0  0  0
 10 15  1  0  0  0  0
 10 14  1  0  0  0  0
 11 20  1  0  0  0  0
 11  5  2  0  0  0  0
 12  8  2  0  0  0  0
 13 15  2  0  0  0  0
 14  3  1  0  0  0  0
 16  6  1  0  0  0  0
 17  2  1  0  0  0  0
 17  6  1  0  0  0  0
 18 14  2  0  0  0  0
 18  8  1  0  0  0  0
 19 13  1  0  0  0  0
 20 10  2  0  0  0  0
 21  1  1  0  0  0  0
 22 21  1  6  0  0  0
 23 28  1  0  0  0  0
 23 26  1  0  0  0  0
 24 22  1  0  0  0  0
 26 25  1  1  0  0  0
 26 22  1  0  0  0  0
 27 23  1  0  0  0  0
 28 24  1  0  0  0  0
M  END
>  <MODEL>
1

>  <REMARK>
 VINA RESULT:     -12.3      0.000      0.000
  Name = 
  2 active torsions:
  status: ('A' for Active; 'I' for Inactive)
    1  A    between atoms: C_1  and  C_2
    2  A    between atoms: C_2  and  C_3
                            x       y       z     vdW  Elec       q    Type
                         _______ _______ _______ _____ _____    ______ ____

>  <TORSDO>
F 2

$$$$
=
 OpenBabel10272401583D

 28 32  0  0  1  0  0  0  0  0999 V2000
  189.4930  176.9900  142.0420 C   0  0  0  0  0  0  0  0  0  0  0  0
  184.6010  178.0430  142.5250 C   0  0  0  0  0  2  0  0  0  0  0  0
  189.1380  177.8050  146.9290 C   0  0  0  0  0  1  0  0  0  0  0  0
  184.4260  178.5400  144.9830 C   0  0  0  0  0  0  0  0  0  0  0  0
  186.6000  177.9240  144.0810 C   0  0  0  0  0  0  0  0  0  0  0  0
  182.5040  178.9910  143.5460 C   0  0  0  0  0  0  0  0  0  0  0  0
  185.2360  178.2030  143.8830 C   0  0  0  0  0  0  0  0  0  0  0  0
  186.3290  178.3400  146.4630 C   0  0  0  0  0  3  0  0  0  0  0  0
  183.0000  178.8390  144.7780 C   0  0  0  0  0  3  0  0  0  0  0  0
  189.3150  177.3890  144.4460 C   0  0  0  0  0  0  0  0  0  0  0  0
  187.3880  177.5840  143.0280 N   0  0  0  0  0  0  0  0  0  0  0  0
  184.9720  178.6060  146.2650 C   0  0  0  0  0  3  0  0  0  0  0  0
  191.4500  176.7830  143.4590 C   0  0  0  0  0  3  0  0  0  0  0  0
  188.5250  177.7300  145.5610 C   0  0  0  0  0  0  0  0  0  0  0  0
  190.6840  177.1150  144.5780 C   0  0  0  0  0  3  0  0  0  0  0  0
  181.1260  179.2990  143.3790 N   0  0  0  0  0  1  0  0  0  0  0  0
  183.4140  178.9960  142.3460 C   0  0  0  0  0  2  0  0  0  0  0  0
  187.1560  178.0020  145.3800 C   0  0  0  0  0  0  0  0  0  0  0  0
  190.8580  176.7230  142.1980 C   0  0  0  0  0  3  0  0  0  0  0  0
  188.7140  177.3210  143.1670 C   0  0  0  0  0  0  0  0  0  0  0  0
  188.8960  176.9400  140.6640 C   0  0  0  0  0  2  0  0  0  0  0  0
  189.6750  177.7700  139.6400 C   0  0  2  0  0  3  0  0  0  0  0  0
  189.8540  177.7220  137.2920 N   0  0  0  0  0  0  0  0  0  0  0  0
  188.8930  178.8150  139.1390 O   0  0  0  0  0  0  0  0  0  0  0  0
  191.6190  176.6680  138.5780 C   0  0  0  0  0  1  0  0  0  0  0  0
  190.1310  176.9360  138.4710 C   0  0  1  0  0  3  0  0  0  0  0  0
  188.7990  177.0360  136.5640 C   0  0  0  0  0  1  0  0  0  0  0  0
  189.2840  178.9640  137.7980 C   0  0  0  0  0  2  0  0  0  0  0  0
  1 19  2  0  0  0  0
  1 20  1  0  0  0  0
  2  7  1  0  0  0  0
  4 12  1  0  0  0  0
  5 18  1  0  0  0  0
  6  9  2  0  0  0  0
  7  5  1  0  0  0  0
  7  4  2  0  0  0  0
  9  4  1  0  0  0  0
 10 15  1  0  0  0  0
 10 14  1  0  0  0  0
 11 20  1  0  0  0  0
 11  5  2  0  0  0  0
 12  8  2  0  0  0  0
 13 15  2  0  0  0  0
 14  3  1  0  0  0  0
 16  6  1  0  0  0  0
 17  2  1  0  0  0  0
 17  6  1  0  0  0  0
 18 14  2  0  0  0  0
 18  8  1  0  0  0  0
 19 13  1  0  0  0  0
 20 10  2  0  0  0  0
 21  1  1  0  0  0  0
 22 21  1  1  0  0  0
 23 28  1  0  0  0  0
 23 26  1  0  0  0  0
 24 22  1  0  0  0  0
 26 25  1  1  0  0  0
 26 22  1  0  0  0  0
 27 23  1  0  0  0  0
 28 24  1  0  0  0  0
M  END
>  <MODEL>
2

>  <REMARK>
 VINA RESULT:     -11.1      1.177      1.519
  Name = 
  2 active torsions:
  status: ('A' for Active; 'I' for Inactive)
    1  A    between atoms: C_1  and  C_2
    2  A    between atoms: C_2  and  C_3
                            x       y       z     vdW  Elec       q    Type
                         _______ _______ _______ _____ _____    ______ ____

>  <TORSDO>
F 2

$$$$
=
 OpenBabel10272401583D

 28 32  0  0  1  0  0  0  0  0999 V2000
  187.1820  178.3610  141.0860 C   0  0  0  0  0  0  0  0  0  0  0  0
  190.5830  177.2570  144.6210 C   0  0  0  0  0  2  0  0  0  0  0  0
  184.4100  178.5190  145.2050 C   0  0  0  0  0  1  0  0  0  0  0  0
  189.1730  177.2510  146.7010 C   0  0  0  0  0  0  0  0  0  0  0  0
  188.0960  177.7500  144.5780 C   0  0  0  0  0  0  0  0  0  0  0  0
  191.4780  176.4590  146.8340 C   0  0  0  0  0  0  0  0  0  0  0  0
  189.2460  177.3910  145.3030 C   0  0  0  0  0  0  0  0  0  0  0  0
  186.8190  177.8070  146.6490 C   0  0  0  0  0  3  0  0  0  0  0  0
  190.3730  176.8690  147.4630 C   0  0  0  0  0  3  0  0  0  0  0  0
  185.8220  178.4410  143.1150 C   0  0  0  0  0  0  0  0  0  0  0  0
  188.1580  177.9020  143.2290 N   0  0  0  0  0  0  0  0  0  0  0  0
  187.9650  177.4600  147.3680 C   0  0  0  0  0  3  0  0  0  0  0  0
  184.8240  178.9110  140.9500 C   0  0  0  0  0  3  0  0  0  0  0  0
  185.7230  178.3000  144.5120 C   0  0  0  0  0  0  0  0  0  0  0  0
  184.7060  178.7810  142.3350 C   0  0  0  0  0  3  0  0  0  0  0  0
  192.6170  176.0760  147.5950 N   0  0  0  0  0  1  0  0  0  0  0  0
  191.4810  176.2480  145.3430 C   0  0  0  0  0  2  0  0  0  0  0  0
  186.8690  177.9510  145.2530 C   0  0  0  0  0  0  0  0  0  0  0  0
  186.0550  178.7000  140.3290 C   0  0  0  0  0  3  0  0  0  0  0  0
  187.0710  178.2330  142.4840 C   0  0  0  0  0  0  0  0  0  0  0  0
  188.4850  178.1160  140.3790 C   0  0  0  0  0  2  0  0  0  0  0  0
  188.3070  177.7000  138.9170 C   0  0  2  0  0  3  0  0  0  0  0  0
  189.7990  177.1280  137.1860 N   0  0  0  0  0  0  0  0  0  0  0  0
  188.2850  176.3070  138.7880 O   0  0  0  0  0  0  0  0  0  0  0  0
  188.9140  179.3850  137.2090 C   0  0  0  0  0  1  0  0  0  0  0  0
  189.4180  178.2250  138.0440 C   0  0  1  0  0  3  0  0  0  0  0  0
  191.1420  176.7300  137.5770 C   0  0  0  0  0  1  0  0  0  0  0  0
  188.9070  176.0370  137.5580 C   0  0  0  0  0  2  0  0  0  0  0  0
  1 20  1  0  0  0  0
  2  7  1  0  0  0  0
  2 17  1  0  0  0  0
  4 12  1  0  0  0  0
  4  9  1  0  0  0  0
  5 18  1  0  0  0  0
  5  7  1  0  0  0  0
  6  9  2  0  0  0  0
  6 16  1  0  0  0  0
  7  4  2  0  0  0  0
  8 12  2  0  0  0  0
 10 14  1  0  0  0  0
 11  5  2  0  0  0  0
 13 15  2  0  0  0  0
 14  3  1  0  0  0  0
 14 18  2  0  0  0  0
 15 10  1  0  0  0  0
 17  6  1  0  0  0  0
 18  8  1  0  0  0  0
 19 13  1  0  0  0  0
 19  1  2  0  0  0  0
 20 10  2  0  0  0  0
 20 11  1  0  0  0  0
 21  1  1  0  0  0  0
 22 21  1  1  0  0  0
 23 28  1  0  0  0  0
 23 27  1  0  0  0  0
 23 26  1  0  0  0  0
 24 22  1  0  0  0  0
 26 25  1  6  0  0  0
 26 22  1  0  0  0  0
 28 24  1  0  0  0  0
M  END
>  <MODEL>
3

>  <REMARK>
 VINA RESULT:     -11.0      1.920      5.340
  Name = 
  2 active torsions:
  status: ('A' for Active; 'I' for Inactive)
    1  A    between atoms: C_1  and  C_2
    2  A    between atoms: C_2  and  C_3
                            x       y       z     vdW  Elec       q    Type
                         _______ _______ _______ _____ _____    ______ ____

>  <TORSDO>
F 2

$$$$
=
 OpenBabel10272401583D

 28 32  0  0  1  0  0  0  0  0999 V2000
  189.0680  176.8220  143.3990 C   0  0  0  0  0  0  0  0  0  0  0  0
  184.4250  177.8710  141.7780 C   0  0  0  0  0  2  0  0  0  0  0  0
  186.9160  178.4650  147.5640 C   0  0  0  0  0  1  0  0  0  0  0  0
  183.3520  178.7830  143.8590 C   0  0  0  0  0  0  0  0  0  0  0  0
  185.6690  178.0530  143.9800 C   0  0  0  0  0  0  0  0  0  0  0  0
  182.1520  178.9510  141.7400 C   0  0  0  0  0  0  0  0  0  0  0  0
  184.5020  178.2730  143.2280 C   0  0  0  0  0  0  0  0  0  0  0  0
  184.5310  178.8690  145.9690 C   0  0  0  0  0  3  0  0  0  0  0  0
  182.1300  179.0220  143.0740 C   0  0  0  0  0  3  0  0  0  0  0  0
  188.0050  177.6280  145.4470 C   0  0  0  0  0  0  0  0  0  0  0  0
  186.7800  177.5470  143.3840 N   0  0  0  0  0  0  0  0  0  0  0  0
  183.3690  179.0780  145.2230 C   0  0  0  0  0  3  0  0  0  0  0  0
  190.3210  176.8930  145.4740 C   0  0  0  0  0  3  0  0  0  0  0  0
  186.8690  178.1460  146.0980 C   0  0  0  0  0  0  0  0  0  0  0  0
  189.2040  177.4020  146.1390 C   0  0  0  0  0  3  0  0  0  0  0  0
  180.9610  179.2050  141.0050 N   0  0  0  0  0  1  0  0  0  0  0  0
  183.4500  178.7610  141.0000 C   0  0  0  0  0  2  0  0  0  0  0  0
  185.6900  178.3610  145.3600 C   0  0  0  0  0  0  0  0  0  0  0  0
  190.2530  176.6060  144.1100 C   0  0  0  0  0  3  0  0  0  0  0  0
  187.9370  177.3310  144.0650 C   0  0  0  0  0  0  0  0  0  0  0  0
  189.0410  176.5260  141.9260 C   0  0  0  0  0  2  0  0  0  0  0  0
  189.5460  177.6900  141.0690 C   0  0  2  0  0  3  0  0  0  0  0  0
  190.1060  177.9220  138.7930 N   0  0  0  0  0  0  0  0  0  0  0  0
  188.4850  178.3520  140.4420 O   0  0  0  0  0  0  0  0  0  0  0  0
  191.9180  177.5960  140.3710 C   0  0  0  0  0  1  0  0  0  0  0  0
  190.4960  177.2260  139.9960 C   0  0  1  0  0  3  0  0  0  0  0  0
  189.5770  176.9240  137.8780 C   0  0  0  0  0  1  0  0  0  0  0  0
  188.9870  178.7650  139.1970 C   0  0  0  0  0  2  0  0  0  0  0  0
  1 20  2  0  0  0  0
  1 19  1  0  0  0  0
  2  7  1  0  0  0  0
  4 12  1  0  0  0  0
  5 18  1  0  0  0  0
  6  9  2  0  0  0  0
  7  4  2  0  0  0  0
  7  5  1  0  0  0  0
  9  4  1  0  0  0  0
 10 14  1  0  0  0  0
 10 15  2  0  0  0  0
 11  5  2  0  0  0  0
 11 20  1  0  0  0  0
 12  8  2  0  0  0  0
 13 15  1  0  0  0  0
 14  3  1  0  0  0  0
 16  6  1  0  0  0  0
 17  6  1  0  0  0  0
 17  2  1  0  0  0  0
 18  8  1  0  0  0  0
 18 14  2  0  0  0  0
 19 13  2  0  0  0  0
 20 10  1  0  0  0  0
 21  1  1  0  0  0  0
 22 21  1  6  0  0  0
 23 28  1  0  0  0  0
 23 26  1  0  0  0  0
 24 22  1  0  0  0  0
 26 25  1  1  0  0  0
 26 22  1  0  0  0  0
 27 23  1  0  0  0  0
 28 24  1  0  0  0  0
M  END
>  <MODEL>
4

>  <REMARK>
 VINA RESULT:     -11.0      1.037      1.631
  Name = 
  2 active torsions:
  status: ('A' for Active; 'I' for Inactive)
    1  A    between atoms: C_1  and  C_2
    2  A    between atoms: C_2  and  C_3
                            x       y       z     vdW  Elec       q    Type
                         _______ _______ _______ _____ _____    ______ ____

>  <TORSDO>
F 2

$$$$
=
 OpenBabel10272401583D

 28 32  0  0  1  0  0  0  0  0999 V2000
  190.8890  176.0500  145.1600 C   0  0  0  0  0  0  0  0  0  0  0  0
  186.4950  177.2880  143.0540 C   0  0  0  0  0  2  0  0  0  0  0  0
  188.5400  178.2030  148.9710 C   0  0  0  0  0  1  0  0  0  0  0  0
  185.3300  178.4550  144.9510 C   0  0  0  0  0  0  0  0  0  0  0  0
  187.5630  177.5700  145.3350 C   0  0  0  0  0  0  0  0  0  0  0  0
  184.3260  178.5230  142.7270 C   0  0  0  0  0  0  0  0  0  0  0  0
  186.4830  177.8090  144.4680 C   0  0  0  0  0  0  0  0  0  0  0  0
  186.3340  178.6390  147.1440 C   0  0  0  0  0  3  0  0  0  0  0  0
  184.2000  178.7120  144.0430 C   0  0  0  0  0  3  0  0  0  0  0  0
  189.7290  177.1070  147.0340 C   0  0  0  0  0  0  0  0  0  0  0  0
  188.6760  176.9350  144.8830 N   0  0  0  0  0  0  0  0  0  0  0  0
  185.2580  178.8650  146.2820 C   0  0  0  0  0  3  0  0  0  0  0  0
  191.9680  176.2100  147.3260 C   0  0  0  0  0  3  0  0  0  0  0  0
  188.5890  177.7610  147.5380 C   0  0  0  0  0  0  0  0  0  0  0  0
  190.8450  176.8550  147.8460 C   0  0  0  0  0  3  0  0  0  0  0  0
  183.2230  178.7990  141.8710 N   0  0  0  0  0  1  0  0  0  0  0  0
  185.6610  178.1760  142.1230 C   0  0  0  0  0  2  0  0  0  0  0  0
  187.4950  177.9970  146.6830 C   0  0  0  0  0  0  0  0  0  0  0  0
  191.9900  175.8110  145.9890 C   0  0  0  0  0  3  0  0  0  0  0  0
  189.7510  176.6960  145.6790 C   0  0  0  0  0  0  0  0  0  0  0  0
  190.9600  175.6290  143.7190 C   0  0  0  0  0  2  0  0  0  0  0  0
  190.4830  176.7150  142.7510 C   0  0  2  0  0  3  0  0  0  0  0  0
  191.5330  177.9760  141.0620 N   0  0  0  0  0  0  0  0  0  0  0  0
  190.1070  176.1630  141.5220 O   0  0  0  0  0  0  0  0  0  0  0  0
  191.2320  179.0240  143.2280 C   0  0  0  0  0  1  0  0  0  0  0  0
  191.5530  177.7410  142.4870 C   0  0  1  0  0  3  0  0  0  0  0  0
  192.7810  177.4550  140.5290 C   0  0  0  0  0  1  0  0  0  0  0  0
  190.4650  177.1210  140.5580 C   0  0  0  0  0  2  0  0  0  0  0  0
  1 20  2  0  0  0  0
  1 19  1  0  0  0  0
  2  7  1  0  0  0  0
  4 12  1  0  0  0  0
  5 18  1  0  0  0  0
  6  9  2  0  0  0  0
  7  4  2  0  0  0  0
  7  5  1  0  0  0  0
  9  4  1  0  0  0  0
 10 14  1  0  0  0  0
 10 15  2  0  0  0  0
 11  5  2  0  0  0  0
 11 20  1  0  0  0  0
 12  8  2  0  0  0  0
 13 15  1  0  0  0  0
 14  3  1  0  0  0  0
 16  6  1  0  0  0  0
 17  6  1  0  0  0  0
 17  2  1  0  0  0  0
 18  8  1  0  0  0  0
 18 14  2  0  0  0  0
 19 13  2  0  0  0  0
 20 10  1  0  0  0  0
 21  1  1  0  0  0  0
 22 21  1  1  0  0  0
 23 26  1  0  0  0  0
 24 22  1  0  0  0  0
 26 22  1  0  0  0  0
 26 25  1  1  0  0  0
 27 23  1  0  0  0  0
 28 23  1  0  0  0  0
 28 24  1  0  0  0  0
M  END
>  <MODEL>
5

>  <REMARK>
 VINA RESULT:     -10.4      1.249      1.740
  Name = 
  2 active torsions:
  status: ('A' for Active; 'I' for Inactive)
    1  A    between atoms: C_1  and  C_2
    2  A    between atoms: C_2  and  C_3
                            x       y       z     vdW  Elec       q    Type
                         _______ _______ _______ _____ _____    ______ ____

>  <TORSDO>
F 2

$$$$
=
 OpenBabel10272401583D

 28 32  0  0  1  0  0  0  0  0999 V2000
  184.9610  178.7640  143.9420 C   0  0  0  0  0  0  0  0  0  0  0  0
  188.2600  178.0400  140.2180 C   0  0  0  0  0  2  0  0  0  0  0  0
  188.8510  176.9130  146.4160 C   0  0  0  0  0  1  0  0  0  0  0  0
  190.2020  177.0240  141.4470 C   0  0  0  0  0  0  0  0  0  0  0  0
  188.2250  177.6430  142.7210 C   0  0  0  0  0  0  0  0  0  0  0  0
  190.2400  177.0660  139.0060 C   0  0  0  0  0  0  0  0  0  0  0  0
  188.8900  177.5300  141.4880 C   0  0  0  0  0  0  0  0  0  0  0  0
  190.1800  176.7320  143.8480 C   0  0  0  0  0  3  0  0  0  0  0  0
  190.8990  176.8980  140.1560 C   0  0  0  0  0  3  0  0  0  0  0  0
  186.8770  177.8560  145.1560 C   0  0  0  0  0  0  0  0  0  0  0  0
  186.9630  178.1420  142.7750 N   0  0  0  0  0  0  0  0  0  0  0  0
  190.8420  176.6300  142.6220 C   0  0  0  0  0  3  0  0  0  0  0  0
  184.8570  178.4860  146.3490 C   0  0  0  0  0  3  0  0  0  0  0  0
  188.1880  177.3410  145.1390 C   0  0  0  0  0  0  0  0  0  0  0  0
  186.1570  177.9780  146.3540 C   0  0  0  0  0  3  0  0  0  0  0  0
  190.9330  176.9190  137.7730 N   0  0  0  0  0  1  0  0  0  0  0  0
  188.7450  177.2530  138.9960 C   0  0  0  0  0  2  0  0  0  0  0  0
  188.8700  177.2320  143.9120 C   0  0  0  0  0  0  0  0  0  0  0  0
  184.2620  178.8750  145.1490 C   0  0  0  0  0  3  0  0  0  0  0  0
  186.2740  178.2570  143.9410 C   0  0  0  0  0  0  0  0  0  0  0  0
  184.2770  179.1690  142.6670 C   0  0  0  0  0  2  0  0  0  0  0  0
  183.0770  178.2840  142.3200 C   0  0  2  0  0  3  0  0  0  0  0  0
  181.1020  178.6190  141.0810 N   0  0  0  0  0  0  0  0  0  0  0  0
  183.2510  177.6630  141.0790 O   0  0  0  0  0  0  0  0  0  0  0  0
  180.9590  178.7880  143.4960 C   0  0  0  0  0  1  0  0  0  0  0  0
  181.7950  179.0730  142.2630 C   0  0  1  0  0  3  0  0  0  0  0  0
  181.0920  179.7290  140.1420 C   0  0  0  0  0  1  0  0  0  0  0  0
  181.9660  177.5900  140.5150 C   0  0  0  0  0  2  0  0  0  0  0  0
  1 19  1  0  0  0  0
  2  7  1  0  0  0  0
  4  7  2  0  0  0  0
  4 12  1  0  0  0  0
  5 11  2  0  0  0  0
  5 18  1  0  0  0  0
  6  9  2  0  0  0  0
  7  5  1  0  0  0  0
  8 18  1  0  0  0  0
  9  4  1  0  0  0  0
 10 15  2  0  0  0  0
 11 20  1  0  0  0  0
 12  8  2  0  0  0  0
 13 15  1  0  0  0  0
 14 10  1  0  0  0  0
 14  3  1  0  0  0  0
 16  6  1  0  0  0  0
 17  6  1  0  0  0  0
 17  2  1  0  0  0  0
 18 14  2  0  0  0  0
 19 13  2  0  0  0  0
 20  1  2  0  0  0  0
 20 10  1  0  0  0  0
 21  1  1  0  0  0  0
 22 21  1  6  0  0  0
 23 26  1  0  0  0  0
 24 22  1  0  0  0  0
 26 22  1  0  0  0  0
 26 25  1  1  0  0  0
 27 23  1  0  0  0  0
 28 24  1  0  0  0  0
 28 23  1  0  0  0  0
M  END
>  <MODEL>
6

>  <REMARK>
 VINA RESULT:     -10.3      1.898      6.738
  Name = 
  2 active torsions:
  status: ('A' for Active; 'I' for Inactive)
    1  A    between atoms: C_1  and  C_2
    2  A    between atoms: C_2  and  C_3
                            x       y       z     vdW  Elec       q    Type
                         _______ _______ _______ _____ _____    ______ ____

>  <TORSDO>
F 2

$$$$
=
 OpenBabel10272401583D

 28 32  0  0  1  0  0  0  0  0999 V2000
  184.3030  178.7020  142.9570 C   0  0  0  0  0  0  0  0  0  0  0  0
  188.7060  177.9530  140.6480 C   0  0  0  0  0  2  0  0  0  0  0  0
  187.3230  177.9120  146.8220 C   0  0  0  0  0  1  0  0  0  0  0  0
  190.2250  177.4680  142.5900 C   0  0  0  0  0  0  0  0  0  0  0  0
  187.8850  177.9490  143.0460 C   0  0  0  0  0  0  0  0  0  0  0  0
  191.0640  177.1370  140.3220 C   0  0  0  0  0  0  0  0  0  0  0  0
  188.9280  177.7550  142.1250 C   0  0  0  0  0  0  0  0  0  0  0  0
  189.4390  177.5520  144.8760 C   0  0  0  0  0  3  0  0  0  0  0  0
  191.3190  177.2580  141.6280 C   0  0  0  0  0  3  0  0  0  0  0  0
  185.7920  178.3160  144.8560 C   0  0  0  0  0  0  0  0  0  0  0  0
  186.6320  178.2390  142.6090 N   0  0  0  0  0  0  0  0  0  0  0  0
  190.4760  177.3700  143.9590 C   0  0  0  0  0  3  0  0  0  0  0  0
  183.4370  178.7880  145.2210 C   0  0  0  0  0  3  0  0  0  0  0  0
  187.0800  178.0250  145.3450 C   0  0  0  0  0  0  0  0  0  0  0  0
  184.7070  178.5050  145.7260 C   0  0  0  0  0  3  0  0  0  0  0  0
  192.1380  176.9140  139.4170 N   0  0  0  0  0  1  0  0  0  0  0  0
  189.6470  177.0750  139.8160 C   0  0  0  0  0  2  0  0  0  0  0  0
  188.1370  177.8380  144.4340 C   0  0  0  0  0  0  0  0  0  0  0  0
  183.2360  178.8850  143.8440 C   0  0  0  0  0  3  0  0  0  0  0  0
  185.5870  178.4200  143.4600 C   0  0  0  0  0  0  0  0  0  0  0  0
  184.0430  178.7880  141.4800 C   0  0  0  0  0  2  0  0  0  0  0  0
  182.7350  178.1130  141.0590 C   0  0  2  0  0  3  0  0  0  0  0  0
  181.3390  178.2870  139.1700 N   0  0  0  0  0  0  0  0  0  0  0  0
  182.9820  176.9970  140.2520 O   0  0  0  0  0  0  0  0  0  0  0  0
  180.6920  179.5040  141.1640 C   0  0  0  0  0  1  0  0  0  0  0  0
  181.8420  179.0490  140.2870 C   0  0  1  0  0  3  0  0  0  0  0  0
  181.9240  178.8590  137.9680 C   0  0  0  0  0  1  0  0  0  0  0  0
  181.9190  176.9590  139.3340 C   0  0  0  0  0  2  0  0  0  0  0  0
  1 20  2  0  0  0  0
  1 19  1  0  0  0  0
  2  7  1  0  0  0  0
  4 12  1  0  0  0  0
  5 18  1  0  0  0  0
  6  9  2  0  0  0  0
  7  4  2  0  0  0  0
  7  5  1  0  0  0  0
  9  4  1  0  0  0  0
 10 14  1  0  0  0  0
 10 15  2  0  0  0  0
 11  5  2  0  0  0  0
 11 20  1  0  0  0  0
 12  8  2  0  0  0  0
 13 15  1  0  0  0  0
 14  3  1  0  0  0  0
 16  6  1  0  0  0  0
 17  6  1  0  0  0  0
 17  2  1  0  0  0  0
 18  8  1  0  0  0  0
 18 14  2  0  0  0  0
 19 13  2  0  0  0  0
 20 10  1  0  0  0  0
 21  1  1  0  0  0  0
 22 21  1  6  0  0  0
 23 28  1  0  0  0  0
 23 26  1  0  0  0  0
 24 22  1  0  0  0  0
 26 22  1  0  0  0  0
 26 25  1  1  0  0  0
 27 23  1  0  0  0  0
 28 24  1  0  0  0  0
M  END
>  <MODEL>
7

>  <REMARK>
 VINA RESULT:     -10.2      2.364      6.776
  Name = 
  2 active torsions:
  status: ('A' for Active; 'I' for Inactive)
    1  A    between atoms: C_1  and  C_2
    2  A    between atoms: C_2  and  C_3
                            x       y       z     vdW  Elec       q    Type
                         _______ _______ _______ _____ _____    ______ ____

>  <TORSDO>
F 2

$$$$
=
 OpenBabel10272401583D

 28 32  0  0  1  0  0  0  0  0999 V2000
  189.7880  177.5380  140.4170 C   0  0  0  0  0  0  0  0  0  0  0  0
  185.1760  178.1120  142.3340 C   0  0  0  0  0  2  0  0  0  0  0  0
  190.7290  177.4500  145.2940 C   0  0  0  0  0  1  0  0  0  0  0  0
  185.6510  178.1540  144.8020 C   0  0  0  0  0  0  0  0  0  0  0  0
  187.5200  177.8740  143.2710 C   0  0  0  0  0  0  0  0  0  0  0  0
  183.4040  178.7030  144.0210 C   0  0  0  0  0  0  0  0  0  0  0  0
  186.1470  178.0790  143.4870 C   0  0  0  0  0  0  0  0  0  0  0  0
  187.8840  177.8420  145.6760 C   0  0  0  0  0  3  0  0  0  0  0  0
  184.2140  178.3750  145.0320 C   0  0  0  0  0  3  0  0  0  0  0  0
  190.2480  177.4920  142.8170 C   0  0  0  0  0  0  0  0  0  0  0  0
  188.0080  177.7870  142.0060 N   0  0  0  0  0  0  0  0  0  0  0  0
  186.5170  178.0340  145.8890 C   0  0  0  0  0  3  0  0  0  0  0  0
  192.0580  177.2350  141.2170 C   0  0  0  0  0  3  0  0  0  0  0  0
  189.7760  177.5700  144.1410 C   0  0  0  0  0  0  0  0  0  0  0  0
  191.6100  177.3050  142.5370 C   0  0  0  0  0  3  0  0  0  0  0  0
  182.0230  178.9300  144.2750 N   0  0  0  0  0  1  0  0  0  0  0  0
  183.9600  178.9880  142.6510 C   0  0  0  0  0  2  0  0  0  0  0  0
  188.4010  177.7640  144.3730 C   0  0  0  0  0  0  0  0  0  0  0  0
  191.1520  177.3520  140.1630 C   0  0  0  0  0  3  0  0  0  0  0  0
  189.3290  177.6050  141.7460 C   0  0  0  0  0  0  0  0  0  0  0  0
  188.8470  177.6860  139.2560 C   0  0  0  0  0  2  0  0  0  0  0  0
  189.4990  177.3690  137.9080 C   0  0  2  0  0  3  0  0  0  0  0  0
  188.7270  176.4010  135.9040 N   0  0  0  0  0  0  0  0  0  0  0  0
  189.2940  178.4070  136.9930 O   0  0  0  0  0  0  0  0  0  0  0  0
  189.9600  174.9840  137.4380 C   0  0  0  0  0  1  0  0  0  0  0  0
  188.9490  176.1050  137.3000 C   0  0  1  0  0  3  0  0  0  0  0  0
  187.2890  176.3840  135.6900 C   0  0  0  0  0  1  0  0  0  0  0  0
  189.1660  177.7810  135.7410 C   0  0  0  0  0  2  0  0  0  0  0  0
  1 20  1  0  0  0  0
  2 17  1  0  0  0  0
  2  7  1  0  0  0  0
  4  9  1  0  0  0  0
  4 12  1  0  0  0  0
  5  7  1  0  0  0  0
  5 18  1  0  0  0  0
  6 16  1  0  0  0  0
  6  9  2  0  0  0  0
  7  4  2  0  0  0  0
  8 12  2  0  0  0  0
 10 14  1  0  0  0  0
 11  5  2  0  0  0  0
 13 15  2  0  0  0  0
 14 18  2  0  0  0  0
 14  3  1  0  0  0  0
 15 10  1  0  0  0  0
 17  6  1  0  0  0  0
 18  8  1  0  0  0  0
 19  1  2  0  0  0  0
 19 13  1  0  0  0  0
 20 11  1  0  0  0  0
 20 10  2  0  0  0  0
 21  1  1  0  0  0  0
 22 21  1  1  0  0  0
 23 26  1  0  0  0  0
 24 22  1  0  0  0  0
 26 25  1  6  0  0  0
 26 22  1  0  0  0  0
 27 23  1  0  0  0  0
 28 23  1  0  0  0  0
 28 24  1  0  0  0  0
M  END
>  <MODEL>
8

>  <REMARK>
 VINA RESULT:     -10.0      1.727      2.991
  Name = 
  2 active torsions:
  status: ('A' for Active; 'I' for Inactive)
    1  A    between atoms: C_1  and  C_2
    2  A    between atoms: C_2  and  C_3
                            x       y       z     vdW  Elec       q    Type
                         _______ _______ _______ _____ _____    ______ ____

>  <TORSDO>
F 2

$$$$
=
 OpenBabel10272401583D

 28 32  0  0  1  0  0  0  0  0999 V2000
  183.5200  178.6030  141.8650 C   0  0  0  0  0  0  0  0  0  0  0  0
  188.4860  177.8710  141.5820 C   0  0  0  0  0  2  0  0  0  0  0  0
  184.7620  178.3950  146.6700 C   0  0  0  0  0  1  0  0  0  0  0  0
  189.1130  177.6800  144.0080 C   0  0  0  0  0  0  0  0  0  0  0  0
  186.7790  178.0700  143.4460 C   0  0  0  0  0  0  0  0  0  0  0  0
  190.7890  177.1620  142.3100 C   0  0  0  0  0  0  0  0  0  0  0  0
  188.1050  177.8410  143.0400 C   0  0  0  0  0  0  0  0  0  0  0  0
  187.4810  177.9560  145.7720 C   0  0  0  0  0  3  0  0  0  0  0  0
  190.5020  177.4330  143.5860 C   0  0  0  0  0  3  0  0  0  0  0  0
  184.1350  178.5030  144.2280 C   0  0  0  0  0  0  0  0  0  0  0  0
  185.8000  178.2410  142.5190 N   0  0  0  0  0  0  0  0  0  0  0  0
  188.8000  177.7390  145.3660 C   0  0  0  0  0  3  0  0  0  0  0  0
  181.8240  178.8750  143.5770 C   0  0  0  0  0  3  0  0  0  0  0  0
  185.1250  178.3390  145.2150 C   0  0  0  0  0  0  0  0  0  0  0  0
  182.7910  178.7190  144.5710 C   0  0  0  0  0  3  0  0  0  0  0  0
  192.1370  176.9080  141.9340 N   0  0  0  0  0  1  0  0  0  0  0  0
  189.6900  176.9670  141.2990 C   0  0  0  0  0  2  0  0  0  0  0  0
  186.4600  178.1190  144.8230 C   0  0  0  0  0  0  0  0  0  0  0  0
  182.1860  178.8160  142.2310 C   0  0  0  0  0  3  0  0  0  0  0  0
  184.5020  178.4490  142.8620 C   0  0  0  0  0  0  0  0  0  0  0  0
  183.8680  178.5200  140.4060 C   0  0  0  0  0  2  0  0  0  0  0  0
  182.8360  177.7420  139.5850 C   0  0  2  0  0  3  0  0  0  0  0  0
  182.8870  176.6670  137.4890 N   0  0  0  0  0  0  0  0  0  0  0  0
  182.9370  176.3670  139.8220 O   0  0  0  0  0  0  0  0  0  0  0  0
  181.9210  178.8890  137.5920 C   0  0  0  0  0  1  0  0  0  0  0  0
  183.0100  177.9670  138.1050 C   0  0  1  0  0  3  0  0  0  0  0  0
  184.1950  176.3260  136.9550 C   0  0  0  0  0  1  0  0  0  0  0  0
  182.6280  175.7540  138.5960 C   0  0  0  0  0  2  0  0  0  0  0  0
  1 19  2  0  0  0  0
  1 20  1  0  0  0  0
  2  7  1  0  0  0  0
  4 12  1  0  0  0  0
  5 18  1  0  0  0  0
  6  9  2  0  0  0  0
  7  5  1  0  0  0  0
  7  4  2  0  0  0  0
  9  4  1  0  0  0  0
 10 15  1  0  0  0  0
 10 14  1  0  0  0  0
 11 20  1  0  0  0  0
 11  5  2  0  0  0  0
 12  8  2  0  0  0  0
 13 15  2  0  0  0  0
 14  3  1  0  0  0  0
 16  6  1  0  0  0  0
 17  2  1  0  0  0  0
 17  6  1  0  0  0  0
 18 14  2  0  0  0  0
 18  8  1  0  0  0  0
 19 13  1  0  0  0  0
 20 10  2  0  0  0  0
 21  1  1  0  0  0  0
 22 24  1  0  0  0  0
 22 21  1  1  0  0  0
 23 26  1  0  0  0  0
 23 28  1  0  0  0  0
 26 25  1  6  0  0  0
 26 22  1  0  0  0  0
 27 23  1  0  0  0  0
 28 24  1  0  0  0  0
M  END
>  <MODEL>
9

>  <REMARK>
 VINA RESULT:      -9.7      2.999      6.626
  Name = 
  2 active torsions:
  status: ('A' for Active; 'I' for Inactive)
    1  A    between atoms: C_1  and  C_2
    2  A    between atoms: C_2  and  C_3
                            x       y       z     vdW  Elec       q    Type
                         _______ _______ _______ _____ _____    ______ ____

>  <TORSDO>
F 2

$$$$
