=
 OpenBabel10272400303D

 31 36  0  0  1  0  0  0  0  0999 V2000
  186.7300  177.3160  144.6310 C   0  0  2  0  0  3  0  0  0  0  0  0
  187.5930  177.5940  145.8460 C   0  0  0  0  0  0  0  0  0  0  0  0
  189.7390  177.6540  146.9880 C   0  0  0  0  0  0  0  0  0  0  0  0
  187.4570  177.4930  143.3160 C   0  0  0  0  0  0  0  0  0  0  0  0
  188.7620  177.2890  141.4650 C   0  0  0  0  0  0  0  0  0  0  0  0
  188.9870  177.4300  145.8310 C   0  0  0  0  0  3  0  0  0  0  0  0
  184.8240  178.6210  143.3840 C   0  0  1  0  0  3  0  0  0  0  0  0
  185.4650  178.0390  147.0960 C   0  0  0  0  0  2  0  0  0  0  0  0
  191.0840  177.5050  146.9590 F   0  0  0  0  0  0  0  0  0  0  0  0
  185.8860  179.2210  142.4580 C   0  0  0  0  0  2  0  0  0  0  0  0
  185.4610  178.1690  144.6840 C   0  0  0  0  0  0  0  0  0  0  0  0
  188.6150  176.6920  142.8280 C   0  0  0  0  0  2  0  0  0  0  0  0
  189.1020  178.0220  148.1760 C   0  0  0  0  0  3  0  0  0  0  0  0
  187.0560  178.2970  142.3430 C   0  0  0  0  0  0  0  0  0  0  0  0
  187.8790  178.1930  141.1930 N   0  0  0  0  0  0  0  0  0  0  0  0
  184.9290  178.4820  145.8230 N   0  0  0  0  0  0  0  0  0  0  0  0
  186.9600  177.9560  147.0500 C   0  0  0  0  0  0  0  0  0  0  0  0
  187.7120  178.1660  148.2090 C   0  0  0  0  0  3  0  0  0  0  0  0
  189.7780  176.9010  140.5270 C   0  0  0  0  0  0  0  0  0  0  0  0
  190.5960  176.5880  139.7720 N   0  0  0  0  0  0  0  0  0  0  0  0
  183.6860  179.6160  143.5930 C   0  0  0  0  0  2  0  0  0  0  0  0
  180.7100  178.0490  139.5030 C   0  0  0  0  0  0  0  0  0  0  0  0
  182.7810  178.8650  140.5580 C   0  0  0  0  0  3  0  0  0  0  0  0
  180.3010  178.3860  143.0830 N   0  0  0  0  0  0  0  0  0  0  0  0
  181.3070  178.8230  143.8420 N   0  0  0  0  0  0  0  0  0  0  0  0
  179.9850  177.6570  138.2670 C   0  0  0  0  0  1  0  0  0  0  0  0
  182.4010  179.0650  143.0740 C   0  0  0  0  0  0  0  0  0  0  0  0
  182.0590  178.4820  139.4090 C   0  0  0  0  0  2  0  0  0  0  0  0
  180.7510  178.3510  141.8200 C   0  0  0  0  0  0  0  0  0  0  0  0
  182.1020  178.7860  141.7630 C   0  0  0  0  0  0  0  0  0  0  0  0
  180.0670  177.9910  140.7110 N   0  0  0  0  0  0  0  0  0  0  0  0
  1  4  1  6  0  0  0
  1 11  1  0  0  0  0
  1  2  1  0  0  0  0
  2 17  1  0  0  0  0
  3 13  2  0  0  0  0
  5 12  1  0  0  0  0
  6  2  2  0  0  0  0
  6  3  1  0  0  0  0
  7 21  1  1  0  0  0
  7 11  1  0  0  0  0
  9  3  1  0  0  0  0
 10  7  1  0  0  0  0
 11 16  2  0  0  0  0
 12  4  1  0  0  0  0
 13 18  1  0  0  0  0
 14 10  1  0  0  0  0
 14  4  2  0  0  0  0
 15  5  2  0  0  0  0
 15 14  1  0  0  0  0
 16  8  1  0  0  0  0
 17  8  1  0  0  0  0
 17 18  2  0  0  0  0
 19  5  1  0  0  0  0
 20 19  3  0  0  0  0
 22 31  2  0  0  0  0
 23 30  2  0  0  0  0
 24 25  1  0  0  0  0
 26 22  1  0  0  0  0
 27 21  1  0  0  0  0
 27 25  2  0  0  0  0
 28 22  1  0  0  0  0
 28 23  1  0  0  0  0
 29 24  2  0  0  0  0
 30 29  1  0  0  0  0
 30 27  1  0  0  0  0
 31 29  1  0  0  0  0
M  END
>  <MODEL>
1

>  <REMARK>
 VINA RESULT:     -10.3      0.000      0.000
  Name = 
  3 active torsions:
  status: ('A' for Active; 'I' for Inactive)
    1  A    between atoms: C_2  and  C_13
    2  A    between atoms: C_9  and  C_23
    3  A    between atoms: C_15  and  C_23
                            x       y       z     vdW  Elec       q    Type
                         _______ _______ _______ _____ _____    ______ ____

>  <TORSDO>
F 3

$$$$
=
 OpenBabel10272400303D

 31 36  0  0  1  0  0  0  0  0999 V2000
  188.0430  177.0150  143.8910 C   0  0  2  0  0  3  0  0  0  0  0  0
  186.9130  177.7910  144.5370 C   0  0  0  0  0  0  0  0  0  0  0  0
  185.7690  178.7030  146.4800 C   0  0  0  0  0  0  0  0  0  0  0  0
  189.3440  177.0810  144.6610 C   0  0  0  0  0  0  0  0  0  0  0  0
  191.0580  176.8300  146.1350 C   0  0  0  0  0  0  0  0  0  0  0  0
  186.8540  178.0210  145.9200 C   0  0  0  0  0  3  0  0  0  0  0  0
  189.6170  177.4190  141.8290 C   0  0  1  0  0  3  0  0  0  0  0  0
  185.8610  177.9020  142.2640 C   0  0  0  0  0  2  0  0  0  0  0  0
  185.7290  178.9310  147.8140 F   0  0  0  0  0  0  0  0  0  0  0  0
  190.6360  178.0620  142.7740 C   0  0  0  0  0  2  0  0  0  0  0  0
  188.2310  177.4700  142.4430 C   0  0  0  0  0  0  0  0  0  0  0  0
  189.5940  176.5440  146.0290 C   0  0  0  0  0  2  0  0  0  0  0  0
  184.7230  179.1410  145.6640 C   0  0  0  0  0  3  0  0  0  0  0  0
  190.4940  177.4990  144.1520 C   0  0  0  0  0  0  0  0  0  0  0  0
  191.5630  177.3670  145.0740 N   0  0  0  0  0  0  0  0  0  0  0  0
  187.2160  177.8750  141.7460 N   0  0  0  0  0  0  0  0  0  0  0  0
  185.8500  178.2290  143.7250 C   0  0  0  0  0  0  0  0  0  0  0  0
  184.7590  178.8970  144.2880 C   0  0  0  0  0  3  0  0  0  0  0  0
  191.8480  176.5360  147.2970 C   0  0  0  0  0  0  0  0  0  0  0  0
  192.4840  176.2980  148.2340 N   0  0  0  0  0  0  0  0  0  0  0  0
  189.6850  178.0800  140.4550 C   0  0  0  0  0  2  0  0  0  0  0  0
  187.5830  175.7230  136.2040 C   0  0  0  0  0  0  0  0  0  0  0  0
  187.6590  177.4120  137.9960 C   0  0  0  0  0  3  0  0  0  0  0  0
  190.5390  175.3150  138.2510 N   0  0  0  0  0  0  0  0  0  0  0  0
  190.7650  176.1270  139.2840 N   0  0  0  0  0  0  0  0  0  0  0  0
  186.8730  175.1460  135.0340 C   0  0  0  0  0  1  0  0  0  0  0  0
  189.7740  177.0510  139.3780 C   0  0  0  0  0  0  0  0  0  0  0  0
  187.0180  176.8370  136.8800 C   0  0  0  0  0  2  0  0  0  0  0  0
  189.3930  175.7170  137.6820 C   0  0  0  0  0  0  0  0  0  0  0  0
  188.8580  176.8330  138.3790 C   0  0  0  0  0  0  0  0  0  0  0  0
  188.7660  175.1700  136.6160 N   0  0  0  0  0  0  0  0  0  0  0  0
  1 11  1  6  0  0  0
  1  2  1  0  0  0  0
  1  4  1  0  0  0  0
  2  6  1  0  0  0  0
  3  9  1  0  0  0  0
  4 12  1  0  0  0  0
  5 19  1  0  0  0  0
  6  3  2  0  0  0  0
  7 21  1  6  0  0  0
  7 11  1  0  0  0  0
  7 10  1  0  0  0  0
  8 17  1  0  0  0  0
 10 14  1  0  0  0  0
 12  5  1  0  0  0  0
 13  3  1  0  0  0  0
 14  4  2  0  0  0  0
 14 15  1  0  0  0  0
 15  5  2  0  0  0  0
 16  8  1  0  0  0  0
 16 11  2  0  0  0  0
 17 18  1  0  0  0  0
 17  2  2  0  0  0  0
 18 13  2  0  0  0  0
 19 20  3  0  0  0  0
 22 31  2  0  0  0  0
 22 28  1  0  0  0  0
 23 30  2  0  0  0  0
 24 25  1  0  0  0  0
 25 27  2  0  0  0  0
 26 22  1  0  0  0  0
 27 21  1  0  0  0  0
 28 23  1  0  0  0  0
 29 24  2  0  0  0  0
 29 30  1  0  0  0  0
 30 27  1  0  0  0  0
 31 29  1  0  0  0  0
M  END
>  <MODEL>
2

>  <REMARK>
 VINA RESULT:     -10.2      3.558      6.414
  Name = 
  3 active torsions:
  status: ('A' for Active; 'I' for Inactive)
    1  A    between atoms: C_2  and  C_13
    2  A    between atoms: C_9  and  C_23
    3  A    between atoms: C_15  and  C_23
                            x       y       z     vdW  Elec       q    Type
                         _______ _______ _______ _____ _____    ______ ____

>  <TORSDO>
F 3

$$$$
=
 OpenBabel10272400303D

 31 36  0  0  1  0  0  0  0  0999 V2000
  187.4430  177.2180  143.7060 C   0  0  2  0  0  3  0  0  0  0  0  0
  186.3110  177.8640  144.4820 C   0  0  0  0  0  0  0  0  0  0  0  0
  185.2410  178.5380  146.5590 C   0  0  0  0  0  0  0  0  0  0  0  0
  188.7840  177.3090  144.4000 C   0  0  0  0  0  0  0  0  0  0  0  0
  190.6020  177.0550  145.7440 C   0  0  0  0  0  0  0  0  0  0  0  0
  186.3270  177.9770  145.8810 C   0  0  0  0  0  3  0  0  0  0  0  0
  188.8510  177.8900  141.5960 C   0  0  1  0  0  3  0  0  0  0  0  0
  185.1090  178.0850  142.2930 C   0  0  0  0  0  2  0  0  0  0  0  0
  185.2730  178.6550  147.9070 F   0  0  0  0  0  0  0  0  0  0  0  0
  189.8880  178.5220  142.5300 C   0  0  0  0  0  2  0  0  0  0  0  0
  187.5070  177.8000  142.2930 C   0  0  0  0  0  0  0  0  0  0  0  0
  189.1540  176.6820  145.7010 C   0  0  0  0  0  2  0  0  0  0  0  0
  184.1190  178.9700  145.8470 C   0  0  0  0  0  3  0  0  0  0  0  0
  189.8700  177.8410  143.8610 C   0  0  0  0  0  0  0  0  0  0  0  0
  191.0030  177.7080  144.7030 N   0  0  0  0  0  0  0  0  0  0  0  0
  186.4270  178.1910  141.6950 N   0  0  0  0  0  0  0  0  0  0  0  0
  185.1720  178.2930  143.7750 C   0  0  0  0  0  0  0  0  0  0  0  0
  184.0810  178.8400  144.4560 C   0  0  0  0  0  3  0  0  0  0  0  0
  191.4810  176.7220  146.8280 C   0  0  0  0  0  0  0  0  0  0  0  0
  192.1910  176.4530  147.7020 N   0  0  0  0  0  0  0  0  0  0  0  0
  188.7890  178.6620  140.2810 C   0  0  0  0  0  2  0  0  0  0  0  0
  190.7750  174.9280  137.0950 C   0  0  0  0  0  0  0  0  0  0  0  0
  190.8340  176.4670  139.0170 C   0  0  0  0  0  3  0  0  0  0  0  0
  187.6850  176.7920  137.3630 N   0  0  0  0  0  0  0  0  0  0  0  0
  187.5170  177.6880  138.3360 N   0  0  0  0  0  0  0  0  0  0  0  0
  191.4620  173.9000  136.2720 C   0  0  0  0  0  1  0  0  0  0  0  0
  188.6180  177.7290  139.1290 C   0  0  0  0  0  0  0  0  0  0  0  0
  191.4500  175.4880  138.2120 C   0  0  0  0  0  2  0  0  0  0  0  0
  188.9040  176.2580  137.5300 C   0  0  0  0  0  0  0  0  0  0  0  0
  189.5480  176.8370  138.6560 C   0  0  0  0  0  0  0  0  0  0  0  0
  189.5070  175.3230  136.7620 N   0  0  0  0  0  0  0  0  0  0  0  0
  1 11  1  6  0  0  0
  1  4  1  0  0  0  0
  1  2  1  0  0  0  0
  2  6  1  0  0  0  0
  3  9  1  0  0  0  0
  4 12  1  0  0  0  0
  5 19  1  0  0  0  0
  6  3  2  0  0  0  0
  7 21  1  6  0  0  0
  7 11  1  0  0  0  0
  7 10  1  0  0  0  0
  8 17  1  0  0  0  0
 10 14  1  0  0  0  0
 12  5  1  0  0  0  0
 13  3  1  0  0  0  0
 14  4  2  0  0  0  0
 14 15  1  0  0  0  0
 15  5  2  0  0  0  0
 16  8  1  0  0  0  0
 16 11  2  0  0  0  0
 17 18  1  0  0  0  0
 17  2  2  0  0  0  0
 18 13  2  0  0  0  0
 19 20  3  0  0  0  0
 22 28  1  0  0  0  0
 24 29  2  0  0  0  0
 24 25  1  0  0  0  0
 25 27  2  0  0  0  0
 26 22  1  0  0  0  0
 27 21  1  0  0  0  0
 28 23  1  0  0  0  0
 29 30  1  0  0  0  0
 30 23  2  0  0  0  0
 30 27  1  0  0  0  0
 31 22  2  0  0  0  0
 31 29  1  0  0  0  0
M  END
>  <MODEL>
3

>  <REMARK>
 VINA RESULT:     -10.1      3.338      6.642
  Name = 
  3 active torsions:
  status: ('A' for Active; 'I' for Inactive)
    1  A    between atoms: C_2  and  C_13
    2  A    between atoms: C_9  and  C_23
    3  A    between atoms: C_15  and  C_23
                            x       y       z     vdW  Elec       q    Type
                         _______ _______ _______ _____ _____    ______ ____

>  <TORSDO>
F 3

$$$$
=
 OpenBabel10272400303D

 31 36  0  0  1  0  0  0  0  0999 V2000
  188.3000  176.9530  144.0850 C   0  0  2  0  0  3  0  0  0  0  0  0
  187.1540  177.7450  144.6850 C   0  0  0  0  0  0  0  0  0  0  0  0
  185.9610  178.6960  146.5770 C   0  0  0  0  0  0  0  0  0  0  0  0
  189.5800  177.0320  144.8880 C   0  0  0  0  0  0  0  0  0  0  0  0
  191.2520  176.8070  146.4130 C   0  0  0  0  0  0  0  0  0  0  0  0
  187.0590  178.0020  146.0610 C   0  0  0  0  0  3  0  0  0  0  0  0
  189.9290  177.3130  142.0580 C   0  0  1  0  0  3  0  0  0  0  0  0
  186.1650  177.8110  142.3820 C   0  0  0  0  0  2  0  0  0  0  0  0
  185.8850  178.9510  147.9050 F   0  0  0  0  0  0  0  0  0  0  0  0
  190.9240  177.9740  143.0180 C   0  0  0  0  0  2  0  0  0  0  0  0
  188.5270  177.3790  142.6330 C   0  0  0  0  0  0  0  0  0  0  0  0
  189.7910  176.5220  146.2720 C   0  0  0  0  0  2  0  0  0  0  0  0
  184.9380  179.1200  145.7250 C   0  0  0  0  0  3  0  0  0  0  0  0
  190.7440  177.4370  144.4020 C   0  0  0  0  0  0  0  0  0  0  0  0
  191.7870  177.3220  145.3550 N   0  0  0  0  0  0  0  0  0  0  0  0
  187.5330  177.7720  141.9020 N   0  0  0  0  0  0  0  0  0  0  0  0
  186.1150  178.1670  143.8360 C   0  0  0  0  0  0  0  0  0  0  0  0
  185.0110  178.8490  144.3560 C   0  0  0  0  0  3  0  0  0  0  0  0
  192.0100  176.5340  147.6010 C   0  0  0  0  0  0  0  0  0  0  0  0
  192.6200  176.3140  148.5590 N   0  0  0  0  0  0  0  0  0  0  0  0
  190.0360  177.9470  140.6740 C   0  0  0  0  0  2  0  0  0  0  0  0
  191.9370  174.6760  136.9690 C   0  0  0  0  0  0  0  0  0  0  0  0
  190.1440  175.7800  138.2480 C   0  0  0  0  0  3  0  0  0  0  0  0
  193.3040  176.9830  139.3990 N   0  0  0  0  0  0  0  0  0  0  0  0
  192.4970  177.6780  140.2010 N   0  0  0  0  0  0  0  0  0  0  0  0
  192.3310  173.7070  135.9140 C   0  0  0  0  0  1  0  0  0  0  0  0
  191.1990  177.3870  139.9260 C   0  0  0  0  0  0  0  0  0  0  0  0
  190.5590  174.8720  137.2530 C   0  0  0  0  0  2  0  0  0  0  0  0
  192.5190  176.2370  138.6070 C   0  0  0  0  0  0  0  0  0  0  0  0
  191.1500  176.4600  138.9140 C   0  0  0  0  0  0  0  0  0  0  0  0
  192.9060  175.3600  137.6540 N   0  0  0  0  0  0  0  0  0  0  0  0
  1 11  1  6  0  0  0
  1  2  1  0  0  0  0
  1  4  1  0  0  0  0
  2  6  1  0  0  0  0
  3  9  1  0  0  0  0
  4 12  1  0  0  0  0
  5 19  1  0  0  0  0
  6  3  2  0  0  0  0
  7 21  1  6  0  0  0
  7 11  1  0  0  0  0
  7 10  1  0  0  0  0
  8 17  1  0  0  0  0
 10 14  1  0  0  0  0
 12  5  1  0  0  0  0
 13  3  1  0  0  0  0
 14  4  2  0  0  0  0
 14 15  1  0  0  0  0
 15  5  2  0  0  0  0
 16  8  1  0  0  0  0
 16 11  2  0  0  0  0
 17 18  1  0  0  0  0
 17  2  2  0  0  0  0
 18 13  2  0  0  0  0
 19 20  3  0  0  0  0
 22 28  1  0  0  0  0
 22 31  2  0  0  0  0
 23 30  2  0  0  0  0
 24 25  1  0  0  0  0
 26 22  1  0  0  0  0
 27 25  2  0  0  0  0
 27 21  1  0  0  0  0
 28 23  1  0  0  0  0
 29 30  1  0  0  0  0
 29 24  2  0  0  0  0
 30 27  1  0  0  0  0
 31 29  1  0  0  0  0
M  END
>  <MODEL>
4

>  <REMARK>
 VINA RESULT:      -9.7      3.712      7.706
  Name = 
  3 active torsions:
  status: ('A' for Active; 'I' for Inactive)
    1  A    between atoms: C_2  and  C_13
    2  A    between atoms: C_9  and  C_23
    3  A    between atoms: C_15  and  C_23
                            x       y       z     vdW  Elec       q    Type
                         _______ _______ _______ _____ _____    ______ ____

>  <TORSDO>
F 3

$$$$
=
 OpenBabel10272400303D

 31 36  0  0  1  0  0  0  0  0999 V2000
  187.4330  177.3290  143.5680 C   0  0  2  0  0  3  0  0  0  0  0  0
  186.2740  177.9930  144.2860 C   0  0  0  0  0  0  0  0  0  0  0  0
  185.1190  178.6940  146.3080 C   0  0  0  0  0  0  0  0  0  0  0  0
  188.7420  177.4090  144.3210 C   0  0  0  0  0  0  0  0  0  0  0  0
  190.4940  177.1450  145.7480 C   0  0  0  0  0  0  0  0  0  0  0  0
  186.2290  178.1160  145.6840 C   0  0  0  0  0  3  0  0  0  0  0  0
  188.9440  177.9690  141.5190 C   0  0  1  0  0  3  0  0  0  0  0  0
  185.1760  178.2120  142.0430 C   0  0  0  0  0  2  0  0  0  0  0  0
  185.0920  178.8210  147.6560 F   0  0  0  0  0  0  0  0  0  0  0  0
  189.9440  178.5960  142.4950 C   0  0  0  0  0  2  0  0  0  0  0  0
  187.5680  177.8990  142.1550 C   0  0  0  0  0  0  0  0  0  0  0  0
  189.0450  176.7880  145.6420 C   0  0  0  0  0  2  0  0  0  0  0  0
  184.0360  179.1330  145.5420 C   0  0  0  0  0  3  0  0  0  0  0  0
  189.8580  177.9260  143.8290 C   0  0  0  0  0  0  0  0  0  0  0  0
  190.9490  177.7860  144.7220 N   0  0  0  0  0  0  0  0  0  0  0  0
  186.5210  178.2980  141.5060 N   0  0  0  0  0  0  0  0  0  0  0  0
  185.1740  178.4290  143.5250 C   0  0  0  0  0  0  0  0  0  0  0  0
  184.0600  178.9940  144.1520 C   0  0  0  0  0  3  0  0  0  0  0  0
  191.3190  176.8090  146.8730 C   0  0  0  0  0  0  0  0  0  0  0  0
  191.9850  176.5390  147.7810 N   0  0  0  0  0  0  0  0  0  0  0  0
  188.9500  178.7320  140.1970 C   0  0  0  0  0  2  0  0  0  0  0  0
  188.2280  174.8580  136.6610 C   0  0  0  0  0  0  0  0  0  0  0  0
  189.4740  176.0610  138.4130 C   0  0  0  0  0  3  0  0  0  0  0  0
  186.3620  177.7210  137.8500 N   0  0  0  0  0  0  0  0  0  0  0  0
  186.8670  178.5130  138.7960 N   0  0  0  0  0  0  0  0  0  0  0  0
  188.1680  173.7320  135.6930 C   0  0  0  0  0  1  0  0  0  0  0  0
  188.0820  178.0530  139.1920 C   0  0  0  0  0  0  0  0  0  0  0  0
  189.3770  175.0050  137.4840 C   0  0  0  0  0  2  0  0  0  0  0  0
  187.2620  176.7500  137.6330 C   0  0  0  0  0  0  0  0  0  0  0  0
  188.3930  176.9260  138.4730 C   0  0  0  0  0  0  0  0  0  0  0  0
  187.1810  175.7360  136.7410 N   0  0  0  0  0  0  0  0  0  0  0  0
  1 11  1  6  0  0  0
  1  2  1  0  0  0  0
  1  4  1  0  0  0  0
  2  6  1  0  0  0  0
  3  9  1  0  0  0  0
  4 12  1  0  0  0  0
  5 19  1  0  0  0  0
  6  3  2  0  0  0  0
  7 21  1  6  0  0  0
  7 11  1  0  0  0  0
  7 10  1  0  0  0  0
  8 17  1  0  0  0  0
 10 14  1  0  0  0  0
 12  5  1  0  0  0  0
 13  3  1  0  0  0  0
 14  4  2  0  0  0  0
 14 15  1  0  0  0  0
 15  5  2  0  0  0  0
 16  8  1  0  0  0  0
 16 11  2  0  0  0  0
 17 18  1  0  0  0  0
 17  2  2  0  0  0  0
 18 13  2  0  0  0  0
 19 20  3  0  0  0  0
 22 31  2  0  0  0  0
 22 28  1  0  0  0  0
 23 30  2  0  0  0  0
 24 25  1  0  0  0  0
 25 27  2  0  0  0  0
 26 22  1  0  0  0  0
 27 21  1  0  0  0  0
 28 23  1  0  0  0  0
 29 24  2  0  0  0  0
 29 30  1  0  0  0  0
 30 27  1  0  0  0  0
 31 29  1  0  0  0  0
M  END
>  <MODEL>
5

>  <REMARK>
 VINA RESULT:      -8.9      3.386      5.988
  Name = 
  3 active torsions:
  status: ('A' for Active; 'I' for Inactive)
    1  A    between atoms: C_2  and  C_13
    2  A    between atoms: C_9  and  C_23
    3  A    between atoms: C_15  and  C_23
                            x       y       z     vdW  Elec       q    Type
                         _______ _______ _______ _____ _____    ______ ____

>  <TORSDO>
F 3

$$$$
=
 OpenBabel10272400303D

 31 36  0  0  1  0  0  0  0  0999 V2000
  188.9010  178.4630  144.0860 C   0  0  2  0  0  3  0  0  0  0  0  0
  189.3860  177.6470  145.2680 C   0  0  0  0  0  0  0  0  0  0  0  0
  189.0480  176.5920  147.4320 C   0  0  0  0  0  0  0  0  0  0  0  0
  187.4180  178.3240  143.8180 C   0  0  0  0  0  0  0  0  0  0  0  0
  185.1470  178.4400  143.8330 C   0  0  0  0  0  0  0  0  0  0  0  0
  188.5470  177.3070  146.3410 C   0  0  0  0  0  3  0  0  0  0  0  0
  189.0670  178.2130  141.4780 C   0  0  1  0  0  3  0  0  0  0  0  0
  191.6640  177.7290  144.2250 C   0  0  0  0  0  2  0  0  0  0  0  0
  188.2280  176.2580  148.4560 F   0  0  0  0  0  0  0  0  0  0  0  0
  187.7180  177.4870  141.4950 C   0  0  0  0  0  2  0  0  0  0  0  0
  189.7240  178.1240  142.8420 C   0  0  0  0  0  0  0  0  0  0  0  0
  186.3100  178.7470  144.7210 C   0  0  0  0  0  2  0  0  0  0  0  0
  190.3970  176.2300  147.4710 C   0  0  0  0  0  3  0  0  0  0  0  0
  186.9000  177.9390  142.6620 C   0  0  0  0  0  0  0  0  0  0  0  0
  185.4830  177.9860  142.6710 N   0  0  0  0  0  0  0  0  0  0  0  0
  190.9690  177.7860  142.9530 N   0  0  0  0  0  0  0  0  0  0  0  0
  190.7450  177.2860  145.3210 C   0  0  0  0  0  0  0  0  0  0  0  0
  191.2470  176.5830  146.4200 C   0  0  0  0  0  3  0  0  0  0  0  0
  183.7760  178.6330  144.2150 C   0  0  0  0  0  0  0  0  0  0  0  0
  182.6720  178.7890  144.5230 N   0  0  0  0  0  0  0  0  0  0  0  0
  189.9450  177.6640  140.3570 C   0  0  0  0  0  2  0  0  0  0  0  0
  188.3390  175.8910  135.6330 C   0  0  0  0  0  0  0  0  0  0  0  0
  189.2530  175.6370  137.9060 C   0  0  0  0  0  3  0  0  0  0  0  0
  188.5060  179.0820  137.3320 N   0  0  0  0  0  0  0  0  0  0  0  0
  188.9820  179.1630  138.5750 N   0  0  0  0  0  0  0  0  0  0  0  0
  187.9470  175.2610  134.3460 C   0  0  0  0  0  1  0  0  0  0  0  0
  189.3270  177.9300  139.0250 C   0  0  0  0  0  0  0  0  0  0  0  0
  188.8670  175.0780  136.6710 C   0  0  0  0  0  2  0  0  0  0  0  0
  188.5520  177.7880  136.9800 C   0  0  0  0  0  0  0  0  0  0  0  0
  189.0810  177.0050  138.0410 C   0  0  0  0  0  0  0  0  0  0  0  0
  188.1900  177.2420  135.7970 N   0  0  0  0  0  0  0  0  0  0  0  0
  1 11  1  6  0  0  0
  1  2  1  0  0  0  0
  2 17  2  0  0  0  0
  2  6  1  0  0  0  0
  3 13  1  0  0  0  0
  3  9  1  0  0  0  0
  4  1  1  0  0  0  0
  4 12  1  0  0  0  0
  5 19  1  0  0  0  0
  5 12  1  0  0  0  0
  6  3  2  0  0  0  0
  7 21  1  6  0  0  0
  7 10  1  0  0  0  0
  7 11  1  0  0  0  0
  8 17  1  0  0  0  0
 10 14  1  0  0  0  0
 11 16  2  0  0  0  0
 14 15  1  0  0  0  0
 14  4  2  0  0  0  0
 15  5  2  0  0  0  0
 16  8  1  0  0  0  0
 17 18  1  0  0  0  0
 18 13  2  0  0  0  0
 19 20  3  0  0  0  0
 22 31  2  0  0  0  0
 22 28  1  0  0  0  0
 23 30  2  0  0  0  0
 24 25  1  0  0  0  0
 25 27  2  0  0  0  0
 26 22  1  0  0  0  0
 27 21  1  0  0  0  0
 28 23  1  0  0  0  0
 29 24  2  0  0  0  0
 29 30  1  0  0  0  0
 30 27  1  0  0  0  0
 31 29  1  0  0  0  0
M  END
>  <MODEL>
6

>  <REMARK>
 VINA RESULT:      -8.8      2.866      6.294
  Name = 
  3 active torsions:
  status: ('A' for Active; 'I' for Inactive)
    1  A    between atoms: C_2  and  C_13
    2  A    between atoms: C_9  and  C_23
    3  A    between atoms: C_15  and  C_23
                            x       y       z     vdW  Elec       q    Type
                         _______ _______ _______ _____ _____    ______ ____

>  <TORSDO>
F 3

$$$$
=
 OpenBabel10272400303D

 31 36  0  0  1  0  0  0  0  0999 V2000
  187.1930  177.0250  143.4030 C   0  0  2  0  0  3  0  0  0  0  0  0
  187.7680  177.3250  144.7730 C   0  0  0  0  0  0  0  0  0  0  0  0
  189.6250  177.4870  146.3360 C   0  0  0  0  0  0  0  0  0  0  0  0
  188.1620  177.2790  142.2680 C   0  0  0  0  0  0  0  0  0  0  0  0
  189.8310  177.2010  140.7260 C   0  0  0  0  0  0  0  0  0  0  0  0
  189.1430  177.2460  145.0450 C   0  0  0  0  0  3  0  0  0  0  0  0
  185.5040  178.2420  141.8040 C   0  0  1  0  0  3  0  0  0  0  0  0
  185.4050  177.6080  145.5610 C   0  0  0  0  0  2  0  0  0  0  0  0
  190.9540  177.4210  146.5840 F   0  0  0  0  0  0  0  0  0  0  0  0
  186.6930  178.9290  141.1250 C   0  0  0  0  0  2  0  0  0  0  0  0
  185.8880  177.7970  143.2020 C   0  0  0  0  0  0  0  0  0  0  0  0
  189.4460  176.5630  142.0220 C   0  0  0  0  0  2  0  0  0  0  0  0
  188.7340  177.7850  147.3700 C   0  0  0  0  0  3  0  0  0  0  0  0
  187.9200  178.0810  141.2430 C   0  0  0  0  0  0  0  0  0  0  0  0
  188.9670  178.0560  140.2880 N   0  0  0  0  0  0  0  0  0  0  0  0
  185.1140  178.0490  144.2090 N   0  0  0  0  0  0  0  0  0  0  0  0
  186.8790  177.6180  145.8240 C   0  0  0  0  0  0  0  0  0  0  0  0
  187.3610  177.8440  147.1170 C   0  0  0  0  0  3  0  0  0  0  0  0
  191.0410  176.8990  140.0140 C   0  0  0  0  0  0  0  0  0  0  0  0
  192.0160  176.6550  139.4410 N   0  0  0  0  0  0  0  0  0  0  0  0
  184.2860  179.1610  141.7840 C   0  0  0  0  0  2  0  0  0  0  0  0
  181.9560  176.3830  137.9240 C   0  0  0  0  0  0  0  0  0  0  0  0
  183.0000  176.6650  140.1380 C   0  0  0  0  0  3  0  0  0  0  0  0
  182.8900  179.8330  138.4930 N   0  0  0  0  0  0  0  0  0  0  0  0
  183.4790  180.1960  139.6330 N   0  0  0  0  0  0  0  0  0  0  0  0
  181.3380  175.4820  136.9190 C   0  0  0  0  0  1  0  0  0  0  0  0
  183.6170  179.1210  140.4510 C   0  0  0  0  0  0  0  0  0  0  0  0
  182.4060  175.8430  139.1590 C   0  0  0  0  0  2  0  0  0  0  0  0
  182.6520  178.5160  138.5790 C   0  0  0  0  0  0  0  0  0  0  0  0
  183.1100  178.0100  139.8250 C   0  0  0  0  0  0  0  0  0  0  0  0
  182.0880  177.7170  137.6450 N   0  0  0  0  0  0  0  0  0  0  0  0
  1  4  1  6  0  0  0
  1  2  1  0  0  0  0
  2  6  2  0  0  0  0
  2 17  1  0  0  0  0
  3  9  1  0  0  0  0
  3 13  2  0  0  0  0
  5 12  1  0  0  0  0
  6  3  1  0  0  0  0
  7 21  1  1  0  0  0
  7 11  1  0  0  0  0
  8 17  1  0  0  0  0
 10 14  1  0  0  0  0
 10  7  1  0  0  0  0
 11  1  1  0  0  0  0
 11 16  2  0  0  0  0
 12  4  1  0  0  0  0
 14  4  2  0  0  0  0
 15  5  2  0  0  0  0
 15 14  1  0  0  0  0
 16  8  1  0  0  0  0
 17 18  2  0  0  0  0
 18 13  1  0  0  0  0
 19  5  1  0  0  0  0
 20 19  3  0  0  0  0
 22 28  1  0  0  0  0
 24 29  2  0  0  0  0
 24 25  1  0  0  0  0
 25 27  2  0  0  0  0
 26 22  1  0  0  0  0
 27 21  1  0  0  0  0
 28 23  1  0  0  0  0
 29 30  1  0  0  0  0
 30 23  2  0  0  0  0
 30 27  1  0  0  0  0
 31 22  2  0  0  0  0
 31 29  1  0  0  0  0
M  END
>  <MODEL>
7

>  <REMARK>
 VINA RESULT:      -8.6      1.902      2.281
  Name = 
  3 active torsions:
  status: ('A' for Active; 'I' for Inactive)
    1  A    between atoms: C_2  and  C_13
    2  A    between atoms: C_9  and  C_23
    3  A    between atoms: C_15  and  C_23
                            x       y       z     vdW  Elec       q    Type
                         _______ _______ _______ _____ _____    ______ ____

>  <TORSDO>
F 3

$$$$
=
 OpenBabel10272400303D

 31 36  0  0  1  0  0  0  0  0999 V2000
  188.5220  177.8250  138.0330 C   0  0  2  0  0  3  0  0  0  0  0  0
  187.5550  177.0900  137.1250 C   0  0  0  0  0  0  0  0  0  0  0  0
  187.0640  175.5730  135.2890 C   0  0  0  0  0  0  0  0  0  0  0  0
  189.8260  177.0910  138.2540 C   0  0  0  0  0  0  0  0  0  0  0  0
  191.8970  176.1630  138.0990 C   0  0  0  0  0  0  0  0  0  0  0  0
  187.9880  176.1940  136.1350 C   0  0  0  0  0  3  0  0  0  0  0  0
  188.6790  178.2250  140.6220 C   0  0  1  0  0  3  0  0  0  0  0  0
  185.7250  178.4070  138.2210 C   0  0  0  0  0  2  0  0  0  0  0  0
  187.4910  174.7000  134.3470 F   0  0  0  0  0  0  0  0  0  0  0  0
  189.5690  176.9820  140.7270 C   0  0  0  0  0  2  0  0  0  0  0  0
  187.8400  178.1610  139.3600 C   0  0  0  0  0  0  0  0  0  0  0  0
  190.8500  176.7700  137.2200 C   0  0  0  0  0  3  0  0  0  0  0  0
  185.7020  175.8600  135.4100 C   0  0  0  0  0  3  0  0  0  0  0  0
  190.3060  176.7630  139.4440 C   0  0  1  0  0  3  0  0  0  0  0  0
  191.5870  176.1630  139.3540 N   0  0  0  0  0  0  0  0  0  0  0  0
  186.5690  178.4070  139.4010 N   0  0  0  0  0  0  0  0  0  0  0  0
  186.1820  177.3790  137.2320 C   0  0  0  0  0  0  0  0  0  0  0  0
  185.2610  176.7680  136.3760 C   0  0  0  0  0  3  0  0  0  0  0  0
  193.1390  175.6330  137.6140 C   0  0  0  0  0  0  0  0  0  0  0  0
  194.1410  175.2060  137.2230 N   0  0  0  0  0  0  0  0  0  0  0  0
  187.8400  178.3780  141.8880 C   0  0  0  0  0  2  0  0  0  0  0  0
  188.2540  177.6760  147.1200 C   0  0  0  0  0  0  0  0  0  0  0  0
  187.0250  177.8280  144.9910 C   0  0  0  0  0  3  0  0  0  0  0  0
  190.5110  178.2780  144.3560 N   0  0  0  0  0  0  0  0  0  0  0  0
  190.0420  178.4020  143.1140 N   0  0  0  0  0  0  0  0  0  0  0  0
  188.2210  177.4850  148.5930 C   0  0  0  0  0  1  0  0  0  0  0  0
  188.6930  178.2470  143.1050 C   0  0  0  0  0  0  0  0  0  0  0  0
  187.0370  177.6490  146.3890 C   0  0  0  0  0  2  0  0  0  0  0  0
  189.4550  178.0470  145.1500 C   0  0  0  0  0  0  0  0  0  0  0  0
  188.2570  178.0230  144.3880 C   0  0  0  0  0  0  0  0  0  0  0  0
  189.4540  177.8790  146.4920 N   0  0  0  0  0  0  0  0  0  0  0  0
  1  2  1  6  0  0  0
  1  4  1  0  0  0  0
  1 11  1  0  0  0  0
  2 17  1  0  0  0  0
  3 13  2  0  0  0  0
  3  6  1  0  0  0  0
  4 14  1  0  0  0  0
  5 15  2  0  0  0  0
  6  2  2  0  0  0  0
  7 10  1  0  0  0  0
  7 21  1  1  0  0  0
  8 16  1  0  0  0  0
  9  3  1  0  0  0  0
 11 16  2  0  0  0  0
 11  7  1  0  0  0  0
 12  5  1  0  0  0  0
 12  4  2  0  0  0  0
 13 18  1  0  0  0  0
 14 10  1  6  0  0  0
 15 14  1  0  0  0  0
 17  8  1  0  0  0  0
 18 17  2  0  0  0  0
 19  5  1  0  0  0  0
 20 19  3  0  0  0  0
 21 27  1  0  0  0  0
 22 26  1  0  0  0  0
 23 28  1  0  0  0  0
 24 29  2  0  0  0  0
 25 24  1  0  0  0  0
 27 25  2  0  0  0  0
 27 30  1  0  0  0  0
 28 22  1  0  0  0  0
 29 31  1  0  0  0  0
 30 23  2  0  0  0  0
 30 29  1  0  0  0  0
 31 22  2  0  0  0  0
M  END
>  <MODEL>
8

>  <REMARK>
 VINA RESULT:      -8.1      4.323      8.519
  Name = 
  3 active torsions:
  status: ('A' for Active; 'I' for Inactive)
    1  A    between atoms: C_2  and  C_13
    2  A    between atoms: C_9  and  C_23
    3  A    between atoms: C_15  and  C_23
                            x       y       z     vdW  Elec       q    Type
                         _______ _______ _______ _____ _____    ______ ____

>  <TORSDO>
F 3

$$$$
=
 OpenBabel10272400303D

 31 36  0  0  1  0  0  0  0  0999 V2000
  189.2910  178.4210  143.7770 C   0  0  2  0  0  3  0  0  0  0  0  0
  189.5770  177.7260  145.0940 C   0  0  0  0  0  0  0  0  0  0  0  0
  188.8850  176.8460  147.2530 C   0  0  0  0  0  0  0  0  0  0  0  0
  187.8830  178.2060  143.2690 C   0  0  0  0  0  0  0  0  0  0  0  0
  185.6430  178.2390  142.8770 C   0  0  0  0  0  0  0  0  0  0  0  0
  188.5690  177.4470  146.0310 C   0  0  0  0  0  3  0  0  0  0  0  0
  189.9220  177.9580  141.2720 C   0  0  1  0  0  3  0  0  0  0  0  0
  192.0020  177.8040  144.4620 C   0  0  0  0  0  2  0  0  0  0  0  0
  187.9030  176.5690  148.1430 F   0  0  0  0  0  0  0  0  0  0  0  0
  188.6070  177.1870  141.1180 C   0  0  0  0  0  2  0  0  0  0  0  0
  190.3290  178.0090  142.7320 C   0  0  0  0  0  0  0  0  0  0  0  0
  186.6240  178.6620  143.9240 C   0  0  0  0  0  2  0  0  0  0  0  0
  190.2130  176.5380  147.5590 C   0  0  0  0  0  3  0  0  0  0  0  0
  187.5860  177.7050  142.0790 C   0  0  0  0  0  0  0  0  0  0  0  0
  186.1890  177.7010  141.8370 N   0  0  0  0  0  0  0  0  0  0  0  0
  191.5420  177.7270  143.0880 N   0  0  0  0  0  0  0  0  0  0  0  0
  190.9130  177.4210  145.4160 C   0  0  0  0  0  0  0  0  0  0  0  0
  191.2280  176.8320  146.6440 C   0  0  0  0  0  3  0  0  0  0  0  0
  184.2230  178.4130  142.9960 C   0  0  0  0  0  0  0  0  0  0  0  0
  183.0780  178.5540  143.0920 N   0  0  0  0  0  0  0  0  0  0  0  0
  190.9960  177.3490  140.3740 C   0  0  0  0  0  2  0  0  0  0  0  0
  187.9400  177.7850  136.0720 C   0  0  0  0  0  0  0  0  0  0  0  0
  189.1090  178.6470  138.0620 C   0  0  0  0  0  3  0  0  0  0  0  0
  189.7850  175.1550  137.7380 N   0  0  0  0  0  0  0  0  0  0  0  0
  190.4820  175.4130  138.8450 N   0  0  0  0  0  0  0  0  0  0  0  0
  187.0510  178.0460  134.9110 C   0  0  0  0  0  1  0  0  0  0  0  0
  190.3830  176.7300  139.1630 C   0  0  0  0  0  0  0  0  0  0  0  0
  188.2710  178.8540  136.9480 C   0  0  0  0  0  2  0  0  0  0  0  0
  189.2310  176.3130  137.3470 C   0  0  0  0  0  0  0  0  0  0  0  0
  189.5840  177.3590  138.2400 C   0  0  0  0  0  0  0  0  0  0  0  0
  188.4210  176.5210  136.2840 N   0  0  0  0  0  0  0  0  0  0  0  0
  1 11  1  6  0  0  0
  1  2  1  0  0  0  0
  2 17  2  0  0  0  0
  2  6  1  0  0  0  0
  3 13  1  0  0  0  0
  3  9  1  0  0  0  0
  4  1  1  0  0  0  0
  4 12  1  0  0  0  0
  5 19  1  0  0  0  0
  5 12  1  0  0  0  0
  6  3  2  0  0  0  0
  7 21  1  6  0  0  0
  7 11  1  0  0  0  0
  8 17  1  0  0  0  0
 10  7  1  0  0  0  0
 10 14  1  0  0  0  0
 11 16  2  0  0  0  0
 14  4  2  0  0  0  0
 15 14  1  0  0  0  0
 15  5  2  0  0  0  0
 16  8  1  0  0  0  0
 17 18  1  0  0  0  0
 18 13  2  0  0  0  0
 19 20  3  0  0  0  0
 22 31  2  0  0  0  0
 22 28  1  0  0  0  0
 23 30  2  0  0  0  0
 24 25  1  0  0  0  0
 25 27  2  0  0  0  0
 26 22  1  0  0  0  0
 27 21  1  0  0  0  0
 28 23  1  0  0  0  0
 29 24  2  0  0  0  0
 29 30  1  0  0  0  0
 30 27  1  0  0  0  0
 31 29  1  0  0  0  0
M  END
>  <MODEL>
9

>  <REMARK>
 VINA RESULT:      -7.7      2.604      6.361
  Name = 
  3 active torsions:
  status: ('A' for Active; 'I' for Inactive)
    1  A    between atoms: C_2  and  C_13
    2  A    between atoms: C_9  and  C_23
    3  A    between atoms: C_15  and  C_23
                            x       y       z     vdW  Elec       q    Type
                         _______ _______ _______ _____ _____    ______ ____

>  <TORSDO>
F 3

$$$$
