=
 OpenBabel10272415013D

 37 39  0  0  1  0  0  0  0  0999 V2000
  189.7750  176.8030  138.8720 C   0  0  0  0  0  0  0  0  0  0  0  0
  190.0580  177.2560  135.8420 C   0  0  0  0  0  2  0  0  0  0  0  0
  189.2090  175.8520  137.8580 C   0  0  2  0  0  3  0  0  0  0  0  0
  186.9730  178.0560  134.5720 C   0  0  0  0  0  0  0  0  0  0  0  0
  188.8530  177.6770  139.2530 C   0  0  0  0  0  0  0  0  0  0  0  0
  189.9880  175.8880  136.5250 C   0  0  2  0  0  3  0  0  0  0  0  0
  187.6180  177.4400  138.5070 C   0  0  0  0  0  0  0  0  0  0  0  0
  192.2230  176.4690  138.4600 C   0  0  0  0  0  2  0  0  0  0  0  0
  187.3540  175.8920  135.3960 O   0  0  0  0  0  0  0  0  0  0  0  0
  189.2590  177.2460  134.5400 C   0  0  0  0  0  2  0  0  0  0  0  0
  191.1310  176.6860  139.4980 C   0  0  0  0  0  2  0  0  0  0  0  0
  187.8120  176.3930  137.7030 C   0  0  0  0  0  0  0  0  0  0  0  0
  191.3360  175.1490  136.4950 C   0  0  1  0  0  3  0  0  0  0  0  0
  187.8020  177.0790  134.8170 C   0  0  0  0  0  0  0  0  0  0  0  0
  186.1910  178.9870  134.3460 O   0  0  0  0  0  0  0  0  0  0  0  0
  186.8100  175.8660  136.7140 C   0  0  2  0  0  3  0  0  0  0  0  0
  192.0730  175.0920  137.8320 C   0  0  0  0  0  2  0  0  0  0  0  0
  186.3830  178.2530  138.6220 C   0  0  0  0  0  0  0  0  0  0  0  0
  186.0420  179.0070  137.6710 O   0  0  0  0  0  0  0  0  0  0  0  0
  185.5620  178.1780  139.7930 N   0  0  0  0  0  2  0  0  0  0  0  0
  184.3070  178.9040  139.9290 C   0  0  0  0  0  2  0  0  0  0  0  0
  183.6520  178.5650  141.2550 C   0  0  0  0  0  1  0  0  0  0  0  0
  186.3380  174.1640  137.1490 S   0  0  0  0  0  0  0  0  0  0  0  0
  184.6100  174.4160  136.6430 C   0  0  2  0  0  3  0  0  0  0  0  0
  184.1950  175.8460  136.9430 C   0  0  0  0  0  1  0  0  0  0  0  0
  182.5750  174.2180  137.4840 C   0  0  0  0  0  1  0  0  0  0  0  0
  183.7860  173.5360  137.3460 O   0  0  0  0  0  0  0  0  0  0  0  0
  191.1340  173.7330  135.9760 C   0  0  0  0  0  2  0  0  0  0  0  0
  192.2510  171.6870  135.4750 O   0  0  0  0  0  1  0  0  0  0  0  0
  192.4680  173.0210  135.8230 C   0  0  1  0  0  3  0  0  0  0  0  0
  193.2750  173.6970  134.7580 C   0  0  0  0  0  3  0  0  0  0  0  0
  194.5240  174.1380  134.9550 C   0  0  0  0  0  3  0  0  0  0  0  0
  196.1450  175.0630  136.4020 F   0  0  0  0  0  0  0  0  0  0  0  0
  195.2430  174.0220  136.2630 C   0  0  0  0  0  2  0  0  0  0  0  0
  189.0810  178.7790  140.2400 C   0  0  0  0  0  2  0  0  0  0  0  0
  188.5340  178.3760  141.5960 C   0  0  0  0  0  2  0  0  0  0  0  0
  189.5570  177.8280  142.3640 O   0  0  0  0  0  1  0  0  0  0  0  0
  1  5  2  0  0  0  0
  1 11  1  0  0  0  0
  3 12  1  6  0  0  0
  3  1  1  0  0  0  0
  4 14  2  0  0  0  0
  5 35  1  0  0  0  0
  6  2  1  1  0  0  0
  6  3  1  0  0  0  0
  7 18  1  0  0  0  0
  7  5  1  0  0  0  0
  8 11  1  0  0  0  0
  9 16  1  0  0  0  0
 10 14  1  0  0  0  0
 10  2  1  0  0  0  0
 12  7  2  0  0  0  0
 13 28  1  1  0  0  0
 13  6  1  0  0  0  0
 13 17  1  0  0  0  0
 14  9  1  0  0  0  0
 15  4  2  0  0  0  0
 16 23  1  1  0  0  0
 16 12  1  0  0  0  0
 17  8  1  0  0  0  0
 18 20  1  0  0  0  0
 19 18  2  0  0  0  0
 20 21  1  0  0  0  0
 21 22  1  0  0  0  0
 24 25  1  1  0  0  0
 24 23  1  0  0  0  0
 24 27  1  0  0  0  0
 27 26  1  0  0  0  0
 30 29  1  6  0  0  0
 30 28  1  0  0  0  0
 31 32  2  0  0  0  0
 31 30  1  0  0  0  0
 32 34  1  0  0  0  0
 34 33  1  0  0  0  0
 35 36  1  0  0  0  0
 36 37  1  0  0  0  0
M  END
>  <MODEL>
1

>  <REMARK>
 VINA RESULT:      -4.4      0.000      0.000
  Name = 
  11 active torsions:
  status: ('A' for Active; 'I' for Inactive)
    1  A    between atoms: S_1  and  C_5
    2  A    between atoms: S_1  and  C_36
    3  A    between atoms: C_2  and  C_35
    4  A    between atoms: C_3  and  N_32
    5  A    between atoms: C_5  and  O_23
    6  A    between atoms: C_6  and  C_31
    7  A    between atoms: C_6  and  C_35
    8  A    between atoms: C_9  and  C_13
    9  A    between atoms: C_9  and  C_16
   10  A    between atoms: C_18  and  C_19
   11  A    between atoms: C_20  and  C_21
                            x       y       z     vdW  Elec       q    Type
                         _______ _______ _______ _____ _____    ______ ____

>  <TORSDO>
F 11

$$$$
=
 OpenBabel10272415013D

 37 39  0  0  1  0  0  0  0  0999 V2000
  187.0990  177.7830  138.6490 C   0  0  0  0  0  0  0  0  0  0  0  0
  186.9510  178.1890  135.6020 C   0  0  0  0  0  2  0  0  0  0  0  0
  187.0610  176.6350  137.6820 C   0  0  2  0  0  3  0  0  0  0  0  0
  183.8400  177.2170  134.5290 C   0  0  0  0  0  0  0  0  0  0  0  0
  185.8780  178.0660  139.0810 C   0  0  0  0  0  0  0  0  0  0  0  0
  187.6380  177.0130  136.3020 C   0  0  2  0  0  3  0  0  0  0  0  0
  184.9110  177.1910  138.4200 C   0  0  0  0  0  0  0  0  0  0  0  0
  189.3390  178.7510  138.0800 C   0  0  0  0  0  2  0  0  0  0  0  0
  185.3330  175.6020  135.3470 O   0  0  0  0  0  0  0  0  0  0  0  0
  186.2080  177.7110  134.3550 C   0  0  0  0  0  2  0  0  0  0  0  0
  188.3480  178.4130  139.1850 C   0  0  0  0  0  2  0  0  0  0  0  0
  185.5810  176.3640  137.6140 C   0  0  0  0  0  0  0  0  0  0  0  0
  189.1700  177.0810  136.1900 C   0  0  1  0  0  3  0  0  0  0  0  0
  185.0670  176.8230  134.7290 C   0  0  0  0  0  0  0  0  0  0  0  0
  182.6780  177.5960  134.3460 O   0  0  0  0  0  0  0  0  0  0  0  0
  184.9510  175.3530  136.6970 C   0  0  2  0  0  3  0  0  0  0  0  0
  189.8960  177.4710  137.4760 C   0  0  0  0  0  2  0  0  0  0  0  0
  183.4410  177.2490  138.6070 C   0  0  0  0  0  0  0  0  0  0  0  0
  182.8800  176.4400  139.3940 O   0  0  0  0  0  0  0  0  0  0  0  0
  182.6520  178.2270  137.9180 N   0  0  0  0  0  2  0  0  0  0  0  0
  181.2170  178.3700  138.1170 C   0  0  0  0  0  2  0  0  0  0  0  0
  180.9450  179.2550  139.3190 C   0  0  0  0  0  1  0  0  0  0  0  0
  185.4570  173.6730  137.1790 S   0  0  0  0  0  0  0  0  0  0  0  0
  183.8860  172.9420  136.6260 C   0  0  2  0  0  3  0  0  0  0  0  0
  182.7610  173.9420  136.8300 C   0  0  0  0  0  1  0  0  0  0  0  0
  183.2020  170.8500  136.4230 C   0  0  0  0  0  1  0  0  0  0  0  0
  183.6240  171.7890  137.3670 O   0  0  0  0  0  0  0  0  0  0  0  0
  189.7090  175.7460  135.6990 C   0  0  0  0  0  2  0  0  0  0  0  0
  189.6530  173.9850  137.3060 O   0  0  0  0  0  1  0  0  0  0  0  0
  190.4470  175.0220  136.8120 C   0  0  1  0  0  3  0  0  0  0  0  0
  191.7310  174.4650  136.2800 C   0  0  0  0  0  3  0  0  0  0  0  0
  192.9330  174.8090  136.7590 C   0  0  0  0  0  3  0  0  0  0  0  0
  193.4910  177.0300  137.3410 F   0  0  0  0  0  0  0  0  0  0  0  0
  193.1270  175.8010  137.8650 C   0  0  0  0  0  2  0  0  0  0  0  0
  185.5490  179.1670  140.0400 C   0  0  0  0  0  2  0  0  0  0  0  0
  185.7640  178.6900  141.4630 C   0  0  0  0  0  2  0  0  0  0  0  0
  184.5320  178.4230  142.0540 O   0  0  0  0  0  1  0  0  0  0  0  0
  1  5  2  0  0  0  0
  1 11  1  0  0  0  0
  3 12  1  6  0  0  0
  3  1  1  0  0  0  0
  4 14  2  0  0  0  0
  5 35  1  0  0  0  0
  6  2  1  1  0  0  0
  6  3  1  0  0  0  0
  7 18  1  0  0  0  0
  7  5  1  0  0  0  0
  8 11  1  0  0  0  0
  9 16  1  0  0  0  0
 10 14  1  0  0  0  0
 10  2  1  0  0  0  0
 12  7  2  0  0  0  0
 13 28  1  1  0  0  0
 13  6  1  0  0  0  0
 13 17  1  0  0  0  0
 14  9  1  0  0  0  0
 15  4  2  0  0  0  0
 16 23  1  1  0  0  0
 16 12  1  0  0  0  0
 17  8  1  0  0  0  0
 18 19  2  0  0  0  0
 20 21  1  0  0  0  0
 20 18  1  0  0  0  0
 21 22  1  0  0  0  0
 24 25  1  1  0  0  0
 24 23  1  0  0  0  0
 24 27  1  0  0  0  0
 26 27  1  0  0  0  0
 28 30  1  0  0  0  0
 30 29  1  6  0  0  0
 31 32  2  0  0  0  0
 31 30  1  0  0  0  0
 32 34  1  0  0  0  0
 33 34  1  0  0  0  0
 35 36  1  0  0  0  0
 36 37  1  0  0  0  0
M  END
>  <MODEL>
2

>  <REMARK>
 VINA RESULT:      -4.3      2.233      3.063
  Name = 
  11 active torsions:
  status: ('A' for Active; 'I' for Inactive)
    1  A    between atoms: S_1  and  C_5
    2  A    between atoms: S_1  and  C_36
    3  A    between atoms: C_2  and  C_35
    4  A    between atoms: C_3  and  N_32
    5  A    between atoms: C_5  and  O_23
    6  A    between atoms: C_6  and  C_31
    7  A    between atoms: C_6  and  C_35
    8  A    between atoms: C_9  and  C_13
    9  A    between atoms: C_9  and  C_16
   10  A    between atoms: C_18  and  C_19
   11  A    between atoms: C_20  and  C_21
                            x       y       z     vdW  Elec       q    Type
                         _______ _______ _______ _____ _____    ______ ____

>  <TORSDO>
F 11

$$$$
=
 OpenBabel10272415013D

 37 39  0  0  1  0  0  0  0  0999 V2000
  185.5140  176.5120  136.7570 C   0  0  0  0  0  0  0  0  0  0  0  0
  183.3750  177.6870  134.8830 C   0  0  0  0  0  2  0  0  0  0  0  0
  184.0800  176.0720  136.7930 C   0  0  2  0  0  3  0  0  0  0  0  0
  181.2440  179.6230  136.7490 C   0  0  0  0  0  0  0  0  0  0  0  0
  185.7300  177.4660  137.6530 C   0  0  0  0  0  0  0  0  0  0  0  0
  183.3760  176.2580  135.4320 C   0  0  2  0  0  3  0  0  0  0  0  0
  184.4750  177.7940  138.3290 C   0  0  0  0  0  0  0  0  0  0  0  0
  186.1750  175.6440  134.5020 C   0  0  0  0  0  2  0  0  0  0  0  0
  181.2640  177.2980  137.0670 O   0  0  0  0  0  0  0  0  0  0  0  0
  181.9570  178.2570  134.8760 C   0  0  0  0  0  2  0  0  0  0  0  0
  186.5940  175.8590  135.9490 C   0  0  0  0  0  2  0  0  0  0  0  0
  183.5200  176.9970  137.8420 C   0  0  0  0  0  0  0  0  0  0  0  0
  183.6890  175.2150  134.3460 C   0  0  1  0  0  3  0  0  0  0  0  0
  181.4510  178.4280  136.2700 C   0  0  0  0  0  0  0  0  0  0  0  0
  181.0560  180.7570  137.2020 O   0  0  0  0  0  0  0  0  0  0  0  0
  182.0670  177.0600  138.2210 C   0  0  2  0  0  3  0  0  0  0  0  0
  185.0810  174.5900  134.4310 C   0  0  0  0  0  2  0  0  0  0  0  0
  184.3100  178.8510  139.3550 C   0  0  0  0  0  0  0  0  0  0  0  0
  184.0600  180.0330  138.9980 O   0  0  0  0  0  0  0  0  0  0  0  0
  184.4120  178.5400  140.7500 N   0  0  0  0  0  2  0  0  0  0  0  0
  184.1930  179.5250  141.7990 C   0  0  0  0  0  2  0  0  0  0  0  0
  184.0490  178.8320  143.1410 C   0  0  0  0  0  1  0  0  0  0  0  0
  181.5590  175.5030  139.0120 S   0  0  0  0  0  0  0  0  0  0  0  0
  180.4270  176.3460  140.1570 C   0  0  2  0  0  3  0  0  0  0  0  0
  181.1520  177.4960  140.8340 C   0  0  0  0  0  1  0  0  0  0  0  0
  179.9850  174.2050  140.4770 C   0  0  0  0  0  1  0  0  0  0  0  0
  179.9840  175.4420  141.1230 O   0  0  0  0  0  0  0  0  0  0  0  0
  182.6450  174.1090  134.3800 C   0  0  0  0  0  2  0  0  0  0  0  0
  180.9690  173.7270  136.0320 O   0  0  0  0  0  1  0  0  0  0  0  0
  182.3470  173.6940  135.8110 C   0  0  1  0  0  3  0  0  0  0  0  0
  182.8640  172.3090  136.0470 C   0  0  0  0  0  3  0  0  0  0  0  0
  183.8120  172.0250  136.9480 C   0  0  0  0  0  3  0  0  0  0  0  0
  185.8100  173.1780  137.4610 F   0  0  0  0  0  0  0  0  0  0  0  0
  184.4740  173.0610  137.8040 C   0  0  0  0  0  2  0  0  0  0  0  0
  187.0450  178.1460  137.8730 C   0  0  0  0  0  2  0  0  0  0  0  0
  187.6700  177.6520  139.1630 C   0  0  0  0  0  2  0  0  0  0  0  0
  188.4390  178.6680  139.7240 O   0  0  0  0  0  1  0  0  0  0  0  0
  1  5  2  0  0  0  0
  3  1  1  6  0  0  0
  3 12  1  0  0  0  0
  4 15  2  0  0  0  0
  5 35  1  0  0  0  0
  5  7  1  0  0  0  0
  6  2  1  6  0  0  0
  6  3  1  0  0  0  0
  7 18  1  0  0  0  0
  8 11  1  0  0  0  0
  9 16  1  0  0  0  0
 10  2  1  0  0  0  0
 10 14  1  0  0  0  0
 11  1  1  0  0  0  0
 12 16  1  0  0  0  0
 12  7  2  0  0  0  0
 13 28  1  1  0  0  0
 13 17  1  0  0  0  0
 13  6  1  0  0  0  0
 14  4  2  0  0  0  0
 14  9  1  0  0  0  0
 16 23  1  6  0  0  0
 17  8  1  0  0  0  0
 18 20  1  0  0  0  0
 19 18  2  0  0  0  0
 20 21  1  0  0  0  0
 21 22  1  0  0  0  0
 23 24  1  0  0  0  0
 24 25  1  1  0  0  0
 24 27  1  0  0  0  0
 26 27  1  0  0  0  0
 28 30  1  0  0  0  0
 30 29  1  6  0  0  0
 30 31  1  0  0  0  0
 31 32  2  0  0  0  0
 32 34  1  0  0  0  0
 33 34  1  0  0  0  0
 35 36  1  0  0  0  0
 36 37  1  0  0  0  0
M  END
>  <MODEL>
3

>  <REMARK>
 VINA RESULT:      -4.3      4.474      6.571
  Name = 
  11 active torsions:
  status: ('A' for Active; 'I' for Inactive)
    1  A    between atoms: S_1  and  C_5
    2  A    between atoms: S_1  and  C_36
    3  A    between atoms: C_2  and  C_35
    4  A    between atoms: C_3  and  N_32
    5  A    between atoms: C_5  and  O_23
    6  A    between atoms: C_6  and  C_31
    7  A    between atoms: C_6  and  C_35
    8  A    between atoms: C_9  and  C_13
    9  A    between atoms: C_9  and  C_16
   10  A    between atoms: C_18  and  C_19
   11  A    between atoms: C_20  and  C_21
                            x       y       z     vdW  Elec       q    Type
                         _______ _______ _______ _____ _____    ______ ____

>  <TORSDO>
F 11

$$$$
=
 OpenBabel10272415013D

 37 39  0  0  1  0  0  0  0  0999 V2000
  185.0710  175.0170  137.2860 C   0  0  0  0  0  0  0  0  0  0  0  0
  185.7450  177.5090  135.6120 C   0  0  0  0  0  2  0  0  0  0  0  0
  185.8050  176.1970  137.8540 C   0  0  2  0  0  3  0  0  0  0  0  0
  189.1350  177.5800  135.0880 C   0  0  0  0  0  0  0  0  0  0  0  0
  185.9280  174.0950  136.8690 C   0  0  0  0  0  0  0  0  0  0  0  0
  185.4620  177.5090  137.1160 C   0  0  2  0  0  3  0  0  0  0  0  0
  187.2950  174.5780  137.0590 C   0  0  0  0  0  0  0  0  0  0  0  0
  182.8320  176.0610  136.8680 C   0  0  0  0  0  2  0  0  0  0  0  0
  188.2970  177.9100  137.2550 O   0  0  0  0  0  0  0  0  0  0  0  0
  186.8870  178.4690  135.2810 C   0  0  0  0  0  2  0  0  0  0  0  0
  183.5860  174.8230  137.3340 C   0  0  0  0  0  2  0  0  0  0  0  0
  187.2350  175.7850  137.6260 C   0  0  0  0  0  0  0  0  0  0  0  0
  184.1120  178.1600  137.4570 C   0  0  1  0  0  3  0  0  0  0  0  0
  188.1710  177.9830  135.8670 C   0  0  0  0  0  0  0  0  0  0  0  0
  190.0440  177.1900  134.3460 O   0  0  0  0  0  0  0  0  0  0  0  0
  188.4220  176.6580  137.9260 C   0  0  2  0  0  3  0  0  0  0  0  0
  183.0120  177.1860  137.8760 C   0  0  0  0  0  2  0  0  0  0  0  0
  188.5220  173.8460  136.6600 C   0  0  0  0  0  0  0  0  0  0  0  0
  189.0220  172.9940  137.4420 O   0  0  0  0  0  0  0  0  0  0  0  0
  189.1340  174.0820  135.3870 N   0  0  0  0  0  2  0  0  0  0  0  0
  190.2990  173.3440  134.9190 C   0  0  0  0  0  2  0  0  0  0  0  0
  191.5680  174.0920  135.2820 C   0  0  0  0  0  1  0  0  0  0  0  0
  188.5580  176.9340  139.7190 S   0  0  0  0  0  0  0  0  0  0  0  0
  190.3450  177.2560  139.6260 C   0  0  2  0  0  3  0  0  0  0  0  0
  191.0160  176.1660  138.8090 C   0  0  0  0  0  1  0  0  0  0  0  0
  189.8360  176.8500  141.7380 C   0  0  0  0  0  1  0  0  0  0  0  0
  190.8820  177.2700  140.9140 O   0  0  0  0  0  0  0  0  0  0  0  0
  184.3040  179.1960  138.5550 C   0  0  0  0  0  2  0  0  0  0  0  0
  185.7820  179.2960  140.4230 O   0  0  0  0  0  1  0  0  0  0  0  0
  184.7640  178.5360  139.8430 C   0  0  1  0  0  3  0  0  0  0  0  0
  183.6090  178.4300  140.7910 C   0  0  0  0  0  3  0  0  0  0  0  0
  183.7510  178.4300  142.1210 C   0  0  0  0  0  3  0  0  0  0  0  0
  185.0510  177.7840  143.9850 F   0  0  0  0  0  0  0  0  0  0  0  0
  185.0790  178.5150  142.8090 C   0  0  0  0  0  2  0  0  0  0  0  0
  185.5390  172.7980  136.2310 C   0  0  0  0  0  2  0  0  0  0  0  0
  185.3350  172.9980  134.7420 C   0  0  0  0  0  2  0  0  0  0  0  0
  184.1520  172.3800  134.3480 O   0  0  0  0  0  1  0  0  0  0  0  0
  1 11  1  0  0  0  0
  3  1  1  6  0  0  0
  4 14  2  0  0  0  0
  5  7  1  0  0  0  0
  5  1  2  0  0  0  0
  6  2  1  6  0  0  0
  6 13  1  0  0  0  0
  6  3  1  0  0  0  0
  7 12  2  0  0  0  0
  8 11  1  0  0  0  0
  8 17  1  0  0  0  0
  9 16  1  0  0  0  0
 10  2  1  0  0  0  0
 10 14  1  0  0  0  0
 12  3  1  0  0  0  0
 12 16  1  0  0  0  0
 13 17  1  0  0  0  0
 13 28  1  1  0  0  0
 14  9  1  0  0  0  0
 15  4  2  0  0  0  0
 16 23  1  1  0  0  0
 18  7  1  0  0  0  0
 18 19  2  0  0  0  0
 20 18  1  0  0  0  0
 21 22  1  0  0  0  0
 21 20  1  0  0  0  0
 24 25  1  6  0  0  0
 24 23  1  0  0  0  0
 24 27  1  0  0  0  0
 27 26  1  0  0  0  0
 28 30  1  0  0  0  0
 30 29  1  1  0  0  0
 30 31  1  0  0  0  0
 31 32  2  0  0  0  0
 32 34  1  0  0  0  0
 34 33  1  0  0  0  0
 35  5  1  0  0  0  0
 36 35  1  0  0  0  0
 37 36  1  0  0  0  0
M  END
>  <MODEL>
4

>  <REMARK>
 VINA RESULT:      -3.7      3.238      7.980
  Name = 
  11 active torsions:
  status: ('A' for Active; 'I' for Inactive)
    1  A    between atoms: S_1  and  C_5
    2  A    between atoms: S_1  and  C_36
    3  A    between atoms: C_2  and  C_35
    4  A    between atoms: C_3  and  N_32
    5  A    between atoms: C_5  and  O_23
    6  A    between atoms: C_6  and  C_31
    7  A    between atoms: C_6  and  C_35
    8  A    between atoms: C_9  and  C_13
    9  A    between atoms: C_9  and  C_16
   10  A    between atoms: C_18  and  C_19
   11  A    between atoms: C_20  and  C_21
                            x       y       z     vdW  Elec       q    Type
                         _______ _______ _______ _____ _____    ______ ____

>  <TORSDO>
F 11

$$$$
=
 OpenBabel10272415013D

 37 39  0  0  1  0  0  0  0  0999 V2000
  185.9700  174.0650  136.8060 C   0  0  0  0  0  0  0  0  0  0  0  0
  185.8830  176.3980  134.8020 C   0  0  0  0  0  2  0  0  0  0  0  0
  185.9590  175.5020  137.2410 C   0  0  2  0  0  3  0  0  0  0  0  0
  188.9250  177.9850  134.8550 C   0  0  0  0  0  0  0  0  0  0  0  0
  187.2130  173.6110  136.7340 C   0  0  0  0  0  0  0  0  0  0  0  0
  185.2740  176.4200  136.2060 C   0  0  2  0  0  3  0  0  0  0  0  0
  188.1470  174.6910  137.0510 C   0  0  0  0  0  0  0  0  0  0  0  0
  183.6750  173.8970  135.8150 C   0  0  0  0  0  2  0  0  0  0  0  0
  187.5290  178.1070  136.7380 O   0  0  0  0  0  0  0  0  0  0  0  0
  186.5410  177.7400  134.4820 C   0  0  0  0  0  2  0  0  0  0  0  0
  184.7520  173.2080  136.6410 C   0  0  0  0  0  2  0  0  0  0  0  0
  187.4350  175.7820  137.3450 C   0  0  0  0  0  0  0  0  0  0  0  0
  183.7370  176.3980  136.1760 C   0  0  1  0  0  3  0  0  0  0  0  0
  187.7240  177.9700  135.3630 C   0  0  0  0  0  0  0  0  0  0  0  0
  190.0620  177.9910  134.3710 O   0  0  0  0  0  0  0  0  0  0  0  0
  188.0160  177.1330  137.6580 C   0  0  2  0  0  3  0  0  0  0  0  0
  183.1000  175.0730  136.5910 C   0  0  0  0  0  2  0  0  0  0  0  0
  189.6250  174.5780  137.0210 C   0  0  0  0  0  0  0  0  0  0  0  0
  190.2620  174.4360  138.0980 O   0  0  0  0  0  0  0  0  0  0  0  0
  190.3360  174.6100  135.7780 N   0  0  0  0  0  2  0  0  0  0  0  0
  191.7790  174.4360  135.6860 C   0  0  0  0  0  2  0  0  0  0  0  0
  192.4690  175.7870  135.7390 C   0  0  0  0  0  1  0  0  0  0  0  0
  187.5810  177.6210  139.3560 S   0  0  0  0  0  0  0  0  0  0  0  0
  189.2610  178.2180  139.7120 C   0  0  2  0  0  3  0  0  0  0  0  0
  190.2620  177.4630  138.8540 C   0  0  0  0  0  1  0  0  0  0  0  0
  190.1030  176.7260  141.1080 C   0  0  0  0  0  1  0  0  0  0  0  0
  189.5530  178.0080  141.0610 O   0  0  0  0  0  0  0  0  0  0  0  0
  183.1900  177.5100  137.0590 C   0  0  0  0  0  2  0  0  0  0  0  0
  184.3490  178.9670  138.5500 O   0  0  0  0  0  1  0  0  0  0  0  0
  184.0020  177.6310  138.3380 C   0  0  1  0  0  3  0  0  0  0  0  0
  183.1920  177.1290  139.4930 C   0  0  0  0  0  3  0  0  0  0  0  0
  183.3150  177.6080  140.7360 C   0  0  0  0  0  3  0  0  0  0  0  0
  184.9880  178.3090  142.2490 F   0  0  0  0  0  0  0  0  0  0  0  0
  184.2880  178.6820  141.1140 C   0  0  0  0  0  2  0  0  0  0  0  0
  187.5900  172.2240  136.3140 C   0  0  0  0  0  2  0  0  0  0  0  0
  187.4840  172.0970  134.8070 C   0  0  0  0  0  2  0  0  0  0  0  0
  187.2710  170.7630  134.4680 O   0  0  0  0  0  1  0  0  0  0  0  0
  3  1  1  6  0  0  0
  3 12  1  0  0  0  0
  4 14  2  0  0  0  0
  5  1  2  0  0  0  0
  5  7  1  0  0  0  0
  6  2  1  6  0  0  0
  6  3  1  0  0  0  0
  7 12  2  0  0  0  0
  8 17  1  0  0  0  0
  8 11  1  0  0  0  0
  9 16  1  0  0  0  0
 10  2  1  0  0  0  0
 10 14  1  0  0  0  0
 11  1  1  0  0  0  0
 12 16  1  0  0  0  0
 13  6  1  0  0  0  0
 13 17  1  0  0  0  0
 13 28  1  1  0  0  0
 14  9  1  0  0  0  0
 15  4  2  0  0  0  0
 16 23  1  1  0  0  0
 18  7  1  0  0  0  0
 18 19  2  0  0  0  0
 20 18  1  0  0  0  0
 21 22  1  0  0  0  0
 21 20  1  0  0  0  0
 23 24  1  0  0  0  0
 24 25  1  6  0  0  0
 24 27  1  0  0  0  0
 27 26  1  0  0  0  0
 28 30  1  0  0  0  0
 30 29  1  1  0  0  0
 30 31  1  0  0  0  0
 31 32  2  0  0  0  0
 32 34  1  0  0  0  0
 34 33  1  0  0  0  0
 35  5  1  0  0  0  0
 36 35  1  0  0  0  0
 37 36  1  0  0  0  0
M  END
>  <MODEL>
5

>  <REMARK>
 VINA RESULT:      -3.6      3.240      7.762
  Name = 
  11 active torsions:
  status: ('A' for Active; 'I' for Inactive)
    1  A    between atoms: S_1  and  C_5
    2  A    between atoms: S_1  and  C_36
    3  A    between atoms: C_2  and  C_35
    4  A    between atoms: C_3  and  N_32
    5  A    between atoms: C_5  and  O_23
    6  A    between atoms: C_6  and  C_31
    7  A    between atoms: C_6  and  C_35
    8  A    between atoms: C_9  and  C_13
    9  A    between atoms: C_9  and  C_16
   10  A    between atoms: C_18  and  C_19
   11  A    between atoms: C_20  and  C_21
                            x       y       z     vdW  Elec       q    Type
                         _______ _______ _______ _____ _____    ______ ____

>  <TORSDO>
F 11

$$$$
=
 OpenBabel10272415013D

 37 39  0  0  1  0  0  0  0  0999 V2000
  188.7410  177.3470  139.7100 C   0  0  0  0  0  0  0  0  0  0  0  0
  189.7420  178.0550  136.8880 C   0  0  0  0  0  2  0  0  0  0  0  0
  188.6960  176.3720  138.5700 C   0  0  2  0  0  3  0  0  0  0  0  0
  187.0280  178.2900  134.8020 C   0  0  0  0  0  0  0  0  0  0  0  0
  187.5840  177.9850  139.8220 C   0  0  0  0  0  0  0  0  0  0  0  0
  189.7840  176.6580  137.5130 C   0  0  2  0  0  3  0  0  0  0  0  0
  186.6830  177.5510  138.7540 C   0  0  0  0  0  0  0  0  0  0  0  0
  191.2200  177.5510  140.0050 C   0  0  0  0  0  2  0  0  0  0  0  0
  187.6260  176.1980  135.6840 O   0  0  0  0  0  0  0  0  0  0  0  0
  189.3530  177.9700  135.4120 C   0  0  0  0  0  2  0  0  0  0  0  0
  189.8650  177.4690  140.6930 C   0  0  0  0  0  2  0  0  0  0  0  0
  187.3130  176.6230  138.0300 C   0  0  0  0  0  0  0  0  0  0  0  0
  191.2150  176.2160  137.8590 C   0  0  1  0  0  3  0  0  0  0  0  0
  187.9480  177.4890  135.2640 C   0  0  0  0  0  0  0  0  0  0  0  0
  186.1560  179.0530  134.3720 O   0  0  0  0  0  0  0  0  0  0  0  0
  186.7590  175.9710  136.7930 C   0  0  2  0  0  3  0  0  0  0  0  0
  191.5500  176.2190  139.3500 C   0  0  0  0  0  2  0  0  0  0  0  0
  185.3190  178.0840  138.5210 C   0  0  0  0  0  0  0  0  0  0  0  0
  185.1430  179.3280  138.4250 O   0  0  0  0  0  0  0  0  0  0  0  0
  184.2010  177.1990  138.3840 N   0  0  0  0  0  2  0  0  0  0  0  0
  182.8530  177.6650  138.0880 C   0  0  0  0  0  2  0  0  0  0  0  0
  182.5480  177.4690  136.6140 C   0  0  0  0  0  1  0  0  0  0  0  0
  186.5660  174.1830  137.0640 S   0  0  0  0  0  0  0  0  0  0  0  0
  184.7780  174.2340  136.7340 C   0  0  2  0  0  3  0  0  0  0  0  0
  184.1570  172.8940  137.0890 C   0  0  0  0  0  1  0  0  0  0  0  0
  183.2390  174.1250  135.1520 C   0  0  0  0  0  1  0  0  0  0  0  0
  184.5630  174.5020  135.3810 O   0  0  0  0  0  0  0  0  0  0  0  0
  191.4750  174.8270  137.2940 C   0  0  0  0  0  2  0  0  0  0  0  0
  193.2300  176.1160  136.3210 O   0  0  0  0  0  1  0  0  0  0  0  0
  192.7480  174.8130  136.4660 C   0  0  1  0  0  3  0  0  0  0  0  0
  193.7780  173.9650  137.1470 C   0  0  0  0  0  3  0  0  0  0  0  0
  194.1510  172.7620  136.6950 C   0  0  0  0  0  3  0  0  0  0  0  0
  192.3630  171.5170  135.7830 F   0  0  0  0  0  0  0  0  0  0  0  0
  193.5680  172.1230  135.4730 C   0  0  0  0  0  2  0  0  0  0  0  0
  187.2880  179.0400  140.8410 C   0  0  0  0  0  2  0  0  0  0  0  0
  186.4170  178.4630  141.9400 C   0  0  0  0  0  2  0  0  0  0  0  0
  185.4840  179.4150  142.3400 O   0  0  0  0  0  1  0  0  0  0  0  0
  1  5  2  0  0  0  0
  1 11  1  0  0  0  0
  3 12  1  6  0  0  0
  3  1  1  0  0  0  0
  4 14  2  0  0  0  0
  5 35  1  0  0  0  0
  6  2  1  1  0  0  0
  6 13  1  0  0  0  0
  6  3  1  0  0  0  0
  7  5  1  0  0  0  0
  8 11  1  0  0  0  0
  9 16  1  0  0  0  0
 10  2  1  0  0  0  0
 12  7  2  0  0  0  0
 13 28  1  1  0  0  0
 13 17  1  0  0  0  0
 14 10  1  0  0  0  0
 14  9  1  0  0  0  0
 15  4  2  0  0  0  0
 16 23  1  1  0  0  0
 16 12  1  0  0  0  0
 17  8  1  0  0  0  0
 18  7  1  0  0  0  0
 19 18  2  0  0  0  0
 20 18  1  0  0  0  0
 21 20  1  0  0  0  0
 22 21  1  0  0  0  0
 24 23  1  0  0  0  0
 24 25  1  6  0  0  0
 26 27  1  0  0  0  0
 27 24  1  0  0  0  0
 30 29  1  1  0  0  0
 30 31  1  0  0  0  0
 30 28  1  0  0  0  0
 32 31  2  0  0  0  0
 34 33  1  0  0  0  0
 34 32  1  0  0  0  0
 35 36  1  0  0  0  0
 36 37  1  0  0  0  0
M  END
>  <MODEL>
6

>  <REMARK>
 VINA RESULT:      -3.5      1.894      2.245
  Name = 
  11 active torsions:
  status: ('A' for Active; 'I' for Inactive)
    1  A    between atoms: S_1  and  C_5
    2  A    between atoms: S_1  and  C_36
    3  A    between atoms: C_2  and  C_35
    4  A    between atoms: C_3  and  N_32
    5  A    between atoms: C_5  and  O_23
    6  A    between atoms: C_6  and  C_31
    7  A    between atoms: C_6  and  C_35
    8  A    between atoms: C_9  and  C_13
    9  A    between atoms: C_9  and  C_16
   10  A    between atoms: C_18  and  C_19
   11  A    between atoms: C_20  and  C_21
                            x       y       z     vdW  Elec       q    Type
                         _______ _______ _______ _____ _____    ______ ____

>  <TORSDO>
F 11

$$$$
=
 OpenBabel10272415013D

 37 39  0  0  1  0  0  0  0  0999 V2000
  186.2470  173.9380  136.5830 C   0  0  0  0  0  0  0  0  0  0  0  0
  185.9930  176.7630  135.3910 C   0  0  0  0  0  2  0  0  0  0  0  0
  186.5180  175.1790  137.3830 C   0  0  2  0  0  3  0  0  0  0  0  0
  189.1380  178.1000  135.0920 C   0  0  0  0  0  0  0  0  0  0  0  0
  187.3730  173.4610  136.0700 C   0  0  0  0  0  0  0  0  0  0  0  0
  185.7330  176.3980  136.8540 C   0  0  2  0  0  3  0  0  0  0  0  0
  188.4830  174.3470  136.4210 C   0  0  0  0  0  0  0  0  0  0  0  0
  183.7830  174.1940  136.2100 C   0  0  0  0  0  2  0  0  0  0  0  0
  188.2430  177.7290  137.2290 O   0  0  0  0  0  0  0  0  0  0  0  0
  186.7220  178.1030  135.2940 C   0  0  0  0  0  2  0  0  0  0  0  0
  184.9270  173.2340  136.5080 C   0  0  0  0  0  2  0  0  0  0  0  0
  188.0010  175.3370  137.1760 C   0  0  0  0  0  0  0  0  0  0  0  0
  184.2400  176.4670  137.2170 C   0  0  1  0  0  3  0  0  0  0  0  0
  188.0960  177.9980  135.8680 C   0  0  0  0  0  0  0  0  0  0  0  0
  190.1250  178.1900  134.3520 O   0  0  0  0  0  0  0  0  0  0  0  0
  188.8040  176.5010  137.6880 C   0  0  2  0  0  3  0  0  0  0  0  0
  183.5560  175.1130  137.4000 C   0  0  0  0  0  2  0  0  0  0  0  0
  189.8880  174.1710  135.9790 C   0  0  0  0  0  0  0  0  0  0  0  0
  190.2260  174.5260  134.8190 O   0  0  0  0  0  0  0  0  0  0  0  0
  190.8690  173.6190  136.8640 N   0  0  0  0  0  2  0  0  0  0  0  0
  192.2740  173.4860  136.5050 C   0  0  0  0  0  2  0  0  0  0  0  0
  192.5030  172.1720  135.7800 C   0  0  0  0  0  1  0  0  0  0  0  0
  188.8380  176.4840  139.5070 S   0  0  0  0  0  0  0  0  0  0  0  0
  190.4520  177.3180  139.5750 C   0  0  2  0  0  3  0  0  0  0  0  0
  191.3410  176.8000  138.4580 C   0  0  0  0  0  1  0  0  0  0  0  0
  190.1150  177.4670  141.7550 C   0  0  0  0  0  1  0  0  0  0  0  0
  191.0570  177.0610  140.8070 O   0  0  0  0  0  0  0  0  0  0  0  0
  184.0560  177.2920  138.4810 C   0  0  0  0  0  2  0  0  0  0  0  0
  182.5500  178.7230  139.6520 O   0  0  0  0  0  1  0  0  0  0  0  0
  182.6680  177.9080  138.5250 C   0  0  1  0  0  3  0  0  0  0  0  0
  182.4430  178.7210  137.2870 C   0  0  0  0  0  3  0  0  0  0  0  0
  181.4610  178.4680  136.4140 C   0  0  0  0  0  3  0  0  0  0  0  0
  180.7960  176.3270  135.6710 F   0  0  0  0  0  0  0  0  0  0  0  0
  180.4910  177.3370  136.5670 C   0  0  0  0  0  2  0  0  0  0  0  0
  187.4660  172.2450  135.2020 C   0  0  0  0  0  2  0  0  0  0  0  0
  187.9180  171.0570  136.0300 C   0  0  0  0  0  2  0  0  0  0  0  0
  188.0460  169.9410  135.2070 O   0  0  0  0  0  1  0  0  0  0  0  0
  3  1  1  6  0  0  0
  4 14  2  0  0  0  0
  5  7  1  0  0  0  0
  5  1  2  0  0  0  0
  6  2  1  6  0  0  0
  6 13  1  0  0  0  0
  6  3  1  0  0  0  0
  7 12  2  0  0  0  0
  8 11  1  0  0  0  0
  8 17  1  0  0  0  0
  9 16  1  0  0  0  0
 10  2  1  0  0  0  0
 10 14  1  0  0  0  0
 11  1  1  0  0  0  0
 12  3  1  0  0  0  0
 12 16  1  0  0  0  0
 13 17  1  0  0  0  0
 13 28  1  1  0  0  0
 14  9  1  0  0  0  0
 15  4  2  0  0  0  0
 16 23  1  1  0  0  0
 18  7  1  0  0  0  0
 18 20  1  0  0  0  0
 19 18  2  0  0  0  0
 21 20  1  0  0  0  0
 22 21  1  0  0  0  0
 23 24  1  0  0  0  0
 24 25  1  6  0  0  0
 24 27  1  0  0  0  0
 27 26  1  0  0  0  0
 28 30  1  0  0  0  0
 30 29  1  1  0  0  0
 31 30  1  0  0  0  0
 32 34  1  0  0  0  0
 32 31  2  0  0  0  0
 33 34  1  0  0  0  0
 35 36  1  0  0  0  0
 35  5  1  0  0  0  0
 37 36  1  0  0  0  0
M  END
>  <MODEL>
7

>  <REMARK>
 VINA RESULT:      -3.3      3.699      8.284
  Name = 
  11 active torsions:
  status: ('A' for Active; 'I' for Inactive)
    1  A    between atoms: S_1  and  C_5
    2  A    between atoms: S_1  and  C_36
    3  A    between atoms: C_2  and  C_35
    4  A    between atoms: C_3  and  N_32
    5  A    between atoms: C_5  and  O_23
    6  A    between atoms: C_6  and  C_31
    7  A    between atoms: C_6  and  C_35
    8  A    between atoms: C_9  and  C_13
    9  A    between atoms: C_9  and  C_16
   10  A    between atoms: C_18  and  C_19
   11  A    between atoms: C_20  and  C_21
                            x       y       z     vdW  Elec       q    Type
                         _______ _______ _______ _____ _____    ______ ____

>  <TORSDO>
F 11

$$$$
=
 OpenBabel10272415013D

 37 39  0  0  1  0  0  0  0  0999 V2000
  189.3420  176.9730  139.2500 C   0  0  0  0  0  0  0  0  0  0  0  0
  189.9380  177.4940  136.2760 C   0  0  0  0  0  2  0  0  0  0  0  0
  188.9520  176.0090  138.1670 C   0  0  2  0  0  3  0  0  0  0  0  0
  186.9740  178.1360  134.6730 C   0  0  0  0  0  0  0  0  0  0  0  0
  188.3340  177.7850  139.5330 C   0  0  0  0  0  0  0  0  0  0  0  0
  189.8730  176.1130  136.9320 C   0  0  2  0  0  3  0  0  0  0  0  0
  187.2060  177.4900  138.6490 C   0  0  0  0  0  0  0  0  0  0  0  0
  191.8370  176.7880  139.1140 C   0  0  0  0  0  2  0  0  0  0  0  0
  187.3870  175.9840  135.5120 O   0  0  0  0  0  0  0  0  0  0  0  0
  189.2920  177.4610  134.8920 C   0  0  0  0  0  2  0  0  0  0  0  0
  190.6240  176.9240  140.0240 C   0  0  0  0  0  2  0  0  0  0  0  0
  187.5520  176.4700  137.8610 C   0  0  0  0  0  0  0  0  0  0  0  0
  191.2570  175.4540  137.0470 C   0  0  1  0  0  3  0  0  0  0  0  0
  187.8260  177.2050  135.0000 C   0  0  0  0  0  0  0  0  0  0  0  0
  186.1680  179.0240  134.3700 O   0  0  0  0  0  0  0  0  0  0  0  0
  186.7000  175.9030  136.7590 C   0  0  2  0  0  3  0  0  0  0  0  0
  191.8410  175.4160  138.4580 C   0  0  0  0  0  2  0  0  0  0  0  0
  185.9200  178.2280  138.6320 C   0  0  0  0  0  0  0  0  0  0  0  0
  185.7910  179.2390  137.8910 O   0  0  0  0  0  0  0  0  0  0  0  0
  184.8160  177.7950  139.4340 N   0  0  0  0  0  2  0  0  0  0  0  0
  183.5120  178.4420  139.4040 C   0  0  0  0  0  2  0  0  0  0  0  0
  182.8430  178.3280  140.7610 C   0  0  0  0  0  1  0  0  0  0  0  0
  186.2840  174.1700  137.1200 S   0  0  0  0  0  0  0  0  0  0  0  0
  184.7600  174.2340  136.1310 C   0  0  2  0  0  3  0  0  0  0  0  0
  183.9150  175.4150  136.5760 C   0  0  0  0  0  1  0  0  0  0  0  0
  184.6110  172.4570  137.4370 C   0  0  0  0  0  1  0  0  0  0  0  0
  184.0390  173.0530  136.3110 O   0  0  0  0  0  0  0  0  0  0  0  0
  191.2000  174.0380  136.4940 C   0  0  0  0  0  2  0  0  0  0  0  0
  193.4310  173.7660  135.6960 O   0  0  0  0  0  1  0  0  0  0  0  0
  192.1040  173.8970  135.2810 C   0  0  1  0  0  3  0  0  0  0  0  0
  191.6990  172.6900  134.4930 C   0  0  0  0  0  3  0  0  0  0  0  0
  190.4460  172.2210  134.4660 C   0  0  0  0  0  3  0  0  0  0  0  0
  188.6160  173.7140  134.4250 F   0  0  0  0  0  0  0  0  0  0  0  0
  189.3170  172.8360  135.2340 C   0  0  0  0  0  2  0  0  0  0  0  0
  188.3830  178.8810  140.5520 C   0  0  0  0  0  2  0  0  0  0  0  0
  187.5380  178.5050  141.7530 C   0  0  0  0  0  2  0  0  0  0  0  0
  188.1900  177.5170  142.4870 O   0  0  0  0  0  1  0  0  0  0  0  0
  1  5  2  0  0  0  0
  1 11  1  0  0  0  0
  3 12  1  6  0  0  0
  3  1  1  0  0  0  0
  4 14  2  0  0  0  0
  5 35  1  0  0  0  0
  6  2  1  1  0  0  0
  6 13  1  0  0  0  0
  6  3  1  0  0  0  0
  7  5  1  0  0  0  0
  8 11  1  0  0  0  0
  9 16  1  0  0  0  0
 10 14  1  0  0  0  0
 10  2  1  0  0  0  0
 12  7  2  0  0  0  0
 13 28  1  1  0  0  0
 13 17  1  0  0  0  0
 14  9  1  0  0  0  0
 15  4  2  0  0  0  0
 16 23  1  1  0  0  0
 16 12  1  0  0  0  0
 17  8  1  0  0  0  0
 18  7  1  0  0  0  0
 18 20  1  0  0  0  0
 19 18  2  0  0  0  0
 21 20  1  0  0  0  0
 21 22  1  0  0  0  0
 24 27  1  0  0  0  0
 24 25  1  1  0  0  0
 24 23  1  0  0  0  0
 27 26  1  0  0  0  0
 30 29  1  1  0  0  0
 30 28  1  0  0  0  0
 31 30  1  0  0  0  0
 32 31  2  0  0  0  0
 32 34  1  0  0  0  0
 33 34  1  0  0  0  0
 35 36  1  0  0  0  0
 36 37  1  0  0  0  0
M  END
>  <MODEL>
8

>  <REMARK>
 VINA RESULT:      -3.2      1.689      2.026
  Name = 
  11 active torsions:
  status: ('A' for Active; 'I' for Inactive)
    1  A    between atoms: S_1  and  C_5
    2  A    between atoms: S_1  and  C_36
    3  A    between atoms: C_2  and  C_35
    4  A    between atoms: C_3  and  N_32
    5  A    between atoms: C_5  and  O_23
    6  A    between atoms: C_6  and  C_31
    7  A    between atoms: C_6  and  C_35
    8  A    between atoms: C_9  and  C_13
    9  A    between atoms: C_9  and  C_16
   10  A    between atoms: C_18  and  C_19
   11  A    between atoms: C_20  and  C_21
                            x       y       z     vdW  Elec       q    Type
                         _______ _______ _______ _____ _____    ______ ____

>  <TORSDO>
F 11

$$$$
=
 OpenBabel10272415013D

 37 39  0  0  1  0  0  0  0  0999 V2000
  187.9420  177.6760  140.1210 C   0  0  0  0  0  0  0  0  0  0  0  0
  189.3500  178.5560  137.5300 C   0  0  0  0  0  2  0  0  0  0  0  0
  188.2720  176.7160  139.0150 C   0  0  2  0  0  3  0  0  0  0  0  0
  187.0910  178.3800  134.9540 C   0  0  0  0  0  0  0  0  0  0  0  0
  186.7000  178.1230  139.9920 C   0  0  0  0  0  0  0  0  0  0  0  0
  189.4870  177.1780  138.1820 C   0  0  2  0  0  3  0  0  0  0  0  0
  186.1030  177.5620  138.7800 C   0  0  0  0  0  0  0  0  0  0  0  0
  190.2530  178.2650  140.8860 C   0  0  0  0  0  2  0  0  0  0  0  0
  187.8240  176.4010  135.9810 O   0  0  0  0  0  0  0  0  0  0  0  0
  189.2740  178.4250  136.0100 C   0  0  0  0  0  2  0  0  0  0  0  0
  188.8200  177.9640  141.3000 C   0  0  0  0  0  2  0  0  0  0  0  0
  186.9980  176.7510  138.2120 C   0  0  0  0  0  0  0  0  0  0  0  0
  190.8740  176.9630  138.8090 C   0  0  1  0  0  3  0  0  0  0  0  0
  188.0170  177.7300  135.6030 C   0  0  0  0  0  0  0  0  0  0  0  0
  186.2120  179.0010  134.3460 O   0  0  0  0  0  0  0  0  0  0  0  0
  186.8050  176.0310  136.9060 C   0  0  2  0  0  3  0  0  0  0  0  0
  190.9080  177.0060  140.3360 C   0  0  0  0  0  2  0  0  0  0  0  0
  184.7440  177.8760  138.2750 C   0  0  0  0  0  0  0  0  0  0  0  0
  184.6080  178.6480  137.2880 O   0  0  0  0  0  0  0  0  0  0  0  0
  183.5850  177.2970  138.8850 N   0  0  0  0  0  2  0  0  0  0  0  0
  182.2340  177.5190  138.3870 C   0  0  0  0  0  2  0  0  0  0  0  0
  181.2270  177.2990  139.5010 C   0  0  0  0  0  1  0  0  0  0  0  0
  186.8430  174.2320  137.1750 S   0  0  0  0  0  0  0  0  0  0  0  0
  187.2700  173.8910  135.4400 C   0  0  2  0  0  3  0  0  0  0  0  0
  186.0490  173.3570  134.7120 C   0  0  0  0  0  1  0  0  0  0  0  0
  187.8000  171.8540  136.1160 C   0  0  0  0  0  1  0  0  0  0  0  0
  188.2920  172.9420  135.3920 O   0  0  0  0  0  0  0  0  0  0  0  0
  191.4520  175.6380  138.3360 C   0  0  0  0  0  2  0  0  0  0  0  0
  193.4860  176.8770  138.2150 O   0  0  0  0  0  1  0  0  0  0  0  0
  192.7620  175.8550  137.5980 C   0  0  1  0  0  3  0  0  0  0  0  0
  193.5610  174.5880  137.6150 C   0  0  0  0  0  3  0  0  0  0  0  0
  194.5310  174.3220  136.7330 C   0  0  0  0  0  3  0  0  0  0  0  0
  196.2260  175.6600  135.7740 F   0  0  0  0  0  0  0  0  0  0  0  0
  194.9120  175.2500  135.6210 C   0  0  0  0  0  2  0  0  0  0  0  0
  186.0510  179.1100  140.9110 C   0  0  0  0  0  2  0  0  0  0  0  0
  185.3060  178.3760  142.0090 C   0  0  0  0  0  2  0  0  0  0  0  0
  183.9510  178.6910  141.9410 O   0  0  0  0  0  1  0  0  0  0  0  0
  1 11  1  0  0  0  0
  3 12  1  6  0  0  0
  3  1  1  0  0  0  0
  4 14  2  0  0  0  0
  5  1  2  0  0  0  0
  5 35  1  0  0  0  0
  6  2  1  1  0  0  0
  6 13  1  0  0  0  0
  6  3  1  0  0  0  0
  7  5  1  0  0  0  0
  8 11  1  0  0  0  0
  9 16  1  0  0  0  0
 10  2  1  0  0  0  0
 12  7  2  0  0  0  0
 13 28  1  1  0  0  0
 13 17  1  0  0  0  0
 14  9  1  0  0  0  0
 14 10  1  0  0  0  0
 15  4  2  0  0  0  0
 16 23  1  1  0  0  0
 16 12  1  0  0  0  0
 17  8  1  0  0  0  0
 18  7  1  0  0  0  0
 18 20  1  0  0  0  0
 19 18  2  0  0  0  0
 21 20  1  0  0  0  0
 21 22  1  0  0  0  0
 24 25  1  6  0  0  0
 24 23  1  0  0  0  0
 27 24  1  0  0  0  0
 27 26  1  0  0  0  0
 30 31  1  0  0  0  0
 30 29  1  1  0  0  0
 30 28  1  0  0  0  0
 32 31  2  0  0  0  0
 34 33  1  0  0  0  0
 34 32  1  0  0  0  0
 35 36  1  0  0  0  0
 37 36  1  0  0  0  0
M  END
>  <MODEL>
9

>  <REMARK>
 VINA RESULT:      -2.7      2.123      2.910
  Name = 
  11 active torsions:
  status: ('A' for Active; 'I' for Inactive)
    1  A    between atoms: S_1  and  C_5
    2  A    between atoms: S_1  and  C_36
    3  A    between atoms: C_2  and  C_35
    4  A    between atoms: C_3  and  N_32
    5  A    between atoms: C_5  and  O_23
    6  A    between atoms: C_6  and  C_31
    7  A    between atoms: C_6  and  C_35
    8  A    between atoms: C_9  and  C_13
    9  A    between atoms: C_9  and  C_16
   10  A    between atoms: C_18  and  C_19
   11  A    between atoms: C_20  and  C_21
                            x       y       z     vdW  Elec       q    Type
                         _______ _______ _______ _____ _____    ______ ____

>  <TORSDO>
F 11

$$$$
