=
 OpenBabel10272400343D

 31 35  0  0  1  0  0  0  0  0999 V2000
  185.5100  176.8200  136.9980 C   0  0  1  0  0  3  0  0  0  0  0  0
  186.7940  177.5590  137.3460 C   0  0  1  0  0  3  0  0  0  0  0  0
  188.3850  178.0970  139.2310 C   0  0  0  0  0  2  0  0  0  0  0  0
  184.2430  177.6340  137.3340 C   0  0  1  0  0  3  0  0  0  0  0  0
  182.3310  177.1390  135.7310 C   0  0  0  0  0  1  0  0  0  0  0  0
  187.3270  177.1290  138.7070 C   0  0  0  0  0  2  0  0  0  0  0  0
  184.8850  175.3390  134.8320 C   0  0  0  0  0  2  0  0  0  0  0  0
  187.0400  176.6640  135.0470 C   0  0  1  0  0  3  0  0  0  0  0  0
  189.6140  178.1700  138.3280 C   0  0  0  0  0  2  0  0  0  0  0  0
  183.0590  174.3830  136.3510 C   0  0  0  0  0  2  0  0  0  0  0  0
  185.6080  176.5070  135.5020 C   0  0  2  0  0  0  0  0  0  0  0  0
  184.4560  174.1870  135.7490 C   0  0  2  0  0  3  0  0  0  0  0  0
  189.3260  179.0620  137.1250 C   0  0  0  0  0  2  0  0  0  0  0  0
  182.9930  175.3750  137.5130 C   0  0  0  0  0  2  0  0  0  0  0  0
  182.9480  176.8550  137.0930 C   0  0  1  0  0  3  0  0  0  0  0  0
  185.9730  177.6480  134.5740 C   0  0  0  0  0  2  0  0  0  0  0  0
  187.7980  177.1710  136.2690 C   0  0  1  0  0  3  0  0  0  0  0  0
  188.7760  178.2950  135.9160 C   0  0  0  0  0  2  0  0  0  0  0  0
  184.8910  173.0380  137.9560 C   0  0  0  0  0  1  0  0  0  0  0  0
  185.5290  173.6370  136.7110 C   0  0  1  0  0  3  0  0  0  0  0  0
  188.0740  170.6470  134.9120 C   0  0  0  0  0  0  0  0  0  0  0  0
  185.8650  171.4920  135.4180 C   0  0  0  0  0  3  0  0  0  0  0  0
  188.4790  173.8200  136.9160 C   0  0  0  0  0  1  0  0  0  0  0  0
  188.8710  169.7090  134.3460 F   0  0  0  0  0  0  0  0  0  0  0  0
  186.6860  170.5230  134.8370 C   0  0  0  0  0  3  0  0  0  0  0  0
  187.8270  172.7050  136.1720 C   0  0  0  0  0  0  0  0  0  0  0  0
  186.4240  172.6030  136.0710 C   0  0  0  0  0  0  0  0  0  0  0  0
  188.6410  171.7310  135.5850 C   0  0  0  0  0  3  0  0  0  0  0  0
  184.2350  178.1150  138.7800 C   0  0  0  0  0  2  0  0  0  0  0  0
  184.4470  179.4930  138.8260 O   0  0  0  0  0  0  0  0  0  0  0  0
  183.1670  180.0420  138.8840 C   0  0  0  0  0  1  0  0  0  0  0  0
  1  4  1  0  0  0  0
  1  2  1  0  0  0  0
  2  6  1  0  0  0  0
  4 29  1  0  0  0  0
  5 15  1  0  0  0  0
  6  3  1  0  0  0  0
  7 11  1  0  0  0  0
  7 12  1  0  0  0  0
  8 11  1  0  0  0  0
  8 17  1  0  0  0  0
  9  3  1  0  0  0  0
 10 14  1  0  0  0  0
 11  1  1  0  0  0  0
 12 10  1  0  0  0  0
 12 20  1  0  0  0  0
 13  9  1  0  0  0  0
 15  4  1  0  0  0  0
 15 14  1  0  0  0  0
 16  8  1  0  0  0  0
 16 11  1  0  0  0  0
 17  2  1  0  0  0  0
 18 17  1  0  0  0  0
 18 13  1  0  0  0  0
 20 19  1  0  0  0  0
 21 28  1  0  0  0  0
 22 27  2  0  0  0  0
 24 21  1  0  0  0  0
 25 21  2  0  0  0  0
 25 22  1  0  0  0  0
 26 23  1  0  0  0  0
 27 26  1  0  0  0  0
 27 20  1  0  0  0  0
 28 26  2  0  0  0  0
 29 30  1  0  0  0  0
 30 31  1  0  0  0  0
M  END
>  <MODEL>
1

>  <REMARK>
 VINA RESULT:      -4.7      0.000      0.000
  Name = 
  4 active torsions:
  status: ('A' for Active; 'I' for Inactive)
    1  A    between atoms: O_2  and  C_25
    2  A    between atoms: C_9  and  C_22
    3  A    between atoms: C_9  and  C_23
    4  A    between atoms: C_12  and  C_25
                            x       y       z     vdW  Elec       q    Type
                         _______ _______ _______ _____ _____    ______ ____

>  <TORSDO>
F 4

$$$$
=
 OpenBabel10272400343D

 31 35  0  0  1  0  0  0  0  0999 V2000
  185.6090  176.4540  136.7770 C   0  0  1  0  0  3  0  0  0  0  0  0
  187.0690  176.8440  136.5910 C   0  0  1  0  0  3  0  0  0  0  0  0
  189.3330  176.8490  137.7080 C   0  0  0  0  0  2  0  0  0  0  0  0
  184.8040  177.5130  137.5590 C   0  0  1  0  0  3  0  0  0  0  0  0
  182.3700  177.6020  136.8250 C   0  0  0  0  0  1  0  0  0  0  0  0
  187.9530  176.1980  137.6500 C   0  0  0  0  0  2  0  0  0  0  0  0
  183.8720  175.3320  135.0460 C   0  0  0  0  0  2  0  0  0  0  0  0
  186.2020  176.0970  134.3910 C   0  0  1  0  0  3  0  0  0  0  0  0
  190.1070  176.7030  136.4010 C   0  0  0  0  0  2  0  0  0  0  0  0
  182.5790  174.7130  137.1680 C   0  0  0  0  0  2  0  0  0  0  0  0
  185.0570  176.2440  135.3650 C   0  0  2  0  0  0  0  0  0  0  0  0
  183.5520  174.2440  136.0790 C   0  0  2  0  0  3  0  0  0  0  0  0
  189.6150  177.7280  135.3840 C   0  0  0  0  0  2  0  0  0  0  0  0
  183.2010  175.6010  138.2470 C   0  0  0  0  0  2  0  0  0  0  0  0
  183.3660  177.0790  137.8490 C   0  0  1  0  0  3  0  0  0  0  0  0
  185.3110  177.3370  134.3460 C   0  0  0  0  0  2  0  0  0  0  0  0
  187.4640  176.3170  135.2180 C   0  0  1  0  0  3  0  0  0  0  0  0
  188.4790  177.2060  134.4950 C   0  0  0  0  0  2  0  0  0  0  0  0
  184.7490  173.2780  138.0830 C   0  0  0  0  0  1  0  0  0  0  0  0
  184.7390  173.3870  136.5650 C   0  0  1  0  0  3  0  0  0  0  0  0
  184.7720  169.3960  134.9130 C   0  0  0  0  0  0  0  0  0  0  0  0
  183.7480  171.0740  136.3230 C   0  0  0  0  0  3  0  0  0  0  0  0
  186.9140  172.4990  134.7610 C   0  0  0  0  0  1  0  0  0  0  0  0
  184.7790  168.1450  134.3950 F   0  0  0  0  0  0  0  0  0  0  0  0
  183.7580  169.7820  135.7910 C   0  0  0  0  0  3  0  0  0  0  0  0
  185.7860  171.5900  135.1110 C   0  0  0  0  0  0  0  0  0  0  0  0
  184.7470  171.9980  135.9720 C   0  0  0  0  0  0  0  0  0  0  0  0
  185.7870  170.2960  134.5820 C   0  0  0  0  0  3  0  0  0  0  0  0
  185.4600  177.8690  138.8880 C   0  0  0  0  0  2  0  0  0  0  0  0
  185.1480  179.1830  139.2370 O   0  0  0  0  0  0  0  0  0  0  0  0
  184.9260  179.1350  140.6120 C   0  0  0  0  0  1  0  0  0  0  0  0
  1  4  1  0  0  0  0
  2  1  1  0  0  0  0
  2  6  1  0  0  0  0
  4 15  1  0  0  0  0
  4 29  1  0  0  0  0
  5 15  1  0  0  0  0
  6  3  1  0  0  0  0
  7 11  1  0  0  0  0
  7 12  1  0  0  0  0
  8 17  1  0  0  0  0
  8 11  1  0  0  0  0
  9  3  1  0  0  0  0
 10 14  1  0  0  0  0
 11  1  1  0  0  0  0
 12 20  1  0  0  0  0
 12 10  1  0  0  0  0
 13  9  1  0  0  0  0
 15 14  1  0  0  0  0
 16  8  1  0  0  0  0
 16 11  1  0  0  0  0
 17  2  1  0  0  0  0
 18 17  1  0  0  0  0
 18 13  1  0  0  0  0
 20 19  1  0  0  0  0
 21 25  1  0  0  0  0
 23 26  1  0  0  0  0
 24 21  1  0  0  0  0
 25 22  2  0  0  0  0
 26 27  2  0  0  0  0
 27 22  1  0  0  0  0
 27 20  1  0  0  0  0
 28 21  2  0  0  0  0
 28 26  1  0  0  0  0
 29 30  1  0  0  0  0
 30 31  1  0  0  0  0
M  END
>  <MODEL>
2

>  <REMARK>
 VINA RESULT:      -4.4      1.557      1.971
  Name = 
  4 active torsions:
  status: ('A' for Active; 'I' for Inactive)
    1  A    between atoms: O_2  and  C_25
    2  A    between atoms: C_9  and  C_22
    3  A    between atoms: C_9  and  C_23
    4  A    between atoms: C_12  and  C_25
                            x       y       z     vdW  Elec       q    Type
                         _______ _______ _______ _____ _____    ______ ____

>  <TORSDO>
F 4

$$$$
=
 OpenBabel10272400343D

 31 35  0  0  1  0  0  0  0  0999 V2000
  186.1700  175.5770  136.6650 C   0  0  1  0  0  3  0  0  0  0  0  0
  185.1550  174.4740  136.4000 C   0  0  1  0  0  3  0  0  0  0  0  0
  184.1560  172.3570  137.3460 C   0  0  0  0  0  2  0  0  0  0  0  0
  187.6070  175.1710  136.2750 C   0  0  1  0  0  3  0  0  0  0  0  0
  188.9850  177.1570  135.4840 C   0  0  0  0  0  1  0  0  0  0  0  0
  184.8730  173.6680  137.6620 C   0  0  0  0  0  2  0  0  0  0  0  0
  186.0090  178.2340  136.2310 C   0  0  0  0  0  2  0  0  0  0  0  0
  184.2370  176.5820  135.4720 C   0  0  1  0  0  3  0  0  0  0  0  0
  182.7890  172.5760  136.7020 C   0  0  0  0  0  2  0  0  0  0  0  0
  187.9250  178.3500  137.9260 C   0  0  0  0  0  2  0  0  0  0  0  0
  185.6810  176.7860  135.8640 C   0  0  2  0  0  0  0  0  0  0  0  0
  186.4170  178.4910  137.6880 C   0  0  2  0  0  3  0  0  0  0  0  0
  182.9560  172.8960  135.2200 C   0  0  0  0  0  2  0  0  0  0  0  0
  188.4320  176.9090  138.0050 C   0  0  0  0  0  2  0  0  0  0  0  0
  188.6500  176.2280  136.6420 C   0  0  1  0  0  3  0  0  0  0  0  0
  185.3310  176.5630  134.4070 C   0  0  0  0  0  2  0  0  0  0  0  0
  183.8800  175.1840  135.9640 C   0  0  1  0  0  3  0  0  0  0  0  0
  183.0690  174.3980  134.9300 C   0  0  0  0  0  2  0  0  0  0  0  0
  186.1090  178.0720  140.1600 C   0  0  0  0  0  1  0  0  0  0  0  0
  185.5070  177.8830  138.7750 C   0  0  1  0  0  3  0  0  0  0  0  0
  181.5170  179.5380  138.7870 C   0  0  0  0  0  0  0  0  0  0  0  0
  183.9140  179.8420  138.6680 C   0  0  0  0  0  3  0  0  0  0  0  0
  183.1320  176.1400  139.0940 C   0  0  0  0  0  1  0  0  0  0  0  0
  180.2670  180.0580  138.7890 F   0  0  0  0  0  0  0  0  0  0  0  0
  182.6250  180.3800  138.6730 C   0  0  0  0  0  3  0  0  0  0  0  0
  182.9870  177.6130  138.9120 C   0  0  0  0  0  0  0  0  0  0  0  0
  184.1100  178.4540  138.7640 C   0  0  0  0  0  0  0  0  0  0  0  0
  181.7000  178.1590  138.9150 C   0  0  0  0  0  3  0  0  0  0  0  0
  188.0290  173.8560  136.9220 C   0  0  0  0  0  2  0  0  0  0  0  0
  188.4870  172.9700  135.9470 O   0  0  0  0  0  0  0  0  0  0  0  0
  187.7940  171.7860  136.1970 C   0  0  0  0  0  1  0  0  0  0  0  0
  2  1  1  0  0  0  0
  2  6  1  0  0  0  0
  3  6  1  0  0  0  0
  4 15  1  0  0  0  0
  4  1  1  0  0  0  0
  4 29  1  0  0  0  0
  5 15  1  0  0  0  0
  7 12  1  0  0  0  0
  8 11  1  0  0  0  0
  8 17  1  0  0  0  0
  9  3  1  0  0  0  0
 10 14  1  0  0  0  0
 11  7  1  0  0  0  0
 11  1  1  0  0  0  0
 12 10  1  0  0  0  0
 12 20  1  0  0  0  0
 13  9  1  0  0  0  0
 15 14  1  0  0  0  0
 16  8  1  0  0  0  0
 16 11  1  0  0  0  0
 17  2  1  0  0  0  0
 18 13  1  0  0  0  0
 18 17  1  0  0  0  0
 20 19  1  0  0  0  0
 21 24  1  0  0  0  0
 21 28  1  0  0  0  0
 22 25  1  0  0  0  0
 22 27  2  0  0  0  0
 25 21  2  0  0  0  0
 26 28  2  0  0  0  0
 26 23  1  0  0  0  0
 27 20  1  0  0  0  0
 27 26  1  0  0  0  0
 30 31  1  0  0  0  0
 30 29  1  0  0  0  0
M  END
>  <MODEL>
3

>  <REMARK>
 VINA RESULT:      -4.3      3.237      7.145
  Name = 
  4 active torsions:
  status: ('A' for Active; 'I' for Inactive)
    1  A    between atoms: O_2  and  C_25
    2  A    between atoms: C_9  and  C_22
    3  A    between atoms: C_9  and  C_23
    4  A    between atoms: C_12  and  C_25
                            x       y       z     vdW  Elec       q    Type
                         _______ _______ _______ _____ _____    ______ ____

>  <TORSDO>
F 4

$$$$
=
 OpenBabel10272400343D

 31 35  0  0  1  0  0  0  0  0999 V2000
  185.4820  176.9470  137.0920 C   0  0  1  0  0  3  0  0  0  0  0  0
  186.7640  177.6530  137.5120 C   0  0  1  0  0  3  0  0  0  0  0  0
  188.2580  178.1570  139.4830 C   0  0  0  0  0  2  0  0  0  0  0  0
  184.2200  177.7960  137.3520 C   0  0  1  0  0  3  0  0  0  0  0  0
  182.3910  177.3450  135.6440 C   0  0  0  0  0  1  0  0  0  0  0  0
  187.2060  177.2150  138.9020 C   0  0  0  0  0  2  0  0  0  0  0  0
  184.9430  175.4730  134.8980 C   0  0  0  0  0  2  0  0  0  0  0  0
  187.1170  176.7400  135.2330 C   0  0  1  0  0  3  0  0  0  0  0  0
  189.5380  178.1930  138.6520 C   0  0  0  0  0  2  0  0  0  0  0  0
  183.0080  174.5740  136.3130 C   0  0  0  0  0  2  0  0  0  0  0  0
  185.6580  176.6250  135.6060 C   0  0  2  0  0  0  0  0  0  0  0  0
  184.4310  174.3370  135.7930 C   0  0  2  0  0  3  0  0  0  0  0  0
  189.3440  179.0870  137.4310 C   0  0  0  0  0  2  0  0  0  0  0  0
  182.9010  175.5730  137.4660 C   0  0  0  0  0  2  0  0  0  0  0  0
  182.9210  177.0520  137.0400 C   0  0  1  0  0  3  0  0  0  0  0  0
  186.1060  177.7510  134.6960 C   0  0  0  0  0  2  0  0  0  0  0  0
  187.8170  177.2330  136.4950 C   0  0  1  0  0  3  0  0  0  0  0  0
  188.8440  178.3280  136.1950 C   0  0  0  0  0  2  0  0  0  0  0  0
  184.7550  172.7610  137.7400 C   0  0  0  0  0  1  0  0  0  0  0  0
  185.4320  173.7630  136.8180 C   0  0  1  0  0  3  0  0  0  0  0  0
  188.8660  171.9300  134.9460 C   0  0  0  0  0  0  0  0  0  0  0  0
  187.9280  173.5280  136.5000 C   0  0  0  0  0  3  0  0  0  0  0  0
  185.1060  171.6760  134.7410 C   0  0  0  0  0  1  0  0  0  0  0  0
  189.9440  171.3550  134.3620 F   0  0  0  0  0  0  0  0  0  0  0  0
  189.0400  172.9380  135.8950 C   0  0  0  0  0  3  0  0  0  0  0  0
  186.4590  172.1120  135.1870 C   0  0  0  0  0  0  0  0  0  0  0  0
  186.6280  173.1080  136.1720 C   0  0  0  0  0  0  0  0  0  0  0  0
  187.5780  171.5250  134.5880 C   0  0  0  0  0  3  0  0  0  0  0  0
  184.1430  178.2840  138.7940 C   0  0  0  0  0  2  0  0  0  0  0  0
  184.4530  179.6430  138.8550 O   0  0  0  0  0  0  0  0  0  0  0  0
  183.2160  180.2850  138.8420 C   0  0  0  0  0  1  0  0  0  0  0  0
  1  4  1  0  0  0  0
  1  2  1  0  0  0  0
  2  6  1  0  0  0  0
  4 29  1  0  0  0  0
  5 15  1  0  0  0  0
  6  3  1  0  0  0  0
  7 11  1  0  0  0  0
  7 12  1  0  0  0  0
  8 11  1  0  0  0  0
  8 17  1  0  0  0  0
  9  3  1  0  0  0  0
 10 14  1  0  0  0  0
 11  1  1  0  0  0  0
 12 10  1  0  0  0  0
 12 20  1  0  0  0  0
 13  9  1  0  0  0  0
 15  4  1  0  0  0  0
 15 14  1  0  0  0  0
 16  8  1  0  0  0  0
 16 11  1  0  0  0  0
 17  2  1  0  0  0  0
 18 17  1  0  0  0  0
 18 13  1  0  0  0  0
 20 19  1  0  0  0  0
 21 25  1  0  0  0  0
 23 26  1  0  0  0  0
 24 21  1  0  0  0  0
 25 22  2  0  0  0  0
 26 27  2  0  0  0  0
 27 22  1  0  0  0  0
 27 20  1  0  0  0  0
 28 21  2  0  0  0  0
 28 26  1  0  0  0  0
 29 30  1  0  0  0  0
 31 30  1  0  0  0  0
M  END
>  <MODEL>
4

>  <REMARK>
 VINA RESULT:      -4.2      0.597      1.342
  Name = 
  4 active torsions:
  status: ('A' for Active; 'I' for Inactive)
    1  A    between atoms: O_2  and  C_25
    2  A    between atoms: C_9  and  C_22
    3  A    between atoms: C_9  and  C_23
    4  A    between atoms: C_12  and  C_25
                            x       y       z     vdW  Elec       q    Type
                         _______ _______ _______ _____ _____    ______ ____

>  <TORSDO>
F 4

$$$$
=
 OpenBabel10272400343D

 31 35  0  0  1  0  0  0  0  0999 V2000
  187.7860  176.1730  136.4660 C   0  0  1  0  0  3  0  0  0  0  0  0
  186.3490  175.6870  136.5920 C   0  0  1  0  0  3  0  0  0  0  0  0
  184.9200  173.6870  137.1650 C   0  0  0  0  0  2  0  0  0  0  0  0
  188.4260  175.8000  135.1130 C   0  0  1  0  0  3  0  0  0  0  0  0
  190.1270  177.5300  134.3460 C   0  0  0  0  0  1  0  0  0  0  0  0
  186.2770  174.3640  137.3420 C   0  0  0  0  0  2  0  0  0  0  0  0
  188.9010  178.5200  137.1900 C   0  0  0  0  0  2  0  0  0  0  0  0
  186.4070  178.0620  137.3050 C   0  0  1  0  0  3  0  0  0  0  0  0
  183.7690  174.5220  137.7220 C   0  0  0  0  0  2  0  0  0  0  0  0
  191.0920  177.2010  137.0790 C   0  0  0  0  0  2  0  0  0  0  0  0
  187.7270  177.6890  136.6720 C   0  0  2  0  0  0  0  0  0  0  0  0
  189.9800  177.7610  137.9730 C   0  0  2  0  0  3  0  0  0  0  0  0
  183.4000  175.6260  136.7360 C   0  0  0  0  0  2  0  0  0  0  0  0
  190.7190  175.9360  136.3030 C   0  0  0  0  0  2  0  0  0  0  0  0
  189.9040  176.1840  135.0220 C   0  0  1  0  0  3  0  0  0  0  0  0
  186.7070  178.4640  135.8620 C   0  0  0  0  0  2  0  0  0  0  0  0
  185.6200  176.7580  137.3930 C   0  0  1  0  0  3  0  0  0  0  0  0
  184.1580  176.9380  136.9790 C   0  0  0  0  0  2  0  0  0  0  0  0
  190.1060  175.4400  138.9630 C   0  0  0  0  0  1  0  0  0  0  0  0
  189.4850  176.8230  139.0940 C   0  0  1  0  0  3  0  0  0  0  0  0
  190.2830  178.3060  143.0710 C   0  0  0  0  0  0  0  0  0  0  0  0
  191.0080  177.1250  141.0890 C   0  0  0  0  0  3  0  0  0  0  0  0
  187.3990  178.2520  140.6370 C   0  0  0  0  0  1  0  0  0  0  0  0
  190.5360  178.7720  144.3180 F   0  0  0  0  0  0  0  0  0  0  0  0
  191.2670  177.6030  142.3760 C   0  0  0  0  0  3  0  0  0  0  0  0
  188.7630  178.0400  141.2000 C   0  0  0  0  0  0  0  0  0  0  0  0
  189.7640  177.3570  140.4780 C   0  0  0  0  0  0  0  0  0  0  0  0
  189.0320  178.5160  142.4870 C   0  0  0  0  0  3  0  0  0  0  0  0
  188.3120  174.3100  134.8140 C   0  0  0  0  0  2  0  0  0  0  0  0
  189.1390  173.5870  135.6740 O   0  0  0  0  0  0  0  0  0  0  0  0
  188.7630  172.2580  135.4850 C   0  0  0  0  0  1  0  0  0  0  0  0
  1  2  1  0  0  0  0
  1 11  1  0  0  0  0
  2  6  1  0  0  0  0
  2 17  1  0  0  0  0
  3  6  1  0  0  0  0
  3  9  1  0  0  0  0
  4  1  1  0  0  0  0
  5 15  1  0  0  0  0
  7 12  1  0  0  0  0
  8 17  1  0  0  0  0
 10 12  1  0  0  0  0
 11  7  1  0  0  0  0
 11  8  1  0  0  0  0
 12 20  1  0  0  0  0
 13 18  1  0  0  0  0
 13  9  1  0  0  0  0
 14 10  1  0  0  0  0
 15  4  1  0  0  0  0
 15 14  1  0  0  0  0
 16 11  1  0  0  0  0
 16  8  1  0  0  0  0
 18 17  1  0  0  0  0
 19 20  1  0  0  0  0
 20 27  1  0  0  0  0
 21 24  1  0  0  0  0
 22 25  1  0  0  0  0
 23 26  1  0  0  0  0
 25 21  2  0  0  0  0
 26 28  2  0  0  0  0
 27 22  2  0  0  0  0
 27 26  1  0  0  0  0
 28 21  1  0  0  0  0
 29  4  1  0  0  0  0
 29 30  1  0  0  0  0
 31 30  1  0  0  0  0
M  END
>  <MODEL>
5

>  <REMARK>
 VINA RESULT:      -3.9      3.489      7.201
  Name = 
  4 active torsions:
  status: ('A' for Active; 'I' for Inactive)
    1  A    between atoms: O_2  and  C_25
    2  A    between atoms: C_9  and  C_22
    3  A    between atoms: C_9  and  C_23
    4  A    between atoms: C_12  and  C_25
                            x       y       z     vdW  Elec       q    Type
                         _______ _______ _______ _____ _____    ______ ____

>  <TORSDO>
F 4

$$$$
=
 OpenBabel10272400343D

 31 35  0  0  1  0  0  0  0  0999 V2000
  182.6820  175.2790  137.1280 C   0  0  1  0  0  3  0  0  0  0  0  0
  182.3650  176.5690  137.8710 C   0  0  1  0  0  3  0  0  0  0  0  0
  182.3760  177.6630  140.1460 C   0  0  0  0  0  2  0  0  0  0  0  0
  181.5400  174.2450  137.2150 C   0  0  1  0  0  3  0  0  0  0  0  0
  181.4020  172.7900  135.1330 C   0  0  0  0  0  1  0  0  0  0  0  0
  182.9730  176.5660  139.2680 C   0  0  0  0  0  2  0  0  0  0  0  0
  183.8490  174.8920  134.7280 C   0  0  0  0  0  2  0  0  0  0  0  0
  183.2280  177.1830  135.6280 C   0  0  1  0  0  3  0  0  0  0  0  0
  182.6440  179.0640  139.6010 C   0  0  0  0  0  2  0  0  0  0  0  0
  184.2660  172.5280  135.6170 C   0  0  0  0  0  2  0  0  0  0  0  0
  182.9670  175.6960  135.6830 C   0  0  2  0  0  0  0  0  0  0  0  0
  184.8490  173.9250  135.3750 C   0  0  2  0  0  3  0  0  0  0  0  0
  181.6720  179.3770  138.4670 C   0  0  0  0  0  2  0  0  0  0  0  0
  183.3320  172.4200  136.8240 C   0  0  0  0  0  2  0  0  0  0  0  0
  181.8930  172.9040  136.5690 C   0  0  1  0  0  3  0  0  0  0  0  0
  181.9580  176.6030  135.0070 C   0  0  0  0  0  2  0  0  0  0  0  0
  183.0020  177.6840  137.0510 C   0  0  1  0  0  3  0  0  0  0  0  0
  182.2080  178.9920  137.0830 C   0  0  0  0  0  2  0  0  0  0  0  0
  186.2960  173.3790  137.3730 C   0  0  0  0  0  1  0  0  0  0  0  0
  185.7190  174.4950  136.5150 C   0  0  1  0  0  3  0  0  0  0  0  0
  188.9780  176.9590  135.1140 C   0  0  0  0  0  0  0  0  0  0  0  0
  187.7230  174.8930  135.0280 C   0  0  0  0  0  3  0  0  0  0  0  0
  186.2250  177.1680  137.6870 C   0  0  0  0  0  1  0  0  0  0  0  0
  190.0000  177.7310  134.6720 F   0  0  0  0  0  0  0  0  0  0  0  0
  188.7790  175.6870  134.5740 C   0  0  0  0  0  3  0  0  0  0  0  0
  187.0740  176.6400  136.5820 C   0  0  0  0  0  0  0  0  0  0  0  0
  186.8470  175.3670  136.0180 C   0  0  0  0  0  0  0  0  0  0  0  0
  188.1320  177.4290  136.1210 C   0  0  0  0  0  3  0  0  0  0  0  0
  181.1190  173.9720  138.6550 C   0  0  0  0  0  2  0  0  0  0  0  0
  180.0020  174.7410  138.9790 O   0  0  0  0  0  0  0  0  0  0  0  0
  180.0150  174.8060  140.3720 C   0  0  0  0  0  1  0  0  0  0  0  0
  1  4  1  0  0  0  0
  1  2  1  0  0  0  0
  2  6  1  0  0  0  0
  4 29  1  0  0  0  0
  5 15  1  0  0  0  0
  6  3  1  0  0  0  0
  7 12  1  0  0  0  0
  7 11  1  0  0  0  0
  8 11  1  0  0  0  0
  8 17  1  0  0  0  0
  9  3  1  0  0  0  0
 10 14  1  0  0  0  0
 11  1  1  0  0  0  0
 12 10  1  0  0  0  0
 12 20  1  0  0  0  0
 13  9  1  0  0  0  0
 15 14  1  0  0  0  0
 15  4  1  0  0  0  0
 16  8  1  0  0  0  0
 16 11  1  0  0  0  0
 17 18  1  0  0  0  0
 17  2  1  0  0  0  0
 18 13  1  0  0  0  0
 20 19  1  0  0  0  0
 21 28  1  0  0  0  0
 22 27  2  0  0  0  0
 24 21  1  0  0  0  0
 25 22  1  0  0  0  0
 25 21  2  0  0  0  0
 26 23  1  0  0  0  0
 27 20  1  0  0  0  0
 27 26  1  0  0  0  0
 28 26  2  0  0  0  0
 29 30  1  0  0  0  0
 30 31  1  0  0  0  0
M  END
>  <MODEL>
6

>  <REMARK>
 VINA RESULT:      -3.8      2.635      4.818
  Name = 
  4 active torsions:
  status: ('A' for Active; 'I' for Inactive)
    1  A    between atoms: O_2  and  C_25
    2  A    between atoms: C_9  and  C_22
    3  A    between atoms: C_9  and  C_23
    4  A    between atoms: C_12  and  C_25
                            x       y       z     vdW  Elec       q    Type
                         _______ _______ _______ _____ _____    ______ ____

>  <TORSDO>
F 4

$$$$
=
 OpenBabel10272400343D

 31 35  0  0  1  0  0  0  0  0999 V2000
  187.4880  175.7880  135.8820 C   0  0  1  0  0  3  0  0  0  0  0  0
  186.4820  174.6660  135.6630 C   0  0  1  0  0  3  0  0  0  0  0  0
  185.9350  172.2760  136.2650 C   0  0  0  0  0  2  0  0  0  0  0  0
  188.7220  175.6690  134.9640 C   0  0  1  0  0  3  0  0  0  0  0  0
  189.6820  177.9430  134.3480 C   0  0  0  0  0  1  0  0  0  0  0  0
  186.6710  173.5490  136.6810 C   0  0  0  0  0  2  0  0  0  0  0  0
  187.0970  178.4300  136.2590 C   0  0  0  0  0  2  0  0  0  0  0  0
  185.2310  176.8080  135.6810 C   0  0  1  0  0  3  0  0  0  0  0  0
  184.4240  172.4760  136.1700 C   0  0  0  0  0  2  0  0  0  0  0  0
  189.4670  178.3640  137.2260 C   0  0  0  0  0  2  0  0  0  0  0  0
  186.7150  177.0870  135.6370 C   0  0  2  0  0  0  0  0  0  0  0  0
  187.9630  178.3720  137.5250 C   0  0  2  0  0  3  0  0  0  0  0  0
  184.0700  173.1660  134.8570 C   0  0  0  0  0  2  0  0  0  0  0  0
  190.0210  177.0210  136.7470 C   0  0  0  0  0  2  0  0  0  0  0  0
  189.7900  176.7260  135.2540 C   0  0  1  0  0  3  0  0  0  0  0  0
  185.9020  177.1840  134.3620 C   0  0  0  0  0  2  0  0  0  0  0  0
  185.1110  175.2980  135.8620 C   0  0  1  0  0  3  0  0  0  0  0  0
  184.0270  174.6950  134.9650 C   0  0  0  0  0  2  0  0  0  0  0  0
  188.6560  176.5790  139.1630 C   0  0  0  0  0  1  0  0  0  0  0  0
  187.4950  177.4090  138.6360 C   0  0  1  0  0  3  0  0  0  0  0  0
  185.6030  179.3970  141.9710 C   0  0  0  0  0  0  0  0  0  0  0  0
  187.5650  178.4150  140.9540 C   0  0  0  0  0  3  0  0  0  0  0  0
  184.6100  178.0800  138.5760 C   0  0  0  0  0  1  0  0  0  0  0  0
  185.0120  180.0220  143.0170 F   0  0  0  0  0  0  0  0  0  0  0  0
  186.9550  179.0560  142.0340 C   0  0  0  0  0  3  0  0  0  0  0  0
  185.4590  178.4360  139.7490 C   0  0  0  0  0  0  0  0  0  0  0  0
  186.8320  178.1180  139.7920 C   0  0  0  0  0  0  0  0  0  0  0  0
  184.8570  179.0800  140.8340 C   0  0  0  0  0  3  0  0  0  0  0  0
  189.3830  174.2990  135.0620 C   0  0  0  0  0  2  0  0  0  0  0  0
  190.6980  174.3700  134.6020 O   0  0  0  0  0  0  0  0  0  0  0  0
  191.3960  173.4640  135.3990 C   0  0  0  0  0  1  0  0  0  0  0  0
  2 17  1  0  0  0  0
  2  1  1  0  0  0  0
  2  6  1  0  0  0  0
  3  6  1  0  0  0  0
  4 29  1  0  0  0  0
  4 15  1  0  0  0  0
  4  1  1  0  0  0  0
  5 15  1  0  0  0  0
  7 12  1  0  0  0  0
  8 17  1  0  0  0  0
  9  3  1  0  0  0  0
 10 12  1  0  0  0  0
 11  8  1  0  0  0  0
 11  1  1  0  0  0  0
 11  7  1  0  0  0  0
 12 20  1  0  0  0  0
 13 18  1  0  0  0  0
 13  9  1  0  0  0  0
 14 10  1  0  0  0  0
 15 14  1  0  0  0  0
 16 11  1  0  0  0  0
 16  8  1  0  0  0  0
 18 17  1  0  0  0  0
 20 19  1  0  0  0  0
 20 27  1  0  0  0  0
 21 25  1  0  0  0  0
 21 24  1  0  0  0  0
 22 25  2  0  0  0  0
 23 26  1  0  0  0  0
 26 27  2  0  0  0  0
 26 28  1  0  0  0  0
 27 22  1  0  0  0  0
 28 21  2  0  0  0  0
 30 29  1  0  0  0  0
 30 31  1  0  0  0  0
M  END
>  <MODEL>
7

>  <REMARK>
 VINA RESULT:      -3.7      3.456      7.269
  Name = 
  4 active torsions:
  status: ('A' for Active; 'I' for Inactive)
    1  A    between atoms: O_2  and  C_25
    2  A    between atoms: C_9  and  C_22
    3  A    between atoms: C_9  and  C_23
    4  A    between atoms: C_12  and  C_25
                            x       y       z     vdW  Elec       q    Type
                         _______ _______ _______ _____ _____    ______ ____

>  <TORSDO>
F 4

$$$$
=
 OpenBabel10272400343D

 31 35  0  0  1  0  0  0  0  0999 V2000
  195.8670  171.7070  136.6910 C   0  0  1  0  0  3  0  0  0  0  0  0
  195.2220  170.3600  136.9860 C   0  0  1  0  0  3  0  0  0  0  0  0
  194.8970  168.6070  138.7740 C   0  0  0  0  0  2  0  0  0  0  0  0
  197.3580  171.5850  136.3140 C   0  0  1  0  0  3  0  0  0  0  0  0
  198.0830  173.3880  134.6720 C   0  0  0  0  0  1  0  0  0  0  0  0
  195.1960  170.0760  138.4830 C   0  0  0  0  0  2  0  0  0  0  0  0
  194.9250  173.8240  135.3100 C   0  0  0  0  0  2  0  0  0  0  0  0
  193.7180  171.5940  135.4490 C   0  0  1  0  0  3  0  0  0  0  0  0
  193.5250  168.1740  138.2640 C   0  0  0  0  0  2  0  0  0  0  0  0
  196.7260  175.1150  136.5910 C   0  0  0  0  0  2  0  0  0  0  0  0
  195.0390  172.3190  135.5580 C   0  0  2  0  0  0  0  0  0  0  0  0
  195.2430  174.7370  136.5010 C   0  0  2  0  0  3  0  0  0  0  0  0
  193.5840  167.9130  136.7620 C   0  0  0  0  0  2  0  0  0  0  0  0
  197.6370  174.0190  137.1470 C   0  0  0  0  0  2  0  0  0  0  0  0
  198.0420  172.9410  136.1260 C   0  0  1  0  0  3  0  0  0  0  0  0
  194.7650  171.4520  134.3460 C   0  0  0  0  0  2  0  0  0  0  0  0
  193.7920  170.4660  136.4710 C   0  0  1  0  0  3  0  0  0  0  0  0
  193.2470  169.1480  135.9160 C   0  0  0  0  0  2  0  0  0  0  0  0
  195.5530  174.4230  138.9880 C   0  0  0  0  0  1  0  0  0  0  0  0
  194.5580  174.3870  137.8380 C   0  0  1  0  0  3  0  0  0  0  0  0
  191.2420  176.9780  138.8160 C   0  0  0  0  0  0  0  0  0  0  0  0
  193.5980  176.4460  138.9480 C   0  0  0  0  0  3  0  0  0  0  0  0
  191.8020  173.7340  136.9700 C   0  0  0  0  0  1  0  0  0  0  0  0
  190.2050  177.7920  139.1220 F   0  0  0  0  0  0  0  0  0  0  0  0
  192.5270  177.2840  139.2660 C   0  0  0  0  0  3  0  0  0  0  0  0
  192.0910  174.9770  137.7400 C   0  0  0  0  0  0  0  0  0  0  0  0
  193.3980  175.2970  138.1630 C   0  0  0  0  0  0  0  0  0  0  0  0
  191.0250  175.8220  138.0620 C   0  0  0  0  0  3  0  0  0  0  0  0
  198.1510  170.8020  137.3530 C   0  0  0  0  0  2  0  0  0  0  0  0
  198.8170  169.7390  136.7430 O   0  0  0  0  0  0  0  0  0  0  0  0
  198.9190  168.7710  137.7420 C   0  0  0  0  0  1  0  0  0  0  0  0
  1  2  1  0  0  0  0
  2  6  1  0  0  0  0
  4  1  1  0  0  0  0
  4 29  1  0  0  0  0
  5 15  1  0  0  0  0
  6  3  1  0  0  0  0
  7 11  1  0  0  0  0
  7 12  1  0  0  0  0
  8 11  1  0  0  0  0
  8 17  1  0  0  0  0
  9  3  1  0  0  0  0
 10 14  1  0  0  0  0
 11  1  1  0  0  0  0
 12 10  1  0  0  0  0
 12 20  1  0  0  0  0
 13  9  1  0  0  0  0
 15  4  1  0  0  0  0
 15 14  1  0  0  0  0
 16  8  1  0  0  0  0
 16 11  1  0  0  0  0
 17  2  1  0  0  0  0
 18 17  1  0  0  0  0
 18 13  1  0  0  0  0
 20 27  1  0  0  0  0
 20 19  1  0  0  0  0
 21 24  1  0  0  0  0
 21 25  1  0  0  0  0
 22 25  2  0  0  0  0
 23 26  1  0  0  0  0
 26 28  1  0  0  0  0
 26 27  2  0  0  0  0
 27 22  1  0  0  0  0
 28 21  2  0  0  0  0
 30 29  1  0  0  0  0
 30 31  1  0  0  0  0
M  END
>  <MODEL>
8

>  <REMARK>
 VINA RESULT:      -3.7      7.501     11.621
  Name = 
  4 active torsions:
  status: ('A' for Active; 'I' for Inactive)
    1  A    between atoms: O_2  and  C_25
    2  A    between atoms: C_9  and  C_22
    3  A    between atoms: C_9  and  C_23
    4  A    between atoms: C_12  and  C_25
                            x       y       z     vdW  Elec       q    Type
                         _______ _______ _______ _____ _____    ______ ____

>  <TORSDO>
F 4

$$$$
=
 OpenBabel10272400343D

 31 35  0  0  1  0  0  0  0  0999 V2000
  186.9050  176.2870  136.7440 C   0  0  1  0  0  3  0  0  0  0  0  0
  188.3420  176.5190  137.1860 C   0  0  1  0  0  3  0  0  0  0  0  0
  189.8730  176.5610  139.1940 C   0  0  0  0  0  2  0  0  0  0  0  0
  186.0150  177.5340  136.9250 C   0  0  1  0  0  3  0  0  0  0  0  0
  184.1840  177.6710  135.1650 C   0  0  0  0  0  1  0  0  0  0  0  0
  188.5700  176.0200  138.6070 C   0  0  0  0  0  2  0  0  0  0  0  0
  185.9340  174.9930  134.5850 C   0  0  0  0  0  2  0  0  0  0  0  0
  188.4060  175.4350  134.9570 C   0  0  1  0  0  3  0  0  0  0  0  0
  191.1030  176.1080  138.4120 C   0  0  0  0  0  2  0  0  0  0  0  0
  183.7740  174.8940  135.9560 C   0  0  0  0  0  2  0  0  0  0  0  0
  186.9910  175.8540  135.2780 C   0  0  2  0  0  0  0  0  0  0  0  0
  185.0350  174.1510  135.5000 C   0  0  2  0  0  3  0  0  0  0  0  0
  191.2630  176.9560  137.1530 C   0  0  0  0  0  2  0  0  0  0  0  0
  183.9980  175.9200  137.0670 C   0  0  0  0  0  2  0  0  0  0  0  0
  184.5450  177.2770  136.5900 C   0  0  1  0  0  3  0  0  0  0  0  0
  187.8260  176.7090  134.3460 C   0  0  0  0  0  2  0  0  0  0  0  0
  189.2050  175.7110  136.2270 C   0  0  1  0  0  3  0  0  0  0  0  0
  190.5570  176.3630  135.9270 C   0  0  0  0  0  2  0  0  0  0  0  0
  184.8090  173.0020  137.7380 C   0  0  0  0  0  1  0  0  0  0  0  0
  185.7470  173.3120  136.5810 C   0  0  1  0  0  3  0  0  0  0  0  0
  187.3450  169.5870  135.0880 C   0  0  0  0  0  0  0  0  0  0  0  0
  185.4840  171.1030  135.3820 C   0  0  0  0  0  3  0  0  0  0  0  0
  188.5830  172.5790  137.0290 C   0  0  0  0  0  1  0  0  0  0  0  0
  187.8450  168.4200  134.6180 F   0  0  0  0  0  0  0  0  0  0  0  0
  185.9980  169.8970  134.9000 C   0  0  0  0  0  3  0  0  0  0  0  0
  187.6680  171.6840  136.2640 C   0  0  0  0  0  0  0  0  0  0  0  0
  186.3150  172.0190  136.0480 C   0  0  0  0  0  0  0  0  0  0  0  0
  188.1750  170.4760  135.7760 C   0  0  0  0  0  3  0  0  0  0  0  0
  186.0800  178.0860  138.3440 C   0  0  0  0  0  2  0  0  0  0  0  0
  184.8240  178.0070  138.9450 O   0  0  0  0  0  0  0  0  0  0  0  0
  184.5560  179.3080  139.3680 C   0  0  0  0  0  1  0  0  0  0  0  0
  1  4  1  0  0  0  0
  1  2  1  0  0  0  0
  2  6  1  0  0  0  0
  4 29  1  0  0  0  0
  5 15  1  0  0  0  0
  6  3  1  0  0  0  0
  7 11  1  0  0  0  0
  7 12  1  0  0  0  0
  8 11  1  0  0  0  0
  8 17  1  0  0  0  0
  9  3  1  0  0  0  0
 10 14  1  0  0  0  0
 11  1  1  0  0  0  0
 12 10  1  0  0  0  0
 12 20  1  0  0  0  0
 13  9  1  0  0  0  0
 15  4  1  0  0  0  0
 15 14  1  0  0  0  0
 16  8  1  0  0  0  0
 16 11  1  0  0  0  0
 17  2  1  0  0  0  0
 18 17  1  0  0  0  0
 18 13  1  0  0  0  0
 20 19  1  0  0  0  0
 21 28  1  0  0  0  0
 22 27  2  0  0  0  0
 24 21  1  0  0  0  0
 25 21  2  0  0  0  0
 25 22  1  0  0  0  0
 26 23  1  0  0  0  0
 27 26  1  0  0  0  0
 27 20  1  0  0  0  0
 28 26  2  0  0  0  0
 29 30  1  0  0  0  0
 30 31  1  0  0  0  0
M  END
>  <MODEL>
9

>  <REMARK>
 VINA RESULT:      -3.6      1.415      1.634
  Name = 
  4 active torsions:
  status: ('A' for Active; 'I' for Inactive)
    1  A    between atoms: O_2  and  C_25
    2  A    between atoms: C_9  and  C_22
    3  A    between atoms: C_9  and  C_23
    4  A    between atoms: C_12  and  C_25
                            x       y       z     vdW  Elec       q    Type
                         _______ _______ _______ _____ _____    ______ ____

>  <TORSDO>
F 4

$$$$
