=
 OpenBabel10272414543D

 37 41  0  0  1  0  0  0  0  0999 V2000
  188.8740  178.4610  140.8000 C   0  0  0  0  0  2  0  0  0  0  0  0
  188.6640  177.6390  136.4830 C   0  0  2  0  0  3  0  0  0  0  0  0
  187.5520  177.8790  138.7250 C   0  0  2  0  0  3  0  0  0  0  0  0
  189.3290  176.2540  136.6110 C   0  0  1  0  0  3  0  0  0  0  0  0
  188.6400  178.4300  137.7990 C   0  0  0  0  0  2  0  0  0  0  0  0
  186.2070  177.9300  138.0570 C   0  0  0  0  0  3  0  0  0  0  0  0
  191.1110  175.9490  138.4640 C   0  0  1  0  0  3  0  0  0  0  0  0
  190.7910  176.8450  140.7590 C   0  0  0  0  0  2  0  0  0  0  0  0
  187.2790  177.5580  135.8860 C   0  0  0  0  0  0  0  0  0  0  0  0
  186.0880  177.7440  136.7380 C   0  0  0  0  0  3  0  0  0  0  0  0
  191.1690  177.1950  139.3280 C   0  0  1  0  0  3  0  0  0  0  0  0
  187.1280  177.3530  134.5860 C   0  0  0  0  0  2  0  0  0  0  0  0
  190.8160  176.3720  137.0210 C   0  0  1  0  0  3  0  0  0  0  0  0
  187.5300  178.5710  140.0840 C   0  0  0  0  0  2  0  0  0  0  0  0
  189.2910  177.0050  140.9770 C   0  0  0  0  0  2  0  0  0  0  0  0
  192.4490  176.4930  138.9360 C   0  0  0  0  0  2  0  0  0  0  0  0
  188.5060  175.2630  137.4460 C   0  0  0  0  0  2  0  0  0  0  0  0
  188.3650  173.1180  136.5610 C   0  0  0  0  0  1  0  0  0  0  0  0
  187.7020  174.4120  136.5840 N   0  0  0  0  0  0  0  0  0  0  0  0
  185.3610  174.0030  134.7540 C   0  0  0  0  0  2  0  0  0  0  0  0
  185.2800  174.2710  136.2400 C   0  0  1  0  0  3  0  0  0  0  0  0
  185.7730  172.9370  136.7760 C   0  0  2  0  0  3  0  0  0  0  0  0
  183.5860  171.9370  136.4780 C   0  0  0  0  0  3  0  0  0  0  0  0
  183.8050  171.9400  134.9690 C   0  0  0  0  0  2  0  0  0  0  0  0
  184.5130  172.3890  137.3470 C   0  0  0  0  0  3  0  0  0  0  0  0
  184.0310  173.3390  134.3460 C   0  0  0  0  0  2  0  0  0  0  0  0
  186.4190  174.2200  137.2480 C   0  0  1  0  0  3  0  0  0  0  0  0
  191.7850  175.7300  136.0200 C   0  0  2  0  0  3  0  0  0  0  0  0
  192.7280  173.3980  136.4430 C   0  0  0  0  0  1  0  0  0  0  0  0
  191.5660  174.2160  135.8990 C   0  0  0  0  0  3  0  0  0  0  0  0
  191.2790  173.8180  134.4650 C   0  0  0  0  0  1  0  0  0  0  0  0
  193.2450  176.1400  136.2360 C   0  0  0  0  0  2  0  0  0  0  0  0
  193.9310  176.4530  134.9190 C   0  0  0  0  0  2  0  0  0  0  0  0
  195.4340  176.5530  135.1200 C   0  0  0  0  0  2  0  0  0  0  0  0
  195.9420  175.3630  135.9130 C   0  0  0  0  0  2  0  0  0  0  0  0
  197.9800  175.3740  137.2240 N   0  0  0  0  0  1  0  0  0  0  0  0
  197.4570  175.3080  135.8720 C   0  0  0  0  0  2  0  0  0  0  0  0
  1 15  1  0  0  0  0
  2  4  1  0  0  0  0
  2  5  1  1  0  0  0
  3  5  1  6  0  0  0
  3 14  1  0  0  0  0
  4 13  1  0  0  0  0
  4 17  1  1  0  0  0
  6  3  1  0  0  0  0
  7 16  1  6  0  0  0
  7 11  1  0  0  0  0
  8 15  1  0  0  0  0
  9  2  1  0  0  0  0
  9 10  1  0  0  0  0
 10  6  2  0  0  0  0
 11 16  1  1  0  0  0
 11  8  1  0  0  0  0
 12  9  2  0  0  0  0
 13 28  1  6  0  0  0
 13  7  1  0  0  0  0
 14  1  1  0  0  0  0
 18 19  1  0  0  0  0
 19 17  1  0  0  0  0
 21 20  1  6  0  0  0
 21 22  1  0  0  0  0
 21 27  1  0  0  0  0
 22 27  1  0  0  0  0
 22 25  1  1  0  0  0
 23 25  2  0  0  0  0
 24 23  1  0  0  0  0
 26 20  1  0  0  0  0
 26 24  1  0  0  0  0
 27 19  1  6  0  0  0
 28 32  1  1  0  0  0
 30 28  1  0  0  0  0
 30 29  1  0  0  0  0
 31 30  1  0  0  0  0
 33 34  1  0  0  0  0
 33 32  1  0  0  0  0
 34 35  1  0  0  0  0
 37 35  1  0  0  0  0
 37 36  1  0  0  0  0
M  END
>  <MODEL>
1

>  <REMARK>
 VINA RESULT:      -5.4      0.000      0.000
  Name = 
  10 active torsions:
  status: ('A' for Active; 'I' for Inactive)
    1  A    between atoms: C_1  and  C_5
    2  A    between atoms: C_1  and  C_23
    3  A    between atoms: C_5  and  C_17
    4  A    between atoms: C_10  and  C_14
    5  A    between atoms: C_14  and  N_31
    6  A    between atoms: C_17  and  C_26
    7  A    between atoms: C_26  and  C_33
    8  A    between atoms: C_27  and  C_33
    9  A    between atoms: C_29  and  C_33
   10  A    between atoms: N_31  and  C_37
                            x       y       z     vdW  Elec       q    Type
                         _______ _______ _______ _____ _____    ______ ____

>  <TORSDO>
F 10

$$$$
=
 OpenBabel10272414543D

 37 41  0  0  1  0  0  0  0  0999 V2000
  188.6780  178.4160  140.2650 C   0  0  0  0  0  2  0  0  0  0  0  0
  187.6810  177.2240  136.1480 C   0  0  2  0  0  3  0  0  0  0  0  0
  186.9910  177.7260  138.5130 C   0  0  2  0  0  3  0  0  0  0  0  0
  188.3030  175.8210  136.2960 C   0  0  1  0  0  3  0  0  0  0  0  0
  187.9210  178.1300  137.3650 C   0  0  0  0  0  2  0  0  0  0  0  0
  185.5520  177.7920  138.0830 C   0  0  0  0  0  3  0  0  0  0  0  0
  190.3690  175.5830  137.8380 C   0  0  1  0  0  3  0  0  0  0  0  0
  190.4920  176.6970  140.0560 C   0  0  0  0  0  2  0  0  0  0  0  0
  186.2110  177.1680  135.8080 C   0  0  0  0  0  0  0  0  0  0  0  0
  185.1960  177.4970  136.8280 C   0  0  0  0  0  3  0  0  0  0  0  0
  190.6270  176.8960  138.5530 C   0  0  1  0  0  3  0  0  0  0  0  0
  185.8260  176.8560  134.5790 C   0  0  0  0  0  2  0  0  0  0  0  0
  189.8420  175.8910  136.4330 C   0  0  1  0  0  3  0  0  0  0  0  0
  187.2340  178.5370  139.7810 C   0  0  0  0  0  2  0  0  0  0  0  0
  189.0610  176.9610  140.5090 C   0  0  0  0  0  2  0  0  0  0  0  0
  191.7890  176.0910  138.0190 C   0  0  0  0  0  2  0  0  0  0  0  0
  187.6000  174.9560  137.3520 C   0  0  0  0  0  2  0  0  0  0  0  0
  187.7260  172.6480  137.1080 C   0  0  0  0  0  1  0  0  0  0  0  0
  186.9480  173.8160  136.7290 N   0  0  0  0  0  0  0  0  0  0  0  0
  184.6300  173.6700  134.8310 C   0  0  0  0  0  2  0  0  0  0  0  0
  184.5310  173.8610  136.3280 C   0  0  1  0  0  3  0  0  0  0  0  0
  184.9200  172.4690  136.7970 C   0  0  2  0  0  3  0  0  0  0  0  0
  182.6780  171.6400  136.3980 C   0  0  0  0  0  3  0  0  0  0  0  0
  182.9340  171.7110  134.8970 C   0  0  0  0  0  2  0  0  0  0  0  0
  183.6130  171.9780  137.3110 C   0  0  0  0  0  3  0  0  0  0  0  0
  183.2690  173.1230  134.3590 C   0  0  0  0  0  2  0  0  0  0  0  0
  185.6390  173.6770  137.3550 C   0  0  1  0  0  3  0  0  0  0  0  0
  190.5940  175.1080  135.3480 C   0  0  2  0  0  3  0  0  0  0  0  0
  192.7900  176.1520  134.5790 C   0  0  0  0  0  1  0  0  0  0  0  0
  191.2910  176.0390  134.3460 C   0  0  0  0  0  3  0  0  0  0  0  0
  190.6600  177.4180  134.3520 C   0  0  0  0  0  1  0  0  0  0  0  0
  189.7540  174.0030  134.7020 C   0  0  0  0  0  2  0  0  0  0  0  0
  190.3610  172.6330  134.9500 C   0  0  0  0  0  2  0  0  0  0  0  0
  191.6240  172.7620  135.7870 C   0  0  0  0  0  2  0  0  0  0  0  0
  192.7740  172.0250  135.1260 C   0  0  0  0  0  2  0  0  0  0  0  0
  194.4310  172.6830  136.7680 N   0  0  0  0  0  1  0  0  0  0  0  0
  193.7630  171.5420  136.1700 C   0  0  0  0  0  2  0  0  0  0  0  0
  1 15  1  0  0  0  0
  2  4  1  0  0  0  0
  2  5  1  1  0  0  0
  3  5  1  6  0  0  0
  3 14  1  0  0  0  0
  4 13  1  0  0  0  0
  4 17  1  1  0  0  0
  6  3  1  0  0  0  0
  7 16  1  6  0  0  0
  7 11  1  0  0  0  0
  8 15  1  0  0  0  0
  9  2  1  0  0  0  0
  9 10  1  0  0  0  0
 10  6  2  0  0  0  0
 11 16  1  1  0  0  0
 11  8  1  0  0  0  0
 12  9  2  0  0  0  0
 13 28  1  6  0  0  0
 13  7  1  0  0  0  0
 14  1  1  0  0  0  0
 19 18  1  0  0  0  0
 19 17  1  0  0  0  0
 21 20  1  6  0  0  0
 21 22  1  0  0  0  0
 21 27  1  0  0  0  0
 22 25  1  1  0  0  0
 22 27  1  0  0  0  0
 23 25  2  0  0  0  0
 24 23  1  0  0  0  0
 26 20  1  0  0  0  0
 26 24  1  0  0  0  0
 27 19  1  6  0  0  0
 28 32  1  6  0  0  0
 30 31  1  0  0  0  0
 30 29  1  0  0  0  0
 30 28  1  0  0  0  0
 32 33  1  0  0  0  0
 33 34  1  0  0  0  0
 35 34  1  0  0  0  0
 35 37  1  0  0  0  0
 37 36  1  0  0  0  0
M  END
>  <MODEL>
2

>  <REMARK>
 VINA RESULT:      -5.0      1.630      2.337
  Name = 
  10 active torsions:
  status: ('A' for Active; 'I' for Inactive)
    1  A    between atoms: C_1  and  C_5
    2  A    between atoms: C_1  and  C_23
    3  A    between atoms: C_5  and  C_17
    4  A    between atoms: C_10  and  C_14
    5  A    between atoms: C_14  and  N_31
    6  A    between atoms: C_17  and  C_26
    7  A    between atoms: C_26  and  C_33
    8  A    between atoms: C_27  and  C_33
    9  A    between atoms: C_29  and  C_33
   10  A    between atoms: N_31  and  C_37
                            x       y       z     vdW  Elec       q    Type
                         _______ _______ _______ _____ _____    ______ ____

>  <TORSDO>
F 10

$$$$
=
 OpenBabel10272414543D

 37 41  0  0  1  0  0  0  0  0999 V2000
  185.7330  179.1560  140.5340 C   0  0  0  0  0  2  0  0  0  0  0  0
  186.4230  177.7870  136.4090 C   0  0  2  0  0  3  0  0  0  0  0  0
  184.9350  178.0150  138.4230 C   0  0  2  0  0  3  0  0  0  0  0  0
  187.3560  176.6370  136.8390 C   0  0  1  0  0  3  0  0  0  0  0  0
  186.0060  178.7020  137.5700 C   0  0  0  0  0  2  0  0  0  0  0  0
  183.7410  177.6490  137.5870 C   0  0  0  0  0  3  0  0  0  0  0  0
  188.8330  177.0130  138.9320 C   0  0  1  0  0  3  0  0  0  0  0  0
  187.9460  178.0730  140.9960 C   0  0  0  0  0  2  0  0  0  0  0  0
  185.2100  177.2930  135.6590 C   0  0  0  0  0  0  0  0  0  0  0  0
  183.8850  177.2800  136.3090 C   0  0  0  0  0  3  0  0  0  0  0  0
  188.4640  178.3290  139.5890 C   0  0  1  0  0  3  0  0  0  0  0  0
  185.3240  176.9000  134.3990 C   0  0  0  0  0  2  0  0  0  0  0  0
  188.6890  177.1700  137.4140 C   0  0  1  0  0  3  0  0  0  0  0  0
  184.5340  178.8410  139.6410 C   0  0  0  0  0  2  0  0  0  0  0  0
  186.4350  177.8820  140.9900 C   0  0  0  0  0  2  0  0  0  0  0  0
  189.9160  177.9250  139.4820 C   0  0  0  0  0  2  0  0  0  0  0  0
  186.6540  175.5820  137.7060 C   0  0  0  0  0  2  0  0  0  0  0  0
  187.3850  173.4460  137.1510 C   0  0  0  0  0  1  0  0  0  0  0  0
  186.3210  174.4090  136.9150 N   0  0  0  0  0  0  0  0  0  0  0  0
  184.2020  173.6800  134.9210 C   0  0  0  0  0  2  0  0  0  0  0  0
  184.0150  173.7430  136.4200 C   0  0  1  0  0  3  0  0  0  0  0  0
  184.7990  172.5100  136.8360 C   0  0  2  0  0  3  0  0  0  0  0  0
  182.9250  171.0650  136.3080 C   0  0  0  0  0  3  0  0  0  0  0  0
  183.1820  171.2990  134.8230 C   0  0  0  0  0  2  0  0  0  0  0  0
  183.6910  171.6160  137.2720 C   0  0  0  0  0  3  0  0  0  0  0  0
  183.0840  172.7750  134.3690 C   0  0  0  0  0  2  0  0  0  0  0  0
  185.1020  173.8430  137.4810 C   0  0  1  0  0  3  0  0  0  0  0  0
  189.9290  176.6710  136.6610 C   0  0  2  0  0  3  0  0  0  0  0  0
  190.5310  175.3040  134.5940 C   0  0  0  0  0  1  0  0  0  0  0  0
  189.6240  176.3700  135.1870 C   0  0  0  0  0  3  0  0  0  0  0  0
  189.6880  177.6310  134.3480 C   0  0  0  0  0  1  0  0  0  0  0  0
  190.6760  175.5500  137.3910 C   0  0  0  0  0  2  0  0  0  0  0  0
  192.1270  175.9230  137.6360 C   0  0  0  0  0  2  0  0  0  0  0  0
  192.9880  174.6710  137.6950 C   0  0  0  0  0  2  0  0  0  0  0  0
  194.3900  174.9700  137.1970 C   0  0  0  0  0  2  0  0  0  0  0  0
  195.6290  174.7670  139.2700 N   0  0  0  0  0  1  0  0  0  0  0  0
  195.4100  174.1570  137.9710 C   0  0  0  0  0  2  0  0  0  0  0  0
  1 15  1  0  0  0  0
  2  4  1  0  0  0  0
  2  5  1  1  0  0  0
  3  5  1  6  0  0  0
  3 14  1  0  0  0  0
  4 13  1  0  0  0  0
  4 17  1  1  0  0  0
  6  3  1  0  0  0  0
  7 16  1  6  0  0  0
  7 11  1  0  0  0  0
  9 10  1  0  0  0  0
  9  2  1  0  0  0  0
 10  6  2  0  0  0  0
 11 16  1  1  0  0  0
 11  8  1  0  0  0  0
 12  9  2  0  0  0  0
 13 28  1  6  0  0  0
 13  7  1  0  0  0  0
 14  1  1  0  0  0  0
 15  8  1  0  0  0  0
 19 18  1  0  0  0  0
 19 17  1  0  0  0  0
 21 20  1  6  0  0  0
 21 22  1  0  0  0  0
 21 27  1  0  0  0  0
 22 25  1  1  0  0  0
 22 27  1  0  0  0  0
 23 25  2  0  0  0  0
 24 23  1  0  0  0  0
 26 24  1  0  0  0  0
 26 20  1  0  0  0  0
 27 19  1  6  0  0  0
 28 32  1  1  0  0  0
 29 30  1  0  0  0  0
 30 28  1  0  0  0  0
 31 30  1  0  0  0  0
 32 33  1  0  0  0  0
 33 34  1  0  0  0  0
 35 34  1  0  0  0  0
 35 37  1  0  0  0  0
 37 36  1  0  0  0  0
M  END
>  <MODEL>
3

>  <REMARK>
 VINA RESULT:      -4.8      1.621      2.496
  Name = 
  10 active torsions:
  status: ('A' for Active; 'I' for Inactive)
    1  A    between atoms: C_1  and  C_5
    2  A    between atoms: C_1  and  C_23
    3  A    between atoms: C_5  and  C_17
    4  A    between atoms: C_10  and  C_14
    5  A    between atoms: C_14  and  N_31
    6  A    between atoms: C_17  and  C_26
    7  A    between atoms: C_26  and  C_33
    8  A    between atoms: C_27  and  C_33
    9  A    between atoms: C_29  and  C_33
   10  A    between atoms: N_31  and  C_37
                            x       y       z     vdW  Elec       q    Type
                         _______ _______ _______ _____ _____    ______ ____

>  <TORSDO>
F 10

$$$$
=
 OpenBabel10272414543D

 37 41  0  0  1  0  0  0  0  0999 V2000
  185.9140  172.3360  135.3070 C   0  0  0  0  0  2  0  0  0  0  0  0
  186.0930  176.7300  135.1590 C   0  0  2  0  0  3  0  0  0  0  0  0
  187.2200  174.4850  135.0480 C   0  0  2  0  0  3  0  0  0  0  0  0
  185.8680  176.8920  136.6750 C   0  0  1  0  0  3  0  0  0  0  0  0
  185.9650  175.2780  134.6720 C   0  0  0  0  0  2  0  0  0  0  0  0
  188.4500  175.1270  134.4690 C   0  0  0  0  0  3  0  0  0  0  0  0
  184.3660  175.1430  137.8550 C   0  0  1  0  0  3  0  0  0  0  0  0
  184.5510  172.7120  137.3770 C   0  0  0  0  0  2  0  0  0  0  0  0
  187.4030  177.3290  134.7050 C   0  0  0  0  0  0  0  0  0  0  0  0
  188.5380  176.4560  134.3460 C   0  0  0  0  0  3  0  0  0  0  0  0
  184.0010  174.0400  136.8790 C   0  0  1  0  0  3  0  0  0  0  0  0
  187.5290  178.6430  134.5950 C   0  0  0  0  0  2  0  0  0  0  0  0
  184.4380  176.4670  137.0860 C   0  0  1  0  0  3  0  0  0  0  0  0
  187.1230  173.0130  134.6630 C   0  0  0  0  0  2  0  0  0  0  0  0
  185.9490  172.4650  136.8250 C   0  0  0  0  0  2  0  0  0  0  0  0
  182.9590  174.5700  137.8370 C   0  0  0  0  0  2  0  0  0  0  0  0
  186.9920  176.2790  137.5220 C   0  0  0  0  0  2  0  0  0  0  0  0
  187.3610  178.4680  138.2110 C   0  0  0  0  0  1  0  0  0  0  0  0
  188.0370  177.2580  137.7710 N   0  0  0  0  0  0  0  0  0  0  0  0
  190.7040  176.0770  137.0730 C   0  0  0  0  0  2  0  0  0  0  0  0
  190.0240  175.9790  138.4200 C   0  0  1  0  0  3  0  0  0  0  0  0
  190.1880  177.4110  138.9020 C   0  0  2  0  0  3  0  0  0  0  0  0
  192.4610  176.9740  139.6220 C   0  0  0  0  0  3  0  0  0  0  0  0
  192.8980  176.9240  138.1620 C   0  0  0  0  0  2  0  0  0  0  0  0
  191.1860  177.2210  139.9900 C   0  0  0  0  0  3  0  0  0  0  0  0
  192.2060  175.8310  137.3120 C   0  0  0  0  0  2  0  0  0  0  0  0
  188.8180  176.7720  138.9020 C   0  0  1  0  0  3  0  0  0  0  0  0
  183.6380  177.5800  137.7760 C   0  0  2  0  0  3  0  0  0  0  0  0
  181.1110  177.8730  137.6050 C   0  0  0  0  0  1  0  0  0  0  0  0
  182.4570  178.0540  136.9190 C   0  0  0  0  0  3  0  0  0  0  0  0
  182.4490  177.3630  135.5700 C   0  0  0  0  0  1  0  0  0  0  0  0
  184.5150  178.7120  138.3210 C   0  0  0  0  0  2  0  0  0  0  0  0
  183.9320  179.2960  139.5950 C   0  0  0  0  0  2  0  0  0  0  0  0
  184.8230  178.9630  140.7810 C   0  0  0  0  0  2  0  0  0  0  0  0
  184.0490  178.1720  141.8190 C   0  0  0  0  0  2  0  0  0  0  0  0
  186.0960  177.9800  143.1010 N   0  0  0  0  0  1  0  0  0  0  0  0
  184.6890  178.3230  143.1860 C   0  0  0  0  0  2  0  0  0  0  0  0
  1 15  1  0  0  0  0
  2  5  1  1  0  0  0
  2  4  1  0  0  0  0
  3  6  1  6  0  0  0
  4 13  1  0  0  0  0
  4 17  1  1  0  0  0
  5  3  1  0  0  0  0
  7 16  1  1  0  0  0
  9  2  1  0  0  0  0
 10  6  2  0  0  0  0
 10  9  1  0  0  0  0
 11  8  1  1  0  0  0
 11 16  1  0  0  0  0
 11  7  1  0  0  0  0
 12  9  2  0  0  0  0
 13 28  1  1  0  0  0
 13  7  1  0  0  0  0
 14  3  1  0  0  0  0
 14  1  1  0  0  0  0
 15  8  1  0  0  0  0
 17 19  1  0  0  0  0
 19 18  1  0  0  0  0
 20 26  1  0  0  0  0
 21 20  1  6  0  0  0
 21 22  1  0  0  0  0
 21 27  1  0  0  0  0
 22 27  1  0  0  0  0
 22 25  1  1  0  0  0
 23 25  2  0  0  0  0
 24 23  1  0  0  0  0
 26 24  1  0  0  0  0
 27 19  1  6  0  0  0
 28 32  1  6  0  0  0
 30 29  1  0  0  0  0
 30 28  1  0  0  0  0
 31 30  1  0  0  0  0
 32 33  1  0  0  0  0
 33 34  1  0  0  0  0
 34 35  1  0  0  0  0
 35 37  1  0  0  0  0
 36 37  1  0  0  0  0
M  END
>  <MODEL>
4

>  <REMARK>
 VINA RESULT:      -4.7      2.692      8.318
  Name = 
  10 active torsions:
  status: ('A' for Active; 'I' for Inactive)
    1  A    between atoms: C_1  and  C_5
    2  A    between atoms: C_1  and  C_23
    3  A    between atoms: C_5  and  C_17
    4  A    between atoms: C_10  and  C_14
    5  A    between atoms: C_14  and  N_31
    6  A    between atoms: C_17  and  C_26
    7  A    between atoms: C_26  and  C_33
    8  A    between atoms: C_27  and  C_33
    9  A    between atoms: C_29  and  C_33
   10  A    between atoms: N_31  and  C_37
                            x       y       z     vdW  Elec       q    Type
                         _______ _______ _______ _____ _____    ______ ____

>  <TORSDO>
F 10

$$$$
=
 OpenBabel10272414543D

 37 41  0  0  1  0  0  0  0  0999 V2000
  179.9830  172.5570  137.1780 C   0  0  0  0  0  2  0  0  0  0  0  0
  182.4080  176.0050  135.9150 C   0  0  2  0  0  3  0  0  0  0  0  0
  181.9630  173.5300  135.9430 C   0  0  2  0  0  3  0  0  0  0  0  0
  183.0010  176.2310  137.3200 C   0  0  1  0  0  3  0  0  0  0  0  0
  181.3210  174.9190  135.8780 C   0  0  0  0  0  2  0  0  0  0  0  0
  182.9360  173.3390  134.8150 C   0  0  0  0  0  3  0  0  0  0  0  0
  181.5020  175.6740  139.3560 C   0  0  1  0  0  3  0  0  0  0  0  0
  180.1180  173.6130  139.4480 C   0  0  0  0  0  2  0  0  0  0  0  0
  183.4710  175.7280  134.8800 C   0  0  0  0  0  0  0  0  0  0  0  0
  183.6600  174.3630  134.3500 C   0  0  0  0  0  3  0  0  0  0  0  0
  180.2170  175.0220  138.8830 C   0  0  1  0  0  3  0  0  0  0  0  0
  184.2190  176.7190  134.4160 C   0  0  0  0  0  2  0  0  0  0  0  0
  181.9270  176.7200  138.3200 C   0  0  1  0  0  3  0  0  0  0  0  0
  180.9320  172.4080  135.9900 C   0  0  0  0  0  2  0  0  0  0  0  0
  180.7470  172.6030  138.4960 C   0  0  0  0  0  2  0  0  0  0  0  0
  180.1750  176.0400  139.9990 C   0  0  0  0  0  2  0  0  0  0  0  0
  183.8540  175.0530  137.8130 C   0  0  0  0  0  2  0  0  0  0  0  0
  185.9540  174.4460  137.0210 C   0  0  0  0  0  1  0  0  0  0  0  0
  185.2600  175.4190  137.8500 N   0  0  0  0  0  0  0  0  0  0  0  0
  187.4330  177.2000  138.9010 C   0  0  0  0  0  2  0  0  0  0  0  0
  186.3360  177.6190  137.9470 C   0  0  1  0  0  3  0  0  0  0  0  0
  186.7980  176.9070  136.6860 C   0  0  2  0  0  3  0  0  0  0  0  0
  188.3850  178.6720  136.1960 C   0  0  0  0  0  3  0  0  0  0  0  0
  189.2580  178.1870  137.3480 C   0  0  0  0  0  2  0  0  0  0  0  0
  187.2270  178.0670  135.8590 C   0  0  0  0  0  3  0  0  0  0  0  0
  188.5790  178.2170  138.7380 C   0  0  0  0  0  2  0  0  0  0  0  0
  185.3840  176.7100  137.1830 C   0  0  1  0  0  3  0  0  0  0  0  0
  182.2550  178.0730  138.9650 C   0  0  2  0  0  3  0  0  0  0  0  0
  182.0680  180.5970  138.6500 C   0  0  0  0  0  1  0  0  0  0  0  0
  182.0970  179.2350  137.9740 C   0  0  0  0  0  3  0  0  0  0  0  0
  180.8600  179.0560  137.1150 C   0  0  0  0  0  1  0  0  0  0  0  0
  183.5790  178.0770  139.7340 C   0  0  0  0  0  2  0  0  0  0  0  0
  183.3570  178.3270  141.2140 C   0  0  0  0  0  2  0  0  0  0  0  0
  184.5110  179.1310  141.7900 C   0  0  0  0  0  2  0  0  0  0  0  0
  184.7790  178.7180  143.2250 C   0  0  0  0  0  2  0  0  0  0  0  0
  183.7200  179.1960  145.3520 N   0  0  0  0  0  1  0  0  0  0  0  0
  183.4850  178.6810  144.0160 C   0  0  0  0  0  2  0  0  0  0  0  0
  1 15  1  0  0  0  0
  2  5  1  1  0  0  0
  2  4  1  0  0  0  0
  3  6  1  6  0  0  0
  3 14  1  0  0  0  0
  4 17  1  1  0  0  0
  4 13  1  0  0  0  0
  5  3  1  0  0  0  0
  7 16  1  1  0  0  0
  9  2  1  0  0  0  0
 10  6  2  0  0  0  0
 10  9  1  0  0  0  0
 11  7  1  0  0  0  0
 11  8  1  1  0  0  0
 11 16  1  0  0  0  0
 12  9  2  0  0  0  0
 13 28  1  1  0  0  0
 13  7  1  0  0  0  0
 14  1  1  0  0  0  0
 15  8  1  0  0  0  0
 17 19  1  0  0  0  0
 18 19  1  0  0  0  0
 21 20  1  1  0  0  0
 22 25  1  6  0  0  0
 22 27  1  0  0  0  0
 22 21  1  0  0  0  0
 23 24  1  0  0  0  0
 24 26  1  0  0  0  0
 25 23  2  0  0  0  0
 26 20  1  0  0  0  0
 27 19  1  1  0  0  0
 27 21  1  0  0  0  0
 28 32  1  6  0  0  0
 30 29  1  0  0  0  0
 30 28  1  0  0  0  0
 31 30  1  0  0  0  0
 32 33  1  0  0  0  0
 33 34  1  0  0  0  0
 34 35  1  0  0  0  0
 35 37  1  0  0  0  0
 37 36  1  0  0  0  0
M  END
>  <MODEL>
5

>  <REMARK>
 VINA RESULT:      -4.2      4.084      9.416
  Name = 
  10 active torsions:
  status: ('A' for Active; 'I' for Inactive)
    1  A    between atoms: C_1  and  C_5
    2  A    between atoms: C_1  and  C_23
    3  A    between atoms: C_5  and  C_17
    4  A    between atoms: C_10  and  C_14
    5  A    between atoms: C_14  and  N_31
    6  A    between atoms: C_17  and  C_26
    7  A    between atoms: C_26  and  C_33
    8  A    between atoms: C_27  and  C_33
    9  A    between atoms: C_29  and  C_33
   10  A    between atoms: N_31  and  C_37
                            x       y       z     vdW  Elec       q    Type
                         _______ _______ _______ _____ _____    ______ ____

>  <TORSDO>
F 10

$$$$
=
 OpenBabel10272414543D

 37 41  0  0  1  0  0  0  0  0999 V2000
  188.8530  172.7280  136.0090 C   0  0  0  0  0  2  0  0  0  0  0  0
  188.2360  177.0690  136.3760 C   0  0  2  0  0  3  0  0  0  0  0  0
  189.6630  175.0230  136.6930 C   0  0  2  0  0  3  0  0  0  0  0  0
  187.2300  176.9300  137.5350 C   0  0  1  0  0  3  0  0  0  0  0  0
  188.6610  175.7230  135.7700 C   0  0  0  0  0  2  0  0  0  0  0  0
  190.8640  175.8930  136.9340 C   0  0  0  0  0  3  0  0  0  0  0  0
  185.7020  174.8400  137.5500 C   0  0  1  0  0  3  0  0  0  0  0  0
  186.5700  172.5700  137.0330 C   0  0  0  0  0  2  0  0  0  0  0  0
  189.4470  177.8840  136.7610 C   0  0  0  0  0  0  0  0  0  0  0  0
  190.7460  177.2240  136.9980 C   0  0  0  0  0  3  0  0  0  0  0  0
  186.1170  173.8950  136.4380 C   0  0  1  0  0  3  0  0  0  0  0  0
  189.3570  179.2030  136.8540 C   0  0  0  0  0  2  0  0  0  0  0  0
  185.9070  176.2790  137.0660 C   0  0  1  0  0  3  0  0  0  0  0  0
  190.0640  173.6420  136.1870 C   0  0  0  0  0  2  0  0  0  0  0  0
  188.0690  172.5860  137.3080 C   0  0  0  0  0  2  0  0  0  0  0  0
  184.6500  174.1230  136.7210 C   0  0  0  0  0  2  0  0  0  0  0  0
  187.8430  176.3080  138.7970 C   0  0  0  0  0  2  0  0  0  0  0  0
  187.4380  178.4300  139.6560 C   0  0  0  0  0  1  0  0  0  0  0  0
  188.3990  177.3390  139.6580 N   0  0  0  0  0  0  0  0  0  0  0  0
  191.0670  177.4380  141.0250 C   0  0  0  0  0  2  0  0  0  0  0  0
  189.8570  176.6710  141.5110 C   0  0  1  0  0  3  0  0  0  0  0  0
  188.9820  177.8240  141.9720 C   0  0  2  0  0  3  0  0  0  0  0  0
  190.1760  177.9700  144.0770 C   0  0  0  0  0  3  0  0  0  0  0  0
  191.3730  178.5620  143.3410 C   0  0  0  0  0  2  0  0  0  0  0  0
  189.0310  177.6320  143.4470 C   0  0  0  0  0  3  0  0  0  0  0  0
  191.9810  177.6510  142.2480 C   0  0  0  0  0  2  0  0  0  0  0  0
  188.4250  176.7990  141.0120 C   0  0  1  0  0  3  0  0  0  0  0  0
  184.6690  177.1530  137.3090 C   0  0  2  0  0  3  0  0  0  0  0  0
  182.5940  176.9470  135.8420 C   0  0  0  0  0  1  0  0  0  0  0  0
  183.9810  177.5510  135.9960 C   0  0  0  0  0  3  0  0  0  0  0  0
  184.8390  177.1940  134.7990 C   0  0  0  0  0  1  0  0  0  0  0  0
  184.9270  178.3220  138.2650 C   0  0  0  0  0  2  0  0  0  0  0  0
  183.6320  178.8380  138.8670 C   0  0  0  0  0  2  0  0  0  0  0  0
  183.0910  177.8420  139.8810 C   0  0  0  0  0  2  0  0  0  0  0  0
  184.0730  177.6660  141.0240 C   0  0  0  0  0  2  0  0  0  0  0  0
  185.2310  179.4550  142.1770 N   0  0  0  0  0  1  0  0  0  0  0  0
  183.9430  178.8070  142.0140 C   0  0  0  0  0  2  0  0  0  0  0  0
  1 14  1  0  0  0  0
  1 15  1  0  0  0  0
  2  5  1  1  0  0  0
  2  9  1  0  0  0  0
  2  4  1  0  0  0  0
  3  5  1  6  0  0  0
  3  6  1  0  0  0  0
  4 17  1  1  0  0  0
  6 10  2  0  0  0  0
  7 16  1  6  0  0  0
  8 15  1  0  0  0  0
  9 12  2  0  0  0  0
  9 10  1  0  0  0  0
 11 16  1  6  0  0  0
 11  8  1  0  0  0  0
 11  7  1  0  0  0  0
 13 28  1  1  0  0  0
 13  4  1  0  0  0  0
 13  7  1  0  0  0  0
 14  3  1  0  0  0  0
 17 19  1  0  0  0  0
 18 19  1  0  0  0  0
 20 26  1  0  0  0  0
 21 20  1  6  0  0  0
 21 22  1  0  0  0  0
 22 25  1  1  0  0  0
 24 23  1  0  0  0  0
 25 23  2  0  0  0  0
 26 24  1  0  0  0  0
 27 19  1  6  0  0  0
 27 21  1  0  0  0  0
 27 22  1  0  0  0  0
 28 32  1  6  0  0  0
 29 30  1  0  0  0  0
 30 28  1  0  0  0  0
 31 30  1  0  0  0  0
 32 33  1  0  0  0  0
 33 34  1  0  0  0  0
 34 35  1  0  0  0  0
 35 37  1  0  0  0  0
 37 36  1  0  0  0  0
M  END
>  <MODEL>
6

>  <REMARK>
 VINA RESULT:      -4.2      2.926      8.327
  Name = 
  10 active torsions:
  status: ('A' for Active; 'I' for Inactive)
    1  A    between atoms: C_1  and  C_5
    2  A    between atoms: C_1  and  C_23
    3  A    between atoms: C_5  and  C_17
    4  A    between atoms: C_10  and  C_14
    5  A    between atoms: C_14  and  N_31
    6  A    between atoms: C_17  and  C_26
    7  A    between atoms: C_26  and  C_33
    8  A    between atoms: C_27  and  C_33
    9  A    between atoms: C_29  and  C_33
   10  A    between atoms: N_31  and  C_37
                            x       y       z     vdW  Elec       q    Type
                         _______ _______ _______ _____ _____    ______ ____

>  <TORSDO>
F 10

$$$$
=
 OpenBabel10272414543D

 37 41  0  0  1  0  0  0  0  0999 V2000
  183.1310  179.1060  141.8220 C   0  0  0  0  0  2  0  0  0  0  0  0
  183.0710  178.5370  137.4590 C   0  0  2  0  0  3  0  0  0  0  0  0
  182.0150  178.2470  139.7230 C   0  0  2  0  0  3  0  0  0  0  0  0
  184.1650  177.4520  137.4840 C   0  0  1  0  0  3  0  0  0  0  0  0
  182.8260  179.1890  138.8290 C   0  0  0  0  0  2  0  0  0  0  0  0
  180.7100  177.8840  139.0720 C   0  0  0  0  0  3  0  0  0  0  0  0
  186.0050  177.6480  139.2960 C   0  0  1  0  0  3  0  0  0  0  0  0
  185.4760  178.2350  141.6510 C   0  0  0  0  0  2  0  0  0  0  0  0
  181.7750  178.0340  136.8710 C   0  0  0  0  0  0  0  0  0  0  0  0
  180.6180  177.7540  137.7440 C   0  0  0  0  0  3  0  0  0  0  0  0
  185.6700  178.7820  140.2450 C   0  0  1  0  0  3  0  0  0  0  0  0
  181.6600  177.8730  135.5610 C   0  0  0  0  0  2  0  0  0  0  0  0
  185.5390  178.0370  137.8880 C   0  0  1  0  0  3  0  0  0  0  0  0
  181.8050  178.8030  141.1270 C   0  0  0  0  0  2  0  0  0  0  0  0
  184.0170  177.8670  141.8920 C   0  0  0  0  0  2  0  0  0  0  0  0
  187.0970  178.5780  139.7930 C   0  0  0  0  0  2  0  0  0  0  0  0
  183.7490  176.1910  138.2540 C   0  0  0  0  0  2  0  0  0  0  0  0
  184.6000  174.1250  137.6110 C   0  0  0  0  0  1  0  0  0  0  0  0
  183.5380  175.0800  137.3400 N   0  0  0  0  0  0  0  0  0  0  0  0
  181.7450  174.3050  135.0630 C   0  0  0  0  0  2  0  0  0  0  0  0
  181.3550  174.3190  136.5250 C   0  0  1  0  0  3  0  0  0  0  0  0
  182.1380  173.1130  137.0180 C   0  0  2  0  0  3  0  0  0  0  0  0
  180.4280  171.5960  136.2120 C   0  0  0  0  0  3  0  0  0  0  0  0
  180.8700  171.8810  134.7810 C   0  0  0  0  0  2  0  0  0  0  0  0
  181.0290  172.1570  137.2820 C   0  0  0  0  0  3  0  0  0  0  0  0
  180.7580  173.3630  134.3470 C   0  0  0  0  0  2  0  0  0  0  0  0
  182.2850  174.4420  137.7240 C   0  0  1  0  0  3  0  0  0  0  0  0
  186.6350  177.8230  136.8360 C   0  0  2  0  0  3  0  0  0  0  0  0
  186.6600  175.8290  135.2470 C   0  0  0  0  0  1  0  0  0  0  0  0
  186.0800  177.2030  135.5470 C   0  0  0  0  0  3  0  0  0  0  0  0
  186.2910  178.1250  134.3620 C   0  0  0  0  0  1  0  0  0  0  0  0
  187.8800  177.1230  137.3880 C   0  0  0  0  0  2  0  0  0  0  0  0
  189.1370  177.9250  137.1010 C   0  0  0  0  0  2  0  0  0  0  0  0
  190.3390  177.2730  137.7640 C   0  0  0  0  0  2  0  0  0  0  0  0
  190.9900  176.2800  136.8190 C   0  0  0  0  0  2  0  0  0  0  0  0
  191.1230  173.9370  137.4230 N   0  0  0  0  0  1  0  0  0  0  0  0
  191.7570  175.2300  137.6000 C   0  0  0  0  0  2  0  0  0  0  0  0
  1 15  1  0  0  0  0
  2  4  1  0  0  0  0
  2  5  1  1  0  0  0
  3  5  1  6  0  0  0
  3 14  1  0  0  0  0
  4 13  1  0  0  0  0
  4 17  1  1  0  0  0
  6  3  1  0  0  0  0
  7 16  1  6  0  0  0
  7 11  1  0  0  0  0
  8 15  1  0  0  0  0
  9  2  1  0  0  0  0
  9 10  1  0  0  0  0
 10  6  2  0  0  0  0
 11 16  1  1  0  0  0
 11  8  1  0  0  0  0
 12  9  2  0  0  0  0
 13 28  1  6  0  0  0
 13  7  1  0  0  0  0
 14  1  1  0  0  0  0
 19 18  1  0  0  0  0
 19 17  1  0  0  0  0
 21 20  1  6  0  0  0
 21 22  1  0  0  0  0
 21 27  1  0  0  0  0
 22 25  1  1  0  0  0
 22 27  1  0  0  0  0
 23 25  2  0  0  0  0
 24 23  1  0  0  0  0
 26 24  1  0  0  0  0
 26 20  1  0  0  0  0
 27 19  1  6  0  0  0
 28 32  1  1  0  0  0
 29 30  1  0  0  0  0
 30 28  1  0  0  0  0
 31 30  1  0  0  0  0
 33 32  1  0  0  0  0
 33 34  1  0  0  0  0
 35 37  1  0  0  0  0
 35 34  1  0  0  0  0
 36 37  1  0  0  0  0
M  END
>  <MODEL>
7

>  <REMARK>
 VINA RESULT:      -4.1      3.090      5.288
  Name = 
  10 active torsions:
  status: ('A' for Active; 'I' for Inactive)
    1  A    between atoms: C_1  and  C_5
    2  A    between atoms: C_1  and  C_23
    3  A    between atoms: C_5  and  C_17
    4  A    between atoms: C_10  and  C_14
    5  A    between atoms: C_14  and  N_31
    6  A    between atoms: C_17  and  C_26
    7  A    between atoms: C_26  and  C_33
    8  A    between atoms: C_27  and  C_33
    9  A    between atoms: C_29  and  C_33
   10  A    between atoms: N_31  and  C_37
                            x       y       z     vdW  Elec       q    Type
                         _______ _______ _______ _____ _____    ______ ____

>  <TORSDO>
F 10

$$$$
=
 OpenBabel10272414543D

 37 41  0  0  1  0  0  0  0  0999 V2000
  185.9280  178.8980  141.2460 C   0  0  0  0  0  2  0  0  0  0  0  0
  185.2180  177.9810  137.0010 C   0  0  2  0  0  3  0  0  0  0  0  0
  184.5120  177.8860  139.4120 C   0  0  2  0  0  3  0  0  0  0  0  0
  186.3040  176.8880  136.9510 C   0  0  1  0  0  3  0  0  0  0  0  0
  185.1790  178.7440  138.3340 C   0  0  0  0  0  2  0  0  0  0  0  0
  183.1240  177.4890  138.9940 C   0  0  0  0  0  3  0  0  0  0  0  0
  188.3930  177.2070  138.4480 C   0  0  1  0  0  3  0  0  0  0  0  0
  188.2210  177.9880  140.8000 C   0  0  0  0  0  2  0  0  0  0  0  0
  183.8490  177.4480  136.6540 C   0  0  0  0  0  0  0  0  0  0  0  0
  182.8350  177.2530  137.7090 C   0  0  0  0  0  3  0  0  0  0  0  0
  188.2030  178.4180  139.3400 C   0  0  1  0  0  3  0  0  0  0  0  0
  183.5400  177.1840  135.3930 C   0  0  0  0  0  2  0  0  0  0  0  0
  187.7230  177.4880  137.0980 C   0  0  1  0  0  3  0  0  0  0  0  0
  184.5130  178.5560  140.7820 C   0  0  0  0  0  2  0  0  0  0  0  0
  186.8140  177.6590  141.2830 C   0  0  0  0  0  2  0  0  0  0  0  0
  189.5470  178.1610  138.7000 C   0  0  0  0  0  2  0  0  0  0  0  0
  186.0070  175.6980  137.8740 C   0  0  0  0  0  2  0  0  0  0  0  0
  186.9470  173.6370  137.3540 C   0  0  0  0  0  1  0  0  0  0  0  0
  185.7970  174.4880  137.0970 N   0  0  0  0  0  0  0  0  0  0  0  0
  183.6570  173.7570  135.1260 C   0  0  0  0  0  2  0  0  0  0  0  0
  183.5180  173.7140  136.6310 C   0  0  1  0  0  3  0  0  0  0  0  0
  184.3880  172.5070  136.9410 C   0  0  2  0  0  3  0  0  0  0  0  0
  182.5870  170.9860  136.3770 C   0  0  0  0  0  3  0  0  0  0  0  0
  182.7780  171.3290  134.9040 C   0  0  0  0  0  2  0  0  0  0  0  0
  183.3520  171.5210  137.3520 C   0  0  0  0  0  3  0  0  0  0  0  0
  182.5750  172.8220  134.5510 C   0  0  0  0  0  2  0  0  0  0  0  0
  184.6340  173.8130  137.6610 C   0  0  1  0  0  3  0  0  0  0  0  0
  188.6500  177.1770  135.9160 C   0  0  2  0  0  3  0  0  0  0  0  0
  186.9990  178.4370  134.4360 C   0  0  0  0  0  1  0  0  0  0  0  0
  187.9050  177.2230  134.5740 C   0  0  0  0  0  3  0  0  0  0  0  0
  187.1090  175.9530  134.3470 C   0  0  0  0  0  1  0  0  0  0  0  0
  189.4990  175.9180  136.1220 C   0  0  0  0  0  2  0  0  0  0  0  0
  190.8260  176.0230  135.3920 C   0  0  0  0  0  2  0  0  0  0  0  0
  191.9230  175.3490  136.1990 C   0  0  0  0  0  2  0  0  0  0  0  0
  191.8240  175.7440  137.6610 C   0  0  0  0  0  2  0  0  0  0  0  0
  194.2300  175.5110  137.8340 N   0  0  0  0  0  1  0  0  0  0  0  0
  193.1150  176.3930  138.1230 C   0  0  0  0  0  2  0  0  0  0  0  0
  1 15  1  0  0  0  0
  2  5  1  1  0  0  0
  3  5  1  6  0  0  0
  3 14  1  0  0  0  0
  4  2  1  0  0  0  0
  4 13  1  0  0  0  0
  4 17  1  1  0  0  0
  6  3  1  0  0  0  0
  7 16  1  6  0  0  0
  7 11  1  0  0  0  0
  8 15  1  0  0  0  0
  9  2  1  0  0  0  0
  9 10  1  0  0  0  0
 10  6  2  0  0  0  0
 11 16  1  1  0  0  0
 11  8  1  0  0  0  0
 12  9  2  0  0  0  0
 13 28  1  6  0  0  0
 13  7  1  0  0  0  0
 14  1  1  0  0  0  0
 19 18  1  0  0  0  0
 19 17  1  0  0  0  0
 21 20  1  6  0  0  0
 21 22  1  0  0  0  0
 21 27  1  0  0  0  0
 22 25  1  1  0  0  0
 22 27  1  0  0  0  0
 23 25  2  0  0  0  0
 24 23  1  0  0  0  0
 26 24  1  0  0  0  0
 26 20  1  0  0  0  0
 27 19  1  6  0  0  0
 28 32  1  1  0  0  0
 29 30  1  0  0  0  0
 30 28  1  0  0  0  0
 31 30  1  0  0  0  0
 33 32  1  0  0  0  0
 33 34  1  0  0  0  0
 34 35  1  0  0  0  0
 35 37  1  0  0  0  0
 36 37  1  0  0  0  0
M  END
>  <MODEL>
8

>  <REMARK>
 VINA RESULT:      -3.9      1.940      3.368
  Name = 
  10 active torsions:
  status: ('A' for Active; 'I' for Inactive)
    1  A    between atoms: C_1  and  C_5
    2  A    between atoms: C_1  and  C_23
    3  A    between atoms: C_5  and  C_17
    4  A    between atoms: C_10  and  C_14
    5  A    between atoms: C_14  and  N_31
    6  A    between atoms: C_17  and  C_26
    7  A    between atoms: C_26  and  C_33
    8  A    between atoms: C_27  and  C_33
    9  A    between atoms: C_29  and  C_33
   10  A    between atoms: N_31  and  C_37
                            x       y       z     vdW  Elec       q    Type
                         _______ _______ _______ _____ _____    ______ ____

>  <TORSDO>
F 10

$$$$
=
 OpenBabel10272414543D

 37 41  0  0  1  0  0  0  0  0999 V2000
  183.0030  179.1730  141.4850 C   0  0  0  0  0  2  0  0  0  0  0  0
  182.8710  178.1440  137.2080 C   0  0  2  0  0  3  0  0  0  0  0  0
  181.8520  178.1000  139.5060 C   0  0  2  0  0  3  0  0  0  0  0  0
  183.9640  177.0630  137.3300 C   0  0  1  0  0  3  0  0  0  0  0  0
  182.6500  178.9390  138.5040 C   0  0  0  0  0  2  0  0  0  0  0  0
  180.5350  177.6760  138.9180 C   0  0  0  0  0  3  0  0  0  0  0  0
  185.8320  177.4430  139.0820 C   0  0  1  0  0  3  0  0  0  0  0  0
  185.3430  178.2790  141.3700 C   0  0  0  0  0  2  0  0  0  0  0  0
  181.5650  177.5870  136.6970 C   0  0  0  0  0  0  0  0  0  0  0  0
  180.4210  177.4060  137.6120 C   0  0  0  0  0  3  0  0  0  0  0  0
  185.5150  178.6730  139.9110 C   0  0  1  0  0  3  0  0  0  0  0  0
  181.4280  177.2880  135.4130 C   0  0  0  0  0  2  0  0  0  0  0  0
  185.3450  177.6830  137.6490 C   0  0  1  0  0  3  0  0  0  0  0  0
  181.6650  178.8030  140.8460 C   0  0  0  0  0  2  0  0  0  0  0  0
  183.8870  177.9450  141.6710 C   0  0  0  0  0  2  0  0  0  0  0  0
  186.9350  178.4170  139.4610 C   0  0  0  0  0  2  0  0  0  0  0  0
  183.5560  175.8930  138.2360 C   0  0  0  0  0  2  0  0  0  0  0  0
  183.3290  175.0850  136.0690 C   0  0  0  0  0  1  0  0  0  0  0  0
  183.4080  174.6730  137.4600 N   0  0  0  0  0  0  0  0  0  0  0  0
  183.2140  171.7510  136.8080 C   0  0  0  0  0  2  0  0  0  0  0  0
  184.3810  172.4230  137.4960 C   0  0  1  0  0  3  0  0  0  0  0  0
  184.9720  173.1900  136.3260 C   0  0  2  0  0  3  0  0  0  0  0  0
  186.1240  171.2110  135.5310 C   0  0  0  0  0  3  0  0  0  0  0  0
  184.7880  170.6320  135.0790 C   0  0  0  0  0  2  0  0  0  0  0  0
  186.2310  172.4270  136.1060 C   0  0  0  0  0  3  0  0  0  0  0  0
  183.7480  170.4360  136.2070 C   0  0  0  0  0  2  0  0  0  0  0  0
  184.6460  173.9180  137.6100 C   0  0  1  0  0  3  0  0  0  0  0  0
  186.4240  177.3540  136.6090 C   0  0  2  0  0  3  0  0  0  0  0  0
  185.9040  176.0580  134.4750 C   0  0  0  0  0  1  0  0  0  0  0  0
  185.8750  177.4070  135.1760 C   0  0  0  0  0  3  0  0  0  0  0  0
  186.6130  178.4400  134.3470 C   0  0  0  0  0  1  0  0  0  0  0  0
  187.2160  176.0840  136.9330 C   0  0  0  0  0  2  0  0  0  0  0  0
  188.6770  176.2330  136.5510 C   0  0  0  0  0  2  0  0  0  0  0  0
  189.5670  175.8860  137.7340 C   0  0  0  0  0  2  0  0  0  0  0  0
  190.2880  177.1240  138.2350 C   0  0  0  0  0  2  0  0  0  0  0  0
  189.9400  176.9050  140.6230 N   0  0  0  0  0  1  0  0  0  0  0  0
  190.9420  176.8490  139.5750 C   0  0  0  0  0  2  0  0  0  0  0  0
  1 15  1  0  0  0  0
  2  4  1  0  0  0  0
  2  5  1  1  0  0  0
  3  5  1  6  0  0  0
  3 14  1  0  0  0  0
  4 13  1  0  0  0  0
  4 17  1  1  0  0  0
  6  3  1  0  0  0  0
  7 16  1  6  0  0  0
  7 11  1  0  0  0  0
  8 15  1  0  0  0  0
  9  2  1  0  0  0  0
  9 10  1  0  0  0  0
 10  6  2  0  0  0  0
 11 16  1  1  0  0  0
 11  8  1  0  0  0  0
 12  9  2  0  0  0  0
 13 28  1  6  0  0  0
 13  7  1  0  0  0  0
 14  1  1  0  0  0  0
 18 19  1  0  0  0  0
 19 17  1  0  0  0  0
 21 20  1  6  0  0  0
 21 27  1  0  0  0  0
 22 25  1  1  0  0  0
 22 21  1  0  0  0  0
 22 27  1  0  0  0  0
 23 25  2  0  0  0  0
 24 23  1  0  0  0  0
 24 26  1  0  0  0  0
 26 20  1  0  0  0  0
 27 19  1  6  0  0  0
 28 32  1  1  0  0  0
 29 30  1  0  0  0  0
 30 28  1  0  0  0  0
 31 30  1  0  0  0  0
 33 32  1  0  0  0  0
 33 34  1  0  0  0  0
 34 35  1  0  0  0  0
 35 37  1  0  0  0  0
 37 36  1  0  0  0  0
M  END
>  <MODEL>
9

>  <REMARK>
 VINA RESULT:      -3.7      3.206      5.497
  Name = 
  10 active torsions:
  status: ('A' for Active; 'I' for Inactive)
    1  A    between atoms: C_1  and  C_5
    2  A    between atoms: C_1  and  C_23
    3  A    between atoms: C_5  and  C_17
    4  A    between atoms: C_10  and  C_14
    5  A    between atoms: C_14  and  N_31
    6  A    between atoms: C_17  and  C_26
    7  A    between atoms: C_26  and  C_33
    8  A    between atoms: C_27  and  C_33
    9  A    between atoms: C_29  and  C_33
   10  A    between atoms: N_31  and  C_37
                            x       y       z     vdW  Elec       q    Type
                         _______ _______ _______ _____ _____    ______ ____

>  <TORSDO>
F 10

$$$$
