=
 OpenBabel10272401543D

 28 32  0  0  1  0  0  0  0  0999 V2000
  187.4290  178.2980  140.9260 N   0  0  0  0  0  0  0  0  0  0  0  0
  190.3700  177.2820  145.0340 C   0  0  0  0  0  3  0  0  0  0  0  0
  184.5410  178.7250  144.6900 O   0  0  0  0  0  0  0  0  0  0  0  0
  188.6890  177.1280  146.8750 C   0  0  0  0  0  0  0  0  0  0  0  0
  187.9200  177.5770  144.5130 C   0  0  0  0  0  0  0  0  0  0  0  0
  191.0540  176.9100  147.3650 C   0  0  0  0  0  0  0  0  0  0  0  0
  188.9510  176.9300  145.3970 C   0  0  1  0  0  3  0  0  0  0  0  0
  186.4460  177.7930  146.4330 O   0  0  0  0  0  0  0  0  0  0  0  0
  189.7950  176.9040  147.8160 C   0  0  0  0  0  3  0  0  0  0  0  0
  185.9180  178.5410  142.8390 C   0  0  0  0  0  0  0  0  0  0  0  0
  188.1330  177.6930  143.1740 N   0  0  0  0  0  2  0  0  0  0  0  0
  187.4800  177.4710  147.3230 C   0  0  0  0  0  3  0  0  0  0  0  0
  185.1350  179.1550  140.6060 C   0  0  0  0  0  3  0  0  0  0  0  0
  185.6650  178.4090  144.2130 C   0  0  0  0  0  0  0  0  0  0  0  0
  184.8860  179.0490  141.9120 C   0  0  0  0  0  3  0  0  0  0  0  0
  192.0770  176.7240  148.2330 F   0  0  0  0  0  0  0  0  0  0  0  0
  191.3480  177.2220  145.9470 C   0  0  0  0  0  3  0  0  0  0  0  0
  186.6700  177.9230  145.0560 C   0  0  0  0  0  0  0  0  0  0  0  0
  186.4130  178.7760  140.0790 N   0  0  0  0  0  2  0  0  0  0  0  0
  187.1760  178.1750  142.3340 C   0  0  0  0  0  0  0  0  0  0  0  0
  188.6960  177.8760  140.3460 C   0  0  0  0  0  2  0  0  0  0  0  0
  188.5700  177.7510  138.8660 C   0  0  0  0  0  0  0  0  0  0  0  0
  188.3870  177.5000  136.0860 C   0  0  0  0  0  0  0  0  0  0  0  0
  188.0780  176.5700  138.3010 C   0  0  0  0  0  3  0  0  0  0  0  0
  188.9790  178.8030  138.0380 C   0  0  0  0  0  3  0  0  0  0  0  0
  188.8850  178.6780  136.6490 C   0  0  0  0  0  3  0  0  0  0  0  0
  188.2710  177.3440  134.3460 Cl  0  0  0  0  0  0  0  0  0  0  0  0
  187.9850  176.4450  136.9110 C   0  0  0  0  0  3  0  0  0  0  0  0
  1 20  1  0  0  0  0
  2 17  2  0  0  0  0
  4 12  2  0  0  0  0
  4  9  1  0  0  0  0
  5 18  2  0  0  0  0
  5  7  1  0  0  0  0
  6  9  2  0  0  0  0
  6 16  1  0  0  0  0
  7  2  1  6  0  0  0
  7  4  1  0  0  0  0
  8 12  1  0  0  0  0
 10 14  1  0  0  0  0
 11  5  1  0  0  0  0
 13 15  2  0  0  0  0
 14  3  2  0  0  0  0
 14 18  1  0  0  0  0
 15 10  1  0  0  0  0
 17  6  1  0  0  0  0
 18  8  1  0  0  0  0
 19 13  1  0  0  0  0
 19  1  1  0  0  0  0
 20 10  2  0  0  0  0
 20 11  1  0  0  0  0
 21  1  1  0  0  0  0
 22 21  1  0  0  0  0
 23 26  2  0  0  0  0
 23 28  1  0  0  0  0
 24 22  1  0  0  0  0
 25 22  2  0  0  0  0
 26 25  1  0  0  0  0
 27 23  1  0  0  0  0
 28 24  2  0  0  0  0
M  END
>  <MODEL>
1

>  <REMARK>
 VINA RESULT:      -9.9      0.000      0.000
  Name = 
  2 active torsions:
  status: ('A' for Active; 'I' for Inactive)
    1  A    between atoms: N_1  and  C_2
    2  A    between atoms: C_2  and  C_3
                            x       y       z     vdW  Elec       q    Type
                         _______ _______ _______ _____ _____    ______ ____

>  <TORSDO>
F 2

$$$$
=
 OpenBabel10272401543D

 28 32  0  0  1  0  0  0  0  0999 V2000
  186.8100  178.4150  140.4320 N   0  0  0  0  0  0  0  0  0  0  0  0
  188.7050  177.9620  145.2040 C   0  0  0  0  0  3  0  0  0  0  0  0
  183.1040  179.1190  143.3410 O   0  0  0  0  0  0  0  0  0  0  0  0
  186.6370  177.9340  146.6040 C   0  0  0  0  0  0  0  0  0  0  0  0
  186.4450  178.0990  144.0920 C   0  0  0  0  0  0  0  0  0  0  0  0
  188.8200  177.8670  147.6570 C   0  0  0  0  0  0  0  0  0  0  0  0
  187.2460  177.5920  145.2610 C   0  0  1  0  0  3  0  0  0  0  0  0
  184.5540  178.4560  145.5760 O   0  0  0  0  0  0  0  0  0  0  0  0
  187.4910  177.8570  147.7970 C   0  0  0  0  0  3  0  0  0  0  0  0
  184.8840  178.7960  141.8970 C   0  0  0  0  0  0  0  0  0  0  0  0
  186.9690  178.0810  142.8370 N   0  0  0  0  0  2  0  0  0  0  0  0
  185.3510  178.2730  146.7140 C   0  0  0  0  0  3  0  0  0  0  0  0
  184.6460  179.1380  139.4880 C   0  0  0  0  0  3  0  0  0  0  0  0
  184.3140  178.8000  143.1800 C   0  0  0  0  0  0  0  0  0  0  0  0
  184.0950  179.1600  140.7030 C   0  0  0  0  0  3  0  0  0  0  0  0
  189.6110  177.8160  148.7560 F   0  0  0  0  0  0  0  0  0  0  0  0
  189.4380  178.0390  146.3210 C   0  0  0  0  0  3  0  0  0  0  0  0
  185.0970  178.4480  144.2840 C   0  0  0  0  0  0  0  0  0  0  0  0
  186.0180  178.7590  139.3230 N   0  0  0  0  0  2  0  0  0  0  0  0
  186.2310  178.4310  141.7470 C   0  0  0  0  0  0  0  0  0  0  0  0
  188.1850  177.9860  140.2180 C   0  0  0  0  0  2  0  0  0  0  0  0
  188.4400  177.7800  138.7640 C   0  0  0  0  0  0  0  0  0  0  0  0
  188.9710  177.3790  136.0460 C   0  0  0  0  0  0  0  0  0  0  0  0
  188.1700  176.5410  138.1730 C   0  0  0  0  0  3  0  0  0  0  0  0
  188.9850  178.8150  137.9950 C   0  0  0  0  0  3  0  0  0  0  0  0
  189.2480  178.6150  136.6370 C   0  0  0  0  0  3  0  0  0  0  0  0
  189.3030  177.1290  134.3460 Cl  0  0  0  0  0  0  0  0  0  0  0  0
  188.4340  176.3410  136.8140 C   0  0  0  0  0  3  0  0  0  0  0  0
  1 20  1  0  0  0  0
  2 17  2  0  0  0  0
  4 12  2  0  0  0  0
  4  9  1  0  0  0  0
  5 18  2  0  0  0  0
  5  7  1  0  0  0  0
  6  9  2  0  0  0  0
  6 16  1  0  0  0  0
  7  2  1  1  0  0  0
  7  4  1  0  0  0  0
  8 12  1  0  0  0  0
 10 14  1  0  0  0  0
 11  5  1  0  0  0  0
 13 15  2  0  0  0  0
 14  3  2  0  0  0  0
 14 18  1  0  0  0  0
 15 10  1  0  0  0  0
 17  6  1  0  0  0  0
 18  8  1  0  0  0  0
 19 13  1  0  0  0  0
 19  1  1  0  0  0  0
 20 10  2  0  0  0  0
 20 11  1  0  0  0  0
 21  1  1  0  0  0  0
 22 21  1  0  0  0  0
 23 26  2  0  0  0  0
 23 28  1  0  0  0  0
 24 22  1  0  0  0  0
 25 22  2  0  0  0  0
 26 25  1  0  0  0  0
 27 23  1  0  0  0  0
 28 24  2  0  0  0  0
M  END
>  <MODEL>
2

>  <REMARK>
 VINA RESULT:      -9.9      1.206      1.595
  Name = 
  2 active torsions:
  status: ('A' for Active; 'I' for Inactive)
    1  A    between atoms: N_1  and  C_2
    2  A    between atoms: C_2  and  C_3
                            x       y       z     vdW  Elec       q    Type
                         _______ _______ _______ _____ _____    ______ ____

>  <TORSDO>
F 2

$$$$
=
 OpenBabel10272401543D

 28 32  0  0  1  0  0  0  0  0999 V2000
  186.6080  178.5680  140.4030 N   0  0  0  0  0  0  0  0  0  0  0  0
  187.2680  177.8480  145.4630 C   0  0  0  0  0  3  0  0  0  0  0  0
  190.9760  176.7260  140.8620 O   0  0  0  0  0  0  0  0  0  0  0  0
  189.6970  177.2840  145.6140 C   0  0  0  0  0  0  0  0  0  0  0  0
  188.6720  177.8110  143.3680 C   0  0  0  0  0  0  0  0  0  0  0  0
  188.3160  177.2630  147.6070 C   0  0  0  0  0  0  0  0  0  0  0  0
  188.6320  178.0450  144.8540 C   0  0  1  0  0  3  0  0  0  0  0  0
  190.9020  176.8730  143.6020 O   0  0  0  0  0  0  0  0  0  0  0  0
  189.5270  177.1060  147.0630 C   0  0  0  0  0  3  0  0  0  0  0  0
  188.8530  177.6090  140.5990 C   0  0  0  0  0  0  0  0  0  0  0  0
  187.6490  178.2300  142.5750 N   0  0  0  0  0  2  0  0  0  0  0  0
  190.7790  176.8060  144.9970 C   0  0  0  0  0  3  0  0  0  0  0  0
  187.8770  177.9340  138.3810 C   0  0  0  0  0  3  0  0  0  0  0  0
  189.9320  177.1920  141.3940 C   0  0  0  0  0  0  0  0  0  0  0  0
  188.9030  177.5200  139.1260 C   0  0  0  0  0  3  0  0  0  0  0  0
  188.1520  177.0800  148.9400 F   0  0  0  0  0  0  0  0  0  0  0  0
  187.1330  177.5320  146.7570 C   0  0  0  0  0  3  0  0  0  0  0  0
  189.8430  177.2940  142.7870 C   0  0  0  0  0  0  0  0  0  0  0  0
  186.7040  178.4740  139.0030 N   0  0  0  0  0  2  0  0  0  0  0  0
  187.7060  178.1300  141.2180 C   0  0  0  0  0  0  0  0  0  0  0  0
  185.4210  179.1700  140.9940 C   0  0  0  0  0  2  0  0  0  0  0  0
  184.2070  178.7820  140.2220 C   0  0  0  0  0  0  0  0  0  0  0  0
  181.8950  178.0760  138.8130 C   0  0  0  0  0  0  0  0  0  0  0  0
  183.7040  179.6310  139.2300 C   0  0  0  0  0  3  0  0  0  0  0  0
  183.5450  177.5840  140.5150 C   0  0  0  0  0  3  0  0  0  0  0  0
  182.3910  177.2300  139.8090 C   0  0  0  0  0  3  0  0  0  0  0  0
  180.4490  177.6330  137.9310 Cl  0  0  0  0  0  0  0  0  0  0  0  0
  182.5500  179.2770  138.5250 C   0  0  0  0  0  3  0  0  0  0  0  0
  1 21  1  0  0  0  0
  1 20  1  0  0  0  0
  2 17  2  0  0  0  0
  3 14  2  0  0  0  0
  4  9  1  0  0  0  0
  5  7  1  0  0  0  0
  6 16  1  0  0  0  0
  7  2  1  1  0  0  0
  7  4  1  0  0  0  0
  8 12  1  0  0  0  0
  9  6  2  0  0  0  0
 10 20  2  0  0  0  0
 10 14  1  0  0  0  0
 11  5  1  0  0  0  0
 12  4  2  0  0  0  0
 13 19  1  0  0  0  0
 13 15  2  0  0  0  0
 14 18  1  0  0  0  0
 15 10  1  0  0  0  0
 17  6  1  0  0  0  0
 18  5  2  0  0  0  0
 18  8  1  0  0  0  0
 19  1  1  0  0  0  0
 20 11  1  0  0  0  0
 22 25  1  0  0  0  0
 22 21  1  0  0  0  0
 23 26  1  0  0  0  0
 24 22  2  0  0  0  0
 26 25  2  0  0  0  0
 27 23  1  0  0  0  0
 28 23  2  0  0  0  0
 28 24  1  0  0  0  0
M  END
>  <MODEL>
3

>  <REMARK>
 VINA RESULT:      -9.8      2.925      4.579
  Name = 
  2 active torsions:
  status: ('A' for Active; 'I' for Inactive)
    1  A    between atoms: N_1  and  C_2
    2  A    between atoms: C_2  and  C_3
                            x       y       z     vdW  Elec       q    Type
                         _______ _______ _______ _____ _____    ______ ____

>  <TORSDO>
F 2

$$$$
=
 OpenBabel10272401543D

 28 32  0  0  1  0  0  0  0  0999 V2000
  189.8880  177.0550  142.4620 N   0  0  0  0  0  0  0  0  0  0  0  0
  184.9140  178.3100  142.9630 C   0  0  0  0  0  3  0  0  0  0  0  0
  189.0430  177.0460  147.1500 O   0  0  0  0  0  0  0  0  0  0  0  0
  184.6970  178.6770  145.4240 C   0  0  0  0  0  0  0  0  0  0  0  0
  186.9400  178.0570  144.4450 C   0  0  0  0  0  0  0  0  0  0  0  0
  182.7490  178.8530  143.9900 C   0  0  0  0  0  0  0  0  0  0  0  0
  185.6170  178.7400  144.2240 C   0  0  1  0  0  3  0  0  0  0  0  0
  186.5090  178.0550  146.8370 O   0  0  0  0  0  0  0  0  0  0  0  0
  183.2660  178.9410  145.2200 C   0  0  0  0  0  3  0  0  0  0  0  0
  189.4870  177.0260  144.8790 C   0  0  0  0  0  0  0  0  0  0  0  0
  187.7780  177.8220  143.4000 N   0  0  0  0  0  2  0  0  0  0  0  0
  185.1690  178.4150  146.6450 C   0  0  0  0  0  3  0  0  0  0  0  0
  191.6380  176.2540  144.0100 C   0  0  0  0  0  3  0  0  0  0  0  0
  188.6490  177.2820  145.9760 C   0  0  0  0  0  0  0  0  0  0  0  0
  190.8460  176.4790  145.0600 C   0  0  0  0  0  3  0  0  0  0  0  0
  181.4260  179.0760  143.8020 F   0  0  0  0  0  0  0  0  0  0  0  0
  183.5840  178.4140  142.8490 C   0  0  0  0  0  3  0  0  0  0  0  0
  187.3680  177.8020  145.7590 C   0  0  0  0  0  0  0  0  0  0  0  0
  191.1790  176.5430  142.6840 N   0  0  0  0  0  2  0  0  0  0  0  0
  189.0250  177.3050  143.5830 C   0  0  0  0  0  0  0  0  0  0  0  0
  189.4770  177.3840  141.1040 C   0  0  0  0  0  2  0  0  0  0  0  0
  190.5700  177.0620  140.1430 C   0  0  0  0  0  0  0  0  0  0  0  0
  192.6050  176.5020  138.3070 C   0  0  0  0  0  0  0  0  0  0  0  0
  191.8570  177.5710  140.3480 C   0  0  0  0  0  3  0  0  0  0  0  0
  190.3000  176.2800  139.0140 C   0  0  0  0  0  3  0  0  0  0  0  0
  191.3180  175.9990  138.0980 C   0  0  0  0  0  3  0  0  0  0  0  0
  193.8790  176.1500  137.1590 Cl  0  0  0  0  0  0  0  0  0  0  0  0
  192.8750  177.2890  139.4310 C   0  0  0  0  0  3  0  0  0  0  0  0
  1 19  1  0  0  0  0
  1 20  1  0  0  0  0
  4 12  2  0  0  0  0
  5 18  2  0  0  0  0
  6  9  2  0  0  0  0
  7  2  1  6  0  0  0
  7  5  1  0  0  0  0
  7  4  1  0  0  0  0
  9  4  1  0  0  0  0
 10 15  1  0  0  0  0
 10 14  1  0  0  0  0
 11 20  1  0  0  0  0
 11  5  1  0  0  0  0
 12  8  1  0  0  0  0
 13 15  2  0  0  0  0
 14  3  2  0  0  0  0
 16  6  1  0  0  0  0
 17  2  2  0  0  0  0
 17  6  1  0  0  0  0
 18 14  1  0  0  0  0
 18  8  1  0  0  0  0
 19 13  1  0  0  0  0
 20 10  2  0  0  0  0
 21  1  1  0  0  0  0
 22 24  1  0  0  0  0
 22 21  1  0  0  0  0
 23 28  1  0  0  0  0
 25 22  2  0  0  0  0
 26 23  2  0  0  0  0
 26 25  1  0  0  0  0
 27 23  1  0  0  0  0
 28 24  2  0  0  0  0
M  END
>  <MODEL>
4

>  <REMARK>
 VINA RESULT:      -9.7      3.316      5.349
  Name = 
  2 active torsions:
  status: ('A' for Active; 'I' for Inactive)
    1  A    between atoms: N_1  and  C_2
    2  A    between atoms: C_2  and  C_3
                            x       y       z     vdW  Elec       q    Type
                         _______ _______ _______ _____ _____    ______ ____

>  <TORSDO>
F 2

$$$$
=
 OpenBabel10272401543D

 28 32  0  0  1  0  0  0  0  0999 V2000
  189.0510  178.0450  139.3470 N   0  0  0  0  0  0  0  0  0  0  0  0
  184.5260  178.7640  141.7080 C   0  0  0  0  0  3  0  0  0  0  0  0
  189.8020  176.8940  143.9080 O   0  0  0  0  0  0  0  0  0  0  0  0
  185.1360  178.5380  144.1200 C   0  0  0  0  0  0  0  0  0  0  0  0
  186.9270  178.3350  142.3530 C   0  0  0  0  0  0  0  0  0  0  0  0
  182.8240  178.8880  143.4760 C   0  0  0  0  0  0  0  0  0  0  0  0
  185.6080  178.9460  142.7410 C   0  0  1  0  0  3  0  0  0  0  0  0
  187.3110  177.7490  144.6800 O   0  0  0  0  0  0  0  0  0  0  0  0
  183.7180  178.7300  144.4570 C   0  0  0  0  0  3  0  0  0  0  0  0
  189.4710  177.4310  141.6810 C   0  0  0  0  0  0  0  0  0  0  0  0
  187.3720  178.4110  141.0700 N   0  0  0  0  0  2  0  0  0  0  0  0
  185.9830  178.0390  145.0220 C   0  0  0  0  0  3  0  0  0  0  0  0
  191.2110  177.0470  140.0080 C   0  0  0  0  0  3  0  0  0  0  0  0
  189.0430  177.3630  143.0170 C   0  0  0  0  0  0  0  0  0  0  0  0
  190.8120  176.9630  141.2770 C   0  0  0  0  0  3  0  0  0  0  0  0
  181.5140  179.0460  143.7830 F   0  0  0  0  0  0  0  0  0  0  0  0
  183.2340  178.7880  142.0560 C   0  0  0  0  0  3  0  0  0  0  0  0
  187.7650  177.8180  143.3560 C   0  0  0  0  0  0  0  0  0  0  0  0
  190.3410  177.5970  139.0110 N   0  0  0  0  0  2  0  0  0  0  0  0
  188.6070  177.9640  140.7110 C   0  0  0  0  0  0  0  0  0  0  0  0
  188.2160  178.6440  138.3160 C   0  0  0  0  0  2  0  0  0  0  0  0
  187.1850  177.6700  137.8560 C   0  0  0  0  0  0  0  0  0  0  0  0
  185.2540  175.8640  136.9420 C   0  0  0  0  0  0  0  0  0  0  0  0
  187.5690  176.4000  137.4110 C   0  0  0  0  0  3  0  0  0  0  0  0
  185.8350  178.0380  137.8340 C   0  0  0  0  0  3  0  0  0  0  0  0
  184.8700  177.1350  137.3790 C   0  0  0  0  0  3  0  0  0  0  0  0
  184.0450  174.7340  136.3720 Cl  0  0  0  0  0  0  0  0  0  0  0  0
  186.6030  175.4970  136.9560 C   0  0  0  0  0  3  0  0  0  0  0  0
  1 20  1  0  0  0  0
  2 17  2  0  0  0  0
  4  9  1  0  0  0  0
  4 12  2  0  0  0  0
  5  7  1  0  0  0  0
  5 18  2  0  0  0  0
  6 16  1  0  0  0  0
  6  9  2  0  0  0  0
  7  2  1  6  0  0  0
  7  4  1  0  0  0  0
  8 12  1  0  0  0  0
 10 14  1  0  0  0  0
 11  5  1  0  0  0  0
 13 15  2  0  0  0  0
 14 18  1  0  0  0  0
 14  3  2  0  0  0  0
 15 10  1  0  0  0  0
 17  6  1  0  0  0  0
 18  8  1  0  0  0  0
 19  1  1  0  0  0  0
 19 13  1  0  0  0  0
 20 11  1  0  0  0  0
 20 10  2  0  0  0  0
 21  1  1  0  0  0  0
 22 21  1  0  0  0  0
 23 28  2  0  0  0  0
 23 26  1  0  0  0  0
 24 22  2  0  0  0  0
 25 22  1  0  0  0  0
 26 25  2  0  0  0  0
 27 23  1  0  0  0  0
 28 24  1  0  0  0  0
M  END
>  <MODEL>
5

>  <REMARK>
 VINA RESULT:      -9.1      3.232      5.111
  Name = 
  2 active torsions:
  status: ('A' for Active; 'I' for Inactive)
    1  A    between atoms: N_1  and  C_2
    2  A    between atoms: C_2  and  C_3
                            x       y       z     vdW  Elec       q    Type
                         _______ _______ _______ _____ _____    ______ ____

>  <TORSDO>
F 2

$$$$
=
 OpenBabel10272401543D

 28 32  0  0  1  0  0  0  0  0999 V2000
  188.8450  177.9610  138.9110 N   0  0  0  0  0  0  0  0  0  0  0  0
  184.5400  178.6740  141.6520 C   0  0  0  0  0  3  0  0  0  0  0  0
  189.9940  176.8310  143.3930 O   0  0  0  0  0  0  0  0  0  0  0  0
  185.3570  178.4590  144.0030 C   0  0  0  0  0  0  0  0  0  0  0  0
  186.9890  178.2550  142.0880 C   0  0  0  0  0  0  0  0  0  0  0  0
  182.9960  178.7990  143.5610 C   0  0  0  0  0  0  0  0  0  0  0  0
  185.7060  178.8630  142.5870 C   0  0  1  0  0  3  0  0  0  0  0  0
  187.5750  177.6810  144.3750 O   0  0  0  0  0  0  0  0  0  0  0  0
  183.9730  178.6480  144.4610 C   0  0  0  0  0  3  0  0  0  0  0  0
  189.4680  177.3570  141.2020 C   0  0  0  0  0  0  0  0  0  0  0  0
  187.3210  178.3280  140.7710 N   0  0  0  0  0  2  0  0  0  0  0  0
  186.2810  177.9670  144.8300 C   0  0  0  0  0  3  0  0  0  0  0  0
  191.0580  176.9730  139.3850 C   0  0  0  0  0  3  0  0  0  0  0  0
  189.1590  177.2930  142.5700 C   0  0  0  0  0  0  0  0  0  0  0  0
  190.7710  176.8920  140.6850 C   0  0  0  0  0  3  0  0  0  0  0  0
  181.7170  178.9530  143.9790 F   0  0  0  0  0  0  0  0  0  0  0  0
  183.2820  178.6950  142.1110 C   0  0  0  0  0  3  0  0  0  0  0  0
  187.9130  177.7450  143.0170 C   0  0  0  0  0  0  0  0  0  0  0  0
  190.1030  177.5150  138.4660 N   0  0  0  0  0  2  0  0  0  0  0  0
  188.5220  177.8830  140.3080 C   0  0  0  0  0  0  0  0  0  0  0  0
  187.9210  178.5520  137.9530 C   0  0  0  0  0  2  0  0  0  0  0  0
  186.8210  177.5980  137.6410 C   0  0  0  0  0  0  0  0  0  0  0  0
  184.7600  175.7830  137.1060 C   0  0  0  0  0  0  0  0  0  0  0  0
  185.4890  177.9610  137.8740 C   0  0  0  0  0  3  0  0  0  0  0  0
  187.1200  176.3220  137.1490 C   0  0  0  0  0  3  0  0  0  0  0  0
  186.0900  175.4160  136.8800 C   0  0  0  0  0  3  0  0  0  0  0  0
  183.4710  174.6470  136.7700 Cl  0  0  0  0  0  0  0  0  0  0  0  0
  184.4600  177.0540  137.6050 C   0  0  0  0  0  3  0  0  0  0  0  0
  1 20  1  0  0  0  0
  2 17  2  0  0  0  0
  4  9  1  0  0  0  0
  4 12  2  0  0  0  0
  5  7  1  0  0  0  0
  5 18  2  0  0  0  0
  6 16  1  0  0  0  0
  6  9  2  0  0  0  0
  7  2  1  6  0  0  0
  7  4  1  0  0  0  0
  8 12  1  0  0  0  0
 10 14  1  0  0  0  0
 11  5  1  0  0  0  0
 13 15  2  0  0  0  0
 14 18  1  0  0  0  0
 14  3  2  0  0  0  0
 15 10  1  0  0  0  0
 17  6  1  0  0  0  0
 18  8  1  0  0  0  0
 19  1  1  0  0  0  0
 19 13  1  0  0  0  0
 20 11  1  0  0  0  0
 20 10  2  0  0  0  0
 21  1  1  0  0  0  0
 22 24  1  0  0  0  0
 22 21  1  0  0  0  0
 23 28  1  0  0  0  0
 25 22  2  0  0  0  0
 26 23  2  0  0  0  0
 26 25  1  0  0  0  0
 27 23  1  0  0  0  0
 28 24  2  0  0  0  0
M  END
>  <MODEL>
6

>  <REMARK>
 VINA RESULT:      -9.1      3.315      5.220
  Name = 
  2 active torsions:
  status: ('A' for Active; 'I' for Inactive)
    1  A    between atoms: N_1  and  C_2
    2  A    between atoms: C_2  and  C_3
                            x       y       z     vdW  Elec       q    Type
                         _______ _______ _______ _____ _____    ______ ____

>  <TORSDO>
F 2

$$$$
=
 OpenBabel10272401543D

 28 32  0  0  1  0  0  0  0  0999 V2000
  189.0590  177.8310  140.3860 N   0  0  0  0  0  0  0  0  0  0  0  0
  184.2980  178.6920  142.1590 C   0  0  0  0  0  3  0  0  0  0  0  0
  189.2670  176.9440  145.0620 O   0  0  0  0  0  0  0  0  0  0  0  0
  184.6210  178.6040  144.6340 C   0  0  0  0  0  0  0  0  0  0  0  0
  186.6030  178.2970  143.1020 C   0  0  0  0  0  0  0  0  0  0  0  0
  182.4020  178.9200  143.7070 C   0  0  0  0  0  0  0  0  0  0  0  0
  185.2530  178.9310  143.2990 C   0  0  1  0  0  3  0  0  0  0  0  0
  186.7100  177.8460  145.4880 O   0  0  0  0  0  0  0  0  0  0  0  0
  183.1750  178.8180  144.7930 C   0  0  0  0  0  3  0  0  0  0  0  0
  189.2010  177.3520  142.7850 C   0  0  0  0  0  0  0  0  0  0  0  0
  187.1950  178.2980  141.8770 N   0  0  0  0  0  2  0  0  0  0  0  0
  185.3540  178.1570  145.6560 C   0  0  0  0  0  3  0  0  0  0  0  0
  191.1200  176.8700  141.3500 C   0  0  0  0  0  3  0  0  0  0  0  0
  188.6210  177.3620  144.0630 C   0  0  0  0  0  0  0  0  0  0  0  0
  190.5760  176.8600  142.5670 C   0  0  0  0  0  3  0  0  0  0  0  0
  181.0670  179.0970  143.8490 F   0  0  0  0  0  0  0  0  0  0  0  0
  182.9730  178.7380  142.3520 C   0  0  0  0  0  3  0  0  0  0  0  0
  187.3150  177.8380  144.2240 C   0  0  0  0  0  0  0  0  0  0  0  0
  190.3760  177.3620  140.2290 N   0  0  0  0  0  2  0  0  0  0  0  0
  188.4600  177.8290  141.6910 C   0  0  0  0  0  0  0  0  0  0  0  0
  188.3550  178.3710  139.2320 C   0  0  0  0  0  2  0  0  0  0  0  0
  188.5950  177.5160  138.0350 C   0  0  0  0  0  0  0  0  0  0  0  0
  188.9980  175.9290  135.7660 C   0  0  0  0  0  0  0  0  0  0  0  0
  189.3270  178.0150  136.9510 C   0  0  0  0  0  3  0  0  0  0  0  0
  188.0580  176.2250  137.9780 C   0  0  0  0  0  3  0  0  0  0  0  0
  188.2610  175.4310  136.8450 C   0  0  0  0  0  3  0  0  0  0  0  0
  189.2510  174.9350  134.3480 Cl  0  0  0  0  0  0  0  0  0  0  0  0
  189.5290  177.2210  135.8180 C   0  0  0  0  0  3  0  0  0  0  0  0
  1 20  1  0  0  0  0
  2 17  2  0  0  0  0
  4  9  1  0  0  0  0
  4 12  2  0  0  0  0
  5  7  1  0  0  0  0
  5 18  2  0  0  0  0
  6 16  1  0  0  0  0
  6  9  2  0  0  0  0
  7  2  1  6  0  0  0
  7  4  1  0  0  0  0
  8 12  1  0  0  0  0
 10 14  1  0  0  0  0
 11  5  1  0  0  0  0
 13 15  2  0  0  0  0
 14 18  1  0  0  0  0
 14  3  2  0  0  0  0
 15 10  1  0  0  0  0
 17  6  1  0  0  0  0
 18  8  1  0  0  0  0
 19  1  1  0  0  0  0
 19 13  1  0  0  0  0
 20 11  1  0  0  0  0
 20 10  2  0  0  0  0
 21  1  1  0  0  0  0
 22 21  1  0  0  0  0
 23 28  2  0  0  0  0
 23 26  1  0  0  0  0
 24 22  2  0  0  0  0
 25 22  1  0  0  0  0
 26 25  2  0  0  0  0
 27 23  1  0  0  0  0
 28 24  1  0  0  0  0
M  END
>  <MODEL>
7

>  <REMARK>
 VINA RESULT:      -9.0      2.983      4.930
  Name = 
  2 active torsions:
  status: ('A' for Active; 'I' for Inactive)
    1  A    between atoms: N_1  and  C_2
    2  A    between atoms: C_2  and  C_3
                            x       y       z     vdW  Elec       q    Type
                         _______ _______ _______ _____ _____    ______ ____

>  <TORSDO>
F 2

$$$$
=
 OpenBabel10272401543D

 28 32  0  0  1  0  0  0  0  0999 V2000
  188.1590  178.0700  140.1010 N   0  0  0  0  0  0  0  0  0  0  0  0
  190.6390  177.2790  144.5480 C   0  0  0  0  0  3  0  0  0  0  0  0
  184.8280  178.4090  143.4890 O   0  0  0  0  0  0  0  0  0  0  0  0
  188.7620  177.0680  146.1820 C   0  0  0  0  0  0  0  0  0  0  0  0
  188.2570  177.4370  143.7360 C   0  0  0  0  0  0  0  0  0  0  0  0
  191.0600  176.9830  146.9510 C   0  0  0  0  0  0  0  0  0  0  0  0
  189.2070  176.8600  144.7500 C   0  0  1  0  0  3  0  0  0  0  0  0
  186.5570  177.6080  145.4640 O   0  0  0  0  0  0  0  0  0  0  0  0
  189.7590  176.9190  147.2510 C   0  0  0  0  0  3  0  0  0  0  0  0
  186.4210  178.2660  141.8170 C   0  0  0  0  0  0  0  0  0  0  0  0
  188.6210  177.5410  142.4300 N   0  0  0  0  0  2  0  0  0  0  0  0
  187.4920  177.3550  146.4770 C   0  0  0  0  0  3  0  0  0  0  0  0
  185.8790  178.8000  139.4930 C   0  0  0  0  0  3  0  0  0  0  0  0
  186.0150  178.1440  143.1540 C   0  0  0  0  0  0  0  0  0  0  0  0
  185.4830  178.7030  140.7630 C   0  0  0  0  0  3  0  0  0  0  0  0
  191.9820  176.8650  147.9370 F   0  0  0  0  0  0  0  0  0  0  0  0
  191.5040  177.2850  145.5710 C   0  0  0  0  0  3  0  0  0  0  0  0
  186.9360  177.7260  144.1210 C   0  0  0  0  0  0  0  0  0  0  0  0
  187.2280  178.4800  139.1300 N   0  0  0  0  0  2  0  0  0  0  0  0
  187.7470  177.9570  141.4720 C   0  0  0  0  0  0  0  0  0  0  0  0
  189.5050  177.7040  139.6830 C   0  0  0  0  0  2  0  0  0  0  0  0
  189.4510  176.6520  138.6300 C   0  0  0  0  0  0  0  0  0  0  0  0
  189.3370  174.6380  136.6910 C   0  0  0  0  0  0  0  0  0  0  0  0
  188.2510  176.3930  137.9580 C   0  0  0  0  0  3  0  0  0  0  0  0
  190.5910  175.8960  138.3360 C   0  0  0  0  0  3  0  0  0  0  0  0
  190.5350  174.8910  137.3660 C   0  0  0  0  0  3  0  0  0  0  0  0
  189.2670  173.3790  135.4770 Cl  0  0  0  0  0  0  0  0  0  0  0  0
  188.1950  175.3870  136.9880 C   0  0  0  0  0  3  0  0  0  0  0  0
  1 20  1  0  0  0  0
  2 17  2  0  0  0  0
  4 12  2  0  0  0  0
  4  9  1  0  0  0  0
  5 18  2  0  0  0  0
  5  7  1  0  0  0  0
  6  9  2  0  0  0  0
  6 16  1  0  0  0  0
  7  2  1  1  0  0  0
  7  4  1  0  0  0  0
  8 12  1  0  0  0  0
 10 14  1  0  0  0  0
 11  5  1  0  0  0  0
 13 15  2  0  0  0  0
 14  3  2  0  0  0  0
 14 18  1  0  0  0  0
 15 10  1  0  0  0  0
 17  6  1  0  0  0  0
 18  8  1  0  0  0  0
 19 13  1  0  0  0  0
 19  1  1  0  0  0  0
 20 10  2  0  0  0  0
 20 11  1  0  0  0  0
 21  1  1  0  0  0  0
 22 21  1  0  0  0  0
 23 28  2  0  0  0  0
 23 26  1  0  0  0  0
 24 22  2  0  0  0  0
 25 22  1  0  0  0  0
 26 25  2  0  0  0  0
 27 23  1  0  0  0  0
 28 24  1  0  0  0  0
M  END
>  <MODEL>
8

>  <REMARK>
 VINA RESULT:      -8.7      1.450      1.680
  Name = 
  2 active torsions:
  status: ('A' for Active; 'I' for Inactive)
    1  A    between atoms: N_1  and  C_2
    2  A    between atoms: C_2  and  C_3
                            x       y       z     vdW  Elec       q    Type
                         _______ _______ _______ _____ _____    ______ ____

>  <TORSDO>
F 2

$$$$
=
 OpenBabel10272401543D

 28 32  0  0  1  0  0  0  0  0999 V2000
  186.1860  178.5880  138.9960 N   0  0  0  0  0  0  0  0  0  0  0  0
  184.9410  178.4460  143.9950 C   0  0  0  0  0  3  0  0  0  0  0  0
  190.0980  177.0470  141.2340 O   0  0  0  0  0  0  0  0  0  0  0  0
  187.1490  178.0350  145.0880 C   0  0  0  0  0  0  0  0  0  0  0  0
  187.0190  178.2640  142.5770 C   0  0  0  0  0  0  0  0  0  0  0  0
  185.1300  178.1500  146.4270 C   0  0  0  0  0  0  0  0  0  0  0  0
  186.4310  178.6520  143.9070 C   0  0  1  0  0  3  0  0  0  0  0  0
  189.0160  177.4800  143.7190 O   0  0  0  0  0  0  0  0  0  0  0  0
  186.4580  178.0030  146.3850 C   0  0  0  0  0  3  0  0  0  0  0  0
  188.2120  177.7800  140.1110 C   0  0  0  0  0  0  0  0  0  0  0  0
  186.3560  178.5400  141.4220 N   0  0  0  0  0  2  0  0  0  0  0  0
  188.3880  177.5550  144.9700 C   0  0  0  0  0  3  0  0  0  0  0  0
  188.1190  177.8140  137.6680 C   0  0  0  0  0  3  0  0  0  0  0  0
  188.9260  177.5090  141.2890 C   0  0  0  0  0  0  0  0  0  0  0  0
  188.8030  177.5380  138.7790 C   0  0  0  0  0  3  0  0  0  0  0  0
  184.4880  178.1010  147.6190 F   0  0  0  0  0  0  0  0  0  0  0  0
  184.3420  178.2630  145.1780 C   0  0  0  0  0  3  0  0  0  0  0  0
  188.3280  177.7530  142.5300 C   0  0  0  0  0  0  0  0  0  0  0  0
  186.7940  178.3520  137.7490 N   0  0  0  0  0  2  0  0  0  0  0  0
  186.9110  178.2990  140.2010 C   0  0  0  0  0  0  0  0  0  0  0  0
  184.8580  179.1840  139.0360 C   0  0  0  0  0  2  0  0  0  0  0  0
  183.8150  178.1250  138.9270 C   0  0  0  0  0  0  0  0  0  0  0  0
  181.8160  176.1770  138.7300 C   0  0  0  0  0  0  0  0  0  0  0  0
  183.3250  177.7490  137.6720 C   0  0  0  0  0  3  0  0  0  0  0  0
  183.2960  177.5320  140.0840 C   0  0  0  0  0  3  0  0  0  0  0  0
  182.2990  176.5570  139.9850 C   0  0  0  0  0  3  0  0  0  0  0  0
  180.5670  174.9580  138.6060 Cl  0  0  0  0  0  0  0  0  0  0  0  0
  182.3270  176.7740  137.5730 C   0  0  0  0  0  3  0  0  0  0  0  0
  1 21  1  0  0  0  0
  1 20  1  0  0  0  0
  2 17  2  0  0  0  0
  3 14  2  0  0  0  0
  4  9  1  0  0  0  0
  5  7  1  0  0  0  0
  6 16  1  0  0  0  0
  7  2  1  6  0  0  0
  7  4  1  0  0  0  0
  8 12  1  0  0  0  0
  9  6  2  0  0  0  0
 10 20  2  0  0  0  0
 10 14  1  0  0  0  0
 11  5  1  0  0  0  0
 12  4  2  0  0  0  0
 13 19  1  0  0  0  0
 13 15  2  0  0  0  0
 14 18  1  0  0  0  0
 15 10  1  0  0  0  0
 17  6  1  0  0  0  0
 18  5  2  0  0  0  0
 18  8  1  0  0  0  0
 19  1  1  0  0  0  0
 20 11  1  0  0  0  0
 22 21  1  0  0  0  0
 22 25  1  0  0  0  0
 23 26  1  0  0  0  0
 24 22  2  0  0  0  0
 26 25  2  0  0  0  0
 27 23  1  0  0  0  0
 28 24  1  0  0  0  0
 28 23  2  0  0  0  0
M  END
>  <MODEL>
9

>  <REMARK>
 VINA RESULT:      -8.3      3.355      5.090
  Name = 
  2 active torsions:
  status: ('A' for Active; 'I' for Inactive)
    1  A    between atoms: N_1  and  C_2
    2  A    between atoms: C_2  and  C_3
                            x       y       z     vdW  Elec       q    Type
                         _______ _______ _______ _____ _____    ______ ____

>  <TORSDO>
F 2

$$$$
