=
 OpenBabel10272413273D

 32 36  0  0  1  0  0  0  0  0999 V2000
  190.9780  175.8540  137.2790 C   0  0  2  0  0  3  0  0  0  0  0  0
  194.8120  173.3540  137.0720 C   0  0  0  0  0  2  0  0  0  0  0  0
  195.2200  173.6760  135.6260 C   0  0  0  0  0  2  0  0  0  0  0  0
  194.5750  174.6210  137.8930 C   0  0  0  0  0  2  0  0  0  0  0  0
  192.0880  174.9730  137.8540 C   0  0  0  0  0  2  0  0  0  0  0  0
  193.4230  175.4500  137.3150 C   0  0  2  0  0  3  0  0  0  0  0  0
  192.3200  175.6210  135.1390 N   0  0  0  0  0  0  0  0  0  0  0  0
  194.6480  174.9930  135.0770 C   0  0  0  0  0  2  0  0  0  0  0  0
  193.4020  175.4000  135.8050 C   0  0  0  0  0  0  0  0  0  0  0  0
  191.0260  175.9300  135.7370 C   0  0  1  0  0  3  0  0  0  0  0  0
  189.8990  175.1580  135.0180 C   0  0  1  0  0  3  0  0  0  0  0  0
  189.6660  173.7110  135.4930 C   0  0  2  0  0  3  0  0  0  0  0  0
  187.8200  175.8520  136.3100 C   0  0  2  0  0  3  0  0  0  0  0  0
  187.6060  174.3990  136.7320 C   0  0  0  0  0  2  0  0  0  0  0  0
  188.9370  173.6600  136.8330 C   0  0  0  0  0  2  0  0  0  0  0  0
  188.7790  177.2490  134.5870 O   0  0  0  0  0  1  0  0  0  0  0  0
  190.8600  172.9930  135.5590 O   0  0  0  0  0  1  0  0  0  0  0  0
  186.4690  176.5340  136.2050 C   0  0  0  0  0  1  0  0  0  0  0  0
  188.5650  175.9220  134.9690 C   0  0  1  0  0  3  0  0  0  0  0  0
  191.0600  177.1480  137.8080 O   0  0  0  0  0  0  0  0  0  0  0  0
  188.2910  178.6660  140.7470 C   0  0  0  0  0  2  0  0  0  0  0  0
  189.9850  177.2420  138.7010 C   0  0  2  0  0  3  0  0  0  0  0  0
  189.1810  178.9940  137.2760 O   0  0  0  0  0  0  0  0  0  0  0  0
  188.1810  178.8850  139.3390 O   0  0  0  0  0  0  0  0  0  0  0  0
  189.1320  178.4440  138.4080 C   0  0  0  0  0  0  0  0  0  0  0  0
  190.6030  177.2840  140.4090 S   0  0  0  0  0  0  0  0  0  0  0  0
  188.9060  177.3120  141.0550 C   0  0  1  0  0  3  0  0  0  0  0  0
  188.9220  176.9250  143.6980 C   0  0  0  0  0  0  0  0  0  0  0  0
  188.9200  177.0780  142.4990 C   0  0  0  0  0  0  0  0  0  0  0  0
  188.9230  176.7610  145.1530 C   0  0  0  0  0  3  0  0  0  0  0  0
  187.9680  177.7700  145.7620 C   0  0  0  0  0  2  0  0  0  0  0  0
  189.4600  178.0200  145.7970 C   0  0  0  0  0  2  0  0  0  0  0  0
  1 20  1  1  0  0  0
  1  5  1  0  0  0  0
  2  4  1  0  0  0  0
  3  2  1  0  0  0  0
  6  5  1  1  0  0  0
  6  4  1  0  0  0  0
  7  9  2  0  0  0  0
  8  3  1  0  0  0  0
  8  9  1  0  0  0  0
  9  6  1  0  0  0  0
 10  7  1  6  0  0  0
 10  1  1  0  0  0  0
 11 12  1  0  0  0  0
 11 10  1  1  0  0  0
 12 17  1  1  0  0  0
 12 15  1  0  0  0  0
 13 18  1  6  0  0  0
 13 14  1  0  0  0  0
 14 15  1  0  0  0  0
 19 16  1  1  0  0  0
 19 11  1  0  0  0  0
 19 13  1  0  0  0  0
 21 27  1  0  0  0  0
 22 20  1  6  0  0  0
 22 26  1  0  0  0  0
 23 25  2  0  0  0  0
 24 21  1  0  0  0  0
 25 22  1  0  0  0  0
 25 24  1  0  0  0  0
 26 27  1  0  0  0  0
 27 29  1  1  0  0  0
 28 30  1  0  0  0  0
 29 28  3  0  0  0  0
 30 31  1  0  0  0  0
 30 32  1  0  0  0  0
 31 32  1  0  0  0  0
M  END
>  <MODEL>
1

>  <REMARK>
 VINA RESULT:      -7.1      0.000      0.000
  Name = 
  5 active torsions:
  status: ('A' for Active; 'I' for Inactive)
    1  A    between atoms: C_1  and  C_10
    2  A    between atoms: C_3  and  O_28
    3  A    between atoms: C_6  and  C_31
    4  A    between atoms: C_8  and  O_28
    5  A    between atoms: C_19  and  C_24
                            x       y       z     vdW  Elec       q    Type
                         _______ _______ _______ _____ _____    ______ ____

>  <TORSDO>
F 5

$$$$
=
 OpenBabel10272413273D

 32 36  0  0  1  0  0  0  0  0999 V2000
  188.3350  177.9810  139.8900 C   0  0  2  0  0  3  0  0  0  0  0  0
  183.9070  177.8140  141.0560 C   0  0  0  0  0  2  0  0  0  0  0  0
  184.0090  178.4680  142.4430 C   0  0  0  0  0  2  0  0  0  0  0  0
  184.5480  178.6790  139.9700 C   0  0  0  0  0  2  0  0  0  0  0  0
  186.8480  177.7230  139.6430 C   0  0  0  0  0  2  0  0  0  0  0  0
  186.0460  178.8710  140.2260 C   0  0  2  0  0  3  0  0  0  0  0  0
  187.5160  178.7160  142.1750 N   0  0  0  0  0  0  0  0  0  0  0  0
  185.2400  179.3680  142.6390 C   0  0  0  0  0  2  0  0  0  0  0  0
  186.3500  178.9980  141.7010 C   0  0  0  0  0  0  0  0  0  0  0  0
  188.6460  178.2540  141.3780 C   0  0  1  0  0  3  0  0  0  0  0  0
  189.3860  177.1080  142.1020 C   0  0  1  0  0  3  0  0  0  0  0  0
  190.9050  177.2950  142.2780 C   0  0  2  0  0  3  0  0  0  0  0  0
  189.0890  177.7030  144.5580 C   0  0  2  0  0  3  0  0  0  0  0  0
  190.6040  177.8450  144.6990 C   0  0  0  0  0  2  0  0  0  0  0  0
  191.2330  178.2950  143.3840 C   0  0  0  0  0  2  0  0  0  0  0  0
  187.3560  176.5880  143.2940 O   0  0  0  0  0  1  0  0  0  0  0  0
  191.5200  177.6690  141.0840 O   0  0  0  0  0  1  0  0  0  0  0  0
  188.5170  177.2350  145.8830 C   0  0  0  0  0  1  0  0  0  0  0  0
  188.7410  176.7090  143.4400 C   0  0  1  0  0  3  0  0  0  0  0  0
  188.7760  179.0650  139.1200 O   0  0  0  0  0  0  0  0  0  0  0  0
  189.3340  176.6210  135.6090 C   0  0  0  0  0  2  0  0  0  0  0  0
  189.3410  178.4880  137.9760 C   0  0  2  0  0  3  0  0  0  0  0  0
  187.5250  179.5020  136.7820 O   0  0  0  0  0  0  0  0  0  0  0  0
  188.6670  177.8840  135.6210 O   0  0  0  0  0  0  0  0  0  0  0  0
  188.4330  178.6280  136.7860 C   0  0  0  0  0  0  0  0  0  0  0  0
  189.7320  176.7430  138.2930 S   0  0  0  0  0  0  0  0  0  0  0  0
  190.4540  176.5710  136.6350 C   0  0  1  0  0  3  0  0  0  0  0  0
  191.7880  174.2670  136.4160 C   0  0  0  0  0  0  0  0  0  0  0  0
  191.1760  175.3020  136.5360 C   0  0  0  0  0  0  0  0  0  0  0  0
  192.5330  173.0180  136.2520 C   0  0  0  0  0  3  0  0  0  0  0  0
  193.9140  173.1860  136.8580 C   0  0  0  0  0  2  0  0  0  0  0  0
  193.7280  173.2630  135.3580 C   0  0  0  0  0  2  0  0  0  0  0  0
  1 20  1  6  0  0  0
  1 10  1  0  0  0  0
  2  3  1  0  0  0  0
  3  8  1  0  0  0  0
  4  6  1  0  0  0  0
  4  2  1  0  0  0  0
  5  1  1  0  0  0  0
  6  5  1  1  0  0  0
  6  9  1  0  0  0  0
  9  7  2  0  0  0  0
  9  8  1  0  0  0  0
 10  7  1  1  0  0  0
 11 10  1  1  0  0  0
 11 12  1  0  0  0  0
 11 19  1  0  0  0  0
 12 17  1  6  0  0  0
 12 15  1  0  0  0  0
 13 14  1  0  0  0  0
 13 18  1  1  0  0  0
 15 14  1  0  0  0  0
 19 16  1  6  0  0  0
 19 13  1  0  0  0  0
 21 24  1  0  0  0  0
 21 27  1  0  0  0  0
 22 26  1  0  0  0  0
 22 20  1  1  0  0  0
 23 25  2  0  0  0  0
 24 25  1  0  0  0  0
 25 22  1  0  0  0  0
 27 29  1  1  0  0  0
 27 26  1  0  0  0  0
 28 29  3  0  0  0  0
 30 28  1  0  0  0  0
 30 31  1  0  0  0  0
 32 30  1  0  0  0  0
 32 31  1  0  0  0  0
M  END
>  <MODEL>
2

>  <REMARK>
 VINA RESULT:      -7.0      2.775      8.350
  Name = 
  5 active torsions:
  status: ('A' for Active; 'I' for Inactive)
    1  A    between atoms: C_1  and  C_10
    2  A    between atoms: C_3  and  O_28
    3  A    between atoms: C_6  and  C_31
    4  A    between atoms: C_8  and  O_28
    5  A    between atoms: C_19  and  C_24
                            x       y       z     vdW  Elec       q    Type
                         _______ _______ _______ _____ _____    ______ ____

>  <TORSDO>
F 5

$$$$
=
 OpenBabel10272413273D

 32 36  0  0  1  0  0  0  0  0999 V2000
  190.7020  176.8830  139.1110 C   0  0  2  0  0  3  0  0  0  0  0  0
  186.8760  178.5020  137.1790 C   0  0  0  0  0  2  0  0  0  0  0  0
  186.6340  177.3740  136.1640 C   0  0  0  0  0  2  0  0  0  0  0  0
  187.0410  177.9640  138.6000 C   0  0  0  0  0  2  0  0  0  0  0  0
  189.5220  177.8460  138.9730 C   0  0  0  0  0  2  0  0  0  0  0  0
  188.2610  177.0450  138.7080 C   0  0  2  0  0  3  0  0  0  0  0  0
  189.6000  175.7340  137.1360 N   0  0  0  0  0  0  0  0  0  0  0  0
  187.2830  176.0300  136.5320 C   0  0  0  0  0  2  0  0  0  0  0  0
  188.4480  176.2150  137.4590 C   0  0  0  0  0  0  0  0  0  0  0  0
  190.8250  175.9270  137.9040 C   0  0  1  0  0  3  0  0  0  0  0  0
  192.0120  176.2260  136.9630 C   0  0  1  0  0  3  0  0  0  0  0  0
  193.4150  176.0320  137.5690 C   0  0  2  0  0  3  0  0  0  0  0  0
  192.3150  174.0300  135.7140 C   0  0  2  0  0  3  0  0  0  0  0  0
  193.7150  173.8920  136.3100 C   0  0  0  0  0  2  0  0  0  0  0  0
  193.7900  174.5570  137.6810 C   0  0  0  0  0  2  0  0  0  0  0  0
  190.6290  175.6410  135.0770 O   0  0  0  0  0  1  0  0  0  0  0  0
  193.5320  176.6610  138.8080 O   0  0  0  0  0  1  0  0  0  0  0  0
  192.2990  173.3740  134.3460 C   0  0  0  0  0  1  0  0  0  0  0  0
  191.9160  175.5090  135.6050 C   0  0  1  0  0  3  0  0  0  0  0  0
  190.5830  176.1300  140.2860 O   0  0  0  0  0  0  0  0  0  0  0  0
  190.3850  178.1140  144.1110 C   0  0  0  0  0  2  0  0  0  0  0  0
  190.2930  177.0660  141.2860 C   0  0  2  0  0  3  0  0  0  0  0  0
  192.6650  177.3910  141.4230 O   0  0  0  0  0  0  0  0  0  0  0  0
  191.4660  178.2420  143.1850 O   0  0  0  0  0  0  0  0  0  0  0  0
  191.5430  177.5310  141.9790 C   0  0  0  0  0  0  0  0  0  0  0  0
  189.1170  176.3560  142.4750 S   0  0  0  0  0  0  0  0  0  0  0  0
  189.0580  177.9190  143.3970 C   0  0  1  0  0  3  0  0  0  0  0  0
  187.0420  177.8200  145.1460 C   0  0  0  0  0  0  0  0  0  0  0  0
  187.9610  177.8840  144.3650 C   0  0  0  0  0  0  0  0  0  0  0  0
  185.9200  177.7260  146.0830 C   0  0  0  0  0  3  0  0  0  0  0  0
  184.8690  178.7500  145.6950 C   0  0  0  0  0  2  0  0  0  0  0  0
  185.8040  179.0230  146.8540 C   0  0  0  0  0  2  0  0  0  0  0  0
  1 20  1  1  0  0  0
  2  4  1  0  0  0  0
  3  8  1  0  0  0  0
  3  2  1  0  0  0  0
  5  1  1  0  0  0  0
  6  4  1  6  0  0  0
  6  5  1  0  0  0  0
  7  9  2  0  0  0  0
  8  9  1  0  0  0  0
  9  6  1  0  0  0  0
 10  7  1  6  0  0  0
 10  1  1  0  0  0  0
 11 12  1  0  0  0  0
 11 10  1  1  0  0  0
 12 15  1  0  0  0  0
 12 17  1  1  0  0  0
 13 18  1  6  0  0  0
 13 14  1  0  0  0  0
 14 15  1  0  0  0  0
 19 16  1  1  0  0  0
 19 13  1  0  0  0  0
 19 11  1  0  0  0  0
 22 20  1  6  0  0  0
 22 25  1  0  0  0  0
 22 26  1  0  0  0  0
 23 25  2  0  0  0  0
 24 21  1  0  0  0  0
 25 24  1  0  0  0  0
 26 27  1  0  0  0  0
 27 21  1  0  0  0  0
 27 29  1  1  0  0  0
 28 30  1  0  0  0  0
 29 28  3  0  0  0  0
 30 32  1  0  0  0  0
 31 30  1  0  0  0  0
 31 32  1  0  0  0  0
M  END
>  <MODEL>
3

>  <REMARK>
 VINA RESULT:      -6.9      2.196      4.951
  Name = 
  5 active torsions:
  status: ('A' for Active; 'I' for Inactive)
    1  A    between atoms: C_1  and  C_10
    2  A    between atoms: C_3  and  O_28
    3  A    between atoms: C_6  and  C_31
    4  A    between atoms: C_8  and  O_28
    5  A    between atoms: C_19  and  C_24
                            x       y       z     vdW  Elec       q    Type
                         _______ _______ _______ _____ _____    ______ ____

>  <TORSDO>
F 5

$$$$
=
 OpenBabel10272413273D

 32 36  0  0  1  0  0  0  0  0999 V2000
  186.4340  177.4390  137.7440 C   0  0  2  0  0  3  0  0  0  0  0  0
  190.4450  175.9200  136.1320 C   0  0  0  0  0  2  0  0  0  0  0  0
  190.3180  176.4220  134.6850 C   0  0  0  0  0  2  0  0  0  0  0  0
  190.2180  177.0420  137.1460 C   0  0  0  0  0  2  0  0  0  0  0  0
  187.8210  176.8060  137.8590 C   0  0  0  0  0  2  0  0  0  0  0  0
  188.8020  177.6150  137.0320 C   0  0  2  0  0  3  0  0  0  0  0  0
  187.0760  177.6650  135.3010 N   0  0  0  0  0  0  0  0  0  0  0  0
  189.3500  177.6030  134.4980 C   0  0  0  0  0  2  0  0  0  0  0  0
  188.3310  177.6600  135.5970 C   0  0  0  0  0  0  0  0  0  0  0  0
  185.9920  177.6250  136.2760 C   0  0  1  0  0  3  0  0  0  0  0  0
  184.8810  176.6590  135.8100 C   0  0  1  0  0  3  0  0  0  0  0  0
  185.3120  175.1970  135.5850 C   0  0  2  0  0  3  0  0  0  0  0  0
  183.8000  175.9390  137.9980 C   0  0  2  0  0  3  0  0  0  0  0  0
  184.2170  174.4960  137.7210 C   0  0  0  0  0  2  0  0  0  0  0  0
  185.5030  174.4480  136.9010 C   0  0  0  0  0  2  0  0  0  0  0  0
  183.2520  178.0380  136.9320 O   0  0  0  0  0  1  0  0  0  0  0  0
  186.4640  175.1150  134.8040 O   0  0  0  0  0  1  0  0  0  0  0  0
  182.5100  175.9310  138.7960 C   0  0  0  0  0  1  0  0  0  0  0  0
  183.6160  176.7120  136.6840 C   0  0  1  0  0  3  0  0  0  0  0  0
  186.4090  178.6800  138.3940 O   0  0  0  0  0  0  0  0  0  0  0  0
  185.3080  179.1300  142.5400 C   0  0  0  0  0  2  0  0  0  0  0  0
  185.9490  178.4010  139.6860 C   0  0  2  0  0  3  0  0  0  0  0  0
  184.2130  179.9880  139.2210 O   0  0  0  0  0  0  0  0  0  0  0  0
  184.4540  179.4340  141.4360 O   0  0  0  0  0  0  0  0  0  0  0  0
  184.8570  179.3490  140.0960 C   0  0  0  0  0  0  0  0  0  0  0  0
  187.3340  178.4590  140.8610 S   0  0  0  0  0  0  0  0  0  0  0  0
  186.2380  177.9720  142.2250 C   0  0  1  0  0  3  0  0  0  0  0  0
  187.7150  177.3130  144.3510 C   0  0  0  0  0  0  0  0  0  0  0  0
  187.0350  177.6250  143.4020 C   0  0  0  0  0  0  0  0  0  0  0  0
  188.5490  176.9200  145.4880 C   0  0  0  0  0  3  0  0  0  0  0  0
  188.2770  177.8630  146.6460 C   0  0  0  0  0  2  0  0  0  0  0  0
  189.5220  178.0360  145.8020 C   0  0  0  0  0  2  0  0  0  0  0  0
  1  5  1  0  0  0  0
  1 20  1  6  0  0  0
  2  4  1  0  0  0  0
  3  2  1  0  0  0  0
  6  4  1  6  0  0  0
  6  5  1  0  0  0  0
  7  9  2  0  0  0  0
  8  3  1  0  0  0  0
  8  9  1  0  0  0  0
  9  6  1  0  0  0  0
 10  7  1  6  0  0  0
 10  1  1  0  0  0  0
 11 10  1  1  0  0  0
 11 19  1  0  0  0  0
 12 17  1  1  0  0  0
 12 11  1  0  0  0  0
 12 15  1  0  0  0  0
 13 18  1  6  0  0  0
 14 13  1  0  0  0  0
 15 14  1  0  0  0  0
 19 16  1  1  0  0  0
 19 13  1  0  0  0  0
 22 20  1  6  0  0  0
 22 25  1  0  0  0  0
 22 26  1  0  0  0  0
 23 25  2  0  0  0  0
 24 21  1  0  0  0  0
 25 24  1  0  0  0  0
 26 27  1  0  0  0  0
 27 21  1  0  0  0  0
 27 29  1  1  0  0  0
 28 30  1  0  0  0  0
 29 28  3  0  0  0  0
 30 32  1  0  0  0  0
 30 31  1  0  0  0  0
 32 31  1  0  0  0  0
M  END
>  <MODEL>
4

>  <REMARK>
 VINA RESULT:      -6.6      3.047      4.476
  Name = 
  5 active torsions:
  status: ('A' for Active; 'I' for Inactive)
    1  A    between atoms: C_1  and  C_10
    2  A    between atoms: C_3  and  O_28
    3  A    between atoms: C_6  and  C_31
    4  A    between atoms: C_8  and  O_28
    5  A    between atoms: C_19  and  C_24
                            x       y       z     vdW  Elec       q    Type
                         _______ _______ _______ _____ _____    ______ ____

>  <TORSDO>
F 5

$$$$
=
 OpenBabel10272413273D

 32 36  0  0  1  0  0  0  0  0999 V2000
  188.7330  176.2010  137.1190 C   0  0  2  0  0  3  0  0  0  0  0  0
  192.8810  174.2560  137.0300 C   0  0  0  0  0  2  0  0  0  0  0  0
  193.2020  174.4640  135.5420 C   0  0  0  0  0  2  0  0  0  0  0  0
  192.4840  175.5640  137.7160 C   0  0  0  0  0  2  0  0  0  0  0  0
  189.9730  175.5560  137.7410 C   0  0  0  0  0  2  0  0  0  0  0  0
  191.2120  176.1510  137.0980 C   0  0  2  0  0  3  0  0  0  0  0  0
  190.0400  175.9150  134.9650 N   0  0  0  0  0  0  0  0  0  0  0  0
  192.4330  175.6170  134.8750 C   0  0  0  0  0  2  0  0  0  0  0  0
  191.1600  175.9260  135.6050 C   0  0  0  0  0  0  0  0  0  0  0  0
  188.7310  176.1060  135.5780 C   0  0  1  0  0  3  0  0  0  0  0  0
  187.7090  175.1060  134.9950 C   0  0  1  0  0  3  0  0  0  0  0  0
  187.7390  173.6880  135.5950 C   0  0  2  0  0  3  0  0  0  0  0  0
  185.6140  175.5740  136.3600 C   0  0  2  0  0  3  0  0  0  0  0  0
  185.6600  174.1490  136.9070 C   0  0  0  0  0  2  0  0  0  0  0  0
  187.0970  173.6400  136.9790 C   0  0  0  0  0  2  0  0  0  0  0  0
  186.2450  176.9500  134.4750 O   0  0  0  0  0  1  0  0  0  0  0  0
  189.0350  173.1760  135.6400 O   0  0  0  0  0  1  0  0  0  0  0  0
  184.1660  176.0230  136.2890 C   0  0  0  0  0  1  0  0  0  0  0  0
  186.2680  175.6440  134.9720 C   0  0  1  0  0  3  0  0  0  0  0  0
  188.6410  177.5470  137.4990 O   0  0  0  0  0  0  0  0  0  0  0  0
  187.0220  178.8120  141.2920 C   0  0  0  0  0  2  0  0  0  0  0  0
  188.0900  177.5210  138.7860 C   0  0  2  0  0  3  0  0  0  0  0  0
  186.1830  178.5890  137.8000 O   0  0  0  0  0  0  0  0  0  0  0  0
  186.2590  178.6640  140.0930 O   0  0  0  0  0  0  0  0  0  0  0  0
  186.8190  178.3210  138.8540 C   0  0  0  0  0  0  0  0  0  0  0  0
  189.3060  178.1290  139.9910 S   0  0  0  0  0  0  0  0  0  0  0  0
  188.1570  177.8050  141.3600 C   0  0  1  0  0  3  0  0  0  0  0  0
  189.4090  178.0340  143.7080 C   0  0  0  0  0  0  0  0  0  0  0  0
  188.8610  177.9190  142.6380 C   0  0  0  0  0  0  0  0  0  0  0  0
  190.0570  178.1840  145.0120 C   0  0  0  0  0  3  0  0  0  0  0  0
  190.6440  176.8480  145.4270 C   0  0  0  0  0  2  0  0  0  0  0  0
  189.3400  177.3240  146.0290 C   0  0  0  0  0  2  0  0  0  0  0  0
  1 20  1  6  0  0  0
  1  5  1  0  0  0  0
  2  4  1  0  0  0  0
  3  2  1  0  0  0  0
  6  4  1  1  0  0  0
  6  5  1  0  0  0  0
  7  9  2  0  0  0  0
  8  3  1  0  0  0  0
  8  9  1  0  0  0  0
  9  6  1  0  0  0  0
 10  7  1  1  0  0  0
 10  1  1  0  0  0  0
 11 10  1  1  0  0  0
 11 12  1  0  0  0  0
 12 17  1  1  0  0  0
 12 15  1  0  0  0  0
 13 18  1  6  0  0  0
 13 14  1  0  0  0  0
 14 15  1  0  0  0  0
 19 16  1  1  0  0  0
 19 11  1  0  0  0  0
 19 13  1  0  0  0  0
 21 27  1  0  0  0  0
 22 20  1  6  0  0  0
 22 25  1  0  0  0  0
 22 26  1  0  0  0  0
 23 25  2  0  0  0  0
 24 21  1  0  0  0  0
 25 24  1  0  0  0  0
 26 27  1  0  0  0  0
 27 29  1  1  0  0  0
 28 30  1  0  0  0  0
 29 28  3  0  0  0  0
 30 31  1  0  0  0  0
 30 32  1  0  0  0  0
 31 32  1  0  0  0  0
M  END
>  <MODEL>
5

>  <REMARK>
 VINA RESULT:      -6.5      1.547      2.103
  Name = 
  5 active torsions:
  status: ('A' for Active; 'I' for Inactive)
    1  A    between atoms: C_1  and  C_10
    2  A    between atoms: C_3  and  O_28
    3  A    between atoms: C_6  and  C_31
    4  A    between atoms: C_8  and  O_28
    5  A    between atoms: C_19  and  C_24
                            x       y       z     vdW  Elec       q    Type
                         _______ _______ _______ _____ _____    ______ ____

>  <TORSDO>
F 5

$$$$
=
 OpenBabel10272413273D

 32 36  0  0  1  0  0  0  0  0999 V2000
  187.7920  178.3290  141.0370 C   0  0  2  0  0  3  0  0  0  0  0  0
  190.3570  178.3150  144.8340 C   0  0  0  0  0  2  0  0  0  0  0  0
  189.3220  177.7360  145.8100 C   0  0  0  0  0  2  0  0  0  0  0  0
  190.5280  177.4340  143.5960 C   0  0  0  0  0  2  0  0  0  0  0  0
  189.0880  178.4950  141.8320 C   0  0  0  0  0  2  0  0  0  0  0  0
  189.2230  177.3350  142.8010 C   0  0  2  0  0  3  0  0  0  0  0  0
  186.8500  177.6630  143.2960 N   0  0  0  0  0  0  0  0  0  0  0  0
  188.2050  176.9130  145.1470 C   0  0  0  0  0  2  0  0  0  0  0  0
  188.0160  177.2970  143.7090 C   0  0  0  0  0  0  0  0  0  0  0  0
  186.5610  178.1460  141.9520 C   0  0  1  0  0  3  0  0  0  0  0  0
  185.6120  179.3640  142.0070 C   0  0  1  0  0  3  0  0  0  0  0  0
  184.5990  179.4800  140.8520 C   0  0  2  0  0  3  0  0  0  0  0  0
  183.7220  178.5450  143.5010 C   0  0  2  0  0  3  0  0  0  0  0  0
  182.7430  178.7060  142.3390 C   0  0  0  0  0  2  0  0  0  0  0  0
  183.4460  178.4910  141.0010 C   0  0  0  0  0  2  0  0  0  0  0  0
  185.8050  179.3690  144.4100 O   0  0  0  0  0  1  0  0  0  0  0  0
  185.2150  179.3270  139.6100 O   0  0  0  0  0  1  0  0  0  0  0  0
  182.9810  178.7890  144.8020 C   0  0  0  0  0  1  0  0  0  0  0  0
  184.8970  179.5250  143.3590 C   0  0  1  0  0  3  0  0  0  0  0  0
  187.8890  177.2350  140.1690 O   0  0  0  0  0  0  0  0  0  0  0  0
  190.5040  177.2880  136.7390 C   0  0  0  0  0  2  0  0  0  0  0  0
  188.9420  177.5540  139.3030 C   0  0  2  0  0  3  0  0  0  0  0  0
  187.2440  178.3620  137.8170 O   0  0  0  0  0  0  0  0  0  0  0  0
  189.3070  178.0590  136.8590 O   0  0  0  0  0  0  0  0  0  0  0  0
  188.4340  177.9720  137.9520 C   0  0  0  0  0  0  0  0  0  0  0  0
  190.0750  176.1400  139.1620 S   0  0  0  0  0  0  0  0  0  0  0  0
  191.1820  177.0950  138.0840 C   0  0  1  0  0  3  0  0  0  0  0  0
  193.4810  175.7800  137.7420 C   0  0  0  0  0  0  0  0  0  0  0  0
  192.4490  176.3830  137.9170 C   0  0  0  0  0  0  0  0  0  0  0  0
  194.7230  175.0390  137.5150 C   0  0  0  0  0  3  0  0  0  0  0  0
  194.5320  173.6060  137.9760 C   0  0  0  0  0  2  0  0  0  0  0  0
  195.2870  174.5890  138.8450 C   0  0  0  0  0  2  0  0  0  0  0  0
  1 20  1  6  0  0  0
  1  5  1  0  0  0  0
  1 10  1  0  0  0  0
  2  3  1  0  0  0  0
  4  2  1  0  0  0  0
  6  5  1  6  0  0  0
  6  4  1  0  0  0  0
  6  9  1  0  0  0  0
  7  9  2  0  0  0  0
  8  3  1  0  0  0  0
  9  8  1  0  0  0  0
 10  7  1  1  0  0  0
 11 10  1  1  0  0  0
 11 19  1  0  0  0  0
 12 17  1  6  0  0  0
 12 15  1  0  0  0  0
 12 11  1  0  0  0  0
 13 18  1  1  0  0  0
 14 13  1  0  0  0  0
 15 14  1  0  0  0  0
 19 13  1  0  0  0  0
 19 16  1  1  0  0  0
 21 24  1  0  0  0  0
 21 27  1  0  0  0  0
 22 20  1  1  0  0  0
 23 25  2  0  0  0  0
 24 25  1  0  0  0  0
 25 22  1  0  0  0  0
 26 22  1  0  0  0  0
 27 29  1  6  0  0  0
 27 26  1  0  0  0  0
 28 29  3  0  0  0  0
 30 28  1  0  0  0  0
 30 31  1  0  0  0  0
 30 32  1  0  0  0  0
 31 32  1  0  0  0  0
M  END
>  <MODEL>
6

>  <REMARK>
 VINA RESULT:      -6.5      3.198      8.086
  Name = 
  5 active torsions:
  status: ('A' for Active; 'I' for Inactive)
    1  A    between atoms: C_1  and  C_10
    2  A    between atoms: C_3  and  O_28
    3  A    between atoms: C_6  and  C_31
    4  A    between atoms: C_8  and  O_28
    5  A    between atoms: C_19  and  C_24
                            x       y       z     vdW  Elec       q    Type
                         _______ _______ _______ _____ _____    ______ ____

>  <TORSDO>
F 5

$$$$
=
 OpenBabel10272413273D

 32 36  0  0  1  0  0  0  0  0999 V2000
  189.9260  176.6110  138.5810 C   0  0  2  0  0  3  0  0  0  0  0  0
  191.8770  173.2030  136.2210 C   0  0  0  0  0  2  0  0  0  0  0  0
  191.3280  173.5430  134.8270 C   0  0  0  0  0  2  0  0  0  0  0  0
  192.5740  174.4010  136.8670 C   0  0  0  0  0  2  0  0  0  0  0  0
  190.8570  175.4120  138.3960 C   0  0  0  0  0  2  0  0  0  0  0  0
  191.5970  175.5620  137.0810 C   0  0  2  0  0  3  0  0  0  0  0  0
  189.4530  176.2360  136.1180 N   0  0  0  0  0  0  0  0  0  0  0  0
  190.9170  175.0130  134.6410 C   0  0  0  0  0  2  0  0  0  0  0  0
  190.5990  175.6680  135.9520 C   0  0  0  0  0  0  0  0  0  0  0  0
  188.9910  176.8220  137.3710 C   0  0  1  0  0  3  0  0  0  0  0  0
  187.5130  176.4570  137.6270 C   0  0  1  0  0  3  0  0  0  0  0  0
  186.4850  177.5630  137.3220 C   0  0  2  0  0  3  0  0  0  0  0  0
  186.8280  175.3090  135.4620 C   0  0  2  0  0  3  0  0  0  0  0  0
  185.7960  176.4080  135.2140 C   0  0  0  0  0  2  0  0  0  0  0  0
  186.2520  177.7300  135.8230 C   0  0  0  0  0  2  0  0  0  0  0  0
  188.0410  174.1430  137.1980 O   0  0  0  0  0  1  0  0  0  0  0  0
  186.8510  178.7780  137.8990 O   0  0  0  0  0  1  0  0  0  0  0  0
  186.3180  174.0140  134.8560 C   0  0  0  0  0  1  0  0  0  0  0  0
  187.0840  175.1350  136.9660 C   0  0  1  0  0  3  0  0  0  0  0  0
  190.6720  177.7780  138.7980 O   0  0  0  0  0  0  0  0  0  0  0  0
  190.8180  177.0370  143.0450 C   0  0  0  0  0  2  0  0  0  0  0  0
  190.6430  177.9710  140.1840 C   0  0  2  0  0  3  0  0  0  0  0  0
  192.9410  177.2880  140.1500 O   0  0  0  0  0  0  0  0  0  0  0  0
  191.9610  177.2930  142.2260 O   0  0  0  0  0  0  0  0  0  0  0  0
  191.8980  177.4590  140.8350 C   0  0  0  0  0  0  0  0  0  0  0  0
  189.1720  177.1720  140.8900 S   0  0  0  0  0  0  0  0  0  0  0  0
  189.5940  177.7860  142.5460 C   0  0  1  0  0  3  0  0  0  0  0  0
  187.5160  177.4400  144.1880 C   0  0  0  0  0  0  0  0  0  0  0  0
  188.4670  177.5780  143.4550 C   0  0  0  0  0  0  0  0  0  0  0  0
  186.3570  177.2900  145.0690 C   0  0  0  0  0  3  0  0  0  0  0  0
  185.7810  178.6630  145.3610 C   0  0  0  0  0  2  0  0  0  0  0  0
  186.6440  177.9670  146.3920 C   0  0  0  0  0  2  0  0  0  0  0  0
  1 20  1  6  0  0  0
  2  4  1  0  0  0  0
  3  2  1  0  0  0  0
  5  1  1  0  0  0  0
  6  4  1  6  0  0  0
  6  5  1  0  0  0  0
  8  3  1  0  0  0  0
  8  9  1  0  0  0  0
  9  7  2  0  0  0  0
  9  6  1  0  0  0  0
 10  7  1  6  0  0  0
 10  1  1  0  0  0  0
 11 10  1  6  0  0  0
 12 11  1  0  0  0  0
 12 17  1  6  0  0  0
 13 18  1  1  0  0  0
 13 19  1  0  0  0  0
 14 13  1  0  0  0  0
 14 15  1  0  0  0  0
 15 12  1  0  0  0  0
 19 16  1  6  0  0  0
 19 11  1  0  0  0  0
 22 20  1  6  0  0  0
 22 25  1  0  0  0  0
 22 26  1  0  0  0  0
 23 25  2  0  0  0  0
 24 21  1  0  0  0  0
 25 24  1  0  0  0  0
 26 27  1  0  0  0  0
 27 21  1  0  0  0  0
 27 29  1  1  0  0  0
 28 30  1  0  0  0  0
 29 28  3  0  0  0  0
 30 31  1  0  0  0  0
 30 32  1  0  0  0  0
 31 32  1  0  0  0  0
M  END
>  <MODEL>
7

>  <REMARK>
 VINA RESULT:      -6.5      2.025      3.346
  Name = 
  5 active torsions:
  status: ('A' for Active; 'I' for Inactive)
    1  A    between atoms: C_1  and  C_10
    2  A    between atoms: C_3  and  O_28
    3  A    between atoms: C_6  and  C_31
    4  A    between atoms: C_8  and  O_28
    5  A    between atoms: C_19  and  C_24
                            x       y       z     vdW  Elec       q    Type
                         _______ _______ _______ _____ _____    ______ ____

>  <TORSDO>
F 5

$$$$
=
 OpenBabel10272413273D

 32 36  0  0  1  0  0  0  0  0999 V2000
  187.3140  177.6190  138.6060 C   0  0  2  0  0  3  0  0  0  0  0  0
  187.1150  174.5790  135.1830 C   0  0  0  0  0  2  0  0  0  0  0  0
  186.0080  175.2430  134.3480 C   0  0  0  0  0  2  0  0  0  0  0  0
  188.2530  175.5500  135.4950 C   0  0  0  0  0  2  0  0  0  0  0  0
  187.7770  176.3960  137.8120 C   0  0  0  0  0  2  0  0  0  0  0  0
  187.7590  176.7340  136.3330 C   0  0  2  0  0  3  0  0  0  0  0  0
  185.5940  177.7920  136.7500 N   0  0  0  0  0  0  0  0  0  0  0  0
  185.8440  176.7540  134.5860 C   0  0  0  0  0  2  0  0  0  0  0  0
  186.3660  177.1600  135.9320 C   0  0  0  0  0  0  0  0  0  0  0  0
  185.9520  178.1570  138.1150 C   0  0  1  0  0  3  0  0  0  0  0  0
  184.7710  177.8920  139.0740 C   0  0  1  0  0  3  0  0  0  0  0  0
  184.1900  179.1300  139.7820 C   0  0  2  0  0  3  0  0  0  0  0  0
  182.7590  177.9140  137.5170 C   0  0  2  0  0  3  0  0  0  0  0  0
  182.2000  179.1210  138.2670 C   0  0  0  0  0  2  0  0  0  0  0  0
  183.3270  179.9720  138.8460 C   0  0  0  0  0  2  0  0  0  0  0  0
  184.1700  175.9650  137.7550 O   0  0  0  0  0  1  0  0  0  0  0  0
  185.1910  179.9120  140.3580 O   0  0  0  0  0  1  0  0  0  0  0  0
  181.6010  177.0920  136.9810 C   0  0  0  0  0  1  0  0  0  0  0  0
  183.6410  177.0620  138.4420 C   0  0  1  0  0  3  0  0  0  0  0  0
  188.2700  178.6400  138.5290 O   0  0  0  0  0  0  0  0  0  0  0  0
  190.3830  176.9550  141.8910 C   0  0  0  0  0  2  0  0  0  0  0  0
  189.0200  178.5210  139.7050 C   0  0  2  0  0  3  0  0  0  0  0  0
  190.6650  177.4390  138.3360 O   0  0  0  0  0  0  0  0  0  0  0  0
  190.9520  177.1650  140.5970 O   0  0  0  0  0  0  0  0  0  0  0  0
  190.2260  177.6470  139.4990 C   0  0  0  0  0  0  0  0  0  0  0  0
  187.9740  177.8780  141.0430 S   0  0  0  0  0  0  0  0  0  0  0  0
  189.3470  178.0140  142.2240 C   0  0  1  0  0  3  0  0  0  0  0  0
  188.4100  177.6470  144.6990 C   0  0  0  0  0  0  0  0  0  0  0  0
  188.8500  177.8270  143.5880 C   0  0  0  0  0  0  0  0  0  0  0  0
  187.8600  177.4190  146.0360 C   0  0  0  0  0  3  0  0  0  0  0  0
  186.3520  177.2850  145.9320 C   0  0  0  0  0  2  0  0  0  0  0  0
  186.9670  178.5820  146.4130 C   0  0  0  0  0  2  0  0  0  0  0  0
  1 20  1  6  0  0  0
  2  4  1  0  0  0  0
  3  8  1  0  0  0  0
  3  2  1  0  0  0  0
  5  1  1  0  0  0  0
  6  4  1  6  0  0  0
  6  5  1  0  0  0  0
  8  9  1  0  0  0  0
  9  6  1  0  0  0  0
  9  7  2  0  0  0  0
 10  7  1  6  0  0  0
 10  1  1  0  0  0  0
 11 10  1  6  0  0  0
 11 12  1  0  0  0  0
 12 17  1  6  0  0  0
 13 18  1  1  0  0  0
 13 14  1  0  0  0  0
 13 19  1  0  0  0  0
 14 15  1  0  0  0  0
 15 12  1  0  0  0  0
 19 16  1  6  0  0  0
 19 11  1  0  0  0  0
 21 27  1  0  0  0  0
 22 20  1  6  0  0  0
 22 26  1  0  0  0  0
 23 25  2  0  0  0  0
 24 21  1  0  0  0  0
 25 22  1  0  0  0  0
 25 24  1  0  0  0  0
 26 27  1  0  0  0  0
 27 29  1  1  0  0  0
 28 30  1  0  0  0  0
 29 28  3  0  0  0  0
 30 32  1  0  0  0  0
 31 30  1  0  0  0  0
 31 32  1  0  0  0  0
M  END
>  <MODEL>
8

>  <REMARK>
 VINA RESULT:      -6.3      3.472      5.733
  Name = 
  5 active torsions:
  status: ('A' for Active; 'I' for Inactive)
    1  A    between atoms: C_1  and  C_10
    2  A    between atoms: C_3  and  O_28
    3  A    between atoms: C_6  and  C_31
    4  A    between atoms: C_8  and  O_28
    5  A    between atoms: C_19  and  C_24
                            x       y       z     vdW  Elec       q    Type
                         _______ _______ _______ _____ _____    ______ ____

>  <TORSDO>
F 5

$$$$
=
 OpenBabel10272413273D

 32 36  0  0  1  0  0  0  0  0999 V2000
  185.1220  177.0300  137.3310 C   0  0  2  0  0  3  0  0  0  0  0  0
  189.5920  177.2320  136.3450 C   0  0  0  0  0  2  0  0  0  0  0  0
  189.4850  177.4250  134.8240 C   0  0  0  0  0  2  0  0  0  0  0  0
  188.7640  178.2640  137.1100 C   0  0  0  0  0  2  0  0  0  0  0  0
  186.6130  177.0950  137.6690 C   0  0  0  0  0  2  0  0  0  0  0  0
  187.2740  178.1330  136.7830 C   0  0  2  0  0  3  0  0  0  0  0  0
  185.9690  177.1830  134.9460 N   0  0  0  0  0  0  0  0  0  0  0  0
  188.1500  178.0220  134.3460 C   0  0  0  0  0  2  0  0  0  0  0  0
  187.0490  177.7720  135.3330 C   0  0  0  0  0  0  0  0  0  0  0  0
  184.8700  176.8020  135.8250 C   0  0  1  0  0  3  0  0  0  0  0  0
  184.3530  175.3920  135.4650 C   0  0  1  0  0  3  0  0  0  0  0  0
  185.2500  174.2160  135.8960 C   0  0  2  0  0  3  0  0  0  0  0  0
  182.8030  174.8420  137.4060 C   0  0  2  0  0  3  0  0  0  0  0  0
  183.7020  173.6650  137.7810 C   0  0  0  0  0  2  0  0  0  0  0  0
  185.1520  173.9420  137.3940 C   0  0  0  0  0  2  0  0  0  0  0  0
  182.0930  176.2290  135.5580 O   0  0  0  0  0  1  0  0  0  0  0  0
  186.5780  174.4190  135.5230 O   0  0  0  0  0  1  0  0  0  0  0  0
  181.3740  174.5080  137.7910 C   0  0  0  0  0  1  0  0  0  0  0  0
  182.9000  175.1410  135.9030 C   0  0  1  0  0  3  0  0  0  0  0  0
  184.4800  178.2080  137.7340 O   0  0  0  0  0  0  0  0  0  0  0  0
  182.4090  178.5880  141.4990 C   0  0  0  0  0  2  0  0  0  0  0  0
  183.9580  177.9200  139.0010 C   0  0  2  0  0  3  0  0  0  0  0  0
  181.8040  178.1640  137.9770 O   0  0  0  0  0  0  0  0  0  0  0  0
  181.7960  178.1860  140.2720 O   0  0  0  0  0  0  0  0  0  0  0  0
  182.4720  178.1390  139.0450 C   0  0  0  0  0  0  0  0  0  0  0  0
  184.8010  178.9240  140.2590 S   0  0  0  0  0  0  0  0  0  0  0  0
  183.8520  178.1200  141.5810 C   0  0  1  0  0  3  0  0  0  0  0  0
  184.9320  178.7350  143.9450 C   0  0  0  0  0  0  0  0  0  0  0  0
  184.4230  178.4650  142.8840 C   0  0  0  0  0  0  0  0  0  0  0  0
  185.5670  179.0530  145.2260 C   0  0  0  0  0  3  0  0  0  0  0  0
  186.1500  177.7820  145.8140 C   0  0  0  0  0  2  0  0  0  0  0  0
  184.8390  178.3280  146.3370 C   0  0  0  0  0  2  0  0  0  0  0  0
  1  5  1  0  0  0  0
  1 20  1  6  0  0  0
  2  4  1  0  0  0  0
  3  2  1  0  0  0  0
  6  4  1  1  0  0  0
  6  5  1  0  0  0  0
  7  9  2  0  0  0  0
  8  3  1  0  0  0  0
  8  9  1  0  0  0  0
  9  6  1  0  0  0  0
 10  7  1  6  0  0  0
 10  1  1  0  0  0  0
 11 10  1  1  0  0  0
 11 12  1  0  0  0  0
 11 19  1  0  0  0  0
 12 17  1  1  0  0  0
 12 15  1  0  0  0  0
 13 14  1  0  0  0  0
 13 18  1  6  0  0  0
 15 14  1  0  0  0  0
 19 16  1  1  0  0  0
 19 13  1  0  0  0  0
 21 27  1  0  0  0  0
 22 20  1  6  0  0  0
 22 25  1  0  0  0  0
 22 26  1  0  0  0  0
 23 25  2  0  0  0  0
 24 21  1  0  0  0  0
 25 24  1  0  0  0  0
 26 27  1  0  0  0  0
 27 29  1  1  0  0  0
 28 30  1  0  0  0  0
 29 28  3  0  0  0  0
 30 31  1  0  0  0  0
 30 32  1  0  0  0  0
 31 32  1  0  0  0  0
M  END
>  <MODEL>
9

>  <REMARK>
 VINA RESULT:      -6.2      4.109      5.813
  Name = 
  5 active torsions:
  status: ('A' for Active; 'I' for Inactive)
    1  A    between atoms: C_1  and  C_10
    2  A    between atoms: C_3  and  O_28
    3  A    between atoms: C_6  and  C_31
    4  A    between atoms: C_8  and  O_28
    5  A    between atoms: C_19  and  C_24
                            x       y       z     vdW  Elec       q    Type
                         _______ _______ _______ _____ _____    ______ ____

>  <TORSDO>
F 5

$$$$
