=
 OpenBabel10272414463D

 37 44  0  0  1  0  0  0  0  0999 V2000
  188.6120  177.6240  140.1440 C   0  0  0  0  0  2  0  0  0  0  0  0
  191.0170  177.6270  144.1960 C   0  0  0  0  0  0  0  0  0  0  0  0
  186.8070  177.8870  144.4380 C   0  0  0  0  0  0  0  0  0  0  0  0
  189.1480  178.1330  138.8780 N   0  0  0  0  0  0  0  0  0  0  0  0
  184.7360  178.0970  141.3450 O   0  0  0  0  0  0  0  0  0  0  0  0
  188.9360  177.6560  145.5820 C   0  0  0  0  0  0  0  0  0  0  0  0
  186.4490  178.1930  143.1940 C   0  0  0  0  0  0  0  0  0  0  0  0
  186.7540  178.0180  138.1980 C   0  0  0  0  0  0  0  0  0  0  0  0
  188.2270  177.8550  144.4980 C   0  0  0  0  0  0  0  0  0  0  0  0
  185.0190  178.3000  142.7120 C   0  0  0  0  0  0  0  0  0  0  0  0
  188.2070  177.4360  146.8530 C   0  0  0  0  0  3  0  0  0  0  0  0
  188.1080  178.6250  137.9590 C   0  0  0  0  0  2  0  0  0  0  0  0
  188.7640  178.1490  143.2240 C   0  0  0  0  0  0  0  0  0  0  0  0
  191.2290  176.1700  143.8250 C   0  0  0  0  0  1  0  0  0  0  0  0
  185.0020  178.6840  145.8570 C   0  0  0  0  0  3  0  0  0  0  0  0
  186.8520  177.4090  146.8790 C   0  0  0  0  0  3  0  0  0  0  0  0
  190.2410  178.3280  143.0430 C   0  0  0  0  0  2  0  0  0  0  0  0
  185.8330  178.6290  139.2100 C   0  0  1  0  0  3  0  0  0  0  0  0
  185.7910  177.8610  140.4420 C   0  0  1  0  0  3  0  0  0  0  0  0
  185.9730  177.5800  145.6380 C   0  0  2  0  0  3  0  0  0  0  0  0
  187.7350  178.3580  142.4010 C   0  0  0  0  0  0  0  0  0  0  0  0
  190.3350  177.6920  145.4740 O   0  0  0  0  0  0  0  0  0  0  0  0
  183.9820  178.6370  143.5300 C   0  0  0  0  0  0  0  0  0  0  0  0
  192.3740  178.2820  144.3320 C   0  0  0  0  0  1  0  0  0  0  0  0
  186.5520  179.1280  140.4130 N   0  0  1  0  0  0  0  0  0  0  0  0
  186.4110  177.0270  137.5730 O   0  0  0  0  0  0  0  0  0  0  0  0
  187.8720  178.7200  140.9330 C   0  0  2  0  0  3  0  0  0  0  0  0
  184.1330  179.1060  144.9360 C   0  0  0  0  0  3  0  0  0  0  0  0
  181.4970  178.7190  143.8570 C   0  0  0  0  0  3  0  0  0  0  0  0
  182.6010  178.7210  142.9870 C   0  0  0  0  0  0  0  0  0  0  0  0
  182.3720  178.7530  141.6020 C   0  0  0  0  0  3  0  0  0  0  0  0
  180.8530  178.8440  139.6920 N   0  0  0  0  0  1  0  0  0  0  0  0
  179.9820  178.8140  141.9720 C   0  0  0  0  0  3  0  0  0  0  0  0
  181.0700  178.8040  141.0970 C   0  0  0  0  0  0  0  0  0  0  0  0
  180.1950  178.7700  143.3510 C   0  0  0  0  0  3  0  0  0  0  0  0
  191.0010  176.5700  139.0640 C   0  0  0  0  0  1  0  0  0  0  0  0
  189.8170  177.0180  138.2280 C   0  0  0  0  0  2  0  0  0  0  0  0
  1 27  1  0  0  0  0
  2 24  1  0  0  0  0
  2 22  1  0  0  0  0
  3  9  1  0  0  0  0
  3 20  1  0  0  0  0
  4  1  1  0  0  0  0
  5 10  1  0  0  0  0
  6 11  1  0  0  0  0
  7  3  2  0  0  0  0
  9  6  2  0  0  0  0
 10  7  1  0  0  0  0
 10 23  2  0  0  0  0
 11 16  2  0  0  0  0
 12  8  1  0  0  0  0
 12  4  1  0  0  0  0
 13  9  1  0  0  0  0
 14  2  1  0  0  0  0
 17 13  1  0  0  0  0
 17  2  1  0  0  0  0
 18  8  1  6  0  0  0
 18 25  1  0  0  0  0
 18 19  1  0  0  0  0
 19  5  1  1  0  0  0
 20 15  1  1  0  0  0
 20 16  1  0  0  0  0
 21  7  1  0  0  0  0
 21 13  2  0  0  0  0
 22  6  1  0  0  0  0
 23 28  1  0  0  0  0
 25 19  1  0  0  0  0
 25 27  1  0  0  0  0
 26  8  2  0  0  0  0
 27 21  1  0  0  0  0
 28 15  2  0  0  0  0
 30 23  1  0  0  0  0
 30 29  2  0  0  0  0
 31 30  1  0  0  0  0
 32 34  1  0  0  0  0
 33 35  2  0  0  0  0
 34 31  2  0  0  0  0
 34 33  1  0  0  0  0
 35 29  1  0  0  0  0
 37  4  1  0  0  0  0
 37 36  1  0  0  0  0
M  END
>  <MODEL>
1

>  <REMARK>
 VINA RESULT:     -10.9      0.000      0.000
  Name = 
  2 active torsions:
  status: ('A' for Active; 'I' for Inactive)
    1  A    between atoms: N_5  and  C_23
    2  A    between atoms: C_6  and  C_31
                            x       y       z     vdW  Elec       q    Type
                         _______ _______ _______ _____ _____    ______ ____

>  <TORSDO>
F 2

$$$$
=
 OpenBabel10272414463D

 37 44  0  0  1  0  0  0  0  0999 V2000
  189.4890  177.1010  139.1700 C   0  0  0  0  0  2  0  0  0  0  0  0
  190.5770  177.4590  143.7400 C   0  0  0  0  0  0  0  0  0  0  0  0
  186.5350  178.0420  142.6550 C   0  0  0  0  0  0  0  0  0  0  0  0
  190.4260  177.4040  138.0830 N   0  0  0  0  0  0  0  0  0  0  0  0
  185.5040  177.9950  139.0730 O   0  0  0  0  0  0  0  0  0  0  0  0
  188.1940  177.8120  144.4130 C   0  0  0  0  0  0  0  0  0  0  0  0
  186.5950  178.2100  141.3370 C   0  0  0  0  0  0  0  0  0  0  0  0
  188.3410  177.3690  136.7190 C   0  0  0  0  0  0  0  0  0  0  0  0
  187.8620  177.9190  143.1500 C   0  0  0  0  0  0  0  0  0  0  0  0
  185.3910  178.3520  140.4330 C   0  0  0  0  0  0  0  0  0  0  0  0
  187.1040  177.8100  145.4150 C   0  0  0  0  0  3  0  0  0  0  0  0
  189.7620  177.8450  136.8450 C   0  0  0  0  0  2  0  0  0  0  0  0
  188.7800  178.0080  142.0780 C   0  0  0  0  0  0  0  0  0  0  0  0
  190.7340  175.9550  143.6030 C   0  0  0  0  0  1  0  0  0  0  0  0
  184.4860  179.1400  143.3650 C   0  0  0  0  0  3  0  0  0  0  0  0
  185.8070  177.8810  145.0290 C   0  0  0  0  0  3  0  0  0  0  0  0
  190.2540  178.0580  142.3400 C   0  0  0  0  0  2  0  0  0  0  0  0
  187.2330  178.1690  137.3330 C   0  0  1  0  0  3  0  0  0  0  0  0
  186.7470  177.5710  138.5640 C   0  0  1  0  0  3  0  0  0  0  0  0
  185.3560  177.9520  143.5670 C   0  0  2  0  0  3  0  0  0  0  0  0
  188.0680  178.1800  140.9630 C   0  0  0  0  0  0  0  0  0  0  0  0
  189.5590  177.7370  144.7350 O   0  0  0  0  0  0  0  0  0  0  0  0
  184.1990  178.8640  140.8560 C   0  0  0  0  0  0  0  0  0  0  0  0
  191.8940  178.0300  144.2170 C   0  0  0  0  0  1  0  0  0  0  0  0
  187.6120  178.7680  138.6410 N   0  0  1  0  0  0  0  0  0  0  0  0
  188.0950  176.3330  136.1230 O   0  0  0  0  0  0  0  0  0  0  0  0
  188.6690  178.3390  139.5790 C   0  0  2  0  0  3  0  0  0  0  0  0
  183.9780  179.5000  142.1850 C   0  0  0  0  0  3  0  0  0  0  0  0
  182.9320  180.1020  139.0820 C   0  0  0  0  0  3  0  0  0  0  0  0
  183.0580  178.9730  139.9110 C   0  0  0  0  0  0  0  0  0  0  0  0
  182.0630  177.9840  139.8640 C   0  0  0  0  0  3  0  0  0  0  0  0
  179.9820  177.0920  138.9490 N   0  0  0  0  0  1  0  0  0  0  0  0
  180.8700  179.2260  138.1650 C   0  0  0  0  0  3  0  0  0  0  0  0
  180.9780  178.1060  138.9920 C   0  0  0  0  0  0  0  0  0  0  0  0
  181.8460  180.2250  138.2110 C   0  0  0  0  0  3  0  0  0  0  0  0
  192.6270  176.3780  137.9690 C   0  0  0  0  0  1  0  0  0  0  0  0
  191.1350  176.1710  137.7860 C   0  0  0  0  0  2  0  0  0  0  0  0
  1 27  1  0  0  0  0
  2 24  1  0  0  0  0
  2 22  1  0  0  0  0
  3  9  1  0  0  0  0
  3 20  1  0  0  0  0
  4  1  1  0  0  0  0
  5 10  1  0  0  0  0
  6 22  1  0  0  0  0
  6 11  1  0  0  0  0
  7  3  2  0  0  0  0
  8 12  1  0  0  0  0
  9  6  2  0  0  0  0
 10 23  2  0  0  0  0
 10  7  1  0  0  0  0
 12  4  1  0  0  0  0
 13 17  1  0  0  0  0
 13  9  1  0  0  0  0
 14  2  1  0  0  0  0
 16 11  2  0  0  0  0
 17  2  1  0  0  0  0
 18  8  1  1  0  0  0
 18 19  1  0  0  0  0
 18 25  1  0  0  0  0
 19 25  1  0  0  0  0
 19  5  1  6  0  0  0
 20 15  1  1  0  0  0
 20 16  1  0  0  0  0
 21  7  1  0  0  0  0
 21 13  2  0  0  0  0
 23 28  1  0  0  0  0
 25 27  1  0  0  0  0
 26  8  2  0  0  0  0
 27 21  1  0  0  0  0
 28 15  2  0  0  0  0
 29 30  1  0  0  0  0
 30 23  1  0  0  0  0
 31 30  2  0  0  0  0
 32 34  1  0  0  0  0
 33 35  1  0  0  0  0
 33 34  2  0  0  0  0
 34 31  1  0  0  0  0
 35 29  2  0  0  0  0
 37 36  1  0  0  0  0
 37  4  1  0  0  0  0
M  END
>  <MODEL>
2

>  <REMARK>
 VINA RESULT:     -10.3      1.594      2.340
  Name = 
  2 active torsions:
  status: ('A' for Active; 'I' for Inactive)
    1  A    between atoms: N_5  and  C_23
    2  A    between atoms: C_6  and  C_31
                            x       y       z     vdW  Elec       q    Type
                         _______ _______ _______ _____ _____    ______ ____

>  <TORSDO>
F 2

$$$$
=
 OpenBabel10272414463D

 37 44  0  0  1  0  0  0  0  0999 V2000
  184.6450  178.0430  139.1330 C   0  0  0  0  0  2  0  0  0  0  0  0
  188.5110  177.6110  136.4740 C   0  0  0  0  0  0  0  0  0  0  0  0
  189.0040  177.4030  140.6660 C   0  0  0  0  0  0  0  0  0  0  0  0
  183.4610  178.8070  138.7300 N   0  0  0  0  0  0  0  0  0  0  0  0
  186.1010  177.9170  142.9480 O   0  0  0  0  0  0  0  0  0  0  0  0
  189.9840  177.1990  138.4530 C   0  0  0  0  0  0  0  0  0  0  0  0
  187.8510  177.8750  141.1320 C   0  0  2  0  0  3  0  0  0  0  0  0
  182.8920  178.5670  141.1440 C   0  0  0  0  0  0  0  0  0  0  0  0
  188.9880  177.5050  139.2480 C   0  0  0  0  0  0  0  0  0  0  0  0
  187.4670  177.9160  142.5940 C   0  0  0  0  0  0  0  0  0  0  0  0
  191.2330  176.6990  139.0740 C   0  0  0  0  0  3  0  0  0  0  0  0
  182.6930  179.3390  139.8690 C   0  0  0  0  0  2  0  0  0  0  0  0
  187.7580  178.0600  138.8250 C   0  0  0  0  0  0  0  0  0  0  0  0
  187.8850  176.2650  136.1560 C   0  0  0  0  0  1  0  0  0  0  0  0
  190.6280  177.7670  142.4380 C   0  0  0  0  0  3  0  0  0  0  0  0
  191.3210  176.5320  140.4150 C   0  0  0  0  0  3  0  0  0  0  0  0
  187.5370  178.4130  137.3860 C   0  0  0  0  0  2  0  0  0  0  0  0
  184.0380  178.9060  142.0470 C   0  0  1  0  0  3  0  0  0  0  0  0
  185.1200  177.9420  141.9380 C   0  0  1  0  0  3  0  0  0  0  0  0
  190.1740  176.8190  141.3870 C   0  0  0  0  0  0  0  0  0  0  0  0
  187.0350  178.2990  139.9210 C   0  0  0  0  0  0  0  0  0  0  0  0
  189.8140  177.3940  137.0730 O   0  0  0  0  0  0  0  0  0  0  0  0
  188.3820  178.0060  143.6010 C   0  0  0  0  0  0  0  0  0  0  0  0
  188.6910  178.3680  135.1760 C   0  0  0  0  0  1  0  0  0  0  0  0
  185.2720  179.2660  141.2990 N   0  0  1  0  0  0  0  0  0  0  0  0
  182.1220  177.6650  141.4370 O   0  0  0  0  0  0  0  0  0  0  0  0
  185.6470  178.9120  139.9160 C   0  0  2  0  0  3  0  0  0  0  0  0
  189.8390  178.2480  143.4000 C   0  0  0  0  0  3  0  0  0  0  0  0
  188.8070  177.6580  146.0470 C   0  0  0  0  0  3  0  0  0  0  0  0
  187.9310  178.0410  145.0170 C   0  0  0  0  0  0  0  0  0  0  0  0
  186.6150  178.4050  145.3460 C   0  0  0  0  0  3  0  0  0  0  0  0
  184.8570  178.7880  146.9960 N   0  0  0  0  0  1  0  0  0  0  0  0
  187.0730  178.0390  147.6930 C   0  0  0  0  0  3  0  0  0  0  0  0
  186.1900  178.4090  146.6770 C   0  0  0  0  0  0  0  0  0  0  0  0
  188.3800  177.6610  147.3790 C   0  0  0  0  0  3  0  0  0  0  0  0
  183.2260  176.5100  137.9680 C   0  0  0  0  0  1  0  0  0  0  0  0
  182.5950  177.8900  138.0080 C   0  0  0  0  0  2  0  0  0  0  0  0
  1 27  1  0  0  0  0
  2 22  1  0  0  0  0
  2 17  1  0  0  0  0
  3  7  1  0  0  0  0
  3 20  1  0  0  0  0
  4  1  1  0  0  0  0
  4 12  1  0  0  0  0
  6 11  2  0  0  0  0
  6  9  1  0  0  0  0
  7 21  1  6  0  0  0
  7 10  1  0  0  0  0
  8 26  2  0  0  0  0
  9  3  2  0  0  0  0
 10  5  1  0  0  0  0
 10 23  2  0  0  0  0
 11 16  1  0  0  0  0
 12  8  1  0  0  0  0
 13  9  1  0  0  0  0
 13 21  2  0  0  0  0
 14  2  1  0  0  0  0
 15 28  2  0  0  0  0
 16 20  2  0  0  0  0
 17 13  1  0  0  0  0
 18  8  1  6  0  0  0
 19 18  1  0  0  0  0
 19  5  1  1  0  0  0
 20 15  1  0  0  0  0
 22  6  1  0  0  0  0
 23 30  1  0  0  0  0
 24  2  1  0  0  0  0
 25 19  1  0  0  0  0
 25 18  1  0  0  0  0
 27 21  1  0  0  0  0
 27 25  1  0  0  0  0
 28 23  1  0  0  0  0
 29 35  1  0  0  0  0
 30 31  1  0  0  0  0
 30 29  2  0  0  0  0
 31 34  2  0  0  0  0
 34 32  1  0  0  0  0
 34 33  1  0  0  0  0
 35 33  2  0  0  0  0
 36 37  1  0  0  0  0
 37  4  1  0  0  0  0
M  END
>  <MODEL>
3

>  <REMARK>
 VINA RESULT:     -10.0      2.036      6.267
  Name = 
  2 active torsions:
  status: ('A' for Active; 'I' for Inactive)
    1  A    between atoms: N_5  and  C_23
    2  A    between atoms: C_6  and  C_31
                            x       y       z     vdW  Elec       q    Type
                         _______ _______ _______ _____ _____    ______ ____

>  <TORSDO>
F 2

$$$$
=
 OpenBabel10272414463D

 37 44  0  0  1  0  0  0  0  0999 V2000
  188.8450  177.8420  141.1410 C   0  0  0  0  0  2  0  0  0  0  0  0
  184.3150  178.5030  142.2580 C   0  0  0  0  0  0  0  0  0  0  0  0
  187.0450  177.9940  145.4420 C   0  0  0  0  0  0  0  0  0  0  0  0
  189.2930  177.2170  139.8930 N   0  0  0  0  0  0  0  0  0  0  0  0
  190.6380  177.2640  144.7660 O   0  0  0  0  0  0  0  0  0  0  0  0
  184.7860  178.5070  144.7140 C   0  0  0  0  0  0  0  0  0  0  0  0
  188.1290  177.5120  144.8400 C   0  0  0  0  0  0  0  0  0  0  0  0
  191.4570  177.0870  141.1220 C   0  0  0  0  0  0  0  0  0  0  0  0
  186.0170  178.1280  144.4700 C   0  0  0  0  0  0  0  0  0  0  0  0
  189.4510  177.2510  145.5280 C   0  0  0  0  0  0  0  0  0  0  0  0
  184.4300  178.8330  146.1140 C   0  0  0  0  0  3  0  0  0  0  0  0
  190.5990  176.5460  140.0120 C   0  0  0  0  0  2  0  0  0  0  0  0
  186.5000  177.7140  143.2070 C   0  0  0  0  0  0  0  0  0  0  0  0
  184.6250  179.9130  141.7900 C   0  0  0  0  0  1  0  0  0  0  0  0
  187.1970  177.2600  147.7550 C   0  0  0  0  0  3  0  0  0  0  0  0
  185.3590  178.7730  147.0980 C   0  0  0  0  0  3  0  0  0  0  0  0
  185.5730  177.6140  142.0340 C   0  0  0  0  0  2  0  0  0  0  0  0
  191.3040  176.5450  142.5110 C   0  0  1  0  0  3  0  0  0  0  0  0
  190.5700  177.4560  143.3720 C   0  0  1  0  0  3  0  0  0  0  0  0
  186.8230  178.3900  146.8650 C   0  0  2  0  0  3  0  0  0  0  0  0
  187.7680  177.3360  143.3740 C   0  0  0  0  0  0  0  0  0  0  0  0
  183.8820  178.5510  143.6410 O   0  0  0  0  0  0  0  0  0  0  0  0
  189.5520  176.9500  146.8540 C   0  0  0  0  0  0  0  0  0  0  0  0
  183.1840  177.9610  141.4100 C   0  0  0  0  0  1  0  0  0  0  0  0
  189.8880  176.2490  142.8590 N   0  0  1  0  0  0  0  0  0  0  0  0
  192.2710  177.9670  140.8910 O   0  0  0  0  0  0  0  0  0  0  0  0
  188.6570  176.8060  142.2650 C   0  0  2  0  0  3  0  0  0  0  0  0
  188.3930  176.6700  147.7470 C   0  0  0  0  0  3  0  0  0  0  0  0
  191.6580  175.6050  147.0570 C   0  0  0  0  0  3  0  0  0  0  0  0
  190.8860  176.7070  147.4630 C   0  0  0  0  0  0  0  0  0  0  0  0
  191.3760  177.5390  148.4830 C   0  0  0  0  0  3  0  0  0  0  0  0
  193.1060  178.1440  150.0960 N   0  0  0  0  0  1  0  0  0  0  0  0
  193.3820  176.1970  148.6500 C   0  0  0  0  0  3  0  0  0  0  0  0
  192.6190  177.2880  149.0700 C   0  0  0  0  0  0  0  0  0  0  0  0
  192.9010  175.3540  147.6460 C   0  0  0  0  0  3  0  0  0  0  0  0
  189.7290  177.6960  137.5500 C   0  0  0  0  0  1  0  0  0  0  0  0
  189.4360  178.2850  138.9170 C   0  0  0  0  0  2  0  0  0  0  0  0
  1 27  1  0  0  0  0
  2 22  1  0  0  0  0
  3 20  1  0  0  0  0
  4 12  1  0  0  0  0
  4  1  1  0  0  0  0
  5 10  1  0  0  0  0
  6 11  1  0  0  0  0
  7  3  2  0  0  0  0
  7 10  1  0  0  0  0
  9  6  2  0  0  0  0
  9  3  1  0  0  0  0
 10 23  2  0  0  0  0
 11 16  2  0  0  0  0
 12  8  1  0  0  0  0
 13 21  2  0  0  0  0
 13  9  1  0  0  0  0
 14  2  1  0  0  0  0
 17  2  1  0  0  0  0
 17 13  1  0  0  0  0
 18  8  1  6  0  0  0
 18 25  1  0  0  0  0
 18 19  1  0  0  0  0
 19  5  1  1  0  0  0
 20 16  1  6  0  0  0
 20 15  1  0  0  0  0
 21  7  1  0  0  0  0
 22  6  1  0  0  0  0
 23 30  1  0  0  0  0
 23 28  1  0  0  0  0
 24  2  1  0  0  0  0
 25 19  1  0  0  0  0
 26  8  2  0  0  0  0
 27 25  1  0  0  0  0
 27 21  1  0  0  0  0
 28 15  2  0  0  0  0
 29 30  2  0  0  0  0
 29 35  1  0  0  0  0
 30 31  1  0  0  0  0
 31 34  2  0  0  0  0
 33 34  1  0  0  0  0
 34 32  1  0  0  0  0
 35 33  2  0  0  0  0
 36 37  1  0  0  0  0
 37  4  1  0  0  0  0
M  END
>  <MODEL>
4

>  <REMARK>
 VINA RESULT:      -9.9      2.958      7.234
  Name = 
  2 active torsions:
  status: ('A' for Active; 'I' for Inactive)
    1  A    between atoms: N_5  and  C_23
    2  A    between atoms: C_6  and  C_31
                            x       y       z     vdW  Elec       q    Type
                         _______ _______ _______ _____ _____    ______ ____

>  <TORSDO>
F 2

$$$$
=
 OpenBabel10272414463D

 37 44  0  0  1  0  0  0  0  0999 V2000
  188.4900  177.9290  140.1430 C   0  0  0  0  0  2  0  0  0  0  0  0
  183.8160  178.5170  140.0450 C   0  0  0  0  0  0  0  0  0  0  0  0
  185.6920  178.5070  143.8310 C   0  0  0  0  0  0  0  0  0  0  0  0
  189.2380  177.1820  139.1280 N   0  0  0  0  0  0  0  0  0  0  0  0
  189.3520  177.8620  144.1360 O   0  0  0  0  0  0  0  0  0  0  0  0
  183.6730  178.8310  142.5220 C   0  0  0  0  0  0  0  0  0  0  0  0
  186.8970  178.0060  143.5720 C   0  0  0  0  0  0  0  0  0  0  0  0
  191.0380  177.2930  140.8480 C   0  0  0  0  0  0  0  0  0  0  0  0
  184.9310  178.4810  142.6300 C   0  0  0  0  0  0  0  0  0  0  0  0
  188.0140  177.8870  144.5850 C   0  0  0  0  0  0  0  0  0  0  0  0
  182.9810  179.3040  143.7430 C   0  0  0  0  0  3  0  0  0  0  0  0
  190.4850  176.5880  139.6400 C   0  0  0  0  0  2  0  0  0  0  0  0
  185.7130  177.9420  141.5830 C   0  0  0  0  0  0  0  0  0  0  0  0
  184.2110  179.8750  139.4920 C   0  0  0  0  0  1  0  0  0  0  0  0
  185.2850  178.0590  146.1840 C   0  0  0  0  0  3  0  0  0  0  0  0
  183.6420  179.4020  144.9210 C   0  0  0  0  0  3  0  0  0  0  0  0
  185.1030  177.6640  140.2430 C   0  0  0  0  0  2  0  0  0  0  0  0
  190.5580  176.9120  142.2150 C   0  0  1  0  0  3  0  0  0  0  0  0
  189.6240  177.8850  142.7540 C   0  0  1  0  0  3  0  0  0  0  0  0
  185.1240  179.0590  145.0960 C   0  0  2  0  0  3  0  0  0  0  0  0
  186.9080  177.6430  142.0960 C   0  0  0  0  0  0  0  0  0  0  0  0
  183.0570  178.7090  141.2660 O   0  0  0  0  0  0  0  0  0  0  0  0
  187.7930  177.7490  145.9230 C   0  0  0  0  0  0  0  0  0  0  0  0
  182.9340  177.8300  139.0250 C   0  0  0  0  0  1  0  0  0  0  0  0
  189.1040  176.5970  142.2470 N   0  0  1  0  0  0  0  0  0  0  0  0
  191.8710  178.1740  140.7110 O   0  0  0  0  0  0  0  0  0  0  0  0
  188.0480  177.0250  141.3090 C   0  0  2  0  0  3  0  0  0  0  0  0
  186.4550  177.5250  146.5390 C   0  0  0  0  0  3  0  0  0  0  0  0
  188.9350  178.3490  148.0730 C   0  0  0  0  0  3  0  0  0  0  0  0
  188.9410  177.6380  146.8600 C   0  0  0  0  0  0  0  0  0  0  0  0
  190.0690  176.8680  146.5320 C   0  0  0  0  0  3  0  0  0  0  0  0
  192.2880  176.0000  147.0650 N   0  0  0  0  0  1  0  0  0  0  0  0
  191.1330  177.4910  148.6140 C   0  0  0  0  0  3  0  0  0  0  0  0
  191.1560  176.7900  147.4070 C   0  0  0  0  0  0  0  0  0  0  0  0
  190.0230  178.2710  148.9470 C   0  0  0  0  0  3  0  0  0  0  0  0
  188.3540  178.5930  137.3570 C   0  0  0  0  0  1  0  0  0  0  0  0
  189.6000  178.1320  138.0890 C   0  0  0  0  0  2  0  0  0  0  0  0
  1 27  1  0  0  0  0
  2 17  1  0  0  0  0
  2 22  1  0  0  0  0
  3 20  1  0  0  0  0
  4 12  1  0  0  0  0
  4  1  1  0  0  0  0
  5 10  1  0  0  0  0
  6  9  2  0  0  0  0
  6 11  1  0  0  0  0
  7  3  2  0  0  0  0
  7 10  1  0  0  0  0
  9  3  1  0  0  0  0
 10 23  2  0  0  0  0
 11 16  2  0  0  0  0
 12  8  1  0  0  0  0
 13 21  2  0  0  0  0
 13  9  1  0  0  0  0
 14  2  1  0  0  0  0
 15 28  2  0  0  0  0
 17 13  1  0  0  0  0
 18  8  1  6  0  0  0
 18 25  1  0  0  0  0
 18 19  1  0  0  0  0
 19  5  1  1  0  0  0
 20 16  1  6  0  0  0
 20 15  1  0  0  0  0
 21  7  1  0  0  0  0
 22  6  1  0  0  0  0
 23 28  1  0  0  0  0
 23 30  1  0  0  0  0
 24  2  1  0  0  0  0
 25 19  1  0  0  0  0
 26  8  2  0  0  0  0
 27 21  1  0  0  0  0
 27 25  1  0  0  0  0
 29 35  1  0  0  0  0
 30 29  2  0  0  0  0
 31 30  1  0  0  0  0
 31 34  2  0  0  0  0
 32 34  1  0  0  0  0
 33 35  2  0  0  0  0
 34 33  1  0  0  0  0
 36 37  1  0  0  0  0
 37  4  1  0  0  0  0
M  END
>  <MODEL>
5

>  <REMARK>
 VINA RESULT:      -9.8      2.330      6.583
  Name = 
  2 active torsions:
  status: ('A' for Active; 'I' for Inactive)
    1  A    between atoms: N_5  and  C_23
    2  A    between atoms: C_6  and  C_31
                            x       y       z     vdW  Elec       q    Type
                         _______ _______ _______ _____ _____    ______ ____

>  <TORSDO>
F 2

$$$$
=
 OpenBabel10272414463D

 37 44  0  0  1  0  0  0  0  0999 V2000
  186.7700  178.3750  144.7450 C   0  0  0  0  0  2  0  0  0  0  0  0
  190.9590  176.9480  143.1260 C   0  0  0  0  0  0  0  0  0  0  0  0
  188.0610  178.0910  140.2710 C   0  0  0  0  0  0  0  0  0  0  0  0
  186.1850  177.9130  146.0070 N   0  0  0  0  0  0  0  0  0  0  0  0
  184.6230  179.0620  141.3380 O   0  0  0  0  0  0  0  0  0  0  0  0
  190.3440  177.4140  140.7460 C   0  0  0  0  0  0  0  0  0  0  0  0
  186.9330  178.1150  140.9750 C   0  0  0  0  0  0  0  0  0  0  0  0
  184.1250  178.9310  145.0410 C   0  0  0  0  0  0  0  0  0  0  0  0
  189.1060  177.6320  141.1180 C   0  0  2  0  0  3  0  0  0  0  0  0
  185.5940  178.5720  140.4390 C   0  0  0  0  0  0  0  0  0  0  0  0
  190.6940  177.6720  139.3310 C   0  0  0  0  0  3  0  0  0  0  0  0
  184.7120  177.9450  146.0140 C   0  0  0  0  0  2  0  0  0  0  0  0
  188.5920  177.3700  142.4090 C   0  0  0  0  0  0  0  0  0  0  0  0
  191.3970  178.2860  143.6940 C   0  0  0  0  0  1  0  0  0  0  0  0
  187.3860  177.7450  137.9610 C   0  0  0  0  0  3  0  0  0  0  0  0
  189.7700  178.1500  138.4640 C   0  0  0  0  0  3  0  0  0  0  0  0
  189.4530  176.7330  143.4560 C   0  0  0  0  0  2  0  0  0  0  0  0
  183.8860  178.5200  143.6200 C   0  0  1  0  0  3  0  0  0  0  0  0
  184.8900  179.0620  142.7210 C   0  0  1  0  0  3  0  0  0  0  0  0
  188.3250  178.4760  138.8530 C   0  0  0  0  0  0  0  0  0  0  0  0
  187.2880  177.6470  142.3780 C   0  0  0  0  0  0  0  0  0  0  0  0
  191.2460  176.9240  141.7040 O   0  0  0  0  0  0  0  0  0  0  0  0
  185.2510  178.4850  139.1220 C   0  0  0  0  0  0  0  0  0  0  0  0
  191.7620  175.8600  143.8040 C   0  0  0  0  0  1  0  0  0  0  0  0
  184.9560  177.6320  143.0910 N   0  0  1  0  0  0  0  0  0  0  0  0
  183.8500  180.0610  145.4100 O   0  0  0  0  0  0  0  0  0  0  0  0
  186.3490  177.4870  143.5590 C   0  0  2  0  0  3  0  0  0  0  0  0
  186.0590  177.7850  138.0840 C   0  0  0  0  0  3  0  0  0  0  0  0
  183.0390  178.0690  138.0200 C   0  0  0  0  0  3  0  0  0  0  0  0
  183.9170  178.9550  138.6670 C   0  0  0  0  0  0  0  0  0  0  0  0
  183.5310  180.2950  138.8290 C   0  0  0  0  0  3  0  0  0  0  0  0
  181.9040  182.0950  138.5520 N   0  0  0  0  0  1  0  0  0  0  0  0
  181.4160  179.8440  137.7430 C   0  0  0  0  0  3  0  0  0  0  0  0
  182.2850  180.7370  138.3740 C   0  0  0  0  0  0  0  0  0  0  0  0
  181.7930  178.5120  137.5640 C   0  0  0  0  0  3  0  0  0  0  0  0
  187.6790  178.1260  147.9120 C   0  0  0  0  0  1  0  0  0  0  0  0
  186.6490  178.8210  147.0420 C   0  0  0  0  0  2  0  0  0  0  0  0
  1  4  1  0  0  0  0
  2 17  1  0  0  0  0
  2 14  1  0  0  0  0
  2 24  1  0  0  0  0
  3  7  2  0  0  0  0
  4 12  1  0  0  0  0
  4 37  1  0  0  0  0
  6  9  1  0  0  0  0
  6 22  1  0  0  0  0
  7 21  1  0  0  0  0
  8 26  2  0  0  0  0
  8 12  1  0  0  0  0
  9  3  1  6  0  0  0
  9 13  1  0  0  0  0
 10  7  1  0  0  0  0
 10  5  1  0  0  0  0
 11  6  2  0  0  0  0
 13 17  1  0  0  0  0
 15 28  2  0  0  0  0
 15 20  1  0  0  0  0
 16 20  2  0  0  0  0
 16 11  1  0  0  0  0
 18  8  1  1  0  0  0
 19  5  1  6  0  0  0
 19 25  1  0  0  0  0
 19 18  1  0  0  0  0
 20  3  1  0  0  0  0
 21 13  2  0  0  0  0
 21 27  1  0  0  0  0
 22  2  1  0  0  0  0
 23 10  2  0  0  0  0
 25 27  1  0  0  0  0
 25 18  1  0  0  0  0
 27  1  1  0  0  0  0
 28 23  1  0  0  0  0
 29 30  1  0  0  0  0
 30 31  2  0  0  0  0
 30 23  1  0  0  0  0
 33 34  2  0  0  0  0
 34 32  1  0  0  0  0
 34 31  1  0  0  0  0
 35 33  1  0  0  0  0
 35 29  2  0  0  0  0
 37 36  1  0  0  0  0
M  END
>  <MODEL>
6

>  <REMARK>
 VINA RESULT:      -9.7      2.243      5.503
  Name = 
  2 active torsions:
  status: ('A' for Active; 'I' for Inactive)
    1  A    between atoms: N_5  and  C_23
    2  A    between atoms: C_6  and  C_31
                            x       y       z     vdW  Elec       q    Type
                         _______ _______ _______ _____ _____    ______ ____

>  <TORSDO>
F 2

$$$$
=
 OpenBabel10272414463D

 37 44  0  0  1  0  0  0  0  0999 V2000
  189.0330  177.3500  144.0210 C   0  0  0  0  0  2  0  0  0  0  0  0
  184.8600  179.3460  143.1250 C   0  0  0  0  0  0  0  0  0  0  0  0
  187.1370  178.0380  139.8140 C   0  0  0  0  0  0  0  0  0  0  0  0
  189.8530  177.6680  145.1940 N   0  0  0  0  0  0  0  0  0  0  0  0
  190.5480  176.6130  140.2990 O   0  0  0  0  0  0  0  0  0  0  0  0
  185.0520  178.9490  140.6630 C   0  0  0  0  0  0  0  0  0  0  0  0
  188.3450  177.8430  140.3350 C   0  0  0  0  0  0  0  0  0  0  0  0
  191.6030  176.4740  143.8830 C   0  0  0  0  0  0  0  0  0  0  0  0
  186.2940  178.5670  140.8300 C   0  0  2  0  0  3  0  0  0  0  0  0
  189.5230  177.2640  139.5810 C   0  0  0  0  0  0  0  0  0  0  0  0
  184.4660  178.8150  139.3100 C   0  0  0  0  0  3  0  0  0  0  0  0
  191.2950  177.4630  144.9720 C   0  0  0  0  0  2  0  0  0  0  0  0
  187.0240  178.6930  142.0350 C   0  0  0  0  0  0  0  0  0  0  0  0
  184.3490  178.0380  143.7020 C   0  0  0  0  0  1  0  0  0  0  0  0
  187.4980  178.4350  137.4440 C   0  0  0  0  0  3  0  0  0  0  0  0
  185.1840  178.2820  138.2920 C   0  0  0  0  0  3  0  0  0  0  0  0
  186.4130  179.3650  143.2270 C   0  0  0  0  0  2  0  0  0  0  0  0
  191.6770  176.9340  142.4590 C   0  0  1  0  0  3  0  0  0  0  0  0
  190.4920  176.5650  141.7060 C   0  0  1  0  0  3  0  0  0  0  0  0
  186.6190  177.7690  138.4400 C   0  0  0  0  0  0  0  0  0  0  0  0
  188.2640  178.2670  141.7920 C   0  0  0  0  0  0  0  0  0  0  0  0
  184.3700  179.4850  141.7670 O   0  0  0  0  0  0  0  0  0  0  0  0
  189.6740  177.3850  138.2310 C   0  0  0  0  0  0  0  0  0  0  0  0
  184.3080  180.4800  143.9610 C   0  0  0  0  0  1  0  0  0  0  0  0
  190.6590  177.9700  142.1360 N   0  0  1  0  0  0  0  0  0  0  0  0
  191.7880  175.2990  144.1610 O   0  0  0  0  0  0  0  0  0  0  0  0
  189.3810  178.2490  142.8190 C   0  0  2  0  0  3  0  0  0  0  0  0
  188.8140  178.2330  137.3580 C   0  0  0  0  0  3  0  0  0  0  0  0
  190.7750  176.3830  136.2140 C   0  0  0  0  0  3  0  0  0  0  0  0
  190.8570  176.7900  137.5570 C   0  0  0  0  0  0  0  0  0  0  0  0
  192.0550  176.5760  138.2580 C   0  0  0  0  0  3  0  0  0  0  0  0
  194.3640  175.7880  138.3460 N   0  0  0  0  0  1  0  0  0  0  0  0
  193.0650  175.6020  136.2880 C   0  0  0  0  0  3  0  0  0  0  0  0
  193.1550  175.9910  137.6260 C   0  0  0  0  0  0  0  0  0  0  0  0
  191.8760  175.7960  135.5830 C   0  0  0  0  0  3  0  0  0  0  0  0
  188.9680  177.5580  147.4560 C   0  0  0  0  0  1  0  0  0  0  0  0
  189.4390  176.7630  146.2530 C   0  0  0  0  0  2  0  0  0  0  0  0
  1  4  1  0  0  0  0
  2 17  1  0  0  0  0
  2 14  1  0  0  0  0
  2 24  1  0  0  0  0
  3  7  2  0  0  0  0
  4 37  1  0  0  0  0
  6  9  1  0  0  0  0
  6 22  1  0  0  0  0
  7 21  1  0  0  0  0
  8 26  2  0  0  0  0
  8 12  1  0  0  0  0
  9  3  1  6  0  0  0
  9 13  1  0  0  0  0
 10  5  1  0  0  0  0
 10  7  1  0  0  0  0
 11  6  2  0  0  0  0
 12  4  1  0  0  0  0
 13 17  1  0  0  0  0
 15 20  1  0  0  0  0
 16 20  2  0  0  0  0
 16 11  1  0  0  0  0
 18  8  1  1  0  0  0
 19  5  1  6  0  0  0
 19 25  1  0  0  0  0
 19 18  1  0  0  0  0
 20  3  1  0  0  0  0
 21 13  2  0  0  0  0
 21 27  1  0  0  0  0
 22  2  1  0  0  0  0
 23 10  2  0  0  0  0
 25 18  1  0  0  0  0
 25 27  1  0  0  0  0
 27  1  1  0  0  0  0
 28 15  2  0  0  0  0
 28 23  1  0  0  0  0
 29 30  1  0  0  0  0
 30 23  1  0  0  0  0
 30 31  2  0  0  0  0
 33 34  2  0  0  0  0
 34 31  1  0  0  0  0
 34 32  1  0  0  0  0
 35 29  2  0  0  0  0
 35 33  1  0  0  0  0
 37 36  1  0  0  0  0
M  END
>  <MODEL>
7

>  <REMARK>
 VINA RESULT:      -9.1      2.806      8.136
  Name = 
  2 active torsions:
  status: ('A' for Active; 'I' for Inactive)
    1  A    between atoms: N_5  and  C_23
    2  A    between atoms: C_6  and  C_31
                            x       y       z     vdW  Elec       q    Type
                         _______ _______ _______ _____ _____    ______ ____

>  <TORSDO>
F 2

$$$$
=
 OpenBabel10272414463D

 37 44  0  0  1  0  0  0  0  0999 V2000
  187.9460  177.5850  141.8340 C   0  0  0  0  0  2  0  0  0  0  0  0
  184.2430  178.4620  139.0560 C   0  0  0  0  0  0  0  0  0  0  0  0
  187.6590  176.7490  137.2530 C   0  0  0  0  0  0  0  0  0  0  0  0
  188.2570  178.3540  143.0430 N   0  0  0  0  0  0  0  0  0  0  0  0
  190.7600  176.1600  139.2380 O   0  0  0  0  0  0  0  0  0  0  0  0
  185.3450  177.4560  137.0490 C   0  0  0  0  0  0  0  0  0  0  0  0
  188.6080  176.9270  138.1690 C   0  0  2  0  0  3  0  0  0  0  0  0
  190.4500  177.1920  142.8180 C   0  0  0  0  0  0  0  0  0  0  0  0
  186.4670  177.3680  137.7200 C   0  0  0  0  0  0  0  0  0  0  0  0
  190.0190  176.3930  138.0600 C   0  0  0  0  0  0  0  0  0  0  0  0
  185.3020  176.8550  135.6950 C   0  0  0  0  0  3  0  0  0  0  0  0
  189.6920  178.3650  143.3750 C   0  0  0  0  0  2  0  0  0  0  0  0
  186.6980  177.9480  138.9890 C   0  0  0  0  0  0  0  0  0  0  0  0
  183.6590  177.2880  139.8210 C   0  0  0  0  0  1  0  0  0  0  0  0
  188.8250  176.5480  135.1300 C   0  0  0  0  0  3  0  0  0  0  0  0
  186.3800  176.2080  135.1890 C   0  0  0  0  0  3  0  0  0  0  0  0
  185.6470  178.7930  139.6410 C   0  0  0  0  0  2  0  0  0  0  0  0
  191.0010  177.2550  141.4260 C   0  0  1  0  0  3  0  0  0  0  0  0
  190.2010  176.4850  140.4890 C   0  0  1  0  0  3  0  0  0  0  0  0
  187.6980  176.0270  135.9470 C   0  0  0  0  0  0  0  0  0  0  0  0
  187.9710  177.7080  139.3070 C   0  0  0  0  0  0  0  0  0  0  0  0
  184.2700  178.1360  137.6430 O   0  0  0  0  0  0  0  0  0  0  0  0
  190.6400  176.1690  136.8670 C   0  0  0  0  0  0  0  0  0  0  0  0
  183.3400  179.6580  139.2630 C   0  0  0  0  0  1  0  0  0  0  0  0
  190.0930  177.9590  140.4810 N   0  0  1  0  0  0  0  0  0  0  0  0
  190.6110  176.1910  143.4990 O   0  0  0  0  0  0  0  0  0  0  0  0
  188.6360  178.1730  140.5890 C   0  0  2  0  0  3  0  0  0  0  0  0
  190.0930  176.5770  135.5420 C   0  0  0  0  0  3  0  0  0  0  0  0
  192.3100  174.3620  137.3450 C   0  0  0  0  0  3  0  0  0  0  0  0
  192.0290  175.6420  136.8370 C   0  0  0  0  0  0  0  0  0  0  0  0
  193.0880  176.4250  136.3500 C   0  0  0  0  0  3  0  0  0  0  0  0
  195.4570  176.7340  135.8460 N   0  0  0  0  0  1  0  0  0  0  0  0
  194.6600  174.6550  136.8460 C   0  0  0  0  0  3  0  0  0  0  0  0
  194.3960  175.9330  136.3500 C   0  0  0  0  0  0  0  0  0  0  0  0
  193.6190  173.8700  137.3460 C   0  0  0  0  0  3  0  0  0  0  0  0
  186.0790  178.0380  144.0750 C   0  0  0  0  0  1  0  0  0  0  0  0
  187.5580  177.7090  144.1420 C   0  0  0  0  0  2  0  0  0  0  0  0
  1  4  1  0  0  0  0
  2 24  1  0  0  0  0
  2 17  1  0  0  0  0
  2 14  1  0  0  0  0
  3  9  2  0  0  0  0
  4 12  1  0  0  0  0
  4 37  1  0  0  0  0
  6 22  1  0  0  0  0
  6  9  1  0  0  0  0
  7  3  1  1  0  0  0
  7 21  1  0  0  0  0
  8 12  1  0  0  0  0
  8 26  2  0  0  0  0
  9 13  1  0  0  0  0
 10  7  1  0  0  0  0
 10  5  1  0  0  0  0
 11  6  2  0  0  0  0
 13 21  2  0  0  0  0
 13 17  1  0  0  0  0
 15 28  2  0  0  0  0
 15 20  1  0  0  0  0
 16 11  1  0  0  0  0
 16 20  2  0  0  0  0
 18  8  1  1  0  0  0
 19  5  1  6  0  0  0
 19 18  1  0  0  0  0
 20  3  1  0  0  0  0
 21 27  1  0  0  0  0
 22  2  1  0  0  0  0
 23 10  2  0  0  0  0
 25 19  1  0  0  0  0
 25 27  1  0  0  0  0
 25 18  1  0  0  0  0
 27  1  1  0  0  0  0
 28 23  1  0  0  0  0
 29 35  1  0  0  0  0
 30 23  1  0  0  0  0
 30 29  2  0  0  0  0
 31 30  1  0  0  0  0
 32 34  1  0  0  0  0
 33 35  2  0  0  0  0
 34 31  2  0  0  0  0
 34 33  1  0  0  0  0
 36 37  1  0  0  0  0
M  END
>  <MODEL>
8

>  <REMARK>
 VINA RESULT:      -8.8      2.740      9.259
  Name = 
  2 active torsions:
  status: ('A' for Active; 'I' for Inactive)
    1  A    between atoms: N_5  and  C_23
    2  A    between atoms: C_6  and  C_31
                            x       y       z     vdW  Elec       q    Type
                         _______ _______ _______ _____ _____    ______ ____

>  <TORSDO>
F 2

$$$$
=
 OpenBabel10272414463D

 37 44  0  0  1  0  0  0  0  0999 V2000
  187.2390  177.7920  141.3070 C   0  0  0  0  0  2  0  0  0  0  0  0
  185.1250  178.7610  145.4050 C   0  0  0  0  0  0  0  0  0  0  0  0
  182.6980  178.6440  141.9490 C   0  0  0  0  0  0  0  0  0  0  0  0
  188.6390  178.1160  141.0170 N   0  0  0  0  0  0  0  0  0  0  0  0
  184.2080  178.0890  138.5850 O   0  0  0  0  0  0  0  0  0  0  0  0
  182.8520  178.8330  144.3650 C   0  0  0  0  0  0  0  0  0  0  0  0
  183.5810  178.6850  140.9550 C   0  0  0  0  0  0  0  0  0  0  0  0
  187.9190  177.6450  138.6790 C   0  0  0  0  0  0  0  0  0  0  0  0
  183.4030  178.7640  143.1780 C   0  0  0  0  0  0  0  0  0  0  0  0
  183.2320  178.5620  139.4880 C   0  0  0  0  0  0  0  0  0  0  0  0
  181.3740  178.7750  144.4440 C   0  0  0  0  0  3  0  0  0  0  0  0
  188.9050  178.3300  139.5840 C   0  0  0  0  0  2  0  0  0  0  0  0
  184.7890  178.8760  142.9220 C   0  0  0  0  0  0  0  0  0  0  0  0
  185.4030  177.2890  145.6540 C   0  0  0  0  0  1  0  0  0  0  0  0
  180.6220  179.5010  141.0190 C   0  0  0  0  0  3  0  0  0  0  0  0
  180.6250  178.6190  143.3250 C   0  0  0  0  0  3  0  0  0  0  0  0
  185.7470  179.1630  144.0370 C   0  0  0  0  0  2  0  0  0  0  0  0
  186.6390  178.3350  138.3160 C   0  0  1  0  0  3  0  0  0  0  0  0
  185.5060  177.8000  139.0490 C   0  0  1  0  0  3  0  0  0  0  0  0
  181.2140  178.4770  141.9190 C   0  0  2  0  0  3  0  0  0  0  0  0
  184.9510  178.8310  141.5990 C   0  0  0  0  0  0  0  0  0  0  0  0
  183.6940  178.9870  145.4770 O   0  0  0  0  0  0  0  0  0  0  0  0
  182.0240  178.9360  138.9770 C   0  0  0  0  0  0  0  0  0  0  0  0
  185.8010  179.5610  146.4970 C   0  0  0  0  0  1  0  0  0  0  0  0
  186.0630  179.1100  139.4470 N   0  0  1  0  0  0  0  0  0  0  0  0
  188.1610  176.5290  138.2460 O   0  0  0  0  0  0  0  0  0  0  0  0
  186.2910  178.9340  140.8950 C   0  0  2  0  0  3  0  0  0  0  0  0
  180.9730  179.6640  139.7420 C   0  0  0  0  0  3  0  0  0  0  0  0
  182.1290  177.6090  136.8530 C   0  0  0  0  0  3  0  0  0  0  0  0
  181.7510  178.7850  137.5250 C   0  0  0  0  0  0  0  0  0  0  0  0
  181.1600  179.8250  136.7890 C   0  0  0  0  0  3  0  0  0  0  0  0
  180.3250  180.7460  134.6880 N   0  0  0  0  0  1  0  0  0  0  0  0
  181.3000  178.5090  134.7640 C   0  0  0  0  0  3  0  0  0  0  0  0
  180.9310  179.6870  135.4180 C   0  0  0  0  0  0  0  0  0  0  0  0
  181.9000  177.4720  135.4800 C   0  0  0  0  0  3  0  0  0  0  0  0
  188.8710  176.4140  142.7380 C   0  0  0  0  0  1  0  0  0  0  0  0
  189.4310  176.9740  141.4440 C   0  0  0  0  0  2  0  0  0  0  0  0
  2 22  1  0  0  0  0
  2 14  1  0  0  0  0
  2 24  1  0  0  0  0
  3  9  1  0  0  0  0
  4  1  1  0  0  0  0
  4 37  1  0  0  0  0
  5 10  1  0  0  0  0
  6 11  1  0  0  0  0
  6 22  1  0  0  0  0
  7 21  1  0  0  0  0
  7  3  2  0  0  0  0
  8 12  1  0  0  0  0
  9  6  2  0  0  0  0
 10  7  1  0  0  0  0
 12  4  1  0  0  0  0
 13  9  1  0  0  0  0
 13 17  1  0  0  0  0
 16 11  2  0  0  0  0
 17  2  1  0  0  0  0
 18  8  1  1  0  0  0
 18 19  1  0  0  0  0
 18 25  1  0  0  0  0
 19  5  1  6  0  0  0
 19 25  1  0  0  0  0
 20 15  1  6  0  0  0
 20  3  1  0  0  0  0
 20 16  1  0  0  0  0
 21 13  2  0  0  0  0
 23 10  2  0  0  0  0
 23 28  1  0  0  0  0
 25 27  1  0  0  0  0
 26  8  2  0  0  0  0
 27  1  1  0  0  0  0
 27 21  1  0  0  0  0
 28 15  2  0  0  0  0
 29 30  1  0  0  0  0
 30 23  1  0  0  0  0
 31 30  2  0  0  0  0
 32 34  1  0  0  0  0
 33 34  2  0  0  0  0
 33 35  1  0  0  0  0
 34 31  1  0  0  0  0
 35 29  2  0  0  0  0
 37 36  1  0  0  0  0
M  END
>  <MODEL>
9

>  <REMARK>
 VINA RESULT:      -8.7      2.654      5.025
  Name = 
  2 active torsions:
  status: ('A' for Active; 'I' for Inactive)
    1  A    between atoms: N_5  and  C_23
    2  A    between atoms: C_6  and  C_31
                            x       y       z     vdW  Elec       q    Type
                         _______ _______ _______ _____ _____    ______ ____

>  <TORSDO>
F 2

$$$$
