=
 OpenBabel10272401133D

 27 31  0  0  0  0  0  0  0  0999 V2000
  190.4180  177.9770  141.6750 C   0  0  0  0  0  2  0  0  0  0  0  0
  188.0090  178.0750  141.1460 C   0  0  0  0  0  0  0  0  0  0  0  0
  187.8720  176.8760  143.2750 C   0  0  0  0  0  2  0  0  0  0  0  0
  187.2090  178.9190  140.2150 C   0  0  0  0  0  3  0  0  0  0  0  0
  190.6580  176.8030  147.3520 C   0  0  0  0  0  1  0  0  0  0  0  0
  190.5580  177.0710  145.8940 C   0  0  0  0  0  0  0  0  0  0  0  0
  189.2950  177.5190  140.8630 N   0  0  0  0  0  0  0  0  0  0  0  0
  186.1250  178.5240  142.2990 N   0  0  0  0  0  0  0  0  0  0  0  0
  190.3770  177.5610  143.1270 C   0  0  0  0  0  0  0  0  0  0  0  0
  187.3980  177.8890  142.2870 C   0  0  0  0  0  0  0  0  0  0  0  0
  189.3350  176.9270  145.2390 C   0  0  0  0  0  3  0  0  0  0  0  0
  185.9320  179.2000  141.0200 C   0  0  0  0  0  3  0  0  0  0  0  0
  191.6880  177.4560  145.1760 C   0  0  0  0  0  3  0  0  0  0  0  0
  191.5920  177.7030  143.8070 C   0  0  0  0  0  3  0  0  0  0  0  0
  189.2170  177.1800  143.8670 C   0  0  0  0  0  0  0  0  0  0  0  0
  183.8080  178.6970  143.1150 C   0  0  0  0  0  3  0  0  0  0  0  0
  183.3160  178.6900  145.4850 C   0  0  0  0  0  3  0  0  0  0  0  0
  184.6780  178.5690  145.7660 C   0  0  0  0  0  3  0  0  0  0  0  0
  185.6050  178.5110  144.7210 C   0  0  0  0  0  3  0  0  0  0  0  0
  185.1800  178.5710  143.3850 C   0  0  0  0  0  0  0  0  0  0  0  0
  182.8800  178.7550  144.1600 C   0  0  0  0  0  3  0  0  0  0  0  0
  190.0040  175.2420  137.4090 C   0  0  0  0  0  3  0  0  0  0  0  0
  189.5370  176.7270  139.6870 C   0  0  0  0  0  0  0  0  0  0  0  0
  190.7920  176.1450  139.4510 C   0  0  0  0  0  3  0  0  0  0  0  0
  190.9940  175.4170  138.3210 N   0  0  0  0  0  0  0  0  0  0  0  0
  188.7560  175.8230  137.6320 C   0  0  0  0  0  3  0  0  0  0  0  0
  188.5520  176.5520  138.7620 N   0  0  0  0  0  0  0  0  0  0  0  0
  1  9  1  0  0  0  0
  2 10  2  0  0  0  0
  3 15  1  0  0  0  0
  4 12  2  0  0  0  0
  4  2  1  0  0  0  0
  6  5  1  0  0  0  0
  7  2  1  0  0  0  0
  7  1  1  0  0  0  0
  8 20  1  0  0  0  0
  9 14  2  0  0  0  0
  9 15  1  0  0  0  0
 10  8  1  0  0  0  0
 10  3  1  0  0  0  0
 11  6  1  0  0  0  0
 12  8  1  0  0  0  0
 13  6  2  0  0  0  0
 14 13  1  0  0  0  0
 15 11  2  0  0  0  0
 16 20  2  0  0  0  0
 16 21  1  0  0  0  0
 17 18  1  0  0  0  0
 19 18  2  0  0  0  0
 20 19  1  0  0  0  0
 21 17  2  0  0  0  0
 22 26  2  0  0  0  0
 22 25  1  0  0  0  0
 23  7  1  0  0  0  0
 24 23  1  0  0  0  0
 25 24  2  0  0  0  0
 26 27  1  0  0  0  0
 27 23  2  0  0  0  0
M  END
>  <MODEL>
1

>  <REMARK>
 VINA RESULT:      -8.9      0.000      0.000
  Name = 
  2 active torsions:
  status: ('A' for Active; 'I' for Inactive)
    1  A    between atoms: C_9  and  N_15
    2  A    between atoms: C_14  and  N_17
                            x       y       z     vdW  Elec       q    Type
                         _______ _______ _______ _____ _____    ______ ____

>  <TORSDO>
F 2

$$$$
=
 OpenBabel10272401133D

 27 31  0  0  0  0  0  0  0  0999 V2000
  185.8490  179.1260  140.8670 C   0  0  0  0  0  2  0  0  0  0  0  0
  185.1670  178.7830  143.2140 C   0  0  0  0  0  0  0  0  0  0  0  0
  186.9790  177.1410  143.1100 C   0  0  0  0  0  2  0  0  0  0  0  0
  184.3760  179.6060  144.1710 C   0  0  0  0  0  3  0  0  0  0  0  0
  191.1530  176.8050  140.4920 C   0  0  0  0  0  1  0  0  0  0  0  0
  189.7810  177.3600  140.6170 C   0  0  0  0  0  0  0  0  0  0  0  0
  184.8740  178.6150  141.8260 N   0  0  0  0  0  0  0  0  0  0  0  0
  186.2400  178.5180  145.1790 N   0  0  0  0  0  0  0  0  0  0  0  0
  187.1730  178.3990  140.8430 C   0  0  0  0  0  0  0  0  0  0  0  0
  186.1930  178.2120  143.7900 C   0  0  0  0  0  0  0  0  0  0  0  0
  189.0180  177.0880  141.7520 C   0  0  0  0  0  3  0  0  0  0  0  0
  185.1210  179.3990  145.4970 C   0  0  0  0  0  3  0  0  0  0  0  0
  189.2500  178.1460  139.5960 C   0  0  0  0  0  3  0  0  0  0  0  0
  187.9600  178.6620  139.7150 C   0  0  0  0  0  3  0  0  0  0  0  0
  187.7250  177.6070  141.8940 C   0  0  0  0  0  0  0  0  0  0  0  0
  186.9510  178.1500  147.5080 C   0  0  0  0  0  3  0  0  0  0  0  0
  189.1650  177.3210  148.0210 C   0  0  0  0  0  3  0  0  0  0  0  0
  189.4620  177.2740  146.6570 C   0  0  0  0  0  3  0  0  0  0  0  0
  188.5020  177.6640  145.7190 C   0  0  0  0  0  3  0  0  0  0  0  0
  187.2340  178.1020  146.1340 C   0  0  0  0  0  0  0  0  0  0  0  0
  187.9100  177.7600  148.4470 C   0  0  0  0  0  3  0  0  0  0  0  0
  181.0940  177.3900  140.4750 C   0  0  0  0  0  3  0  0  0  0  0  0
  183.5800  178.1830  141.3700 C   0  0  0  0  0  0  0  0  0  0  0  0
  183.4530  177.2330  140.3450 C   0  0  0  0  0  3  0  0  0  0  0  0
  182.2160  176.8580  139.9250 N   0  0  0  0  0  0  0  0  0  0  0  0
  181.2120  178.3400  141.4890 C   0  0  0  0  0  3  0  0  0  0  0  0
  182.4490  178.7160  141.9100 N   0  0  0  0  0  0  0  0  0  0  0  0
  1  7  1  0  0  0  0
  2 10  2  0  0  0  0
  2  4  1  0  0  0  0
  3 10  1  0  0  0  0
  4 12  2  0  0  0  0
  5  6  1  0  0  0  0
  6 11  1  0  0  0  0
  7  2  1  0  0  0  0
  8 12  1  0  0  0  0
  8 20  1  0  0  0  0
  9  1  1  0  0  0  0
  9 15  1  0  0  0  0
 10  8  1  0  0  0  0
 11 15  2  0  0  0  0
 13 14  1  0  0  0  0
 13  6  2  0  0  0  0
 14  9  2  0  0  0  0
 15  3  1  0  0  0  0
 16 21  1  0  0  0  0
 17 21  2  0  0  0  0
 18 17  1  0  0  0  0
 19 20  1  0  0  0  0
 19 18  2  0  0  0  0
 20 16  2  0  0  0  0
 22 26  1  0  0  0  0
 23  7  1  0  0  0  0
 23 27  1  0  0  0  0
 24 23  2  0  0  0  0
 25 24  1  0  0  0  0
 25 22  2  0  0  0  0
 26 27  2  0  0  0  0
M  END
>  <MODEL>
2

>  <REMARK>
 VINA RESULT:      -8.7      2.609      5.643
  Name = 
  2 active torsions:
  status: ('A' for Active; 'I' for Inactive)
    1  A    between atoms: C_9  and  N_15
    2  A    between atoms: C_14  and  N_17
                            x       y       z     vdW  Elec       q    Type
                         _______ _______ _______ _____ _____    ______ ____

>  <TORSDO>
F 2

$$$$
=
 OpenBabel10272401133D

 27 31  0  0  0  0  0  0  0  0999 V2000
  190.4530  177.8900  141.4500 C   0  0  0  0  0  2  0  0  0  0  0  0
  188.0410  178.0070  140.9430 C   0  0  0  0  0  0  0  0  0  0  0  0
  187.9130  176.8430  143.0930 C   0  0  0  0  0  2  0  0  0  0  0  0
  187.2400  178.8440  140.0070 C   0  0  0  0  0  3  0  0  0  0  0  0
  190.7380  176.8070  147.1430 C   0  0  0  0  0  1  0  0  0  0  0  0
  190.6270  177.0520  145.6810 C   0  0  0  0  0  0  0  0  0  0  0  0
  189.3170  177.4310  140.6570 N   0  0  0  0  0  0  0  0  0  0  0  0
  186.1740  178.4950  142.1080 N   0  0  0  0  0  0  0  0  0  0  0  0
  190.4220  177.4980  142.9090 C   0  0  0  0  0  0  0  0  0  0  0  0
  187.4390  177.8460  142.0940 C   0  0  0  0  0  0  0  0  0  0  0  0
  189.3960  176.9110  145.0420 C   0  0  0  0  0  3  0  0  0  0  0  0
  185.9750  179.1520  140.8200 C   0  0  0  0  0  3  0  0  0  0  0  0
  191.7540  177.4130  144.9460 C   0  0  0  0  0  3  0  0  0  0  0  0
  191.6460  177.6380  143.5740 C   0  0  0  0  0  3  0  0  0  0  0  0
  189.2670  177.1430  143.6670 C   0  0  0  0  0  0  0  0  0  0  0  0
  185.7050  178.5270  144.5260 C   0  0  0  0  0  3  0  0  0  0  0  0
  183.4380  178.6880  145.3560 C   0  0  0  0  0  3  0  0  0  0  0  0
  182.9620  178.7270  144.0430 C   0  0  0  0  0  3  0  0  0  0  0  0
  183.8590  178.6670  142.9720 C   0  0  0  0  0  3  0  0  0  0  0  0
  185.2400  178.5700  143.2020 C   0  0  0  0  0  0  0  0  0  0  0  0
  184.8090  178.5870  145.5980 C   0  0  0  0  0  3  0  0  0  0  0  0
  189.9610  175.0240  137.2800 C   0  0  0  0  0  3  0  0  0  0  0  0
  189.5390  176.6170  139.4910 C   0  0  0  0  0  0  0  0  0  0  0  0
  188.5270  176.4270  138.5370 C   0  0  0  0  0  3  0  0  0  0  0  0
  188.7630  175.6390  137.4560 N   0  0  0  0  0  0  0  0  0  0  0  0
  190.9680  175.2020  138.2270 C   0  0  0  0  0  3  0  0  0  0  0  0
  190.7350  175.9900  139.3100 N   0  0  0  0  0  0  0  0  0  0  0  0
  1  9  1  0  0  0  0
  2 10  2  0  0  0  0
  3 15  1  0  0  0  0
  4 12  2  0  0  0  0
  4  2  1  0  0  0  0
  6  5  1  0  0  0  0
  7  2  1  0  0  0  0
  7  1  1  0  0  0  0
  8 20  1  0  0  0  0
  9 14  2  0  0  0  0
  9 15  1  0  0  0  0
 10  8  1  0  0  0  0
 10  3  1  0  0  0  0
 11  6  1  0  0  0  0
 12  8  1  0  0  0  0
 13  6  2  0  0  0  0
 14 13  1  0  0  0  0
 15 11  2  0  0  0  0
 16 21  1  0  0  0  0
 17 21  2  0  0  0  0
 18 17  1  0  0  0  0
 19 20  1  0  0  0  0
 19 18  2  0  0  0  0
 20 16  2  0  0  0  0
 22 25  2  0  0  0  0
 22 26  1  0  0  0  0
 23  7  1  0  0  0  0
 24 23  2  0  0  0  0
 25 24  1  0  0  0  0
 26 27  2  0  0  0  0
 27 23  1  0  0  0  0
M  END
>  <MODEL>
3

>  <REMARK>
 VINA RESULT:      -8.6      0.546      1.323
  Name = 
  2 active torsions:
  status: ('A' for Active; 'I' for Inactive)
    1  A    between atoms: C_9  and  N_15
    2  A    between atoms: C_14  and  N_17
                            x       y       z     vdW  Elec       q    Type
                         _______ _______ _______ _____ _____    ______ ____

>  <TORSDO>
F 2

$$$$
=
 OpenBabel10272401133D

 27 31  0  0  0  0  0  0  0  0999 V2000
  191.7210  177.6720  140.7830 C   0  0  0  0  0  2  0  0  0  0  0  0
  189.7020  177.6940  139.3640 C   0  0  0  0  0  0  0  0  0  0  0  0
  188.7060  176.7940  141.4100 C   0  0  0  0  0  2  0  0  0  0  0  0
  189.3580  178.4030  138.0990 C   0  0  0  0  0  3  0  0  0  0  0  0
  189.7270  177.2790  146.2170 C   0  0  0  0  0  1  0  0  0  0  0  0
  190.2030  177.3470  144.8110 C   0  0  0  0  0  0  0  0  0  0  0  0
  190.9680  177.1060  139.6670 N   0  0  0  0  0  0  0  0  0  0  0  0
  187.5460  178.2920  139.6410 N   0  0  0  0  0  0  0  0  0  0  0  0
  191.1100  177.4560  142.1480 C   0  0  0  0  0  0  0  0  0  0  0  0
  188.6950  177.6640  140.1970 C   0  0  0  0  0  0  0  0  0  0  0  0
  189.3140  177.1140  143.7620 C   0  0  0  0  0  3  0  0  0  0  0  0
  187.8880  178.7880  138.3110 C   0  0  0  0  0  3  0  0  0  0  0  0
  191.5380  177.6330  144.5390 C   0  0  0  0  0  3  0  0  0  0  0  0
  191.9820  177.6910  143.2180 C   0  0  0  0  0  3  0  0  0  0  0  0
  189.7390  177.1780  142.4290 C   0  0  0  0  0  0  0  0  0  0  0  0
  185.0910  178.4140  139.4980 C   0  0  0  0  0  3  0  0  0  0  0  0
  183.7480  178.8800  141.4560 C   0  0  0  0  0  3  0  0  0  0  0  0
  184.9070  178.9580  142.2310 C   0  0  0  0  0  3  0  0  0  0  0  0
  186.1580  178.7630  141.6380 C   0  0  0  0  0  3  0  0  0  0  0  0
  186.2630  178.4840  140.2660 C   0  0  0  0  0  0  0  0  0  0  0  0
  183.8390  178.6090  140.0890 C   0  0  0  0  0  3  0  0  0  0  0  0
  192.7910  174.3720  137.0570 C   0  0  0  0  0  3  0  0  0  0  0  0
  191.5990  176.1630  138.7830 C   0  0  0  0  0  0  0  0  0  0  0  0
  192.9640  176.2620  138.4710 C   0  0  0  0  0  3  0  0  0  0  0  0
  193.5260  175.3650  137.6190 N   0  0  0  0  0  0  0  0  0  0  0  0
  191.4330  174.2690  137.3570 C   0  0  0  0  0  3  0  0  0  0  0  0
  190.8680  175.1660  138.2090 N   0  0  0  0  0  0  0  0  0  0  0  0
  1  9  1  0  0  0  0
  2  7  1  0  0  0  0
  2 10  2  0  0  0  0
  3 15  1  0  0  0  0
  4 12  2  0  0  0  0
  4  2  1  0  0  0  0
  6  5  1  0  0  0  0
  7  1  1  0  0  0  0
  8 10  1  0  0  0  0
  8 20  1  0  0  0  0
  9 15  2  0  0  0  0
  9 14  1  0  0  0  0
 10  3  1  0  0  0  0
 11  6  2  0  0  0  0
 12  8  1  0  0  0  0
 13  6  1  0  0  0  0
 14 13  2  0  0  0  0
 15 11  1  0  0  0  0
 16 21  2  0  0  0  0
 16 20  1  0  0  0  0
 17 18  2  0  0  0  0
 19 18  1  0  0  0  0
 20 19  2  0  0  0  0
 21 17  1  0  0  0  0
 22 26  2  0  0  0  0
 22 25  1  0  0  0  0
 23  7  1  0  0  0  0
 24 23  1  0  0  0  0
 25 24  2  0  0  0  0
 26 27  1  0  0  0  0
 27 23  2  0  0  0  0
M  END
>  <MODEL>
4

>  <REMARK>
 VINA RESULT:      -8.1      1.834      2.654
  Name = 
  2 active torsions:
  status: ('A' for Active; 'I' for Inactive)
    1  A    between atoms: C_9  and  N_15
    2  A    between atoms: C_14  and  N_17
                            x       y       z     vdW  Elec       q    Type
                         _______ _______ _______ _____ _____    ______ ____

>  <TORSDO>
F 2

$$$$
=
 OpenBabel10272401133D

 27 31  0  0  0  0  0  0  0  0999 V2000
  189.0970  178.4700  145.4650 C   0  0  0  0  0  2  0  0  0  0  0  0
  190.3350  177.6170  143.5070 C   0  0  0  0  0  0  0  0  0  0  0  0
  188.1090  176.7720  142.9360 C   0  0  0  0  0  2  0  0  0  0  0  0
  191.6510  177.9710  142.9060 C   0  0  0  0  0  3  0  0  0  0  0  0
  183.5140  178.3010  143.8970 C   0  0  0  0  0  1  0  0  0  0  0  0
  184.9500  178.3000  144.2760 C   0  0  0  0  0  0  0  0  0  0  0  0
  190.0600  177.5250  144.9070 N   0  0  0  0  0  0  0  0  0  0  0  0
  189.9640  177.5210  141.2860 N   0  0  0  0  0  0  0  0  0  0  0  0
  187.6700  178.2830  145.0060 C   0  0  0  0  0  0  0  0  0  0  0  0
  189.4240  177.3920  142.5960 C   0  0  0  0  0  0  0  0  0  0  0  0
  185.8810  177.6320  143.4810 C   0  0  0  0  0  3  0  0  0  0  0  0
  191.3720  177.8880  141.3990 C   0  0  0  0  0  3  0  0  0  0  0  0
  185.3680  178.9570  145.4310 C   0  0  0  0  0  3  0  0  0  0  0  0
  186.7170  178.9500  145.7850 C   0  0  0  0  0  3  0  0  0  0  0  0
  187.2410  177.6230  143.8160 C   0  0  0  0  0  0  0  0  0  0  0  0
  189.7680  176.5230  139.0430 C   0  0  0  0  0  3  0  0  0  0  0  0
  187.9400  177.1100  137.5710 C   0  0  0  0  0  3  0  0  0  0  0  0
  187.4330  177.9710  138.5460 C   0  0  0  0  0  3  0  0  0  0  0  0
  188.0940  178.1070  139.7710 C   0  0  0  0  0  3  0  0  0  0  0  0
  189.2660  177.3810  140.0330 C   0  0  0  0  0  0  0  0  0  0  0  0
  189.1080  176.3870  137.8180 C   0  0  0  0  0  3  0  0  0  0  0  0
  192.4180  175.1720  147.4590 C   0  0  0  0  0  3  0  0  0  0  0  0
  190.8570  176.7110  145.7850 C   0  0  0  0  0  0  0  0  0  0  0  0
  190.8320  176.9070  147.1750 C   0  0  0  0  0  3  0  0  0  0  0  0
  191.6100  176.1330  147.9760 N   0  0  0  0  0  0  0  0  0  0  0  0
  192.4540  174.9760  146.0790 C   0  0  0  0  0  3  0  0  0  0  0  0
  191.6760  175.7500  145.2750 N   0  0  0  0  0  0  0  0  0  0  0  0
  2  7  1  0  0  0  0
  3 15  1  0  0  0  0
  4  2  1  0  0  0  0
  5  6  1  0  0  0  0
  6 13  1  0  0  0  0
  7  1  1  0  0  0  0
  7 23  1  0  0  0  0
  8 12  1  0  0  0  0
  8 10  1  0  0  0  0
  9  1  1  0  0  0  0
  9 14  1  0  0  0  0
 10  3  1  0  0  0  0
 10  2  2  0  0  0  0
 11 15  1  0  0  0  0
 11  6  2  0  0  0  0
 12  4  2  0  0  0  0
 13 14  2  0  0  0  0
 15  9  2  0  0  0  0
 16 20  1  0  0  0  0
 17 21  1  0  0  0  0
 17 18  2  0  0  0  0
 18 19  1  0  0  0  0
 19 20  2  0  0  0  0
 20  8  1  0  0  0  0
 21 16  2  0  0  0  0
 22 25  1  0  0  0  0
 23 24  1  0  0  0  0
 24 25  2  0  0  0  0
 26 22  2  0  0  0  0
 27 23  2  0  0  0  0
 27 26  1  0  0  0  0
M  END
>  <MODEL>
5

>  <REMARK>
 VINA RESULT:      -7.8      2.311      6.427
  Name = 
  2 active torsions:
  status: ('A' for Active; 'I' for Inactive)
    1  A    between atoms: C_9  and  N_15
    2  A    between atoms: C_14  and  N_17
                            x       y       z     vdW  Elec       q    Type
                         _______ _______ _______ _____ _____    ______ ____

>  <TORSDO>
F 2

$$$$
=
 OpenBabel10272401133D

 27 31  0  0  0  0  0  0  0  0999 V2000
  182.4550  178.5640  140.8540 C   0  0  0  0  0  2  0  0  0  0  0  0
  184.2320  178.5940  139.1430 C   0  0  0  0  0  0  0  0  0  0  0  0
  185.5140  179.4930  141.0250 C   0  0  0  0  0  2  0  0  0  0  0  0
  184.3910  177.9040  137.8320 C   0  0  0  0  0  3  0  0  0  0  0  0
  185.2490  178.9410  145.9250 C   0  0  0  0  0  1  0  0  0  0  0  0
  184.5650  178.8790  144.6080 C   0  0  0  0  0  0  0  0  0  0  0  0
  183.0170  179.1550  139.6440 N   0  0  0  0  0  0  0  0  0  0  0  0
  186.4160  178.0340  139.0810 N   0  0  0  0  0  0  0  0  0  0  0  0
  183.2630  178.7780  142.1130 C   0  0  0  0  0  0  0  0  0  0  0  0
  185.3550  178.6350  139.8140 C   0  0  0  0  0  0  0  0  0  0  0  0
  185.2780  179.1390  143.4380 C   0  0  0  0  0  3  0  0  0  0  0  0
  185.8830  177.5450  137.8130 C   0  0  0  0  0  3  0  0  0  0  0  0
  183.2080  178.5700  144.5390 C   0  0  0  0  0  3  0  0  0  0  0  0
  182.5690  178.5160  143.3010 C   0  0  0  0  0  3  0  0  0  0  0  0
  184.6560  179.0790  142.1850 C   0  0  0  0  0  0  0  0  0  0  0  0
  188.8010  177.7440  138.5420 C   0  0  0  0  0  3  0  0  0  0  0  0
  190.4540  177.4960  140.2910 C   0  0  0  0  0  3  0  0  0  0  0  0
  189.4490  177.6050  141.2540 C   0  0  0  0  0  3  0  0  0  0  0  0
  188.1200  177.7850  140.8600 C   0  0  0  0  0  3  0  0  0  0  0  0
  187.7820  177.8610  139.5000 C   0  0  0  0  0  0  0  0  0  0  0  0
  190.1310  177.5640  138.9340 C   0  0  0  0  0  3  0  0  0  0  0  0
  180.7870  181.8980  137.3840 C   0  0  0  0  0  3  0  0  0  0  0  0
  182.2430  180.0950  138.8790 C   0  0  0  0  0  0  0  0  0  0  0  0
  181.1330  179.6780  138.1280 C   0  0  0  0  0  3  0  0  0  0  0  0
  180.4320  180.5880  137.4020 N   0  0  0  0  0  0  0  0  0  0  0  0
  181.8920  182.3200  138.1220 C   0  0  0  0  0  3  0  0  0  0  0  0
  182.5950  181.4110  138.8490 N   0  0  0  0  0  0  0  0  0  0  0  0
  1  9  1  0  0  0  0
  2  7  1  0  0  0  0
  2 10  2  0  0  0  0
  3 15  1  0  0  0  0
  4  2  1  0  0  0  0
  6  5  1  0  0  0  0
  7  1  1  0  0  0  0
  8 20  1  0  0  0  0
  8 10  1  0  0  0  0
  9 15  2  0  0  0  0
  9 14  1  0  0  0  0
 10  3  1  0  0  0  0
 11  6  2  0  0  0  0
 12  4  2  0  0  0  0
 12  8  1  0  0  0  0
 13  6  1  0  0  0  0
 14 13  2  0  0  0  0
 15 11  1  0  0  0  0
 16 21  2  0  0  0  0
 16 20  1  0  0  0  0
 17 18  2  0  0  0  0
 19 18  1  0  0  0  0
 20 19  2  0  0  0  0
 21 17  1  0  0  0  0
 22 25  2  0  0  0  0
 22 26  1  0  0  0  0
 23  7  1  0  0  0  0
 24 23  2  0  0  0  0
 25 24  1  0  0  0  0
 26 27  2  0  0  0  0
 27 23  1  0  0  0  0
M  END
>  <MODEL>
6

>  <REMARK>
 VINA RESULT:      -7.3      3.361      7.242
  Name = 
  2 active torsions:
  status: ('A' for Active; 'I' for Inactive)
    1  A    between atoms: C_9  and  N_15
    2  A    between atoms: C_14  and  N_17
                            x       y       z     vdW  Elec       q    Type
                         _______ _______ _______ _____ _____    ______ ____

>  <TORSDO>
F 2

$$$$
=
 OpenBabel10272401133D

 27 31  0  0  0  0  0  0  0  0999 V2000
  188.9080  178.4060  139.4380 C   0  0  0  0  0  2  0  0  0  0  0  0
  191.0380  177.2150  139.8040 C   0  0  0  0  0  0  0  0  0  0  0  0
  190.0780  175.7410  138.1020 C   0  0  0  0  0  2  0  0  0  0  0  0
  192.3350  177.6200  140.4170 C   0  0  0  0  0  3  0  0  0  0  0  0
  186.9430  176.4280  134.3500 C   0  0  0  0  0  1  0  0  0  0  0  0
  187.4600  176.8870  135.6640 C   0  0  0  0  0  0  0  0  0  0  0  0
  189.7430  177.5690  140.2930 N   0  0  0  0  0  0  0  0  0  0  0  0
  192.5910  176.2510  138.4840 N   0  0  0  0  0  0  0  0  0  0  0  0
  188.4270  177.7490  138.1650 C   0  0  0  0  0  0  0  0  0  0  0  0
  191.2100  176.4790  138.7360 C   0  0  0  0  0  0  0  0  0  0  0  0
  188.5150  176.2100  136.2750 C   0  0  0  0  0  3  0  0  0  0  0  0
  193.3690  176.9430  139.5070 C   0  0  0  0  0  3  0  0  0  0  0  0
  186.8870  177.9900  136.2940 C   0  0  0  0  0  3  0  0  0  0  0  0
  187.3730  178.4160  137.5290 C   0  0  0  0  0  3  0  0  0  0  0  0
  189.0230  176.6290  137.5100 C   0  0  0  0  0  0  0  0  0  0  0  0
  193.2390  176.1020  136.1130 C   0  0  0  0  0  3  0  0  0  0  0  0
  194.2780  174.1050  135.2260 C   0  0  0  0  0  3  0  0  0  0  0  0
  194.2130  173.5120  136.4890 C   0  0  0  0  0  3  0  0  0  0  0  0
  193.6620  174.2160  137.5640 C   0  0  0  0  0  3  0  0  0  0  0  0
  193.1720  175.5200  137.3880 C   0  0  0  0  0  0  0  0  0  0  0  0
  193.7900  175.3990  135.0370 C   0  0  0  0  0  3  0  0  0  0  0  0
  188.6410  176.8800  144.2840 C   0  0  0  0  0  3  0  0  0  0  0  0
  189.3540  177.3260  141.6570 C   0  0  0  0  0  0  0  0  0  0  0  0
  188.3050  178.0440  142.2500 C   0  0  0  0  0  3  0  0  0  0  0  0
  187.9730  177.8030  143.5450 N   0  0  0  0  0  0  0  0  0  0  0  0
  189.6890  176.1670  143.7040 C   0  0  0  0  0  3  0  0  0  0  0  0
  190.0230  176.4070  142.4080 N   0  0  0  0  0  0  0  0  0  0  0  0
  1  7  1  0  0  0  0
  2  7  1  0  0  0  0
  2  4  1  0  0  0  0
  3 10  1  0  0  0  0
  5  6  1  0  0  0  0
  6 11  2  0  0  0  0
  6 13  1  0  0  0  0
  7 23  1  0  0  0  0
  8 10  1  0  0  0  0
  8 12  1  0  0  0  0
  9  1  1  0  0  0  0
 10  2  2  0  0  0  0
 11 15  1  0  0  0  0
 12  4  2  0  0  0  0
 13 14  2  0  0  0  0
 14  9  1  0  0  0  0
 15  3  1  0  0  0  0
 15  9  2  0  0  0  0
 16 20  1  0  0  0  0
 17 18  2  0  0  0  0
 18 19  1  0  0  0  0
 20 19  2  0  0  0  0
 20  8  1  0  0  0  0
 21 17  1  0  0  0  0
 21 16  2  0  0  0  0
 23 24  2  0  0  0  0
 23 27  1  0  0  0  0
 24 25  1  0  0  0  0
 25 22  2  0  0  0  0
 26 22  1  0  0  0  0
 27 26  2  0  0  0  0
M  END
>  <MODEL>
7

>  <REMARK>
 VINA RESULT:      -7.0      2.769      8.739
  Name = 
  2 active torsions:
  status: ('A' for Active; 'I' for Inactive)
    1  A    between atoms: C_9  and  N_15
    2  A    between atoms: C_14  and  N_17
                            x       y       z     vdW  Elec       q    Type
                         _______ _______ _______ _____ _____    ______ ____

>  <TORSDO>
F 2

$$$$
=
 OpenBabel10272401133D

 27 31  0  0  0  0  0  0  0  0999 V2000
  183.1430  178.2340  141.0370 C   0  0  0  0  0  2  0  0  0  0  0  0
  183.7580  178.1890  138.6470 C   0  0  0  0  0  0  0  0  0  0  0  0
  185.9270  178.8410  139.5760 C   0  0  0  0  0  2  0  0  0  0  0  0
  183.1280  177.5670  137.4490 C   0  0  0  0  0  3  0  0  0  0  0  0
  188.1930  178.0260  143.8870 C   0  0  0  0  0  1  0  0  0  0  0  0
  186.9210  178.1110  143.1240 C   0  0  0  0  0  0  0  0  0  0  0  0
  183.0570  178.8370  139.7100 N   0  0  0  0  0  0  0  0  0  0  0  0
  185.5060  177.4190  137.4490 N   0  0  0  0  0  0  0  0  0  0  0  0
  184.5080  178.2900  141.6840 C   0  0  0  0  0  0  0  0  0  0  0  0
  185.0610  178.0780  138.6290 C   0  0  0  0  0  0  0  0  0  0  0  0
  186.9440  178.3680  141.7540 C   0  0  0  0  0  3  0  0  0  0  0  0
  184.3370  177.0620  136.6500 C   0  0  0  0  0  3  0  0  0  0  0  0
  185.7020  177.9430  143.7780 C   0  0  0  0  0  3  0  0  0  0  0  0
  184.5100  178.0280  143.0590 C   0  0  0  0  0  3  0  0  0  0  0  0
  185.7580  178.4460  141.0140 C   0  0  0  0  0  0  0  0  0  0  0  0
  187.3300  175.7750  137.2660 C   0  0  0  0  0  3  0  0  0  0  0  0
  189.5050  176.4130  136.4190 C   0  0  0  0  0  3  0  0  0  0  0  0
  189.0510  177.7220  136.2430 C   0  0  0  0  0  3  0  0  0  0  0  0
  187.7350  178.0560  136.5780 C   0  0  0  0  0  3  0  0  0  0  0  0
  186.8600  177.0850  137.0890 C   0  0  0  0  0  0  0  0  0  0  0  0
  188.6460  175.4390  136.9320 C   0  0  0  0  0  3  0  0  0  0  0  0
  180.2930  181.9040  138.9560 C   0  0  0  0  0  3  0  0  0  0  0  0
  182.1130  179.8940  139.4640 C   0  0  0  0  0  0  0  0  0  0  0  0
  180.8590  179.9060  140.0940 C   0  0  0  0  0  3  0  0  0  0  0  0
  179.9820  180.9100  139.8270 N   0  0  0  0  0  0  0  0  0  0  0  0
  181.5340  181.8950  138.3210 C   0  0  0  0  0  3  0  0  0  0  0  0
  182.4130  180.8920  138.5860 N   0  0  0  0  0  0  0  0  0  0  0  0
  1  9  1  0  0  0  0
  2  7  1  0  0  0  0
  3 15  1  0  0  0  0
  4  2  1  0  0  0  0
  6 13  1  0  0  0  0
  6  5  1  0  0  0  0
  7  1  1  0  0  0  0
  8 10  1  0  0  0  0
  9 14  1  0  0  0  0
 10  2  2  0  0  0  0
 10  3  1  0  0  0  0
 11  6  2  0  0  0  0
 12  4  2  0  0  0  0
 12  8  1  0  0  0  0
 14 13  2  0  0  0  0
 15  9  2  0  0  0  0
 15 11  1  0  0  0  0
 17 21  1  0  0  0  0
 18 17  2  0  0  0  0
 18 19  1  0  0  0  0
 19 20  2  0  0  0  0
 20 16  1  0  0  0  0
 20  8  1  0  0  0  0
 21 16  2  0  0  0  0
 22 25  1  0  0  0  0
 23  7  1  0  0  0  0
 23 24  1  0  0  0  0
 25 24  2  0  0  0  0
 26 27  1  0  0  0  0
 26 22  2  0  0  0  0
 27 23  2  0  0  0  0
M  END
>  <MODEL>
8

>  <REMARK>
 VINA RESULT:      -6.6      3.467      7.624
  Name = 
  2 active torsions:
  status: ('A' for Active; 'I' for Inactive)
    1  A    between atoms: C_9  and  N_15
    2  A    between atoms: C_14  and  N_17
                            x       y       z     vdW  Elec       q    Type
                         _______ _______ _______ _____ _____    ______ ____

>  <TORSDO>
F 2

$$$$
=
 OpenBabel10272401133D

 27 31  0  0  0  0  0  0  0  0999 V2000
  188.4910  176.5920  139.2750 C   0  0  0  0  0  2  0  0  0  0  0  0
  189.1680  176.7600  141.6420 C   0  0  0  0  0  0  0  0  0  0  0  0
  187.6930  178.7110  141.5390 C   0  0  0  0  0  2  0  0  0  0  0  0
  189.7710  175.7880  142.5960 C   0  0  0  0  0  3  0  0  0  0  0  0
  183.7160  179.8610  138.8470 C   0  0  0  0  0  1  0  0  0  0  0  0
  184.9590  179.0590  138.9860 C   0  0  0  0  0  0  0  0  0  0  0  0
  189.5200  176.8970  140.2640 N   0  0  0  0  0  0  0  0  0  0  0  0
  188.1160  177.1840  143.5910 N   0  0  0  0  0  0  0  0  0  0  0  0
  187.3240  177.5520  139.2400 C   0  0  0  0  0  0  0  0  0  0  0  0
  188.2520  177.5010  142.2100 C   0  0  0  0  0  0  0  0  0  0  0  0
  185.7310  179.1640  140.1420 C   0  0  0  0  0  3  0  0  0  0  0  0
  189.0460  176.1050  143.9110 C   0  0  0  0  0  3  0  0  0  0  0  0
  185.3600  178.2080  137.9590 C   0  0  0  0  0  3  0  0  0  0  0  0
  186.5290  177.4600  138.0920 C   0  0  0  0  0  3  0  0  0  0  0  0
  186.9030  178.4130  140.2980 C   0  0  0  0  0  0  0  0  0  0  0  0
  187.5520  177.8690  145.8880 C   0  0  0  0  0  3  0  0  0  0  0  0
  185.4020  178.8520  146.4040 C   0  0  0  0  0  3  0  0  0  0  0  0
  185.0310  178.7420  145.0620 C   0  0  0  0  0  3  0  0  0  0  0  0
  185.9220  178.1970  144.1330 C   0  0  0  0  0  3  0  0  0  0  0  0
  187.1940  177.7580  144.5350 C   0  0  0  0  0  0  0  0  0  0  0  0
  186.6620  178.4150  146.8180 C   0  0  0  0  0  3  0  0  0  0  0  0
  193.5050  177.4300  139.0590 C   0  0  0  0  0  3  0  0  0  0  0  0
  190.8820  177.0910  139.8430 C   0  0  0  0  0  0  0  0  0  0  0  0
  191.3000  176.7310  138.5530 C   0  0  0  0  0  3  0  0  0  0  0  0
  192.5980  176.9110  138.1920 N   0  0  0  0  0  0  0  0  0  0  0  0
  193.0990  177.7840  140.3450 C   0  0  0  0  0  3  0  0  0  0  0  0
  191.8010  177.6050  140.7090 N   0  0  0  0  0  0  0  0  0  0  0  0
  1  7  1  0  0  0  0
  2 10  2  0  0  0  0
  2  4  1  0  0  0  0
  3 10  1  0  0  0  0
  4 12  2  0  0  0  0
  5  6  1  0  0  0  0
  6 11  1  0  0  0  0
  7  2  1  0  0  0  0
  8 12  1  0  0  0  0
  8 20  1  0  0  0  0
  9  1  1  0  0  0  0
  9 15  1  0  0  0  0
 10  8  1  0  0  0  0
 11 15  2  0  0  0  0
 13 14  1  0  0  0  0
 13  6  2  0  0  0  0
 14  9  2  0  0  0  0
 15  3  1  0  0  0  0
 16 21  1  0  0  0  0
 17 21  2  0  0  0  0
 18 17  1  0  0  0  0
 19 20  1  0  0  0  0
 19 18  2  0  0  0  0
 20 16  2  0  0  0  0
 22 26  1  0  0  0  0
 23  7  1  0  0  0  0
 23 27  1  0  0  0  0
 24 23  2  0  0  0  0
 25 24  1  0  0  0  0
 25 22  2  0  0  0  0
 26 27  2  0  0  0  0
M  END
>  <MODEL>
9

>  <REMARK>
 VINA RESULT:      -6.4      1.928      4.950
  Name = 
  2 active torsions:
  status: ('A' for Active; 'I' for Inactive)
    1  A    between atoms: C_9  and  N_15
    2  A    between atoms: C_14  and  N_17
                            x       y       z     vdW  Elec       q    Type
                         _______ _______ _______ _____ _____    ______ ____

>  <TORSDO>
F 2

$$$$
