=
 OpenBabel10272414433D

 43 47  0  0  1  0  0  0  0  0999 V2000
  188.9560  177.6590  141.2400 N   0  0  0  0  0  0  0  0  0  0  0  0
  188.6600  176.5140  136.0630 C   0  0  0  0  0  0  0  0  0  0  0  0
  190.3340  176.8510  137.8530 C   0  0  2  0  0  3  0  0  0  0  0  0
  187.7990  177.4730  136.7930 C   0  0  0  0  0  3  0  0  0  0  0  0
  188.3620  176.1790  134.8880 O   0  0  0  0  0  0  0  0  0  0  0  0
  189.1760  177.0880  138.7910 C   0  0  2  0  0  3  0  0  0  0  0  0
  189.8850  175.9280  136.7230 C   0  0  0  0  0  2  0  0  0  0  0  0
  188.0580  177.7850  138.0700 C   0  0  0  0  0  3  0  0  0  0  0  0
  189.7360  177.8300  139.9970 C   0  0  2  0  0  3  0  0  0  0  0  0
  191.4620  177.2660  140.2390 S   0  0  0  0  0  0  0  0  0  0  0  0
  191.4420  176.2850  138.7010 C   0  0  0  0  0  2  0  0  0  0  0  0
  189.8330  177.5110  142.4100 C   0  0  1  0  0  3  0  0  0  0  0  0
  189.8580  178.6930  143.1570 O   0  0  0  0  0  1  0  0  0  0  0  0
  189.3280  176.3920  143.3140 C   0  0  0  0  0  2  0  0  0  0  0  0
  187.6380  177.8110  146.3910 C   0  0  0  0  0  0  0  0  0  0  0  0
  188.6940  177.8060  147.3150 C   0  0  0  0  0  0  0  0  0  0  0  0
  188.5070  178.2470  148.5840 F   0  0  0  0  0  0  0  0  0  0  0  0
  190.1650  176.8900  145.6210 C   0  0  0  0  0  3  0  0  0  0  0  0
  187.8510  177.3580  145.0860 C   0  0  0  0  0  3  0  0  0  0  0  0
  189.1140  176.8970  144.6990 C   0  0  0  0  0  0  0  0  0  0  0  0
  186.2820  178.2810  146.7900 C   0  0  0  0  0  1  0  0  0  0  0  0
  189.9570  177.3470  146.9260 C   0  0  0  0  0  3  0  0  0  0  0  0
  187.9130  178.6920  141.4020 C   0  0  0  0  0  2  0  0  0  0  0  0
  186.5220  178.1250  141.7140 C   0  0  0  0  0  2  0  0  0  0  0  0
  185.5490  179.2190  142.1380 C   0  0  2  0  0  3  0  0  0  0  0  0
  184.8200  178.8260  143.4120 C   0  0  0  0  0  1  0  0  0  0  0  0
  184.6370  179.4960  141.0780 O   0  0  0  0  0  0  0  0  0  0  0  0
  184.1250  178.5110  140.2280 C   0  0  0  0  0  0  0  0  0  0  0  0
  183.3870  177.6100  140.7060 O   0  0  0  0  0  0  0  0  0  0  0  0
  184.5140  178.4850  138.4740 S   0  0  0  0  0  0  0  0  0  0  0  0
  183.1840  177.3320  137.9530 C   0  0  1  0  0  3  0  0  0  0  0  0
  182.3380  174.9860  137.6720 C   0  0  0  0  0  2  0  0  0  0  0  0
  182.1520  177.9500  137.0040 C   0  0  0  0  0  2  0  0  0  0  0  0
  181.2000  176.8920  136.4230 C   0  0  0  0  0  2  0  0  0  0  0  0
  183.5820  175.8880  137.6010 C   0  0  1  0  0  3  0  0  0  0  0  0
  181.0100  175.7120  137.3800 C   0  0  0  0  0  2  0  0  0  0  0  0
  184.1700  175.7880  136.1910 C   0  0  0  0  0  2  0  0  0  0  0  0
  185.2050  174.7150  136.0580 C   0  0  0  0  0  0  0  0  0  0  0  0
  187.1790  172.7750  135.8350 C   0  0  0  0  0  3  0  0  0  0  0  0
  186.4700  173.2140  134.7150 C   0  0  0  0  0  3  0  0  0  0  0  0
  186.8930  173.3300  137.0830 C   0  0  0  0  0  3  0  0  0  0  0  0
  185.5140  174.1720  134.8460 N   0  0  0  0  0  0  0  0  0  0  0  0
  185.9030  174.3080  137.1970 C   0  0  0  0  0  3  0  0  0  0  0  0
  1 23  1  0  0  0  0
  1 12  1  0  0  0  0
  2  7  1  0  0  0  0
  2  4  1  0  0  0  0
  3  7  1  6  0  0  0
  3 11  1  0  0  0  0
  3  6  1  0  0  0  0
  4  8  2  0  0  0  0
  5  2  2  0  0  0  0
  6  8  1  6  0  0  0
  6  9  1  0  0  0  0
  9 10  1  0  0  0  0
  9  1  1  1  0  0  0
 11 10  1  0  0  0  0
 12 13  1  1  0  0  0
 12 14  1  0  0  0  0
 14 20  1  0  0  0  0
 15 21  1  0  0  0  0
 15 16  1  0  0  0  0
 16 17  1  0  0  0  0
 18 22  1  0  0  0  0
 19 15  2  0  0  0  0
 20 19  1  0  0  0  0
 20 18  2  0  0  0  0
 22 16  2  0  0  0  0
 23 24  1  0  0  0  0
 24 25  1  0  0  0  0
 25 26  1  1  0  0  0
 27 25  1  0  0  0  0
 28 29  2  0  0  0  0
 28 27  1  0  0  0  0
 30 28  1  0  0  0  0
 31 30  1  6  0  0  0
 33 31  1  0  0  0  0
 34 33  1  0  0  0  0
 34 36  1  0  0  0  0
 35 37  1  6  0  0  0
 35 32  1  0  0  0  0
 35 31  1  0  0  0  0
 36 32  1  0  0  0  0
 38 37  1  0  0  0  0
 38 43  1  0  0  0  0
 39 41  1  0  0  0  0
 40 42  1  0  0  0  0
 40 39  2  0  0  0  0
 41 43  2  0  0  0  0
 42 38  2  0  0  0  0
M  END
>  <MODEL>
1

>  <REMARK>
 VINA RESULT:      -7.7      0.000      0.000
  Name = 
  13 active torsions:
  status: ('A' for Active; 'I' for Inactive)
    1  A    between atoms: C_1  and  C_34
    2  A    between atoms: C_1  and  C_35
    3  A    between atoms: C_2  and  O_6
    4  A    between atoms: C_2  and  C_13
    5  A    between atoms: S_3  and  C_4
    6  A    between atoms: S_3  and  C_12
    7  A    between atoms: O_6  and  C_12
    8  A    between atoms: N_8  and  C_27
    9  A    between atoms: N_8  and  C_30
   10  A    between atoms: N_8  and  C_34
   11  A    between atoms: C_11  and  C_14
   12  A    between atoms: C_13  and  C_27
   13  A    between atoms: C_14  and  C_41
                            x       y       z     vdW  Elec       q    Type
                         _______ _______ _______ _____ _____    ______ ____

>  <TORSDO>
F 13

$$$$
=
 OpenBabel10272414433D

 43 47  0  0  1  0  0  0  0  0999 V2000
  189.9880  177.1940  141.8570 N   0  0  0  0  0  0  0  0  0  0  0  0
  192.0980  175.4630  146.4120 C   0  0  0  0  0  0  0  0  0  0  0  0
  191.6320  177.5680  145.2000 C   0  0  2  0  0  3  0  0  0  0  0  0
  192.2460  174.8210  145.0850 C   0  0  0  0  0  3  0  0  0  0  0  0
  192.4720  174.8500  147.4450 O   0  0  0  0  0  0  0  0  0  0  0  0
  191.0340  176.7200  144.1050 C   0  0  2  0  0  3  0  0  0  0  0  0
  191.4910  176.8390  146.5340 C   0  0  0  0  0  2  0  0  0  0  0  0
  191.7850  175.4260  143.9820 C   0  0  0  0  0  3  0  0  0  0  0  0
  191.0120  177.5820  142.8500 C   0  0  2  0  0  3  0  0  0  0  0  0
  190.7680  179.3200  143.3770 S   0  0  0  0  0  0  0  0  0  0  0  0
  190.9070  178.8870  145.1450 C   0  0  0  0  0  2  0  0  0  0  0  0
  188.6620  177.7160  142.2180 C   0  0  1  0  0  3  0  0  0  0  0  0
  187.9360  178.0450  141.0690 O   0  0  0  0  0  1  0  0  0  0  0  0
  187.8720  176.6670  142.9920 C   0  0  0  0  0  2  0  0  0  0  0  0
  187.2680  177.8150  146.5500 C   0  0  0  0  0  0  0  0  0  0  0  0
  186.0310  178.4670  146.4260 C   0  0  0  0  0  0  0  0  0  0  0  0
  185.4400  179.0430  147.5010 F   0  0  0  0  0  0  0  0  0  0  0  0
  185.9930  177.9300  144.0620 C   0  0  0  0  0  3  0  0  0  0  0  0
  187.8600  177.2230  145.4310 C   0  0  0  0  0  3  0  0  0  0  0  0
  187.2240  177.2790  144.1860 C   0  0  0  0  0  0  0  0  0  0  0  0
  187.9690  177.7610  147.8630 C   0  0  0  0  0  1  0  0  0  0  0  0
  185.3950  178.5200  145.1810 C   0  0  0  0  0  3  0  0  0  0  0  0
  190.3960  177.5040  140.4720 C   0  0  0  0  0  2  0  0  0  0  0  0
  190.7430  176.2650  139.6350 C   0  0  0  0  0  2  0  0  0  0  0  0
  190.3550  176.4460  138.1730 C   0  0  2  0  0  3  0  0  0  0  0  0
  191.5640  176.2620  137.2700 C   0  0  0  0  0  1  0  0  0  0  0  0
  189.7510  177.7230  137.9840 O   0  0  0  0  0  0  0  0  0  0  0  0
  188.6900  177.9490  137.1020 C   0  0  0  0  0  0  0  0  0  0  0  0
  188.9330  178.1010  135.8760 O   0  0  0  0  0  0  0  0  0  0  0  0
  186.9910  178.0520  137.6770 S   0  0  0  0  0  0  0  0  0  0  0  0
  186.3120  176.6870  136.6560 C   0  0  1  0  0  3  0  0  0  0  0  0
  184.4640  175.7570  135.2340 C   0  0  0  0  0  2  0  0  0  0  0  0
  186.9720  175.3260  136.9050 C   0  0  0  0  0  2  0  0  0  0  0  0
  186.2210  174.1860  136.2010 C   0  0  0  0  0  2  0  0  0  0  0  0
  184.7870  176.6230  136.4650 C   0  0  1  0  0  3  0  0  0  0  0  0
  185.5140  174.6700  134.9320 C   0  0  0  0  0  2  0  0  0  0  0  0
  184.0850  176.0130  137.6810 C   0  0  0  0  0  2  0  0  0  0  0  0
  183.2250  176.9910  138.4180 C   0  0  0  0  0  0  0  0  0  0  0  0
  181.6920  178.8500  139.7980 C   0  0  0  0  0  3  0  0  0  0  0  0
  181.8340  177.5430  140.2670 C   0  0  0  0  0  3  0  0  0  0  0  0
  182.3400  179.2260  138.6210 C   0  0  0  0  0  3  0  0  0  0  0  0
  182.5980  176.6510  139.5800 N   0  0  0  0  0  0  0  0  0  0  0  0
  183.1150  178.2940  137.9270 C   0  0  0  0  0  3  0  0  0  0  0  0
  1 12  1  0  0  0  0
  2  7  1  0  0  0  0
  2  5  2  0  0  0  0
  3 11  1  1  0  0  0
  3  7  1  0  0  0  0
  4  2  1  0  0  0  0
  6  8  1  6  0  0  0
  6  3  1  0  0  0  0
  8  4  2  0  0  0  0
  9  1  1  6  0  0  0
  9 10  1  0  0  0  0
  9  6  1  0  0  0  0
 10 11  1  0  0  0  0
 12 13  1  6  0  0  0
 12 14  1  0  0  0  0
 14 20  1  0  0  0  0
 15 21  1  0  0  0  0
 16 15  1  0  0  0  0
 16 17  1  0  0  0  0
 18 20  2  0  0  0  0
 18 22  1  0  0  0  0
 19 15  2  0  0  0  0
 20 19  1  0  0  0  0
 22 16  2  0  0  0  0
 23  1  1  0  0  0  0
 24 23  1  0  0  0  0
 25 26  1  6  0  0  0
 25 24  1  0  0  0  0
 27 25  1  0  0  0  0
 28 30  1  0  0  0  0
 28 27  1  0  0  0  0
 29 28  2  0  0  0  0
 31 33  1  0  0  0  0
 31 30  1  1  0  0  0
 32 35  1  0  0  0  0
 34 33  1  0  0  0  0
 35 31  1  0  0  0  0
 35 37  1  1  0  0  0
 36 32  1  0  0  0  0
 36 34  1  0  0  0  0
 37 38  1  0  0  0  0
 38 42  1  0  0  0  0
 39 40  1  0  0  0  0
 41 39  2  0  0  0  0
 42 40  2  0  0  0  0
 43 38  2  0  0  0  0
 43 41  1  0  0  0  0
M  END
>  <MODEL>
2

>  <REMARK>
 VINA RESULT:      -7.6      2.273      5.912
  Name = 
  13 active torsions:
  status: ('A' for Active; 'I' for Inactive)
    1  A    between atoms: C_1  and  C_34
    2  A    between atoms: C_1  and  C_35
    3  A    between atoms: C_2  and  O_6
    4  A    between atoms: C_2  and  C_13
    5  A    between atoms: S_3  and  C_4
    6  A    between atoms: S_3  and  C_12
    7  A    between atoms: O_6  and  C_12
    8  A    between atoms: N_8  and  C_27
    9  A    between atoms: N_8  and  C_30
   10  A    between atoms: N_8  and  C_34
   11  A    between atoms: C_11  and  C_14
   12  A    between atoms: C_13  and  C_27
   13  A    between atoms: C_14  and  C_41
                            x       y       z     vdW  Elec       q    Type
                         _______ _______ _______ _____ _____    ______ ____

>  <TORSDO>
F 13

$$$$
=
 OpenBabel10272414433D

 43 47  0  0  1  0  0  0  0  0999 V2000
  189.5790  177.0920  141.9640 N   0  0  0  0  0  0  0  0  0  0  0  0
  192.1960  175.5300  146.3130 C   0  0  0  0  0  0  0  0  0  0  0  0
  191.5950  177.5890  145.0800 C   0  0  2  0  0  3  0  0  0  0  0  0
  192.1920  174.8370  145.0040 C   0  0  0  0  0  3  0  0  0  0  0  0
  192.6870  174.9570  147.3200 O   0  0  0  0  0  0  0  0  0  0  0  0
  190.8760  176.7020  144.0950 C   0  0  2  0  0  3  0  0  0  0  0  0
  191.6070  176.9130  146.4490 C   0  0  0  0  0  2  0  0  0  0  0  0
  191.6070  175.4010  143.9380 C   0  0  0  0  0  3  0  0  0  0  0  0
  190.7100  177.5140  142.8180 C   0  0  2  0  0  3  0  0  0  0  0  0
  190.5270  179.2720  143.3010 S   0  0  0  0  0  0  0  0  0  0  0  0
  190.8680  178.9080  145.0570 C   0  0  0  0  0  2  0  0  0  0  0  0
  188.3120  177.6830  142.4190 C   0  0  1  0  0  3  0  0  0  0  0  0
  187.4940  177.9870  141.3250 O   0  0  0  0  0  1  0  0  0  0  0  0
  187.5600  176.7030  143.3130 C   0  0  0  0  0  2  0  0  0  0  0  0
  187.2970  178.0380  146.8480 C   0  0  0  0  0  0  0  0  0  0  0  0
  186.0830  178.7400  146.7900 C   0  0  0  0  0  0  0  0  0  0  0  0
  185.6070  179.3900  147.8790 F   0  0  0  0  0  0  0  0  0  0  0  0
  185.8300  178.0990  144.4660 C   0  0  0  0  0  3  0  0  0  0  0  0
  187.7710  177.3690  145.7150 C   0  0  0  0  0  3  0  0  0  0  0  0
  187.0380  177.3980  144.5230 C   0  0  0  0  0  0  0  0  0  0  0  0
  188.1000  178.0110  148.1020 C   0  0  0  0  0  1  0  0  0  0  0  0
  185.3510  178.7660  145.5980 C   0  0  0  0  0  3  0  0  0  0  0  0
  189.8500  177.2900  140.5260 C   0  0  0  0  0  2  0  0  0  0  0  0
  191.1960  176.7180  140.0640 C   0  0  0  0  0  2  0  0  0  0  0  0
  191.1790  176.3630  138.5820 C   0  0  2  0  0  3  0  0  0  0  0  0
  190.3590  177.3740  137.7960 C   0  0  0  0  0  1  0  0  0  0  0  0
  190.6820  175.0380  138.4050 O   0  0  0  0  0  0  0  0  0  0  0  0
  190.5350  174.4330  137.1530 C   0  0  0  0  0  0  0  0  0  0  0  0
  191.5070  174.4300  136.3540 O   0  0  0  0  0  0  0  0  0  0  0  0
  188.9830  173.6810  136.6460 S   0  0  0  0  0  0  0  0  0  0  0  0
  188.0350  175.2330  136.4050 C   0  0  1  0  0  3  0  0  0  0  0  0
  186.0440  176.6620  136.9460 C   0  0  0  0  0  2  0  0  0  0  0  0
  188.3840  175.9910  135.1190 C   0  0  0  0  0  2  0  0  0  0  0  0
  187.4120  177.1500  134.8530 C   0  0  0  0  0  2  0  0  0  0  0  0
  186.5340  175.2180  136.7410 C   0  0  1  0  0  3  0  0  0  0  0  0
  186.8370  177.7190  136.1530 C   0  0  0  0  0  2  0  0  0  0  0  0
  185.7060  174.5820  135.6210 C   0  0  0  0  0  2  0  0  0  0  0  0
  184.7070  173.5860  136.1190 C   0  0  0  0  0  0  0  0  0  0  0  0
  182.8490  171.7060  136.9720 C   0  0  0  0  0  3  0  0  0  0  0  0
  182.5460  173.0690  136.9690 C   0  0  0  0  0  3  0  0  0  0  0  0
  184.1040  171.2870  136.5280 C   0  0  0  0  0  3  0  0  0  0  0  0
  183.4680  173.9720  136.5390 N   0  0  0  0  0  0  0  0  0  0  0  0
  185.0390  172.2290  136.0960 C   0  0  0  0  0  3  0  0  0  0  0  0
  1 12  1  0  0  0  0
  2  7  1  0  0  0  0
  2  5  2  0  0  0  0
  3 11  1  1  0  0  0
  3  7  1  0  0  0  0
  4  2  1  0  0  0  0
  6  8  1  6  0  0  0
  6  3  1  0  0  0  0
  8  4  2  0  0  0  0
  9  1  1  1  0  0  0
  9 10  1  0  0  0  0
  9  6  1  0  0  0  0
 10 11  1  0  0  0  0
 12 13  1  6  0  0  0
 12 14  1  0  0  0  0
 14 20  1  0  0  0  0
 15 21  1  0  0  0  0
 16 15  1  0  0  0  0
 16 17  1  0  0  0  0
 18 20  2  0  0  0  0
 18 22  1  0  0  0  0
 19 15  2  0  0  0  0
 20 19  1  0  0  0  0
 22 16  2  0  0  0  0
 23  1  1  0  0  0  0
 24 23  1  0  0  0  0
 25 26  1  6  0  0  0
 25 24  1  0  0  0  0
 27 25  1  0  0  0  0
 28 27  1  0  0  0  0
 29 28  2  0  0  0  0
 30 28  1  0  0  0  0
 31 30  1  6  0  0  0
 31 35  1  0  0  0  0
 33 31  1  0  0  0  0
 34 33  1  0  0  0  0
 34 36  1  0  0  0  0
 35 37  1  6  0  0  0
 35 32  1  0  0  0  0
 36 32  1  0  0  0  0
 37 38  1  0  0  0  0
 38 42  1  0  0  0  0
 40 39  1  0  0  0  0
 41 39  2  0  0  0  0
 42 40  2  0  0  0  0
 43 38  2  0  0  0  0
 43 41  1  0  0  0  0
M  END
>  <MODEL>
3

>  <REMARK>
 VINA RESULT:      -7.5      2.534      5.837
  Name = 
  13 active torsions:
  status: ('A' for Active; 'I' for Inactive)
    1  A    between atoms: C_1  and  C_34
    2  A    between atoms: C_1  and  C_35
    3  A    between atoms: C_2  and  O_6
    4  A    between atoms: C_2  and  C_13
    5  A    between atoms: S_3  and  C_4
    6  A    between atoms: S_3  and  C_12
    7  A    between atoms: O_6  and  C_12
    8  A    between atoms: N_8  and  C_27
    9  A    between atoms: N_8  and  C_30
   10  A    between atoms: N_8  and  C_34
   11  A    between atoms: C_11  and  C_14
   12  A    between atoms: C_13  and  C_27
   13  A    between atoms: C_14  and  C_41
                            x       y       z     vdW  Elec       q    Type
                         _______ _______ _______ _____ _____    ______ ____

>  <TORSDO>
F 13

$$$$
=
 OpenBabel10272414433D

 43 47  0  0  1  0  0  0  0  0999 V2000
  188.4450  177.1970  141.6860 N   0  0  0  0  0  0  0  0  0  0  0  0
  187.8330  177.7310  146.9340 C   0  0  0  0  0  0  0  0  0  0  0  0
  189.4700  176.9020  145.2750 C   0  0  2  0  0  3  0  0  0  0  0  0
  186.7760  177.3480  145.9690 C   0  0  0  0  0  3  0  0  0  0  0  0
  187.5190  178.0210  148.1170 O   0  0  0  0  0  0  0  0  0  0  0  0
  188.4880  177.3160  144.2070 C   0  0  2  0  0  3  0  0  0  0  0  0
  189.2790  177.7870  146.5040 C   0  0  0  0  0  2  0  0  0  0  0  0
  187.0810  177.1070  144.6860 C   0  0  0  0  0  3  0  0  0  0  0  0
  188.8680  176.5520  142.9460 C   0  0  2  0  0  3  0  0  0  0  0  0
  190.6840  176.3160  142.9690 S   0  0  0  0  0  0  0  0  0  0  0  0
  190.8350  177.0140  144.6490 C   0  0  0  0  0  2  0  0  0  0  0  0
  187.6600  178.4150  141.9410 C   0  0  1  0  0  3  0  0  0  0  0  0
  188.4810  179.5460  141.8860 O   0  0  0  0  0  1  0  0  0  0  0  0
  186.5670  178.5720  140.8910 C   0  0  0  0  0  2  0  0  0  0  0  0
  183.8660  178.8770  143.5280 C   0  0  0  0  0  0  0  0  0  0  0  0
  182.7040  178.7490  142.7510 C   0  0  0  0  0  0  0  0  0  0  0  0
  181.4780  178.8060  143.3250 F   0  0  0  0  0  0  0  0  0  0  0  0
  184.0680  178.4920  140.7630 C   0  0  0  0  0  3  0  0  0  0  0  0
  185.1230  178.8110  142.9190 C   0  0  0  0  0  3  0  0  0  0  0  0
  185.2260  178.6170  141.5370 C   0  0  0  0  0  0  0  0  0  0  0  0
  183.7760  179.1010  144.9970 C   0  0  0  0  0  1  0  0  0  0  0  0
  182.8090  178.5540  141.3700 C   0  0  0  0  0  3  0  0  0  0  0  0
  189.5670  177.3950  140.7460 C   0  0  0  0  0  2  0  0  0  0  0  0
  189.5110  176.4840  139.5130 C   0  0  0  0  0  2  0  0  0  0  0  0
  188.9310  177.2060  138.3040 C   0  0  2  0  0  3  0  0  0  0  0  0
  189.2160  178.6980  138.3810 C   0  0  0  0  0  1  0  0  0  0  0  0
  187.5320  176.9470  138.2070 O   0  0  0  0  0  0  0  0  0  0  0  0
  186.7080  177.5290  137.2380 C   0  0  0  0  0  0  0  0  0  0  0  0
  186.0590  178.5680  137.5280 O   0  0  0  0  0  0  0  0  0  0  0  0
  186.5320  176.8170  135.5980 S   0  0  0  0  0  0  0  0  0  0  0  0
  185.6350  175.2950  136.0960 C   0  0  1  0  0  3  0  0  0  0  0  0
  183.4810  174.0280  136.3300 C   0  0  0  0  0  2  0  0  0  0  0  0
  186.4150  174.3910  137.0570 C   0  0  0  0  0  2  0  0  0  0  0  0
  185.5410  173.2580  137.6170 C   0  0  0  0  0  2  0  0  0  0  0  0
  184.1370  175.4170  136.4200 C   0  0  1  0  0  3  0  0  0  0  0  0
  184.4350  172.8570  136.6370 C   0  0  0  0  0  2  0  0  0  0  0  0
  183.9020  175.9720  137.8280 C   0  0  0  0  0  2  0  0  0  0  0  0
  182.6410  176.7690  137.9450 C   0  0  0  0  0  0  0  0  0  0  0  0
  180.3400  178.3030  138.2010 C   0  0  0  0  0  3  0  0  0  0  0  0
  180.4450  177.0530  138.8140 C   0  0  0  0  0  3  0  0  0  0  0  0
  181.4160  178.7880  137.4560 C   0  0  0  0  0  3  0  0  0  0  0  0
  181.5850  176.3220  138.6830 N   0  0  0  0  0  0  0  0  0  0  0  0
  182.5750  178.0210  137.3290 C   0  0  0  0  0  3  0  0  0  0  0  0
  1 12  1  0  0  0  0
  2  5  2  0  0  0  0
  3 11  1  6  0  0  0
  3  7  1  0  0  0  0
  4  2  1  0  0  0  0
  6  8  1  1  0  0  0
  6  3  1  0  0  0  0
  7  2  1  0  0  0  0
  8  4  2  0  0  0  0
  9  1  1  6  0  0  0
  9 10  1  0  0  0  0
  9  6  1  0  0  0  0
 10 11  1  0  0  0  0
 12 13  1  6  0  0  0
 14 20  1  0  0  0  0
 14 12  1  0  0  0  0
 15 21  1  0  0  0  0
 16 17  1  0  0  0  0
 16 15  2  0  0  0  0
 18 22  2  0  0  0  0
 18 20  1  0  0  0  0
 19 15  1  0  0  0  0
 20 19  2  0  0  0  0
 22 16  1  0  0  0  0
 23  1  1  0  0  0  0
 24 23  1  0  0  0  0
 25 26  1  1  0  0  0
 25 24  1  0  0  0  0
 27 25  1  0  0  0  0
 28 29  2  0  0  0  0
 28 27  1  0  0  0  0
 30 28  1  0  0  0  0
 31 30  1  1  0  0  0
 31 35  1  0  0  0  0
 31 33  1  0  0  0  0
 32 35  1  0  0  0  0
 32 36  1  0  0  0  0
 33 34  1  0  0  0  0
 35 37  1  1  0  0  0
 36 34  1  0  0  0  0
 37 38  1  0  0  0  0
 38 42  1  0  0  0  0
 39 40  1  0  0  0  0
 41 39  2  0  0  0  0
 42 40  2  0  0  0  0
 43 41  1  0  0  0  0
 43 38  2  0  0  0  0
M  END
>  <MODEL>
4

>  <REMARK>
 VINA RESULT:      -7.5      2.404      6.136
  Name = 
  13 active torsions:
  status: ('A' for Active; 'I' for Inactive)
    1  A    between atoms: C_1  and  C_34
    2  A    between atoms: C_1  and  C_35
    3  A    between atoms: C_2  and  O_6
    4  A    between atoms: C_2  and  C_13
    5  A    between atoms: S_3  and  C_4
    6  A    between atoms: S_3  and  C_12
    7  A    between atoms: O_6  and  C_12
    8  A    between atoms: N_8  and  C_27
    9  A    between atoms: N_8  and  C_30
   10  A    between atoms: N_8  and  C_34
   11  A    between atoms: C_11  and  C_14
   12  A    between atoms: C_13  and  C_27
   13  A    between atoms: C_14  and  C_41
                            x       y       z     vdW  Elec       q    Type
                         _______ _______ _______ _____ _____    ______ ____

>  <TORSDO>
F 13

$$$$
=
 OpenBabel10272414433D

 43 47  0  0  1  0  0  0  0  0999 V2000
  188.6330  177.1750  141.4980 N   0  0  0  0  0  0  0  0  0  0  0  0
  187.8340  177.7450  146.7160 C   0  0  0  0  0  0  0  0  0  0  0  0
  189.5200  176.8850  145.1240 C   0  0  2  0  0  3  0  0  0  0  0  0
  186.8090  177.3710  145.7150 C   0  0  0  0  0  3  0  0  0  0  0  0
  187.4810  178.0460  147.8860 O   0  0  0  0  0  0  0  0  0  0  0  0
  188.5850  177.3070  144.0180 C   0  0  2  0  0  3  0  0  0  0  0  0
  189.2950  177.7790  146.3410 C   0  0  0  0  0  2  0  0  0  0  0  0
  187.1580  177.1200  144.4450 C   0  0  0  0  0  3  0  0  0  0  0  0
  189.0000  176.5300  142.7760 C   0  0  2  0  0  3  0  0  0  0  0  0
  190.8110  176.2700  142.8680 S   0  0  0  0  0  0  0  0  0  0  0  0
  190.9080  176.9750  144.5480 C   0  0  0  0  0  2  0  0  0  0  0  0
  187.8030  178.3690  141.7150 C   0  0  1  0  0  3  0  0  0  0  0  0
  188.5950  179.5220  141.7240 O   0  0  0  0  0  1  0  0  0  0  0  0
  186.7740  178.5110  140.6000 C   0  0  0  0  0  2  0  0  0  0  0  0
  183.9270  178.8750  143.0710 C   0  0  0  0  0  0  0  0  0  0  0  0
  182.8110  178.7550  142.2280 C   0  0  0  0  0  0  0  0  0  0  0  0
  181.5540  178.8340  142.7290 F   0  0  0  0  0  0  0  0  0  0  0  0
  184.2850  178.4630  140.3260 C   0  0  0  0  0  3  0  0  0  0  0  0
  185.2160  178.7860  142.5380 C   0  0  0  0  0  3  0  0  0  0  0  0
  185.3980  178.5800  141.1660 C   0  0  0  0  0  0  0  0  0  0  0  0
  183.7540  179.1130  144.5310 C   0  0  0  0  0  1  0  0  0  0  0  0
  182.9940  178.5470  140.8570 C   0  0  0  0  0  3  0  0  0  0  0  0
  189.8020  177.4100  140.6260 C   0  0  0  0  0  2  0  0  0  0  0  0
  189.5290  177.1470  139.1390 C   0  0  0  0  0  2  0  0  0  0  0  0
  190.4660  176.0870  138.5730 C   0  0  2  0  0  3  0  0  0  0  0  0
  191.3410  176.6730  137.4770 C   0  0  0  0  0  1  0  0  0  0  0  0
  189.7120  174.9740  138.1000 O   0  0  0  0  0  0  0  0  0  0  0  0
  190.0390  174.2600  136.9420 C   0  0  0  0  0  0  0  0  0  0  0  0
  191.0850  173.5610  136.9260 O   0  0  0  0  0  0  0  0  0  0  0  0
  189.0150  174.3370  135.4680 S   0  0  0  0  0  0  0  0  0  0  0  0
  188.0410  175.8210  135.9320 C   0  0  1  0  0  3  0  0  0  0  0  0
  186.2430  176.8860  137.3220 C   0  0  0  0  0  2  0  0  0  0  0  0
  188.0730  176.9460  134.8900 C   0  0  0  0  0  2  0  0  0  0  0  0
  187.0690  178.0610  135.2180 C   0  0  0  0  0  2  0  0  0  0  0  0
  186.6650  175.6040  136.5830 C   0  0  1  0  0  3  0  0  0  0  0  0
  186.8260  178.1820  136.7250 C   0  0  0  0  0  2  0  0  0  0  0  0
  185.5900  175.2690  135.5460 C   0  0  0  0  0  2  0  0  0  0  0  0
  184.6310  174.2170  136.0090 C   0  0  0  0  0  0  0  0  0  0  0  0
  182.8910  172.2120  136.8250 C   0  0  0  0  0  3  0  0  0  0  0  0
  182.4410  173.2910  136.0610 C   0  0  0  0  0  3  0  0  0  0  0  0
  184.2410  172.1410  137.1730 C   0  0  0  0  0  3  0  0  0  0  0  0
  183.3120  174.2570  135.6650 N   0  0  0  0  0  0  0  0  0  0  0  0
  185.1180  173.1450  136.7610 C   0  0  0  0  0  3  0  0  0  0  0  0
  1 12  1  0  0  0  0
  2  5  2  0  0  0  0
  3 11  1  6  0  0  0
  3  7  1  0  0  0  0
  4  2  1  0  0  0  0
  6  8  1  1  0  0  0
  6  3  1  0  0  0  0
  7  2  1  0  0  0  0
  8  4  2  0  0  0  0
  9  1  1  6  0  0  0
  9 10  1  0  0  0  0
  9  6  1  0  0  0  0
 10 11  1  0  0  0  0
 12 13  1  6  0  0  0
 14 20  1  0  0  0  0
 14 12  1  0  0  0  0
 15 21  1  0  0  0  0
 16 17  1  0  0  0  0
 16 15  2  0  0  0  0
 18 22  2  0  0  0  0
 18 20  1  0  0  0  0
 19 15  1  0  0  0  0
 20 19  2  0  0  0  0
 22 16  1  0  0  0  0
 23  1  1  0  0  0  0
 24 23  1  0  0  0  0
 25 26  1  6  0  0  0
 25 24  1  0  0  0  0
 27 25  1  0  0  0  0
 28 27  1  0  0  0  0
 29 28  2  0  0  0  0
 30 28  1  0  0  0  0
 31 30  1  6  0  0  0
 31 35  1  0  0  0  0
 33 34  1  0  0  0  0
 33 31  1  0  0  0  0
 34 36  1  0  0  0  0
 35 37  1  6  0  0  0
 35 32  1  0  0  0  0
 36 32  1  0  0  0  0
 37 38  1  0  0  0  0
 38 43  1  0  0  0  0
 39 41  1  0  0  0  0
 40 39  2  0  0  0  0
 42 38  2  0  0  0  0
 42 40  1  0  0  0  0
 43 41  2  0  0  0  0
M  END
>  <MODEL>
5

>  <REMARK>
 VINA RESULT:      -7.5      2.697      6.272
  Name = 
  13 active torsions:
  status: ('A' for Active; 'I' for Inactive)
    1  A    between atoms: C_1  and  C_34
    2  A    between atoms: C_1  and  C_35
    3  A    between atoms: C_2  and  O_6
    4  A    between atoms: C_2  and  C_13
    5  A    between atoms: S_3  and  C_4
    6  A    between atoms: S_3  and  C_12
    7  A    between atoms: O_6  and  C_12
    8  A    between atoms: N_8  and  C_27
    9  A    between atoms: N_8  and  C_30
   10  A    between atoms: N_8  and  C_34
   11  A    between atoms: C_11  and  C_14
   12  A    between atoms: C_13  and  C_27
   13  A    between atoms: C_14  and  C_41
                            x       y       z     vdW  Elec       q    Type
                         _______ _______ _______ _____ _____    ______ ____

>  <TORSDO>
F 13

$$$$
=
 OpenBabel10272414433D

 43 47  0  0  1  0  0  0  0  0999 V2000
  188.4660  177.1570  141.7270 N   0  0  0  0  0  0  0  0  0  0  0  0
  188.5460  177.6700  147.0120 C   0  0  0  0  0  0  0  0  0  0  0  0
  189.9890  176.9360  145.1410 C   0  0  2  0  0  3  0  0  0  0  0  0
  187.3930  177.2200  146.1990 C   0  0  0  0  0  3  0  0  0  0  0  0
  188.3810  177.9440  148.2290 O   0  0  0  0  0  0  0  0  0  0  0  0
  188.8460  177.2870  144.2190 C   0  0  2  0  0  3  0  0  0  0  0  0
  189.9140  177.8120  146.3890 C   0  0  0  0  0  2  0  0  0  0  0  0
  187.5340  176.9940  144.8850 C   0  0  0  0  0  3  0  0  0  0  0  0
  189.0950  176.5430  142.9150 C   0  0  2  0  0  3  0  0  0  0  0  0
  190.9090  176.4180  142.6870 S   0  0  0  0  0  0  0  0  0  0  0  0
  191.2450  177.1300  144.3340 C   0  0  0  0  0  2  0  0  0  0  0  0
  187.7380  178.3860  142.0790 C   0  0  1  0  0  3  0  0  0  0  0  0
  188.5610  179.5050  141.9160 O   0  0  0  0  0  1  0  0  0  0  0  0
  186.5210  178.5590  141.1780 C   0  0  0  0  0  2  0  0  0  0  0  0
  184.1860  178.7810  144.1520 C   0  0  0  0  0  0  0  0  0  0  0  0
  182.9320  178.7570  143.5220 C   0  0  0  0  0  0  0  0  0  0  0  0
  181.7900  178.8230  144.2500 F   0  0  0  0  0  0  0  0  0  0  0  0
  184.0240  178.5910  141.3650 C   0  0  0  0  0  3  0  0  0  0  0  0
  185.3530  178.7080  143.3850 C   0  0  0  0  0  3  0  0  0  0  0  0
  185.2740  178.6120  141.9910 C   0  0  0  0  0  0  0  0  0  0  0  0
  184.2900  178.9010  145.6330 C   0  0  0  0  0  1  0  0  0  0  0  0
  182.8550  178.6600  142.1290 C   0  0  0  0  0  3  0  0  0  0  0  0
  189.4110  177.3220  140.6050 C   0  0  0  0  0  2  0  0  0  0  0  0
  189.0360  176.5180  139.3540 C   0  0  0  0  0  2  0  0  0  0  0  0
  188.6540  177.4270  138.1930 C   0  0  2  0  0  3  0  0  0  0  0  0
  189.1030  178.8550  138.4580 C   0  0  0  0  0  1  0  0  0  0  0  0
  187.2500  177.3560  137.9600 O   0  0  0  0  0  0  0  0  0  0  0  0
  186.6890  177.1400  136.6980 C   0  0  0  0  0  0  0  0  0  0  0  0
  186.8810  177.9870  135.7870 O   0  0  0  0  0  0  0  0  0  0  0  0
  185.6790  175.6950  136.3500 S   0  0  0  0  0  0  0  0  0  0  0  0
  184.1930  176.2110  137.2950 C   0  0  1  0  0  3  0  0  0  0  0  0
  182.4080  175.6900  138.9810 C   0  0  0  0  0  2  0  0  0  0  0  0
  183.4460  177.4060  136.6900 C   0  0  0  0  0  2  0  0  0  0  0  0
  182.0970  177.6510  137.3840 C   0  0  0  0  0  2  0  0  0  0  0  0
  183.2760  175.1090  137.8510 C   0  0  1  0  0  3  0  0  0  0  0  0
  182.1200  177.1980  138.8470 C   0  0  0  0  0  2  0  0  0  0  0  0
  182.3480  174.5430  136.7730 C   0  0  0  0  0  2  0  0  0  0  0  0
  182.5570  173.0820  136.5220 C   0  0  0  0  0  0  0  0  0  0  0  0
  183.0030  170.3900  136.0070 C   0  0  0  0  0  3  0  0  0  0  0  0
  181.7960  171.0000  135.6600 C   0  0  0  0  0  3  0  0  0  0  0  0
  184.0010  171.1530  136.6140 C   0  0  0  0  0  3  0  0  0  0  0  0
  181.6020  172.3230  135.9130 N   0  0  0  0  0  0  0  0  0  0  0  0
  183.7810  172.5070  136.8710 C   0  0  0  0  0  3  0  0  0  0  0  0
  1 12  1  0  0  0  0
  2  5  2  0  0  0  0
  3 11  1  6  0  0  0
  3  7  1  0  0  0  0
  4  2  1  0  0  0  0
  6  8  1  1  0  0  0
  6  3  1  0  0  0  0
  7  2  1  0  0  0  0
  8  4  2  0  0  0  0
  9  1  1  6  0  0  0
  9  6  1  0  0  0  0
 10  9  1  0  0  0  0
 10 11  1  0  0  0  0
 12 13  1  6  0  0  0
 14 20  1  0  0  0  0
 14 12  1  0  0  0  0
 15 21  1  0  0  0  0
 16 15  1  0  0  0  0
 16 17  1  0  0  0  0
 18 20  2  0  0  0  0
 18 22  1  0  0  0  0
 19 15  2  0  0  0  0
 20 19  1  0  0  0  0
 22 16  2  0  0  0  0
 23  1  1  0  0  0  0
 24 23  1  0  0  0  0
 25 26  1  1  0  0  0
 25 24  1  0  0  0  0
 27 25  1  0  0  0  0
 28 27  1  0  0  0  0
 29 28  2  0  0  0  0
 30 28  1  0  0  0  0
 31 30  1  6  0  0  0
 31 35  1  0  0  0  0
 33 31  1  0  0  0  0
 33 34  1  0  0  0  0
 34 36  1  0  0  0  0
 35 37  1  6  0  0  0
 35 32  1  0  0  0  0
 36 32  1  0  0  0  0
 38 37  1  0  0  0  0
 38 43  1  0  0  0  0
 39 41  1  0  0  0  0
 40 42  1  0  0  0  0
 40 39  2  0  0  0  0
 41 43  2  0  0  0  0
 42 38  2  0  0  0  0
M  END
>  <MODEL>
6

>  <REMARK>
 VINA RESULT:      -7.4      2.465      5.513
  Name = 
  13 active torsions:
  status: ('A' for Active; 'I' for Inactive)
    1  A    between atoms: C_1  and  C_34
    2  A    between atoms: C_1  and  C_35
    3  A    between atoms: C_2  and  O_6
    4  A    between atoms: C_2  and  C_13
    5  A    between atoms: S_3  and  C_4
    6  A    between atoms: S_3  and  C_12
    7  A    between atoms: O_6  and  C_12
    8  A    between atoms: N_8  and  C_27
    9  A    between atoms: N_8  and  C_30
   10  A    between atoms: N_8  and  C_34
   11  A    between atoms: C_11  and  C_14
   12  A    between atoms: C_13  and  C_27
   13  A    between atoms: C_14  and  C_41
                            x       y       z     vdW  Elec       q    Type
                         _______ _______ _______ _____ _____    ______ ____

>  <TORSDO>
F 13

$$$$
=
 OpenBabel10272414433D

 43 47  0  0  1  0  0  0  0  0999 V2000
  189.3290  177.3780  139.9240 N   0  0  0  0  0  0  0  0  0  0  0  0
  192.5670  175.2970  136.2660 C   0  0  0  0  0  0  0  0  0  0  0  0
  192.6470  176.5170  138.4170 C   0  0  2  0  0  3  0  0  0  0  0  0
  191.2930  176.0040  135.9990 C   0  0  0  0  0  3  0  0  0  0  0  0
  193.1400  174.6740  135.3350 O   0  0  0  0  0  0  0  0  0  0  0  0
  191.1380  176.4940  138.4020 C   0  0  2  0  0  3  0  0  0  0  0  0
  193.1760  175.3090  137.6470 C   0  0  0  0  0  2  0  0  0  0  0  0
  190.6310  176.6100  136.9940 C   0  0  0  0  0  3  0  0  0  0  0  0
  190.6760  177.5890  139.3540 C   0  0  2  0  0  3  0  0  0  0  0  0
  191.9240  177.7230  140.6880 S   0  0  0  0  0  0  0  0  0  0  0  0
  193.0460  176.5400  139.8680 C   0  0  0  0  0  2  0  0  0  0  0  0
  189.2680  177.8010  141.3310 C   0  0  1  0  0  3  0  0  0  0  0  0
  188.3920  178.8810  141.4800 O   0  0  0  0  0  1  0  0  0  0  0  0
  188.7640  176.6590  142.2060 C   0  0  0  0  0  2  0  0  0  0  0  0
  188.6150  177.3240  145.9320 C   0  0  0  0  0  0  0  0  0  0  0  0
  189.9660  177.2000  146.2900 C   0  0  0  0  0  0  0  0  0  0  0  0
  190.3590  177.3650  147.5770 F   0  0  0  0  0  0  0  0  0  0  0  0
  190.5310  176.7370  143.9790 C   0  0  0  0  0  3  0  0  0  0  0  0
  188.2290  177.1550  144.5990 C   0  0  0  0  0  3  0  0  0  0  0  0
  189.1850  176.8620  143.6210 C   0  0  0  0  0  0  0  0  0  0  0  0
  187.5800  177.6170  146.9620 C   0  0  0  0  0  1  0  0  0  0  0  0
  190.9220  176.9100  145.3110 C   0  0  0  0  0  3  0  0  0  0  0  0
  188.2600  177.9510  139.0810 C   0  0  0  0  0  2  0  0  0  0  0  0
  187.4400  176.9000  138.3210 C   0  0  0  0  0  2  0  0  0  0  0  0
  187.0920  177.3670  136.9130 C   0  0  2  0  0  3  0  0  0  0  0  0
  187.6040  178.7780  136.6720 C   0  0  0  0  0  1  0  0  0  0  0  0
  185.6840  177.2800  136.7060 O   0  0  0  0  0  0  0  0  0  0  0  0
  184.9800  176.0720  136.7040 C   0  0  0  0  0  0  0  0  0  0  0  0
  185.3730  175.1340  135.9620 O   0  0  0  0  0  0  0  0  0  0  0  0
  183.5140  175.8340  137.7150 S   0  0  0  0  0  0  0  0  0  0  0  0
  183.3080  177.5770  138.2500 C   0  0  1  0  0  3  0  0  0  0  0  0
  184.1080  179.5400  139.5940 C   0  0  0  0  0  2  0  0  0  0  0  0
  181.8950  178.1360  138.0450 C   0  0  0  0  0  2  0  0  0  0  0  0
  181.7180  179.5090  138.7120 C   0  0  0  0  0  2  0  0  0  0  0  0
  183.9720  178.0070  139.5690 C   0  0  1  0  0  3  0  0  0  0  0  0
  183.0370  180.2840  138.7730 C   0  0  0  0  0  2  0  0  0  0  0  0
  183.1510  177.5750  140.7870 C   0  0  0  0  0  2  0  0  0  0  0  0
  183.6400  178.1720  142.0690 C   0  0  0  0  0  0  0  0  0  0  0  0
  184.5650  179.2090  144.4740 C   0  0  0  0  0  3  0  0  0  0  0  0
  183.2180  179.3080  144.1160 C   0  0  0  0  0  3  0  0  0  0  0  0
  185.4530  178.5680  143.6090 C   0  0  0  0  0  3  0  0  0  0  0  0
  182.7850  178.7850  142.9380 N   0  0  0  0  0  0  0  0  0  0  0  0
  184.9900  178.0430  142.4010 C   0  0  0  0  0  3  0  0  0  0  0  0
  1 12  1  0  0  0  0
  2  7  1  0  0  0  0
  3  7  1  1  0  0  0
  3 11  1  0  0  0  0
  4  2  1  0  0  0  0
  4  8  2  0  0  0  0
  5  2  2  0  0  0  0
  6  8  1  6  0  0  0
  6  3  1  0  0  0  0
  6  9  1  0  0  0  0
  9  1  1  1  0  0  0
  9 10  1  0  0  0  0
 11 10  1  0  0  0  0
 12 13  1  6  0  0  0
 12 14  1  0  0  0  0
 14 20  1  0  0  0  0
 15 16  1  0  0  0  0
 15 21  1  0  0  0  0
 16 17  1  0  0  0  0
 18 22  1  0  0  0  0
 19 15  2  0  0  0  0
 20 18  2  0  0  0  0
 20 19  1  0  0  0  0
 22 16  2  0  0  0  0
 23  1  1  0  0  0  0
 24 23  1  0  0  0  0
 25 26  1  1  0  0  0
 25 24  1  0  0  0  0
 27 25  1  0  0  0  0
 28 27  1  0  0  0  0
 28 30  1  0  0  0  0
 29 28  2  0  0  0  0
 31 30  1  1  0  0  0
 31 35  1  0  0  0  0
 33 31  1  0  0  0  0
 33 34  1  0  0  0  0
 34 36  1  0  0  0  0
 35 32  1  0  0  0  0
 35 37  1  1  0  0  0
 36 32  1  0  0  0  0
 37 38  1  0  0  0  0
 38 43  2  0  0  0  0
 38 42  1  0  0  0  0
 40 39  1  0  0  0  0
 41 39  2  0  0  0  0
 42 40  2  0  0  0  0
 43 41  1  0  0  0  0
M  END
>  <MODEL>
7

>  <REMARK>
 VINA RESULT:      -7.4      2.262      4.665
  Name = 
  13 active torsions:
  status: ('A' for Active; 'I' for Inactive)
    1  A    between atoms: C_1  and  C_34
    2  A    between atoms: C_1  and  C_35
    3  A    between atoms: C_2  and  O_6
    4  A    between atoms: C_2  and  C_13
    5  A    between atoms: S_3  and  C_4
    6  A    between atoms: S_3  and  C_12
    7  A    between atoms: O_6  and  C_12
    8  A    between atoms: N_8  and  C_27
    9  A    between atoms: N_8  and  C_30
   10  A    between atoms: N_8  and  C_34
   11  A    between atoms: C_11  and  C_14
   12  A    between atoms: C_13  and  C_27
   13  A    between atoms: C_14  and  C_41
                            x       y       z     vdW  Elec       q    Type
                         _______ _______ _______ _____ _____    ______ ____

>  <TORSDO>
F 13

$$$$
=
 OpenBabel10272414433D

 43 47  0  0  1  0  0  0  0  0999 V2000
  186.9710  178.3960  144.5410 N   0  0  0  0  0  0  0  0  0  0  0  0
  191.4410  176.4900  146.6820 C   0  0  0  0  0  0  0  0  0  0  0  0
  189.2200  177.3530  147.3470 C   0  0  2  0  0  3  0  0  0  0  0  0
  191.3530  177.3870  145.5060 C   0  0  0  0  0  3  0  0  0  0  0  0
  192.5380  175.9460  146.9690 O   0  0  0  0  0  0  0  0  0  0  0  0
  188.9280  177.5260  145.8760 C   0  0  2  0  0  3  0  0  0  0  0  0
  190.2230  176.2160  147.5300 C   0  0  0  0  0  2  0  0  0  0  0  0
  190.1770  177.9160  145.1420 C   0  0  0  0  0  3  0  0  0  0  0  0
  187.7750  178.5150  145.7750 C   0  0  2  0  0  3  0  0  0  0  0  0
  186.7190  178.2860  147.2540 S   0  0  0  0  0  0  0  0  0  0  0  0
  187.8890  177.1050  148.0070 C   0  0  0  0  0  2  0  0  0  0  0  0
  187.6200  177.5160  143.5570 C   0  0  1  0  0  3  0  0  0  0  0  0
  187.0880  176.2240  143.6300 O   0  0  0  0  0  1  0  0  0  0  0  0
  187.3950  178.0410  142.1450 C   0  0  0  0  0  2  0  0  0  0  0  0
  189.6470  177.7500  139.1130 C   0  0  0  0  0  0  0  0  0  0  0  0
  190.8570  177.3540  139.7030 C   0  0  0  0  0  0  0  0  0  0  0  0
  191.9590  177.1370  138.9450 F   0  0  0  0  0  0  0  0  0  0  0  0
  189.8010  177.3950  141.8850 C   0  0  0  0  0  3  0  0  0  0  0  0
  188.5190  177.9640  139.9110 C   0  0  0  0  0  3  0  0  0  0  0  0
  188.5940  177.7870  141.2970 C   0  0  0  0  0  0  0  0  0  0  0  0
  189.5530  177.9610  137.6420 C   0  0  0  0  0  1  0  0  0  0  0  0
  190.9300  177.1750  141.0890 C   0  0  0  0  0  3  0  0  0  0  0  0
  185.5610  178.0500  144.8130 C   0  0  0  0  0  2  0  0  0  0  0  0
  184.6250  179.2640  144.8720 C   0  0  0  0  0  2  0  0  0  0  0  0
  183.5970  179.2380  143.7480 C   0  0  2  0  0  3  0  0  0  0  0  0
  182.2780  178.6630  144.2390 C   0  0  0  0  0  1  0  0  0  0  0  0
  184.1070  178.5020  142.6390 O   0  0  0  0  0  0  0  0  0  0  0  0
  183.8600  178.8480  141.3070 C   0  0  0  0  0  0  0  0  0  0  0  0
  184.7290  179.4960  140.6690 O   0  0  0  0  0  0  0  0  0  0  0  0
  182.3200  178.4110  140.4910 S   0  0  0  0  0  0  0  0  0  0  0  0
  183.0440  177.3870  139.1510 C   0  0  1  0  0  3  0  0  0  0  0  0
  184.1630  177.2270  136.9100 C   0  0  0  0  0  2  0  0  0  0  0  0
  182.6070  175.9180  139.1760 C   0  0  0  0  0  2  0  0  0  0  0  0
  183.0550  175.1640  137.9140 C   0  0  0  0  0  2  0  0  0  0  0  0
  183.1240  177.9980  137.7420 C   0  0  1  0  0  3  0  0  0  0  0  0
  184.3400  175.7530  137.3260 C   0  0  0  0  0  2  0  0  0  0  0  0
  181.7770  177.9310  137.0150 C   0  0  0  0  0  2  0  0  0  0  0  0
  181.2910  179.2670  136.5500 C   0  0  0  0  0  0  0  0  0  0  0  0
  180.4540  181.7560  135.6460 C   0  0  0  0  0  3  0  0  0  0  0  0
  180.6900  181.5240  137.0030 C   0  0  0  0  0  3  0  0  0  0  0  0
  180.6540  180.7200  134.7330 C   0  0  0  0  0  3  0  0  0  0  0  0
  181.1080  180.2990  137.4230 N   0  0  0  0  0  0  0  0  0  0  0  0
  181.0770  179.4690  135.1840 C   0  0  0  0  0  3  0  0  0  0  0  0
  1 23  1  0  0  0  0
  2  5  2  0  0  0  0
  2  7  1  0  0  0  0
  3  7  1  6  0  0  0
  3 11  1  0  0  0  0
  4  2  1  0  0  0  0
  6  8  1  6  0  0  0
  6  3  1  0  0  0  0
  8  4  2  0  0  0  0
  9  1  1  6  0  0  0
  9  6  1  0  0  0  0
  9 10  1  0  0  0  0
 10 11  1  0  0  0  0
 12 13  1  6  0  0  0
 12  1  1  0  0  0  0
 14 12  1  0  0  0  0
 15 16  2  0  0  0  0
 15 19  1  0  0  0  0
 16 22  1  0  0  0  0
 17 16  1  0  0  0  0
 19 20  2  0  0  0  0
 20 18  1  0  0  0  0
 20 14  1  0  0  0  0
 21 15  1  0  0  0  0
 22 18  2  0  0  0  0
 23 24  1  0  0  0  0
 25 26  1  1  0  0  0
 25 24  1  0  0  0  0
 27 25  1  0  0  0  0
 28 27  1  0  0  0  0
 29 28  2  0  0  0  0
 30 28  1  0  0  0  0
 31 33  1  0  0  0  0
 31 30  1  1  0  0  0
 32 36  1  0  0  0  0
 32 35  1  0  0  0  0
 34 33  1  0  0  0  0
 35 37  1  6  0  0  0
 35 31  1  0  0  0  0
 36 34  1  0  0  0  0
 38 37  1  0  0  0  0
 38 42  1  0  0  0  0
 39 40  1  0  0  0  0
 40 42  2  0  0  0  0
 41 43  1  0  0  0  0
 41 39  2  0  0  0  0
 43 38  2  0  0  0  0
M  END
>  <MODEL>
8

>  <REMARK>
 VINA RESULT:      -7.3      3.258      6.745
  Name = 
  13 active torsions:
  status: ('A' for Active; 'I' for Inactive)
    1  A    between atoms: C_1  and  C_34
    2  A    between atoms: C_1  and  C_35
    3  A    between atoms: C_2  and  O_6
    4  A    between atoms: C_2  and  C_13
    5  A    between atoms: S_3  and  C_4
    6  A    between atoms: S_3  and  C_12
    7  A    between atoms: O_6  and  C_12
    8  A    between atoms: N_8  and  C_27
    9  A    between atoms: N_8  and  C_30
   10  A    between atoms: N_8  and  C_34
   11  A    between atoms: C_11  and  C_14
   12  A    between atoms: C_13  and  C_27
   13  A    between atoms: C_14  and  C_41
                            x       y       z     vdW  Elec       q    Type
                         _______ _______ _______ _____ _____    ______ ____

>  <TORSDO>
F 13

$$$$
=
 OpenBabel10272414433D

 43 47  0  0  1  0  0  0  0  0999 V2000
  189.4240  177.9490  141.3620 N   0  0  0  0  0  0  0  0  0  0  0  0
  184.7930  179.2260  143.6280 C   0  0  0  0  0  0  0  0  0  0  0  0
  186.4450  177.3850  143.5600 C   0  0  2  0  0  3  0  0  0  0  0  0
  185.1970  179.5370  142.2370 C   0  0  0  0  0  3  0  0  0  0  0  0
  183.7590  179.7560  144.1090 O   0  0  0  0  0  0  0  0  0  0  0  0
  187.2490  178.2390  142.6110 C   0  0  2  0  0  3  0  0  0  0  0  0
  185.6200  178.2880  144.4740 C   0  0  0  0  0  2  0  0  0  0  0  0
  186.3350  179.0410  141.7320 C   0  0  0  0  0  3  0  0  0  0  0  0
  188.2000  177.3020  141.8800 C   0  0  2  0  0  3  0  0  0  0  0  0
  188.6320  175.9440  143.0320 S   0  0  0  0  0  0  0  0  0  0  0  0
  187.4420  176.5250  144.2890 C   0  0  0  0  0  2  0  0  0  0  0  0
  190.6020  177.5980  142.1690 C   0  0  1  0  0  3  0  0  0  0  0  0
  191.7630  177.6600  141.3920 O   0  0  0  0  0  1  0  0  0  0  0  0
  190.7580  178.5720  143.3310 C   0  0  0  0  0  2  0  0  0  0  0  0
  190.0720  177.3790  146.8600 C   0  0  0  0  0  0  0  0  0  0  0  0
  191.0740  176.4110  147.0250 C   0  0  0  0  0  0  0  0  0  0  0  0
  191.1830  175.7180  148.1850 F   0  0  0  0  0  0  0  0  0  0  0  0
  191.8760  176.8650  144.7830 C   0  0  0  0  0  3  0  0  0  0  0  0
  189.9780  178.0870  145.6580 C   0  0  0  0  0  3  0  0  0  0  0  0
  190.8790  177.8320  144.6190 C   0  0  0  0  0  0  0  0  0  0  0  0
  189.0930  177.6520  147.9480 C   0  0  0  0  0  1  0  0  0  0  0  0
  191.9760  176.1580  145.9860 C   0  0  0  0  0  3  0  0  0  0  0  0
  189.6070  177.7380  139.9120 C   0  0  0  0  0  2  0  0  0  0  0  0
  188.3050  177.4360  139.1600 C   0  0  0  0  0  2  0  0  0  0  0  0
  188.4880  177.5400  137.6510 C   0  0  2  0  0  3  0  0  0  0  0  0
  188.9660  178.9290  137.2620 C   0  0  0  0  0  1  0  0  0  0  0  0
  187.2710  177.2030  136.9890 O   0  0  0  0  0  0  0  0  0  0  0  0
  187.2240  176.5730  135.7410 C   0  0  0  0  0  0  0  0  0  0  0  0
  188.2870  176.1230  135.2400 O   0  0  0  0  0  0  0  0  0  0  0  0
  185.6870  176.4130  134.8240 S   0  0  0  0  0  0  0  0  0  0  0  0
  184.9830  175.0170  135.7840 C   0  0  1  0  0  3  0  0  0  0  0  0
  183.0340  173.9620  136.9630 C   0  0  0  0  0  2  0  0  0  0  0  0
  186.0320  174.1230  136.4570 C   0  0  0  0  0  2  0  0  0  0  0  0
  185.3920  173.1160  137.4250 C   0  0  0  0  0  2  0  0  0  0  0  0
  183.7410  175.2920  136.6480 C   0  0  1  0  0  3  0  0  0  0  0  0
  183.9710  172.7390  136.9950 C   0  0  0  0  0  2  0  0  0  0  0  0
  184.1070  175.9690  137.9720 C   0  0  0  0  0  2  0  0  0  0  0  0
  183.5080  177.3330  138.1220 C   0  0  0  0  0  0  0  0  0  0  0  0
  182.4050  179.8560  138.4780 C   0  0  0  0  0  3  0  0  0  0  0  0
  181.6500  178.8070  137.9510 C   0  0  0  0  0  3  0  0  0  0  0  0
  183.7330  179.6240  138.8390 C   0  0  0  0  0  3  0  0  0  0  0  0
  182.2070  177.5770  137.7930 N   0  0  0  0  0  0  0  0  0  0  0  0
  184.2890  178.3560  138.6650 C   0  0  0  0  0  3  0  0  0  0  0  0
  1 12  1  0  0  0  0
  2  5  2  0  0  0  0
  2  7  1  0  0  0  0
  3 11  1  1  0  0  0
  3  7  1  0  0  0  0
  4  2  1  0  0  0  0
  6  8  1  6  0  0  0
  6  3  1  0  0  0  0
  8  4  2  0  0  0  0
  9  1  1  1  0  0  0
  9  6  1  0  0  0  0
  9 10  1  0  0  0  0
 10 11  1  0  0  0  0
 12 13  1  6  0  0  0
 12 14  1  0  0  0  0
 14 20  1  0  0  0  0
 15 16  1  0  0  0  0
 15 21  1  0  0  0  0
 16 17  1  0  0  0  0
 18 22  1  0  0  0  0
 19 15  2  0  0  0  0
 20 18  2  0  0  0  0
 20 19  1  0  0  0  0
 22 16  2  0  0  0  0
 23  1  1  0  0  0  0
 24 23  1  0  0  0  0
 25 26  1  1  0  0  0
 25 24  1  0  0  0  0
 27 25  1  0  0  0  0
 28 27  1  0  0  0  0
 29 28  2  0  0  0  0
 30 28  1  0  0  0  0
 31 30  1  1  0  0  0
 31 33  1  0  0  0  0
 31 35  1  0  0  0  0
 32 36  1  0  0  0  0
 33 34  1  0  0  0  0
 35 32  1  0  0  0  0
 35 37  1  1  0  0  0
 36 34  1  0  0  0  0
 37 38  1  0  0  0  0
 38 43  1  0  0  0  0
 39 41  1  0  0  0  0
 40 39  2  0  0  0  0
 42 40  1  0  0  0  0
 42 38  2  0  0  0  0
 43 41  2  0  0  0  0
M  END
>  <MODEL>
9

>  <REMARK>
 VINA RESULT:      -7.3      2.123      5.186
  Name = 
  13 active torsions:
  status: ('A' for Active; 'I' for Inactive)
    1  A    between atoms: C_1  and  C_34
    2  A    between atoms: C_1  and  C_35
    3  A    between atoms: C_2  and  O_6
    4  A    between atoms: C_2  and  C_13
    5  A    between atoms: S_3  and  C_4
    6  A    between atoms: S_3  and  C_12
    7  A    between atoms: O_6  and  C_12
    8  A    between atoms: N_8  and  C_27
    9  A    between atoms: N_8  and  C_30
   10  A    between atoms: N_8  and  C_34
   11  A    between atoms: C_11  and  C_14
   12  A    between atoms: C_13  and  C_27
   13  A    between atoms: C_14  and  C_41
                            x       y       z     vdW  Elec       q    Type
                         _______ _______ _______ _____ _____    ______ ____

>  <TORSDO>
F 13

$$$$
