=
 OpenBabel10272414553D

 37 42  0  0  1  0  0  0  0  0999 V2000
  189.7690  176.3200  139.0580 C   0  0  1  0  0  3  0  0  0  0  0  0
  187.7760  178.9910  137.9960 O   0  0  0  0  0  1  0  0  0  0  0  0
  189.1950  177.3030  141.0050 C   0  0  1  0  0  3  0  0  0  0  0  0
  188.4740  178.4360  140.2260 C   0  0  1  0  0  3  0  0  0  0  0  0
  188.2240  177.9390  138.7970 C   0  0  2  0  0  3  0  0  0  0  0  0
  190.2900  176.8120  140.2680 O   0  0  0  0  0  0  0  0  0  0  0  0
  189.4010  177.4050  138.2400 O   0  0  0  0  0  0  0  0  0  0  0  0
  189.0730  176.7390  146.6230 C   0  0  0  0  0  2  0  0  0  0  0  0
  189.6500  177.6540  142.3700 N   0  0  1  0  0  0  0  0  0  0  0  0
  190.3680  176.5510  144.4350 C   0  0  1  0  0  3  0  0  0  0  0  0
  189.2680  176.6510  143.3660 C   0  0  1  0  0  3  0  0  0  0  0  0
  191.6240  177.0730  143.7320 C   0  0  2  0  0  3  0  0  0  0  0  0
  187.7890  176.6920  143.7640 C   0  0  0  0  0  2  0  0  0  0  0  0
  186.9230  177.4910  145.8140 O   0  0  0  0  0  0  0  0  0  0  0  0
  192.0180  177.7160  141.2390 C   0  0  0  0  0  1  0  0  0  0  0  0
  191.6160  178.6020  143.5880 C   0  0  0  0  0  2  0  0  0  0  0  0
  187.4090  177.9200  144.5720 C   0  0  0  0  0  2  0  0  0  0  0  0
  191.1140  177.7340  142.4670 C   0  0  1  0  0  0  0  0  0  0  0  0
  190.1400  177.3420  145.7290 C   0  0  0  0  0  2  0  0  0  0  0  0
  187.9350  177.7470  146.7500 C   0  0  0  0  0  2  0  0  0  0  0  0
  190.8190  175.4730  138.3520 C   0  0  1  0  0  3  0  0  0  0  0  0
  190.2210  174.3340  137.8070 O   0  0  0  0  0  0  0  0  0  0  0  0
  188.5610  174.4820  136.1130 C   0  0  0  0  0  1  0  0  0  0  0  0
  190.0260  174.6420  136.4600 C   0  0  0  0  0  2  0  0  0  0  0  0
  191.4150  176.2160  137.3280 O   0  0  0  0  0  0  0  0  0  0  0  0
  193.5330  175.2140  137.7030 C   0  0  0  0  0  2  0  0  0  0  0  0
  192.7090  176.4820  137.7820 C   0  0  0  0  0  3  0  0  0  0  0  0
  193.6870  176.2810  136.6430 C   0  0  0  0  0  2  0  0  0  0  0  0
  187.1540  178.7960  140.8880 C   0  0  0  0  0  2  0  0  0  0  0  0
  185.9990  178.3620  140.0070 C   0  0  0  0  0  2  0  0  0  0  0  0
  183.5010  178.4350  140.0770 C   0  0  0  0  0  3  0  0  0  0  0  0
  184.7220  178.4700  140.7620 C   0  0  0  0  0  0  0  0  0  0  0  0
  184.7390  178.6420  142.1510 C   0  0  0  0  0  3  0  0  0  0  0  0
  183.5590  178.9870  144.6260 S   0  0  0  0  0  1  0  0  0  0  0  0
  182.3180  178.7290  142.1700 C   0  0  0  0  0  3  0  0  0  0  0  0
  183.5370  178.7690  142.8540 C   0  0  0  0  0  0  0  0  0  0  0  0
  182.3000  178.5630  140.7820 C   0  0  0  0  0  3  0  0  0  0  0  0
  1 21  1  6  0  0  0
  1  6  1  0  0  0  0
  3  6  1  6  0  0  0
  4 29  1  1  0  0  0
  4  3  1  0  0  0  0
  5  2  1  6  0  0  0
  5  4  1  0  0  0  0
  7  5  1  0  0  0  0
  7  1  1  0  0  0  0
  8 20  1  0  0  0  0
  9  3  1  6  0  0  0
  9 18  1  0  0  0  0
  9 11  1  0  0  0  0
 10 19  1  1  0  0  0
 11 13  1  1  0  0  0
 11 10  1  0  0  0  0
 12 16  1  1  0  0  0
 12 10  1  0  0  0  0
 13 17  1  0  0  0  0
 14 20  1  0  0  0  0
 17 14  1  0  0  0  0
 18 15  1  6  0  0  0
 18 16  1  0  0  0  0
 18 12  1  0  0  0  0
 19  8  1  0  0  0  0
 21 25  1  6  0  0  0
 22 21  1  0  0  0  0
 23 24  1  0  0  0  0
 24 22  1  0  0  0  0
 25 27  1  0  0  0  0
 26 27  1  0  0  0  0
 28 26  1  0  0  0  0
 28 27  1  0  0  0  0
 30 32  1  0  0  0  0
 30 29  1  0  0  0  0
 31 32  2  0  0  0  0
 31 37  1  0  0  0  0
 32 33  1  0  0  0  0
 33 36  2  0  0  0  0
 35 36  1  0  0  0  0
 36 34  1  0  0  0  0
 37 35  2  0  0  0  0
M  END
>  <MODEL>
1

>  <REMARK>
 VINA RESULT:      -8.4      0.000      0.000
  Name = 
  9 active torsions:
  status: ('A' for Active; 'I' for Inactive)
    1  A    between atoms: C_1  and  C_33
    2  A    between atoms: N_4  and  C_10
    3  A    between atoms: O_5  and  C_23
    4  A    between atoms: O_5  and  C_33
    5  A    between atoms: C_6  and  C_31
    6  A    between atoms: C_14  and  C_37
    7  A    between atoms: O_17  and  C_26
    8  A    between atoms: O_17  and  C_33
    9  A    between atoms: C_31  and  C_37
                            x       y       z     vdW  Elec       q    Type
                         _______ _______ _______ _____ _____    ______ ____

>  <TORSDO>
F 9

$$$$
=
 OpenBabel10272414553D

 37 42  0  0  1  0  0  0  0  0999 V2000
  189.2760  176.9040  139.2340 C   0  0  1  0  0  3  0  0  0  0  0  0
  186.3640  178.8320  139.0380 O   0  0  0  0  0  1  0  0  0  0  0  0
  188.8720  177.3950  141.3970 C   0  0  1  0  0  3  0  0  0  0  0  0
  187.6780  178.2930  140.9760 C   0  0  1  0  0  3  0  0  0  0  0  0
  187.2850  177.9120  139.5430 C   0  0  2  0  0  3  0  0  0  0  0  0
  189.8720  177.4000  140.4070 O   0  0  0  0  0  0  0  0  0  0  0  0
  188.4160  177.8840  138.7050 O   0  0  0  0  0  0  0  0  0  0  0  0
  189.3720  176.7600  146.9880 C   0  0  0  0  0  2  0  0  0  0  0  0
  189.4850  177.7190  142.7060 N   0  0  1  0  0  0  0  0  0  0  0  0
  190.4080  176.5740  144.6650 C   0  0  1  0  0  3  0  0  0  0  0  0
  189.1960  176.7110  143.7280 C   0  0  1  0  0  3  0  0  0  0  0  0
  191.5870  177.0780  143.8300 C   0  0  2  0  0  3  0  0  0  0  0  0
  187.7730  176.7770  144.2910 C   0  0  0  0  0  2  0  0  0  0  0  0
  187.1620  177.5680  146.4340 O   0  0  0  0  0  0  0  0  0  0  0  0
  191.7110  177.7460  141.3150 C   0  0  0  0  0  1  0  0  0  0  0  0
  191.5970  178.6100  143.7040 C   0  0  0  0  0  2  0  0  0  0  0  0
  187.5140  178.0030  145.1510 C   0  0  0  0  0  2  0  0  0  0  0  0
  190.9530  177.7660  142.6380 C   0  0  1  0  0  0  0  0  0  0  0  0
  190.3440  177.3530  145.9850 C   0  0  0  0  0  2  0  0  0  0  0  0
  188.2790  177.7900  147.2530 C   0  0  0  0  0  2  0  0  0  0  0  0
  190.3540  176.5590  138.2150 C   0  0  1  0  0  3  0  0  0  0  0  0
  191.0600  175.4290  138.6370 O   0  0  0  0  0  0  0  0  0  0  0  0
  192.7570  174.3480  137.3710 C   0  0  0  0  0  1  0  0  0  0  0  0
  192.3460  175.5980  138.1220 C   0  0  0  0  0  2  0  0  0  0  0  0
  189.7650  176.2980  136.9740 O   0  0  0  0  0  0  0  0  0  0  0  0
  187.7950  175.1310  136.3520 C   0  0  0  0  0  2  0  0  0  0  0  0
  189.0850  175.0910  137.1450 C   0  0  0  0  0  3  0  0  0  0  0  0
  188.9900  174.3790  135.8110 C   0  0  0  0  0  2  0  0  0  0  0  0
  186.4940  178.0980  141.9080 C   0  0  0  0  0  2  0  0  0  0  0  0
  185.8210  179.4300  142.1740 C   0  0  0  0  0  2  0  0  0  0  0  0
  184.3560  179.2000  144.1870 C   0  0  0  0  0  3  0  0  0  0  0  0
  184.4870  179.2060  142.7930 C   0  0  0  0  0  0  0  0  0  0  0  0
  183.3700  178.9630  141.9860 C   0  0  0  0  0  3  0  0  0  0  0  0
  180.6980  178.4200  141.5400 S   0  0  0  0  0  1  0  0  0  0  0  0
  181.9910  178.7270  143.9630 C   0  0  0  0  0  3  0  0  0  0  0  0
  182.1230  178.7270  142.5710 C   0  0  0  0  0  0  0  0  0  0  0  0
  183.1080  178.9640  144.7710 C   0  0  0  0  0  3  0  0  0  0  0  0
  1 21  1  6  0  0  0
  1  6  1  0  0  0  0
  3  6  1  6  0  0  0
  4  3  1  0  0  0  0
  4 29  1  1  0  0  0
  5  2  1  6  0  0  0
  5  4  1  0  0  0  0
  7  1  1  0  0  0  0
  7  5  1  0  0  0  0
  8 20  1  0  0  0  0
  9  3  1  6  0  0  0
  9 11  1  0  0  0  0
 10 19  1  1  0  0  0
 11 13  1  1  0  0  0
 11 10  1  0  0  0  0
 12 16  1  1  0  0  0
 12 10  1  0  0  0  0
 13 17  1  0  0  0  0
 14 20  1  0  0  0  0
 17 14  1  0  0  0  0
 18 15  1  6  0  0  0
 18  9  1  0  0  0  0
 18 16  1  0  0  0  0
 18 12  1  0  0  0  0
 19  8  1  0  0  0  0
 21 25  1  6  0  0  0
 21 22  1  0  0  0  0
 23 24  1  0  0  0  0
 24 22  1  0  0  0  0
 25 27  1  0  0  0  0
 26 27  1  0  0  0  0
 28 26  1  0  0  0  0
 28 27  1  0  0  0  0
 29 30  1  0  0  0  0
 30 32  1  0  0  0  0
 31 37  1  0  0  0  0
 32 31  2  0  0  0  0
 33 36  2  0  0  0  0
 33 32  1  0  0  0  0
 34 36  1  0  0  0  0
 35 37  2  0  0  0  0
 36 35  1  0  0  0  0
M  END
>  <MODEL>
2

>  <REMARK>
 VINA RESULT:      -8.4      1.251      2.299
  Name = 
  9 active torsions:
  status: ('A' for Active; 'I' for Inactive)
    1  A    between atoms: C_1  and  C_33
    2  A    between atoms: N_4  and  C_10
    3  A    between atoms: O_5  and  C_23
    4  A    between atoms: O_5  and  C_33
    5  A    between atoms: C_6  and  C_31
    6  A    between atoms: C_14  and  C_37
    7  A    between atoms: O_17  and  C_26
    8  A    between atoms: O_17  and  C_33
    9  A    between atoms: C_31  and  C_37
                            x       y       z     vdW  Elec       q    Type
                         _______ _______ _______ _____ _____    ______ ____

>  <TORSDO>
F 9

$$$$
=
 OpenBabel10272414553D

 37 42  0  0  1  0  0  0  0  0999 V2000
  193.5350  176.3940  136.8030 C   0  0  1  0  0  3  0  0  0  0  0  0
  193.9340  176.7030  140.2650 O   0  0  0  0  0  1  0  0  0  0  0  0
  191.4030  176.4730  137.5340 C   0  0  1  0  0  3  0  0  0  0  0  0
  191.9010  176.4830  139.0040 C   0  0  1  0  0  3  0  0  0  0  0  0
  193.3810  176.8880  138.9970 C   0  0  2  0  0  3  0  0  0  0  0  0
  192.2880  175.7490  136.7130 O   0  0  0  0  0  0  0  0  0  0  0  0
  194.1040  176.1230  138.0620 O   0  0  0  0  0  0  0  0  0  0  0  0
  186.0740  177.0250  135.7450 C   0  0  0  0  0  2  0  0  0  0  0  0
  190.0280  175.9640  137.3280 N   0  0  1  0  0  0  0  0  0  0  0  0
  188.3290  175.8470  135.5670 C   0  0  1  0  0  3  0  0  0  0  0  0
  189.2680  176.7650  136.3660 C   0  0  1  0  0  3  0  0  0  0  0  0
  188.9740  174.4630  135.6760 C   0  0  2  0  0  3  0  0  0  0  0  0
  188.7730  178.1060  136.9170 C   0  0  0  0  0  2  0  0  0  0  0  0
  186.5400  178.6340  137.4880 O   0  0  0  0  0  0  0  0  0  0  0  0
  191.2710  173.7460  136.6750 C   0  0  0  0  0  1  0  0  0  0  0  0
  188.7580  173.8270  137.0570 C   0  0  0  0  0  2  0  0  0  0  0  0
  187.6770  177.9690  137.9610 C   0  0  0  0  0  2  0  0  0  0  0  0
  190.0140  174.6040  136.7700 C   0  0  1  0  0  0  0  0  0  0  0  0
  186.8740  175.7720  136.0480 C   0  0  0  0  0  2  0  0  0  0  0  0
  185.6400  177.6420  137.0700 C   0  0  0  0  0  2  0  0  0  0  0  0
  194.4570  175.8900  135.7010 C   0  0  1  0  0  3  0  0  0  0  0  0
  195.6100  176.6770  135.6520 O   0  0  0  0  0  0  0  0  0  0  0  0
  196.3330  178.7530  134.7480 C   0  0  0  0  0  1  0  0  0  0  0  0
  195.3830  177.5810  134.6130 C   0  0  0  0  0  2  0  0  0  0  0  0
  194.8130  174.5620  135.9530 O   0  0  0  0  0  0  0  0  0  0  0  0
  195.7450  173.0310  134.3980 C   0  0  0  0  0  2  0  0  0  0  0  0
  194.5490  173.8860  134.7600 C   0  0  0  0  0  3  0  0  0  0  0  0
  194.5270  172.3950  135.0280 C   0  0  0  0  0  2  0  0  0  0  0  0
  191.1000  177.4640  139.8430 C   0  0  0  0  0  2  0  0  0  0  0  0
  190.1530  176.7090  140.7560 C   0  0  0  0  0  2  0  0  0  0  0  0
  191.4080  177.8520  142.5910 C   0  0  0  0  0  3  0  0  0  0  0  0
  190.2180  177.2770  142.1290 C   0  0  0  0  0  0  0  0  0  0  0  0
  189.1050  177.2030  142.9740 C   0  0  0  0  0  3  0  0  0  0  0  0
  187.7560  177.6220  145.3490 S   0  0  0  0  0  1  0  0  0  0  0  0
  190.3640  178.2940  144.7320 C   0  0  0  0  0  3  0  0  0  0  0  0
  189.1780  177.7140  144.2730 C   0  0  0  0  0  0  0  0  0  0  0  0
  191.4800  178.3630  143.8900 C   0  0  0  0  0  3  0  0  0  0  0  0
  1 21  1  6  0  0  0
  1  7  1  0  0  0  0
  3  6  1  6  0  0  0
  3  4  1  0  0  0  0
  4 29  1  1  0  0  0
  5  4  1  0  0  0  0
  5  2  1  1  0  0  0
  6  1  1  0  0  0  0
  7  5  1  0  0  0  0
  8 19  1  0  0  0  0
  8 20  1  0  0  0  0
  9  3  1  6  0  0  0
 10 12  1  0  0  0  0
 10 19  1  1  0  0  0
 10 11  1  0  0  0  0
 11 13  1  1  0  0  0
 11  9  1  0  0  0  0
 12 18  1  0  0  0  0
 12 16  1  1  0  0  0
 13 17  1  0  0  0  0
 14 17  1  0  0  0  0
 18 15  1  6  0  0  0
 18 16  1  0  0  0  0
 18  9  1  0  0  0  0
 20 14  1  0  0  0  0
 21 22  1  1  0  0  0
 21 25  1  0  0  0  0
 24 23  1  0  0  0  0
 24 22  1  0  0  0  0
 26 27  1  0  0  0  0
 26 28  1  0  0  0  0
 27 28  1  0  0  0  0
 27 25  1  0  0  0  0
 29 30  1  0  0  0  0
 30 32  1  0  0  0  0
 31 37  1  0  0  0  0
 32 31  2  0  0  0  0
 32 33  1  0  0  0  0
 33 36  2  0  0  0  0
 36 35  1  0  0  0  0
 36 34  1  0  0  0  0
 37 35  2  0  0  0  0
M  END
>  <MODEL>
3

>  <REMARK>
 VINA RESULT:      -7.5      3.146      6.783
  Name = 
  9 active torsions:
  status: ('A' for Active; 'I' for Inactive)
    1  A    between atoms: C_1  and  C_33
    2  A    between atoms: N_4  and  C_10
    3  A    between atoms: O_5  and  C_23
    4  A    between atoms: O_5  and  C_33
    5  A    between atoms: C_6  and  C_31
    6  A    between atoms: C_14  and  C_37
    7  A    between atoms: O_17  and  C_26
    8  A    between atoms: O_17  and  C_33
    9  A    between atoms: C_31  and  C_37
                            x       y       z     vdW  Elec       q    Type
                         _______ _______ _______ _____ _____    ______ ____

>  <TORSDO>
F 9

$$$$
=
 OpenBabel10272414553D

 37 42  0  0  1  0  0  0  0  0999 V2000
  188.6260  177.5550  140.4580 C   0  0  1  0  0  3  0  0  0  0  0  0
  192.1020  177.3780  140.1070 O   0  0  0  0  0  1  0  0  0  0  0  0
  188.8610  176.6410  138.4110 C   0  0  1  0  0  3  0  0  0  0  0  0
  190.4020  176.8050  138.5090 C   0  0  1  0  0  3  0  0  0  0  0  0
  190.7600  177.0100  139.9860 C   0  0  2  0  0  3  0  0  0  0  0  0
  188.2050  177.6640  139.1210 O   0  0  0  0  0  0  0  0  0  0  0  0
  189.9540  178.0100  140.5620 O   0  0  0  0  0  0  0  0  0  0  0  0
  185.0340  174.9310  134.6250 C   0  0  0  0  0  2  0  0  0  0  0  0
  188.3110  176.5760  137.0380 N   0  0  1  0  0  0  0  0  0  0  0  0
  186.1730  176.8410  135.8730 C   0  0  1  0  0  3  0  0  0  0  0  0
  186.9190  176.1220  137.0090 C   0  0  1  0  0  3  0  0  0  0  0  0
  186.9850  178.1160  135.6370 C   0  0  2  0  0  3  0  0  0  0  0  0
  186.7440  174.6170  137.2340 C   0  0  0  0  0  2  0  0  0  0  0  0
  186.1690  173.0240  135.5840 O   0  0  0  0  0  0  0  0  0  0  0  0
  188.9900  179.1110  136.9710 C   0  0  0  0  0  1  0  0  0  0  0  0
  188.2940  177.8410  134.8810 C   0  0  0  0  0  2  0  0  0  0  0  0
  187.2470  173.7660  136.0810 C   0  0  0  0  0  2  0  0  0  0  0  0
  188.2850  177.8930  136.3840 C   0  0  1  0  0  0  0  0  0  0  0  0
  186.0310  176.0730  134.5530 C   0  0  0  0  0  2  0  0  0  0  0  0
  185.7880  173.6280  134.3770 C   0  0  0  0  0  2  0  0  0  0  0  0
  187.7210  178.3940  141.3520 C   0  0  1  0  0  3  0  0  0  0  0  0
  186.5760  178.7720  140.6460 O   0  0  0  0  0  0  0  0  0  0  0  0
  184.2660  178.7170  141.2030 C   0  0  0  0  0  1  0  0  0  0  0  0
  185.6570  179.1420  141.6290 C   0  0  0  0  0  2  0  0  0  0  0  0
  187.3480  177.6510  142.4760 O   0  0  0  0  0  0  0  0  0  0  0  0
  187.8350  177.6110  144.7980 C   0  0  0  0  0  2  0  0  0  0  0  0
  188.3690  177.8630  143.4040 C   0  0  0  0  0  3  0  0  0  0  0  0
  188.6770  176.5600  144.1120 C   0  0  0  0  0  2  0  0  0  0  0  0
  191.1160  175.5780  137.9680 C   0  0  0  0  0  2  0  0  0  0  0  0
  191.6150  175.8490  136.5620 C   0  0  0  0  0  2  0  0  0  0  0  0
  193.8260  176.0950  135.4230 C   0  0  0  0  0  3  0  0  0  0  0  0
  193.0750  175.5780  136.4850 C   0  0  0  0  0  0  0  0  0  0  0  0
  193.6930  174.7770  137.4520 C   0  0  0  0  0  3  0  0  0  0  0  0
  195.8500  173.4830  138.5970 S   0  0  0  0  0  1  0  0  0  0  0  0
  195.8120  175.0250  136.3040 C   0  0  0  0  0  3  0  0  0  0  0  0
  195.0610  174.5030  137.3620 C   0  0  0  0  0  0  0  0  0  0  0  0
  195.1940  175.8210  135.3340 C   0  0  0  0  0  3  0  0  0  0  0  0
  1  7  1  0  0  0  0
  1 21  1  1  0  0  0
  3  4  1  0  0  0  0
  3  6  1  6  0  0  0
  4 29  1  1  0  0  0
  4  5  1  0  0  0  0
  5  2  1  6  0  0  0
  5  7  1  0  0  0  0
  6  1  1  0  0  0  0
  9  3  1  1  0  0  0
 10 19  1  6  0  0  0
 10 11  1  0  0  0  0
 11  9  1  0  0  0  0
 11 13  1  6  0  0  0
 12 16  1  6  0  0  0
 12 10  1  0  0  0  0
 12 18  1  0  0  0  0
 14 17  1  0  0  0  0
 16 18  1  0  0  0  0
 17 13  1  0  0  0  0
 18 15  1  1  0  0  0
 18  9  1  0  0  0  0
 19  8  1  0  0  0  0
 20  8  1  0  0  0  0
 20 14  1  0  0  0  0
 21 22  1  6  0  0  0
 21 25  1  0  0  0  0
 22 24  1  0  0  0  0
 23 24  1  0  0  0  0
 25 27  1  0  0  0  0
 27 28  1  0  0  0  0
 27 26  1  0  0  0  0
 28 26  1  0  0  0  0
 30 29  1  0  0  0  0
 31 32  1  0  0  0  0
 32 30  1  0  0  0  0
 32 33  2  0  0  0  0
 35 36  2  0  0  0  0
 36 33  1  0  0  0  0
 36 34  1  0  0  0  0
 37 31  2  0  0  0  0
 37 35  1  0  0  0  0
M  END
>  <MODEL>
4

>  <REMARK>
 VINA RESULT:      -7.4      3.399      8.942
  Name = 
  9 active torsions:
  status: ('A' for Active; 'I' for Inactive)
    1  A    between atoms: C_1  and  C_33
    2  A    between atoms: N_4  and  C_10
    3  A    between atoms: O_5  and  C_23
    4  A    between atoms: O_5  and  C_33
    5  A    between atoms: C_6  and  C_31
    6  A    between atoms: C_14  and  C_37
    7  A    between atoms: O_17  and  C_26
    8  A    between atoms: O_17  and  C_33
    9  A    between atoms: C_31  and  C_37
                            x       y       z     vdW  Elec       q    Type
                         _______ _______ _______ _____ _____    ______ ____

>  <TORSDO>
F 9

$$$$
=
 OpenBabel10272414553D

 37 42  0  0  1  0  0  0  0  0999 V2000
  190.4300  176.7630  140.2740 C   0  0  1  0  0  3  0  0  0  0  0  0
  193.4810  176.9900  138.5790 O   0  0  0  0  0  1  0  0  0  0  0  0
  189.8270  176.3850  138.1340 C   0  0  1  0  0  3  0  0  0  0  0  0
  191.2820  176.6600  137.6700 C   0  0  1  0  0  3  0  0  0  0  0  0
  192.1980  176.5410  138.8950 C   0  0  2  0  0  3  0  0  0  0  0  0
  189.5160  177.1470  139.2760 O   0  0  0  0  0  0  0  0  0  0  0  0
  191.6960  177.2980  139.9700 O   0  0  0  0  0  0  0  0  0  0  0  0
  185.0870  174.9100  135.4400 C   0  0  0  0  0  2  0  0  0  0  0  0
  188.7780  176.5980  137.1110 N   0  0  1  0  0  0  0  0  0  0  0  0
  186.3370  176.5750  136.9130 C   0  0  1  0  0  3  0  0  0  0  0  0
  187.5820  175.7880  137.3530 C   0  0  1  0  0  3  0  0  0  0  0  0
  186.7800  178.0390  136.9640 C   0  0  2  0  0  3  0  0  0  0  0  0
  187.7420  174.3070  136.9930 C   0  0  0  0  0  2  0  0  0  0  0  0
  186.7860  173.2210  135.1230 O   0  0  0  0  0  0  0  0  0  0  0  0
  188.9820  179.1050  137.8590 C   0  0  0  0  0  1  0  0  0  0  0  0
  187.6880  178.4130  135.7830 C   0  0  0  0  0  2  0  0  0  0  0  0
  187.8490  174.0510  135.5000 C   0  0  0  0  0  2  0  0  0  0  0  0
  188.2890  177.9830  137.0930 C   0  0  1  0  0  0  0  0  0  0  0  0
  185.7830  176.2560  135.5190 C   0  0  0  0  0  2  0  0  0  0  0  0
  185.8580  174.0340  134.4580 C   0  0  0  0  0  2  0  0  0  0  0  0
  189.9620  177.2810  141.6280 C   0  0  1  0  0  3  0  0  0  0  0  0
  188.5990  177.0170  141.7900 O   0  0  0  0  0  0  0  0  0  0  0  0
  187.4990  176.9130  143.8940 C   0  0  0  0  0  1  0  0  0  0  0  0
  188.5170  176.2770  142.9710 C   0  0  0  0  0  2  0  0  0  0  0  0
  190.6800  176.6500  142.6480 O   0  0  0  0  0  0  0  0  0  0  0  0
  190.9180  178.7480  143.7310 C   0  0  0  0  0  2  0  0  0  0  0  0
  191.6270  177.5920  143.0570 C   0  0  0  0  0  3  0  0  0  0  0  0
  191.6070  177.6930  144.5680 C   0  0  0  0  0  2  0  0  0  0  0  0
  191.7110  175.6660  136.6040 C   0  0  0  0  0  2  0  0  0  0  0  0
  191.5700  174.2510  137.1300 C   0  0  0  0  0  2  0  0  0  0  0  0
  192.6380  172.3910  135.8460 C   0  0  0  0  0  3  0  0  0  0  0  0
  192.7650  173.4510  136.7510 C   0  0  0  0  0  0  0  0  0  0  0  0
  194.0100  173.7320  137.3270 C   0  0  0  0  0  3  0  0  0  0  0  0
  196.7140  173.3230  137.7210 S   0  0  0  0  0  1  0  0  0  0  0  0
  195.0000  171.9070  136.0800 C   0  0  0  0  0  3  0  0  0  0  0  0
  195.1260  172.9620  136.9890 C   0  0  0  0  0  0  0  0  0  0  0  0
  193.7550  171.6220  135.5080 C   0  0  0  0  0  3  0  0  0  0  0  0
  1 21  1  1  0  0  0
  3  6  1  1  0  0  0
  4 29  1  6  0  0  0
  4  3  1  0  0  0  0
  4  5  1  0  0  0  0
  5  2  1  6  0  0  0
  5  7  1  0  0  0  0
  6  1  1  0  0  0  0
  7  1  1  0  0  0  0
  8 19  1  0  0  0  0
  9 11  1  0  0  0  0
  9  3  1  1  0  0  0
 10 19  1  6  0  0  0
 10 12  1  0  0  0  0
 10 11  1  0  0  0  0
 11 13  1  6  0  0  0
 12 16  1  6  0  0  0
 12 18  1  0  0  0  0
 14 17  1  0  0  0  0
 16 18  1  0  0  0  0
 17 13  1  0  0  0  0
 18  9  1  0  0  0  0
 18 15  1  1  0  0  0
 20 14  1  0  0  0  0
 20  8  1  0  0  0  0
 21 22  1  1  0  0  0
 21 25  1  0  0  0  0
 22 24  1  0  0  0  0
 24 23  1  0  0  0  0
 25 27  1  0  0  0  0
 26 28  1  0  0  0  0
 27 26  1  0  0  0  0
 27 28  1  0  0  0  0
 29 30  1  0  0  0  0
 31 32  1  0  0  0  0
 32 30  1  0  0  0  0
 32 33  2  0  0  0  0
 35 36  2  0  0  0  0
 36 33  1  0  0  0  0
 36 34  1  0  0  0  0
 37 31  2  0  0  0  0
 37 35  1  0  0  0  0
M  END
>  <MODEL>
5

>  <REMARK>
 VINA RESULT:      -7.3      3.853      8.838
  Name = 
  9 active torsions:
  status: ('A' for Active; 'I' for Inactive)
    1  A    between atoms: C_1  and  C_33
    2  A    between atoms: N_4  and  C_10
    3  A    between atoms: O_5  and  C_23
    4  A    between atoms: O_5  and  C_33
    5  A    between atoms: C_6  and  C_31
    6  A    between atoms: C_14  and  C_37
    7  A    between atoms: O_17  and  C_26
    8  A    between atoms: O_17  and  C_33
    9  A    between atoms: C_31  and  C_37
                            x       y       z     vdW  Elec       q    Type
                         _______ _______ _______ _____ _____    ______ ____

>  <TORSDO>
F 9

$$$$
=
 OpenBabel10272414553D

 37 42  0  0  1  0  0  0  0  0999 V2000
  184.3530  177.0650  137.8680 C   0  0  1  0  0  3  0  0  0  0  0  0
  182.7840  179.5690  139.7390 O   0  0  0  0  0  1  0  0  0  0  0  0
  186.0530  177.8900  139.0980 C   0  0  1  0  0  3  0  0  0  0  0  0
  185.1120  178.9800  139.6770 C   0  0  1  0  0  3  0  0  0  0  0  0
  183.6650  178.5300  139.4350 C   0  0  2  0  0  3  0  0  0  0  0  0
  185.6710  177.5470  137.7870 O   0  0  0  0  0  0  0  0  0  0  0  0
  183.4800  178.1450  138.0940 O   0  0  0  0  0  0  0  0  0  0  0  0
  191.3490  177.1180  140.9050 C   0  0  0  0  0  2  0  0  0  0  0  0
  187.4970  178.2180  139.1110 N   0  0  1  0  0  0  0  0  0  0  0  0
  189.6660  177.0870  138.9890 C   0  0  1  0  0  3  0  0  0  0  0  0
  188.3100  177.1590  139.7110 C   0  0  1  0  0  3  0  0  0  0  0  0
  189.3940  177.7100  137.6170 C   0  0  2  0  0  3  0  0  0  0  0  0
  188.2320  177.0950  141.2400 C   0  0  0  0  0  2  0  0  0  0  0  0
  189.9250  177.7670  142.7470 O   0  0  0  0  0  0  0  0  0  0  0  0
  187.1550  178.4650  136.5200 C   0  0  0  0  0  1  0  0  0  0  0  0
  189.2780  179.2400  137.6850 C   0  0  0  0  0  2  0  0  0  0  0  0
  188.9020  178.2690  141.9340 C   0  0  0  0  0  2  0  0  0  0  0  0
  188.0430  178.3830  137.7570 C   0  0  1  0  0  0  0  0  0  0  0  0
  190.8380  177.8160  139.6580 C   0  0  0  0  0  2  0  0  0  0  0  0
  191.1330  178.0500  142.0930 C   0  0  0  0  0  2  0  0  0  0  0  0
  183.9810  176.3630  136.5680 C   0  0  1  0  0  3  0  0  0  0  0  0
  184.3230  177.1700  135.4800 O   0  0  0  0  0  0  0  0  0  0  0  0
  182.0450  177.4660  134.8710 C   0  0  0  0  0  1  0  0  0  0  0  0
  183.3820  176.8620  134.4960 C   0  0  0  0  0  2  0  0  0  0  0  0
  184.6650  175.1470  136.4750 O   0  0  0  0  0  0  0  0  0  0  0  0
  183.6840  173.0380  136.9410 C   0  0  0  0  0  2  0  0  0  0  0  0
  184.1480  174.3630  137.5080 C   0  0  0  0  0  3  0  0  0  0  0  0
  185.0060  173.1250  137.6700 C   0  0  0  0  0  2  0  0  0  0  0  0
  185.3520  179.1730  141.1650 C   0  0  0  0  0  2  0  0  0  0  0  0
  184.5660  178.1440  141.9530 C   0  0  0  0  0  2  0  0  0  0  0  0
  183.8710  178.8090  144.2610 C   0  0  0  0  0  3  0  0  0  0  0  0
  184.8530  178.2940  143.4050 C   0  0  0  0  0  0  0  0  0  0  0  0
  186.1130  177.9590  143.9110 C   0  0  0  0  0  3  0  0  0  0  0  0
  187.9960  177.6950  145.9170 S   0  0  0  0  0  1  0  0  0  0  0  0
  185.4050  178.6340  146.1260 C   0  0  0  0  0  3  0  0  0  0  0  0
  186.3880  178.1260  145.2710 C   0  0  0  0  0  0  0  0  0  0  0  0
  184.1470  178.9760  145.6210 C   0  0  0  0  0  3  0  0  0  0  0  0
  1 21  1  6  0  0  0
  1  7  1  0  0  0  0
  3  6  1  6  0  0  0
  3  4  1  0  0  0  0
  4 29  1  1  0  0  0
  5  4  1  0  0  0  0
  5  2  1  6  0  0  0
  6  1  1  0  0  0  0
  7  5  1  0  0  0  0
  8 20  1  0  0  0  0
  9  3  1  6  0  0  0
  9 11  1  0  0  0  0
 10 19  1  1  0  0  0
 10 11  1  0  0  0  0
 11 13  1  1  0  0  0
 12 16  1  1  0  0  0
 12 18  1  0  0  0  0
 12 10  1  0  0  0  0
 13 17  1  0  0  0  0
 16 18  1  0  0  0  0
 17 14  1  0  0  0  0
 18 15  1  6  0  0  0
 18  9  1  0  0  0  0
 19  8  1  0  0  0  0
 20 14  1  0  0  0  0
 21 22  1  6  0  0  0
 24 23  1  0  0  0  0
 24 22  1  0  0  0  0
 25 21  1  0  0  0  0
 25 27  1  0  0  0  0
 26 27  1  0  0  0  0
 26 28  1  0  0  0  0
 27 28  1  0  0  0  0
 29 30  1  0  0  0  0
 30 32  1  0  0  0  0
 31 37  1  0  0  0  0
 32 33  1  0  0  0  0
 32 31  2  0  0  0  0
 33 36  2  0  0  0  0
 36 34  1  0  0  0  0
 36 35  1  0  0  0  0
 37 35  2  0  0  0  0
M  END
>  <MODEL>
6

>  <REMARK>
 VINA RESULT:      -7.3      3.086      5.655
  Name = 
  9 active torsions:
  status: ('A' for Active; 'I' for Inactive)
    1  A    between atoms: C_1  and  C_33
    2  A    between atoms: N_4  and  C_10
    3  A    between atoms: O_5  and  C_23
    4  A    between atoms: O_5  and  C_33
    5  A    between atoms: C_6  and  C_31
    6  A    between atoms: C_14  and  C_37
    7  A    between atoms: O_17  and  C_26
    8  A    between atoms: O_17  and  C_33
    9  A    between atoms: C_31  and  C_37
                            x       y       z     vdW  Elec       q    Type
                         _______ _______ _______ _____ _____    ______ ____

>  <TORSDO>
F 9

$$$$
=
 OpenBabel10272414553D

 37 42  0  0  1  0  0  0  0  0999 V2000
  184.6340  178.4280  139.6960 C   0  0  1  0  0  3  0  0  0  0  0  0
  185.2530  179.9110  142.8030 O   0  0  0  0  0  1  0  0  0  0  0  0
  186.8700  178.2230  139.8960 C   0  0  1  0  0  3  0  0  0  0  0  0
  186.8310  179.0300  141.2210 C   0  0  1  0  0  3  0  0  0  0  0  0
  185.3860  179.0220  141.7350 C   0  0  2  0  0  3  0  0  0  0  0  0
  185.8500  178.6470  139.0240 O   0  0  0  0  0  0  0  0  0  0  0  0
  184.4900  179.3900  140.7140 O   0  0  0  0  0  0  0  0  0  0  0  0
  192.1140  176.3440  138.9620 C   0  0  0  0  0  2  0  0  0  0  0  0
  188.1620  178.2420  139.1730 N   0  0  1  0  0  0  0  0  0  0  0  0
  189.7310  176.6830  138.1200 C   0  0  1  0  0  3  0  0  0  0  0  0
  188.9530  177.0310  139.4000 C   0  0  1  0  0  3  0  0  0  0  0  0
  188.9360  177.3610  137.0020 C   0  0  2  0  0  3  0  0  0  0  0  0
  189.6330  176.9710  140.7720 C   0  0  0  0  0  2  0  0  0  0  0  0
  191.9410  177.2600  141.1920 O   0  0  0  0  0  0  0  0  0  0  0  0
  186.6340  178.5770  137.0660 C   0  0  0  0  0  1  0  0  0  0  0  0
  189.1560  178.8810  136.9700 C   0  0  0  0  0  2  0  0  0  0  0  0
  190.7630  177.9720  140.9360 C   0  0  0  0  0  2  0  0  0  0  0  0
  187.9850  178.3010  137.7150 C   0  0  1  0  0  0  0  0  0  0  0  0
  191.1930  177.1450  138.0610 C   0  0  0  0  0  2  0  0  0  0  0  0
  192.6940  177.2900  140.0090 C   0  0  0  0  0  2  0  0  0  0  0  0
  183.4760  178.5400  138.7130 C   0  0  1  0  0  3  0  0  0  0  0  0
  182.9700  177.2680  138.4300 O   0  0  0  0  0  0  0  0  0  0  0  0
  181.3670  175.9090  139.5390 C   0  0  0  0  0  1  0  0  0  0  0  0
  182.6300  176.7340  139.6740 C   0  0  0  0  0  2  0  0  0  0  0  0
  182.4610  179.3280  139.2660 O   0  0  0  0  0  0  0  0  0  0  0  0
  180.4650  180.4180  138.5910 C   0  0  0  0  0  2  0  0  0  0  0  0
  181.8350  179.9280  138.1720 C   0  0  0  0  0  3  0  0  0  0  0  0
  181.6110  181.3960  138.4710 C   0  0  0  0  0  2  0  0  0  0  0  0
  187.7540  178.4150  142.2600 C   0  0  0  0  0  2  0  0  0  0  0  0
  187.0020  177.3780  143.0700 C   0  0  0  0  0  2  0  0  0  0  0  0
  186.4830  177.8610  145.4680 C   0  0  0  0  0  3  0  0  0  0  0  0
  187.4110  177.4610  144.4980 C   0  0  0  0  0  0  0  0  0  0  0  0
  188.7300  177.1760  144.8700 C   0  0  0  0  0  3  0  0  0  0  0  0
  190.7990  176.9130  146.6820 S   0  0  0  0  0  1  0  0  0  0  0  0
  188.1890  177.6740  147.1770 C   0  0  0  0  0  3  0  0  0  0  0  0
  189.1170  177.2800  146.2090 C   0  0  0  0  0  0  0  0  0  0  0  0
  186.8720  177.9650  146.8070 C   0  0  0  0  0  3  0  0  0  0  0  0
  1 21  1  6  0  0  0
  1  7  1  0  0  0  0
  3  6  1  6  0  0  0
  3  4  1  0  0  0  0
  4  5  1  0  0  0  0
  4 29  1  1  0  0  0
  5  2  1  1  0  0  0
  6  1  1  0  0  0  0
  7  5  1  0  0  0  0
  8 20  1  0  0  0  0
  9 11  1  0  0  0  0
  9  3  1  1  0  0  0
 10 19  1  1  0  0  0
 10 11  1  0  0  0  0
 11 13  1  1  0  0  0
 12 16  1  6  0  0  0
 12 18  1  0  0  0  0
 12 10  1  0  0  0  0
 13 17  1  0  0  0  0
 16 18  1  0  0  0  0
 17 14  1  0  0  0  0
 18 15  1  6  0  0  0
 18  9  1  0  0  0  0
 19  8  1  0  0  0  0
 20 14  1  0  0  0  0
 21 22  1  1  0  0  0
 21 25  1  0  0  0  0
 22 24  1  0  0  0  0
 23 24  1  0  0  0  0
 27 28  1  0  0  0  0
 27 26  1  0  0  0  0
 27 25  1  0  0  0  0
 28 26  1  0  0  0  0
 29 30  1  0  0  0  0
 30 32  1  0  0  0  0
 31 37  1  0  0  0  0
 32 33  1  0  0  0  0
 32 31  2  0  0  0  0
 33 36  2  0  0  0  0
 36 34  1  0  0  0  0
 36 35  1  0  0  0  0
 37 35  2  0  0  0  0
M  END
>  <MODEL>
7

>  <REMARK>
 VINA RESULT:      -7.0      2.674      7.094
  Name = 
  9 active torsions:
  status: ('A' for Active; 'I' for Inactive)
    1  A    between atoms: C_1  and  C_33
    2  A    between atoms: N_4  and  C_10
    3  A    between atoms: O_5  and  C_23
    4  A    between atoms: O_5  and  C_33
    5  A    between atoms: C_6  and  C_31
    6  A    between atoms: C_14  and  C_37
    7  A    between atoms: O_17  and  C_26
    8  A    between atoms: O_17  and  C_33
    9  A    between atoms: C_31  and  C_37
                            x       y       z     vdW  Elec       q    Type
                         _______ _______ _______ _____ _____    ______ ____

>  <TORSDO>
F 9

$$$$
=
 OpenBabel10272414553D

 37 42  0  0  1  0  0  0  0  0999 V2000
  184.5300  178.7670  142.2380 C   0  0  1  0  0  3  0  0  0  0  0  0
  187.2140  178.8200  139.9940 O   0  0  0  0  0  1  0  0  0  0  0  0
  183.5350  178.2700  140.2770 C   0  0  1  0  0  3  0  0  0  0  0  0
  184.8800  178.4830  139.5340 C   0  0  1  0  0  3  0  0  0  0  0  0
  186.0070  178.4200  140.5720 C   0  0  2  0  0  3  0  0  0  0  0  0
  183.4500  179.1080  141.4050 O   0  0  0  0  0  0  0  0  0  0  0  0
  185.7230  179.2530  141.6700 O   0  0  0  0  0  0  0  0  0  0  0  0
  180.5710  180.7870  136.1810 C   0  0  0  0  0  2  0  0  0  0  0  0
  182.3150  178.4420  139.4550 N   0  0  1  0  0  0  0  0  0  0  0  0
  181.6720  178.6810  137.1040 C   0  0  1  0  0  3  0  0  0  0  0  0
  182.5610  179.2170  138.2380 C   0  0  1  0  0  3  0  0  0  0  0  0
  181.3550  177.2430  137.5230 C   0  0  2  0  0  3  0  0  0  0  0  0
  182.7100  180.7240  138.4710 C   0  0  0  0  0  2  0  0  0  0  0  0
  181.1180  182.3810  137.9140 O   0  0  0  0  0  0  0  0  0  0  0  0
  182.2820  175.8180  139.4970 C   0  0  0  0  0  1  0  0  0  0  0  0
  180.3110  177.1820  138.6490 C   0  0  0  0  0  2  0  0  0  0  0  0
  181.4170  181.4090  138.8770 C   0  0  0  0  0  2  0  0  0  0  0  0
  181.7800  177.1600  138.9760 C   0  0  1  0  0  0  0  0  0  0  0  0
  180.3630  179.4380  136.8430 C   0  0  0  0  0  2  0  0  0  0  0  0
  180.0710  181.8660  137.1360 C   0  0  0  0  0  2  0  0  0  0  0  0
  184.3290  179.3780  143.6190 C   0  0  1  0  0  3  0  0  0  0  0  0
  183.0170  179.8430  143.7440 O   0  0  0  0  0  0  0  0  0  0  0  0
  180.8920  178.7820  143.8250 C   0  0  0  0  0  1  0  0  0  0  0  0
  182.3190  178.7880  144.3330 C   0  0  0  0  0  2  0  0  0  0  0  0
  184.5740  178.4150  144.6020 O   0  0  0  0  0  0  0  0  0  0  0  0
  185.5970  178.7090  146.7230 C   0  0  0  0  0  2  0  0  0  0  0  0
  185.7570  178.8250  145.2210 C   0  0  0  0  0  3  0  0  0  0  0  0
  186.3640  177.6510  145.9620 C   0  0  0  0  0  2  0  0  0  0  0  0
  185.0910  177.4150  138.4730 C   0  0  0  0  0  2  0  0  0  0  0  0
  185.6920  178.0360  137.2270 C   0  0  0  0  0  2  0  0  0  0  0  0
  188.0510  178.0200  136.4010 C   0  0  0  0  0  3  0  0  0  0  0  0
  186.9330  177.3070  136.8490 C   0  0  0  0  0  0  0  0  0  0  0  0
  186.9720  175.9100  136.9060 C   0  0  0  0  0  3  0  0  0  0  0  0
  188.1810  173.4440  136.6000 S   0  0  0  0  0  1  0  0  0  0  0  0
  189.2490  175.9390  136.0830 C   0  0  0  0  0  3  0  0  0  0  0  0
  188.1300  175.2270  136.5250 C   0  0  0  0  0  0  0  0  0  0  0  0
  189.2100  177.3360  136.0200 C   0  0  0  0  0  3  0  0  0  0  0  0
  1 21  1  1  0  0  0
  3  6  1  1  0  0  0
  4 29  1  6  0  0  0
  4  3  1  0  0  0  0
  4  5  1  0  0  0  0
  5  2  1  6  0  0  0
  5  7  1  0  0  0  0
  6  1  1  0  0  0  0
  7  1  1  0  0  0  0
  8 19  1  0  0  0  0
  8 20  1  0  0  0  0
  9  3  1  6  0  0  0
 10 19  1  1  0  0  0
 10 12  1  0  0  0  0
 10 11  1  0  0  0  0
 11 13  1  1  0  0  0
 11  9  1  0  0  0  0
 12 16  1  1  0  0  0
 12 18  1  0  0  0  0
 13 17  1  0  0  0  0
 14 17  1  0  0  0  0
 16 18  1  0  0  0  0
 18  9  1  0  0  0  0
 18 15  1  1  0  0  0
 20 14  1  0  0  0  0
 21 22  1  6  0  0  0
 21 25  1  0  0  0  0
 22 24  1  0  0  0  0
 23 24  1  0  0  0  0
 25 27  1  0  0  0  0
 27 28  1  0  0  0  0
 27 26  1  0  0  0  0
 28 26  1  0  0  0  0
 30 29  1  0  0  0  0
 31 32  1  0  0  0  0
 32 33  2  0  0  0  0
 32 30  1  0  0  0  0
 35 36  2  0  0  0  0
 36 34  1  0  0  0  0
 36 33  1  0  0  0  0
 37 35  1  0  0  0  0
 37 31  2  0  0  0  0
M  END
>  <MODEL>
8

>  <REMARK>
 VINA RESULT:      -7.0      4.020      9.356
  Name = 
  9 active torsions:
  status: ('A' for Active; 'I' for Inactive)
    1  A    between atoms: C_1  and  C_33
    2  A    between atoms: N_4  and  C_10
    3  A    between atoms: O_5  and  C_23
    4  A    between atoms: O_5  and  C_33
    5  A    between atoms: C_6  and  C_31
    6  A    between atoms: C_14  and  C_37
    7  A    between atoms: O_17  and  C_26
    8  A    between atoms: O_17  and  C_33
    9  A    between atoms: C_31  and  C_37
                            x       y       z     vdW  Elec       q    Type
                         _______ _______ _______ _____ _____    ______ ____

>  <TORSDO>
F 9

$$$$
=
 OpenBabel10272414553D

 37 42  0  0  1  0  0  0  0  0999 V2000
  190.8130  176.5510  140.9300 C   0  0  1  0  0  3  0  0  0  0  0  0
  193.8270  177.4660  139.4080 O   0  0  0  0  0  1  0  0  0  0  0  0
  190.3200  176.3850  138.7360 C   0  0  1  0  0  3  0  0  0  0  0  0
  191.7240  176.9370  138.3730 C   0  0  1  0  0  3  0  0  0  0  0  0
  192.6220  176.7900  139.6080 C   0  0  2  0  0  3  0  0  0  0  0  0
  189.8710  176.9270  139.9550 O   0  0  0  0  0  0  0  0  0  0  0  0
  191.9870  177.3070  140.7520 O   0  0  0  0  0  0  0  0  0  0  0  0
  186.0600  174.5340  135.5220 C   0  0  0  0  0  2  0  0  0  0  0  0
  189.2720  176.5760  137.7070 N   0  0  1  0  0  0  0  0  0  0  0  0
  186.8960  176.0950  137.3570 C   0  0  1  0  0  3  0  0  0  0  0  0
  188.2710  175.5080  137.7170 C   0  0  1  0  0  3  0  0  0  0  0  0
  187.0170  177.5800  137.7090 C   0  0  2  0  0  3  0  0  0  0  0  0
  188.7490  174.1920  137.0960 C   0  0  0  0  0  2  0  0  0  0  0  0
  188.0860  173.3230  135.0000 O   0  0  0  0  0  0  0  0  0  0  0  0
  188.9220  178.8750  138.9250 C   0  0  0  0  0  1  0  0  0  0  0  0
  187.8500  178.3570  136.6790 C   0  0  0  0  0  2  0  0  0  0  0  0
  188.9400  174.2620  135.5910 C   0  0  0  0  0  2  0  0  0  0  0  0
  188.5000  177.8090  137.9190 C   0  0  1  0  0  0  0  0  0  0  0  0
  186.4520  175.9510  135.8950 C   0  0  0  0  0  2  0  0  0  0  0  0
  187.0200  174.0450  134.4430 C   0  0  0  0  0  2  0  0  0  0  0  0
  190.2430  176.8010  142.3200 C   0  0  1  0  0  3  0  0  0  0  0  0
  191.2170  177.3840  143.1330 O   0  0  0  0  0  0  0  0  0  0  0  0
  191.2580  176.8750  145.4550 C   0  0  0  0  0  1  0  0  0  0  0  0
  191.5580  176.3900  144.0520 C   0  0  0  0  0  2  0  0  0  0  0  0
  189.1410  177.6580  142.2310 O   0  0  0  0  0  0  0  0  0  0  0  0
  187.8020  177.6530  144.1900 C   0  0  0  0  0  2  0  0  0  0  0  0
  188.1030  176.9760  142.8690 C   0  0  0  0  0  3  0  0  0  0  0  0
  186.9070  177.8980  142.9960 C   0  0  0  0  0  2  0  0  0  0  0  0
  192.3230  176.1750  137.2020 C   0  0  0  0  0  2  0  0  0  0  0  0
  193.0150  174.9220  137.7020 C   0  0  0  0  0  2  0  0  0  0  0  0
  194.7720  175.7510  136.1270 C   0  0  0  0  0  3  0  0  0  0  0  0
  194.3360  174.7760  137.0330 C   0  0  0  0  0  0  0  0  0  0  0  0
  195.1270  173.6480  137.2790 C   0  0  0  0  0  3  0  0  0  0  0  0
  197.3660  172.0630  136.9450 S   0  0  0  0  0  1  0  0  0  0  0  0
  196.7930  174.4780  135.7290 C   0  0  0  0  0  3  0  0  0  0  0  0
  196.3560  173.5010  136.6290 C   0  0  0  0  0  0  0  0  0  0  0  0
  196.0010  175.6020  135.4780 C   0  0  0  0  0  3  0  0  0  0  0  0
  1 21  1  1  0  0  0
  3  6  1  1  0  0  0
  4 29  1  6  0  0  0
  4  3  1  0  0  0  0
  4  5  1  0  0  0  0
  5  2  1  6  0  0  0
  5  7  1  0  0  0  0
  6  1  1  0  0  0  0
  7  1  1  0  0  0  0
  8 19  1  0  0  0  0
  9 11  1  0  0  0  0
  9 18  1  0  0  0  0
  9  3  1  1  0  0  0
 10 19  1  6  0  0  0
 10 12  1  0  0  0  0
 10 11  1  0  0  0  0
 11 13  1  6  0  0  0
 12 16  1  6  0  0  0
 12 18  1  0  0  0  0
 14 17  1  0  0  0  0
 16 18  1  0  0  0  0
 17 13  1  0  0  0  0
 18 15  1  1  0  0  0
 20 14  1  0  0  0  0
 20  8  1  0  0  0  0
 21 25  1  6  0  0  0
 21 22  1  0  0  0  0
 22 24  1  0  0  0  0
 24 23  1  0  0  0  0
 25 27  1  0  0  0  0
 27 28  1  0  0  0  0
 27 26  1  0  0  0  0
 28 26  1  0  0  0  0
 29 30  1  0  0  0  0
 31 32  1  0  0  0  0
 32 33  2  0  0  0  0
 32 30  1  0  0  0  0
 35 36  2  0  0  0  0
 36 34  1  0  0  0  0
 36 33  1  0  0  0  0
 37 35  1  0  0  0  0
 37 31  2  0  0  0  0
M  END
>  <MODEL>
9

>  <REMARK>
 VINA RESULT:      -6.8      3.770      9.177
  Name = 
  9 active torsions:
  status: ('A' for Active; 'I' for Inactive)
    1  A    between atoms: C_1  and  C_33
    2  A    between atoms: N_4  and  C_10
    3  A    between atoms: O_5  and  C_23
    4  A    between atoms: O_5  and  C_33
    5  A    between atoms: C_6  and  C_31
    6  A    between atoms: C_14  and  C_37
    7  A    between atoms: O_17  and  C_26
    8  A    between atoms: O_17  and  C_33
    9  A    between atoms: C_31  and  C_37
                            x       y       z     vdW  Elec       q    Type
                         _______ _______ _______ _____ _____    ______ ____

>  <TORSDO>
F 9

$$$$
