=
 OpenBabel10272400203D

 31 35  0  0  1  0  0  0  0  0999 V2000
  185.5280  178.9200  145.8790 C   0  0  0  0  0  0  0  0  0  0  0  0
  188.6190  177.5890  144.1530 C   0  0  0  0  0  0  0  0  0  0  0  0
  189.5280  177.2050  145.1760 C   0  0  0  0  0  0  0  0  0  0  0  0
  190.0020  176.5070  147.4640 C   0  0  0  0  0  3  0  0  0  0  0  0
  187.1120  177.6970  144.3910 C   0  0  1  0  0  3  0  0  0  0  0  0
  184.4980  179.0160  144.7750 C   0  0  0  0  0  2  0  0  0  0  0  0
  189.0910  176.8680  146.4690 C   0  0  0  0  0  3  0  0  0  0  0  0
  188.2080  178.0070  141.7400 N   0  0  0  0  0  0  0  0  0  0  0  0
  185.2350  179.4790  147.1150 O   0  0  0  0  0  1  0  0  0  0  0  0
  191.3880  177.3960  143.6120 C   0  0  0  0  0  3  0  0  0  0  0  0
  192.2520  176.1250  148.1480 F   0  0  0  0  0  0  0  0  0  0  0  0
  186.7800  177.7880  141.9220 C   0  0  0  0  0  2  0  0  0  0  0  0
  189.1180  177.7670  142.8340 C   0  0  0  0  0  0  0  0  0  0  0  0
  186.7350  178.3730  145.6840 C   0  0  0  0  0  3  0  0  0  0  0  0
  191.3680  176.4750  147.1820 C   0  0  0  0  0  0  0  0  0  0  0  0
  186.3740  178.3970  143.2460 C   0  0  1  0  0  3  0  0  0  0  0  0
  184.8800  178.2620  143.4940 C   0  0  0  0  0  2  0  0  0  0  0  0
  190.4950  177.6940  142.5890 C   0  0  0  0  0  3  0  0  0  0  0  0
  190.9170  177.1390  144.8970 C   0  0  0  0  0  0  0  0  0  0  0  0
  191.8250  176.7840  145.9000 C   0  0  0  0  0  3  0  0  0  0  0  0
  188.6630  178.6100  140.4930 C   0  0  0  0  0  2  0  0  0  0  0  0
  191.2370  174.3850  137.3010 C   0  0  2  0  0  3  0  0  0  0  0  0
  190.5990  177.4420  139.3700 N   0  0  0  0  0  2  0  0  0  0  0  0
  193.3170  175.7300  137.5180 C   0  0  0  0  0  3  0  0  0  0  0  0
  188.3810  176.7500  139.0360 O   0  0  0  0  0  0  0  0  0  0  0  0
  190.3600  173.8290  136.3880 F   0  0  0  0  0  0  0  0  0  0  0  0
  189.1860  177.5540  139.5790 C   0  0  0  0  0  0  0  0  0  0  0  0
  190.5770  175.4780  138.0210 N   0  0  0  0  0  0  0  0  0  0  0  0
  192.7200  176.4880  138.4410 C   0  0  0  0  0  3  0  0  0  0  0  0
  191.2550  176.4310  138.5970 C   0  0  0  0  0  0  0  0  0  0  0  0
  192.4940  174.8860  136.5840 C   0  0  0  0  0  2  0  0  0  0  0  0
  1  9  1  0  0  0  0
  2  5  1  0  0  0  0
  2  3  1  0  0  0  0
  3  7  1  0  0  0  0
  5 14  1  1  0  0  0
  6  1  1  0  0  0  0
  7  4  2  0  0  0  0
  8 12  1  0  0  0  0
  8 13  1  0  0  0  0
 10 19  1  0  0  0  0
 13  2  2  0  0  0  0
 14  1  2  0  0  0  0
 15  4  1  0  0  0  0
 15 11  1  0  0  0  0
 16 12  1  6  0  0  0
 16 17  1  0  0  0  0
 16  5  1  0  0  0  0
 17  6  1  0  0  0  0
 18 13  1  0  0  0  0
 18 10  2  0  0  0  0
 19  3  2  0  0  0  0
 19 20  1  0  0  0  0
 20 15  2  0  0  0  0
 21  8  1  0  0  0  0
 22 26  1  6  0  0  0
 22 28  1  0  0  0  0
 23 27  1  0  0  0  0
 24 29  2  0  0  0  0
 25 27  2  0  0  0  0
 27 21  1  0  0  0  0
 28 30  2  0  0  0  0
 29 30  1  0  0  0  0
 30 23  1  0  0  0  0
 31 22  1  0  0  0  0
 31 24  1  0  0  0  0
M  END
>  <MODEL>
1

>  <REMARK>
 VINA RESULT:     -11.4      0.000      0.000
  Name = 
  2 active torsions:
  status: ('A' for Active; 'I' for Inactive)
    1  A    between atoms: C_9  and  C_23
    2  A    between atoms: N_15  and  C_23
                            x       y       z     vdW  Elec       q    Type
                         _______ _______ _______ _____ _____    ______ ____

>  <TORSDO>
F 2

$$$$
=
 OpenBabel10272400203D

 31 35  0  0  1  0  0  0  0  0999 V2000
  185.5210  178.8410  146.1370 C   0  0  0  0  0  0  0  0  0  0  0  0
  188.5540  177.6190  144.2360 C   0  0  0  0  0  0  0  0  0  0  0  0
  189.5090  177.2080  145.2060 C   0  0  0  0  0  0  0  0  0  0  0  0
  190.0850  176.4290  147.4430 C   0  0  0  0  0  3  0  0  0  0  0  0
  187.0560  177.6980  144.5400 C   0  0  1  0  0  3  0  0  0  0  0  0
  184.4460  178.9660  145.0810 C   0  0  0  0  0  2  0  0  0  0  0  0
  189.1290  176.8160  146.5010 C   0  0  0  0  0  3  0  0  0  0  0  0
  188.0390  178.1250  141.8600 N   0  0  0  0  0  0  0  0  0  0  0  0
  185.2730  179.3480  147.4050 O   0  0  0  0  0  1  0  0  0  0  0  0
  191.3000  177.4850  143.5760 C   0  0  0  0  0  3  0  0  0  0  0  0
  192.3650  176.0520  148.0200 F   0  0  0  0  0  0  0  0  0  0  0  0
  186.6220  177.8800  142.0910 C   0  0  0  0  0  2  0  0  0  0  0  0
  188.9960  177.8550  142.9060 C   0  0  0  0  0  0  0  0  0  0  0  0
  186.7260  178.3190  145.8720 C   0  0  0  0  0  3  0  0  0  0  0  0
  191.4390  176.4260  147.1060 C   0  0  0  0  0  0  0  0  0  0  0  0
  186.2640  178.4320  143.4540 C   0  0  1  0  0  3  0  0  0  0  0  0
  184.7840  178.2670  143.7570 C   0  0  0  0  0  2  0  0  0  0  0  0
  190.3620  177.8100  142.6020 C   0  0  0  0  0  3  0  0  0  0  0  0
  190.8850  177.1710  144.8680 C   0  0  0  0  0  0  0  0  0  0  0  0
  191.8380  176.7910  145.8180 C   0  0  0  0  0  3  0  0  0  0  0  0
  188.4350  178.7810  140.6200 C   0  0  0  0  0  2  0  0  0  0  0  0
  187.7400  175.5610  135.7410 C   0  0  2  0  0  3  0  0  0  0  0  0
  187.2730  178.0480  138.5020 N   0  0  0  0  0  2  0  0  0  0  0  0
  185.5730  176.7500  135.4740 C   0  0  0  0  0  3  0  0  0  0  0  0
  189.1170  176.8800  139.3640 O   0  0  0  0  0  0  0  0  0  0  0  0
  188.3170  174.3110  135.8670 F   0  0  0  0  0  0  0  0  0  0  0  0
  188.3000  177.8330  139.4770 C   0  0  0  0  0  0  0  0  0  0  0  0
  187.8730  176.3000  137.0000 N   0  0  0  0  0  0  0  0  0  0  0  0
  185.9340  177.6070  136.4320 C   0  0  0  0  0  3  0  0  0  0  0  0
  187.0750  177.2830  137.3090 C   0  0  0  0  0  0  0  0  0  0  0  0
  186.2680  175.4230  135.3440 C   0  0  0  0  0  2  0  0  0  0  0  0
  1  9  1  0  0  0  0
  2  5  1  0  0  0  0
  2  3  1  0  0  0  0
  3  7  1  0  0  0  0
  5 14  1  1  0  0  0
  6  1  1  0  0  0  0
  7  4  2  0  0  0  0
  8 12  1  0  0  0  0
  8 13  1  0  0  0  0
 10 19  1  0  0  0  0
 13  2  2  0  0  0  0
 14  1  2  0  0  0  0
 15  4  1  0  0  0  0
 15 11  1  0  0  0  0
 16 12  1  6  0  0  0
 16 17  1  0  0  0  0
 16  5  1  0  0  0  0
 17  6  1  0  0  0  0
 18 13  1  0  0  0  0
 18 10  2  0  0  0  0
 19  3  2  0  0  0  0
 19 20  1  0  0  0  0
 20 15  2  0  0  0  0
 21  8  1  0  0  0  0
 22 26  1  1  0  0  0
 22 28  1  0  0  0  0
 23 27  1  0  0  0  0
 24 29  2  0  0  0  0
 25 27  2  0  0  0  0
 27 21  1  0  0  0  0
 28 30  2  0  0  0  0
 29 30  1  0  0  0  0
 30 23  1  0  0  0  0
 31 24  1  0  0  0  0
 31 22  1  0  0  0  0
M  END
>  <MODEL>
2

>  <REMARK>
 VINA RESULT:     -11.4      2.090      2.672
  Name = 
  2 active torsions:
  status: ('A' for Active; 'I' for Inactive)
    1  A    between atoms: C_9  and  C_23
    2  A    between atoms: N_15  and  C_23
                            x       y       z     vdW  Elec       q    Type
                         _______ _______ _______ _____ _____    ______ ____

>  <TORSDO>
F 2

$$$$
=
 OpenBabel10272400203D

 31 35  0  0  1  0  0  0  0  0999 V2000
  185.5910  179.0480  146.5230 C   0  0  0  0  0  0  0  0  0  0  0  0
  188.1480  177.6360  144.1200 C   0  0  0  0  0  0  0  0  0  0  0  0
  189.2730  177.2470  144.8990 C   0  0  0  0  0  0  0  0  0  0  0  0
  190.2780  176.5690  147.0140 C   0  0  0  0  0  3  0  0  0  0  0  0
  186.7460  177.7760  144.7160 C   0  0  1  0  0  3  0  0  0  0  0  0
  184.3260  179.1500  145.7010 C   0  0  0  0  0  2  0  0  0  0  0  0
  189.1580  176.9350  146.2640 C   0  0  0  0  0  3  0  0  0  0  0  0
  187.1690  178.0320  141.8730 N   0  0  0  0  0  0  0  0  0  0  0  0
  185.6160  179.6280  147.7840 O   0  0  0  0  0  1  0  0  0  0  0  0
  190.6990  177.3830  142.9260 C   0  0  0  0  0  3  0  0  0  0  0  0
  192.6200  176.1520  147.1370 F   0  0  0  0  0  0  0  0  0  0  0  0
  185.8250  177.8430  142.4000 C   0  0  0  0  0  2  0  0  0  0  0  0
  188.3140  177.7880  142.7170 C   0  0  0  0  0  0  0  0  0  0  0  0
  186.7060  178.4750  146.0500 C   0  0  0  0  0  3  0  0  0  0  0  0
  191.5340  176.5070  146.4090 C   0  0  0  0  0  0  0  0  0  0  0  0
  185.7630  178.4760  143.7730 C   0  0  1  0  0  3  0  0  0  0  0  0
  184.3730  178.3730  144.3790 C   0  0  0  0  0  2  0  0  0  0  0  0
  189.5890  177.6860  142.1460 C   0  0  0  0  0  3  0  0  0  0  0  0
  190.5500  177.1500  144.2910 C   0  0  0  0  0  0  0  0  0  0  0  0
  191.6690  176.7910  145.0490 C   0  0  0  0  0  3  0  0  0  0  0  0
  187.3170  178.6100  140.5420 C   0  0  0  0  0  2  0  0  0  0  0  0
  182.0560  178.4520  137.9060 C   0  0  2  0  0  3  0  0  0  0  0  0
  185.6450  177.8670  138.8040 N   0  0  0  0  0  2  0  0  0  0  0  0
  183.1470  177.0050  136.2030 C   0  0  0  0  0  3  0  0  0  0  0  0
  185.1540  179.5770  140.3340 O   0  0  0  0  0  0  0  0  0  0  0  0
  181.3600  179.6330  138.0830 F   0  0  0  0  0  0  0  0  0  0  0  0
  185.9820  178.7360  139.8910 C   0  0  0  0  0  0  0  0  0  0  0  0
  183.3840  178.5610  138.5150 N   0  0  0  0  0  0  0  0  0  0  0  0
  184.2120  176.8850  136.9990 C   0  0  0  0  0  3  0  0  0  0  0  0
  184.3790  177.8060  138.1390 C   0  0  0  0  0  0  0  0  0  0  0  0
  182.1660  178.1250  136.4140 C   0  0  0  0  0  2  0  0  0  0  0  0
  1  9  1  0  0  0  0
  2  5  1  0  0  0  0
  2  3  1  0  0  0  0
  3  7  1  0  0  0  0
  5 14  1  1  0  0  0
  6  1  1  0  0  0  0
  7  4  2  0  0  0  0
  8 12  1  0  0  0  0
  8 13  1  0  0  0  0
 10 19  1  0  0  0  0
 13  2  2  0  0  0  0
 14  1  2  0  0  0  0
 15  4  1  0  0  0  0
 15 11  1  0  0  0  0
 16 12  1  6  0  0  0
 16 17  1  0  0  0  0
 16  5  1  0  0  0  0
 17  6  1  0  0  0  0
 18 13  1  0  0  0  0
 18 10  2  0  0  0  0
 19  3  2  0  0  0  0
 19 20  1  0  0  0  0
 20 15  2  0  0  0  0
 21  8  1  0  0  0  0
 22 26  1  6  0  0  0
 22 28  1  0  0  0  0
 23 27  1  0  0  0  0
 24 31  1  0  0  0  0
 24 29  2  0  0  0  0
 27 25  2  0  0  0  0
 27 21  1  0  0  0  0
 29 30  1  0  0  0  0
 30 28  2  0  0  0  0
 30 23  1  0  0  0  0
 31 22  1  0  0  0  0
M  END
>  <MODEL>
3

>  <REMARK>
 VINA RESULT:     -10.3      3.566      4.750
  Name = 
  2 active torsions:
  status: ('A' for Active; 'I' for Inactive)
    1  A    between atoms: C_9  and  C_23
    2  A    between atoms: N_15  and  C_23
                            x       y       z     vdW  Elec       q    Type
                         _______ _______ _______ _____ _____    ______ ____

>  <TORSDO>
F 2

$$$$
=
 OpenBabel10272400203D

 31 35  0  0  1  0  0  0  0  0999 V2000
  189.5500  176.9980  140.8210 C   0  0  0  0  0  0  0  0  0  0  0  0
  188.2020  177.7830  144.2660 C   0  0  0  0  0  0  0  0  0  0  0  0
  189.2260  177.4490  145.1940 C   0  0  0  0  0  0  0  0  0  0  0  0
  191.5700  177.0710  145.7470 C   0  0  0  0  0  3  0  0  0  0  0  0
  188.4930  178.0920  142.7960 C   0  0  1  0  0  3  0  0  0  0  0  0
  188.5640  177.6510  139.8780 C   0  0  0  0  0  2  0  0  0  0  0  0
  190.5810  177.4140  144.8230 C   0  0  0  0  0  3  0  0  0  0  0  0
  185.8370  178.4310  143.8710 N   0  0  0  0  0  0  0  0  0  0  0  0
  190.5190  176.1550  140.2940 O   0  0  0  0  0  1  0  0  0  0  0  0
  187.5670  177.2470  146.9690 C   0  0  0  0  0  3  0  0  0  0  0  0
  192.1800  176.4220  147.9570 F   0  0  0  0  0  0  0  0  0  0  0  0
  186.1890  179.0210  142.5870 C   0  0  0  0  0  2  0  0  0  0  0  0
  186.8750  177.9460  144.7490 C   0  0  0  0  0  0  0  0  0  0  0  0
  189.4790  177.1530  142.1500 C   0  0  0  0  0  3  0  0  0  0  0  0
  191.2200  176.7570  147.0610 C   0  0  0  0  0  0  0  0  0  0  0  0
  187.2300  178.1390  141.9320 C   0  0  1  0  0  3  0  0  0  0  0  0
  187.6180  178.6520  140.5560 C   0  0  0  0  0  2  0  0  0  0  0  0
  186.5730  177.6510  146.0850 C   0  0  0  0  0  3  0  0  0  0  0  0
  188.8890  177.1580  146.5400 C   0  0  0  0  0  0  0  0  0  0  0  0
  189.8830  176.8060  147.4590 C   0  0  0  0  0  3  0  0  0  0  0  0
  184.4270  178.2120  144.1700 C   0  0  0  0  0  2  0  0  0  0  0  0
  181.0950  179.2290  139.4240 C   0  0  2  0  0  3  0  0  0  0  0  0
  183.7290  177.9470  141.7590 N   0  0  0  0  0  2  0  0  0  0  0  0
  182.7130  177.7940  138.1970 C   0  0  0  0  0  3  0  0  0  0  0  0
  182.7440  179.5540  143.1580 O   0  0  0  0  0  0  0  0  0  0  0  0
  180.5270  180.4880  139.4600 F   0  0  0  0  0  0  0  0  0  0  0  0
  183.5900  178.6320  143.0100 C   0  0  0  0  0  0  0  0  0  0  0  0
  181.9710  179.0460  140.5850 N   0  0  0  0  0  0  0  0  0  0  0  0
  183.2460  177.4140  139.3600 C   0  0  0  0  0  3  0  0  0  0  0  0
  182.9390  178.1730  140.5870 C   0  0  0  0  0  0  0  0  0  0  0  0
  181.8740  179.0390  138.1200 C   0  0  0  0  0  2  0  0  0  0  0  0
  1 14  2  0  0  0  0
  2 13  2  0  0  0  0
  2  3  1  0  0  0  0
  3 19  1  0  0  0  0
  4 15  2  0  0  0  0
  5 14  1  6  0  0  0
  5  2  1  0  0  0  0
  6 17  1  0  0  0  0
  6  1  1  0  0  0  0
  7  3  2  0  0  0  0
  7  4  1  0  0  0  0
  8 21  1  0  0  0  0
  8 13  1  0  0  0  0
  9  1  1  0  0  0  0
 12  8  1  0  0  0  0
 13 18  1  0  0  0  0
 15 20  1  0  0  0  0
 15 11  1  0  0  0  0
 16 17  1  6  0  0  0
 16 12  1  0  0  0  0
 16  5  1  0  0  0  0
 18 10  2  0  0  0  0
 19 10  1  0  0  0  0
 19 20  2  0  0  0  0
 22 26  1  6  0  0  0
 22 28  1  0  0  0  0
 23 27  1  0  0  0  0
 24 29  2  0  0  0  0
 27 25  2  0  0  0  0
 27 21  1  0  0  0  0
 28 30  2  0  0  0  0
 29 30  1  0  0  0  0
 30 23  1  0  0  0  0
 31 24  1  0  0  0  0
 31 22  1  0  0  0  0
M  END
>  <MODEL>
4

>  <REMARK>
 VINA RESULT:     -10.1      3.634      6.464
  Name = 
  2 active torsions:
  status: ('A' for Active; 'I' for Inactive)
    1  A    between atoms: C_9  and  C_23
    2  A    between atoms: N_15  and  C_23
                            x       y       z     vdW  Elec       q    Type
                         _______ _______ _______ _____ _____    ______ ____

>  <TORSDO>
F 2

$$$$
=
 OpenBabel10272400203D

 31 35  0  0  1  0  0  0  0  0999 V2000
  189.5120  177.0020  140.2940 C   0  0  0  0  0  0  0  0  0  0  0  0
  187.4640  178.0060  143.3110 C   0  0  0  0  0  0  0  0  0  0  0  0
  188.2680  177.7550  144.4560 C   0  0  0  0  0  0  0  0  0  0  0  0
  190.4430  177.4560  145.5170 C   0  0  0  0  0  3  0  0  0  0  0  0
  188.0590  178.2150  141.9170 C   0  0  1  0  0  3  0  0  0  0  0  0
  188.7470  177.5700  139.1200 C   0  0  0  0  0  2  0  0  0  0  0  0
  189.6710  177.7170  144.3820 C   0  0  0  0  0  3  0  0  0  0  0  0
  185.2350  178.5840  142.3800 N   0  0  0  0  0  0  0  0  0  0  0  0
  190.5710  176.1400  140.0460 O   0  0  0  0  0  1  0  0  0  0  0  0
  186.2720  177.6520  145.8510 C   0  0  0  0  0  3  0  0  0  0  0  0
  190.5720  176.9760  147.8460 F   0  0  0  0  0  0  0  0  0  0  0  0
  185.8500  179.0870  141.1600 C   0  0  0  0  0  2  0  0  0  0  0  0
  186.0640  178.1800  143.4900 C   0  0  0  0  0  0  0  0  0  0  0  0
  189.1610  177.2490  141.5630 C   0  0  0  0  0  3  0  0  0  0  0  0
  189.8240  177.2300  146.7470 C   0  0  0  0  0  0  0  0  0  0  0  0
  187.0070  178.1790  140.8050 C   0  0  1  0  0  3  0  0  0  0  0  0
  187.6770  178.6000  139.5080 C   0  0  0  0  0  2  0  0  0  0  0  0
  185.4870  177.9750  144.7490 C   0  0  0  0  0  3  0  0  0  0  0  0
  187.6550  177.5540  145.7180 C   0  0  0  0  0  0  0  0  0  0  0  0
  188.4320  177.2850  146.8490 C   0  0  0  0  0  3  0  0  0  0  0  0
  183.7940  178.3640  142.3890 C   0  0  0  0  0  2  0  0  0  0  0  0
  182.0780  178.2150  136.7600 C   0  0  2  0  0  3  0  0  0  0  0  0
  182.7660  179.2940  140.2810 N   0  0  0  0  0  2  0  0  0  0  0  0
  181.1150  180.4690  137.1760 C   0  0  0  0  0  3  0  0  0  0  0  0
  183.3950  177.0400  140.4540 O   0  0  0  0  0  0  0  0  0  0  0  0
  181.7720  176.9300  136.3530 F   0  0  0  0  0  0  0  0  0  0  0  0
  183.2990  178.1740  140.9960 C   0  0  0  0  0  0  0  0  0  0  0  0
  182.4300  178.2160  138.1830 N   0  0  0  0  0  0  0  0  0  0  0  0
  181.7630  180.5220  138.3420 C   0  0  0  0  0  3  0  0  0  0  0  0
  182.3360  179.2900  138.9150 C   0  0  0  0  0  0  0  0  0  0  0  0
  180.8950  179.1490  136.4910 C   0  0  0  0  0  2  0  0  0  0  0  0
  1 14  2  0  0  0  0
  2 13  2  0  0  0  0
  2  3  1  0  0  0  0
  3 19  1  0  0  0  0
  4 15  2  0  0  0  0
  5 14  1  6  0  0  0
  5  2  1  0  0  0  0
  6 17  1  0  0  0  0
  6  1  1  0  0  0  0
  7  3  2  0  0  0  0
  7  4  1  0  0  0  0
  8 21  1  0  0  0  0
  8 13  1  0  0  0  0
  9  1  1  0  0  0  0
 12  8  1  0  0  0  0
 13 18  1  0  0  0  0
 15 20  1  0  0  0  0
 15 11  1  0  0  0  0
 16 17  1  6  0  0  0
 16 12  1  0  0  0  0
 16  5  1  0  0  0  0
 18 10  2  0  0  0  0
 19 10  1  0  0  0  0
 19 20  2  0  0  0  0
 22 26  1  1  0  0  0
 22 28  1  0  0  0  0
 23 27  1  0  0  0  0
 24 29  2  0  0  0  0
 25 27  2  0  0  0  0
 27 21  1  0  0  0  0
 28 30  2  0  0  0  0
 29 30  1  0  0  0  0
 30 23  1  0  0  0  0
 31 22  1  0  0  0  0
 31 24  1  0  0  0  0
M  END
>  <MODEL>
5

>  <REMARK>
 VINA RESULT:      -9.8      3.954      6.587
  Name = 
  2 active torsions:
  status: ('A' for Active; 'I' for Inactive)
    1  A    between atoms: C_9  and  C_23
    2  A    between atoms: N_15  and  C_23
                            x       y       z     vdW  Elec       q    Type
                         _______ _______ _______ _____ _____    ______ ____

>  <TORSDO>
F 2

$$$$
=
 OpenBabel10272400203D

 31 35  0  0  1  0  0  0  0  0999 V2000
  185.3330  179.0300  146.2950 C   0  0  0  0  0  0  0  0  0  0  0  0
  187.5470  177.7510  143.5070 C   0  0  0  0  0  0  0  0  0  0  0  0
  188.7660  177.3350  144.1090 C   0  0  0  0  0  0  0  0  0  0  0  0
  190.0450  176.5640  146.0360 C   0  0  0  0  0  3  0  0  0  0  0  0
  186.2370  177.8540  144.2910 C   0  0  1  0  0  3  0  0  0  0  0  0
  183.9690  179.1620  145.6550 C   0  0  0  0  0  2  0  0  0  0  0  0
  188.8350  176.9570  145.4610 C   0  0  0  0  0  3  0  0  0  0  0  0
  186.2750  178.2470  141.4320 N   0  0  0  0  0  0  0  0  0  0  0  0
  185.5270  179.5500  147.5670 O   0  0  0  0  0  1  0  0  0  0  0  0
  189.9150  177.5740  141.9720 C   0  0  0  0  0  3  0  0  0  0  0  0
  192.3830  176.1590  145.8250 F   0  0  0  0  0  0  0  0  0  0  0  0
  185.0140  178.0230  142.1250 C   0  0  0  0  0  2  0  0  0  0  0  0
  187.5230  177.9710  142.1030 C   0  0  0  0  0  0  0  0  0  0  0  0
  186.3750  178.4890  145.6500 C   0  0  0  0  0  3  0  0  0  0  0  0
  191.2090  176.5400  145.2670 C   0  0  0  0  0  0  0  0  0  0  0  0
  185.1360  178.5910  143.5220 C   0  0  1  0  0  3  0  0  0  0  0  0
  183.8390  178.4490  144.3030 C   0  0  0  0  0  2  0  0  0  0  0  0
  188.7100  177.9050  141.3630 C   0  0  0  0  0  3  0  0  0  0  0  0
  189.9500  177.2760  143.3320 C   0  0  0  0  0  0  0  0  0  0  0  0
  191.1610  176.8890  143.9150 C   0  0  0  0  0  3  0  0  0  0  0  0
  186.2430  178.8880  140.1230 C   0  0  0  0  0  2  0  0  0  0  0  0
  180.9700  179.0580  137.5130 C   0  0  2  0  0  3  0  0  0  0  0  0
  184.1070  179.9800  139.3400 N   0  0  0  0  0  2  0  0  0  0  0  0
  180.8490  181.4130  138.3010 C   0  0  0  0  0  3  0  0  0  0  0  0
  184.4290  177.6600  139.1970 O   0  0  0  0  0  0  0  0  0  0  0  0
  180.3340  177.8320  137.5650 F   0  0  0  0  0  0  0  0  0  0  0  0
  184.8740  178.7870  139.5410 C   0  0  0  0  0  0  0  0  0  0  0  0
  182.2430  178.9900  138.2350 N   0  0  0  0  0  0  0  0  0  0  0  0
  182.1420  181.3610  138.6290 C   0  0  0  0  0  3  0  0  0  0  0  0
  182.8220  180.0550  138.7130 C   0  0  0  0  0  0  0  0  0  0  0  0
  180.0670  180.1450  138.1030 C   0  0  0  0  0  2  0  0  0  0  0  0
  1  9  1  0  0  0  0
  2  3  1  0  0  0  0
  2  5  1  0  0  0  0
  3  7  1  0  0  0  0
  5 14  1  1  0  0  0
  6  1  1  0  0  0  0
  7  4  2  0  0  0  0
  8 13  1  0  0  0  0
  8 12  1  0  0  0  0
 10 19  1  0  0  0  0
 13  2  2  0  0  0  0
 14  1  2  0  0  0  0
 15 11  1  0  0  0  0
 15  4  1  0  0  0  0
 16 12  1  6  0  0  0
 16  5  1  0  0  0  0
 16 17  1  0  0  0  0
 17  6  1  0  0  0  0
 18 10  2  0  0  0  0
 18 13  1  0  0  0  0
 19 20  1  0  0  0  0
 19  3  2  0  0  0  0
 20 15  2  0  0  0  0
 21  8  1  0  0  0  0
 22 26  1  1  0  0  0
 22 31  1  0  0  0  0
 22 28  1  0  0  0  0
 23 27  1  0  0  0  0
 24 29  2  0  0  0  0
 25 27  2  0  0  0  0
 27 21  1  0  0  0  0
 28 30  2  0  0  0  0
 29 30  1  0  0  0  0
 30 23  1  0  0  0  0
 31 24  1  0  0  0  0
M  END
>  <MODEL>
6

>  <REMARK>
 VINA RESULT:      -9.8      3.930      5.848
  Name = 
  2 active torsions:
  status: ('A' for Active; 'I' for Inactive)
    1  A    between atoms: C_9  and  C_23
    2  A    between atoms: N_15  and  C_23
                            x       y       z     vdW  Elec       q    Type
                         _______ _______ _______ _____ _____    ______ ____

>  <TORSDO>
F 2

$$$$
=
 OpenBabel10272400203D

 31 35  0  0  1  0  0  0  0  0999 V2000
  189.3550  176.7850  141.7420 C   0  0  0  0  0  0  0  0  0  0  0  0
  186.7620  178.3210  144.0270 C   0  0  0  0  0  0  0  0  0  0  0  0
  187.2480  178.1780  145.3560 C   0  0  0  0  0  0  0  0  0  0  0  0
  189.0730  177.8850  146.9450 C   0  0  0  0  0  3  0  0  0  0  0  0
  187.6860  178.3000  142.8080 C   0  0  1  0  0  3  0  0  0  0  0  0
  188.9460  177.2370  140.3590 C   0  0  0  0  0  2  0  0  0  0  0  0
  188.6190  178.0380  145.6330 C   0  0  0  0  0  3  0  0  0  0  0  0
  184.8800  178.9120  142.5180 N   0  0  0  0  0  0  0  0  0  0  0  0
  190.3560  175.8310  141.8640 O   0  0  0  0  0  1  0  0  0  0  0  0
  184.9790  178.3950  146.2210 C   0  0  0  0  0  3  0  0  0  0  0  0
  188.6060  177.7190  149.2740 F   0  0  0  0  0  0  0  0  0  0  0  0
  185.8100  179.2030  141.4360 C   0  0  0  0  0  2  0  0  0  0  0  0
  185.3830  178.6090  143.8360 C   0  0  0  0  0  0  0  0  0  0  0  0
  188.7410  177.2250  142.8490 C   0  0  0  0  0  3  0  0  0  0  0  0
  188.1640  177.8690  148.0030 C   0  0  0  0  0  0  0  0  0  0  0  0
  186.9250  178.1810  141.4830 C   0  0  1  0  0  3  0  0  0  0  0  0
  187.9190  178.3770  140.3500 C   0  0  0  0  0  2  0  0  0  0  0  0
  184.5090  178.6150  144.9310 C   0  0  0  0  0  3  0  0  0  0  0  0
  186.3390  178.1900  146.4440 C   0  0  0  0  0  0  0  0  0  0  0  0
  186.8000  178.0270  147.7540 C   0  0  0  0  0  3  0  0  0  0  0  0
  183.4630  178.7880  142.1990 C   0  0  0  0  0  2  0  0  0  0  0  0
  182.4030  177.2370  136.6200 C   0  0  2  0  0  3  0  0  0  0  0  0
  183.2220  177.1730  140.2750 N   0  0  0  0  0  2  0  0  0  0  0  0
  183.0210  174.9340  137.3270 C   0  0  0  0  0  3  0  0  0  0  0  0
  183.1650  179.4960  139.9490 O   0  0  0  0  0  0  0  0  0  0  0  0
  182.7180  178.2540  135.7390 F   0  0  0  0  0  0  0  0  0  0  0  0
  183.2900  178.5250  140.7420 C   0  0  0  0  0  0  0  0  0  0  0  0
  182.7490  177.6380  137.9870 N   0  0  0  0  0  0  0  0  0  0  0  0
  182.9820  175.3240  138.6030 C   0  0  0  0  0  3  0  0  0  0  0  0
  182.9700  176.7630  138.9270 C   0  0  0  0  0  0  0  0  0  0  0  0
  183.1390  175.9530  136.2270 C   0  0  0  0  0  2  0  0  0  0  0  0
  1  9  1  0  0  0  0
  1 14  2  0  0  0  0
  2  3  1  0  0  0  0
  3  7  2  0  0  0  0
  3 19  1  0  0  0  0
  4 15  2  0  0  0  0
  5 14  1  1  0  0  0
  5  2  1  0  0  0  0
  6  1  1  0  0  0  0
  7  4  1  0  0  0  0
  8 13  1  0  0  0  0
 10 19  1  0  0  0  0
 12 16  1  0  0  0  0
 12  8  1  0  0  0  0
 13  2  2  0  0  0  0
 13 18  1  0  0  0  0
 15 11  1  0  0  0  0
 16 17  1  6  0  0  0
 16  5  1  0  0  0  0
 17  6  1  0  0  0  0
 18 10  2  0  0  0  0
 19 20  2  0  0  0  0
 20 15  1  0  0  0  0
 21  8  1  0  0  0  0
 22 26  1  6  0  0  0
 22 28  1  0  0  0  0
 23 27  1  0  0  0  0
 24 29  2  0  0  0  0
 25 27  2  0  0  0  0
 27 21  1  0  0  0  0
 28 30  2  0  0  0  0
 29 30  1  0  0  0  0
 30 23  1  0  0  0  0
 31 22  1  0  0  0  0
 31 24  1  0  0  0  0
M  END
>  <MODEL>
7

>  <REMARK>
 VINA RESULT:      -9.7      3.863      6.109
  Name = 
  2 active torsions:
  status: ('A' for Active; 'I' for Inactive)
    1  A    between atoms: C_9  and  C_23
    2  A    between atoms: N_15  and  C_23
                            x       y       z     vdW  Elec       q    Type
                         _______ _______ _______ _____ _____    ______ ____

>  <TORSDO>
F 2

$$$$
=
 OpenBabel10272400203D

 31 35  0  0  1  0  0  0  0  0999 V2000
  184.6200  178.8310  144.4750 C   0  0  0  0  0  0  0  0  0  0  0  0
  188.1560  177.8180  143.5940 C   0  0  0  0  0  0  0  0  0  0  0  0
  188.8250  177.5500  144.8200 C   0  0  0  0  0  0  0  0  0  0  0  0
  188.7990  176.9410  147.1800 C   0  0  0  0  0  3  0  0  0  0  0  0
  186.6330  177.7660  143.4600 C   0  0  1  0  0  3  0  0  0  0  0  0
  183.8840  178.7980  143.1540 C   0  0  0  0  0  2  0  0  0  0  0  0
  188.1240  177.1870  145.9830 C   0  0  0  0  0  3  0  0  0  0  0  0
  188.3020  178.1540  141.1380 N   0  0  0  0  0  0  0  0  0  0  0  0
  183.9810  179.3730  145.5820 O   0  0  0  0  0  1  0  0  0  0  0  0
  190.9790  177.9200  143.7400 C   0  0  0  0  0  3  0  0  0  0  0  0
  190.8430  176.8160  148.3980 F   0  0  0  0  0  0  0  0  0  0  0  0
  186.9020  177.7840  140.9820 C   0  0  0  0  0  2  0  0  0  0  0  0
  188.9390  178.0300  142.4260 C   0  0  0  0  0  0  0  0  0  0  0  0
  185.8880  178.4160  144.5970 C   0  0  0  0  0  3  0  0  0  0  0  0
  190.1890  177.0530  147.2360 C   0  0  0  0  0  0  0  0  0  0  0  0
  186.1270  178.3650  142.1440 C   0  0  1  0  0  3  0  0  0  0  0  0
  184.6400  178.0720  142.0330 C   0  0  0  0  0  2  0  0  0  0  0  0
  190.3340  178.1040  142.5210 C   0  0  0  0  0  3  0  0  0  0  0  0
  190.2390  177.6310  144.8840 C   0  0  0  0  0  0  0  0  0  0  0  0
  190.9080  177.3910  146.0880 C   0  0  0  0  0  3  0  0  0  0  0  0
  188.9820  178.7840  140.0120 C   0  0  0  0  0  2  0  0  0  0  0  0
  190.5970  175.1750  135.6510 C   0  0  2  0  0  3  0  0  0  0  0  0
  188.8790  177.8080  137.6870 N   0  0  0  0  0  2  0  0  0  0  0  0
  188.7070  176.1600  134.3710 C   0  0  0  0  0  3  0  0  0  0  0  0
  190.2200  176.8600  139.3630 O   0  0  0  0  0  0  0  0  0  0  0  0
  191.1170  173.9890  136.1360 F   0  0  0  0  0  0  0  0  0  0  0  0
  189.3940  177.7480  139.0220 C   0  0  0  0  0  0  0  0  0  0  0  0
  190.1430  176.0110  136.7660 N   0  0  0  0  0  0  0  0  0  0  0  0
  188.5830  177.1100  135.3000 C   0  0  0  0  0  3  0  0  0  0  0  0
  189.2470  176.9440  136.6070 C   0  0  0  0  0  0  0  0  0  0  0  0
  189.4470  174.8880  134.6820 C   0  0  0  0  0  2  0  0  0  0  0  0
  1 14  2  0  0  0  0
  1  9  1  0  0  0  0
  2  3  1  0  0  0  0
  3 19  2  0  0  0  0
  3  7  1  0  0  0  0
  4 15  1  0  0  0  0
  5  2  1  0  0  0  0
  5 14  1  1  0  0  0
  6  1  1  0  0  0  0
  7  4  2  0  0  0  0
  8 13  1  0  0  0  0
 10 19  1  0  0  0  0
 12  8  1  0  0  0  0
 13 18  1  0  0  0  0
 13  2  2  0  0  0  0
 15 11  1  0  0  0  0
 16 12  1  6  0  0  0
 16  5  1  0  0  0  0
 17 16  1  0  0  0  0
 17  6  1  0  0  0  0
 18 10  2  0  0  0  0
 19 20  1  0  0  0  0
 20 15  2  0  0  0  0
 21  8  1  0  0  0  0
 22 26  1  1  0  0  0
 22 28  1  0  0  0  0
 23 27  1  0  0  0  0
 24 31  1  0  0  0  0
 24 29  2  0  0  0  0
 27 25  2  0  0  0  0
 27 21  1  0  0  0  0
 29 30  1  0  0  0  0
 30 28  2  0  0  0  0
 30 23  1  0  0  0  0
 31 22  1  0  0  0  0
M  END
>  <MODEL>
8

>  <REMARK>
 VINA RESULT:      -9.5      1.730      2.012
  Name = 
  2 active torsions:
  status: ('A' for Active; 'I' for Inactive)
    1  A    between atoms: C_9  and  C_23
    2  A    between atoms: N_15  and  C_23
                            x       y       z     vdW  Elec       q    Type
                         _______ _______ _______ _____ _____    ______ ____

>  <TORSDO>
F 2

$$$$
=
 OpenBabel10272400203D

 31 35  0  0  1  0  0  0  0  0999 V2000
  190.0340  176.1150  142.4060 C   0  0  0  0  0  0  0  0  0  0  0  0
  187.2250  178.1710  143.8860 C   0  0  0  0  0  0  0  0  0  0  0  0
  187.3450  178.0740  145.3000 C   0  0  0  0  0  0  0  0  0  0  0  0
  188.6620  177.6700  147.3110 C   0  0  0  0  0  3  0  0  0  0  0  0
  188.4040  177.9240  142.9430 C   0  0  1  0  0  3  0  0  0  0  0  0
  190.0470  176.5020  140.9450 C   0  0  0  0  0  2  0  0  0  0  0  0
  188.5690  177.7740  145.9210 C   0  0  0  0  0  3  0  0  0  0  0  0
  185.8790  178.8820  141.9240 N   0  0  0  0  0  0  0  0  0  0  0  0
  190.8180  175.0480  142.8220 O   0  0  0  0  0  1  0  0  0  0  0  0
  184.9930  178.6660  145.5510 C   0  0  0  0  0  3  0  0  0  0  0  0
  187.6210  177.7630  149.4520 F   0  0  0  0  0  0  0  0  0  0  0  0
  187.0780  178.9550  141.1000 C   0  0  0  0  0  2  0  0  0  0  0  0
  185.9940  178.6250  143.3390 C   0  0  0  0  0  0  0  0  0  0  0  0
  189.2430  176.7240  143.3000 C   0  0  0  0  0  3  0  0  0  0  0  0
  187.5310  177.8650  148.1040 C   0  0  0  0  0  0  0  0  0  0  0  0
  187.9800  177.7990  141.4760 C   0  0  1  0  0  3  0  0  0  0  0  0
  189.2380  177.7650  140.6230 C   0  0  0  0  0  2  0  0  0  0  0  0
  184.8910  178.8400  144.1750 C   0  0  0  0  0  3  0  0  0  0  0  0
  186.2110  178.2990  146.1200 C   0  0  0  0  0  0  0  0  0  0  0  0
  186.3080  178.1850  147.5100 C   0  0  0  0  0  3  0  0  0  0  0  0
  184.5810  178.9250  141.2630 C   0  0  0  0  0  2  0  0  0  0  0  0
  185.5400  176.2520  136.1060 C   0  0  2  0  0  3  0  0  0  0  0  0
  185.6720  178.6170  139.0080 N   0  0  0  0  0  2  0  0  0  0  0  0
  187.0590  178.1540  135.6010 C   0  0  0  0  0  3  0  0  0  0  0  0
  183.8550  177.2970  139.6880 O   0  0  0  0  0  0  0  0  0  0  0  0
  184.4190  175.5740  135.6660 F   0  0  0  0  0  0  0  0  0  0  0  0
  184.6580  178.2340  139.9440 C   0  0  0  0  0  0  0  0  0  0  0  0
  185.2360  176.9600  137.3530 N   0  0  0  0  0  0  0  0  0  0  0  0
  186.9850  178.5420  136.8760 C   0  0  0  0  0  3  0  0  0  0  0  0
  185.9290  177.9910  137.7470 C   0  0  0  0  0  0  0  0  0  0  0  0
  186.0220  177.2280  135.0300 C   0  0  0  0  0  2  0  0  0  0  0  0
  1  9  1  0  0  0  0
  1 14  2  0  0  0  0
  2  3  1  0  0  0  0
  3  7  2  0  0  0  0
  3 19  1  0  0  0  0
  4 15  2  0  0  0  0
  5 14  1  1  0  0  0
  5  2  1  0  0  0  0
  6  1  1  0  0  0  0
  7  4  1  0  0  0  0
  8 13  1  0  0  0  0
 10 19  1  0  0  0  0
 12 16  1  0  0  0  0
 12  8  1  0  0  0  0
 13  2  2  0  0  0  0
 13 18  1  0  0  0  0
 15 11  1  0  0  0  0
 16 17  1  6  0  0  0
 16  5  1  0  0  0  0
 17  6  1  0  0  0  0
 18 10  2  0  0  0  0
 19 20  2  0  0  0  0
 20 15  1  0  0  0  0
 21  8  1  0  0  0  0
 22 26  1  6  0  0  0
 22 28  1  0  0  0  0
 23 27  1  0  0  0  0
 24 29  2  0  0  0  0
 25 27  2  0  0  0  0
 27 21  1  0  0  0  0
 28 30  2  0  0  0  0
 29 30  1  0  0  0  0
 30 23  1  0  0  0  0
 31 24  1  0  0  0  0
 31 22  1  0  0  0  0
M  END
>  <MODEL>
9

>  <REMARK>
 VINA RESULT:      -9.3      3.360      5.055
  Name = 
  2 active torsions:
  status: ('A' for Active; 'I' for Inactive)
    1  A    between atoms: C_9  and  C_23
    2  A    between atoms: N_15  and  C_23
                            x       y       z     vdW  Elec       q    Type
                         _______ _______ _______ _____ _____    ______ ____

>  <TORSDO>
F 2

$$$$
