=
 OpenBabel10272413133D

 32 37  0  0  1  0  0  0  0  0999 V2000
  188.9210  177.5160  141.4480 C   0  0  1  0  0  3  0  0  0  0  0  0
  187.2340  177.8290  143.4030 C   0  0  0  0  0  0  0  0  0  0  0  0
  190.4280  177.3760  141.1730 C   0  0  0  0  0  2  0  0  0  0  0  0
  188.5440  177.5300  142.9350 C   0  0  0  0  0  0  0  0  0  0  0  0
  186.9600  177.8200  144.8000 C   0  0  0  0  0  0  0  0  0  0  0  0
  182.6080  179.0480  142.5520 C   0  0  0  0  0  3  0  0  0  0  0  0
  186.1890  178.1310  142.5150 C   0  0  0  0  0  3  0  0  0  0  0  0
  183.3650  178.7350  144.8300 C   0  0  0  0  0  3  0  0  0  0  0  0
  184.6470  178.4320  144.3630 C   0  0  0  0  0  0  0  0  0  0  0  0
  189.5150  177.1170  143.8800 C   0  0  0  0  0  0  0  0  0  0  0  0
  185.6670  178.1230  145.2600 C   0  0  0  0  0  3  0  0  0  0  0  0
  189.2330  177.1200  145.2440 C   0  0  0  0  0  3  0  0  0  0  0  0
  190.7960  176.6510  143.4510 N   0  0  0  0  0  2  0  0  0  0  0  0
  184.9090  178.4300  142.9780 C   0  0  0  0  0  0  0  0  0  0  0  0
  187.9720  177.4800  145.7140 C   0  0  0  0  0  0  0  0  0  0  0  0
  191.0400  176.3110  142.0590 C   0  0  0  0  0  2  0  0  0  0  0  0
  182.3470  179.0430  143.9250 C   0  0  0  0  0  3  0  0  0  0  0  0
  183.8880  178.7410  142.0770 C   0  0  0  0  0  3  0  0  0  0  0  0
  188.0140  178.2670  139.0890 C   0  0  1  0  0  3  0  0  0  0  0  0
  186.9910  178.0910  140.0450 O   0  0  0  0  0  0  0  0  0  0  0  0
  188.2210  178.5670  140.5440 C   0  0  1  0  0  3  0  0  0  0  0  0
  189.6150  177.0300  137.4940 C   0  0  2  0  0  0  0  0  0  0  0  0
  187.5020  175.0250  135.8160 O   0  0  0  0  0  1  0  0  0  0  0  0
  189.3900  178.2350  136.5840 C   0  0  0  0  0  1  0  0  0  0  0  0
  187.4840  176.0680  137.9530 C   0  0  0  0  0  2  0  0  0  0  0  0
  189.5210  175.8220  136.6760 N   0  0  0  0  0  2  0  0  0  0  0  0
  188.5520  176.9120  138.5920 C   0  0  2  0  0  3  0  0  0  0  0  0
  188.2430  175.1860  136.9860 C   0  0  2  0  0  3  0  0  0  0  0  0
  191.0070  177.1460  138.1040 C   0  0  0  0  0  2  0  0  0  0  0  0
  191.5980  175.8880  138.2490 O   0  0  0  0  0  1  0  0  0  0  0  0
  187.7460  177.4960  147.1930 C   0  0  0  0  0  2  0  0  0  0  0  0
  188.9640  178.0550  147.9030 C   0  0  0  0  0  1  0  0  0  0  0  0
  1  3  1  1  0  0  0
  1  4  1  0  0  0  0
  2  5  1  0  0  0  0
  3 16  1  0  0  0  0
  4  2  2  0  0  0  0
  4 10  1  0  0  0  0
  5 11  1  0  0  0  0
  5 15  2  0  0  0  0
  6 17  1  0  0  0  0
  7 14  2  0  0  0  0
  7  2  1  0  0  0  0
  9  8  1  0  0  0  0
  9 11  2  0  0  0  0
 10 12  2  0  0  0  0
 12 15  1  0  0  0  0
 13 10  1  0  0  0  0
 14  9  1  0  0  0  0
 15 31  1  0  0  0  0
 16 13  1  0  0  0  0
 17  8  2  0  0  0  0
 18  6  2  0  0  0  0
 18 14  1  0  0  0  0
 19 20  1  1  0  0  0
 19 21  1  0  0  0  0
 21 20  1  1  0  0  0
 21  1  1  0  0  0  0
 22 24  1  6  0  0  0
 22 29  1  0  0  0  0
 22 27  1  0  0  0  0
 26 28  1  0  0  0  0
 26 22  1  0  0  0  0
 27 25  1  6  0  0  0
 27 19  1  0  0  0  0
 28 23  1  6  0  0  0
 28 25  1  0  0  0  0
 29 30  1  0  0  0  0
 31 32  1  0  0  0  0
M  END
>  <MODEL>
1

>  <REMARK>
 VINA RESULT:     -10.1      0.000      0.000
  Name = 
  4 active torsions:
  status: ('A' for Active; 'I' for Inactive)
    1  A    between atoms: C_1  and  C_27
    2  A    between atoms: C_3  and  C_22
    3  A    between atoms: C_13  and  C_29
    4  A    between atoms: C_16  and  C_20
                            x       y       z     vdW  Elec       q    Type
                         _______ _______ _______ _____ _____    ______ ____

>  <TORSDO>
F 4

$$$$
=
 OpenBabel10272413133D

 32 37  0  0  1  0  0  0  0  0999 V2000
  188.6770  177.5570  140.5920 C   0  0  1  0  0  3  0  0  0  0  0  0
  187.4950  177.8460  142.8910 C   0  0  0  0  0  0  0  0  0  0  0  0
  190.0800  177.4600  139.9660 C   0  0  0  0  0  2  0  0  0  0  0  0
  188.6650  177.5820  142.1250 C   0  0  0  0  0  0  0  0  0  0  0  0
  187.5610  177.8510  144.3120 C   0  0  0  0  0  0  0  0  0  0  0  0
  182.7600  178.9050  143.1580 C   0  0  0  0  0  3  0  0  0  0  0  0
  186.2590  178.1010  142.2750 C   0  0  0  0  0  3  0  0  0  0  0  0
  184.0480  178.6520  145.1920 C   0  0  0  0  0  3  0  0  0  0  0  0
  185.1920  178.3820  144.4350 C   0  0  0  0  0  0  0  0  0  0  0  0
  189.8470  177.2150  142.8150 C   0  0  0  0  0  0  0  0  0  0  0  0
  186.4060  178.1200  145.0650 C   0  0  0  0  0  3  0  0  0  0  0  0
  189.8970  177.2300  144.2070 C   0  0  0  0  0  3  0  0  0  0  0  0
  191.0030  176.7830  142.0970 N   0  0  0  0  0  2  0  0  0  0  0  0
  185.1160  178.3670  143.0280 C   0  0  0  0  0  0  0  0  0  0  0  0
  188.7740  177.5570  144.9610 C   0  0  0  0  0  0  0  0  0  0  0  0
  190.9200  176.4290  140.6880 C   0  0  0  0  0  2  0  0  0  0  0  0
  182.8340  178.9130  144.5540 C   0  0  0  0  0  3  0  0  0  0  0  0
  183.8990  178.6310  142.3930 C   0  0  0  0  0  3  0  0  0  0  0  0
  187.2750  178.2790  138.4790 C   0  0  1  0  0  3  0  0  0  0  0  0
  186.4750  178.0200  139.6120 O   0  0  0  0  0  0  0  0  0  0  0  0
  187.7460  178.5710  139.8730 C   0  0  1  0  0  3  0  0  0  0  0  0
  188.2940  177.1320  136.4100 C   0  0  2  0  0  0  0  0  0  0  0  0
  186.0540  174.7000  135.7980 O   0  0  0  0  0  1  0  0  0  0  0  0
  187.5290  178.2010  135.6340 C   0  0  0  0  0  1  0  0  0  0  0  0
  186.7110  175.9290  137.7250 C   0  0  0  0  0  2  0  0  0  0  0  0
  188.0850  175.8500  135.7390 N   0  0  0  0  0  2  0  0  0  0  0  0
  187.7880  176.9710  137.8480 C   0  0  2  0  0  3  0  0  0  0  0  0
  187.1600  175.0740  136.5610 C   0  0  2  0  0  3  0  0  0  0  0  0
  189.7730  177.4980  136.3980 C   0  0  0  0  0  2  0  0  0  0  0  0
  190.5720  176.3690  136.5980 O   0  0  0  0  0  1  0  0  0  0  0  0
  188.9060  177.5890  146.4510 C   0  0  0  0  0  2  0  0  0  0  0  0
  190.2280  176.9770  146.8730 C   0  0  0  0  0  1  0  0  0  0  0  0
  1  3  1  6  0  0  0
  1  4  1  0  0  0  0
  2  5  1  0  0  0  0
  3 16  1  0  0  0  0
  4 10  2  0  0  0  0
  4  2  1  0  0  0  0
  5 15  1  0  0  0  0
  5 11  2  0  0  0  0
  6 17  1  0  0  0  0
  7  2  2  0  0  0  0
  7 14  1  0  0  0  0
  9 11  1  0  0  0  0
  9  8  1  0  0  0  0
 10 12  1  0  0  0  0
 12 15  2  0  0  0  0
 13 10  1  0  0  0  0
 14  9  2  0  0  0  0
 15 31  1  0  0  0  0
 16 13  1  0  0  0  0
 17  8  2  0  0  0  0
 18 14  1  0  0  0  0
 18  6  2  0  0  0  0
 19 20  1  1  0  0  0
 19 21  1  0  0  0  0
 21 20  1  1  0  0  0
 21  1  1  0  0  0  0
 22 24  1  6  0  0  0
 22 27  1  0  0  0  0
 26 22  1  0  0  0  0
 26 28  1  0  0  0  0
 27 25  1  6  0  0  0
 27 19  1  0  0  0  0
 28 23  1  6  0  0  0
 28 25  1  0  0  0  0
 29 22  1  0  0  0  0
 29 30  1  0  0  0  0
 31 32  1  0  0  0  0
M  END
>  <MODEL>
2

>  <REMARK>
 VINA RESULT:      -9.5      1.094      1.206
  Name = 
  4 active torsions:
  status: ('A' for Active; 'I' for Inactive)
    1  A    between atoms: C_1  and  C_27
    2  A    between atoms: C_3  and  C_22
    3  A    between atoms: C_13  and  C_29
    4  A    between atoms: C_16  and  C_20
                            x       y       z     vdW  Elec       q    Type
                         _______ _______ _______ _____ _____    ______ ____

>  <TORSDO>
F 4

$$$$
=
 OpenBabel10272413133D

 32 37  0  0  1  0  0  0  0  0999 V2000
  189.1200  177.5320  139.7650 C   0  0  1  0  0  3  0  0  0  0  0  0
  188.5400  177.7650  142.2900 C   0  0  0  0  0  0  0  0  0  0  0  0
  190.3230  177.5220  138.8050 C   0  0  0  0  0  2  0  0  0  0  0  0
  189.4940  177.5710  141.2530 C   0  0  0  0  0  0  0  0  0  0  0  0
  188.9620  177.7870  143.6490 C   0  0  0  0  0  0  0  0  0  0  0  0
  183.9660  178.5140  143.7510 C   0  0  0  0  0  3  0  0  0  0  0  0
  187.1740  177.9330  142.0080 C   0  0  0  0  0  3  0  0  0  0  0  0
  185.7400  178.3650  145.3930 C   0  0  0  0  0  3  0  0  0  0  0  0
  186.6710  178.1630  144.3700 C   0  0  0  0  0  0  0  0  0  0  0  0
  190.8330  177.2880  141.6190 C   0  0  0  0  0  0  0  0  0  0  0  0
  188.0190  177.9870  144.6710 C   0  0  0  0  0  3  0  0  0  0  0  0
  191.2320  177.3190  142.9530 C   0  0  0  0  0  3  0  0  0  0  0  0
  191.7970  176.9260  140.6290 N   0  0  0  0  0  2  0  0  0  0  0  0
  186.2430  178.1300  143.0270 C   0  0  0  0  0  0  0  0  0  0  0  0
  190.3160  177.5790  143.9690 C   0  0  0  0  0  0  0  0  0  0  0  0
  191.3840  176.5540  139.2840 C   0  0  0  0  0  2  0  0  0  0  0  0
  184.3900  178.5400  145.0840 C   0  0  0  0  0  3  0  0  0  0  0  0
  184.8920  178.3080  142.7220 C   0  0  0  0  0  3  0  0  0  0  0  0
  187.2350  178.1820  138.0400 C   0  0  1  0  0  3  0  0  0  0  0  0
  186.7270  177.8190  139.3050 O   0  0  0  0  0  0  0  0  0  0  0  0
  187.9730  178.4770  139.3120 C   0  0  1  0  0  3  0  0  0  0  0  0
  187.8500  177.1860  135.7460 C   0  0  2  0  0  0  0  0  0  0  0  0
  185.7590  174.5610  135.5520 O   0  0  0  0  0  1  0  0  0  0  0  0
  186.8340  178.1920  135.2110 C   0  0  0  0  0  1  0  0  0  0  0  0
  186.7280  175.8060  137.3310 C   0  0  0  0  0  2  0  0  0  0  0  0
  187.6090  175.9060  135.0830 N   0  0  0  0  0  2  0  0  0  0  0  0
  187.7060  176.9450  137.2520 C   0  0  2  0  0  3  0  0  0  0  0  0
  186.9720  175.0240  136.0590 C   0  0  2  0  0  3  0  0  0  0  0  0
  189.2470  177.6960  135.4140 C   0  0  0  0  0  2  0  0  0  0  0  0
  190.0660  176.6590  134.9600 O   0  0  0  0  0  1  0  0  0  0  0  0
  190.8170  177.6330  145.3780 C   0  0  0  0  0  2  0  0  0  0  0  0
  191.6140  176.3830  145.6980 C   0  0  0  0  0  1  0  0  0  0  0  0
  1  3  1  6  0  0  0
  1  4  1  0  0  0  0
  2  5  1  0  0  0  0
  3 16  1  0  0  0  0
  4 10  2  0  0  0  0
  4  2  1  0  0  0  0
  5 15  1  0  0  0  0
  5 11  2  0  0  0  0
  6 17  1  0  0  0  0
  7  2  2  0  0  0  0
  7 14  1  0  0  0  0
  9 11  1  0  0  0  0
  9  8  1  0  0  0  0
 10 12  1  0  0  0  0
 12 15  2  0  0  0  0
 13 10  1  0  0  0  0
 14  9  2  0  0  0  0
 15 31  1  0  0  0  0
 16 13  1  0  0  0  0
 17  8  2  0  0  0  0
 18 14  1  0  0  0  0
 18  6  2  0  0  0  0
 19 20  1  1  0  0  0
 19 21  1  0  0  0  0
 21 20  1  1  0  0  0
 21  1  1  0  0  0  0
 22 24  1  6  0  0  0
 22 27  1  0  0  0  0
 26 22  1  0  0  0  0
 26 28  1  0  0  0  0
 27 25  1  6  0  0  0
 27 19  1  0  0  0  0
 28 23  1  6  0  0  0
 28 25  1  0  0  0  0
 29 22  1  0  0  0  0
 30 29  1  0  0  0  0
 31 32  1  0  0  0  0
M  END
>  <MODEL>
3

>  <REMARK>
 VINA RESULT:      -8.9      1.593      2.361
  Name = 
  4 active torsions:
  status: ('A' for Active; 'I' for Inactive)
    1  A    between atoms: C_1  and  C_27
    2  A    between atoms: C_3  and  C_22
    3  A    between atoms: C_13  and  C_29
    4  A    between atoms: C_16  and  C_20
                            x       y       z     vdW  Elec       q    Type
                         _______ _______ _______ _____ _____    ______ ____

>  <TORSDO>
F 4

$$$$
=
 OpenBabel10272413133D

 32 37  0  0  1  0  0  0  0  0999 V2000
  184.2760  178.7340  141.9110 C   0  0  1  0  0  3  0  0  0  0  0  0
  186.6680  178.1020  142.7140 C   0  0  0  0  0  0  0  0  0  0  0  0
  182.8190  178.7880  142.4020 C   0  0  0  0  0  2  0  0  0  0  0  0
  185.3000  178.3780  142.9950 C   0  0  0  0  0  0  0  0  0  0  0  0
  187.5600  177.7810  143.7750 C   0  0  0  0  0  0  0  0  0  0  0  0
  190.3260  177.6080  139.5540 C   0  0  0  0  0  3  0  0  0  0  0  0
  187.1690  178.1430  141.4030 C   0  0  0  0  0  3  0  0  0  0  0  0
  190.7260  177.2520  141.9150 C   0  0  0  0  0  3  0  0  0  0  0  0
  189.3840  177.5350  142.1860 C   0  0  0  0  0  0  0  0  0  0  0  0
  184.8940  178.4370  144.3510 C   0  0  0  0  0  0  0  0  0  0  0  0
  188.9080  177.5010  143.4940 C   0  0  0  0  0  3  0  0  0  0  0  0
  185.7790  178.1140  145.3780 C   0  0  0  0  0  3  0  0  0  0  0  0
  183.5770  178.8670  144.6980 N   0  0  0  0  0  2  0  0  0  0  0  0
  188.5080  177.8640  141.1320 C   0  0  0  0  0  0  0  0  0  0  0  0
  187.1010  177.7740  145.1050 C   0  0  0  0  0  0  0  0  0  0  0  0
  182.7240  179.5250  143.7210 C   0  0  0  0  0  2  0  0  0  0  0  0
  191.1950  177.2880  140.6010 C   0  0  0  0  0  3  0  0  0  0  0  0
  188.9820  177.8980  139.8180 C   0  0  0  0  0  3  0  0  0  0  0  0
  183.5290  178.3880  139.4060 C   0  0  1  0  0  3  0  0  0  0  0  0
  184.8280  178.9250  139.5270 O   0  0  0  0  0  0  0  0  0  0  0  0
  184.4420  178.0230  140.5390 C   0  0  1  0  0  3  0  0  0  0  0  0
  181.0340  179.0240  139.3280 C   0  0  2  0  0  0  0  0  0  0  0  0
  181.1070  181.8830  137.5610 O   0  0  0  0  0  1  0  0  0  0  0  0
  181.0020  178.1200  138.0970 C   0  0  0  0  0  1  0  0  0  0  0  0
  182.6620  180.7190  138.9330 C   0  0  0  0  0  2  0  0  0  0  0  0
  180.2940  180.2440  139.0110 N   0  0  0  0  0  2  0  0  0  0  0  0
  182.4560  179.4490  139.7120 C   0  0  2  0  0  3  0  0  0  0  0  0
  181.2740  181.3100  138.8220 C   0  0  2  0  0  3  0  0  0  0  0  0
  180.3640  178.2850  140.4800 C   0  0  0  0  0  2  0  0  0  0  0  0
  180.4730  176.9020  140.3220 O   0  0  0  0  0  1  0  0  0  0  0  0
  187.9880  177.4030  146.2510 C   0  0  0  0  0  2  0  0  0  0  0  0
  187.4820  178.0390  147.5310 C   0  0  0  0  0  1  0  0  0  0  0  0
  1  3  1  1  0  0  0
  1  4  1  0  0  0  0
  2  4  2  0  0  0  0
  2  5  1  0  0  0  0
  3 16  1  0  0  0  0
  4 10  1  0  0  0  0
  5 15  2  0  0  0  0
  6 18  2  0  0  0  0
  6 17  1  0  0  0  0
  7  2  1  0  0  0  0
  8  9  1  0  0  0  0
  9 11  2  0  0  0  0
 10 13  1  0  0  0  0
 10 12  2  0  0  0  0
 11  5  1  0  0  0  0
 14  7  2  0  0  0  0
 14  9  1  0  0  0  0
 15 12  1  0  0  0  0
 15 31  1  0  0  0  0
 16 13  1  0  0  0  0
 17  8  2  0  0  0  0
 18 14  1  0  0  0  0
 19 20  1  6  0  0  0
 19 27  1  0  0  0  0
 19 21  1  0  0  0  0
 21 20  1  6  0  0  0
 21  1  1  0  0  0  0
 22 24  1  6  0  0  0
 22 27  1  0  0  0  0
 22 29  1  0  0  0  0
 26 22  1  0  0  0  0
 27 25  1  6  0  0  0
 28 23  1  6  0  0  0
 28 25  1  0  0  0  0
 28 26  1  0  0  0  0
 30 29  1  0  0  0  0
 31 32  1  0  0  0  0
M  END
>  <MODEL>
4

>  <REMARK>
 VINA RESULT:      -8.8      3.474      6.673
  Name = 
  4 active torsions:
  status: ('A' for Active; 'I' for Inactive)
    1  A    between atoms: C_1  and  C_27
    2  A    between atoms: C_3  and  C_22
    3  A    between atoms: C_13  and  C_29
    4  A    between atoms: C_16  and  C_20
                            x       y       z     vdW  Elec       q    Type
                         _______ _______ _______ _____ _____    ______ ____

>  <TORSDO>
F 4

$$$$
=
 OpenBabel10272413133D

 32 37  0  0  1  0  0  0  0  0999 V2000
  186.0150  178.3110  140.1800 C   0  0  1  0  0  3  0  0  0  0  0  0
  187.8600  177.8980  141.9670 C   0  0  0  0  0  0  0  0  0  0  0  0
  185.8410  178.6810  138.6970 C   0  0  0  0  0  2  0  0  0  0  0  0
  187.4680  178.0720  140.6110 C   0  0  0  0  0  0  0  0  0  0  0  0
  189.2280  177.6770  142.2890 C   0  0  0  0  0  0  0  0  0  0  0  0
  186.7610  177.6610  146.6950 C   0  0  0  0  0  3  0  0  0  0  0  0
  186.9210  177.9320  143.0110 C   0  0  0  0  0  3  0  0  0  0  0  0
  189.0610  177.4010  145.9850 C   0  0  0  0  0  3  0  0  0  0  0  0
  188.6690  177.5620  144.6520 C   0  0  0  0  0  0  0  0  0  0  0  0
  188.4500  177.9040  139.6040 C   0  0  0  0  0  0  0  0  0  0  0  0
  189.6130  177.5130  143.6300 C   0  0  0  0  0  3  0  0  0  0  0  0
  189.7870  177.6960  139.9350 C   0  0  0  0  0  3  0  0  0  0  0  0
  188.0840  177.9080  138.2230 N   0  0  0  0  0  2  0  0  0  0  0  0
  187.3090  177.7670  144.3400 C   0  0  0  0  0  0  0  0  0  0  0  0
  190.1880  177.5940  141.2640 C   0  0  0  0  0  0  0  0  0  0  0  0
  186.6920  177.7890  137.8180 C   0  0  0  0  0  2  0  0  0  0  0  0
  188.1080  177.4510  147.0040 C   0  0  0  0  0  3  0  0  0  0  0  0
  186.3600  177.8190  145.3640 C   0  0  0  0  0  3  0  0  0  0  0  0
  183.6470  179.1490  140.9800 C   0  0  1  0  0  3  0  0  0  0  0  0
  184.3080  178.3570  141.9430 O   0  0  0  0  0  0  0  0  0  0  0  0
  185.1380  179.1640  141.1380 C   0  0  1  0  0  3  0  0  0  0  0  0
  181.7960  178.8240  139.2190 C   0  0  2  0  0  0  0  0  0  0  0  0
  180.6590  175.7510  139.9740 O   0  0  0  0  0  1  0  0  0  0  0  0
  180.9130  179.5360  140.2410 C   0  0  0  0  0  1  0  0  0  0  0  0
  182.7180  176.9010  140.2810 C   0  0  0  0  0  2  0  0  0  0  0  0
  181.0550  177.6720  138.7070 N   0  0  0  0  0  2  0  0  0  0  0  0
  183.0930  178.2850  139.8310 C   0  0  2  0  0  3  0  0  0  0  0  0
  181.6440  176.4760  139.3040 C   0  0  2  0  0  3  0  0  0  0  0  0
  182.0990  179.7990  138.0880 C   0  0  0  0  0  2  0  0  0  0  0  0
  181.9840  181.1220  138.5210 O   0  0  0  0  0  1  0  0  0  0  0  0
  191.6440  177.4050  141.5520 C   0  0  0  0  0  2  0  0  0  0  0  0
  192.4230  177.2900  140.2570 C   0  0  0  0  0  1  0  0  0  0  0  0
  1  3  1  6  0  0  0
  1  4  1  0  0  0  0
  1 21  1  0  0  0  0
  2  5  2  0  0  0  0
  2  7  1  0  0  0  0
  4  2  1  0  0  0  0
  5 11  1  0  0  0  0
  6 17  1  0  0  0  0
  7 14  2  0  0  0  0
  8 17  2  0  0  0  0
  9  8  1  0  0  0  0
 10 12  1  0  0  0  0
 10  4  2  0  0  0  0
 11  9  2  0  0  0  0
 12 15  2  0  0  0  0
 13 10  1  0  0  0  0
 14  9  1  0  0  0  0
 14 18  1  0  0  0  0
 15 31  1  0  0  0  0
 15  5  1  0  0  0  0
 16 13  1  0  0  0  0
 16  3  1  0  0  0  0
 18  6  2  0  0  0  0
 19 21  1  0  0  0  0
 19 20  1  1  0  0  0
 21 20  1  1  0  0  0
 22 27  1  0  0  0  0
 22 24  1  1  0  0  0
 26 22  1  0  0  0  0
 26 28  1  0  0  0  0
 27 25  1  1  0  0  0
 27 19  1  0  0  0  0
 28 23  1  1  0  0  0
 28 25  1  0  0  0  0
 29 30  1  0  0  0  0
 29 22  1  0  0  0  0
 32 31  1  0  0  0  0
M  END
>  <MODEL>
5

>  <REMARK>
 VINA RESULT:      -8.8      2.999      6.042
  Name = 
  4 active torsions:
  status: ('A' for Active; 'I' for Inactive)
    1  A    between atoms: C_1  and  C_27
    2  A    between atoms: C_3  and  C_22
    3  A    between atoms: C_13  and  C_29
    4  A    between atoms: C_16  and  C_20
                            x       y       z     vdW  Elec       q    Type
                         _______ _______ _______ _____ _____    ______ ____

>  <TORSDO>
F 4

$$$$
=
 OpenBabel10272413133D

 32 37  0  0  1  0  0  0  0  0999 V2000
  187.3080  178.0660  140.8740 C   0  0  1  0  0  3  0  0  0  0  0  0
  188.2950  177.6690  143.2480 C   0  0  0  0  0  0  0  0  0  0  0  0
  187.7330  178.1740  139.3990 C   0  0  0  0  0  2  0  0  0  0  0  0
  188.4330  177.6530  141.8320 C   0  0  0  0  0  0  0  0  0  0  0  0
  189.3830  177.2690  144.0720 C   0  0  0  0  0  0  0  0  0  0  0  0
  185.6560  178.5350  147.2360 C   0  0  0  0  0  3  0  0  0  0  0  0
  187.0980  178.0710  143.8630 C   0  0  0  0  0  3  0  0  0  0  0  0
  187.9300  177.7320  147.4540 C   0  0  0  0  0  3  0  0  0  0  0  0
  188.0550  177.7060  146.0620 C   0  0  0  0  0  0  0  0  0  0  0  0
  189.6250  177.1220  141.2820 C   0  0  0  0  0  0  0  0  0  0  0  0
  189.2470  177.2940  145.4710 C   0  0  0  0  0  3  0  0  0  0  0  0
  190.6840  176.7400  142.1030 C   0  0  0  0  0  3  0  0  0  0  0  0
  189.7540  176.9300  139.8720 N   0  0  0  0  0  2  0  0  0  0  0  0
  186.9690  178.0930  145.2510 C   0  0  0  0  0  0  0  0  0  0  0  0
  190.5810  176.8200  143.4890 C   0  0  0  0  0  0  0  0  0  0  0  0
  188.5910  176.9920  139.0000 C   0  0  0  0  0  2  0  0  0  0  0  0
  186.7320  178.1460  148.0400 C   0  0  0  0  0  3  0  0  0  0  0  0
  185.7730  178.5080  145.8420 C   0  0  0  0  0  3  0  0  0  0  0  0
  184.9330  179.2070  140.9850 C   0  0  1  0  0  3  0  0  0  0  0  0
  185.4050  178.7860  142.2470 O   0  0  0  0  0  0  0  0  0  0  0  0
  186.3910  179.2290  141.3410 C   0  0  1  0  0  3  0  0  0  0  0  0
  183.9220  178.4010  138.7580 C   0  0  2  0  0  0  0  0  0  0  0  0
  181.2050  176.7190  139.8040 O   0  0  0  0  0  1  0  0  0  0  0  0
  183.2310  179.7620  138.7580 C   0  0  0  0  0  1  0  0  0  0  0  0
  183.3050  177.2820  140.7690 C   0  0  0  0  0  2  0  0  0  0  0  0
  182.9320  177.3920  138.3840 N   0  0  0  0  0  2  0  0  0  0  0  0
  184.4590  178.0110  140.1390 C   0  0  2  0  0  3  0  0  0  0  0  0
  182.5830  176.6560  139.5970 C   0  0  2  0  0  3  0  0  0  0  0  0
  185.0490  178.4370  137.7330 C   0  0  0  0  0  2  0  0  0  0  0  0
  184.9750  177.3440  136.8660 O   0  0  0  0  0  1  0  0  0  0  0  0
  191.7680  176.4270  144.3110 C   0  0  0  0  0  2  0  0  0  0  0  0
  191.9570  174.9230  144.2700 C   0  0  0  0  0  1  0  0  0  0  0  0
  1  3  1  6  0  0  0
  1 21  1  0  0  0  0
  1  4  1  0  0  0  0
  2  7  2  0  0  0  0
  2  5  1  0  0  0  0
  4  2  1  0  0  0  0
  5 11  2  0  0  0  0
  6 17  1  0  0  0  0
  7 14  1  0  0  0  0
  8 17  2  0  0  0  0
  9  8  1  0  0  0  0
 10  4  2  0  0  0  0
 10 12  1  0  0  0  0
 11  9  1  0  0  0  0
 12 15  2  0  0  0  0
 13 10  1  0  0  0  0
 14 18  1  0  0  0  0
 14  9  2  0  0  0  0
 15  5  1  0  0  0  0
 15 31  1  0  0  0  0
 16  3  1  0  0  0  0
 16 13  1  0  0  0  0
 18  6  2  0  0  0  0
 19 21  1  0  0  0  0
 19 20  1  1  0  0  0
 21 20  1  1  0  0  0
 22 24  1  1  0  0  0
 22 27  1  0  0  0  0
 26 22  1  0  0  0  0
 26 28  1  0  0  0  0
 27 25  1  1  0  0  0
 27 19  1  0  0  0  0
 28 23  1  1  0  0  0
 28 25  1  0  0  0  0
 29 22  1  0  0  0  0
 30 29  1  0  0  0  0
 32 31  1  0  0  0  0
M  END
>  <MODEL>
6

>  <REMARK>
 VINA RESULT:      -8.7      2.515      4.628
  Name = 
  4 active torsions:
  status: ('A' for Active; 'I' for Inactive)
    1  A    between atoms: C_1  and  C_27
    2  A    between atoms: C_3  and  C_22
    3  A    between atoms: C_13  and  C_29
    4  A    between atoms: C_16  and  C_20
                            x       y       z     vdW  Elec       q    Type
                         _______ _______ _______ _____ _____    ______ ____

>  <TORSDO>
F 4

$$$$
=
 OpenBabel10272413133D

 32 37  0  0  1  0  0  0  0  0999 V2000
  186.6020  178.0500  139.9950 C   0  0  1  0  0  3  0  0  0  0  0  0
  187.4640  177.8910  142.4440 C   0  0  0  0  0  0  0  0  0  0  0  0
  187.1100  178.1350  138.5450 C   0  0  0  0  0  2  0  0  0  0  0  0
  187.6990  177.8210  141.0420 C   0  0  0  0  0  0  0  0  0  0  0  0
  188.5330  177.6630  143.3550 C   0  0  0  0  0  0  0  0  0  0  0  0
  184.4800  178.6330  146.2060 C   0  0  0  0  0  3  0  0  0  0  0  0
  186.1900  178.1770  142.9600 C   0  0  0  0  0  3  0  0  0  0  0  0
  186.8110  178.1160  146.6090 C   0  0  0  0  0  3  0  0  0  0  0  0
  187.0330  178.0370  145.2310 C   0  0  0  0  0  0  0  0  0  0  0  0
  188.9790  177.4080  140.5970 C   0  0  0  0  0  0  0  0  0  0  0  0
  188.3010  177.7410  144.7390 C   0  0  0  0  0  3  0  0  0  0  0  0
  190.0170  177.1950  141.5020 C   0  0  0  0  0  3  0  0  0  0  0  0
  189.2240  177.1640  139.2110 N   0  0  0  0  0  2  0  0  0  0  0  0
  185.9660  178.2520  144.3340 C   0  0  0  0  0  0  0  0  0  0  0  0
  189.8120  177.3310  142.8720 C   0  0  0  0  0  0  0  0  0  0  0  0
  188.1240  177.0450  138.2670 C   0  0  0  0  0  2  0  0  0  0  0  0
  185.5360  178.4140  147.0950 C   0  0  0  0  0  3  0  0  0  0  0  0
  184.6930  178.5520  144.8260 C   0  0  0  0  0  3  0  0  0  0  0  0
  184.0950  178.8670  139.9700 C   0  0  1  0  0  3  0  0  0  0  0  0
  184.5880  178.6330  141.2710 O   0  0  0  0  0  0  0  0  0  0  0  0
  185.5270  179.1180  140.3380 C   0  0  1  0  0  3  0  0  0  0  0  0
  183.0440  177.7170  137.9190 C   0  0  2  0  0  0  0  0  0  0  0  0
  180.8960  175.5680  139.3580 O   0  0  0  0  0  1  0  0  0  0  0  0
  182.0760  178.8970  137.9480 C   0  0  0  0  0  1  0  0  0  0  0  0
  182.9140  176.6280  140.0340 C   0  0  0  0  0  2  0  0  0  0  0  0
  182.2650  176.4980  137.7110 N   0  0  0  0  0  2  0  0  0  0  0  0
  183.8040  177.5430  139.2380 C   0  0  2  0  0  3  0  0  0  0  0  0
  182.2220  175.7860  138.9860 C   0  0  2  0  0  3  0  0  0  0  0  0
  184.0150  177.9240  136.7620 C   0  0  0  0  0  2  0  0  0  0  0  0
  184.6770  176.7360  136.4430 O   0  0  0  0  0  1  0  0  0  0  0  0
  190.9780  177.1220  143.7870 C   0  0  0  0  0  2  0  0  0  0  0  0
  191.6440  178.4490  144.0970 C   0  0  0  0  0  1  0  0  0  0  0  0
  1  3  1  6  0  0  0
  1 21  1  0  0  0  0
  1  4  1  0  0  0  0
  2  7  2  0  0  0  0
  2  5  1  0  0  0  0
  4  2  1  0  0  0  0
  5 11  2  0  0  0  0
  6 17  1  0  0  0  0
  7 14  1  0  0  0  0
  8 17  2  0  0  0  0
  9  8  1  0  0  0  0
 10  4  2  0  0  0  0
 10 12  1  0  0  0  0
 11  9  1  0  0  0  0
 12 15  2  0  0  0  0
 13 10  1  0  0  0  0
 14 18  1  0  0  0  0
 14  9  2  0  0  0  0
 15  5  1  0  0  0  0
 15 31  1  0  0  0  0
 16  3  1  0  0  0  0
 16 13  1  0  0  0  0
 18  6  2  0  0  0  0
 19 21  1  0  0  0  0
 19 20  1  1  0  0  0
 21 20  1  1  0  0  0
 22 24  1  1  0  0  0
 22 27  1  0  0  0  0
 26 22  1  0  0  0  0
 26 28  1  0  0  0  0
 27 19  1  0  0  0  0
 27 25  1  1  0  0  0
 28 23  1  1  0  0  0
 28 25  1  0  0  0  0
 29 22  1  0  0  0  0
 30 29  1  0  0  0  0
 31 32  1  0  0  0  0
M  END
>  <MODEL>
7

>  <REMARK>
 VINA RESULT:      -8.6      2.849      4.592
  Name = 
  4 active torsions:
  status: ('A' for Active; 'I' for Inactive)
    1  A    between atoms: C_1  and  C_27
    2  A    between atoms: C_3  and  C_22
    3  A    between atoms: C_13  and  C_29
    4  A    between atoms: C_16  and  C_20
                            x       y       z     vdW  Elec       q    Type
                         _______ _______ _______ _____ _____    ______ ____

>  <TORSDO>
F 4

$$$$
=
 OpenBabel10272413133D

 32 37  0  0  1  0  0  0  0  0999 V2000
  187.8330  178.0470  140.5360 C   0  0  1  0  0  3  0  0  0  0  0  0
  187.6840  177.9020  143.1290 C   0  0  0  0  0  0  0  0  0  0  0  0
  186.9430  178.0960  139.2820 C   0  0  0  0  0  2  0  0  0  0  0  0
  187.0680  178.1120  141.8640 C   0  0  0  0  0  0  0  0  0  0  0  0
  186.9070  177.9810  144.3190 C   0  0  0  0  0  0  0  0  0  0  0  0
  191.6060  176.8940  145.8140 C   0  0  0  0  0  3  0  0  0  0  0  0
  189.0550  177.6200  143.2390 C   0  0  0  0  0  3  0  0  0  0  0  0
  189.4730  177.2580  146.8990 C   0  0  0  0  0  3  0  0  0  0  0  0
  188.8760  177.4750  145.6540 C   0  0  0  0  0  0  0  0  0  0  0  0
  185.7090  178.5110  141.8390 C   0  0  0  0  0  0  0  0  0  0  0  0
  187.5170  177.7650  145.5670 C   0  0  0  0  0  3  0  0  0  0  0  0
  184.9610  178.5780  143.0120 C   0  0  0  0  0  3  0  0  0  0  0  0
  185.0850  178.8920  140.6120 N   0  0  0  0  0  2  0  0  0  0  0  0
  189.6530  177.4070  144.4800 C   0  0  0  0  0  0  0  0  0  0  0  0
  185.5400  178.3040  144.2480 C   0  0  0  0  0  0  0  0  0  0  0  0
  185.8770  179.1620  139.4220 C   0  0  0  0  0  2  0  0  0  0  0  0
  190.8360  176.9680  146.9780 C   0  0  0  0  0  3  0  0  0  0  0  0
  191.0170  177.1140  144.5640 C   0  0  0  0  0  3  0  0  0  0  0  0
  189.3700  176.4540  139.1030 C   0  0  1  0  0  3  0  0  0  0  0  0
  190.0850  177.4950  139.7310 O   0  0  0  0  0  0  0  0  0  0  0  0
  188.9760  176.9980  140.4440 C   0  0  1  0  0  3  0  0  0  0  0  0
  188.1160  175.8770  136.9290 C   0  0  2  0  0  0  0  0  0  0  0  0
  189.7350  177.7760  134.6750 O   0  0  0  0  0  1  0  0  0  0  0  0
  189.1070  174.7180  136.8480 C   0  0  0  0  0  1  0  0  0  0  0  0
  189.3770  177.8970  137.0230 C   0  0  0  0  0  2  0  0  0  0  0  0
  188.0240  176.4860  135.6030 N   0  0  0  0  0  2  0  0  0  0  0  0
  188.5690  176.9760  137.8960 C   0  0  2  0  0  3  0  0  0  0  0  0
  188.7440  177.7560  135.6570 C   0  0  2  0  0  3  0  0  0  0  0  0
  186.7610  175.3190  137.3460 C   0  0  0  0  0  2  0  0  0  0  0  0
  185.7190  176.0050  136.7180 O   0  0  0  0  0  1  0  0  0  0  0  0
  184.6720  178.3600  145.4660 C   0  0  0  0  0  2  0  0  0  0  0  0
  183.2680  178.7900  145.0880 C   0  0  0  0  0  1  0  0  0  0  0  0
  1  3  1  6  0  0  0
  1  4  1  0  0  0  0
  2  7  2  0  0  0  0
  2  5  1  0  0  0  0
  3 16  1  0  0  0  0
  4  2  1  0  0  0  0
  5 11  2  0  0  0  0
  6 17  1  0  0  0  0
  7 14  1  0  0  0  0
  8 17  2  0  0  0  0
  9  8  1  0  0  0  0
 10  4  2  0  0  0  0
 10 12  1  0  0  0  0
 11  9  1  0  0  0  0
 12 15  2  0  0  0  0
 13 10  1  0  0  0  0
 14 18  1  0  0  0  0
 14  9  2  0  0  0  0
 15  5  1  0  0  0  0
 15 31  1  0  0  0  0
 16 13  1  0  0  0  0
 18  6  2  0  0  0  0
 19 20  1  6  0  0  0
 19 21  1  0  0  0  0
 21 20  1  6  0  0  0
 21  1  1  0  0  0  0
 22 24  1  6  0  0  0
 22 29  1  0  0  0  0
 22 27  1  0  0  0  0
 26 28  1  0  0  0  0
 26 22  1  0  0  0  0
 27 25  1  6  0  0  0
 27 19  1  0  0  0  0
 28 23  1  6  0  0  0
 28 25  1  0  0  0  0
 30 29  1  0  0  0  0
 32 31  1  0  0  0  0
M  END
>  <MODEL>
8

>  <REMARK>
 VINA RESULT:      -8.1      1.871      4.648
  Name = 
  4 active torsions:
  status: ('A' for Active; 'I' for Inactive)
    1  A    between atoms: C_1  and  C_27
    2  A    between atoms: C_3  and  C_22
    3  A    between atoms: C_13  and  C_29
    4  A    between atoms: C_16  and  C_20
                            x       y       z     vdW  Elec       q    Type
                         _______ _______ _______ _____ _____    ______ ____

>  <TORSDO>
F 4

$$$$
=
 OpenBabel10272413133D

 32 37  0  0  1  0  0  0  0  0999 V2000
  183.9780  179.1660  138.9810 C   0  0  1  0  0  3  0  0  0  0  0  0
  184.1660  178.6930  141.5320 C   0  0  0  0  0  0  0  0  0  0  0  0
  182.9360  179.2890  137.8550 C   0  0  0  0  0  2  0  0  0  0  0  0
  183.3820  179.0010  140.3850 C   0  0  0  0  0  0  0  0  0  0  0  0
  183.5410  178.5580  142.8030 C   0  0  0  0  0  0  0  0  0  0  0  0
  188.4570  177.7140  143.5910 C   0  0  0  0  0  3  0  0  0  0  0  0
  185.5570  178.5210  141.4450 C   0  0  0  0  0  3  0  0  0  0  0  0
  186.4560  177.7530  144.9530 C   0  0  0  0  0  3  0  0  0  0  0  0
  185.6930  178.0680  143.8240 C   0  0  0  0  0  0  0  0  0  0  0  0
  182.0060  179.2800  140.5700 C   0  0  0  0  0  0  0  0  0  0  0  0
  184.3160  178.2460  143.9330 C   0  0  0  0  0  3  0  0  0  0  0  0
  181.4080  179.1370  141.8200 C   0  0  0  0  0  3  0  0  0  0  0  0
  181.2070  179.7510  139.4830 N   0  0  0  0  0  2  0  0  0  0  0  0
  186.3200  178.2120  142.5700 C   0  0  0  0  0  0  0  0  0  0  0  0
  182.1560  178.7660  142.9340 C   0  0  0  0  0  0  0  0  0  0  0  0
  181.8220  180.2330  138.2560 C   0  0  0  0  0  2  0  0  0  0  0  0
  187.8360  177.5770  144.8360 C   0  0  0  0  0  3  0  0  0  0  0  0
  187.7010  178.0320  142.4570 C   0  0  0  0  0  3  0  0  0  0  0  0
  184.9390  177.0400  137.7520 C   0  0  1  0  0  3  0  0  0  0  0  0
  185.4450  178.2530  137.2370 O   0  0  0  0  0  0  0  0  0  0  0  0
  185.1730  178.2410  138.6210 C   0  0  1  0  0  3  0  0  0  0  0  0
  182.8700  175.5080  137.8360 C   0  0  2  0  0  0  0  0  0  0  0  0
  182.3280  174.9030  134.5740 O   0  0  0  0  0  1  0  0  0  0  0  0
  183.8980  174.3900  137.9990 C   0  0  0  0  0  1  0  0  0  0  0  0
  183.3680  176.6510  135.8060 C   0  0  0  0  0  2  0  0  0  0  0  0
  181.8770  175.0690  136.8580 N   0  0  0  0  0  2  0  0  0  0  0  0
  183.4870  176.8030  137.2970 C   0  0  2  0  0  3  0  0  0  0  0  0
  182.1300  175.8020  135.6210 C   0  0  2  0  0  3  0  0  0  0  0  0
  182.2090  175.7490  139.1880 C   0  0  0  0  0  2  0  0  0  0  0  0
  180.9390  176.3100  139.0320 O   0  0  0  0  0  1  0  0  0  0  0  0
  181.4460  178.5960  144.2390 C   0  0  0  0  0  2  0  0  0  0  0  0
  179.9830  178.9650  144.0910 C   0  0  0  0  0  1  0  0  0  0  0  0
  1  3  1  6  0  0  0
  1  4  1  0  0  0  0
  2  5  1  0  0  0  0
  3 16  1  0  0  0  0
  4 10  2  0  0  0  0
  4  2  1  0  0  0  0
  5 15  1  0  0  0  0
  5 11  2  0  0  0  0
  6 17  1  0  0  0  0
  7  2  2  0  0  0  0
  7 14  1  0  0  0  0
  9 11  1  0  0  0  0
  9  8  1  0  0  0  0
 10 12  1  0  0  0  0
 12 15  2  0  0  0  0
 13 10  1  0  0  0  0
 14  9  2  0  0  0  0
 15 31  1  0  0  0  0
 16 13  1  0  0  0  0
 17  8  2  0  0  0  0
 18 14  1  0  0  0  0
 18  6  2  0  0  0  0
 19 20  1  6  0  0  0
 19 21  1  0  0  0  0
 21 20  1  6  0  0  0
 21  1  1  0  0  0  0
 22 24  1  1  0  0  0
 22 29  1  0  0  0  0
 26 22  1  0  0  0  0
 27 25  1  6  0  0  0
 27 19  1  0  0  0  0
 27 22  1  0  0  0  0
 28 23  1  6  0  0  0
 28 25  1  0  0  0  0
 28 26  1  0  0  0  0
 30 29  1  0  0  0  0
 32 31  1  0  0  0  0
M  END
>  <MODEL>
9

>  <REMARK>
 VINA RESULT:      -7.4      3.751      6.486
  Name = 
  4 active torsions:
  status: ('A' for Active; 'I' for Inactive)
    1  A    between atoms: C_1  and  C_27
    2  A    between atoms: C_3  and  C_22
    3  A    between atoms: C_13  and  C_29
    4  A    between atoms: C_16  and  C_20
                            x       y       z     vdW  Elec       q    Type
                         _______ _______ _______ _____ _____    ______ ____

>  <TORSDO>
F 4

$$$$
