=
 OpenBabel10272413103D

 32 36  0  0  1  0  0  0  0  0999 V2000
  187.1040  177.4690  143.4170 C   0  0  2  0  0  3  0  0  0  0  0  0
  189.3910  177.7420  142.3370 C   0  0  1  0  0  3  0  0  0  0  0  0
  186.2190  177.8750  144.5990 C   0  0  0  0  0  2  0  0  0  0  0  0
  188.5250  178.0360  143.5880 C   0  0  2  0  0  3  0  0  0  0  0  0
  190.1360  176.4090  142.4600 C   0  0  0  0  0  2  0  0  0  0  0  0
  188.5630  177.7860  141.0400 C   0  0  1  0  0  3  0  0  0  0  0  0
  191.4290  176.5260  143.2800 C   0  0  2  0  0  3  0  0  0  0  0  0
  189.1320  177.5270  144.9160 C   0  0  1  0  0  3  0  0  0  0  0  0
  190.5480  178.0360  145.2070 C   0  0  0  0  0  2  0  0  0  0  0  0
  188.2300  177.9060  146.0890 C   0  0  0  0  0  2  0  0  0  0  0  0
  187.4020  178.5550  141.2270 O   0  0  0  0  0  0  0  0  0  0  0  0
  191.6230  175.3000  144.1530 C   0  0  0  0  0  1  0  0  0  0  0  0
  186.5270  177.7710  142.0050 C   0  0  2  0  0  3  0  0  0  0  0  0
  191.5750  177.8290  144.0850 C   0  0  0  0  0  2  0  0  0  0  0  0
  186.8240  177.3480  145.8950 C   0  0  0  0  0  2  0  0  0  0  0  0
  182.9760  178.7790  140.7080 C   0  0  0  0  0  0  0  0  0  0  0  0
  182.2440  178.7330  139.5280 O   0  0  0  0  0  1  0  0  0  0  0  0
  185.1330  178.3370  141.9810 C   0  0  0  0  0  0  0  0  0  0  0  0
  182.3610  179.0670  141.8560 C   0  0  0  0  0  3  0  0  0  0  0  0
  184.4960  178.6120  143.1260 C   0  0  0  0  0  3  0  0  0  0  0  0
  184.4180  178.4810  140.6980 C   0  0  0  0  0  0  0  0  0  0  0  0
  185.0200  178.3040  139.6060 O   0  0  0  0  0  0  0  0  0  0  0  0
  183.1090  179.2030  143.1610 C   0  0  2  0  0  3  0  0  0  0  0  0
  181.0060  178.5050  144.2280 C   0  0  0  0  0  2  0  0  0  0  0  0
  182.3320  178.6100  144.2900 C   0  0  0  0  0  3  0  0  0  0  0  0
  189.3760  178.3890  139.9020 C   0  0  0  0  0  2  0  0  0  0  0  0
  188.5030  176.6540  138.2040 C   0  0  0  0  0  3  0  0  0  0  0  0
  188.2790  177.9110  136.4750 O   0  0  0  0  0  0  0  0  0  0  0  0
  188.7120  178.6850  137.4330 C   0  0  0  0  0  0  0  0  0  0  0  0
  188.9440  179.9160  137.3090 O   0  0  0  0  0  0  0  0  0  0  0  0
  188.8710  177.9360  138.5710 C   0  0  0  0  0  0  0  0  0  0  0  0
  188.1550  176.7120  136.9310 O   0  0  0  0  0  0  0  0  0  0  0  0
  1  4  1  0  0  0  0
  1  3  1  1  0  0  0
  2  5  1  1  0  0  0
  2  4  1  0  0  0  0
  3 15  1  0  0  0  0
  4  8  1  0  0  0  0
  5  7  1  0  0  0  0
  6 11  1  0  0  0  0
  6  2  1  0  0  0  0
  7 14  1  0  0  0  0
  7 12  1  0  0  0  0
  8  9  1  0  0  0  0
  8 10  1  0  0  0  0
 11 13  1  0  0  0  0
 13  1  1  0  0  0  0
 14  9  1  0  0  0  0
 15 10  1  0  0  0  0
 16 19  2  0  0  0  0
 17 16  1  0  0  0  0
 18 13  1  0  0  0  0
 18 20  2  0  0  0  0
 19 23  1  0  0  0  0
 20 23  1  0  0  0  0
 21 16  1  0  0  0  0
 21 18  1  0  0  0  0
 22 21  2  0  0  0  0
 23 25  1  0  0  0  0
 24 25  2  0  0  0  0
 26  6  1  0  0  0  0
 27 31  2  0  0  0  0
 28 32  1  0  0  0  0
 28 29  1  0  0  0  0
 29 31  1  0  0  0  0
 30 29  2  0  0  0  0
 31 26  1  0  0  0  0
 32 27  1  0  0  0  0
M  END
>  <MODEL>
1

>  <REMARK>
 VINA RESULT:      -9.9      0.000      0.000
  Name = 
  4 active torsions:
  status: ('A' for Active; 'I' for Inactive)
    1  A    between atoms: C_10  and  C_32
    2  A    between atoms: C_15  and  C_26
    3  A    between atoms: C_16  and  C_27
    4  A    between atoms: C_28  and  C_32
                            x       y       z     vdW  Elec       q    Type
                         _______ _______ _______ _____ _____    ______ ____

>  <TORSDO>
F 4

$$$$
=
 OpenBabel10272413103D

 32 36  0  0  1  0  0  0  0  0999 V2000
  186.9710  178.3840  142.1810 C   0  0  2  0  0  3  0  0  0  0  0  0
  188.3180  177.3040  144.0490 C   0  0  1  0  0  3  0  0  0  0  0  0
  186.5930  178.3010  140.6990 C   0  0  0  0  0  2  0  0  0  0  0  0
  188.0260  177.3170  142.5280 C   0  0  2  0  0  3  0  0  0  0  0  0
  189.4630  178.2530  144.4170 C   0  0  0  0  0  2  0  0  0  0  0  0
  187.0610  177.6190  144.8810 C   0  0  1  0  0  3  0  0  0  0  0  0
  190.8470  177.6290  144.1850 C   0  0  2  0  0  3  0  0  0  0  0  0
  189.2770  177.5140  141.6410 C   0  0  1  0  0  3  0  0  0  0  0  0
  190.3980  176.4990  141.8860 C   0  0  0  0  0  2  0  0  0  0  0  0
  188.8910  177.4650  140.1640 C   0  0  0  0  0  2  0  0  0  0  0  0
  185.9010  177.3400  144.1380 O   0  0  0  0  0  0  0  0  0  0  0  0
  191.8150  178.6610  143.6370 C   0  0  0  0  0  1  0  0  0  0  0  0
  185.7820  178.3690  143.1830 C   0  0  2  0  0  3  0  0  0  0  0  0
  190.8490  176.3410  143.3450 C   0  0  0  0  0  2  0  0  0  0  0  0
  187.8350  178.5180  139.8420 C   0  0  0  0  0  2  0  0  0  0  0  0
  182.0040  179.1940  142.5880 C   0  0  0  0  0  0  0  0  0  0  0  0
  180.9840  179.9110  143.2000 O   0  0  0  0  0  1  0  0  0  0  0  0
  184.4110  178.3710  142.5650 C   0  0  0  0  0  0  0  0  0  0  0  0
  181.8420  178.7470  141.3420 C   0  0  0  0  0  3  0  0  0  0  0  0
  184.2370  177.9440  141.3070 C   0  0  0  0  0  3  0  0  0  0  0  0
  183.2710  178.9540  143.2990 C   0  0  0  0  0  0  0  0  0  0  0  0
  183.3920  179.2900  144.5070 O   0  0  0  0  0  0  0  0  0  0  0  0
  182.8830  177.9020  140.6450 C   0  0  2  0  0  3  0  0  0  0  0  0
  183.6250  179.4040  138.8460 C   0  0  0  0  0  2  0  0  0  0  0  0
  183.0080  178.2810  139.2060 C   0  0  0  0  0  3  0  0  0  0  0  0
  187.0390  176.7930  146.1600 C   0  0  0  0  0  2  0  0  0  0  0  0
  187.3380  178.5390  148.0350 C   0  0  0  0  0  3  0  0  0  0  0  0
  189.3360  178.0620  148.6680 O   0  0  0  0  0  0  0  0  0  0  0  0
  189.0480  177.2240  147.7090 C   0  0  0  0  0  0  0  0  0  0  0  0
  189.8300  176.3380  147.2760 O   0  0  0  0  0  0  0  0  0  0  0  0
  187.7760  177.4770  147.2640 C   0  0  0  0  0  0  0  0  0  0  0  0
  188.3250  178.8380  148.8600 O   0  0  0  0  0  0  0  0  0  0  0  0
  1  3  1  6  0  0  0
  1  4  1  0  0  0  0
  1 13  1  0  0  0  0
  2  5  1  6  0  0  0
  2  6  1  0  0  0  0
  4  2  1  0  0  0  0
  6 26  1  0  0  0  0
  7  5  1  0  0  0  0
  8  9  1  0  0  0  0
  8  4  1  0  0  0  0
  9 14  1  0  0  0  0
 10  8  1  0  0  0  0
 11  6  1  0  0  0  0
 12  7  1  0  0  0  0
 13 11  1  0  0  0  0
 14  7  1  0  0  0  0
 15 10  1  0  0  0  0
 15  3  1  0  0  0  0
 16 17  1  0  0  0  0
 16 21  1  0  0  0  0
 18 13  1  0  0  0  0
 18 21  1  0  0  0  0
 19 16  2  0  0  0  0
 20 18  2  0  0  0  0
 21 22  2  0  0  0  0
 23 20  1  0  0  0  0
 23 19  1  0  0  0  0
 24 25  2  0  0  0  0
 25 23  1  0  0  0  0
 26 31  1  0  0  0  0
 27 32  1  0  0  0  0
 28 32  1  0  0  0  0
 29 28  1  0  0  0  0
 30 29  2  0  0  0  0
 31 29  1  0  0  0  0
 31 27  2  0  0  0  0
M  END
>  <MODEL>
2

>  <REMARK>
 VINA RESULT:      -9.6      2.925      5.745
  Name = 
  4 active torsions:
  status: ('A' for Active; 'I' for Inactive)
    1  A    between atoms: C_10  and  C_32
    2  A    between atoms: C_15  and  C_26
    3  A    between atoms: C_16  and  C_27
    4  A    between atoms: C_28  and  C_32
                            x       y       z     vdW  Elec       q    Type
                         _______ _______ _______ _____ _____    ______ ____

>  <TORSDO>
F 4

$$$$
=
 OpenBabel10272413103D

 32 36  0  0  1  0  0  0  0  0999 V2000
  189.6330  177.8880  143.6370 C   0  0  2  0  0  3  0  0  0  0  0  0
  187.7880  177.3600  145.3060 C   0  0  1  0  0  3  0  0  0  0  0  0
  191.0000  177.4520  143.1000 C   0  0  0  0  0  2  0  0  0  0  0  0
  189.2240  177.0150  144.8380 C   0  0  2  0  0  3  0  0  0  0  0  0
  187.7860  178.4590  146.3740 C   0  0  0  0  0  2  0  0  0  0  0  0
  186.8730  177.7420  144.1280 C   0  0  1  0  0  3  0  0  0  0  0  0
  188.0740  177.9180  147.7820 C   0  0  2  0  0  3  0  0  0  0  0  0
  190.2970  177.1180  145.9470 C   0  0  1  0  0  3  0  0  0  0  0  0
  190.0070  176.2790  147.1950 C   0  0  0  0  0  2  0  0  0  0  0  0
  191.6650  176.7140  145.3980 C   0  0  0  0  0  2  0  0  0  0  0  0
  187.3750  177.2110  142.9280 O   0  0  0  0  0  0  0  0  0  0  0  0
  188.9510  178.8830  148.5570 C   0  0  0  0  0  1  0  0  0  0  0  0
  188.4950  177.9930  142.5830 C   0  0  2  0  0  3  0  0  0  0  0  0
  188.6230  176.4830  147.8290 C   0  0  0  0  0  2  0  0  0  0  0  0
  192.0470  177.5790  144.2010 C   0  0  0  0  0  2  0  0  0  0  0  0
  188.6660  178.2990  138.6870 C   0  0  0  0  0  0  0  0  0  0  0  0
  188.0330  178.9970  137.6660 O   0  0  0  0  0  1  0  0  0  0  0  0
  188.9050  177.7440  141.1570 C   0  0  0  0  0  0  0  0  0  0  0  0
  189.7920  177.6320  138.4310 C   0  0  0  0  0  3  0  0  0  0  0  0
  190.0430  177.0930  140.8860 C   0  0  0  0  0  3  0  0  0  0  0  0
  188.1150  178.3200  140.0520 C   0  0  0  0  0  0  0  0  0  0  0  0
  187.0030  178.8670  140.2770 O   0  0  0  0  0  0  0  0  0  0  0  0
  190.4910  176.7950  139.4770 C   0  0  2  0  0  3  0  0  0  0  0  0
  192.6240  176.5490  138.2780 C   0  0  0  0  0  2  0  0  0  0  0  0
  191.9740  176.9350  139.3740 C   0  0  0  0  0  3  0  0  0  0  0  0
  185.4610  177.2170  144.3490 C   0  0  0  0  0  2  0  0  0  0  0  0
  184.0820  178.4670  142.5640 C   0  0  0  0  0  3  0  0  0  0  0  0
  182.9190  179.7560  143.8310 O   0  0  0  0  0  0  0  0  0  0  0  0
  183.6690  179.0430  144.6270 C   0  0  0  0  0  0  0  0  0  0  0  0
  183.6740  179.1400  145.8820 O   0  0  0  0  0  0  0  0  0  0  0  0
  184.4350  178.1920  143.8720 C   0  0  0  0  0  0  0  0  0  0  0  0
  183.1630  179.4150  142.6120 O   0  0  0  0  0  0  0  0  0  0  0  0
  1  3  1  6  0  0  0
  1  4  1  0  0  0  0
  2  5  1  1  0  0  0
  3 15  1  0  0  0  0
  4  2  1  0  0  0  0
  4  8  1  0  0  0  0
  5  7  1  0  0  0  0
  6 26  1  0  0  0  0
  6  2  1  0  0  0  0
  7 14  1  0  0  0  0
  7 12  1  0  0  0  0
  8  9  1  0  0  0  0
  9 14  1  0  0  0  0
 10  8  1  0  0  0  0
 11  6  1  0  0  0  0
 13 11  1  0  0  0  0
 13  1  1  0  0  0  0
 15 10  1  0  0  0  0
 16 21  1  0  0  0  0
 17 16  1  0  0  0  0
 18 13  1  0  0  0  0
 19 16  2  0  0  0  0
 19 23  1  0  0  0  0
 20 18  2  0  0  0  0
 21 22  2  0  0  0  0
 21 18  1  0  0  0  0
 23 20  1  0  0  0  0
 24 25  2  0  0  0  0
 25 23  1  0  0  0  0
 27 32  1  0  0  0  0
 27 31  2  0  0  0  0
 28 29  1  0  0  0  0
 29 30  2  0  0  0  0
 31 26  1  0  0  0  0
 31 29  1  0  0  0  0
 32 28  1  0  0  0  0
M  END
>  <MODEL>
3

>  <REMARK>
 VINA RESULT:      -9.5      2.141      6.332
  Name = 
  4 active torsions:
  status: ('A' for Active; 'I' for Inactive)
    1  A    between atoms: C_10  and  C_32
    2  A    between atoms: C_15  and  C_26
    3  A    between atoms: C_16  and  C_27
    4  A    between atoms: C_28  and  C_32
                            x       y       z     vdW  Elec       q    Type
                         _______ _______ _______ _____ _____    ______ ____

>  <TORSDO>
F 4

$$$$
=
 OpenBabel10272413103D

 32 36  0  0  1  0  0  0  0  0999 V2000
  184.8890  179.0200  141.7820 C   0  0  2  0  0  3  0  0  0  0  0  0
  184.1450  178.6940  139.3720 C   0  0  1  0  0  3  0  0  0  0  0  0
  184.6130  178.6440  143.2420 C   0  0  0  0  0  2  0  0  0  0  0  0
  183.8050  178.4320  140.8610 C   0  0  2  0  0  3  0  0  0  0  0  0
  183.5500  180.0170  138.8770 C   0  0  0  0  0  2  0  0  0  0  0  0
  185.6610  178.6450  139.1090 C   0  0  1  0  0  3  0  0  0  0  0  0
  182.0730  179.8900  138.4780 C   0  0  2  0  0  3  0  0  0  0  0  0
  182.4150  178.9490  141.2970 C   0  0  1  0  0  3  0  0  0  0  0  0
  181.2460  178.4210  140.4590 C   0  0  0  0  0  2  0  0  0  0  0  0
  182.1570  178.6020  142.7620 C   0  0  0  0  0  2  0  0  0  0  0  0
  186.3060  177.8990  140.1100 O   0  0  0  0  0  0  0  0  0  0  0  0
  181.2970  181.1250  138.8970 C   0  0  0  0  0  1  0  0  0  0  0  0
  186.3210  178.7080  141.2630 C   0  0  2  0  0  3  0  0  0  0  0  0
  181.3810  178.5960  138.9400 C   0  0  0  0  0  2  0  0  0  0  0  0
  183.2480  179.1800  143.6580 C   0  0  0  0  0  2  0  0  0  0  0  0
  189.6730  177.8220  143.0760 C   0  0  0  0  0  0  0  0  0  0  0  0
  191.0400  177.9410  142.8600 O   0  0  0  0  0  1  0  0  0  0  0  0
  187.2790  178.1640  142.2880 C   0  0  0  0  0  0  0  0  0  0  0  0
  189.2230  177.4820  144.2850 C   0  0  0  0  0  3  0  0  0  0  0  0
  186.8450  177.8360  143.5120 C   0  0  0  0  0  3  0  0  0  0  0  0
  188.7220  178.0990  141.9860 C   0  0  0  0  0  0  0  0  0  0  0  0
  189.1440  178.3260  140.8220 O   0  0  0  0  0  0  0  0  0  0  0  0
  187.7550  177.2650  144.5690 C   0  0  2  0  0  3  0  0  0  0  0  0
  186.1180  177.7840  146.3290 C   0  0  0  0  0  2  0  0  0  0  0  0
  187.3820  177.8070  145.9100 C   0  0  0  0  0  3  0  0  0  0  0  0
  185.9530  178.0140  137.7550 C   0  0  0  0  0  2  0  0  0  0  0  0
  187.9540  176.3870  137.7120 C   0  0  0  0  0  3  0  0  0  0  0  0
  189.5590  177.7840  137.4030 O   0  0  0  0  0  0  0  0  0  0  0  0
  188.4620  178.4910  137.4320 C   0  0  0  0  0  0  0  0  0  0  0  0
  188.4130  179.7420  137.3070 O   0  0  0  0  0  0  0  0  0  0  0  0
  187.3960  177.6490  137.6230 C   0  0  0  0  0  0  0  0  0  0  0  0
  189.2580  176.5410  137.5680 O   0  0  0  0  0  0  0  0  0  0  0  0
  1  3  1  1  0  0  0
  2  5  1  1  0  0  0
  2  4  1  0  0  0  0
  3 15  1  0  0  0  0
  4  8  1  0  0  0  0
  4  1  1  0  0  0  0
  6  2  1  0  0  0  0
  6 11  1  0  0  0  0
  7  5  1  0  0  0  0
  7 12  1  0  0  0  0
  7 14  1  0  0  0  0
  8 10  1  0  0  0  0
  9  8  1  0  0  0  0
 10 15  1  0  0  0  0
 11 13  1  0  0  0  0
 13  1  1  0  0  0  0
 13 18  1  0  0  0  0
 14  9  1  0  0  0  0
 16 19  2  0  0  0  0
 17 16  1  0  0  0  0
 18 20  2  0  0  0  0
 19 23  1  0  0  0  0
 20 23  1  0  0  0  0
 21 18  1  0  0  0  0
 21 16  1  0  0  0  0
 22 21  2  0  0  0  0
 23 25  1  0  0  0  0
 25 24  2  0  0  0  0
 26  6  1  0  0  0  0
 28 29  1  0  0  0  0
 28 32  1  0  0  0  0
 29 31  1  0  0  0  0
 30 29  2  0  0  0  0
 31 27  2  0  0  0  0
 31 26  1  0  0  0  0
 32 27  1  0  0  0  0
M  END
>  <MODEL>
4

>  <REMARK>
 VINA RESULT:      -9.3      1.642      6.089
  Name = 
  4 active torsions:
  status: ('A' for Active; 'I' for Inactive)
    1  A    between atoms: C_10  and  C_32
    2  A    between atoms: C_15  and  C_26
    3  A    between atoms: C_16  and  C_27
    4  A    between atoms: C_28  and  C_32
                            x       y       z     vdW  Elec       q    Type
                         _______ _______ _______ _____ _____    ______ ____

>  <TORSDO>
F 4

$$$$
=
 OpenBabel10272413103D

 32 36  0  0  1  0  0  0  0  0999 V2000
  188.0320  177.2450  144.3450 C   0  0  2  0  0  3  0  0  0  0  0  0
  190.5730  177.2800  144.2420 C   0  0  1  0  0  3  0  0  0  0  0  0
  186.7990  177.7820  145.0790 C   0  0  0  0  0  2  0  0  0  0  0  0
  189.3200  177.7070  145.0490 C   0  0  2  0  0  3  0  0  0  0  0  0
  191.0840  175.9010  144.6720 C   0  0  0  0  0  2  0  0  0  0  0  0
  190.3220  177.3200  142.7240 C   0  0  1  0  0  3  0  0  0  0  0  0
  191.9610  175.9600  145.9310 C   0  0  2  0  0  3  0  0  0  0  0  0
  189.3140  177.2240  146.5170 C   0  0  1  0  0  3  0  0  0  0  0  0
  190.5460  177.6350  147.3300 C   0  0  0  0  0  2  0  0  0  0  0  0
  188.0660  177.7340  147.2360 C   0  0  0  0  0  2  0  0  0  0  0  0
  189.2560  178.1860  142.4270 O   0  0  0  0  0  0  0  0  0  0  0  0
  191.6860  174.7710  146.8320 C   0  0  0  0  0  1  0  0  0  0  0  0
  188.0790  177.5160  142.8140 C   0  0  2  0  0  3  0  0  0  0  0  0
  191.9040  177.2880  146.7040 C   0  0  0  0  0  2  0  0  0  0  0  0
  186.8000  177.2790  146.5170 C   0  0  0  0  0  2  0  0  0  0  0  0
  185.4780  178.8210  140.1980 C   0  0  0  0  0  0  0  0  0  0  0  0
  185.3130  178.8560  138.8200 O   0  0  0  0  0  1  0  0  0  0  0  0
  186.8630  178.1880  142.2360 C   0  0  0  0  0  0  0  0  0  0  0  0
  184.4540  179.1300  140.9950 C   0  0  0  0  0  3  0  0  0  0  0  0
  185.8200  178.4870  143.0200 C   0  0  0  0  0  3  0  0  0  0  0  0
  186.7680  178.4130  140.7810 C   0  0  0  0  0  0  0  0  0  0  0  0
  187.7630  178.2140  140.0360 O   0  0  0  0  0  0  0  0  0  0  0  0
  184.5870  179.1810  142.4990 C   0  0  2  0  0  3  0  0  0  0  0  0
  183.1700  178.7880  144.4710 C   0  0  0  0  0  2  0  0  0  0  0  0
  183.3700  178.6260  143.1650 C   0  0  0  0  0  3  0  0  0  0  0  0
  191.5660  177.7960  141.9840 C   0  0  0  0  0  2  0  0  0  0  0  0
  190.5910  176.6370  139.8960 C   0  0  0  0  0  3  0  0  0  0  0  0
  192.3280  176.6340  138.6310 O   0  0  0  0  0  0  0  0  0  0  0  0
  192.6880  177.2180  139.7420 C   0  0  0  0  0  0  0  0  0  0  0  0
  193.8420  177.6630  139.9740 O   0  0  0  0  0  0  0  0  0  0  0  0
  191.6140  177.2540  140.5930 C   0  0  0  0  0  0  0  0  0  0  0  0
  191.0890  176.2920  138.7230 O   0  0  0  0  0  0  0  0  0  0  0  0
  1  4  1  0  0  0  0
  1  3  1  1  0  0  0
  2  5  1  1  0  0  0
  2  4  1  0  0  0  0
  3 15  1  0  0  0  0
  4  8  1  0  0  0  0
  5  7  1  0  0  0  0
  6  2  1  0  0  0  0
  7 14  1  0  0  0  0
  7 12  1  0  0  0  0
  8 10  1  0  0  0  0
  8  9  1  0  0  0  0
 11  6  1  0  0  0  0
 11 13  1  0  0  0  0
 13  1  1  0  0  0  0
 14  9  1  0  0  0  0
 15 10  1  0  0  0  0
 16 21  1  0  0  0  0
 16 19  2  0  0  0  0
 17 16  1  0  0  0  0
 18 13  1  0  0  0  0
 18 20  2  0  0  0  0
 19 23  1  0  0  0  0
 21 18  1  0  0  0  0
 22 21  2  0  0  0  0
 23 20  1  0  0  0  0
 23 25  1  0  0  0  0
 25 24  2  0  0  0  0
 26  6  1  0  0  0  0
 27 31  2  0  0  0  0
 28 32  1  0  0  0  0
 28 29  1  0  0  0  0
 29 30  2  0  0  0  0
 29 31  1  0  0  0  0
 31 26  1  0  0  0  0
 32 27  1  0  0  0  0
M  END
>  <MODEL>
5

>  <REMARK>
 VINA RESULT:      -9.2      2.099      2.708
  Name = 
  4 active torsions:
  status: ('A' for Active; 'I' for Inactive)
    1  A    between atoms: C_10  and  C_32
    2  A    between atoms: C_15  and  C_26
    3  A    between atoms: C_16  and  C_27
    4  A    between atoms: C_28  and  C_32
                            x       y       z     vdW  Elec       q    Type
                         _______ _______ _______ _____ _____    ______ ____

>  <TORSDO>
F 4

$$$$
=
 OpenBabel10272413103D

 32 36  0  0  1  0  0  0  0  0999 V2000
  186.6620  178.6690  141.2680 C   0  0  2  0  0  3  0  0  0  0  0  0
  188.6210  177.5230  140.1200 C   0  0  1  0  0  3  0  0  0  0  0  0
  185.1350  178.7560  141.3530 C   0  0  0  0  0  2  0  0  0  0  0  0
  187.0840  177.7200  140.1310 C   0  0  2  0  0  3  0  0  0  0  0  0
  189.3220  178.5560  139.2330 C   0  0  0  0  0  2  0  0  0  0  0  0
  189.2140  177.5320  141.5410 C   0  0  1  0  0  3  0  0  0  0  0  0
  189.3000  178.1730  137.7460 C   0  0  2  0  0  3  0  0  0  0  0  0
  186.4970  178.2190  138.7910 C   0  0  1  0  0  3  0  0  0  0  0  0
  186.8390  177.3450  137.5790 C   0  0  0  0  0  2  0  0  0  0  0  0
  184.9770  178.3360  138.8900 C   0  0  0  0  0  2  0  0  0  0  0  0
  188.2250  177.2070  142.4850 O   0  0  0  0  0  0  0  0  0  0  0  0
  189.0850  179.4000  136.8790 C   0  0  0  0  0  1  0  0  0  0  0  0
  187.3950  178.3410  142.5990 C   0  0  2  0  0  3  0  0  0  0  0  0
  188.3300  177.0370  137.3790 C   0  0  0  0  0  2  0  0  0  0  0  0
  184.5770  179.2690  140.0300 C   0  0  0  0  0  2  0  0  0  0  0  0
  186.2710  178.3520  146.3460 C   0  0  0  0  0  0  0  0  0  0  0  0
  186.8410  178.4810  147.6060 O   0  0  0  0  0  1  0  0  0  0  0  0
  186.5180  178.2440  143.8170 C   0  0  0  0  0  0  0  0  0  0  0  0
  184.9460  178.4150  146.2110 C   0  0  0  0  0  3  0  0  0  0  0  0
  185.1860  178.3250  143.6990 C   0  0  0  0  0  3  0  0  0  0  0  0
  187.1260  178.1770  145.1600 C   0  0  0  0  0  0  0  0  0  0  0  0
  188.3680  178.0200  145.2930 O   0  0  0  0  0  0  0  0  0  0  0  0
  184.2590  178.2110  144.8810 C   0  0  2  0  0  3  0  0  0  0  0  0
  182.2860  179.0540  143.6790 C   0  0  0  0  0  2  0  0  0  0  0  0
  183.1100  179.1510  144.7200 C   0  0  0  0  0  3  0  0  0  0  0  0
  190.3550  176.5310  141.6560 C   0  0  0  0  0  2  0  0  0  0  0  0
  191.2390  175.5120  143.8550 C   0  0  0  0  0  3  0  0  0  0  0  0
  191.8730  177.3030  144.8610 O   0  0  0  0  0  0  0  0  0  0  0  0
  191.4060  177.6830  143.7030 C   0  0  0  0  0  0  0  0  0  0  0  0
  191.3540  178.8770  143.3100 O   0  0  0  0  0  0  0  0  0  0  0  0
  190.9880  176.5770  143.0080 C   0  0  0  0  0  0  0  0  0  0  0  0
  191.7750  176.0210  144.9500 O   0  0  0  0  0  0  0  0  0  0  0  0
  1  3  1  1  0  0  0
  1 13  1  0  0  0  0
  2  5  1  6  0  0  0
  2  4  1  0  0  0  0
  2  6  1  0  0  0  0
  4  1  1  0  0  0  0
  6 26  1  0  0  0  0
  6 11  1  0  0  0  0
  7  5  1  0  0  0  0
  8 10  1  0  0  0  0
  8  4  1  0  0  0  0
  9  8  1  0  0  0  0
 10 15  1  0  0  0  0
 11 13  1  0  0  0  0
 12  7  1  0  0  0  0
 13 18  1  0  0  0  0
 14  9  1  0  0  0  0
 14  7  1  0  0  0  0
 15  3  1  0  0  0  0
 16 17  1  0  0  0  0
 18 21  1  0  0  0  0
 19 16  2  0  0  0  0
 20 18  2  0  0  0  0
 20 23  1  0  0  0  0
 21 22  2  0  0  0  0
 21 16  1  0  0  0  0
 23 19  1  0  0  0  0
 24 25  2  0  0  0  0
 25 23  1  0  0  0  0
 26 31  1  0  0  0  0
 27 32  1  0  0  0  0
 28 32  1  0  0  0  0
 29 28  1  0  0  0  0
 30 29  2  0  0  0  0
 31 29  1  0  0  0  0
 31 27  2  0  0  0  0
M  END
>  <MODEL>
6

>  <REMARK>
 VINA RESULT:      -9.2      2.553      5.648
  Name = 
  4 active torsions:
  status: ('A' for Active; 'I' for Inactive)
    1  A    between atoms: C_10  and  C_32
    2  A    between atoms: C_15  and  C_26
    3  A    between atoms: C_16  and  C_27
    4  A    between atoms: C_28  and  C_32
                            x       y       z     vdW  Elec       q    Type
                         _______ _______ _______ _____ _____    ______ ____

>  <TORSDO>
F 4

$$$$
=
 OpenBabel10272413103D

 32 36  0  0  1  0  0  0  0  0999 V2000
  183.7970  178.3120  141.8460 C   0  0  2  0  0  3  0  0  0  0  0  0
  186.1250  178.7410  142.7750 C   0  0  1  0  0  3  0  0  0  0  0  0
  182.3220  178.7220  141.9190 C   0  0  0  0  0  2  0  0  0  0  0  0
  184.6140  179.0480  142.9240 C   0  0  2  0  0  3  0  0  0  0  0  0
  186.5420  177.5170  143.5950 C   0  0  0  0  0  2  0  0  0  0  0  0
  186.5380  178.5760  141.3010 C   0  0  1  0  0  3  0  0  0  0  0  0
  186.7940  177.8510  145.0730 C   0  0  2  0  0  3  0  0  0  0  0  0
  184.0350  178.7320  144.3220 C   0  0  1  0  0  3  0  0  0  0  0  0
  184.7600  179.4200  145.4840 C   0  0  0  0  0  2  0  0  0  0  0  0
  182.5560  179.1110  144.3810 C   0  0  0  0  0  2  0  0  0  0  0  0
  185.6160  179.2240  140.4600 O   0  0  0  0  0  0  0  0  0  0  0  0
  186.2840  176.7380  145.9690 C   0  0  0  0  0  1  0  0  0  0  0  0
  184.4590  178.4200  140.4430 C   0  0  2  0  0  3  0  0  0  0  0  0
  186.2830  179.2290  145.5260 C   0  0  0  0  0  2  0  0  0  0  0  0
  181.7660  178.3840  143.2970 C   0  0  0  0  0  2  0  0  0  0  0  0
  181.9840  178.1530  137.4250 C   0  0  0  0  0  0  0  0  0  0  0  0
  181.4060  177.1690  136.6340 O   0  0  0  0  0  1  0  0  0  0  0  0
  183.5420  178.8220  139.3210 C   0  0  0  0  0  0  0  0  0  0  0  0
  181.5240  179.4040  137.3660 C   0  0  0  0  0  3  0  0  0  0  0  0
  183.0570  180.0690  139.2600 C   0  0  0  0  0  3  0  0  0  0  0  0
  183.0800  177.8130  138.3480 C   0  0  0  0  0  0  0  0  0  0  0  0
  183.5810  176.6580  138.3380 O   0  0  0  0  0  0  0  0  0  0  0  0
  182.1540  180.5340  138.1450 C   0  0  2  0  0  3  0  0  0  0  0  0
  180.2350  181.0440  139.5960 C   0  0  0  0  0  2  0  0  0  0  0  0
  181.1140  181.4590  138.6860 C   0  0  0  0  0  3  0  0  0  0  0  0
  187.9230  179.1610  141.0590 C   0  0  0  0  0  2  0  0  0  0  0  0
  189.3890  177.0490  140.8540 C   0  0  0  0  0  3  0  0  0  0  0  0
  190.0330  177.2440  138.8130 O   0  0  0  0  0  0  0  0  0  0  0  0
  189.2560  178.2660  139.0480 C   0  0  0  0  0  0  0  0  0  0  0  0
  188.9800  179.1630  138.2090 O   0  0  0  0  0  0  0  0  0  0  0  0
  188.8060  178.1940  140.3420 C   0  0  0  0  0  0  0  0  0  0  0  0
  190.1110  176.5250  139.8790 O   0  0  0  0  0  0  0  0  0  0  0  0
  1  3  1  6  0  0  0
  1  4  1  0  0  0  0
  2  4  1  0  0  0  0
  2  5  1  1  0  0  0
  3 15  1  0  0  0  0
  4  8  1  0  0  0  0
  5  7  1  0  0  0  0
  6  2  1  0  0  0  0
  7 14  1  0  0  0  0
  7 12  1  0  0  0  0
  8 10  1  0  0  0  0
  8  9  1  0  0  0  0
  9 14  1  0  0  0  0
 11  6  1  0  0  0  0
 13 11  1  0  0  0  0
 13  1  1  0  0  0  0
 15 10  1  0  0  0  0
 16 21  1  0  0  0  0
 17 16  1  0  0  0  0
 18 13  1  0  0  0  0
 19 16  2  0  0  0  0
 19 23  1  0  0  0  0
 20 18  2  0  0  0  0
 21 18  1  0  0  0  0
 22 21  2  0  0  0  0
 23 25  1  0  0  0  0
 23 20  1  0  0  0  0
 25 24  2  0  0  0  0
 26  6  1  0  0  0  0
 28 29  1  0  0  0  0
 28 32  1  0  0  0  0
 29 31  1  0  0  0  0
 30 29  2  0  0  0  0
 31 27  2  0  0  0  0
 31 26  1  0  0  0  0
 32 27  1  0  0  0  0
M  END
>  <MODEL>
7

>  <REMARK>
 VINA RESULT:      -8.8      2.096      4.143
  Name = 
  4 active torsions:
  status: ('A' for Active; 'I' for Inactive)
    1  A    between atoms: C_10  and  C_32
    2  A    between atoms: C_15  and  C_26
    3  A    between atoms: C_16  and  C_27
    4  A    between atoms: C_28  and  C_32
                            x       y       z     vdW  Elec       q    Type
                         _______ _______ _______ _____ _____    ______ ____

>  <TORSDO>
F 4

$$$$
=
 OpenBabel10272413103D

 32 36  0  0  1  0  0  0  0  0999 V2000
  188.3870  178.3160  142.9500 C   0  0  2  0  0  3  0  0  0  0  0  0
  186.0120  178.1010  143.8340 C   0  0  1  0  0  3  0  0  0  0  0  0
  189.8040  177.7340  143.0060 C   0  0  0  0  0  2  0  0  0  0  0  0
  187.4760  177.6130  143.9720 C   0  0  2  0  0  3  0  0  0  0  0  0
  185.7280  179.3120  144.7290 C   0  0  0  0  0  2  0  0  0  0  0  0
  185.6420  178.4070  142.3710 C   0  0  1  0  0  3  0  0  0  0  0  0
  185.4190  178.9160  146.1800 C   0  0  2  0  0  3  0  0  0  0  0  0
  188.0680  177.7710  145.3920 C   0  0  1  0  0  3  0  0  0  0  0  0
  187.2520  177.0990  146.5020 C   0  0  0  0  0  2  0  0  0  0  0  0
  189.4920  177.2200  145.4350 C   0  0  0  0  0  2  0  0  0  0  0  0
  186.4950  177.7110  141.4960 O   0  0  0  0  0  0  0  0  0  0  0  0
  186.0410  179.9030  147.1490 C   0  0  0  0  0  1  0  0  0  0  0  0
  187.7370  178.3750  141.5390 C   0  0  2  0  0  3  0  0  0  0  0  0
  185.7610  177.4620  146.5470 C   0  0  0  0  0  2  0  0  0  0  0  0
  190.3760  177.9180  144.4060 C   0  0  0  0  0  2  0  0  0  0  0  0
  189.2200  178.0730  137.9310 C   0  0  0  0  0  0  0  0  0  0  0  0
  188.9540  178.5410  136.6510 O   0  0  0  0  0  1  0  0  0  0  0  0
  188.6170  177.9410  140.3990 C   0  0  0  0  0  0  0  0  0  0  0  0
  190.3860  177.4770  138.1880 C   0  0  0  0  0  3  0  0  0  0  0  0
  189.7980  177.3590  140.6410 C   0  0  0  0  0  3  0  0  0  0  0  0
  188.2350  178.2610  139.0090 C   0  0  0  0  0  0  0  0  0  0  0  0
  187.0980  178.7350  138.7510 O   0  0  0  0  0  0  0  0  0  0  0  0
  190.7100  176.8830  139.5390 C   0  0  2  0  0  3  0  0  0  0  0  0
  193.1220  176.8600  139.0610 C   0  0  0  0  0  2  0  0  0  0  0  0
  192.1340  177.1370  139.9100 C   0  0  0  0  0  3  0  0  0  0  0  0
  184.2020  178.0020  142.0830 C   0  0  0  0  0  2  0  0  0  0  0  0
  184.0470  179.4360  139.9440 C   0  0  0  0  0  3  0  0  0  0  0  0
  183.0130  178.0630  138.6540 O   0  0  0  0  0  0  0  0  0  0  0  0
  183.1710  177.4430  139.7930 C   0  0  0  0  0  0  0  0  0  0  0  0
  182.7690  176.2750  140.0330 O   0  0  0  0  0  0  0  0  0  0  0  0
  183.8340  178.2720  140.6610 C   0  0  0  0  0  0  0  0  0  0  0  0
  183.5310  179.2390  138.7440 O   0  0  0  0  0  0  0  0  0  0  0  0
  1  3  1  6  0  0  0
  1  4  1  0  0  0  0
  2  4  1  0  0  0  0
  2  5  1  1  0  0  0
  3 15  1  0  0  0  0
  4  8  1  0  0  0  0
  5  7  1  0  0  0  0
  6  2  1  0  0  0  0
  7 14  1  0  0  0  0
  7 12  1  0  0  0  0
  8 10  1  0  0  0  0
  8  9  1  0  0  0  0
  9 14  1  0  0  0  0
 11 13  1  0  0  0  0
 11  6  1  0  0  0  0
 13  1  1  0  0  0  0
 15 10  1  0  0  0  0
 16 19  2  0  0  0  0
 16 21  1  0  0  0  0
 17 16  1  0  0  0  0
 18 20  2  0  0  0  0
 18 13  1  0  0  0  0
 19 23  1  0  0  0  0
 21 18  1  0  0  0  0
 22 21  2  0  0  0  0
 23 25  1  0  0  0  0
 23 20  1  0  0  0  0
 24 25  2  0  0  0  0
 26  6  1  0  0  0  0
 27 31  2  0  0  0  0
 28 32  1  0  0  0  0
 28 29  1  0  0  0  0
 29 30  2  0  0  0  0
 29 31  1  0  0  0  0
 31 26  1  0  0  0  0
 32 27  1  0  0  0  0
M  END
>  <MODEL>
8

>  <REMARK>
 VINA RESULT:      -8.6      1.620      5.972
  Name = 
  4 active torsions:
  status: ('A' for Active; 'I' for Inactive)
    1  A    between atoms: C_10  and  C_32
    2  A    between atoms: C_15  and  C_26
    3  A    between atoms: C_16  and  C_27
    4  A    between atoms: C_28  and  C_32
                            x       y       z     vdW  Elec       q    Type
                         _______ _______ _______ _____ _____    ______ ____

>  <TORSDO>
F 4

$$$$
=
 OpenBabel10272413103D

 32 36  0  0  1  0  0  0  0  0999 V2000
  188.0170  177.3310  141.7860 C   0  0  2  0  0  3  0  0  0  0  0  0
  186.9760  178.3770  139.7140 C   0  0  1  0  0  3  0  0  0  0  0  0
  189.2800  177.2450  142.6470 C   0  0  0  0  0  2  0  0  0  0  0  0
  188.2800  178.1750  140.5260 C   0  0  2  0  0  3  0  0  0  0  0  0
  186.7760  177.2710  138.6740 C   0  0  0  0  0  2  0  0  0  0  0  0
  185.7420  178.4970  140.6260 C   0  0  1  0  0  3  0  0  0  0  0  0
  187.5720  177.5190  137.3840 C   0  0  2  0  0  3  0  0  0  0  0  0
  189.4440  177.5550  139.7170 C   0  0  1  0  0  3  0  0  0  0  0  0
  189.8100  178.3180  138.4400 C   0  0  0  0  0  2  0  0  0  0  0  0
  190.6930  177.4420  140.5900 C   0  0  0  0  0  2  0  0  0  0  0  0
  186.1260  178.9020  141.9160 O   0  0  0  0  0  0  0  0  0  0  0  0
  188.1380  176.2180  136.8450 C   0  0  0  0  0  1  0  0  0  0  0  0
  186.7240  177.7800  142.5240 C   0  0  2  0  0  3  0  0  0  0  0  0
  188.6480  178.6130  137.4820 C   0  0  0  0  0  2  0  0  0  0  0  0
  190.4080  176.6140  141.8400 C   0  0  0  0  0  2  0  0  0  0  0  0
  185.7660  178.2150  146.2920 C   0  0  0  0  0  0  0  0  0  0  0  0
  184.6210  178.3080  147.0740 O   0  0  0  0  0  1  0  0  0  0  0  0
  186.8610  177.9830  144.0080 C   0  0  0  0  0  0  0  0  0  0  0  0
  186.9520  178.0350  146.8760 C   0  0  0  0  0  3  0  0  0  0  0  0
  188.0410  177.7860  144.6110 C   0  0  0  0  0  3  0  0  0  0  0  0
  185.6690  178.2840  144.8240 C   0  0  0  0  0  0  0  0  0  0  0  0
  184.5680  178.5490  144.2750 O   0  0  0  0  0  0  0  0  0  0  0  0
  188.2410  177.9980  146.0900 C   0  0  2  0  0  3  0  0  0  0  0  0
  190.4700  176.9900  146.3450 C   0  0  0  0  0  2  0  0  0  0  0  0
  189.1700  176.9610  146.6310 C   0  0  0  0  0  3  0  0  0  0  0  0
  184.7530  179.5100  140.0650 C   0  0  0  0  0  2  0  0  0  0  0  0
  183.0500  178.4790  138.4250 C   0  0  0  0  0  3  0  0  0  0  0  0
  181.4520  178.0260  139.7880 O   0  0  0  0  0  0  0  0  0  0  0  0
  182.4050  178.5530  140.5080 C   0  0  0  0  0  0  0  0  0  0  0  0
  182.3420  178.7430  141.7500 O   0  0  0  0  0  0  0  0  0  0  0  0
  183.4610  178.8610  139.6890 C   0  0  0  0  0  0  0  0  0  0  0  0
  181.8340  177.9810  138.5580 O   0  0  0  0  0  0  0  0  0  0  0  0
  1 13  1  0  0  0  0
  1  3  1  1  0  0  0
  2  5  1  6  0  0  0
  2  4  1  0  0  0  0
  2  6  1  0  0  0  0
  4  1  1  0  0  0  0
  6 11  1  0  0  0  0
  7 14  1  0  0  0  0
  7  5  1  0  0  0  0
  8  4  1  0  0  0  0
  8 10  1  0  0  0  0
  9  8  1  0  0  0  0
 10 15  1  0  0  0  0
 11 13  1  0  0  0  0
 12  7  1  0  0  0  0
 13 18  1  0  0  0  0
 14  9  1  0  0  0  0
 15  3  1  0  0  0  0
 16 19  2  0  0  0  0
 16 17  1  0  0  0  0
 18 20  2  0  0  0  0
 18 21  1  0  0  0  0
 20 23  1  0  0  0  0
 21 16  1  0  0  0  0
 22 21  2  0  0  0  0
 23 25  1  0  0  0  0
 23 19  1  0  0  0  0
 24 25  2  0  0  0  0
 26  6  1  0  0  0  0
 27 32  1  0  0  0  0
 27 31  2  0  0  0  0
 28 29  1  0  0  0  0
 29 30  2  0  0  0  0
 31 26  1  0  0  0  0
 31 29  1  0  0  0  0
 32 28  1  0  0  0  0
M  END
>  <MODEL>
9

>  <REMARK>
 VINA RESULT:      -8.5      2.421      5.837
  Name = 
  4 active torsions:
  status: ('A' for Active; 'I' for Inactive)
    1  A    between atoms: C_10  and  C_32
    2  A    between atoms: C_15  and  C_26
    3  A    between atoms: C_16  and  C_27
    4  A    between atoms: C_28  and  C_32
                            x       y       z     vdW  Elec       q    Type
                         _______ _______ _______ _____ _____    ______ ____

>  <TORSDO>
F 4

$$$$
