=
 OpenBabel10272401473D

 28 31  0  0  1  0  0  0  0  0999 V2000
  188.6520  177.3980  145.4510 C   0  0  0  0  0  0  0  0  0  0  0  0
  185.1870  178.1230  146.8860 C   0  0  0  0  0  2  0  0  0  0  0  0
  185.6130  178.3990  143.8640 C   0  0  0  0  0  2  0  0  0  0  0  0
  187.4740  178.2380  147.8570 C   0  0  0  0  0  3  0  0  0  0  0  0
  186.4040  177.1890  144.3480 C   0  0  0  0  0  2  0  0  0  0  0  0
  188.8590  178.1110  147.7670 C   0  0  0  0  0  3  0  0  0  0  0  0
  184.7420  179.1990  146.0090 N   0  0  0  0  0  2  0  0  0  0  0  0
  186.6660  177.9440  146.7560 C   0  0  0  0  0  0  0  0  0  0  0  0
  184.3730  178.6110  144.7260 C   0  0  1  0  0  3  0  0  0  0  0  0
  189.4440  177.6930  146.5720 C   0  0  0  0  0  3  0  0  0  0  0  0
  187.2540  177.5230  145.5440 C   0  0  0  0  0  0  0  0  0  0  0  0
  189.2240  176.9730  144.2390 O   0  0  0  0  0  0  0  0  0  0  0  0
  189.7470  177.8230  143.2150 C   0  0  1  0  0  3  0  0  0  0  0  0
  191.5470  177.5200  140.9150 C   0  0  0  0  0  2  0  0  0  0  0  0
  191.2700  178.0070  143.3340 C   0  0  0  0  0  2  0  0  0  0  0  0
  187.9080  177.2470  141.6560 F   0  0  0  0  0  0  0  0  0  0  0  0
  189.2380  177.4510  141.8370 C   0  0  0  0  0  0  0  0  0  0  0  0
  190.0690  177.2770  140.7980 C   0  0  0  0  0  3  0  0  0  0  0  0
  192.0370  177.1720  142.3130 C   0  0  0  0  0  2  0  0  0  0  0  0
  183.4140  179.5410  143.9910 C   0  0  0  0  0  2  0  0  0  0  0  0
  183.1830  178.7550  141.5990 C   0  0  0  0  0  2  0  0  0  0  0  0
  180.8540  179.5490  142.9230 S   0  0  0  0  0  0  0  0  0  0  0  0
  181.2370  178.3060  140.1000 C   0  0  2  0  0  3  0  0  0  0  0  0
  182.5280  178.8150  142.9780 C   0  0  2  0  0  3  0  0  0  0  0  0
  179.9880  177.8810  140.8720 C   0  0  0  0  0  2  0  0  0  0  0  0
  180.1170  177.9720  142.3930 C   0  0  0  0  0  2  0  0  0  0  0  0
  181.1030  177.8710  138.6560 C   0  0  0  0  0  1  0  0  0  0  0  0
  182.5190  177.7300  140.6880 C   0  0  0  0  0  2  0  0  0  0  0  0
  1 11  2  0  0  0  0
  1 10  1  0  0  0  0
  3  5  1  0  0  0  0
  3  9  1  0  0  0  0
  5 11  1  0  0  0  0
  6  4  1  0  0  0  0
  7  2  1  0  0  0  0
  8  2  1  0  0  0  0
  8  4  2  0  0  0  0
  9 20  1  6  0  0  0
  9  7  1  0  0  0  0
 10  6  2  0  0  0  0
 11  8  1  0  0  0  0
 12  1  1  0  0  0  0
 13 15  1  0  0  0  0
 13 12  1  1  0  0  0
 14 19  1  0  0  0  0
 16 17  1  0  0  0  0
 17 13  1  0  0  0  0
 18 14  1  0  0  0  0
 18 17  2  0  0  0  0
 19 15  1  0  0  0  0
 21 24  1  0  0  0  0
 22 24  1  0  0  0  0
 23 27  1  6  0  0  0
 23 28  1  0  0  0  0
 23 25  1  0  0  0  0
 24 20  1  1  0  0  0
 25 26  1  0  0  0  0
 26 22  1  0  0  0  0
 28 21  1  0  0  0  0
M  END
>  <MODEL>
1

>  <REMARK>
 VINA RESULT:      -9.3      0.000      0.000
  Name = 
  4 active torsions:
  status: ('A' for Active; 'I' for Inactive)
    1  A    between atoms: C_1  and  O_2
    2  A    between atoms: O_2  and  C_3
    3  A    between atoms: C_10  and  C_13
    4  A    between atoms: C_10  and  C_25
                            x       y       z     vdW  Elec       q    Type
                         _______ _______ _______ _____ _____    ______ ____

>  <TORSDO>
F 4

$$$$
=
 OpenBabel10272401473D

 28 31  0  0  1  0  0  0  0  0999 V2000
  187.8760  177.5370  144.7590 C   0  0  0  0  0  0  0  0  0  0  0  0
  191.2710  178.0890  143.0960 C   0  0  0  0  0  2  0  0  0  0  0  0
  188.9320  177.1160  141.3730 C   0  0  0  0  0  2  0  0  0  0  0  0
  190.6030  177.5450  145.4300 C   0  0  0  0  0  3  0  0  0  0  0  0
  188.3950  178.1330  142.3740 C   0  0  0  0  0  2  0  0  0  0  0  0
  189.6460  177.2660  146.4050 C   0  0  0  0  0  3  0  0  0  0  0  0
  191.2690  177.0260  142.1000 N   0  0  0  0  0  2  0  0  0  0  0  0
  190.2110  177.8260  144.1190 C   0  0  0  0  0  0  0  0  0  0  0  0
  190.3810  177.4270  141.0150 C   0  0  1  0  0  3  0  0  0  0  0  0
  188.2920  177.2630  146.0710 C   0  0  0  0  0  3  0  0  0  0  0  0
  188.8420  177.8210  143.7760 C   0  0  0  0  0  0  0  0  0  0  0  0
  186.5160  177.5410  144.4050 O   0  0  0  0  0  0  0  0  0  0  0  0
  185.6630  178.6890  144.3680 C   0  0  1  0  0  3  0  0  0  0  0  0
  182.8350  179.2170  143.7790 C   0  0  0  0  0  2  0  0  0  0  0  0
  185.1640  178.9960  142.9460 C   0  0  0  0  0  2  0  0  0  0  0  0
  184.9540  178.3640  146.7210 F   0  0  0  0  0  0  0  0  0  0  0  0
  184.5960  178.6530  145.4430 C   0  0  0  0  0  0  0  0  0  0  0  0
  183.3000  178.8580  145.1620 C   0  0  0  0  0  3  0  0  0  0  0  0
  183.7180  178.5570  142.7310 C   0  0  0  0  0  2  0  0  0  0  0  0
  190.7480  176.6700  139.7430 C   0  0  0  0  0  2  0  0  0  0  0  0
  189.8410  175.5350  137.6740 C   0  0  0  0  0  2  0  0  0  0  0  0
  189.3540  178.2720  137.9590 S   0  0  0  0  0  0  0  0  0  0  0  0
  188.3610  176.2660  135.8010 C   0  0  2  0  0  3  0  0  0  0  0  0
  189.6150  176.6280  138.7170 C   0  0  2  0  0  3  0  0  0  0  0  0
  187.3790  177.3610  136.2220 C   0  0  0  0  0  2  0  0  0  0  0  0
  187.6010  177.9060  137.6330 C   0  0  0  0  0  2  0  0  0  0  0  0
  187.8490  175.5950  134.5440 C   0  0  0  0  0  1  0  0  0  0  0  0
  188.5760  175.2190  136.8860 C   0  0  0  0  0  2  0  0  0  0  0  0
  1 10  1  0  0  0  0
  2  8  1  0  0  0  0
  3  5  1  0  0  0  0
  4  6  1  0  0  0  0
  5 11  1  0  0  0  0
  7  2  1  0  0  0  0
  8  4  2  0  0  0  0
  9 20  1  6  0  0  0
  9  3  1  0  0  0  0
  9  7  1  0  0  0  0
 10  6  2  0  0  0  0
 11  8  1  0  0  0  0
 11  1  2  0  0  0  0
 12  1  1  0  0  0  0
 13 12  1  6  0  0  0
 13 17  1  0  0  0  0
 14 18  1  0  0  0  0
 15 13  1  0  0  0  0
 17 16  1  0  0  0  0
 18 17  2  0  0  0  0
 19 15  1  0  0  0  0
 19 14  1  0  0  0  0
 21 24  1  0  0  0  0
 22 24  1  0  0  0  0
 23 27  1  6  0  0  0
 23 25  1  0  0  0  0
 23 28  1  0  0  0  0
 24 20  1  1  0  0  0
 25 26  1  0  0  0  0
 26 22  1  0  0  0  0
 28 21  1  0  0  0  0
M  END
>  <MODEL>
2

>  <REMARK>
 VINA RESULT:      -9.0      3.688      6.756
  Name = 
  4 active torsions:
  status: ('A' for Active; 'I' for Inactive)
    1  A    between atoms: C_1  and  O_2
    2  A    between atoms: O_2  and  C_3
    3  A    between atoms: C_10  and  C_13
    4  A    between atoms: C_10  and  C_25
                            x       y       z     vdW  Elec       q    Type
                         _______ _______ _______ _____ _____    ______ ____

>  <TORSDO>
F 4

$$$$
=
 OpenBabel10272401473D

 28 31  0  0  1  0  0  0  0  0999 V2000
  185.7440  177.9870  144.7800 C   0  0  0  0  0  0  0  0  0  0  0  0
  185.3130  178.2740  140.9950 C   0  0  0  0  0  2  0  0  0  0  0  0
  188.1480  178.0750  142.1400 C   0  0  0  0  0  2  0  0  0  0  0  0
  183.9090  179.0040  142.9140 C   0  0  0  0  0  3  0  0  0  0  0  0
  187.2430  177.1490  142.9460 C   0  0  0  0  0  2  0  0  0  0  0  0
  183.6580  179.1350  144.2790 C   0  0  0  0  0  3  0  0  0  0  0  0
  186.4840  179.0650  140.6410 N   0  0  0  0  0  2  0  0  0  0  0  0
  185.0680  178.3640  142.4680 C   0  0  0  0  0  0  0  0  0  0  0  0
  187.6530  178.1950  140.7030 C   0  0  1  0  0  3  0  0  0  0  0  0
  184.5700  178.6280  145.2050 C   0  0  0  0  0  3  0  0  0  0  0  0
  185.9940  177.8530  143.4020 C   0  0  0  0  0  0  0  0  0  0  0  0
  186.6720  177.4680  145.6990 O   0  0  0  0  0  0  0  0  0  0  0  0
  187.7710  178.1800  146.2740 C   0  0  1  0  0  3  0  0  0  0  0  0
  189.5220  177.8620  148.6090 C   0  0  0  0  0  2  0  0  0  0  0  0
  187.4220  178.7760  147.6490 C   0  0  0  0  0  2  0  0  0  0  0  0
  189.4320  176.8210  145.0350 F   0  0  0  0  0  0  0  0  0  0  0  0
  189.0670  177.3980  146.2080 C   0  0  0  0  0  0  0  0  0  0  0  0
  189.8450  177.2240  147.2870 C   0  0  0  0  0  3  0  0  0  0  0  0
  188.0160  177.9670  148.7980 C   0  0  0  0  0  2  0  0  0  0  0  0
  188.7710  178.7710  139.8420 C   0  0  0  0  0  2  0  0  0  0  0  0
  188.3320  176.8220  138.2930 C   0  0  0  0  0  2  0  0  0  0  0  0
  190.7400  176.8230  139.7110 S   0  0  0  0  0  0  0  0  0  0  0  0
  189.6920  174.8730  137.5290 C   0  0  2  0  0  3  0  0  0  0  0  0
  189.3910  177.7460  138.8920 C   0  0  2  0  0  3  0  0  0  0  0  0
  191.1920  175.1720  137.5170 C   0  0  0  0  0  2  0  0  0  0  0  0
  191.5770  176.5230  138.1230 C   0  0  0  0  0  2  0  0  0  0  0  0
  189.4150  173.6870  136.6290 C   0  0  0  0  0  1  0  0  0  0  0  0
  188.8510  176.0600  137.0800 C   0  0  0  0  0  2  0  0  0  0  0  0
  1 10  1  0  0  0  0
  1 12  1  0  0  0  0
  2  8  1  0  0  0  0
  3  5  1  0  0  0  0
  4  6  1  0  0  0  0
  5 11  1  0  0  0  0
  6 10  2  0  0  0  0
  7  9  1  0  0  0  0
  7  2  1  0  0  0  0
  8  4  2  0  0  0  0
  8 11  1  0  0  0  0
  9 20  1  6  0  0  0
  9  3  1  0  0  0  0
 11  1  2  0  0  0  0
 13 12  1  1  0  0  0
 13 15  1  0  0  0  0
 14 19  1  0  0  0  0
 15 19  1  0  0  0  0
 16 17  1  0  0  0  0
 17 13  1  0  0  0  0
 17 18  2  0  0  0  0
 18 14  1  0  0  0  0
 21 24  1  0  0  0  0
 23 27  1  6  0  0  0
 24 22  1  0  0  0  0
 24 20  1  1  0  0  0
 25 23  1  0  0  0  0
 25 26  1  0  0  0  0
 26 22  1  0  0  0  0
 28 23  1  0  0  0  0
 28 21  1  0  0  0  0
M  END
>  <MODEL>
3

>  <REMARK>
 VINA RESULT:      -8.9      3.355      6.817
  Name = 
  4 active torsions:
  status: ('A' for Active; 'I' for Inactive)
    1  A    between atoms: C_1  and  O_2
    2  A    between atoms: O_2  and  C_3
    3  A    between atoms: C_10  and  C_13
    4  A    between atoms: C_10  and  C_25
                            x       y       z     vdW  Elec       q    Type
                         _______ _______ _______ _____ _____    ______ ____

>  <TORSDO>
F 4

$$$$
=
 OpenBabel10272401473D

 28 31  0  0  1  0  0  0  0  0999 V2000
  186.9770  177.7610  145.2280 C   0  0  0  0  0  0  0  0  0  0  0  0
  185.2610  178.4890  141.8930 C   0  0  0  0  0  2  0  0  0  0  0  0
  188.2250  177.7100  141.8820 C   0  0  0  0  0  2  0  0  0  0  0  0
  184.8190  179.2480  144.2200 C   0  0  0  0  0  3  0  0  0  0  0  0
  187.5160  176.8720  142.9410 C   0  0  0  0  0  2  0  0  0  0  0  0
  185.1120  179.2820  145.5830 C   0  0  0  0  0  3  0  0  0  0  0  0
  186.3510  179.1070  141.1490 N   0  0  0  0  0  2  0  0  0  0  0  0
  185.5910  178.4720  143.3520 C   0  0  0  0  0  0  0  0  0  0  0  0
  187.2730  178.0520  140.7410 C   0  0  1  0  0  3  0  0  0  0  0  0
  186.1840  178.5420  146.0830 C   0  0  0  0  0  3  0  0  0  0  0  0
  186.6780  177.7240  143.8530 C   0  0  0  0  0  0  0  0  0  0  0  0
  188.0580  177.0060  145.7150 O   0  0  0  0  0  0  0  0  0  0  0  0
  189.2540  177.5330  146.2980 C   0  0  1  0  0  3  0  0  0  0  0  0
  191.9890  176.5760  146.7690 C   0  0  0  0  0  2  0  0  0  0  0  0
  189.6520  176.7850  147.5820 C   0  0  0  0  0  2  0  0  0  0  0  0
  190.0810  178.3530  144.1100 F   0  0  0  0  0  0  0  0  0  0  0  0
  190.3600  177.7230  145.2800 C   0  0  0  0  0  0  0  0  0  0  0  0
  191.5990  177.2510  145.4840 C   0  0  0  0  0  3  0  0  0  0  0  0
  190.8080  175.8160  147.3530 C   0  0  0  0  0  2  0  0  0  0  0  0
  188.0890  178.5180  139.5400 C   0  0  0  0  0  2  0  0  0  0  0  0
  190.4120  177.5670  139.2370 C   0  0  0  0  0  2  0  0  0  0  0  0
  188.6180  177.2830  137.1140 S   0  0  0  0  0  0  0  0  0  0  0  0
  191.5030  176.1810  137.4700 C   0  0  2  0  0  3  0  0  0  0  0  0
  188.9280  177.4050  138.9120 C   0  0  2  0  0  3  0  0  0  0  0  0
  190.5100  175.2780  136.7360 C   0  0  0  0  0  2  0  0  0  0  0  0
  189.0440  175.5140  137.1020 C   0  0  0  0  0  2  0  0  0  0  0  0
  192.9040  175.6430  137.2730 C   0  0  0  0  0  1  0  0  0  0  0  0
  191.2060  176.2960  138.9590 C   0  0  0  0  0  2  0  0  0  0  0  0
  1 12  1  0  0  0  0
  1 10  1  0  0  0  0
  2  8  1  0  0  0  0
  3  5  1  0  0  0  0
  4  6  1  0  0  0  0
  5 11  1  0  0  0  0
  6 10  2  0  0  0  0
  7  2  1  0  0  0  0
  8 11  1  0  0  0  0
  8  4  2  0  0  0  0
  9 20  1  6  0  0  0
  9  7  1  0  0  0  0
  9  3  1  0  0  0  0
 11  1  2  0  0  0  0
 13 12  1  6  0  0  0
 13 15  1  0  0  0  0
 14 19  1  0  0  0  0
 16 17  1  0  0  0  0
 17 18  2  0  0  0  0
 17 13  1  0  0  0  0
 18 14  1  0  0  0  0
 19 15  1  0  0  0  0
 22 24  1  0  0  0  0
 23 27  1  1  0  0  0
 23 28  1  0  0  0  0
 24 21  1  0  0  0  0
 24 20  1  6  0  0  0
 25 26  1  0  0  0  0
 25 23  1  0  0  0  0
 26 22  1  0  0  0  0
 28 21  1  0  0  0  0
M  END
>  <MODEL>
4

>  <REMARK>
 VINA RESULT:      -8.9      3.317      6.448
  Name = 
  4 active torsions:
  status: ('A' for Active; 'I' for Inactive)
    1  A    between atoms: C_1  and  O_2
    2  A    between atoms: O_2  and  C_3
    3  A    between atoms: C_10  and  C_13
    4  A    between atoms: C_10  and  C_25
                            x       y       z     vdW  Elec       q    Type
                         _______ _______ _______ _____ _____    ______ ____

>  <TORSDO>
F 4

$$$$
=
 OpenBabel10272401473D

 28 31  0  0  1  0  0  0  0  0999 V2000
  188.3510  177.2680  146.1840 C   0  0  0  0  0  0  0  0  0  0  0  0
  184.9640  178.5150  144.9340 C   0  0  0  0  0  2  0  0  0  0  0  0
  187.1640  177.9320  142.8820 C   0  0  0  0  0  2  0  0  0  0  0  0
  186.1720  178.7890  147.0910 C   0  0  0  0  0  3  0  0  0  0  0  0
  187.2330  176.8670  143.9700 C   0  0  0  0  0  2  0  0  0  0  0  0
  187.2700  178.5800  147.9240 C   0  0  0  0  0  3  0  0  0  0  0  0
  185.3700  179.3280  143.7950 N   0  0  0  0  0  2  0  0  0  0  0  0
  186.1480  178.2410  145.8060 C   0  0  0  0  0  0  0  0  0  0  0  0
  185.7330  178.4280  142.7050 C   0  0  1  0  0  3  0  0  0  0  0  0
  188.3520  177.8240  147.4730 C   0  0  0  0  0  3  0  0  0  0  0  0
  187.2410  177.4770  145.3450 C   0  0  0  0  0  0  0  0  0  0  0  0
  189.4310  176.5010  145.7140 O   0  0  0  0  0  0  0  0  0  0  0  0
  190.6410  177.0130  145.1480 C   0  0  1  0  0  3  0  0  0  0  0  0
  191.6190  177.6610  142.4560 C   0  0  0  0  0  2  0  0  0  0  0  0
  191.3520  175.9770  144.2620 C   0  0  0  0  0  2  0  0  0  0  0  0
  189.8150  179.3490  145.2420 F   0  0  0  0  0  0  0  0  0  0  0  0
  190.4560  178.3850  144.5320 C   0  0  0  0  0  0  0  0  0  0  0  0
  190.8720  178.6650  143.2870 C   0  0  0  0  0  3  0  0  0  0  0  0
  191.1500  176.2490  142.7740 C   0  0  0  0  0  2  0  0  0  0  0  0
  185.6260  179.1630  141.3730 C   0  0  0  0  0  2  0  0  0  0  0  0
  183.3640  178.0340  141.3870 C   0  0  0  0  0  2  0  0  0  0  0  0
  184.2500  179.1110  138.9660 S   0  0  0  0  0  0  0  0  0  0  0  0
  181.5300  177.8010  139.7090 C   0  0  2  0  0  3  0  0  0  0  0  0
  184.2110  179.1580  140.7930 C   0  0  2  0  0  3  0  0  0  0  0  0
  181.4810  178.9730  138.7270 C   0  0  0  0  0  2  0  0  0  0  0  0
  182.6430  179.9580  138.8530 C   0  0  0  0  0  2  0  0  0  0  0  0
  180.1920  177.0940  139.7080 C   0  0  0  0  0  1  0  0  0  0  0  0
  181.8760  178.2350  141.1270 C   0  0  0  0  0  2  0  0  0  0  0  0
  1 10  1  0  0  0  0
  2  8  1  0  0  0  0
  3  5  1  0  0  0  0
  4  6  1  0  0  0  0
  5 11  1  0  0  0  0
  7  2  1  0  0  0  0
  8  4  2  0  0  0  0
  9 20  1  6  0  0  0
  9  3  1  0  0  0  0
  9  7  1  0  0  0  0
 10  6  2  0  0  0  0
 11  8  1  0  0  0  0
 11  1  2  0  0  0  0
 12  1  1  0  0  0  0
 13 12  1  6  0  0  0
 14 19  1  0  0  0  0
 14 18  1  0  0  0  0
 15 13  1  0  0  0  0
 17 13  1  0  0  0  0
 17 16  1  0  0  0  0
 18 17  2  0  0  0  0
 19 15  1  0  0  0  0
 22 24  1  0  0  0  0
 23 27  1  1  0  0  0
 23 28  1  0  0  0  0
 24 20  1  1  0  0  0
 24 21  1  0  0  0  0
 25 26  1  0  0  0  0
 25 23  1  0  0  0  0
 26 22  1  0  0  0  0
 28 21  1  0  0  0  0
M  END
>  <MODEL>
5

>  <REMARK>
 VINA RESULT:      -8.6      1.883      2.447
  Name = 
  4 active torsions:
  status: ('A' for Active; 'I' for Inactive)
    1  A    between atoms: C_1  and  O_2
    2  A    between atoms: O_2  and  C_3
    3  A    between atoms: C_10  and  C_13
    4  A    between atoms: C_10  and  C_25
                            x       y       z     vdW  Elec       q    Type
                         _______ _______ _______ _____ _____    ______ ____

>  <TORSDO>
F 4

$$$$
=
 OpenBabel10272401473D

 28 31  0  0  1  0  0  0  0  0999 V2000
  189.4620  177.7020  144.3750 C   0  0  0  0  0  0  0  0  0  0  0  0
  191.5050  177.1790  141.1900 C   0  0  0  0  0  2  0  0  0  0  0  0
  188.4930  177.6780  140.9380 C   0  0  0  0  0  2  0  0  0  0  0  0
  191.8250  176.4350  143.5420 C   0  0  0  0  0  3  0  0  0  0  0  0
  189.0300  178.5650  142.0550 C   0  0  0  0  0  2  0  0  0  0  0  0
  191.4260  176.3570  144.8750 C   0  0  0  0  0  3  0  0  0  0  0  0
  190.5430  176.4710  140.3560 N   0  0  0  0  0  2  0  0  0  0  0  0
  191.0570  177.1460  142.6170 C   0  0  0  0  0  0  0  0  0  0  0  0
  189.5620  177.4400  139.8780 C   0  0  1  0  0  3  0  0  0  0  0  0
  190.2520  176.9880  145.2890 C   0  0  0  0  0  3  0  0  0  0  0  0
  189.8670  177.7830  143.0300 C   0  0  0  0  0  0  0  0  0  0  0  0
  188.2780  178.3470  144.7740 O   0  0  0  0  0  0  0  0  0  0  0  0
  187.0720  177.7010  145.1930 C   0  0  1  0  0  3  0  0  0  0  0  0
  184.5170  178.5320  146.3770 C   0  0  0  0  0  2  0  0  0  0  0  0
  186.8630  177.7900  146.7140 C   0  0  0  0  0  2  0  0  0  0  0  0
  185.9930  178.0620  142.9910 F   0  0  0  0  0  0  0  0  0  0  0  0
  185.8800  178.0920  144.3440 C   0  0  0  0  0  0  0  0  0  0  0  0
  184.7270  178.5070  144.8900 C   0  0  0  0  0  3  0  0  0  0  0  0
  185.8220  178.8390  147.0960 C   0  0  0  0  0  2  0  0  0  0  0  0
  188.8950  176.9150  138.6110 C   0  0  0  0  0  2  0  0  0  0  0  0
  190.8420  176.6540  137.0200 C   0  0  0  0  0  2  0  0  0  0  0  0
  188.7470  174.8180  136.8010 S   0  0  0  0  0  0  0  0  0  0  0  0
  191.4800  174.9370  135.3240 C   0  0  2  0  0  3  0  0  0  0  0  0
  189.7680  175.9310  137.8320 C   0  0  2  0  0  3  0  0  0  0  0  0
  190.9480  173.5450  135.6690 C   0  0  0  0  0  2  0  0  0  0  0  0
  190.0050  173.5050  136.8720 C   0  0  0  0  0  2  0  0  0  0  0  0
  192.6290  174.8020  134.3470 C   0  0  0  0  0  1  0  0  0  0  0  0
  191.9430  175.7120  136.5510 C   0  0  0  0  0  2  0  0  0  0  0  0
  1 12  1  0  0  0  0
  1 10  1  0  0  0  0
  2  8  1  0  0  0  0
  3  5  1  0  0  0  0
  4  6  1  0  0  0  0
  5 11  1  0  0  0  0
  6 10  2  0  0  0  0
  7  2  1  0  0  0  0
  8 11  1  0  0  0  0
  8  4  2  0  0  0  0
  9 20  1  6  0  0  0
  9  7  1  0  0  0  0
  9  3  1  0  0  0  0
 11  1  2  0  0  0  0
 13 12  1  6  0  0  0
 13 15  1  0  0  0  0
 14 19  1  0  0  0  0
 15 19  1  0  0  0  0
 16 17  1  0  0  0  0
 17 18  2  0  0  0  0
 17 13  1  0  0  0  0
 18 14  1  0  0  0  0
 21 24  1  0  0  0  0
 22 26  1  0  0  0  0
 22 24  1  0  0  0  0
 23 27  1  6  0  0  0
 23 25  1  0  0  0  0
 23 28  1  0  0  0  0
 24 20  1  6  0  0  0
 25 26  1  0  0  0  0
 28 21  1  0  0  0  0
M  END
>  <MODEL>
6

>  <REMARK>
 VINA RESULT:      -8.4      3.956      7.763
  Name = 
  4 active torsions:
  status: ('A' for Active; 'I' for Inactive)
    1  A    between atoms: C_1  and  O_2
    2  A    between atoms: O_2  and  C_3
    3  A    between atoms: C_10  and  C_13
    4  A    between atoms: C_10  and  C_25
                            x       y       z     vdW  Elec       q    Type
                         _______ _______ _______ _____ _____    ______ ____

>  <TORSDO>
F 4

$$$$
=
 OpenBabel10272401473D

 28 31  0  0  1  0  0  0  0  0999 V2000
  187.7600  177.5930  145.8510 C   0  0  0  0  0  0  0  0  0  0  0  0
  184.1160  178.5560  145.2290 C   0  0  0  0  0  2  0  0  0  0  0  0
  185.9440  178.0860  142.8150 C   0  0  0  0  0  2  0  0  0  0  0  0
  185.6720  178.9700  147.1250 C   0  0  0  0  0  3  0  0  0  0  0  0
  186.2920  177.0560  143.8840 C   0  0  0  0  0  2  0  0  0  0  0  0
  186.9160  178.8630  147.7450 C   0  0  0  0  0  3  0  0  0  0  0  0
  184.2440  179.3680  144.0270 N   0  0  0  0  0  2  0  0  0  0  0  0
  185.4560  178.3910  145.8730 C   0  0  0  0  0  0  0  0  0  0  0  0
  184.4710  178.4710  142.8980 C   0  0  1  0  0  3  0  0  0  0  0  0
  187.9520  178.1780  147.1120 C   0  0  0  0  0  3  0  0  0  0  0  0
  186.5040  177.6990  145.2270 C   0  0  0  0  0  0  0  0  0  0  0  0
  188.7930  176.8970  145.1990 O   0  0  0  0  0  0  0  0  0  0  0  0
  190.0130  177.4650  144.7140 C   0  0  1  0  0  3  0  0  0  0  0  0
  191.9730  176.8260  142.6240 C   0  0  0  0  0  2  0  0  0  0  0  0
  191.2230  176.5530  144.9760 C   0  0  0  0  0  2  0  0  0  0  0  0
  188.8290  178.7870  142.9840 F   0  0  0  0  0  0  0  0  0  0  0  0
  189.8840  177.9940  143.3000 C   0  0  0  0  0  0  0  0  0  0  0  0
  190.7630  177.6680  142.3400 C   0  0  0  0  0  3  0  0  0  0  0  0
  191.6740  175.8130  143.7200 C   0  0  0  0  0  2  0  0  0  0  0  0
  184.0670  179.1630  141.6010 C   0  0  0  0  0  2  0  0  0  0  0  0
  184.4880  178.7580  139.1410 C   0  0  0  0  0  2  0  0  0  0  0  0
  182.1400  177.7100  140.2350 S   0  0  0  0  0  0  0  0  0  0  0  0
  183.3420  177.4040  137.3840 C   0  0  2  0  0  3  0  0  0  0  0  0
  183.8920  178.1950  140.4300 C   0  0  2  0  0  3  0  0  0  0  0  0
  182.6240  176.1820  137.9600 C   0  0  0  0  0  2  0  0  0  0  0  0
  182.6040  176.1170  139.4880 C   0  0  0  0  0  2  0  0  0  0  0  0
  183.5740  177.1920  135.9030 C   0  0  0  0  0  1  0  0  0  0  0  0
  184.6700  177.6870  138.0730 C   0  0  0  0  0  2  0  0  0  0  0  0
  1 10  1  0  0  0  0
  2  8  1  0  0  0  0
  3  9  1  0  0  0  0
  3  5  1  0  0  0  0
  4  6  1  0  0  0  0
  5 11  1  0  0  0  0
  7  2  1  0  0  0  0
  8  4  2  0  0  0  0
  9 20  1  6  0  0  0
  9  7  1  0  0  0  0
 10  6  2  0  0  0  0
 11  1  2  0  0  0  0
 11  8  1  0  0  0  0
 12  1  1  0  0  0  0
 13 15  1  0  0  0  0
 13 12  1  6  0  0  0
 14 19  1  0  0  0  0
 16 17  1  0  0  0  0
 17 13  1  0  0  0  0
 18 14  1  0  0  0  0
 18 17  2  0  0  0  0
 19 15  1  0  0  0  0
 21 24  1  0  0  0  0
 22 24  1  0  0  0  0
 23 27  1  6  0  0  0
 23 25  1  0  0  0  0
 23 28  1  0  0  0  0
 24 20  1  1  0  0  0
 25 26  1  0  0  0  0
 26 22  1  0  0  0  0
 28 21  1  0  0  0  0
M  END
>  <MODEL>
7

>  <REMARK>
 VINA RESULT:      -8.3      1.860      2.429
  Name = 
  4 active torsions:
  status: ('A' for Active; 'I' for Inactive)
    1  A    between atoms: C_1  and  O_2
    2  A    between atoms: O_2  and  C_3
    3  A    between atoms: C_10  and  C_13
    4  A    between atoms: C_10  and  C_25
                            x       y       z     vdW  Elec       q    Type
                         _______ _______ _______ _____ _____    ______ ____

>  <TORSDO>
F 4

$$$$
=
 OpenBabel10272401473D

 28 31  0  0  1  0  0  0  0  0999 V2000
  187.3970  177.6490  145.9400 C   0  0  0  0  0  0  0  0  0  0  0  0
  184.0730  178.6530  144.3460 C   0  0  0  0  0  2  0  0  0  0  0  0
  186.4600  178.0620  142.5180 C   0  0  0  0  0  2  0  0  0  0  0  0
  185.0840  179.1100  146.5730 C   0  0  0  0  0  3  0  0  0  0  0  0
  186.4860  177.0660  143.6720 C   0  0  0  0  0  2  0  0  0  0  0  0
  186.1170  179.0030  147.5030 C   0  0  0  0  0  3  0  0  0  0  0  0
  184.5360  179.4180  143.1960 N   0  0  0  0  0  2  0  0  0  0  0  0
  185.1910  178.4880  145.3270 C   0  0  0  0  0  0  0  0  0  0  0  0
  185.0280  178.4760  142.1970 C   0  0  1  0  0  3  0  0  0  0  0  0
  187.2650  178.2770  147.1880 C   0  0  0  0  0  3  0  0  0  0  0  0
  186.3530  177.7540  145.0030 C   0  0  0  0  0  0  0  0  0  0  0  0
  188.5450  176.9110  145.6060 O   0  0  0  0  0  0  0  0  0  0  0  0
  189.8930  177.2650  145.9300 C   0  0  1  0  0  3  0  0  0  0  0  0
  192.3400  175.8350  146.6970 C   0  0  0  0  0  2  0  0  0  0  0  0
  190.2390  176.9580  147.3970 C   0  0  0  0  0  2  0  0  0  0  0  0
  190.6400  176.9710  143.5850 F   0  0  0  0  0  0  0  0  0  0  0  0
  190.8870  176.7600  144.9030 C   0  0  0  0  0  0  0  0  0  0  0  0
  191.9850  176.0750  145.2570 C   0  0  0  0  0  3  0  0  0  0  0  0
  191.0830  175.6950  147.5420 C   0  0  0  0  0  2  0  0  0  0  0  0
  185.0000  179.1260  140.8180 C   0  0  0  0  0  2  0  0  0  0  0  0
  183.1340  177.4360  140.5890 C   0  0  0  0  0  2  0  0  0  0  0  0
  184.6800  177.9610  138.3220 S   0  0  0  0  0  0  0  0  0  0  0  0
  182.1520  176.1850  138.6640 C   0  0  2  0  0  3  0  0  0  0  0  0
  183.9380  178.5320  139.8920 C   0  0  2  0  0  3  0  0  0  0  0  0
  182.2820  176.9450  137.3430 C   0  0  0  0  0  2  0  0  0  0  0  0
  183.1200  178.2210  137.4220 C   0  0  0  0  0  2  0  0  0  0  0  0
  181.0580  175.1460  138.5360 C   0  0  0  0  0  1  0  0  0  0  0  0
  181.8480  177.1000  139.8430 C   0  0  0  0  0  2  0  0  0  0  0  0
  1 10  1  0  0  0  0
  2  8  1  0  0  0  0
  3  5  1  0  0  0  0
  4  6  1  0  0  0  0
  5 11  1  0  0  0  0
  7  2  1  0  0  0  0
  8  4  2  0  0  0  0
  9 20  1  6  0  0  0
  9  3  1  0  0  0  0
  9  7  1  0  0  0  0
 10  6  2  0  0  0  0
 11  8  1  0  0  0  0
 11  1  2  0  0  0  0
 12  1  1  0  0  0  0
 13 12  1  6  0  0  0
 13 15  1  0  0  0  0
 14 19  1  0  0  0  0
 15 19  1  0  0  0  0
 16 17  1  0  0  0  0
 17 18  2  0  0  0  0
 17 13  1  0  0  0  0
 18 14  1  0  0  0  0
 22 24  1  0  0  0  0
 23 27  1  6  0  0  0
 23 28  1  0  0  0  0
 24 21  1  0  0  0  0
 24 20  1  1  0  0  0
 25 26  1  0  0  0  0
 25 23  1  0  0  0  0
 26 22  1  0  0  0  0
 28 21  1  0  0  0  0
M  END
>  <MODEL>
8

>  <REMARK>
 VINA RESULT:      -8.2      2.385      3.457
  Name = 
  4 active torsions:
  status: ('A' for Active; 'I' for Inactive)
    1  A    between atoms: C_1  and  O_2
    2  A    between atoms: O_2  and  C_3
    3  A    between atoms: C_10  and  C_13
    4  A    between atoms: C_10  and  C_25
                            x       y       z     vdW  Elec       q    Type
                         _______ _______ _______ _____ _____    ______ ____

>  <TORSDO>
F 4

$$$$
=
 OpenBabel10272401473D

 28 31  0  0  1  0  0  0  0  0999 V2000
  187.2980  177.6680  145.7560 C   0  0  0  0  0  0  0  0  0  0  0  0
  184.0130  178.5840  144.0340 C   0  0  0  0  0  2  0  0  0  0  0  0
  186.4990  178.1200  142.3040 C   0  0  0  0  0  2  0  0  0  0  0  0
  184.9060  179.0290  146.3120 C   0  0  0  0  0  3  0  0  0  0  0  0
  186.5110  177.1010  143.4380 C   0  0  0  0  0  2  0  0  0  0  0  0
  185.9000  178.9400  147.2860 C   0  0  0  0  0  3  0  0  0  0  0  0
  184.4980  179.3900  142.9210 N   0  0  0  0  0  2  0  0  0  0  0  0
  185.0920  178.4380  145.0600 C   0  0  0  0  0  0  0  0  0  0  0  0
  185.0690  178.4890  141.9260 C   0  0  1  0  0  3  0  0  0  0  0  0
  187.0870  178.2630  147.0090 C   0  0  0  0  0  3  0  0  0  0  0  0
  186.2930  177.7550  144.7740 C   0  0  0  0  0  0  0  0  0  0  0  0
  188.4870  176.9790  145.4600 O   0  0  0  0  0  0  0  0  0  0  0  0
  189.8010  177.3530  145.8840 C   0  0  1  0  0  3  0  0  0  0  0  0
  192.2140  175.9580  146.8060 C   0  0  0  0  0  2  0  0  0  0  0  0
  190.0460  177.0300  147.3680 C   0  0  0  0  0  2  0  0  0  0  0  0
  190.7200  177.1110  143.5960 F   0  0  0  0  0  0  0  0  0  0  0  0
  190.8750  176.8840  144.9250 C   0  0  0  0  0  0  0  0  0  0  0  0
  191.9580  176.2140  145.3480 C   0  0  0  0  0  3  0  0  0  0  0  0
  190.9020  175.7810  147.5550 C   0  0  0  0  0  2  0  0  0  0  0  0
  185.0770  179.1670  140.5610 C   0  0  0  0  0  2  0  0  0  0  0  0
  185.0820  178.0550  138.2910 C   0  0  0  0  0  2  0  0  0  0  0  0
  182.7480  179.3780  139.0700 S   0  0  0  0  0  0  0  0  0  0  0  0
  183.3400  177.6610  136.5470 C   0  0  2  0  0  3  0  0  0  0  0  0
  184.2450  178.4270  139.5140 C   0  0  2  0  0  3  0  0  0  0  0  0
  181.9330  177.5490  137.1380 C   0  0  0  0  0  2  0  0  0  0  0  0
  181.8440  177.8610  138.6320 C   0  0  0  0  0  2  0  0  0  0  0  0
  183.3540  177.0260  135.1730 C   0  0  0  0  0  1  0  0  0  0  0  0
  184.4000  177.0050  137.4220 C   0  0  0  0  0  2  0  0  0  0  0  0
  1 10  1  0  0  0  0
  2  8  1  0  0  0  0
  3  5  1  0  0  0  0
  4  6  1  0  0  0  0
  5 11  1  0  0  0  0
  7  2  1  0  0  0  0
  8  4  2  0  0  0  0
  9 20  1  6  0  0  0
  9  3  1  0  0  0  0
  9  7  1  0  0  0  0
 10  6  2  0  0  0  0
 11  8  1  0  0  0  0
 11  1  2  0  0  0  0
 12  1  1  0  0  0  0
 13 12  1  6  0  0  0
 13 15  1  0  0  0  0
 14 19  1  0  0  0  0
 15 19  1  0  0  0  0
 16 17  1  0  0  0  0
 17 18  2  0  0  0  0
 17 13  1  0  0  0  0
 18 14  1  0  0  0  0
 21 24  1  0  0  0  0
 22 24  1  0  0  0  0
 23 27  1  6  0  0  0
 23 25  1  0  0  0  0
 23 28  1  0  0  0  0
 24 20  1  1  0  0  0
 25 26  1  0  0  0  0
 26 22  1  0  0  0  0
 28 21  1  0  0  0  0
M  END
>  <MODEL>
9

>  <REMARK>
 VINA RESULT:      -8.2      2.331      3.589
  Name = 
  4 active torsions:
  status: ('A' for Active; 'I' for Inactive)
    1  A    between atoms: C_1  and  O_2
    2  A    between atoms: O_2  and  C_3
    3  A    between atoms: C_10  and  C_13
    4  A    between atoms: C_10  and  C_25
                            x       y       z     vdW  Elec       q    Type
                         _______ _______ _______ _____ _____    ______ ____

>  <TORSDO>
F 4

$$$$
