=
 OpenBabel10272400553D

 25 28  0  0  1  0  0  0  0  0999 V2000
  188.7820  176.1030  143.0600 C   0  0  1  0  0  3  0  0  0  0  0  0
  188.2750  176.5740  144.4360 C   0  0  2  0  0  3  0  0  0  0  0  0
  191.1720  176.1920  144.0740 C   0  0  0  0  0  2  0  0  0  0  0  0
  188.8260  177.1020  141.9490 C   0  0  0  0  0  0  0  0  0  0  0  0
  186.3700  177.4970  145.7590 C   0  0  1  0  0  3  0  0  0  0  0  0
  189.2730  178.5290  139.6070 C   0  0  0  0  0  3  0  0  0  0  0  0
  190.5120  176.4840  145.4120 C   0  0  0  0  0  2  0  0  0  0  0  0
  189.9460  176.8650  141.1990 C   0  0  0  0  0  0  0  0  0  0  0  0
  190.2060  177.5640  140.0210 C   0  0  0  0  0  3  0  0  0  0  0  0
  188.8050  177.9130  146.4630 N   0  0  0  0  0  0  0  0  0  0  0  0
  189.7390  178.5900  147.3540 C   0  0  0  0  0  1  0  0  0  0  0  0
  186.9430  177.2970  144.3620 C   0  0  0  0  0  2  0  0  0  0  0  0
  188.1050  178.7610  140.3620 C   0  0  0  0  0  3  0  0  0  0  0  0
  190.2340  175.5280  143.0520 C   0  0  2  0  0  3  0  0  0  0  0  0
  190.7340  175.8780  141.7610 O   0  0  0  0  0  0  0  0  0  0  0  0
  187.3940  178.0220  146.7360 C   0  0  0  0  0  0  0  0  0  0  0  0
  187.8650  178.0320  141.5380 C   0  0  0  0  0  3  0  0  0  0  0  0
  187.0030  178.4980  147.8370 O   0  0  0  0  0  0  0  0  0  0  0  0
  189.3170  177.3970  145.1850 C   0  0  2  0  0  3  0  0  0  0  0  0
  185.1040  178.3580  145.7140 C   0  0  0  0  0  2  0  0  0  0  0  0
  184.9790  179.1620  144.4250 C   0  0  0  0  0  2  0  0  0  0  0  0
  183.3650  178.8600  143.6450 S   0  0  0  0  0  0  0  0  0  0  0  0
  184.0930  178.7280  142.0190 C   0  0  0  0  0  0  0  0  0  0  0  0
  183.6980  177.7090  141.1640 O   0  0  0  0  0  0  0  0  0  0  0  0
  184.9670  179.5550  141.6530 O   0  0  0  0  0  1  0  0  0  0  0  0
  1  4  1  6  0  0  0
  1  2  1  0  0  0  0
  2 12  1  6  0  0  0
  2 19  1  0  0  0  0
  3  7  1  0  0  0  0
  5 20  1  6  0  0  0
  5 16  1  0  0  0  0
  6  9  2  0  0  0  0
  6 13  1  0  0  0  0
  8 15  1  0  0  0  0
  8  4  2  0  0  0  0
  9  8  1  0  0  0  0
 10 16  1  0  0  0  0
 10 11  1  0  0  0  0
 12  5  1  0  0  0  0
 13 17  2  0  0  0  0
 14  1  1  0  0  0  0
 14  3  1  1  0  0  0
 15 14  1  0  0  0  0
 16 18  2  0  0  0  0
 17  4  1  0  0  0  0
 19  7  1  1  0  0  0
 19 10  1  0  0  0  0
 21 20  1  0  0  0  0
 22 21  1  0  0  0  0
 23 22  1  0  0  0  0
 24 23  2  0  0  0  0
 25 23  1  0  0  0  0
M  END
>  <MODEL>
1

>  <REMARK>
 VINA RESULT:      -7.6      0.000      0.000
  Name = 
  4 active torsions:
  status: ('A' for Active; 'I' for Inactive)
    1  A    between atoms: C_2  and  S_21
    2  A    between atoms: C_6  and  C_15
    3  A    between atoms: C_15  and  C_25
    4  A    between atoms: S_21  and  C_25
                            x       y       z     vdW  Elec       q    Type
                         _______ _______ _______ _____ _____    ______ ____

>  <TORSDO>
F 4

$$$$
=
 OpenBabel10272400553D

 25 28  0  0  1  0  0  0  0  0999 V2000
  186.4520  177.0940  144.4460 C   0  0  1  0  0  3  0  0  0  0  0  0
  187.4820  176.8950  143.3180 C   0  0  2  0  0  3  0  0  0  0  0  0
  185.4150  178.9630  142.9700 C   0  0  0  0  0  2  0  0  0  0  0  0
  186.8930  177.8140  145.6800 C   0  0  0  0  0  0  0  0  0  0  0  0
  189.6540  175.8780  142.6250 C   0  0  1  0  0  3  0  0  0  0  0  0
  187.0940  179.1930  148.0840 C   0  0  0  0  0  3  0  0  0  0  0  0
  186.3860  178.5370  141.8800 C   0  0  0  0  0  2  0  0  0  0  0  0
  185.8580  178.5980  146.1150 C   0  0  0  0  0  0  0  0  0  0  0  0
  185.9250  179.3080  147.3130 C   0  0  0  0  0  3  0  0  0  0  0  0
  188.7580  178.0040  141.4950 N   0  0  0  0  0  0  0  0  0  0  0  0
  188.9810  179.0960  140.5560 C   0  0  0  0  0  1  0  0  0  0  0  0
  188.7880  176.2960  143.8060 C   0  0  0  0  0  2  0  0  0  0  0  0
  188.1530  178.3680  147.6540 C   0  0  0  0  0  3  0  0  0  0  0  0
  185.1680  177.8840  144.0370 C   0  0  2  0  0  3  0  0  0  0  0  0
  184.7970  178.5750  145.2300 O   0  0  0  0  0  0  0  0  0  0  0  0
  189.7320  176.9430  141.5580 C   0  0  0  0  0  0  0  0  0  0  0  0
  188.0510  177.6550  146.4470 C   0  0  0  0  0  3  0  0  0  0  0  0
  190.6240  176.8560  140.6700 O   0  0  0  0  0  0  0  0  0  0  0  0
  187.7170  178.1720  142.5190 C   0  0  2  0  0  3  0  0  0  0  0  0
  191.0360  175.4130  143.0950 C   0  0  0  0  0  2  0  0  0  0  0  0
  191.4910  176.1070  144.3740 C   0  0  0  0  0  2  0  0  0  0  0  0
  192.2180  174.9000  145.5230 S   0  0  0  0  0  0  0  0  0  0  0  0
  192.0930  176.0280  146.9020 C   0  0  0  0  0  0  0  0  0  0  0  0
  192.5590  175.6470  148.1530 O   0  0  0  0  0  1  0  0  0  0  0  0
  191.5760  177.1630  146.7420 O   0  0  0  0  0  0  0  0  0  0  0  0
  1  4  1  1  0  0  0
  2 12  1  1  0  0  0
  2  1  1  0  0  0  0
  4  8  2  0  0  0  0
  4 17  1  0  0  0  0
  5 20  1  1  0  0  0
  5 12  1  0  0  0  0
  7  3  1  0  0  0  0
  8  9  1  0  0  0  0
  9  6  2  0  0  0  0
 10 16  1  0  0  0  0
 10 19  1  0  0  0  0
 11 10  1  0  0  0  0
 13  6  1  0  0  0  0
 14  3  1  6  0  0  0
 14  1  1  0  0  0  0
 14 15  1  0  0  0  0
 15  8  1  0  0  0  0
 16  5  1  0  0  0  0
 17 13  2  0  0  0  0
 18 16  2  0  0  0  0
 19  7  1  6  0  0  0
 19  2  1  0  0  0  0
 20 21  1  0  0  0  0
 21 22  1  0  0  0  0
 22 23  1  0  0  0  0
 23 24  1  0  0  0  0
 25 23  2  0  0  0  0
M  END
>  <MODEL>
2

>  <REMARK>
 VINA RESULT:      -7.0      3.017      6.861
  Name = 
  4 active torsions:
  status: ('A' for Active; 'I' for Inactive)
    1  A    between atoms: C_2  and  S_21
    2  A    between atoms: C_6  and  C_15
    3  A    between atoms: C_15  and  C_25
    4  A    between atoms: S_21  and  C_25
                            x       y       z     vdW  Elec       q    Type
                         _______ _______ _______ _____ _____    ______ ____

>  <TORSDO>
F 4

$$$$
=
 OpenBabel10272400553D

 25 28  0  0  1  0  0  0  0  0999 V2000
  189.4730  177.9790  139.7620 C   0  0  1  0  0  3  0  0  0  0  0  0
  188.4210  177.7560  138.6600 C   0  0  2  0  0  3  0  0  0  0  0  0
  190.9200  176.2050  138.5360 C   0  0  0  0  0  2  0  0  0  0  0  0
  189.2220  177.3720  141.1050 C   0  0  0  0  0  0  0  0  0  0  0  0
  186.0660  178.1150  137.9130 C   0  0  1  0  0  3  0  0  0  0  0  0
  189.3650  176.3670  143.6910 C   0  0  0  0  0  3  0  0  0  0  0  0
  189.8710  176.2190  137.4350 C   0  0  0  0  0  2  0  0  0  0  0  0
  190.4150  176.9290  141.6080 C   0  0  0  0  0  0  0  0  0  0  0  0
  190.5250  176.4150  142.9000 C   0  0  0  0  0  3  0  0  0  0  0  0
  187.4390  176.1140  137.0720 N   0  0  0  0  0  0  0  0  0  0  0  0
  187.4790  174.8700  136.3140 C   0  0  0  0  0  1  0  0  0  0  0  0
  187.0110  178.0980  139.1070 C   0  0  0  0  0  2  0  0  0  0  0  0
  188.1380  176.8440  143.1880 C   0  0  0  0  0  3  0  0  0  0  0  0
  190.9070  177.4610  139.4230 C   0  0  2  0  0  3  0  0  0  0  0  0
  191.4370  177.0660  140.6880 O   0  0  0  0  0  0  0  0  0  0  0  0
  186.2400  176.9130  137.0180 C   0  0  0  0  0  0  0  0  0  0  0  0
  188.0620  177.3680  141.8870 C   0  0  0  0  0  3  0  0  0  0  0  0
  185.3490  176.6500  136.1630 O   0  0  0  0  0  0  0  0  0  0  0  0
  188.4940  176.3530  138.0670 C   0  0  2  0  0  3  0  0  0  0  0  0
  184.6150  178.3070  138.3650 C   0  0  0  0  0  2  0  0  0  0  0  0
  184.4870  179.2360  139.5680 C   0  0  0  0  0  2  0  0  0  0  0  0
  183.4600  178.4640  140.8550 S   0  0  0  0  0  0  0  0  0  0  0  0
  184.6530  178.8350  142.1320 C   0  0  0  0  0  0  0  0  0  0  0  0
  184.6160  178.1450  143.3360 O   0  0  0  0  0  1  0  0  0  0  0  0
  185.5210  179.7250  141.9420 O   0  0  0  0  0  0  0  0  0  0  0  0
  1  4  1  1  0  0  0
  2 12  1  1  0  0  0
  2  1  1  0  0  0  0
  4  8  2  0  0  0  0
  4 17  1  0  0  0  0
  5 20  1  1  0  0  0
  5 12  1  0  0  0  0
  7  3  1  0  0  0  0
  8  9  1  0  0  0  0
  9  6  2  0  0  0  0
 10 19  1  0  0  0  0
 11 10  1  0  0  0  0
 13  6  1  0  0  0  0
 14  3  1  6  0  0  0
 14  1  1  0  0  0  0
 14 15  1  0  0  0  0
 15  8  1  0  0  0  0
 16 10  1  0  0  0  0
 16  5  1  0  0  0  0
 17 13  2  0  0  0  0
 18 16  2  0  0  0  0
 19  7  1  6  0  0  0
 19  2  1  0  0  0  0
 20 21  1  0  0  0  0
 21 22  1  0  0  0  0
 22 23  1  0  0  0  0
 23 24  1  0  0  0  0
 25 23  2  0  0  0  0
M  END
>  <MODEL>
3

>  <REMARK>
 VINA RESULT:      -6.8      3.144      6.061
  Name = 
  4 active torsions:
  status: ('A' for Active; 'I' for Inactive)
    1  A    between atoms: C_2  and  S_21
    2  A    between atoms: C_6  and  C_15
    3  A    between atoms: C_15  and  C_25
    4  A    between atoms: S_21  and  C_25
                            x       y       z     vdW  Elec       q    Type
                         _______ _______ _______ _____ _____    ______ ____

>  <TORSDO>
F 4

$$$$
=
 OpenBabel10272400553D

 25 28  0  0  1  0  0  0  0  0999 V2000
  190.1350  178.7930  143.7360 C   0  0  1  0  0  3  0  0  0  0  0  0
  189.5900  178.6300  142.3050 C   0  0  2  0  0  3  0  0  0  0  0  0
  192.2110  177.4500  142.9400 C   0  0  0  0  0  2  0  0  0  0  0  0
  189.5460  177.9400  144.8140 C   0  0  0  0  0  0  0  0  0  0  0  0
  187.6170  178.8120  140.7860 C   0  0  1  0  0  3  0  0  0  0  0  0
  188.9600  176.5350  147.1380 C   0  0  0  0  0  3  0  0  0  0  0  0
  191.6250  177.5190  141.5390 C   0  0  0  0  0  2  0  0  0  0  0  0
  190.5490  177.5710  145.6690 C   0  0  0  0  0  0  0  0  0  0  0  0
  190.2940  176.8630  146.8420 C   0  0  0  0  0  3  0  0  0  0  0  0
  189.5310  177.1720  140.2920 N   0  0  0  0  0  0  0  0  0  0  0  0
  190.0540  176.0900  139.4680 C   0  0  0  0  0  1  0  0  0  0  0  0
  188.0760  178.7110  142.2350 C   0  0  0  0  0  2  0  0  0  0  0  0
  187.9200  176.9330  146.2740 C   0  0  0  0  0  3  0  0  0  0  0  0
  191.6660  178.5250  143.8950 C   0  0  2  0  0  3  0  0  0  0  0  0
  191.7850  177.9910  145.2140 O   0  0  0  0  0  0  0  0  0  0  0  0
  188.3040  177.8110  139.8890 C   0  0  0  0  0  0  0  0  0  0  0  0
  188.2080  177.6570  145.1050 C   0  0  0  0  0  3  0  0  0  0  0  0
  187.8280  177.5880  138.7420 O   0  0  0  0  0  0  0  0  0  0  0  0
  190.1140  177.3690  141.6270 C   0  0  2  0  0  3  0  0  0  0  0  0
  186.0900  178.7400  140.6880 C   0  0  0  0  0  2  0  0  0  0  0  0
  185.3910  179.2620  141.9380 C   0  0  0  0  0  2  0  0  0  0  0  0
  183.7720  178.4580  142.1380 S   0  0  0  0  0  0  0  0  0  0  0  0
  183.7600  178.7560  143.8990 C   0  0  0  0  0  0  0  0  0  0  0  0
  184.9580  178.8780  144.5890 O   0  0  0  0  0  1  0  0  0  0  0  0
  182.6660  178.8500  144.5140 O   0  0  0  0  0  0  0  0  0  0  0  0
  1 14  1  0  0  0  0
  1  4  1  1  0  0  0
  2 12  1  1  0  0  0
  2  1  1  0  0  0  0
  4 17  2  0  0  0  0
  4  8  1  0  0  0  0
  5 20  1  1  0  0  0
  5 12  1  0  0  0  0
  7  3  1  0  0  0  0
  8  9  2  0  0  0  0
  9  6  1  0  0  0  0
 10 19  1  0  0  0  0
 11 10  1  0  0  0  0
 13  6  2  0  0  0  0
 14  3  1  6  0  0  0
 14 15  1  0  0  0  0
 15  8  1  0  0  0  0
 16 10  1  0  0  0  0
 16  5  1  0  0  0  0
 17 13  1  0  0  0  0
 18 16  2  0  0  0  0
 19  7  1  6  0  0  0
 19  2  1  0  0  0  0
 20 21  1  0  0  0  0
 21 22  1  0  0  0  0
 22 23  1  0  0  0  0
 23 25  2  0  0  0  0
 23 24  1  0  0  0  0
M  END
>  <MODEL>
4

>  <REMARK>
 VINA RESULT:      -6.8      2.437      4.965
  Name = 
  4 active torsions:
  status: ('A' for Active; 'I' for Inactive)
    1  A    between atoms: C_2  and  S_21
    2  A    between atoms: C_6  and  C_15
    3  A    between atoms: C_15  and  C_25
    4  A    between atoms: S_21  and  C_25
                            x       y       z     vdW  Elec       q    Type
                         _______ _______ _______ _____ _____    ______ ____

>  <TORSDO>
F 4

$$$$
=
 OpenBabel10272400553D

 25 28  0  0  1  0  0  0  0  0999 V2000
  185.5120  179.3100  141.8490 C   0  0  1  0  0  3  0  0  0  0  0  0
  186.9450  178.7490  141.7810 C   0  0  2  0  0  3  0  0  0  0  0  0
  185.3540  178.2170  144.2000 C   0  0  0  0  0  2  0  0  0  0  0  0
  184.4490  178.6170  141.0580 C   0  0  0  0  0  0  0  0  0  0  0  0
  188.9290  178.2470  140.3510 C   0  0  1  0  0  3  0  0  0  0  0  0
  182.0850  177.6630  139.9540 C   0  0  0  0  0  3  0  0  0  0  0  0
  186.8300  177.8790  144.0600 C   0  0  0  0  0  2  0  0  0  0  0  0
  183.2930  178.6250  141.7910 C   0  0  0  0  0  0  0  0  0  0  0  0
  182.0890  178.1510  141.2710 C   0  0  0  0  0  3  0  0  0  0  0  0
  188.4560  176.9050  142.4900 N   0  0  0  0  0  0  0  0  0  0  0  0
  188.8050  175.7830  143.3500 C   0  0  0  0  0  1  0  0  0  0  0  0
  187.4350  178.5430  140.3590 C   0  0  0  0  0  2  0  0  0  0  0  0
  183.2670  177.6750  139.1860 C   0  0  0  0  0  3  0  0  0  0  0  0
  184.8890  179.3580  143.2800 C   0  0  2  0  0  3  0  0  0  0  0  0
  183.4940  179.1490  143.0530 O   0  0  0  0  0  0  0  0  0  0  0  0
  189.3220  177.2150  141.3790 C   0  0  0  0  0  0  0  0  0  0  0  0
  184.4620  178.1710  139.7330 C   0  0  0  0  0  3  0  0  0  0  0  0
  190.4570  176.6700  141.2980 O   0  0  0  0  0  0  0  0  0  0  0  0
  187.1120  177.4850  142.6180 C   0  0  2  0  0  3  0  0  0  0  0  0
  189.4080  177.8860  138.9410 C   0  0  0  0  0  2  0  0  0  0  0  0
  188.5690  176.7910  138.2920 C   0  0  0  0  0  2  0  0  0  0  0  0
  188.4980  177.0340  136.4910 S   0  0  0  0  0  0  0  0  0  0  0  0
  187.1300  178.1730  136.6250 C   0  0  0  0  0  0  0  0  0  0  0  0
  187.3720  179.5320  136.7770 O   0  0  0  0  0  1  0  0  0  0  0  0
  185.9480  177.7440  136.5870 O   0  0  0  0  0  0  0  0  0  0  0  0
  1  4  1  6  0  0  0
  1 14  1  0  0  0  0
  2 12  1  6  0  0  0
  2  1  1  0  0  0  0
  2 19  1  0  0  0  0
  4  8  1  0  0  0  0
  5 20  1  6  0  0  0
  5 12  1  0  0  0  0
  5 16  1  0  0  0  0
  6  9  1  0  0  0  0
  7  3  1  0  0  0  0
  8 15  1  0  0  0  0
  9  8  2  0  0  0  0
 10 19  1  0  0  0  0
 10 11  1  0  0  0  0
 13 17  1  0  0  0  0
 13  6  2  0  0  0  0
 14  3  1  1  0  0  0
 15 14  1  0  0  0  0
 16 10  1  0  0  0  0
 17  4  2  0  0  0  0
 18 16  2  0  0  0  0
 19  7  1  1  0  0  0
 21 20  1  0  0  0  0
 22 23  1  0  0  0  0
 22 21  1  0  0  0  0
 23 24  1  0  0  0  0
 25 23  2  0  0  0  0
M  END
>  <MODEL>
5

>  <REMARK>
 VINA RESULT:      -6.7      2.970      6.116
  Name = 
  4 active torsions:
  status: ('A' for Active; 'I' for Inactive)
    1  A    between atoms: C_2  and  S_21
    2  A    between atoms: C_6  and  C_15
    3  A    between atoms: C_15  and  C_25
    4  A    between atoms: S_21  and  C_25
                            x       y       z     vdW  Elec       q    Type
                         _______ _______ _______ _____ _____    ______ ____

>  <TORSDO>
F 4

$$$$
=
 OpenBabel10272400553D

 25 28  0  0  1  0  0  0  0  0999 V2000
  185.0030  179.5630  142.9660 C   0  0  1  0  0  3  0  0  0  0  0  0
  186.3440  178.9410  142.5360 C   0  0  2  0  0  3  0  0  0  0  0  0
  185.3500  178.3720  145.2480 C   0  0  0  0  0  2  0  0  0  0  0  0
  183.7450  178.9570  142.4320 C   0  0  0  0  0  0  0  0  0  0  0  0
  187.8970  178.4160  140.6530 C   0  0  1  0  0  3  0  0  0  0  0  0
  181.1360  178.1650  141.8990 C   0  0  0  0  0  3  0  0  0  0  0  0
  186.7280  177.9730  144.7440 C   0  0  0  0  0  2  0  0  0  0  0  0
  182.7990  178.9840  143.4220 C   0  0  0  0  0  0  0  0  0  0  0  0
  181.4810  178.5910  143.1920 C   0  0  0  0  0  3  0  0  0  0  0  0
  187.8760  177.0000  142.7960 N   0  0  0  0  0  0  0  0  0  0  0  0
  188.3570  175.8240  143.5090 C   0  0  0  0  0  1  0  0  0  0  0  0
  186.4670  178.7790  141.0320 C   0  0  0  0  0  2  0  0  0  0  0  0
  182.0990  178.1580  140.8690 C   0  0  0  0  0  3  0  0  0  0  0  0
  184.7430  179.5740  144.5060 C   0  0  2  0  0  3  0  0  0  0  0  0
  183.3250  179.4400  144.6160 O   0  0  0  0  0  0  0  0  0  0  0  0
  188.4670  177.3210  141.5210 C   0  0  0  0  0  0  0  0  0  0  0  0
  183.4150  178.5730  141.1290 C   0  0  0  0  0  3  0  0  0  0  0  0
  189.5180  176.7280  141.1500 O   0  0  0  0  0  0  0  0  0  0  0  0
  186.6350  177.6340  143.2650 C   0  0  2  0  0  3  0  0  0  0  0  0
  188.0050  178.0990  139.1580 C   0  0  0  0  0  2  0  0  0  0  0  0
  189.3670  178.4580  138.5740 C   0  0  0  0  0  2  0  0  0  0  0  0
  189.7480  177.3870  137.1550 S   0  0  0  0  0  0  0  0  0  0  0  0
  190.8590  176.3770  138.1220 C   0  0  0  0  0  0  0  0  0  0  0  0
  190.6470  175.0090  138.2170 O   0  0  0  0  0  0  0  0  0  0  0  0
  191.8300  176.9070  138.7220 O   0  0  0  0  0  1  0  0  0  0  0  0
  1  4  1  6  0  0  0
  1 14  1  0  0  0  0
  2 12  1  6  0  0  0
  2  1  1  0  0  0  0
  2 19  1  0  0  0  0
  4  8  1  0  0  0  0
  5 20  1  6  0  0  0
  5 12  1  0  0  0  0
  5 16  1  0  0  0  0
  6  9  1  0  0  0  0
  7  3  1  0  0  0  0
  8 15  1  0  0  0  0
  9  8  2  0  0  0  0
 10 19  1  0  0  0  0
 10 11  1  0  0  0  0
 13 17  1  0  0  0  0
 13  6  2  0  0  0  0
 14 15  1  0  0  0  0
 14  3  1  1  0  0  0
 16 10  1  0  0  0  0
 17  4  2  0  0  0  0
 18 16  2  0  0  0  0
 19  7  1  1  0  0  0
 21 20  1  0  0  0  0
 22 23  1  0  0  0  0
 22 21  1  0  0  0  0
 23 24  2  0  0  0  0
 23 25  1  0  0  0  0
M  END
>  <MODEL>
6

>  <REMARK>
 VINA RESULT:      -6.7      2.934      6.592
  Name = 
  4 active torsions:
  status: ('A' for Active; 'I' for Inactive)
    1  A    between atoms: C_2  and  S_21
    2  A    between atoms: C_6  and  C_15
    3  A    between atoms: C_15  and  C_25
    4  A    between atoms: S_21  and  C_25
                            x       y       z     vdW  Elec       q    Type
                         _______ _______ _______ _____ _____    ______ ____

>  <TORSDO>
F 4

$$$$
=
 OpenBabel10272400553D

 25 28  0  0  1  0  0  0  0  0999 V2000
  189.7880  176.4860  140.1910 C   0  0  1  0  0  3  0  0  0  0  0  0
  189.6950  176.7870  141.6980 C   0  0  2  0  0  3  0  0  0  0  0  0
  192.1780  177.4980  140.2860 C   0  0  0  0  0  2  0  0  0  0  0  0
  189.0540  177.3860  139.2490 C   0  0  0  0  0  0  0  0  0  0  0  0
  188.2230  176.9840  143.7040 C   0  0  1  0  0  3  0  0  0  0  0  0
  188.0540  178.7840  137.0660 C   0  0  0  0  0  3  0  0  0  0  0  0
  192.0040  177.5760  141.7940 C   0  0  0  0  0  2  0  0  0  0  0  0
  189.8200  177.5540  138.1280 C   0  0  0  0  0  0  0  0  0  0  0  0
  189.3540  178.2530  137.0150 C   0  0  0  0  0  3  0  0  0  0  0  0
  190.4190  178.3050  143.5300 N   0  0  0  0  0  0  0  0  0  0  0  0
  191.3050  179.3150  144.0930 C   0  0  0  0  0  1  0  0  0  0  0  0
  188.2670  176.9580  142.1820 C   0  0  0  0  0  2  0  0  0  0  0  0
  187.2510  178.5930  138.2090 C   0  0  0  0  0  3  0  0  0  0  0  0
  191.2350  176.4940  139.6030 C   0  0  2  0  0  3  0  0  0  0  0  0
  191.0580  176.9540  138.2630 O   0  0  0  0  0  0  0  0  0  0  0  0
  189.2730  177.8900  144.3000 C   0  0  0  0  0  0  0  0  0  0  0  0
  187.7440  177.8730  139.3090 C   0  0  0  0  0  3  0  0  0  0  0  0
  189.1750  178.2290  145.5110 O   0  0  0  0  0  0  0  0  0  0  0  0
  190.5680  177.9680  142.1070 C   0  0  2  0  0  3  0  0  0  0  0  0
  186.8120  177.3080  144.2070 C   0  0  0  0  0  2  0  0  0  0  0  0
  186.2210  178.5510  143.5500 C   0  0  0  0  0  2  0  0  0  0  0  0
  184.4080  178.4280  143.4840 S   0  0  0  0  0  0  0  0  0  0  0  0
  184.3950  178.4990  141.7000 C   0  0  0  0  0  0  0  0  0  0  0  0
  185.1300  179.4750  141.0400 O   0  0  0  0  0  0  0  0  0  0  0  0
  183.7160  177.6690  141.0420 O   0  0  0  0  0  1  0  0  0  0  0  0
  1  4  1  6  0  0  0
  1  2  1  0  0  0  0
  2 19  1  0  0  0  0
  2 12  1  6  0  0  0
  3  7  1  0  0  0  0
  4 17  1  0  0  0  0
  5 20  1  6  0  0  0
  5 16  1  0  0  0  0
  6 13  1  0  0  0  0
  8 15  1  0  0  0  0
  8  4  2  0  0  0  0
  9  6  2  0  0  0  0
  9  8  1  0  0  0  0
 10 11  1  0  0  0  0
 10 16  1  0  0  0  0
 12  5  1  0  0  0  0
 13 17  2  0  0  0  0
 14  1  1  0  0  0  0
 14  3  1  1  0  0  0
 15 14  1  0  0  0  0
 16 18  2  0  0  0  0
 19  7  1  1  0  0  0
 19 10  1  0  0  0  0
 21 20  1  0  0  0  0
 22 21  1  0  0  0  0
 23 22  1  0  0  0  0
 24 23  2  0  0  0  0
 25 23  1  0  0  0  0
M  END
>  <MODEL>
7

>  <REMARK>
 VINA RESULT:      -6.6      1.931      2.950
  Name = 
  4 active torsions:
  status: ('A' for Active; 'I' for Inactive)
    1  A    between atoms: C_2  and  S_21
    2  A    between atoms: C_6  and  C_15
    3  A    between atoms: C_15  and  C_25
    4  A    between atoms: S_21  and  C_25
                            x       y       z     vdW  Elec       q    Type
                         _______ _______ _______ _____ _____    ______ ____

>  <TORSDO>
F 4

$$$$
=
 OpenBabel10272400553D

 25 28  0  0  1  0  0  0  0  0999 V2000
  188.6850  176.6490  145.1260 C   0  0  1  0  0  3  0  0  0  0  0  0
  187.3000  177.2440  145.4400 C   0  0  2  0  0  3  0  0  0  0  0  0
  189.4130  177.4820  147.4760 C   0  0  0  0  0  2  0  0  0  0  0  0
  189.5750  177.3980  144.1870 C   0  0  0  0  0  0  0  0  0  0  0  0
  185.0720  177.9380  144.5530 C   0  0  1  0  0  3  0  0  0  0  0  0
  191.6730  178.4130  142.6750 C   0  0  0  0  0  3  0  0  0  0  0  0
  187.9600  177.8650  147.7080 C   0  0  0  0  0  2  0  0  0  0  0  0
  190.8640  177.2880  144.6340 C   0  0  0  0  0  0  0  0  0  0  0  0
  191.9410  177.7880  143.9050 C   0  0  0  0  0  3  0  0  0  0  0  0
  186.0690  179.0340  146.6510 N   0  0  0  0  0  0  0  0  0  0  0  0
  185.9720  180.0670  147.6740 C   0  0  0  0  0  1  0  0  0  0  0  0
  186.5150  177.6110  144.1940 C   0  0  0  0  0  2  0  0  0  0  0  0
  190.3500  178.5080  142.1980 C   0  0  0  0  0  3  0  0  0  0  0  0
  189.6090  176.4350  146.3670 C   0  0  2  0  0  3  0  0  0  0  0  0
  190.9260  176.6370  145.8520 O   0  0  0  0  0  0  0  0  0  0  0  0
  184.9650  178.8630  145.7410 C   0  0  0  0  0  0  0  0  0  0  0  0
  189.2860  177.9830  142.9500 C   0  0  0  0  0  3  0  0  0  0  0  0
  183.8660  179.4380  145.9730 O   0  0  0  0  0  0  0  0  0  0  0  0
  187.3810  178.4150  146.4130 C   0  0  2  0  0  3  0  0  0  0  0  0
  184.3060  178.4570  143.3320 C   0  0  0  0  0  2  0  0  0  0  0  0
  185.0960  178.3190  142.0350 C   0  0  0  0  0  2  0  0  0  0  0  0
  183.9680  178.0680  140.6320 S   0  0  0  0  0  0  0  0  0  0  0  0
  184.9350  179.1290  139.5700 C   0  0  0  0  0  0  0  0  0  0  0  0
  186.1900  178.7200  139.1400 O   0  0  0  0  0  0  0  0  0  0  0  0
  184.4820  180.2480  139.2170 O   0  0  0  0  0  1  0  0  0  0  0  0
  1  4  1  6  0  0  0
  1  2  1  0  0  0  0
  1 14  1  0  0  0  0
  2 12  1  6  0  0  0
  2 19  1  0  0  0  0
  3  7  1  0  0  0  0
  4  8  1  0  0  0  0
  5 20  1  6  0  0  0
  5 16  1  0  0  0  0
  6  9  1  0  0  0  0
  8 15  1  0  0  0  0
  9  8  2  0  0  0  0
 10 11  1  0  0  0  0
 12  5  1  0  0  0  0
 13  6  2  0  0  0  0
 13 17  1  0  0  0  0
 14  3  1  1  0  0  0
 15 14  1  0  0  0  0
 16 18  2  0  0  0  0
 16 10  1  0  0  0  0
 17  4  2  0  0  0  0
 19 10  1  0  0  0  0
 19  7  1  1  0  0  0
 21 20  1  0  0  0  0
 22 21  1  0  0  0  0
 23 22  1  0  0  0  0
 24 23  2  0  0  0  0
 25 23  1  0  0  0  0
M  END
>  <MODEL>
8

>  <REMARK>
 VINA RESULT:      -6.6      2.183      3.069
  Name = 
  4 active torsions:
  status: ('A' for Active; 'I' for Inactive)
    1  A    between atoms: C_2  and  S_21
    2  A    between atoms: C_6  and  C_15
    3  A    between atoms: C_15  and  C_25
    4  A    between atoms: S_21  and  C_25
                            x       y       z     vdW  Elec       q    Type
                         _______ _______ _______ _____ _____    ______ ____

>  <TORSDO>
F 4

$$$$
=
 OpenBabel10272400553D

 25 28  0  0  1  0  0  0  0  0999 V2000
  189.7810  176.5150  140.2710 C   0  0  1  0  0  3  0  0  0  0  0  0
  189.6960  176.7990  141.7820 C   0  0  2  0  0  3  0  0  0  0  0  0
  192.1350  177.6100  140.3470 C   0  0  0  0  0  2  0  0  0  0  0  0
  189.0040  177.3960  139.3470 C   0  0  0  0  0  0  0  0  0  0  0  0
  188.2420  176.9260  143.8080 C   0  0  1  0  0  3  0  0  0  0  0  0
  187.9290  178.7780  137.1890 C   0  0  0  0  0  3  0  0  0  0  0  0
  191.9770  177.6680  141.8580 C   0  0  0  0  0  2  0  0  0  0  0  0
  189.7500  177.6020  138.2180 C   0  0  0  0  0  0  0  0  0  0  0  0
  189.2460  178.2940  137.1180 C   0  0  0  0  0  3  0  0  0  0  0  0
  190.3870  178.3250  143.6190 N   0  0  0  0  0  0  0  0  0  0  0  0
  191.2450  179.3610  144.1820 C   0  0  0  0  0  1  0  0  0  0  0  0
  188.2680  176.9140  142.2850 C   0  0  0  0  0  2  0  0  0  0  0  0
  187.1470  178.5480  138.3390 C   0  0  0  0  0  3  0  0  0  0  0  0
  191.2190  176.5790  139.6660 C   0  0  2  0  0  3  0  0  0  0  0  0
  191.0100  177.0450  138.3330 O   0  0  0  0  0  0  0  0  0  0  0  0
  189.2660  177.8630  144.3990 C   0  0  0  0  0  0  0  0  0  0  0  0
  187.6790  177.8360  139.4270 C   0  0  0  0  0  3  0  0  0  0  0  0
  189.1720  178.1870  145.6150 O   0  0  0  0  0  0  0  0  0  0  0  0
  190.5320  178.0060  142.1920 C   0  0  2  0  0  3  0  0  0  0  0  0
  186.8270  177.1950  144.3300 C   0  0  0  0  0  2  0  0  0  0  0  0
  186.1220  178.3190  143.5780 C   0  0  0  0  0  2  0  0  0  0  0  0
  184.3980  178.4680  144.1360 S   0  0  0  0  0  0  0  0  0  0  0  0
  184.8950  178.8970  145.7960 C   0  0  0  0  0  0  0  0  0  0  0  0
  184.4900  178.1100  146.8660 O   0  0  0  0  0  1  0  0  0  0  0  0
  185.6070  179.9150  145.9970 O   0  0  0  0  0  0  0  0  0  0  0  0
  1  4  1  6  0  0  0
  1  2  1  0  0  0  0
  2 19  1  0  0  0  0
  2 12  1  6  0  0  0
  3  7  1  0  0  0  0
  4 17  1  0  0  0  0
  5 20  1  6  0  0  0
  5 16  1  0  0  0  0
  6 13  1  0  0  0  0
  8 15  1  0  0  0  0
  8  4  2  0  0  0  0
  9  6  2  0  0  0  0
  9  8  1  0  0  0  0
 10 11  1  0  0  0  0
 10 16  1  0  0  0  0
 12  5  1  0  0  0  0
 13 17  2  0  0  0  0
 14  1  1  0  0  0  0
 14  3  1  1  0  0  0
 15 14  1  0  0  0  0
 16 18  2  0  0  0  0
 19  7  1  1  0  0  0
 19 10  1  0  0  0  0
 21 22  1  0  0  0  0
 21 20  1  0  0  0  0
 22 23  1  0  0  0  0
 23 25  2  0  0  0  0
 23 24  1  0  0  0  0
M  END
>  <MODEL>
9

>  <REMARK>
 VINA RESULT:      -6.6      2.338      3.265
  Name = 
  4 active torsions:
  status: ('A' for Active; 'I' for Inactive)
    1  A    between atoms: C_2  and  S_21
    2  A    between atoms: C_6  and  C_15
    3  A    between atoms: C_15  and  C_25
    4  A    between atoms: S_21  and  C_25
                            x       y       z     vdW  Elec       q    Type
                         _______ _______ _______ _____ _____    ______ ____

>  <TORSDO>
F 4

$$$$
