=
 OpenBabel10272414303D

 43 49  0  0  1  0  0  0  0  0999 V2000
  191.7570  176.2450  147.2100 C   0  0  0  0  0  0  0  0  0  0  0  0
  187.1620  177.3300  145.4960 C   0  0  1  0  0  3  0  0  0  0  0  0
  189.4920  177.1000  147.0410 C   0  0  0  0  0  0  0  0  0  0  0  0
  191.8670  176.2400  145.8180 C   0  0  0  0  0  3  0  0  0  0  0  0
  192.9010  175.7970  148.0450 C   0  0  0  0  0  1  0  0  0  0  0  0
  189.5940  177.0700  145.6260 C   0  0  0  0  0  0  0  0  0  0  0  0
  190.5730  176.6720  147.8180 C   0  0  0  0  0  3  0  0  0  0  0  0
  190.7930  176.6600  145.0300 C   0  0  0  0  0  3  0  0  0  0  0  0
  188.2620  177.1040  143.3900 C   0  0  1  0  0  3  0  0  0  0  0  0
  188.4630  177.6300  144.8060 C   0  0  1  0  0  3  0  0  0  0  0  0
  187.1210  178.0700  146.8230 C   0  0  0  0  0  2  0  0  0  0  0  0
  186.0950  177.6130  144.4630 C   0  0  2  0  0  3  0  0  0  0  0  0
  186.7440  177.0830  143.1830 C   0  0  0  0  0  2  0  0  0  0  0  0
  188.2080  177.4930  147.7460 C   0  0  0  0  0  2  0  0  0  0  0  0
  185.8110  179.1130  144.3390 C   0  0  0  0  0  2  0  0  0  0  0  0
  184.3290  179.4260  144.5130 C   0  0  0  0  0  2  0  0  0  0  0  0
  181.1140  178.4410  142.6350 C   0  0  0  0  0  2  0  0  0  0  0  0
  183.5810  178.0380  141.0560 C   0  0  0  0  0  2  0  0  0  0  0  0
  182.2690  178.4110  140.3580 C   0  0  0  0  0  2  0  0  0  0  0  0
  182.0410  179.1870  143.5870 C   0  0  0  0  0  2  0  0  0  0  0  0
  183.4930  178.7490  143.4370 C   0  0  0  0  0  3  0  0  0  0  0  0
  181.2040  179.0620  141.2480 C   0  0  0  0  0  2  0  0  0  0  0  0
  184.0450  179.0860  142.0550 C   0  0  0  0  0  2  0  0  0  0  0  0
  188.8610  178.0730  142.3790 C   0  0  0  0  0  2  0  0  0  0  0  0
  188.9380  177.4570  140.9920 C   0  0  1  0  0  3  0  0  0  0  0  0
  188.6930  175.8340  138.1680 C   0  0  0  0  0  1  0  0  0  0  0  0
  188.7330  177.3030  137.7400 C   0  0  2  0  0  0  0  0  0  0  0  0
  188.5130  178.4230  139.9500 C   0  0  2  0  0  3  0  0  0  0  0  0
  190.3710  177.2580  140.5990 C   0  0  0  0  0  2  0  0  0  0  0  0
  187.0260  178.3250  139.6220 C   0  0  0  0  0  2  0  0  0  0  0  0
  189.3680  178.1500  138.7880 N   0  0  1  0  0  0  0  0  0  0  0  0
  187.2720  177.7440  137.4690 C   0  0  0  0  0  2  0  0  0  0  0  0
  190.5210  177.5490  139.2240 O   0  0  0  0  0  0  0  0  0  0  0  0
  186.8360  178.7810  138.3130 O   0  0  0  0  0  0  0  0  0  0  0  0
  189.5540  177.4500  136.4490 C   0  0  0  0  0  2  0  0  0  0  0  0
  189.9800  176.1280  135.8070 C   0  0  1  0  0  3  0  0  0  0  0  0
  189.4500  176.0460  134.5330 F   0  0  0  0  0  0  0  0  0  0  0  0
  191.4670  176.0110  135.7380 C   0  0  0  0  0  0  0  0  0  0  0  0
  193.6190  176.2070  136.9730 C   0  0  0  0  0  2  0  0  0  0  0  0
  193.5260  176.1350  134.5200 C   0  0  0  0  0  3  0  0  0  0  0  0
  194.2740  176.0880  135.6250 C   0  0  0  0  0  3  0  0  0  0  0  0
  192.0950  176.2160  134.6140 N   0  0  0  0  0  0  0  0  0  0  0  0
  192.2280  175.5710  136.9600 C   0  0  0  0  0  2  0  0  0  0  0  0
  1  7  1  0  0  0  0
  1  5  1  0  0  0  0
  2 11  1  1  0  0  0
  3 14  1  0  0  0  0
  3  7  2  0  0  0  0
  4  1  2  0  0  0  0
  6  3  1  0  0  0  0
  8  6  2  0  0  0  0
  8  4  1  0  0  0  0
  9 24  1  6  0  0  0
  9 10  1  0  0  0  0
 10  2  1  0  0  0  0
 10  6  1  1  0  0  0
 11 14  1  0  0  0  0
 12 15  1  6  0  0  0
 12  2  1  0  0  0  0
 13  9  1  0  0  0  0
 13 12  1  0  0  0  0
 15 16  1  0  0  0  0
 17 20  1  0  0  0  0
 18 23  1  0  0  0  0
 19 18  1  0  0  0  0
 19 22  1  0  0  0  0
 21 20  1  0  0  0  0
 21 16  1  0  0  0  0
 22 17  1  0  0  0  0
 23 21  1  0  0  0  0
 25 24  1  1  0  0  0
 27 26  1  1  0  0  0
 27 31  1  0  0  0  0
 28 30  1  6  0  0  0
 28 25  1  0  0  0  0
 29 25  1  0  0  0  0
 31 33  1  1  0  0  0
 31 28  1  0  0  0  0
 32 27  1  0  0  0  0
 32 34  1  0  0  0  0
 33 29  1  0  0  0  0
 34 30  1  0  0  0  0
 35 27  1  0  0  0  0
 36 37  1  6  0  0  0
 36 35  1  0  0  0  0
 38 36  1  0  0  0  0
 38 43  1  0  0  0  0
 40 42  1  0  0  0  0
 40 41  2  0  0  0  0
 41 39  1  0  0  0  0
 42 38  2  0  0  0  0
 43 39  1  0  0  0  0
M  END
>  <MODEL>
1

>  <REMARK>
 VINA RESULT:     -10.9      0.000      0.000
  Name = 
  8 active torsions:
  status: ('A' for Active; 'I' for Inactive)
    1  A    between atoms: C_1  and  C_28
    2  A    between atoms: C_1  and  C_34
    3  A    between atoms: C_2  and  C_13
    4  A    between atoms: C_4  and  C_22
    5  A    between atoms: C_11  and  C_14
    6  A    between atoms: C_13  and  C_27
    7  A    between atoms: C_14  and  C_22
    8  A    between atoms: C_28  and  C_35
                            x       y       z     vdW  Elec       q    Type
                         _______ _______ _______ _____ _____    ______ ____

>  <TORSDO>
F 8

$$$$
=
 OpenBabel10272414303D

 43 49  0  0  1  0  0  0  0  0999 V2000
  191.4630  176.3280  146.8450 C   0  0  0  0  0  0  0  0  0  0  0  0
  186.8900  177.4090  145.0680 C   0  0  1  0  0  3  0  0  0  0  0  0
  189.1470  177.0370  146.6930 C   0  0  0  0  0  0  0  0  0  0  0  0
  191.6460  176.6120  145.4890 C   0  0  0  0  0  3  0  0  0  0  0  0
  192.5940  175.8030  147.6510 C   0  0  0  0  0  1  0  0  0  0  0  0
  189.3250  177.3010  145.3110 C   0  0  0  0  0  0  0  0  0  0  0  0
  190.2170  176.5400  147.4420 C   0  0  0  0  0  3  0  0  0  0  0  0
  190.5830  177.1050  144.7280 C   0  0  0  0  0  3  0  0  0  0  0  0
  188.1140  177.6910  143.0390 C   0  0  1  0  0  3  0  0  0  0  0  0
  188.1960  177.9330  144.5410 C   0  0  1  0  0  3  0  0  0  0  0  0
  186.7180  177.8610  146.5090 C   0  0  0  0  0  2  0  0  0  0  0  0
  185.8590  177.8170  144.0410 C   0  0  2  0  0  3  0  0  0  0  0  0
  186.6160  177.6040  142.7290 C   0  0  0  0  0  2  0  0  0  0  0  0
  187.7990  177.1880  147.3720 C   0  0  0  0  0  2  0  0  0  0  0  0
  185.4580  179.2880  144.1960 C   0  0  0  0  0  2  0  0  0  0  0  0
  183.9530  179.4500  144.3690 C   0  0  0  0  0  2  0  0  0  0  0  0
  180.8580  178.2900  142.3910 C   0  0  0  0  0  2  0  0  0  0  0  0
  183.3860  178.0730  140.8730 C   0  0  0  0  0  2  0  0  0  0  0  0
  182.0720  178.3710  140.1460 C   0  0  0  0  0  2  0  0  0  0  0  0
  181.7090  179.0790  143.3780 C   0  0  0  0  0  2  0  0  0  0  0  0
  183.1910  178.7390  143.2610 C   0  0  0  0  0  3  0  0  0  0  0  0
  180.9440  178.9380  141.0160 C   0  0  0  0  0  2  0  0  0  0  0  0
  183.7550  179.1330  141.8990 C   0  0  0  0  0  2  0  0  0  0  0  0
  188.6840  178.8830  142.2820 C   0  0  0  0  0  2  0  0  0  0  0  0
  188.7770  178.6050  140.7910 C   0  0  1  0  0  3  0  0  0  0  0  0
  189.3820  178.3530  137.5910 C   0  0  0  0  0  1  0  0  0  0  0  0
  189.3300  176.8980  138.0650 C   0  0  2  0  0  0  0  0  0  0  0  0
  189.2710  177.2300  140.5310 C   0  0  2  0  0  3  0  0  0  0  0  0
  187.4030  178.5080  140.2010 C   0  0  0  0  0  2  0  0  0  0  0  0
  190.7870  177.1660  140.3680 C   0  0  0  0  0  2  0  0  0  0  0  0
  188.5550  176.7750  139.3320 N   0  0  1  0  0  0  0  0  0  0  0  0
  190.7920  176.4210  138.2520 C   0  0  0  0  0  2  0  0  0  0  0  0
  187.3860  177.4870  139.2240 O   0  0  0  0  0  0  0  0  0  0  0  0
  191.0950  176.0550  139.5760 O   0  0  0  0  0  0  0  0  0  0  0  0
  188.6440  176.0250  137.0040 C   0  0  0  0  0  2  0  0  0  0  0  0
  187.1890  176.3990  136.7100 C   0  0  1  0  0  3  0  0  0  0  0  0
  187.0790  176.8180  135.3970 F   0  0  0  0  0  0  0  0  0  0  0  0
  186.2720  175.2430  136.9440 C   0  0  0  0  0  0  0  0  0  0  0  0
  184.0170  174.5070  137.6960 C   0  0  0  0  0  2  0  0  0  0  0  0
  185.8980  172.9420  137.4930 C   0  0  0  0  0  3  0  0  0  0  0  0
  184.5860  173.1160  137.6730 C   0  0  0  0  0  3  0  0  0  0  0  0
  186.7530  174.0680  137.2390 N   0  0  0  0  0  0  0  0  0  0  0  0
  184.7920  175.4270  136.7500 C   0  0  0  0  0  2  0  0  0  0  0  0
  1  7  1  0  0  0  0
  1  5  1  0  0  0  0
  2 11  1  1  0  0  0
  3 14  1  0  0  0  0
  3  7  2  0  0  0  0
  4  1  2  0  0  0  0
  6  3  1  0  0  0  0
  8  6  2  0  0  0  0
  8  4  1  0  0  0  0
  9 24  1  6  0  0  0
  9 10  1  0  0  0  0
 10  2  1  0  0  0  0
 10  6  1  1  0  0  0
 11 14  1  0  0  0  0
 12 15  1  1  0  0  0
 12  2  1  0  0  0  0
 13  9  1  0  0  0  0
 13 12  1  0  0  0  0
 15 16  1  0  0  0  0
 17 20  1  0  0  0  0
 18 23  1  0  0  0  0
 19 18  1  0  0  0  0
 19 22  1  0  0  0  0
 21 20  1  0  0  0  0
 21 16  1  0  0  0  0
 22 17  1  0  0  0  0
 23 21  1  0  0  0  0
 25 24  1  1  0  0  0
 27 26  1  6  0  0  0
 27 32  1  0  0  0  0
 27 31  1  0  0  0  0
 28 30  1  6  0  0  0
 28 25  1  0  0  0  0
 29 25  1  0  0  0  0
 31 33  1  6  0  0  0
 31 28  1  0  0  0  0
 32 34  1  0  0  0  0
 33 29  1  0  0  0  0
 34 30  1  0  0  0  0
 35 27  1  0  0  0  0
 36 37  1  6  0  0  0
 36 38  1  0  0  0  0
 36 35  1  0  0  0  0
 38 42  2  0  0  0  0
 40 41  2  0  0  0  0
 41 39  1  0  0  0  0
 42 40  1  0  0  0  0
 43 38  1  0  0  0  0
 43 39  1  0  0  0  0
M  END
>  <MODEL>
2

>  <REMARK>
 VINA RESULT:      -9.6      1.814      3.483
  Name = 
  8 active torsions:
  status: ('A' for Active; 'I' for Inactive)
    1  A    between atoms: C_1  and  C_28
    2  A    between atoms: C_1  and  C_34
    3  A    between atoms: C_2  and  C_13
    4  A    between atoms: C_4  and  C_22
    5  A    between atoms: C_11  and  C_14
    6  A    between atoms: C_13  and  C_27
    7  A    between atoms: C_14  and  C_22
    8  A    between atoms: C_28  and  C_35
                            x       y       z     vdW  Elec       q    Type
                         _______ _______ _______ _____ _____    ______ ____

>  <TORSDO>
F 8

$$$$
=
 OpenBabel10272414303D

 43 49  0  0  1  0  0  0  0  0999 V2000
  185.0780  178.4610  145.2550 C   0  0  0  0  0  0  0  0  0  0  0  0
  181.8280  178.4100  141.4250 C   0  0  1  0  0  3  0  0  0  0  0  0
  183.1310  178.8730  143.8650 C   0  0  0  0  0  0  0  0  0  0  0  0
  185.8470  178.2120  144.1160 C   0  0  0  0  0  3  0  0  0  0  0  0
  185.7000  178.3800  146.6010 C   0  0  0  0  0  1  0  0  0  0  0  0
  183.9050  178.5940  142.7100 C   0  0  0  0  0  0  0  0  0  0  0  0
  183.7260  178.7900  145.1290 C   0  0  0  0  0  3  0  0  0  0  0  0
  185.2640  178.2870  142.8480 C   0  0  0  0  0  3  0  0  0  0  0  0
  183.8200  177.9780  140.1820 C   0  0  1  0  0  3  0  0  0  0  0  0
  183.2810  178.7880  141.3540 C   0  0  1  0  0  3  0  0  0  0  0  0
  181.1080  179.3700  142.3570 C   0  0  0  0  0  2  0  0  0  0  0  0
  181.3790  178.3060  139.9850 C   0  0  2  0  0  3  0  0  0  0  0  0
  182.5940  177.6610  139.3180 C   0  0  0  0  0  2  0  0  0  0  0  0
  181.6460  179.1700  143.7850 C   0  0  0  0  0  2  0  0  0  0  0  0
  181.1030  179.6860  139.3780 C   0  0  0  0  0  2  0  0  0  0  0  0
  180.7110  179.5910  137.9090 C   0  0  0  0  0  2  0  0  0  0  0  0
  180.7280  182.0620  134.9540 C   0  0  0  0  0  2  0  0  0  0  0  0
  181.4770  183.2940  137.5350 C   0  0  0  0  0  2  0  0  0  0  0  0
  180.7420  184.1150  136.4710 C   0  0  0  0  0  2  0  0  0  0  0  0
  180.3250  180.8770  135.8230 C   0  0  0  0  0  2  0  0  0  0  0  0
  181.0530  180.8720  137.1630 C   0  0  0  0  0  3  0  0  0  0  0  0
  179.9820  183.3060  135.4130 C   0  0  0  0  0  2  0  0  0  0  0  0
  180.6840  182.0860  138.0100 C   0  0  0  0  0  2  0  0  0  0  0  0
  184.7750  178.8240  139.3520 C   0  0  0  0  0  2  0  0  0  0  0  0
  185.9230  177.9940  138.8020 C   0  0  1  0  0  3  0  0  0  0  0  0
  188.0440  175.8090  137.6200 C   0  0  0  0  0  1  0  0  0  0  0  0
  188.1750  176.9950  136.6620 C   0  0  2  0  0  0  0  0  0  0  0  0
  186.2590  178.3950  137.4140 C   0  0  2  0  0  3  0  0  0  0  0  0
  187.1990  178.3600  139.4990 C   0  0  0  0  0  2  0  0  0  0  0  0
  185.5150  177.5760  136.3640 C   0  0  0  0  0  2  0  0  0  0  0  0
  187.7180  178.2580  137.3070 N   0  0  1  0  0  0  0  0  0  0  0  0
  187.3290  176.6680  135.4050 C   0  0  0  0  0  2  0  0  0  0  0  0
  188.2600  178.3500  138.5640 O   0  0  0  0  0  0  0  0  0  0  0  0
  186.2750  177.5750  135.1890 O   0  0  0  0  0  0  0  0  0  0  0  0
  189.6440  177.1770  136.2500 C   0  0  0  0  0  2  0  0  0  0  0  0
  190.3190  175.9140  135.7120 C   0  0  1  0  0  3  0  0  0  0  0  0
  190.7420  176.1370  134.4150 F   0  0  0  0  0  0  0  0  0  0  0  0
  191.4850  175.5180  136.5570 C   0  0  0  0  0  0  0  0  0  0  0  0
  193.3850  176.3010  137.9610 C   0  0  0  0  0  2  0  0  0  0  0  0
  193.2540  174.0010  137.1100 C   0  0  0  0  0  3  0  0  0  0  0  0
  193.8540  174.8730  137.9250 C   0  0  0  0  0  3  0  0  0  0  0  0
  192.1140  174.3990  136.3320 N   0  0  0  0  0  0  0  0  0  0  0  0
  191.8750  176.3830  137.7240 C   0  0  0  0  0  2  0  0  0  0  0  0
  1  5  1  0  0  0  0
  2 11  1  1  0  0  0
  3  7  2  0  0  0  0
  4  1  2  0  0  0  0
  6  8  2  0  0  0  0
  6  3  1  0  0  0  0
  7  1  1  0  0  0  0
  8  4  1  0  0  0  0
  9 24  1  6  0  0  0
  9 10  1  0  0  0  0
 10  2  1  0  0  0  0
 10  6  1  1  0  0  0
 11 14  1  0  0  0  0
 12 15  1  6  0  0  0
 12  2  1  0  0  0  0
 13 12  1  0  0  0  0
 13  9  1  0  0  0  0
 14  3  1  0  0  0  0
 16 15  1  0  0  0  0
 17 22  1  0  0  0  0
 17 20  1  0  0  0  0
 18 23  1  0  0  0  0
 19 18  1  0  0  0  0
 20 21  1  0  0  0  0
 21 16  1  0  0  0  0
 21 23  1  0  0  0  0
 22 19  1  0  0  0  0
 25 24  1  1  0  0  0
 25 29  1  0  0  0  0
 27 31  1  0  0  0  0
 27 26  1  1  0  0  0
 28 30  1  6  0  0  0
 28 25  1  0  0  0  0
 31 28  1  0  0  0  0
 31 33  1  1  0  0  0
 32 27  1  0  0  0  0
 33 29  1  0  0  0  0
 34 32  1  0  0  0  0
 34 30  1  0  0  0  0
 35 27  1  0  0  0  0
 36 37  1  6  0  0  0
 36 35  1  0  0  0  0
 36 38  1  0  0  0  0
 38 43  1  0  0  0  0
 40 41  2  0  0  0  0
 41 39  1  0  0  0  0
 42 38  2  0  0  0  0
 42 40  1  0  0  0  0
 43 39  1  0  0  0  0
M  END
>  <MODEL>
3

>  <REMARK>
 VINA RESULT:      -8.7      2.848      5.450
  Name = 
  8 active torsions:
  status: ('A' for Active; 'I' for Inactive)
    1  A    between atoms: C_1  and  C_28
    2  A    between atoms: C_1  and  C_34
    3  A    between atoms: C_2  and  C_13
    4  A    between atoms: C_4  and  C_22
    5  A    between atoms: C_11  and  C_14
    6  A    between atoms: C_13  and  C_27
    7  A    between atoms: C_14  and  C_22
    8  A    between atoms: C_28  and  C_35
                            x       y       z     vdW  Elec       q    Type
                         _______ _______ _______ _____ _____    ______ ____

>  <TORSDO>
F 8

$$$$
=
 OpenBabel10272414303D

 43 49  0  0  1  0  0  0  0  0999 V2000
  191.2230  176.5260  146.9460 C   0  0  0  0  0  0  0  0  0  0  0  0
  186.6460  177.4740  145.1050 C   0  0  1  0  0  3  0  0  0  0  0  0
  188.9000  177.2010  146.7540 C   0  0  0  0  0  0  0  0  0  0  0  0
  191.4090  176.7500  145.5800 C   0  0  0  0  0  3  0  0  0  0  0  0
  192.3570  176.0500  147.7800 C   0  0  0  0  0  1  0  0  0  0  0  0
  189.0810  177.4040  145.3620 C   0  0  0  0  0  0  0  0  0  0  0  0
  189.9730  176.7500  147.5290 C   0  0  0  0  0  3  0  0  0  0  0  0
  190.3440  177.1960  144.7940 C   0  0  0  0  0  3  0  0  0  0  0  0
  187.8760  177.6770  143.0700 C   0  0  1  0  0  3  0  0  0  0  0  0
  187.9490  177.9870  144.5600 C   0  0  1  0  0  3  0  0  0  0  0  0
  186.4630  177.9880  146.5240 C   0  0  0  0  0  2  0  0  0  0  0  0
  185.6150  177.8230  144.0560 C   0  0  2  0  0  3  0  0  0  0  0  0
  186.3810  177.5590  142.7590 C   0  0  0  0  0  2  0  0  0  0  0  0
  187.5480  177.3680  147.4200 C   0  0  0  0  0  2  0  0  0  0  0  0
  185.1980  179.2950  144.1430 C   0  0  0  0  0  2  0  0  0  0  0  0
  183.7040  179.4460  144.4040 C   0  0  0  0  0  2  0  0  0  0  0  0
  180.5080  178.2850  142.5960 C   0  0  0  0  0  2  0  0  0  0  0  0
  182.9570  178.0280  140.9590 C   0  0  0  0  0  2  0  0  0  0  0  0
  181.6110  178.3270  140.2930 C   0  0  0  0  0  2  0  0  0  0  0  0
  181.4120  179.0800  143.5300 C   0  0  0  0  0  2  0  0  0  0  0  0
  182.8840  178.7260  143.3450 C   0  0  0  0  0  3  0  0  0  0  0  0
  180.5310  178.9140  141.2100 C   0  0  0  0  0  2  0  0  0  0  0  0
  183.3830  179.0980  141.9520 C   0  0  0  0  0  2  0  0  0  0  0  0
  188.4360  178.8400  142.2620 C   0  0  0  0  0  2  0  0  0  0  0  0
  189.0880  178.3630  140.9750 C   0  0  1  0  0  3  0  0  0  0  0  0
  190.7170  177.8180  138.1960 C   0  0  0  0  0  1  0  0  0  0  0  0
  191.0470  176.5950  139.0560 C   0  0  2  0  0  0  0  0  0  0  0  0
  190.1000  177.3120  141.2420 C   0  0  2  0  0  3  0  0  0  0  0  0
  188.1020  177.5800  140.1610 C   0  0  0  0  0  2  0  0  0  0  0  0
  191.5050  177.8760  141.4320 C   0  0  0  0  0  2  0  0  0  0  0  0
  190.0130  176.3840  140.1070 N   0  0  1  0  0  0  0  0  0  0  0  0
  192.4440  176.8350  139.6810 C   0  0  0  0  0  2  0  0  0  0  0  0
  188.7640  176.4920  139.5480 O   0  0  0  0  0  0  0  0  0  0  0  0
  192.4260  176.8820  141.0870 O   0  0  0  0  0  0  0  0  0  0  0  0
  191.0950  175.3360  138.1780 C   0  0  0  0  0  2  0  0  0  0  0  0
  192.2810  175.2730  137.2130 C   0  0  1  0  0  3  0  0  0  0  0  0
  193.4570  175.2110  137.9360 F   0  0  0  0  0  0  0  0  0  0  0  0
  192.1860  174.0860  136.3110 C   0  0  0  0  0  0  0  0  0  0  0  0
  190.6770  172.5020  135.1230 C   0  0  0  0  0  2  0  0  0  0  0  0
  193.0630  172.0270  135.4550 C   0  0  0  0  0  3  0  0  0  0  0  0
  191.9180  171.6980  134.8530 C   0  0  0  0  0  3  0  0  0  0  0  0
  193.1350  173.1920  136.2930 N   0  0  0  0  0  0  0  0  0  0  0  0
  191.0240  173.9740  135.3610 C   0  0  0  0  0  2  0  0  0  0  0  0
  1  7  1  0  0  0  0
  1  5  1  0  0  0  0
  2 11  1  1  0  0  0
  3 14  1  0  0  0  0
  3  7  2  0  0  0  0
  4  1  2  0  0  0  0
  6  3  1  0  0  0  0
  8  6  2  0  0  0  0
  8  4  1  0  0  0  0
  9 24  1  6  0  0  0
  9 10  1  0  0  0  0
 10  2  1  0  0  0  0
 10  6  1  1  0  0  0
 11 14  1  0  0  0  0
 12 15  1  6  0  0  0
 12  2  1  0  0  0  0
 13  9  1  0  0  0  0
 13 12  1  0  0  0  0
 15 16  1  0  0  0  0
 17 20  1  0  0  0  0
 18 23  1  0  0  0  0
 19 18  1  0  0  0  0
 19 22  1  0  0  0  0
 21 20  1  0  0  0  0
 21 16  1  0  0  0  0
 22 17  1  0  0  0  0
 23 21  1  0  0  0  0
 25 28  1  0  0  0  0
 25 24  1  1  0  0  0
 27 26  1  6  0  0  0
 27 32  1  0  0  0  0
 27 31  1  0  0  0  0
 28 30  1  6  0  0  0
 29 25  1  0  0  0  0
 31 33  1  6  0  0  0
 31 28  1  0  0  0  0
 32 34  1  0  0  0  0
 33 29  1  0  0  0  0
 34 30  1  0  0  0  0
 35 27  1  0  0  0  0
 36 37  1  1  0  0  0
 36 35  1  0  0  0  0
 38 36  1  0  0  0  0
 39 43  1  0  0  0  0
 40 42  1  0  0  0  0
 41 39  1  0  0  0  0
 41 40  2  0  0  0  0
 42 38  2  0  0  0  0
 43 38  1  0  0  0  0
M  END
>  <MODEL>
4

>  <REMARK>
 VINA RESULT:      -8.3      1.842      2.581
  Name = 
  8 active torsions:
  status: ('A' for Active; 'I' for Inactive)
    1  A    between atoms: C_1  and  C_28
    2  A    between atoms: C_1  and  C_34
    3  A    between atoms: C_2  and  C_13
    4  A    between atoms: C_4  and  C_22
    5  A    between atoms: C_11  and  C_14
    6  A    between atoms: C_13  and  C_27
    7  A    between atoms: C_14  and  C_22
    8  A    between atoms: C_28  and  C_35
                            x       y       z     vdW  Elec       q    Type
                         _______ _______ _______ _____ _____    ______ ____

>  <TORSDO>
F 8

$$$$
=
 OpenBabel10272414303D

 43 49  0  0  1  0  0  0  0  0999 V2000
  187.7500  177.9770  147.4340 C   0  0  0  0  0  0  0  0  0  0  0  0
  184.8010  178.1280  143.3710 C   0  0  1  0  0  3  0  0  0  0  0  0
  185.9360  178.4990  145.9090 C   0  0  0  0  0  0  0  0  0  0  0  0
  188.5900  177.7030  146.3530 C   0  0  0  0  0  3  0  0  0  0  0  0
  188.2630  177.8500  148.8220 C   0  0  0  0  0  1  0  0  0  0  0  0
  186.7810  178.1960  144.8110 C   0  0  0  0  0  0  0  0  0  0  0  0
  186.4280  178.3730  147.2120 C   0  0  0  0  0  3  0  0  0  0  0  0
  188.1090  177.8210  145.0460 C   0  0  0  0  0  3  0  0  0  0  0  0
  186.8580  177.6130  142.2750 C   0  0  1  0  0  3  0  0  0  0  0  0
  186.2710  178.4360  143.4160 C   0  0  1  0  0  3  0  0  0  0  0  0
  184.0590  179.1110  144.2610 C   0  0  0  0  0  2  0  0  0  0  0  0
  184.4570  178.0630  141.8990 C   0  0  2  0  0  3  0  0  0  0  0  0
  185.6880  177.3670  141.3160 C   0  0  0  0  0  2  0  0  0  0  0  0
  184.4770  178.8690  145.7220 C   0  0  0  0  0  2  0  0  0  0  0  0
  184.2950  179.4620  141.2950 C   0  0  0  0  0  2  0  0  0  0  0  0
  184.7070  179.4960  139.8280 C   0  0  0  0  0  2  0  0  0  0  0  0
  182.5100  177.7710  137.1750 C   0  0  0  0  0  2  0  0  0  0  0  0
  181.0670  179.7940  138.7770 C   0  0  0  0  0  2  0  0  0  0  0  0
  180.3300  178.5630  138.2430 C   0  0  0  0  0  2  0  0  0  0  0  0
  183.6050  177.9640  138.2180 C   0  0  0  0  0  2  0  0  0  0  0  0
  183.5040  179.3170  138.9140 C   0  0  0  0  0  3  0  0  0  0  0  0
  181.2150  177.3690  137.8660 C   0  0  0  0  0  2  0  0  0  0  0  0
  182.2120  179.4450  139.7160 C   0  0  0  0  0  2  0  0  0  0  0  0
  187.9130  178.4220  141.5310 C   0  0  0  0  0  2  0  0  0  0  0  0
  188.6720  177.5650  140.5320 C   0  0  1  0  0  3  0  0  0  0  0  0
  189.8240  175.5500  138.2340 C   0  0  0  0  0  1  0  0  0  0  0  0
  190.5280  176.8770  137.9380 C   0  0  2  0  0  0  0  0  0  0  0  0
  189.2850  178.3960  139.4680 C   0  0  2  0  0  3  0  0  0  0  0  0
  189.9050  177.0030  141.1720 C   0  0  0  0  0  2  0  0  0  0  0  0
  188.3850  178.5540  138.2460 C   0  0  0  0  0  2  0  0  0  0  0  0
  190.5630  177.7460  139.1480 N   0  0  1  0  0  0  0  0  0  0  0  0
  189.7590  177.5590  136.7780 C   0  0  0  0  0  2  0  0  0  0  0  0
  190.9600  177.0040  140.2320 O   0  0  0  0  0  0  0  0  0  0  0  0
  189.1970  178.7980  137.1330 O   0  0  0  0  0  0  0  0  0  0  0  0
  191.9770  176.6160  137.5000 C   0  0  0  0  0  2  0  0  0  0  0  0
  192.1930  175.2950  136.7580 C   0  0  1  0  0  3  0  0  0  0  0  0
  192.2640  175.5390  135.3990 F   0  0  0  0  0  0  0  0  0  0  0  0
  193.4440  174.6160  137.2090 C   0  0  0  0  0  0  0  0  0  0  0  0
  194.7420  172.4930  137.2700 C   0  0  0  0  0  2  0  0  0  0  0  0
  195.2660  174.3830  138.7460 C   0  0  0  0  0  3  0  0  0  0  0  0
  195.6300  173.1950  138.2570 C   0  0  0  0  0  3  0  0  0  0  0  0
  194.0740  175.0290  138.2720 N   0  0  0  0  0  0  0  0  0  0  0  0
  194.0180  173.5020  136.3760 C   0  0  0  0  0  2  0  0  0  0  0  0
  1  5  1  0  0  0  0
  2 10  1  0  0  0  0
  2 11  1  1  0  0  0
  3  7  2  0  0  0  0
  4  1  2  0  0  0  0
  6  8  2  0  0  0  0
  6  3  1  0  0  0  0
  7  1  1  0  0  0  0
  8  4  1  0  0  0  0
  9 24  1  6  0  0  0
  9 10  1  0  0  0  0
 10  6  1  1  0  0  0
 11 14  1  0  0  0  0
 12 15  1  6  0  0  0
 12  2  1  0  0  0  0
 13 12  1  0  0  0  0
 13  9  1  0  0  0  0
 14  3  1  0  0  0  0
 16 15  1  0  0  0  0
 17 22  1  0  0  0  0
 17 20  1  0  0  0  0
 18 23  1  0  0  0  0
 19 18  1  0  0  0  0
 20 21  1  0  0  0  0
 21 23  1  0  0  0  0
 21 16  1  0  0  0  0
 22 19  1  0  0  0  0
 25 29  1  0  0  0  0
 25 24  1  1  0  0  0
 27 26  1  1  0  0  0
 27 31  1  0  0  0  0
 28 30  1  6  0  0  0
 28 25  1  0  0  0  0
 31 28  1  0  0  0  0
 31 33  1  1  0  0  0
 32 34  1  0  0  0  0
 32 27  1  0  0  0  0
 33 29  1  0  0  0  0
 34 30  1  0  0  0  0
 35 27  1  0  0  0  0
 36 37  1  6  0  0  0
 36 38  1  0  0  0  0
 36 35  1  0  0  0  0
 38 42  2  0  0  0  0
 39 41  1  0  0  0  0
 41 40  2  0  0  0  0
 42 40  1  0  0  0  0
 43 38  1  0  0  0  0
 43 39  1  0  0  0  0
M  END
>  <MODEL>
5

>  <REMARK>
 VINA RESULT:      -8.0      2.017      3.391
  Name = 
  8 active torsions:
  status: ('A' for Active; 'I' for Inactive)
    1  A    between atoms: C_1  and  C_28
    2  A    between atoms: C_1  and  C_34
    3  A    between atoms: C_2  and  C_13
    4  A    between atoms: C_4  and  C_22
    5  A    between atoms: C_11  and  C_14
    6  A    between atoms: C_13  and  C_27
    7  A    between atoms: C_14  and  C_22
    8  A    between atoms: C_28  and  C_35
                            x       y       z     vdW  Elec       q    Type
                         _______ _______ _______ _____ _____    ______ ____

>  <TORSDO>
F 8

$$$$
