=
 OpenBabel10272415303D

 34 37  0  0  1  0  0  0  0  0999 V2000
  190.0090  176.5710  143.3980 C   0  0  1  0  0  3  0  0  0  0  0  0
  187.5340  177.9980  146.0130 C   0  0  0  0  0  2  0  0  0  0  0  0
  189.8500  177.3550  146.1160 O   0  0  0  0  0  0  0  0  0  0  0  0
  191.1050  177.0460  145.5840 C   0  0  0  0  0  0  0  0  0  0  0  0
  191.3130  176.9850  144.1020 C   0  0  2  0  0  3  0  0  0  0  0  0
  192.0910  176.9160  146.3550 O   0  0  0  0  0  0  0  0  0  0  0  0
  186.1760  177.3730  145.7240 C   0  0  0  0  0  2  0  0  0  0  0  0
  185.5230  177.8860  144.4290 C   0  0  2  0  0  3  0  0  0  0  0  0
  186.4970  178.0870  143.2580 C   0  0  0  0  0  2  0  0  0  0  0  0
  188.6340  177.1380  145.4010 C   0  0  2  0  0  3  0  0  0  0  0  0
  187.5290  176.9760  143.1420 C   0  0  0  0  0  2  0  0  0  0  0  0
  188.7980  177.3800  143.8920 C   0  0  2  0  0  3  0  0  0  0  0  0
  184.7290  179.1670  144.6890 C   0  0  2  0  0  3  0  0  0  0  0  0
  183.9790  179.0520  145.9290 N   0  0  0  0  0  1  0  0  0  0  0  0
  183.8360  179.4050  143.6410 O   0  0  0  0  0  1  0  0  0  0  0  0
  191.8400  178.3350  143.6310 C   0  0  0  0  0  2  0  0  0  0  0  0
  191.0350  179.3560  144.1340 O   0  0  0  0  0  1  0  0  0  0  0  0
  190.1420  176.4770  141.8710 C   0  0  0  0  0  2  0  0  0  0  0  0
  189.6210  177.6700  141.2200 N   0  0  0  0  0  2  0  0  0  0  0  0
  191.0660  176.4990  139.6580 C   0  0  0  0  0  1  0  0  0  0  0  0
  190.2240  177.7380  139.8970 C   0  0  1  0  0  3  0  0  0  0  0  0
  186.8200  178.4080  138.3670 N   0  0  0  0  0  2  0  0  0  0  0  0
  189.0540  176.6350  138.0280 N   0  0  0  0  0  2  0  0  0  0  0  0
  185.8340  175.5210  134.8140 C   0  0  2  0  0  3  0  0  0  0  0  0
  185.0920  176.0320  136.0560 C   0  0  1  0  0  3  0  0  0  0  0  0
  185.6120  177.3770  136.5390 C   0  0  0  0  0  2  0  0  0  0  0  0
  185.5690  174.0380  134.6270 C   0  0  0  0  0  1  0  0  0  0  0  0
  186.6930  177.1740  137.5930 C   0  0  1  0  0  3  0  0  0  0  0  0
  183.7300  176.1410  135.7730 O   0  0  0  0  0  1  0  0  0  0  0  0
  188.0000  175.5220  136.1530 C   0  0  0  0  0  2  0  0  0  0  0  0
  188.0590  176.8090  136.9700 C   0  0  2  0  0  3  0  0  0  0  0  0
  187.3430  175.7850  134.8050 C   0  0  0  0  0  2  0  0  0  0  0  0
  189.1590  177.8690  138.8080 C   0  0  1  0  0  3  0  0  0  0  0  0
  187.8060  178.2090  139.4260 C   0  0  0  0  0  2  0  0  0  0  0  0
  1 18  1  6  0  0  0
  1 12  1  0  0  0  0
  1  5  1  0  0  0  0
  4  3  1  0  0  0  0
  4  6  2  0  0  0  0
  5 16  1  6  0  0  0
  5  4  1  0  0  0  0
  7  2  1  0  0  0  0
  8 13  1  1  0  0  0
  8  7  1  0  0  0  0
  9  8  1  0  0  0  0
 10  2  1  1  0  0  0
 10  3  1  0  0  0  0
 11  9  1  0  0  0  0
 12 11  1  6  0  0  0
 12 10  1  0  0  0  0
 13 15  1  6  0  0  0
 13 14  1  0  0  0  0
 16 17  1  0  0  0  0
 19 18  1  0  0  0  0
 21 20  1  6  0  0  0
 21 19  1  0  0  0  0
 22 34  1  0  0  0  0
 23 33  1  0  0  0  0
 24 27  1  1  0  0  0
 24 25  1  0  0  0  0
 25 29  1  6  0  0  0
 25 26  1  0  0  0  0
 28 26  1  6  0  0  0
 28 22  1  0  0  0  0
 31 30  1  1  0  0  0
 31 28  1  0  0  0  0
 31 23  1  0  0  0  0
 32 24  1  0  0  0  0
 32 30  1  0  0  0  0
 33 34  1  0  0  0  0
 33 21  1  1  0  0  0
M  END
>  <MODEL>
1

>  <REMARK>
 VINA RESULT:      -9.3      0.000      0.000
  Name = 
  6 active torsions:
  status: ('A' for Active; 'I' for Inactive)
    1  A    between atoms: C_1  and  C_9
    2  A    between atoms: C_3  and  C_25
    3  A    between atoms: N_8  and  C_9
    4  A    between atoms: N_8  and  C_18
    5  A    between atoms: C_10  and  C_20
    6  A    between atoms: C_18  and  C_30
                            x       y       z     vdW  Elec       q    Type
                         _______ _______ _______ _____ _____    ______ ____

>  <TORSDO>
F 6

$$$$
=
 OpenBabel10272415303D

 34 37  0  0  1  0  0  0  0  0999 V2000
  189.8510  176.7100  143.3400 C   0  0  1  0  0  3  0  0  0  0  0  0
  187.5050  178.0270  146.1270 C   0  0  0  0  0  2  0  0  0  0  0  0
  189.8130  177.3460  146.1020 O   0  0  0  0  0  0  0  0  0  0  0  0
  191.0400  177.0480  145.5040 C   0  0  0  0  0  0  0  0  0  0  0  0
  191.1890  177.0650  144.0130 C   0  0  2  0  0  3  0  0  0  0  0  0
  192.0530  176.8610  146.2270 O   0  0  0  0  0  0  0  0  0  0  0  0
  186.1270  177.4380  145.8580 C   0  0  0  0  0  2  0  0  0  0  0  0
  185.4320  178.0320  144.6210 C   0  0  2  0  0  3  0  0  0  0  0  0
  186.3630  178.2840  143.4250 C   0  0  0  0  0  2  0  0  0  0  0  0
  188.5650  177.1860  145.4260 C   0  0  2  0  0  3  0  0  0  0  0  0
  187.3700  177.1650  143.2070 C   0  0  0  0  0  2  0  0  0  0  0  0
  188.6740  177.5090  143.9260 C   0  0  2  0  0  3  0  0  0  0  0  0
  184.6700  179.3080  144.9820 C   0  0  2  0  0  3  0  0  0  0  0  0
  183.3890  178.9770  145.5840 N   0  0  0  0  0  1  0  0  0  0  0  0
  184.4480  180.0800  143.8390 O   0  0  0  0  0  1  0  0  0  0  0  0
  191.7190  178.4320  143.5960 C   0  0  0  0  0  2  0  0  0  0  0  0
  190.9260  179.4350  144.1500 O   0  0  0  0  0  1  0  0  0  0  0  0
  189.9230  176.6990  141.8070 C   0  0  0  0  0  2  0  0  0  0  0  0
  189.6610  178.0200  141.2550 N   0  0  0  0  0  2  0  0  0  0  0  0
  190.4730  176.8160  139.3090 C   0  0  0  0  0  1  0  0  0  0  0  0
  189.5010  177.8640  139.8160 C   0  0  1  0  0  3  0  0  0  0  0  0
  186.5810  176.8170  137.6370 N   0  0  0  0  0  2  0  0  0  0  0  0
  187.1190  178.4910  139.9080 N   0  0  0  0  0  2  0  0  0  0  0  0
  182.5430  178.7920  138.9510 C   0  0  2  0  0  3  0  0  0  0  0  0
  183.2810  178.5730  137.6230 C   0  0  1  0  0  3  0  0  0  0  0  0
  184.2260  177.3820  137.6670 C   0  0  0  0  0  2  0  0  0  0  0  0
  181.9480  180.1880  138.9880 C   0  0  0  0  0  1  0  0  0  0  0  0
  185.6250  177.8360  138.0650 C   0  0  1  0  0  3  0  0  0  0  0  0
  182.3520  178.3850  136.6000 O   0  0  0  0  0  1  0  0  0  0  0  0
  184.7900  179.1270  140.1020 C   0  0  0  0  0  2  0  0  0  0  0  0
  185.7560  178.0650  139.5880 C   0  0  2  0  0  3  0  0  0  0  0  0
  183.3840  178.5520  140.2080 C   0  0  0  0  0  2  0  0  0  0  0  0
  188.0680  177.4710  139.4580 C   0  0  1  0  0  3  0  0  0  0  0  0
  187.9340  177.2670  137.9510 C   0  0  0  0  0  2  0  0  0  0  0  0
  1 18  1  6  0  0  0
  1 12  1  0  0  0  0
  1  5  1  0  0  0  0
  4  3  1  0  0  0  0
  4  6  2  0  0  0  0
  5 16  1  6  0  0  0
  5  4  1  0  0  0  0
  7  2  1  0  0  0  0
  8 13  1  1  0  0  0
  8  7  1  0  0  0  0
  9  8  1  0  0  0  0
 10  3  1  0  0  0  0
 10  2  1  1  0  0  0
 11  9  1  0  0  0  0
 12 11  1  6  0  0  0
 12 10  1  0  0  0  0
 13 15  1  6  0  0  0
 13 14  1  0  0  0  0
 16 17  1  0  0  0  0
 19 18  1  0  0  0  0
 21 20  1  1  0  0  0
 21 19  1  0  0  0  0
 22 34  1  0  0  0  0
 22 28  1  0  0  0  0
 24 27  1  6  0  0  0
 24 32  1  0  0  0  0
 25 29  1  6  0  0  0
 25 26  1  0  0  0  0
 25 24  1  0  0  0  0
 28 26  1  1  0  0  0
 28 31  1  0  0  0  0
 30 32  1  0  0  0  0
 31 23  1  0  0  0  0
 31 30  1  6  0  0  0
 33 21  1  6  0  0  0
 33 23  1  0  0  0  0
 34 33  1  0  0  0  0
M  END
>  <MODEL>
2

>  <REMARK>
 VINA RESULT:      -9.3      1.796      2.768
  Name = 
  6 active torsions:
  status: ('A' for Active; 'I' for Inactive)
    1  A    between atoms: C_1  and  C_9
    2  A    between atoms: C_3  and  C_25
    3  A    between atoms: N_8  and  C_9
    4  A    between atoms: N_8  and  C_18
    5  A    between atoms: C_10  and  C_20
    6  A    between atoms: C_18  and  C_30
                            x       y       z     vdW  Elec       q    Type
                         _______ _______ _______ _____ _____    ______ ____

>  <TORSDO>
F 6

$$$$
=
 OpenBabel10272415303D

 34 37  0  0  1  0  0  0  0  0999 V2000
  190.0920  176.2690  138.1740 C   0  0  1  0  0  3  0  0  0  0  0  0
  192.4510  173.7700  136.3880 C   0  0  0  0  0  2  0  0  0  0  0  0
  190.0700  173.8310  136.7300 O   0  0  0  0  0  0  0  0  0  0  0  0
  188.8480  174.4370  137.0320 C   0  0  0  0  0  0  0  0  0  0  0  0
  188.7900  175.8730  137.4550 C   0  0  2  0  0  3  0  0  0  0  0  0
  187.7780  173.8000  136.8510 O   0  0  0  0  0  0  0  0  0  0  0  0
  193.7320  173.7080  137.2090 C   0  0  0  0  0  2  0  0  0  0  0  0
  194.5830  174.9870  137.1230 C   0  0  2  0  0  3  0  0  0  0  0  0
  193.7750  176.2930  137.1310 C   0  0  0  0  0  2  0  0  0  0  0  0
  191.3140  174.2970  137.2550 C   0  0  2  0  0  3  0  0  0  0  0  0
  192.6170  176.2730  138.1170 C   0  0  0  0  0  2  0  0  0  0  0  0
  191.3440  175.8270  137.3980 C   0  0  2  0  0  3  0  0  0  0  0  0
  195.5150  174.9430  135.9110 C   0  0  2  0  0  3  0  0  0  0  0  0
  196.0630  173.6070  135.7450 N   0  0  0  0  0  1  0  0  0  0  0  0
  196.5670  175.8470  136.0750 O   0  0  0  0  0  1  0  0  0  0  0  0
  188.5080  176.7280  136.2250 C   0  0  0  0  0  2  0  0  0  0  0  0
  187.1900  177.1790  136.2570 O   0  0  0  0  0  1  0  0  0  0  0  0
  190.1090  177.7290  138.6470 C   0  0  0  0  0  2  0  0  0  0  0  0
  189.4360  177.8790  139.9290 N   0  0  0  0  0  2  0  0  0  0  0  0
  191.4390  177.6150  141.2750 C   0  0  0  0  0  1  0  0  0  0  0  0
  190.1100  177.0040  140.8770 C   0  0  1  0  0  3  0  0  0  0  0  0
  187.0900  177.2120  143.1600 N   0  0  0  0  0  2  0  0  0  0  0  0
  189.9570  177.1640  143.3320 N   0  0  0  0  0  2  0  0  0  0  0  0
  188.2600  177.4730  147.6860 C   0  0  2  0  0  3  0  0  0  0  0  0
  187.2870  178.2110  146.7570 C   0  0  1  0  0  3  0  0  0  0  0  0
  186.8600  177.3660  145.5660 C   0  0  0  0  0  2  0  0  0  0  0  0
  188.9550  178.4670  148.6000 C   0  0  0  0  0  1  0  0  0  0  0  0
  187.7790  177.6300  144.3790 C   0  0  1  0  0  3  0  0  0  0  0  0
  186.1550  178.5940  147.4770 O   0  0  0  0  0  1  0  0  0  0  0  0
  189.9020  177.2740  145.7500 C   0  0  0  0  0  2  0  0  0  0  0  0
  189.1240  176.8780  144.5000 C   0  0  2  0  0  3  0  0  0  0  0  0
  189.3010  176.6030  146.9780 C   0  0  0  0  0  2  0  0  0  0  0  0
  189.2490  176.7600  142.1160 C   0  0  1  0  0  3  0  0  0  0  0  0
  187.9300  177.5200  142.0060 C   0  0  0  0  0  2  0  0  0  0  0  0
  1 18  1  6  0  0  0
  2  7  1  0  0  0  0
  3  4  1  0  0  0  0
  3 10  1  0  0  0  0
  4  5  1  0  0  0  0
  5 16  1  6  0  0  0
  5  1  1  0  0  0  0
  6  4  2  0  0  0  0
  8 13  1  6  0  0  0
  8  9  1  0  0  0  0
  8  7  1  0  0  0  0
  9 11  1  0  0  0  0
 10  2  1  6  0  0  0
 10 12  1  0  0  0  0
 12 11  1  1  0  0  0
 12  1  1  0  0  0  0
 13 14  1  1  0  0  0
 13 15  1  0  0  0  0
 16 17  1  0  0  0  0
 18 19  1  0  0  0  0
 19 21  1  0  0  0  0
 21 20  1  1  0  0  0
 22 28  1  0  0  0  0
 23 31  1  0  0  0  0
 24 27  1  6  0  0  0
 25 29  1  1  0  0  0
 25 24  1  0  0  0  0
 26 25  1  0  0  0  0
 28 31  1  0  0  0  0
 28 26  1  1  0  0  0
 30 32  1  0  0  0  0
 31 30  1  1  0  0  0
 32 24  1  0  0  0  0
 33 21  1  6  0  0  0
 33 23  1  0  0  0  0
 34 33  1  0  0  0  0
 34 22  1  0  0  0  0
M  END
>  <MODEL>
3

>  <REMARK>
 VINA RESULT:      -9.0      3.672      9.644
  Name = 
  6 active torsions:
  status: ('A' for Active; 'I' for Inactive)
    1  A    between atoms: C_1  and  C_9
    2  A    between atoms: C_3  and  C_25
    3  A    between atoms: N_8  and  C_9
    4  A    between atoms: N_8  and  C_18
    5  A    between atoms: C_10  and  C_20
    6  A    between atoms: C_18  and  C_30
                            x       y       z     vdW  Elec       q    Type
                         _______ _______ _______ _____ _____    ______ ____

>  <TORSDO>
F 6

$$$$
=
 OpenBabel10272415303D

 34 37  0  0  1  0  0  0  0  0999 V2000
  189.9520  176.4340  143.7300 C   0  0  1  0  0  3  0  0  0  0  0  0
  187.4370  178.0990  146.1600 C   0  0  0  0  0  2  0  0  0  0  0  0
  189.7510  177.4700  146.3600 O   0  0  0  0  0  0  0  0  0  0  0  0
  191.0130  177.1130  145.8800 C   0  0  0  0  0  0  0  0  0  0  0  0
  191.2450  176.9130  144.4130 C   0  0  2  0  0  3  0  0  0  0  0  0
  191.9860  177.0560  146.6750 O   0  0  0  0  0  0  0  0  0  0  0  0
  186.0830  177.4480  145.9090 C   0  0  0  0  0  2  0  0  0  0  0  0
  185.4510  177.8370  144.5620 C   0  0  2  0  0  3  0  0  0  0  0  0
  186.4440  177.9290  143.3930 C   0  0  0  0  0  2  0  0  0  0  0  0
  188.5450  177.1860  145.6490 C   0  0  2  0  0  3  0  0  0  0  0  0
  187.4760  176.8120  143.3980 C   0  0  0  0  0  2  0  0  0  0  0  0
  188.7340  177.2860  144.1270 C   0  0  2  0  0  3  0  0  0  0  0  0
  184.6540  179.1360  144.6880 C   0  0  2  0  0  3  0  0  0  0  0  0
  183.9350  179.1660  145.9500 N   0  0  0  0  0  1  0  0  0  0  0  0
  183.7360  179.2460  143.6410 O   0  0  0  0  0  1  0  0  0  0  0  0
  191.7810  178.2140  143.8260 C   0  0  0  0  0  2  0  0  0  0  0  0
  191.0870  179.2950  144.3670 O   0  0  0  0  0  1  0  0  0  0  0  0
  190.1090  176.1980  142.2210 C   0  0  0  0  0  2  0  0  0  0  0  0
  190.2350  177.4560  141.4980 N   0  0  0  0  0  2  0  0  0  0  0  0
  188.4490  178.7910  140.5360 C   0  0  0  0  0  1  0  0  0  0  0  0
  189.1970  177.4730  140.4770 C   0  0  1  0  0  3  0  0  0  0  0  0
  189.4330  176.2140  136.9090 N   0  0  0  0  0  2  0  0  0  0  0  0
  191.1390  176.7030  139.1670 N   0  0  0  0  0  2  0  0  0  0  0  0
  193.8040  175.0750  135.6770 C   0  0  2  0  0  3  0  0  0  0  0  0
  192.4180  174.4290  135.5420 C   0  0  1  0  0  3  0  0  0  0  0  0
  191.2910  175.4500  135.5580 C   0  0  0  0  0  2  0  0  0  0  0  0
  194.8300  174.0230  136.0600 C   0  0  0  0  0  1  0  0  0  0  0  0
  190.7740  175.6380  136.9790 C   0  0  1  0  0  3  0  0  0  0  0  0
  192.3590  173.6980  134.3550 O   0  0  0  0  0  1  0  0  0  0  0  0
  193.1080  176.0080  137.9410 C   0  0  0  0  0  2  0  0  0  0  0  0
  191.6900  176.5550  137.8200 C   0  0  2  0  0  3  0  0  0  0  0  0
  193.8780  176.2540  136.6510 C   0  0  0  0  0  2  0  0  0  0  0  0
  189.7880  177.2630  139.0840 C   0  0  1  0  0  3  0  0  0  0  0  0
  188.8940  176.3390  138.2610 C   0  0  0  0  0  2  0  0  0  0  0  0
  1 18  1  6  0  0  0
  1 12  1  0  0  0  0
  1  5  1  0  0  0  0
  4  3  1  0  0  0  0
  4  6  2  0  0  0  0
  5 16  1  6  0  0  0
  5  4  1  0  0  0  0
  7  2  1  0  0  0  0
  8 13  1  1  0  0  0
  8  7  1  0  0  0  0
  9 11  1  0  0  0  0
  9  8  1  0  0  0  0
 10  2  1  1  0  0  0
 10  3  1  0  0  0  0
 12 11  1  6  0  0  0
 12 10  1  0  0  0  0
 13 15  1  6  0  0  0
 13 14  1  0  0  0  0
 16 17  1  0  0  0  0
 19 18  1  0  0  0  0
 21 20  1  6  0  0  0
 21 19  1  0  0  0  0
 22 28  1  0  0  0  0
 22 34  1  0  0  0  0
 24 27  1  1  0  0  0
 24 32  1  0  0  0  0
 25 29  1  6  0  0  0
 25 26  1  0  0  0  0
 25 24  1  0  0  0  0
 28 26  1  6  0  0  0
 28 31  1  0  0  0  0
 31 30  1  1  0  0  0
 31 23  1  0  0  0  0
 32 30  1  0  0  0  0
 33 23  1  0  0  0  0
 33 21  1  1  0  0  0
 34 33  1  0  0  0  0
M  END
>  <MODEL>
4

>  <REMARK>
 VINA RESULT:      -8.9      2.575      3.757
  Name = 
  6 active torsions:
  status: ('A' for Active; 'I' for Inactive)
    1  A    between atoms: C_1  and  C_9
    2  A    between atoms: C_3  and  C_25
    3  A    between atoms: N_8  and  C_9
    4  A    between atoms: N_8  and  C_18
    5  A    between atoms: C_10  and  C_20
    6  A    between atoms: C_18  and  C_30
                            x       y       z     vdW  Elec       q    Type
                         _______ _______ _______ _____ _____    ______ ____

>  <TORSDO>
F 6

$$$$
=
 OpenBabel10272415303D

 34 37  0  0  1  0  0  0  0  0999 V2000
  184.0560  178.3190  140.1130 C   0  0  1  0  0  3  0  0  0  0  0  0
  183.0540  178.8070  143.8220 C   0  0  0  0  0  2  0  0  0  0  0  0
  181.8040  178.7950  141.7670 O   0  0  0  0  0  0  0  0  0  0  0  0
  181.5900  178.5130  140.4150 C   0  0  0  0  0  0  0  0  0  0  0  0
  182.6730  177.9020  139.5800 C   0  0  2  0  0  3  0  0  0  0  0  0
  180.4460  178.6820  139.9200 O   0  0  0  0  0  0  0  0  0  0  0  0
  184.1780  179.5940  144.4830 C   0  0  0  0  0  2  0  0  0  0  0  0
  185.4750  178.7880  144.6610 C   0  0  2  0  0  3  0  0  0  0  0  0
  185.8250  177.8720  143.4780 C   0  0  0  0  0  2  0  0  0  0  0  0
  183.1050  179.0140  142.3140 C   0  0  2  0  0  3  0  0  0  0  0  0
  185.5680  178.5190  142.1260 C   0  0  0  0  0  2  0  0  0  0  0  0
  184.1720  178.1380  141.6360 C   0  0  2  0  0  3  0  0  0  0  0  0
  185.4480  177.9890  145.9650 C   0  0  2  0  0  3  0  0  0  0  0  0
  185.2320  178.8760  147.0950 N   0  0  0  0  0  1  0  0  0  0  0  0
  186.6560  177.3120  146.1440 O   0  0  0  0  0  1  0  0  0  0  0  0
  182.4750  176.3910  139.5620 C   0  0  0  0  0  2  0  0  0  0  0  0
  182.2590  175.9590  138.2550 O   0  0  0  0  0  1  0  0  0  0  0  0
  185.2230  177.7370  139.3040 C   0  0  0  0  0  2  0  0  0  0  0  0
  186.2600  178.7340  139.0780 N   0  0  0  0  0  2  0  0  0  0  0  0
  187.6840  178.8530  137.1150 C   0  0  0  0  0  1  0  0  0  0  0  0
  187.3480  178.0730  138.3720 C   0  0  1  0  0  3  0  0  0  0  0  0
  190.4230  176.4720  139.9040 N   0  0  0  0  0  2  0  0  0  0  0  0
  188.2520  178.1930  140.6620 N   0  0  0  0  0  2  0  0  0  0  0  0
  190.9670  177.5610  144.4260 C   0  0  2  0  0  3  0  0  0  0  0  0
  191.0320  176.2770  143.5870 C   0  0  1  0  0  3  0  0  0  0  0  0
  191.3750  176.5460  142.1300 C   0  0  0  0  0  2  0  0  0  0  0  0
  190.2390  177.2900  145.7300 C   0  0  0  0  0  1  0  0  0  0  0  0
  190.1000  176.7020  141.3110 C   0  0  1  0  0  3  0  0  0  0  0  0
  191.9820  175.4130  144.1310 O   0  0  0  0  0  1  0  0  0  0  0  0
  189.0930  178.4050  142.9220 C   0  0  0  0  0  2  0  0  0  0  0  0
  189.4650  178.1010  141.4750 C   0  0  2  0  0  3  0  0  0  0  0  0
  190.3380  178.7660  143.7210 C   0  0  0  0  0  2  0  0  0  0  0  0
  188.5850  177.9410  139.2580 C   0  0  1  0  0  3  0  0  0  0  0  0
  189.2000  176.5520  139.1110 C   0  0  0  0  0  2  0  0  0  0  0  0
  1 18  1  6  0  0  0
  1 12  1  0  0  0  0
  2  7  1  0  0  0  0
  3 10  1  0  0  0  0
  4  3  1  0  0  0  0
  5 16  1  1  0  0  0
  5  1  1  0  0  0  0
  5  4  1  0  0  0  0
  6  4  2  0  0  0  0
  7  8  1  0  0  0  0
  8 13  1  1  0  0  0
  9  8  1  0  0  0  0
 10  2  1  1  0  0  0
 11  9  1  0  0  0  0
 12 11  1  1  0  0  0
 12 10  1  0  0  0  0
 13 15  1  1  0  0  0
 13 14  1  0  0  0  0
 17 16  1  0  0  0  0
 19 18  1  0  0  0  0
 21 20  1  6  0  0  0
 21 19  1  0  0  0  0
 22 28  1  0  0  0  0
 23 31  1  0  0  0  0
 24 27  1  1  0  0  0
 25 29  1  1  0  0  0
 25 24  1  0  0  0  0
 26 25  1  0  0  0  0
 28 31  1  0  0  0  0
 28 26  1  1  0  0  0
 30 32  1  0  0  0  0
 31 30  1  1  0  0  0
 32 24  1  0  0  0  0
 33 21  1  6  0  0  0
 33 23  1  0  0  0  0
 34 33  1  0  0  0  0
 34 22  1  0  0  0  0
M  END
>  <MODEL>
5

>  <REMARK>
 VINA RESULT:      -8.8      2.428      7.269
  Name = 
  6 active torsions:
  status: ('A' for Active; 'I' for Inactive)
    1  A    between atoms: C_1  and  C_9
    2  A    between atoms: C_3  and  C_25
    3  A    between atoms: N_8  and  C_9
    4  A    between atoms: N_8  and  C_18
    5  A    between atoms: C_10  and  C_20
    6  A    between atoms: C_18  and  C_30
                            x       y       z     vdW  Elec       q    Type
                         _______ _______ _______ _____ _____    ______ ____

>  <TORSDO>
F 6

$$$$
=
 OpenBabel10272415303D

 34 37  0  0  1  0  0  0  0  0999 V2000
  190.1360  176.2870  138.5030 C   0  0  1  0  0  3  0  0  0  0  0  0
  191.7640  175.8930  135.0110 C   0  0  0  0  0  2  0  0  0  0  0  0
  189.4820  175.9010  135.7720 O   0  0  0  0  0  0  0  0  0  0  0  0
  188.4480  176.1650  136.6740 C   0  0  0  0  0  0  0  0  0  0  0  0
  188.7410  176.7310  138.0300 C   0  0  2  0  0  3  0  0  0  0  0  0
  187.2530  176.0170  136.3090 O   0  0  0  0  0  0  0  0  0  0  0  0
  193.0420  175.0880  135.2070 C   0  0  0  0  0  2  0  0  0  0  0  0
  194.1540  175.8630  135.9350 C   0  0  2  0  0  3  0  0  0  0  0  0
  193.6650  176.7480  137.0920 C   0  0  0  0  0  2  0  0  0  0  0  0
  190.8260  175.6580  136.1880 C   0  0  2  0  0  3  0  0  0  0  0  0
  192.5900  176.0830  137.9370 C   0  0  0  0  0  2  0  0  0  0  0  0
  191.2100  176.4920  137.4210 C   0  0  2  0  0  3  0  0  0  0  0  0
  194.9820  176.6860  134.9470 C   0  0  2  0  0  3  0  0  0  0  0  0
  196.2250  175.9990  134.6370 N   0  0  0  0  0  1  0  0  0  0  0  0
  195.2800  177.9380  135.4900 O   0  0  0  0  0  1  0  0  0  0  0  0
  188.5910  178.2470  137.9630 C   0  0  0  0  0  2  0  0  0  0  0  0
  187.5920  178.6610  138.8420 O   0  0  0  0  0  1  0  0  0  0  0  0
  190.5100  176.8220  139.8920 C   0  0  0  0  0  2  0  0  0  0  0  0
  189.6370  176.2770  140.9220 N   0  0  0  0  0  2  0  0  0  0  0  0
  191.5990  177.2340  141.9860 C   0  0  0  0  0  1  0  0  0  0  0  0
  190.2650  176.5470  142.2070 C   0  0  1  0  0  3  0  0  0  0  0  0
  188.5760  177.7710  145.3730 N   0  0  0  0  0  2  0  0  0  0  0  0
  187.9970  177.4360  142.5800 N   0  0  0  0  0  2  0  0  0  0  0  0
  184.1830  179.2160  144.6360 C   0  0  2  0  0  3  0  0  0  0  0  0
  184.8900  178.3240  145.6650 C   0  0  1  0  0  3  0  0  0  0  0  0
  186.3670  178.6590  145.8150 C   0  0  0  0  0  2  0  0  0  0  0  0
  182.8600  178.5910  144.2330 C   0  0  0  0  0  1  0  0  0  0  0  0
  187.2000  177.7900  144.8810 C   0  0  1  0  0  3  0  0  0  0  0  0
  184.2620  178.4530  146.9030 O   0  0  0  0  0  1  0  0  0  0  0  0
  185.7660  178.3420  142.8430 C   0  0  0  0  0  2  0  0  0  0  0  0
  187.1760  178.3050  143.4240 C   0  0  2  0  0  3  0  0  0  0  0  0
  185.0050  179.5440  143.3860 C   0  0  0  0  0  2  0  0  0  0  0  0
  189.3680  177.4100  143.0930 C   0  0  1  0  0  3  0  0  0  0  0  0
  189.3750  176.8880  144.5270 C   0  0  0  0  0  2  0  0  0  0  0  0
  1 18  1  1  0  0  0
  2  7  1  0  0  0  0
  3 10  1  0  0  0  0
  3  4  1  0  0  0  0
  4  5  1  0  0  0  0
  5 16  1  6  0  0  0
  5  1  1  0  0  0  0
  6  4  2  0  0  0  0
  7  8  1  0  0  0  0
  8 13  1  6  0  0  0
  8  9  1  0  0  0  0
  9 11  1  0  0  0  0
 10  2  1  6  0  0  0
 10 12  1  0  0  0  0
 12 11  1  1  0  0  0
 12  1  1  0  0  0  0
 13 14  1  1  0  0  0
 13 15  1  0  0  0  0
 16 17  1  0  0  0  0
 18 19  1  0  0  0  0
 19 21  1  0  0  0  0
 21 20  1  6  0  0  0
 23 33  1  0  0  0  0
 23 31  1  0  0  0  0
 24 27  1  6  0  0  0
 24 25  1  0  0  0  0
 25 26  1  0  0  0  0
 25 29  1  1  0  0  0
 28 22  1  0  0  0  0
 28 26  1  1  0  0  0
 30 32  1  0  0  0  0
 31 30  1  6  0  0  0
 31 28  1  0  0  0  0
 32 24  1  0  0  0  0
 33 21  1  6  0  0  0
 33 34  1  0  0  0  0
 34 22  1  0  0  0  0
M  END
>  <MODEL>
6

>  <REMARK>
 VINA RESULT:      -8.8      3.553      9.152
  Name = 
  6 active torsions:
  status: ('A' for Active; 'I' for Inactive)
    1  A    between atoms: C_1  and  C_9
    2  A    between atoms: C_3  and  C_25
    3  A    between atoms: N_8  and  C_9
    4  A    between atoms: N_8  and  C_18
    5  A    between atoms: C_10  and  C_20
    6  A    between atoms: C_18  and  C_30
                            x       y       z     vdW  Elec       q    Type
                         _______ _______ _______ _____ _____    ______ ____

>  <TORSDO>
F 6

$$$$
=
 OpenBabel10272415303D

 34 37  0  0  1  0  0  0  0  0999 V2000
  189.6980  176.8550  143.1470 C   0  0  1  0  0  3  0  0  0  0  0  0
  187.4150  178.0120  146.0540 C   0  0  0  0  0  2  0  0  0  0  0  0
  189.7300  177.3710  145.9340 O   0  0  0  0  0  0  0  0  0  0  0  0
  190.9440  177.1200  145.2890 C   0  0  0  0  0  0  0  0  0  0  0  0
  191.0500  177.2030  143.7970 C   0  0  2  0  0  3  0  0  0  0  0  0
  191.9810  176.9190  145.9740 O   0  0  0  0  0  0  0  0  0  0  0  0
  186.0380  177.4120  145.7990 C   0  0  0  0  0  2  0  0  0  0  0  0
  185.2980  178.0460  144.6090 C   0  0  2  0  0  3  0  0  0  0  0  0
  186.1900  178.3640  143.3990 C   0  0  0  0  0  2  0  0  0  0  0  0
  188.4670  177.2190  145.2870 C   0  0  2  0  0  3  0  0  0  0  0  0
  187.2080  177.2740  143.1050 C   0  0  0  0  0  2  0  0  0  0  0  0
  188.5270  177.6080  143.8000 C   0  0  2  0  0  3  0  0  0  0  0  0
  184.5280  179.2930  145.0470 C   0  0  2  0  0  3  0  0  0  0  0  0
  183.1220  178.9740  145.2390 N   0  0  0  0  0  1  0  0  0  0  0  0
  184.6370  180.2940  144.0790 O   0  0  0  0  0  1  0  0  0  0  0  0
  191.5460  178.5950  143.4240 C   0  0  0  0  0  2  0  0  0  0  0  0
  190.8510  179.5550  144.1570 O   0  0  0  0  0  1  0  0  0  0  0  0
  189.7250  176.9110  141.6140 C   0  0  0  0  0  2  0  0  0  0  0  0
  190.9590  176.3470  141.0840 N   0  0  0  0  0  2  0  0  0  0  0  0
  192.9860  177.2550  140.1030 C   0  0  0  0  0  1  0  0  0  0  0  0
  191.4690  177.2810  140.0910 C   0  0  1  0  0  3  0  0  0  0  0  0
  189.1720  177.3800  137.0770 N   0  0  0  0  0  2  0  0  0  0  0  0
  190.7850  175.5000  138.5300 N   0  0  0  0  0  2  0  0  0  0  0  0
  188.7530  173.2130  134.9840 C   0  0  2  0  0  3  0  0  0  0  0  0
  187.7910  174.3210  135.4320 C   0  0  1  0  0  3  0  0  0  0  0  0
  188.4600  175.6860  135.5010 C   0  0  0  0  0  2  0  0  0  0  0  0
  188.1680  171.8530  135.3200 C   0  0  0  0  0  1  0  0  0  0  0  0
  188.9890  175.9400  136.9070 C   0  0  1  0  0  3  0  0  0  0  0  0
  186.7100  174.3830  134.5520 O   0  0  0  0  0  1  0  0  0  0  0  0
  190.2040  173.7000  137.0190 C   0  0  0  0  0  2  0  0  0  0  0  0
  190.3260  175.2120  137.1710 C   0  0  2  0  0  3  0  0  0  0  0  0
  190.1740  173.3200  135.5450 C   0  0  0  0  0  2  0  0  0  0  0  0
  190.9470  176.9460  138.6950 C   0  0  1  0  0  3  0  0  0  0  0  0
  189.6160  177.6490  138.4420 C   0  0  0  0  0  2  0  0  0  0  0  0
  1 18  1  6  0  0  0
  1  5  1  0  0  0  0
  1 12  1  0  0  0  0
  4  3  1  0  0  0  0
  4  6  2  0  0  0  0
  5 16  1  1  0  0  0
  5  4  1  0  0  0  0
  7  2  1  0  0  0  0
  8 13  1  1  0  0  0
  8  7  1  0  0  0  0
  9  8  1  0  0  0  0
 10  3  1  0  0  0  0
 10  2  1  1  0  0  0
 11  9  1  0  0  0  0
 12 11  1  6  0  0  0
 12 10  1  0  0  0  0
 13 15  1  6  0  0  0
 13 14  1  0  0  0  0
 16 17  1  0  0  0  0
 19 18  1  0  0  0  0
 21 20  1  6  0  0  0
 21 19  1  0  0  0  0
 22 34  1  0  0  0  0
 23 33  1  0  0  0  0
 24 27  1  1  0  0  0
 24 25  1  0  0  0  0
 24 32  1  0  0  0  0
 25 29  1  6  0  0  0
 25 26  1  0  0  0  0
 28 26  1  6  0  0  0
 28 22  1  0  0  0  0
 28 31  1  0  0  0  0
 31 30  1  1  0  0  0
 31 23  1  0  0  0  0
 32 30  1  0  0  0  0
 33 21  1  1  0  0  0
 34 33  1  0  0  0  0
M  END
>  <MODEL>
7

>  <REMARK>
 VINA RESULT:      -8.7      1.580      2.007
  Name = 
  6 active torsions:
  status: ('A' for Active; 'I' for Inactive)
    1  A    between atoms: C_1  and  C_9
    2  A    between atoms: C_3  and  C_25
    3  A    between atoms: N_8  and  C_9
    4  A    between atoms: N_8  and  C_18
    5  A    between atoms: C_10  and  C_20
    6  A    between atoms: C_18  and  C_30
                            x       y       z     vdW  Elec       q    Type
                         _______ _______ _______ _____ _____    ______ ____

>  <TORSDO>
F 6

$$$$
=
 OpenBabel10272415303D

 34 37  0  0  1  0  0  0  0  0999 V2000
  183.7930  178.4910  139.8680 C   0  0  1  0  0  3  0  0  0  0  0  0
  186.0200  177.5690  136.8360 C   0  0  0  0  0  2  0  0  0  0  0  0
  183.6450  177.8320  137.1160 O   0  0  0  0  0  0  0  0  0  0  0  0
  182.4850  178.2750  137.7580 C   0  0  0  0  0  0  0  0  0  0  0  0
  182.5630  178.9760  139.0800 C   0  0  2  0  0  3  0  0  0  0  0  0
  181.3750  178.1720  137.1750 O   0  0  0  0  0  0  0  0  0  0  0  0
  187.1540  176.7030  137.3680 C   0  0  0  0  0  2  0  0  0  0  0  0
  188.1730  177.4760  138.2220 C   0  0  2  0  0  3  0  0  0  0  0  0
  187.5550  178.5250  139.1600 C   0  0  0  0  0  2  0  0  0  0  0  0
  184.8540  177.5440  137.8170 C   0  0  2  0  0  3  0  0  0  0  0  0
  186.2790  178.0440  139.8340 C   0  0  0  0  0  2  0  0  0  0  0  0
  185.0700  178.4880  139.0110 C   0  0  2  0  0  3  0  0  0  0  0  0
  189.2500  178.1140  137.3440 C   0  0  2  0  0  3  0  0  0  0  0  0
  188.9960  179.5370  137.1900 N   0  0  0  0  0  1  0  0  0  0  0  0
  189.2630  177.5160  136.0820 O   0  0  0  0  0  1  0  0  0  0  0  0
  182.5730  180.4800  138.8300 C   0  0  0  0  0  2  0  0  0  0  0  0
  181.2700  180.9720  138.8650 O   0  0  0  0  0  1  0  0  0  0  0  0
  183.9410  179.1590  141.2420 C   0  0  0  0  0  2  0  0  0  0  0  0
  183.6870  178.2150  142.3210 N   0  0  0  0  0  2  0  0  0  0  0  0
  183.0610  178.8960  144.5660 C   0  0  0  0  0  1  0  0  0  0  0  0
  184.1830  178.8180  143.5490 C   0  0  1  0  0  3  0  0  0  0  0  0
  186.9110  177.8420  145.9940 N   0  0  0  0  0  2  0  0  0  0  0  0
  186.4630  177.9640  143.1600 N   0  0  0  0  0  2  0  0  0  0  0  0
  190.8050  176.3540  143.8620 C   0  0  2  0  0  3  0  0  0  0  0  0
  190.4780  177.3210  145.0080 C   0  0  1  0  0  3  0  0  0  0  0  0
  189.1590  176.9950  145.6920 C   0  0  0  0  0  2  0  0  0  0  0  0
  191.8840  176.9490  142.9750 C   0  0  0  0  0  1  0  0  0  0  0  0
  188.0270  177.7890  145.0520 C   0  0  1  0  0  3  0  0  0  0  0  0
  191.5050  177.2870  145.9510 O   0  0  0  0  0  1  0  0  0  0  0  0
  188.6690  177.0860  142.6840 C   0  0  0  0  0  2  0  0  0  0  0  0
  187.5520  177.1650  143.7200 C   0  0  2  0  0  3  0  0  0  0  0  0
  189.6060  175.9310  143.0080 C   0  0  0  0  0  2  0  0  0  0  0  0
  185.3590  178.0270  144.1200 C   0  0  1  0  0  3  0  0  0  0  0  0
  185.8410  178.6560  145.4240 C   0  0  0  0  0  2  0  0  0  0  0  0
  1 18  1  1  0  0  0
  2  7  1  0  0  0  0
  3  4  1  0  0  0  0
  3 10  1  0  0  0  0
  4  5  1  0  0  0  0
  5 16  1  6  0  0  0
  5  1  1  0  0  0  0
  6  4  2  0  0  0  0
  7  8  1  0  0  0  0
  8 13  1  6  0  0  0
  8  9  1  0  0  0  0
  9 11  1  0  0  0  0
 10  2  1  6  0  0  0
 10 12  1  0  0  0  0
 12 11  1  1  0  0  0
 12  1  1  0  0  0  0
 13 15  1  6  0  0  0
 14 13  1  0  0  0  0
 16 17  1  0  0  0  0
 18 19  1  0  0  0  0
 19 21  1  0  0  0  0
 21 20  1  1  0  0  0
 23 31  1  0  0  0  0
 23 33  1  0  0  0  0
 24 27  1  6  0  0  0
 24 25  1  0  0  0  0
 25 26  1  0  0  0  0
 25 29  1  1  0  0  0
 28 26  1  1  0  0  0
 28 22  1  0  0  0  0
 30 32  1  0  0  0  0
 31 30  1  6  0  0  0
 31 28  1  0  0  0  0
 32 24  1  0  0  0  0
 33 21  1  6  0  0  0
 33 34  1  0  0  0  0
 34 22  1  0  0  0  0
M  END
>  <MODEL>
8

>  <REMARK>
 VINA RESULT:      -8.5      2.642      8.902
  Name = 
  6 active torsions:
  status: ('A' for Active; 'I' for Inactive)
    1  A    between atoms: C_1  and  C_9
    2  A    between atoms: C_3  and  C_25
    3  A    between atoms: N_8  and  C_9
    4  A    between atoms: N_8  and  C_18
    5  A    between atoms: C_10  and  C_20
    6  A    between atoms: C_18  and  C_30
                            x       y       z     vdW  Elec       q    Type
                         _______ _______ _______ _____ _____    ______ ____

>  <TORSDO>
F 6

$$$$
=
 OpenBabel10272415303D

 34 37  0  0  1  0  0  0  0  0999 V2000
  186.0930  177.6860  137.0350 C   0  0  1  0  0  3  0  0  0  0  0  0
  182.4390  177.2750  138.2510 C   0  0  0  0  0  2  0  0  0  0  0  0
  183.7020  176.2760  136.4640 O   0  0  0  0  0  0  0  0  0  0  0  0
  184.8680  175.9130  135.7850 C   0  0  0  0  0  0  0  0  0  0  0  0
  186.2110  176.3470  136.2850 C   0  0  2  0  0  3  0  0  0  0  0  0
  184.7950  175.1310  134.8010 O   0  0  0  0  0  0  0  0  0  0  0  0
  181.9640  178.6520  138.6980 C   0  0  0  0  0  2  0  0  0  0  0  0
  182.6250  179.1420  139.9970 C   0  0  2  0  0  3  0  0  0  0  0  0
  184.1210  178.8120  140.1170 C   0  0  0  0  0  2  0  0  0  0  0  0
  183.6260  177.4260  137.3080 C   0  0  2  0  0  3  0  0  0  0  0  0
  184.8810  179.0080  138.8140 C   0  0  0  0  0  2  0  0  0  0  0  0
  184.9440  177.6820  138.0570 C   0  0  2  0  0  3  0  0  0  0  0  0
  181.8670  178.6300  141.2220 C   0  0  2  0  0  3  0  0  0  0  0  0
  180.6410  179.3890  141.4100 N   0  0  0  0  0  1  0  0  0  0  0  0
  182.6560  178.7540  142.3680 O   0  0  0  0  0  1  0  0  0  0  0  0
  186.7900  175.2320  137.1480 C   0  0  0  0  0  2  0  0  0  0  0  0
  187.9900  174.7850  136.5990 O   0  0  0  0  0  1  0  0  0  0  0  0
  187.4330  178.2050  137.5740 C   0  0  0  0  0  2  0  0  0  0  0  0
  187.5250  178.0370  139.0170 N   0  0  0  0  0  2  0  0  0  0  0  0
  189.6920  177.4030  138.1230 C   0  0  0  0  0  1  0  0  0  0  0  0
  188.7280  177.2630  139.2860 C   0  0  1  0  0  3  0  0  0  0  0  0
  191.4560  177.6330  141.8920 N   0  0  0  0  0  2  0  0  0  0  0  0
  188.6060  177.3070  141.7480 N   0  0  0  0  0  2  0  0  0  0  0  0
  189.7990  177.5550  146.2700 C   0  0  2  0  0  3  0  0  0  0  0  0
  190.9600  176.8880  145.5210 C   0  0  1  0  0  3  0  0  0  0  0  0
  191.4160  177.6920  144.3120 C   0  0  0  0  0  2  0  0  0  0  0  0
  189.1300  176.5470  147.1890 C   0  0  0  0  0  1  0  0  0  0  0  0
  190.6850  177.2190  143.0620 C   0  0  1  0  0  3  0  0  0  0  0  0
  192.0370  176.7160  146.3900 O   0  0  0  0  0  1  0  0  0  0  0  0
  188.3870  177.3860  144.1580 C   0  0  0  0  0  2  0  0  0  0  0  0
  189.2520  177.7890  142.9680 C   0  0  2  0  0  3  0  0  0  0  0  0
  188.7480  178.2220  145.3780 C   0  0  0  0  0  2  0  0  0  0  0  0
  189.3980  177.7120  140.5840 C   0  0  1  0  0  3  0  0  0  0  0  0
  190.8050  177.1300  140.6850 C   0  0  0  0  0  2  0  0  0  0  0  0
  1 18  1  1  0  0  0
  1 12  1  0  0  0  0
  2  7  1  0  0  0  0
  3 10  1  0  0  0  0
  4  5  1  0  0  0  0
  4  3  1  0  0  0  0
  5  1  1  0  0  0  0
  5 16  1  1  0  0  0
  6  4  2  0  0  0  0
  7  8  1  0  0  0  0
  8  9  1  0  0  0  0
  8 13  1  1  0  0  0
 10 12  1  0  0  0  0
 10  2  1  1  0  0  0
 11  9  1  0  0  0  0
 12 11  1  6  0  0  0
 13 14  1  1  0  0  0
 13 15  1  0  0  0  0
 17 16  1  0  0  0  0
 18 19  1  0  0  0  0
 19 21  1  0  0  0  0
 21 20  1  6  0  0  0
 22 28  1  0  0  0  0
 23 31  1  0  0  0  0
 24 27  1  6  0  0  0
 25 24  1  0  0  0  0
 25 29  1  1  0  0  0
 26 25  1  0  0  0  0
 28 26  1  1  0  0  0
 30 32  1  0  0  0  0
 31 28  1  0  0  0  0
 31 30  1  1  0  0  0
 32 24  1  0  0  0  0
 33 21  1  6  0  0  0
 33 34  1  0  0  0  0
 33 23  1  0  0  0  0
 34 22  1  0  0  0  0
M  END
>  <MODEL>
9

>  <REMARK>
 VINA RESULT:      -8.1      2.386      8.232
  Name = 
  6 active torsions:
  status: ('A' for Active; 'I' for Inactive)
    1  A    between atoms: C_1  and  C_9
    2  A    between atoms: C_3  and  C_25
    3  A    between atoms: N_8  and  C_9
    4  A    between atoms: N_8  and  C_18
    5  A    between atoms: C_10  and  C_20
    6  A    between atoms: C_18  and  C_30
                            x       y       z     vdW  Elec       q    Type
                         _______ _______ _______ _____ _____    ______ ____

>  <TORSDO>
F 6

$$$$
