=
 OpenBabel10272401073D

 27 29  0  0  1  0  0  0  0  0999 V2000
  188.8190  177.9410  144.0440 C   0  0  2  0  0  3  0  0  0  0  0  0
  191.4280  176.3940  147.0950 C   0  0  0  0  0  3  0  0  0  0  0  0
  189.7380  177.3900  145.0920 C   0  0  0  0  0  0  0  0  0  0  0  0
  190.9560  176.7790  144.7510 C   0  0  0  0  0  3  0  0  0  0  0  0
  191.7940  176.2780  145.7510 C   0  0  0  0  0  3  0  0  0  0  0  0
  190.2210  177.0100  147.4390 C   0  0  0  0  0  3  0  0  0  0  0  0
  189.3780  177.5050  146.4390 C   0  0  0  0  0  3  0  0  0  0  0  0
  187.5420  177.1100  143.8340 C   0  0  0  0  0  2  0  0  0  0  0  0
  184.1770  178.8820  144.1620 C   0  0  0  0  0  3  0  0  0  0  0  0
  184.0220  178.8980  145.5510 C   0  0  0  0  0  3  0  0  0  0  0  0
  186.3020  177.7320  144.4100 C   0  0  0  0  0  0  0  0  0  0  0  0
  185.4530  178.3370  142.1020 C   0  0  0  0  0  1  0  0  0  0  0  0
  185.0050  178.3410  146.3710 C   0  0  0  0  0  3  0  0  0  0  0  0
  186.1430  177.7640  145.8020 C   0  0  0  0  0  3  0  0  0  0  0  0
  185.3120  178.3040  143.5860 C   0  0  0  0  0  0  0  0  0  0  0  0
  189.5270  178.1870  142.7980 N   0  0  0  0  0  2  0  0  0  0  0  0
  188.8140  177.4530  141.7610 C   0  0  0  0  0  2  0  0  0  0  0  0
  190.5070  176.3800  138.8120 C   0  0  0  0  0  0  0  0  0  0  0  0
  191.2470  175.1220  136.9350 O   0  0  0  0  0  1  0  0  0  0  0  0
  189.2110  176.6290  138.2940 N   0  0  0  0  0  0  0  0  0  0  0  0
  188.6660  175.9660  137.2460 O   0  0  0  0  0  1  0  0  0  0  0  0
  188.4130  177.3590  139.2590 C   0  0  1  0  0  3  0  0  0  0  0  0
  191.4560  175.6840  138.1880 C   0  0  0  0  0  3  0  0  0  0  0  0
  189.3900  177.7450  140.3810 C   0  0  2  0  0  3  0  0  0  0  0  0
  190.7060  176.9920  140.1430 C   0  0  0  0  0  2  0  0  0  0  0  0
  186.2750  178.1350  138.2810 S   0  0  0  0  0  1  0  0  0  0  0  0
  187.9050  178.5160  138.6670 O   0  0  0  0  0  0  0  0  0  0  0  0
  1  8  1  6  0  0  0
  1  3  1  0  0  0  0
  2  6  1  0  0  0  0
  3  7  1  0  0  0  0
  4  3  2  0  0  0  0
  4  5  1  0  0  0  0
  5  2  2  0  0  0  0
  7  6  2  0  0  0  0
  8 11  1  0  0  0  0
  9 10  1  0  0  0  0
 10 13  2  0  0  0  0
 11 14  2  0  0  0  0
 12 15  1  0  0  0  0
 14 13  1  0  0  0  0
 15  9  2  0  0  0  0
 15 11  1  0  0  0  0
 16  1  1  0  0  0  0
 17 16  1  0  0  0  0
 18 25  1  0  0  0  0
 19 23  1  0  0  0  0
 20 18  1  0  0  0  0
 20 22  1  0  0  0  0
 21 20  1  0  0  0  0
 22 27  1  6  0  0  0
 22 24  1  0  0  0  0
 23 18  2  0  0  0  0
 24 17  1  1  0  0  0
 25 24  1  0  0  0  0
 26 27  1  0  0  0  0
M  END
>  <MODEL>
1

>  <REMARK>
 VINA RESULT:      -9.2      0.000      0.000
  Name = 
  7 active torsions:
  status: ('A' for Active; 'I' for Inactive)
    1  A    between atoms: C_1  and  C_15
    2  A    between atoms: C_1  and  C_18
    3  A    between atoms: N_2  and  C_6
    4  A    between atoms: N_2  and  C_15
    5  A    between atoms: C_6  and  C_17
    6  A    between atoms: C_9  and  C_15
    7  A    between atoms: C_14  and  O_19
                            x       y       z     vdW  Elec       q    Type
                         _______ _______ _______ _____ _____    ______ ____

>  <TORSDO>
F 7

$$$$
=
 OpenBabel10272401073D

 27 29  0  0  1  0  0  0  0  0999 V2000
  187.9340  177.5040  144.0890 C   0  0  2  0  0  3  0  0  0  0  0  0
  184.1420  178.6790  145.7500 C   0  0  0  0  0  3  0  0  0  0  0  0
  186.6180  177.9030  144.6870 C   0  0  0  0  0  0  0  0  0  0  0  0
  186.4100  177.8940  146.0750 C   0  0  0  0  0  3  0  0  0  0  0  0
  185.1730  178.2750  146.6030 C   0  0  0  0  0  3  0  0  0  0  0  0
  184.3480  178.6980  144.3670 C   0  0  0  0  0  3  0  0  0  0  0  0
  185.5820  178.3100  143.8370 C   0  0  0  0  0  3  0  0  0  0  0  0
  189.1410  178.2430  144.6890 C   0  0  0  0  0  2  0  0  0  0  0  0
  190.9880  176.4190  147.4890 C   0  0  0  0  0  3  0  0  0  0  0  0
  191.9330  175.6980  146.7550 C   0  0  0  0  0  3  0  0  0  0  0  0
  190.1000  177.3550  145.4300 C   0  0  0  0  0  0  0  0  0  0  0  0
  189.1000  178.0250  147.6590 C   0  0  0  0  0  1  0  0  0  0  0  0
  191.9710  175.8080  145.3640 C   0  0  0  0  0  3  0  0  0  0  0  0
  191.0600  176.6370  144.7040 C   0  0  0  0  0  3  0  0  0  0  0  0
  190.0710  177.2490  146.8360 C   0  0  0  0  0  0  0  0  0  0  0  0
  187.9010  177.5880  142.6380 N   0  0  0  0  0  2  0  0  0  0  0  0
  189.0650  176.8610  142.1520 C   0  0  0  0  0  2  0  0  0  0  0  0
  191.7940  177.2290  139.8850 C   0  0  0  0  0  0  0  0  0  0  0  0
  193.4190  176.8540  138.1910 O   0  0  0  0  0  1  0  0  0  0  0  0
  190.6980  177.3170  138.9910 N   0  0  0  0  0  0  0  0  0  0  0  0
  190.7320  176.9170  137.6980 O   0  0  0  0  0  1  0  0  0  0  0  0
  189.4600  177.4860  139.7260 C   0  0  1  0  0  3  0  0  0  0  0  0
  193.0580  177.0170  139.5220 C   0  0  0  0  0  3  0  0  0  0  0  0
  189.8830  177.7090  141.1860 C   0  0  2  0  0  3  0  0  0  0  0  0
  191.3840  177.4080  141.2940 C   0  0  0  0  0  2  0  0  0  0  0  0
  187.4030  178.0040  138.4470 S   0  0  0  0  0  1  0  0  0  0  0  0
  188.7880  178.6170  139.2590 O   0  0  0  0  0  0  0  0  0  0  0  0
  1  3  1  0  0  0  0
  1  8  1  1  0  0  0
  2  5  1  0  0  0  0
  3  4  1  0  0  0  0
  4  5  2  0  0  0  0
  6  2  2  0  0  0  0
  7  6  1  0  0  0  0
  7  3  2  0  0  0  0
  8 11  1  0  0  0  0
 10  9  2  0  0  0  0
 11 15  2  0  0  0  0
 13 10  1  0  0  0  0
 14 13  2  0  0  0  0
 14 11  1  0  0  0  0
 15  9  1  0  0  0  0
 15 12  1  0  0  0  0
 16  1  1  0  0  0  0
 17 16  1  0  0  0  0
 18 25  1  0  0  0  0
 19 23  1  0  0  0  0
 20 22  1  0  0  0  0
 20 18  1  0  0  0  0
 21 20  1  0  0  0  0
 22 27  1  6  0  0  0
 22 24  1  0  0  0  0
 23 18  2  0  0  0  0
 24 25  1  0  0  0  0
 24 17  1  1  0  0  0
 26 27  1  0  0  0  0
M  END
>  <MODEL>
2

>  <REMARK>
 VINA RESULT:      -8.9      1.204      4.591
  Name = 
  7 active torsions:
  status: ('A' for Active; 'I' for Inactive)
    1  A    between atoms: C_1  and  C_15
    2  A    between atoms: C_1  and  C_18
    3  A    between atoms: N_2  and  C_6
    4  A    between atoms: N_2  and  C_15
    5  A    between atoms: C_6  and  C_17
    6  A    between atoms: C_9  and  C_15
    7  A    between atoms: C_14  and  O_19
                            x       y       z     vdW  Elec       q    Type
                         _______ _______ _______ _____ _____    ______ ____

>  <TORSDO>
F 7

$$$$
=
 OpenBabel10272401073D

 27 29  0  0  1  0  0  0  0  0999 V2000
  187.7610  177.4820  143.4180 C   0  0  2  0  0  3  0  0  0  0  0  0
  183.8090  178.8300  144.4580 C   0  0  0  0  0  3  0  0  0  0  0  0
  186.3800  177.9560  143.7590 C   0  0  0  0  0  0  0  0  0  0  0  0
  185.3920  178.1060  142.7740 C   0  0  0  0  0  3  0  0  0  0  0  0
  184.1120  178.5470  143.1230 C   0  0  0  0  0  3  0  0  0  0  0  0
  184.7880  178.6730  145.4440 C   0  0  0  0  0  3  0  0  0  0  0  0
  186.0710  178.2390  145.0950 C   0  0  0  0  0  3  0  0  0  0  0  0
  188.8830  178.3420  144.0210 C   0  0  0  0  0  2  0  0  0  0  0  0
  191.6970  176.4440  145.7700 C   0  0  0  0  0  3  0  0  0  0  0  0
  191.1690  176.3170  147.0580 C   0  0  0  0  0  3  0  0  0  0  0  0
  189.7020  177.6390  145.0670 C   0  0  0  0  0  0  0  0  0  0  0  0
  191.5570  177.1840  143.4030 C   0  0  0  0  0  1  0  0  0  0  0  0
  189.9080  176.8420  147.3520 C   0  0  0  0  0  3  0  0  0  0  0  0
  189.1760  177.4960  146.3580 C   0  0  0  0  0  3  0  0  0  0  0  0
  190.9700  177.1000  144.7710 C   0  0  0  0  0  0  0  0  0  0  0  0
  187.9160  177.3010  141.9830 N   0  0  0  0  0  2  0  0  0  0  0  0
  188.4550  178.5490  141.4620 C   0  0  0  0  0  2  0  0  0  0  0  0
  189.7960  176.6370  138.7670 C   0  0  0  0  0  0  0  0  0  0  0  0
  190.3320  174.8730  137.2670 O   0  0  0  0  0  1  0  0  0  0  0  0
  188.4380  176.7300  138.3720 N   0  0  0  0  0  0  0  0  0  0  0  0
  187.7860  175.7900  137.6460 O   0  0  0  0  0  1  0  0  0  0  0  0
  187.7450  177.7190  139.1730 C   0  0  1  0  0  3  0  0  0  0  0  0
  190.6800  175.7800  138.2590 C   0  0  0  0  0  3  0  0  0  0  0  0
  188.8430  178.4140  139.9950 C   0  0  2  0  0  3  0  0  0  0  0  0
  190.1410  177.6150  139.8210 C   0  0  0  0  0  2  0  0  0  0  0  0
  185.4450  178.4080  138.5670 S   0  0  0  0  0  1  0  0  0  0  0  0
  187.1300  178.6530  138.3380 O   0  0  0  0  0  0  0  0  0  0  0  0
  1  3  1  0  0  0  0
  1  8  1  6  0  0  0
  2  6  1  0  0  0  0
  3  7  1  0  0  0  0
  4  5  1  0  0  0  0
  4  3  2  0  0  0  0
  5  2  2  0  0  0  0
  7  6  2  0  0  0  0
  8 11  1  0  0  0  0
  9 10  1  0  0  0  0
 10 13  2  0  0  0  0
 11 14  2  0  0  0  0
 12 15  1  0  0  0  0
 14 13  1  0  0  0  0
 15 11  1  0  0  0  0
 15  9  2  0  0  0  0
 16  1  1  0  0  0  0
 17 16  1  0  0  0  0
 18 25  1  0  0  0  0
 19 23  1  0  0  0  0
 20 18  1  0  0  0  0
 20 22  1  0  0  0  0
 21 20  1  0  0  0  0
 22 27  1  6  0  0  0
 22 24  1  0  0  0  0
 23 18  2  0  0  0  0
 24 17  1  1  0  0  0
 25 24  1  0  0  0  0
 27 26  1  0  0  0  0
M  END
>  <MODEL>
3

>  <REMARK>
 VINA RESULT:      -8.9      0.865      4.341
  Name = 
  7 active torsions:
  status: ('A' for Active; 'I' for Inactive)
    1  A    between atoms: C_1  and  C_15
    2  A    between atoms: C_1  and  C_18
    3  A    between atoms: N_2  and  C_6
    4  A    between atoms: N_2  and  C_15
    5  A    between atoms: C_6  and  C_17
    6  A    between atoms: C_9  and  C_15
    7  A    between atoms: C_14  and  O_19
                            x       y       z     vdW  Elec       q    Type
                         _______ _______ _______ _____ _____    ______ ____

>  <TORSDO>
F 7

$$$$
=
 OpenBabel10272401073D

 27 29  0  0  1  0  0  0  0  0999 V2000
  188.1830  177.6040  143.5920 C   0  0  2  0  0  3  0  0  0  0  0  0
  191.5040  176.7560  146.1950 C   0  0  0  0  0  3  0  0  0  0  0  0
  189.3290  177.3170  144.5160 C   0  0  0  0  0  0  0  0  0  0  0  0
  189.1620  177.3070  145.9100 C   0  0  0  0  0  3  0  0  0  0  0  0
  190.2490  177.0330  146.7460 C   0  0  0  0  0  3  0  0  0  0  0  0
  191.6720  176.7560  144.8070 C   0  0  0  0  0  3  0  0  0  0  0  0
  190.5870  177.0380  143.9700 C   0  0  0  0  0  3  0  0  0  0  0  0
  186.8700  176.9130  143.9940 C   0  0  0  0  0  2  0  0  0  0  0  0
  184.0560  179.2410  145.1070 C   0  0  0  0  0  3  0  0  0  0  0  0
  183.4100  179.4750  143.8900 C   0  0  0  0  0  3  0  0  0  0  0  0
  185.6700  177.8170  143.9800 C   0  0  0  0  0  0  0  0  0  0  0  0
  185.8230  178.1670  146.4840 C   0  0  0  0  0  1  0  0  0  0  0  0
  183.8840  178.8760  142.7210 C   0  0  0  0  0  3  0  0  0  0  0  0
  185.0080  178.0470  142.7670 C   0  0  0  0  0  3  0  0  0  0  0  0
  185.1830  178.4140  145.1610 C   0  0  0  0  0  0  0  0  0  0  0  0
  188.5440  177.3410  142.2080 N   0  0  0  0  0  2  0  0  0  0  0  0
  188.2470  178.5560  141.4620 C   0  0  0  0  0  2  0  0  0  0  0  0
  189.7970  176.7130  138.8310 C   0  0  0  0  0  0  0  0  0  0  0  0
  190.4710  174.9820  137.3480 O   0  0  0  0  0  1  0  0  0  0  0  0
  188.4610  176.7700  138.3600 N   0  0  0  0  0  0  0  0  0  0  0  0
  187.8810  175.8180  137.5910 O   0  0  0  0  0  1  0  0  0  0  0  0
  187.6940  177.7290  139.1290 C   0  0  1  0  0  3  0  0  0  0  0  0
  190.7340  175.8890  138.3670 C   0  0  0  0  0  3  0  0  0  0  0  0
  188.7210  178.4480  140.0190 C   0  0  2  0  0  3  0  0  0  0  0  0
  190.0520  177.6900  139.9110 C   0  0  0  0  0  2  0  0  0  0  0  0
  185.4110  178.3590  138.4050 S   0  0  0  0  0  1  0  0  0  0  0  0
  187.0990  178.6520  138.2690 O   0  0  0  0  0  0  0  0  0  0  0  0
  1  8  1  1  0  0  0
  1  3  1  0  0  0  0
  2  5  1  0  0  0  0
  3  4  1  0  0  0  0
  4  5  2  0  0  0  0
  6  2  2  0  0  0  0
  7  3  2  0  0  0  0
  7  6  1  0  0  0  0
  9 15  1  0  0  0  0
 10  9  2  0  0  0  0
 11  8  1  0  0  0  0
 11 15  2  0  0  0  0
 13 14  2  0  0  0  0
 13 10  1  0  0  0  0
 14 11  1  0  0  0  0
 15 12  1  0  0  0  0
 16  1  1  0  0  0  0
 17 16  1  0  0  0  0
 18 25  1  0  0  0  0
 19 23  1  0  0  0  0
 20 18  1  0  0  0  0
 20 22  1  0  0  0  0
 21 20  1  0  0  0  0
 22 27  1  6  0  0  0
 22 24  1  0  0  0  0
 23 18  2  0  0  0  0
 24 17  1  1  0  0  0
 25 24  1  0  0  0  0
 27 26  1  0  0  0  0
M  END
>  <MODEL>
4

>  <REMARK>
 VINA RESULT:      -8.8      0.909      1.847
  Name = 
  7 active torsions:
  status: ('A' for Active; 'I' for Inactive)
    1  A    between atoms: C_1  and  C_15
    2  A    between atoms: C_1  and  C_18
    3  A    between atoms: N_2  and  C_6
    4  A    between atoms: N_2  and  C_15
    5  A    between atoms: C_6  and  C_17
    6  A    between atoms: C_9  and  C_15
    7  A    between atoms: C_14  and  O_19
                            x       y       z     vdW  Elec       q    Type
                         _______ _______ _______ _____ _____    ______ ____

>  <TORSDO>
F 7

$$$$
=
 OpenBabel10272401073D

 27 29  0  0  1  0  0  0  0  0999 V2000
  188.0660  178.4130  142.5140 C   0  0  2  0  0  3  0  0  0  0  0  0
  191.6120  176.3180  143.7610 C   0  0  0  0  0  3  0  0  0  0  0  0
  189.3130  177.7020  142.9470 C   0  0  0  0  0  0  0  0  0  0  0  0
  190.4460  178.4080  143.3810 C   0  0  0  0  0  3  0  0  0  0  0  0
  191.5940  177.7160  143.7820 C   0  0  0  0  0  3  0  0  0  0  0  0
  190.4820  175.6120  143.3380 C   0  0  0  0  0  3  0  0  0  0  0  0
  189.3360  176.3030  142.9300 C   0  0  0  0  0  3  0  0  0  0  0  0
  186.7700  177.6540  142.8390 C   0  0  0  0  0  2  0  0  0  0  0  0
  184.4030  178.7870  145.6130 C   0  0  0  0  0  3  0  0  0  0  0  0
  185.1920  178.5550  146.7440 C   0  0  0  0  0  3  0  0  0  0  0  0
  186.1950  177.9680  144.1920 C   0  0  0  0  0  0  0  0  0  0  0  0
  184.0350  178.7900  143.1560 C   0  0  0  0  0  1  0  0  0  0  0  0
  186.4820  178.0390  146.6020 C   0  0  0  0  0  3  0  0  0  0  0  0
  186.9830  177.7510  145.3300 C   0  0  0  0  0  3  0  0  0  0  0  0
  184.8970  178.4980  144.3370 C   0  0  0  0  0  0  0  0  0  0  0  0
  188.1400  178.8040  141.1150 N   0  0  0  0  0  2  0  0  0  0  0  0
  188.6160  177.6380  140.3830 C   0  0  0  0  0  2  0  0  0  0  0  0
  191.3860  176.7460  138.3210 C   0  0  0  0  0  0  0  0  0  0  0  0
  192.8450  175.6120  136.8260 O   0  0  0  0  0  1  0  0  0  0  0  0
  190.4170  177.0620  137.3360 N   0  0  0  0  0  0  0  0  0  0  0  0
  190.3590  176.4910  136.1090 O   0  0  0  0  0  1  0  0  0  0  0  0
  189.2850  177.7370  137.9380 C   0  0  1  0  0  3  0  0  0  0  0  0
  192.5140  176.0760  138.0930 C   0  0  0  0  0  3  0  0  0  0  0  0
  189.7070  178.0170  139.3900 C   0  0  2  0  0  3  0  0  0  0  0  0
  191.0110  177.2530  139.6580 C   0  0  0  0  0  2  0  0  0  0  0  0
  187.4910  178.7830  136.5890 S   0  0  0  0  0  1  0  0  0  0  0  0
  189.0560  178.9470  137.2810 O   0  0  0  0  0  0  0  0  0  0  0  0
  1  8  1  6  0  0  0
  1  3  1  0  0  0  0
  2  5  1  0  0  0  0
  3  4  1  0  0  0  0
  4  5  2  0  0  0  0
  6  2  2  0  0  0  0
  7  3  2  0  0  0  0
  7  6  1  0  0  0  0
  8 11  1  0  0  0  0
  9 10  1  0  0  0  0
 11 15  1  0  0  0  0
 11 14  2  0  0  0  0
 12 15  1  0  0  0  0
 13 10  2  0  0  0  0
 14 13  1  0  0  0  0
 15  9  2  0  0  0  0
 16  1  1  0  0  0  0
 17 16  1  0  0  0  0
 18 25  1  0  0  0  0
 19 23  1  0  0  0  0
 20 22  1  0  0  0  0
 20 18  1  0  0  0  0
 21 20  1  0  0  0  0
 22 27  1  6  0  0  0
 22 24  1  0  0  0  0
 23 18  2  0  0  0  0
 24 25  1  0  0  0  0
 24 17  1  1  0  0  0
 26 27  1  0  0  0  0
M  END
>  <MODEL>
5

>  <REMARK>
 VINA RESULT:      -8.4      1.745      2.007
  Name = 
  7 active torsions:
  status: ('A' for Active; 'I' for Inactive)
    1  A    between atoms: C_1  and  C_15
    2  A    between atoms: C_1  and  C_18
    3  A    between atoms: N_2  and  C_6
    4  A    between atoms: N_2  and  C_15
    5  A    between atoms: C_6  and  C_17
    6  A    between atoms: C_9  and  C_15
    7  A    between atoms: C_14  and  O_19
                            x       y       z     vdW  Elec       q    Type
                         _______ _______ _______ _____ _____    ______ ____

>  <TORSDO>
F 7

$$$$
=
 OpenBabel10272401073D

 27 29  0  0  1  0  0  0  0  0999 V2000
  187.7100  177.9700  143.5130 C   0  0  2  0  0  3  0  0  0  0  0  0
  191.9290  177.2740  143.0350 C   0  0  0  0  0  3  0  0  0  0  0  0
  189.1830  177.7490  143.3480 C   0  0  0  0  0  0  0  0  0  0  0  0
  190.1180  178.7240  143.7320 C   0  0  0  0  0  3  0  0  0  0  0  0
  191.4870  178.4880  143.5700 C   0  0  0  0  0  3  0  0  0  0  0  0
  191.0020  176.2970  142.6610 C   0  0  0  0  0  3  0  0  0  0  0  0
  189.6320  176.5350  142.8150 C   0  0  0  0  0  3  0  0  0  0  0  0
  187.0790  177.1510  144.6510 C   0  0  0  0  0  2  0  0  0  0  0  0
  187.4780  178.5460  148.1820 C   0  0  0  0  0  3  0  0  0  0  0  0
  188.7290  178.0290  148.5300 C   0  0  0  0  0  3  0  0  0  0  0  0
  187.6310  177.4630  146.0120 C   0  0  0  0  0  0  0  0  0  0  0  0
  185.6020  178.8670  146.5850 C   0  0  0  0  0  1  0  0  0  0  0  0
  189.4360  177.2380  147.6220 C   0  0  0  0  0  3  0  0  0  0  0  0
  188.8900  176.9600  146.3660 C   0  0  0  0  0  3  0  0  0  0  0  0
  186.9250  178.2700  146.9280 C   0  0  0  0  0  0  0  0  0  0  0  0
  187.0060  177.7940  142.2520 N   0  0  0  0  0  2  0  0  0  0  0  0
  185.9250  178.7690  142.2380 C   0  0  0  0  0  2  0  0  0  0  0  0
  182.4310  178.8030  142.9480 C   0  0  0  0  0  0  0  0  0  0  0  0
  180.1580  179.4560  143.1890 O   0  0  0  0  0  1  0  0  0  0  0  0
  182.4100  178.7940  141.5310 N   0  0  0  0  0  0  0  0  0  0  0  0
  181.4380  179.3620  140.7770 O   0  0  0  0  0  1  0  0  0  0  0  0
  183.7260  178.4850  141.0080 C   0  0  1  0  0  3  0  0  0  0  0  0
  181.3910  179.1060  143.7230 C   0  0  0  0  0  3  0  0  0  0  0  0
  184.5640  178.0860  142.2330 C   0  0  2  0  0  3  0  0  0  0  0  0
  183.7520  178.4250  143.4910 C   0  0  0  0  0  2  0  0  0  0  0  0
  184.1450  178.0230  138.6120 S   0  0  0  0  0  1  0  0  0  0  0  0
  183.6400  177.4020  140.1320 O   0  0  0  0  0  0  0  0  0  0  0  0
  1  8  1  1  0  0  0
  2  5  1  0  0  0  0
  3  1  1  0  0  0  0
  3  4  1  0  0  0  0
  5  4  2  0  0  0  0
  6  7  1  0  0  0  0
  6  2  2  0  0  0  0
  7  3  2  0  0  0  0
  8 11  1  0  0  0  0
  9 10  1  0  0  0  0
 11 14  2  0  0  0  0
 11 15  1  0  0  0  0
 12 15  1  0  0  0  0
 13 10  2  0  0  0  0
 14 13  1  0  0  0  0
 15  9  2  0  0  0  0
 16  1  1  0  0  0  0
 17 16  1  0  0  0  0
 18 25  1  0  0  0  0
 18 23  2  0  0  0  0
 19 23  1  0  0  0  0
 20 18  1  0  0  0  0
 21 20  1  0  0  0  0
 22 27  1  6  0  0  0
 22 20  1  0  0  0  0
 22 24  1  0  0  0  0
 24 17  1  1  0  0  0
 24 25  1  0  0  0  0
 26 27  1  0  0  0  0
M  END
>  <MODEL>
6

>  <REMARK>
 VINA RESULT:      -8.4      3.175      5.817
  Name = 
  7 active torsions:
  status: ('A' for Active; 'I' for Inactive)
    1  A    between atoms: C_1  and  C_15
    2  A    between atoms: C_1  and  C_18
    3  A    between atoms: N_2  and  C_6
    4  A    between atoms: N_2  and  C_15
    5  A    between atoms: C_6  and  C_17
    6  A    between atoms: C_9  and  C_15
    7  A    between atoms: C_14  and  O_19
                            x       y       z     vdW  Elec       q    Type
                         _______ _______ _______ _____ _____    ______ ____

>  <TORSDO>
F 7

$$$$
=
 OpenBabel10272401073D

 27 29  0  0  1  0  0  0  0  0999 V2000
  188.5530  178.0310  143.7560 C   0  0  2  0  0  3  0  0  0  0  0  0
  191.1580  176.5440  146.8400 C   0  0  0  0  0  3  0  0  0  0  0  0
  189.4470  177.5210  144.8450 C   0  0  0  0  0  0  0  0  0  0  0  0
  188.9950  177.4020  146.1690 C   0  0  0  0  0  3  0  0  0  0  0  0
  189.8510  176.9200  147.1640 C   0  0  0  0  0  3  0  0  0  0  0  0
  191.6090  176.6520  145.5220 C   0  0  0  0  0  3  0  0  0  0  0  0
  190.7560  177.1410  144.5270 C   0  0  0  0  0  3  0  0  0  0  0  0
  187.2520  177.2280  143.5890 C   0  0  0  0  0  2  0  0  0  0  0  0
  183.9000  178.9100  144.3050 C   0  0  0  0  0  3  0  0  0  0  0  0
  183.9050  178.9240  145.7030 C   0  0  0  0  0  3  0  0  0  0  0  0
  186.0700  177.8170  144.3050 C   0  0  0  0  0  0  0  0  0  0  0  0
  184.9450  178.3960  142.1110 C   0  0  0  0  0  1  0  0  0  0  0  0
  184.9910  178.3950  146.4030 C   0  0  0  0  0  3  0  0  0  0  0  0
  186.0710  177.8470  145.7060 C   0  0  0  0  0  3  0  0  0  0  0  0
  184.9770  178.3620  143.6010 C   0  0  0  0  0  0  0  0  0  0  0  0
  189.2770  178.1720  142.5020 N   0  0  0  0  0  2  0  0  0  0  0  0
  188.3200  178.6660  141.5220 C   0  0  0  0  0  2  0  0  0  0  0  0
  187.5620  178.1120  138.0810 C   0  0  0  0  0  0  0  0  0  0  0  0
  187.3450  178.3490  135.7260 O   0  0  0  0  0  1  0  0  0  0  0  0
  188.9720  177.9700  138.0650 N   0  0  0  0  0  0  0  0  0  0  0  0
  189.7590  178.2750  137.0050 O   0  0  0  0  0  1  0  0  0  0  0  0
  189.4850  177.8650  139.4160 C   0  0  1  0  0  3  0  0  0  0  0  0
  186.8010  178.2860  137.0020 C   0  0  0  0  0  3  0  0  0  0  0  0
  188.2420  177.7430  140.3120 C   0  0  2  0  0  3  0  0  0  0  0  0
  187.0070  178.0380  139.4500 C   0  0  0  0  0  2  0  0  0  0  0  0
  191.8270  177.2700  139.9590 S   0  0  0  0  0  1  0  0  0  0  0  0
  190.2580  176.7100  139.5360 O   0  0  0  0  0  0  0  0  0  0  0  0
  1  8  1  6  0  0  0
  1  3  1  0  0  0  0
  2  5  1  0  0  0  0
  3  4  1  0  0  0  0
  4  5  2  0  0  0  0
  6  2  2  0  0  0  0
  7  3  2  0  0  0  0
  7  6  1  0  0  0  0
  8 11  1  0  0  0  0
  9 10  1  0  0  0  0
 10 13  2  0  0  0  0
 11 14  2  0  0  0  0
 12 15  1  0  0  0  0
 14 13  1  0  0  0  0
 15  9  2  0  0  0  0
 15 11  1  0  0  0  0
 16  1  1  0  0  0  0
 17 16  1  0  0  0  0
 18 25  1  0  0  0  0
 19 23  1  0  0  0  0
 20 18  1  0  0  0  0
 20 22  1  0  0  0  0
 21 20  1  0  0  0  0
 22 27  1  6  0  0  0
 22 24  1  0  0  0  0
 23 18  2  0  0  0  0
 24 17  1  1  0  0  0
 25 24  1  0  0  0  0
 27 26  1  0  0  0  0
M  END
>  <MODEL>
7

>  <REMARK>
 VINA RESULT:      -8.3      1.745      2.484
  Name = 
  7 active torsions:
  status: ('A' for Active; 'I' for Inactive)
    1  A    between atoms: C_1  and  C_15
    2  A    between atoms: C_1  and  C_18
    3  A    between atoms: N_2  and  C_6
    4  A    between atoms: N_2  and  C_15
    5  A    between atoms: C_6  and  C_17
    6  A    between atoms: C_9  and  C_15
    7  A    between atoms: C_14  and  O_19
                            x       y       z     vdW  Elec       q    Type
                         _______ _______ _______ _____ _____    ______ ____

>  <TORSDO>
F 7

$$$$
=
 OpenBabel10272401073D

 27 29  0  0  1  0  0  0  0  0999 V2000
  187.9670  177.3170  143.7770 C   0  0  2  0  0  3  0  0  0  0  0  0
  183.9960  178.7970  144.5230 C   0  0  0  0  0  3  0  0  0  0  0  0
  186.5860  177.8270  144.0580 C   0  0  0  0  0  0  0  0  0  0  0  0
  186.1600  178.1080  145.3660 C   0  0  0  0  0  3  0  0  0  0  0  0
  184.8670  178.5870  145.5970 C   0  0  0  0  0  3  0  0  0  0  0  0
  184.4190  178.5260  143.2190 C   0  0  0  0  0  3  0  0  0  0  0  0
  185.7100  178.0410  142.9870 C   0  0  0  0  0  3  0  0  0  0  0  0
  189.0830  178.1380  144.4430 C   0  0  0  0  0  2  0  0  0  0  0  0
  190.8810  176.5060  147.3890 C   0  0  0  0  0  3  0  0  0  0  0  0
  191.8860  175.7980  146.7250 C   0  0  0  0  0  3  0  0  0  0  0  0
  190.0440  177.3220  145.2590 C   0  0  0  0  0  0  0  0  0  0  0  0
  188.9230  178.0350  147.4150 C   0  0  0  0  0  1  0  0  0  0  0  0
  191.9790  175.8550  145.3330 C   0  0  0  0  0  3  0  0  0  0  0  0
  191.0640  176.6190  144.6030 C   0  0  0  0  0  3  0  0  0  0  0  0
  189.9600  177.2700  146.6650 C   0  0  0  0  0  0  0  0  0  0  0  0
  188.1860  177.1470  142.3490 N   0  0  0  0  0  2  0  0  0  0  0  0
  188.5510  178.4560  141.8250 C   0  0  0  0  0  2  0  0  0  0  0  0
  190.0810  176.5540  139.2250 C   0  0  0  0  0  0  0  0  0  0  0  0
  190.6740  174.8140  137.7170 O   0  0  0  0  0  1  0  0  0  0  0  0
  188.7930  176.7660  138.6710 N   0  0  0  0  0  0  0  0  0  0  0  0
  188.1720  175.9070  137.8280 O   0  0  0  0  0  1  0  0  0  0  0  0
  188.0770  177.7730  139.4290 C   0  0  1  0  0  3  0  0  0  0  0  0
  190.9590  175.6530  138.7870 C   0  0  0  0  0  3  0  0  0  0  0  0
  189.1090  178.3490  140.4120 C   0  0  2  0  0  3  0  0  0  0  0  0
  190.3600  177.4600  140.3590 C   0  0  0  0  0  2  0  0  0  0  0  0
  188.9780  179.0980  137.5410 S   0  0  0  0  0  1  0  0  0  0  0  0
  187.6390  178.7830  138.5710 O   0  0  0  0  0  0  0  0  0  0  0  0
  1  3  1  0  0  0  0
  1  8  1  6  0  0  0
  2  5  1  0  0  0  0
  3  4  1  0  0  0  0
  4  5  2  0  0  0  0
  6  2  2  0  0  0  0
  7  6  1  0  0  0  0
  7  3  2  0  0  0  0
  8 11  1  0  0  0  0
 10  9  1  0  0  0  0
 11 15  1  0  0  0  0
 13 10  2  0  0  0  0
 14 11  2  0  0  0  0
 14 13  1  0  0  0  0
 15  9  2  0  0  0  0
 15 12  1  0  0  0  0
 16  1  1  0  0  0  0
 17 16  1  0  0  0  0
 18 25  1  0  0  0  0
 19 23  1  0  0  0  0
 20 18  1  0  0  0  0
 20 22  1  0  0  0  0
 21 20  1  0  0  0  0
 22 27  1  6  0  0  0
 22 24  1  0  0  0  0
 23 18  2  0  0  0  0
 24 17  1  1  0  0  0
 25 24  1  0  0  0  0
 26 27  1  0  0  0  0
M  END
>  <MODEL>
8

>  <REMARK>
 VINA RESULT:      -8.3      0.946      4.567
  Name = 
  7 active torsions:
  status: ('A' for Active; 'I' for Inactive)
    1  A    between atoms: C_1  and  C_15
    2  A    between atoms: C_1  and  C_18
    3  A    between atoms: N_2  and  C_6
    4  A    between atoms: N_2  and  C_15
    5  A    between atoms: C_6  and  C_17
    6  A    between atoms: C_9  and  C_15
    7  A    between atoms: C_14  and  O_19
                            x       y       z     vdW  Elec       q    Type
                         _______ _______ _______ _____ _____    ______ ____

>  <TORSDO>
F 7

$$$$
=
 OpenBabel10272401073D

 27 29  0  0  1  0  0  0  0  0999 V2000
  187.6850  177.1740  144.2430 C   0  0  2  0  0  3  0  0  0  0  0  0
  183.8730  179.0750  144.8520 C   0  0  0  0  0  3  0  0  0  0  0  0
  186.3570  177.8420  144.4340 C   0  0  0  0  0  0  0  0  0  0  0  0
  185.5150  178.1240  143.3460 C   0  0  0  0  0  3  0  0  0  0  0  0
  184.2790  178.7430  143.5560 C   0  0  0  0  0  3  0  0  0  0  0  0
  184.7050  178.7880  145.9390 C   0  0  0  0  0  3  0  0  0  0  0  0
  185.9440  178.1740  145.7290 C   0  0  0  0  0  3  0  0  0  0  0  0
  188.8850  178.0400  144.6630 C   0  0  0  0  0  2  0  0  0  0  0  0
  190.9780  176.5380  147.4810 C   0  0  0  0  0  3  0  0  0  0  0  0
  191.9840  175.8990  146.7500 C   0  0  0  0  0  3  0  0  0  0  0  0
  189.9510  177.2920  145.4120 C   0  0  0  0  0  0  0  0  0  0  0  0
  188.9260  177.9300  147.6390 C   0  0  0  0  0  1  0  0  0  0  0  0
  191.9810  175.9610  145.3550 C   0  0  0  0  0  3  0  0  0  0  0  0
  190.9700  176.6590  144.6890 C   0  0  0  0  0  3  0  0  0  0  0  0
  189.9620  177.2360  146.8210 C   0  0  0  0  0  0  0  0  0  0  0  0
  187.8260  176.6570  142.8910 N   0  0  0  0  0  2  0  0  0  0  0  0
  188.5330  177.6760  142.1270 C   0  0  0  0  0  2  0  0  0  0  0  0
  187.5380  178.1650  138.7370 C   0  0  0  0  0  0  0  0  0  0  0  0
  186.9170  179.1380  136.6590 O   0  0  0  0  0  1  0  0  0  0  0  0
  188.8890  178.5920  138.6780 N   0  0  0  0  0  0  0  0  0  0  0  0
  189.3550  179.5390  137.8290 O   0  0  0  0  0  1  0  0  0  0  0  0
  189.5930  178.2090  139.8850 C   0  0  1  0  0  3  0  0  0  0  0  0
  186.6190  178.4120  137.8050 C   0  0  0  0  0  3  0  0  0  0  0  0
  188.6170  177.3020  140.6520 C   0  0  2  0  0  3  0  0  0  0  0  0
  187.2480  177.3920  139.9630 C   0  0  0  0  0  2  0  0  0  0  0  0
  191.7820  177.6570  140.9030 S   0  0  0  0  0  1  0  0  0  0  0  0
  190.7360  177.4820  139.5510 O   0  0  0  0  0  0  0  0  0  0  0  0
  1  3  1  0  0  0  0
  1  8  1  6  0  0  0
  2  6  1  0  0  0  0
  3  7  1  0  0  0  0
  4  5  1  0  0  0  0
  4  3  2  0  0  0  0
  5  2  2  0  0  0  0
  7  6  2  0  0  0  0
  8 11  1  0  0  0  0
 10  9  2  0  0  0  0
 11 15  2  0  0  0  0
 13 10  1  0  0  0  0
 14 13  2  0  0  0  0
 14 11  1  0  0  0  0
 15  9  1  0  0  0  0
 15 12  1  0  0  0  0
 16  1  1  0  0  0  0
 17 16  1  0  0  0  0
 18 25  1  0  0  0  0
 19 23  1  0  0  0  0
 20 18  1  0  0  0  0
 20 22  1  0  0  0  0
 21 20  1  0  0  0  0
 22 27  1  6  0  0  0
 22 24  1  0  0  0  0
 23 18  2  0  0  0  0
 24 17  1  1  0  0  0
 25 24  1  0  0  0  0
 27 26  1  0  0  0  0
M  END
>  <MODEL>
9

>  <REMARK>
 VINA RESULT:      -8.0      1.966      5.122
  Name = 
  7 active torsions:
  status: ('A' for Active; 'I' for Inactive)
    1  A    between atoms: C_1  and  C_15
    2  A    between atoms: C_1  and  C_18
    3  A    between atoms: N_2  and  C_6
    4  A    between atoms: N_2  and  C_15
    5  A    between atoms: C_6  and  C_17
    6  A    between atoms: C_9  and  C_15
    7  A    between atoms: C_14  and  O_19
                            x       y       z     vdW  Elec       q    Type
                         _______ _______ _______ _____ _____    ______ ____

>  <TORSDO>
F 7

$$$$
