=
 OpenBabel10272414423D

 43 47  0  0  1  0  0  0  0  0999 V2000
  180.8930  175.7430  139.3030 C   0  0  0  0  0  0  0  0  0  0  0  0
  183.8900  178.6980  142.6160 C   0  0  1  0  0  0  0  0  0  0  0  0
  180.7590  177.5870  140.9140 C   0  0  2  0  0  3  0  0  0  0  0  0
  182.3880  175.8870  139.1980 C   0  0  0  0  0  2  0  0  0  0  0  0
  180.3580  174.7070  138.9490 O   0  0  0  0  0  0  0  0  0  0  0  0
  182.1890  178.0260  140.5910 C   0  0  2  0  0  0  0  0  0  0  0  0
  180.0510  176.9020  139.7500 C   0  0  0  0  0  2  0  0  0  0  0  0
  182.9630  176.7120  140.3630 C   0  0  0  0  0  2  0  0  0  0  0  0
  183.5960  179.7340  141.7050 O   0  0  0  0  0  0  0  0  0  0  0  0
  182.5710  178.7760  141.8930 C   0  0  2  0  0  0  0  0  0  0  0  0
  181.1230  179.5230  142.7270 S   0  0  0  0  0  0  0  0  0  0  0  0
  179.9900  178.7250  141.5460 C   0  0  0  0  0  2  0  0  0  0  0  0
  186.0760  178.6210  141.3840 C   0  0  0  0  0  1  0  0  0  0  0  0
  185.0120  177.8060  142.0970 C   0  0  0  0  0  2  0  0  0  0  0  0
  184.0140  179.1890  144.0690 C   0  0  1  0  0  3  0  0  0  0  0  0
  183.1790  178.4900  144.9460 O   0  0  0  0  0  1  0  0  0  0  0  0
  185.4640  179.1380  144.5410 C   0  0  0  0  0  2  0  0  0  0  0  0
  185.6180  179.1830  147.0680 C   0  0  0  0  0  1  0  0  0  0  0  0
  185.6570  178.3170  145.8160 C   0  0  2  0  0  3  0  0  0  0  0  0
  186.8970  177.4050  145.7350 C   0  0  1  0  0  3  0  0  0  0  0  0
  187.1500  176.9940  144.4220 O   0  0  0  0  0  1  0  0  0  0  0  0
  188.1760  177.9680  146.3740 C   0  0  0  0  0  3  0  0  0  0  0  0
  190.0710  176.9650  146.3300 C   0  0  0  0  0  2  0  0  0  0  0  0
  189.3550  177.9430  145.4170 C   0  0  0  0  0  2  0  0  0  0  0  0
  188.8880  176.9810  147.2800 C   0  0  0  0  0  2  0  0  0  0  0  0
  182.1990  178.9370  139.3140 C   0  0  2  0  0  3  0  0  0  0  0  0
  183.5550  179.2670  138.6680 C   0  0  0  0  0  2  0  0  0  0  0  0
  183.3450  177.9080  136.7460 O   0  0  0  0  0  0  0  0  0  0  0  0
  184.0410  178.2410  137.6940 C   0  0  0  0  0  0  0  0  0  0  0  0
  185.3740  177.6010  137.9160 C   0  0  0  0  0  2  0  0  0  0  0  0
  186.4720  178.3200  137.1490 C   0  0  0  0  0  2  0  0  0  0  0  0
  188.1800  177.1140  138.4090 C   0  0  0  0  0  3  0  0  0  0  0  0
  187.7540  178.2650  137.9060 C   0  0  0  0  0  3  0  0  0  0  0  0
  189.6780  177.8610  140.0650 O   0  0  0  0  0  0  0  0  0  0  0  0
  189.4340  177.0190  139.1620 C   0  0  0  0  0  0  0  0  0  0  0  0
  190.3810  175.9910  138.8830 N   0  0  0  0  0  1  0  0  0  0  0  0
  181.2120  180.1070  139.3010 C   0  0  0  0  0  2  0  0  0  0  0  0
  180.8550  180.4810  137.9040 C   0  0  0  0  0  0  0  0  0  0  0  0
  180.2240  181.1790  135.2690 C   0  0  0  0  0  3  0  0  0  0  0  0
  180.6630  182.1580  136.1650 C   0  0  0  0  0  3  0  0  0  0  0  0
  180.1020  179.8500  135.6880 C   0  0  0  0  0  3  0  0  0  0  0  0
  180.9800  181.8090  137.4820 C   0  0  0  0  0  3  0  0  0  0  0  0
  180.4190  179.5010  137.0040 C   0  0  0  0  0  3  0  0  0  0  0  0
  1  7  1  0  0  0  0
  2 14  1  6  0  0  0
  2 15  1  0  0  0  0
  3  7  1  6  0  0  0
  3 12  1  0  0  0  0
  4  1  1  0  0  0  0
  4  8  1  0  0  0  0
  5  1  2  0  0  0  0
  6 26  1  6  0  0  0
  6  3  1  0  0  0  0
  6 10  1  0  0  0  0
  8  6  1  0  0  0  0
  9  2  1  0  0  0  0
 10  9  1  6  0  0  0
 10  2  1  0  0  0  0
 10 11  1  0  0  0  0
 12 11  1  0  0  0  0
 13 14  1  0  0  0  0
 15 17  1  0  0  0  0
 15 16  1  1  0  0  0
 17 19  1  0  0  0  0
 19 18  1  1  0  0  0
 20 21  1  6  0  0  0
 20 19  1  0  0  0  0
 20 22  1  0  0  0  0
 22 25  1  0  0  0  0
 23 25  1  0  0  0  0
 24 23  1  0  0  0  0
 24 22  1  0  0  0  0
 26 27  1  1  0  0  0
 28 29  2  0  0  0  0
 29 30  1  0  0  0  0
 29 27  1  0  0  0  0
 31 33  1  0  0  0  0
 31 30  1  0  0  0  0
 32 35  1  0  0  0  0
 33 32  2  0  0  0  0
 35 34  2  0  0  0  0
 36 35  1  0  0  0  0
 37 26  1  0  0  0  0
 38 37  1  0  0  0  0
 39 41  2  0  0  0  0
 39 40  1  0  0  0  0
 40 42  2  0  0  0  0
 41 43  1  0  0  0  0
 42 38  1  0  0  0  0
 43 38  2  0  0  0  0
M  END
>  <MODEL>
1

>  <REMARK>
 VINA RESULT:      -6.6      0.000      0.000
  Name = 
  15 active torsions:
  status: ('A' for Active; 'I' for Inactive)
    1  A    between atoms: C_1  and  C_34
    2  A    between atoms: C_1  and  C_35
    3  A    between atoms: C_3  and  C_12
    4  A    between atoms: C_4  and  C_15
    5  A    between atoms: C_8  and  C_13
    6  A    between atoms: C_8  and  C_34
    7  A    between atoms: C_9  and  C_19
    8  A    between atoms: C_9  and  C_35
    9  A    between atoms: C_10  and  C_41
   10  A    between atoms: C_10  and  C_42
   11  A    between atoms: C_11  and  C_14
   12  A    between atoms: C_14  and  C_41
   13  A    between atoms: C_15  and  C_22
   14  A    between atoms: C_21  and  C_41
   15  A    between atoms: C_22  and  C_42
                            x       y       z     vdW  Elec       q    Type
                         _______ _______ _______ _____ _____    ______ ____

>  <TORSDO>
F 15

$$$$
=
 OpenBabel10272414423D

 43 47  0  0  1  0  0  0  0  0999 V2000
  181.0030  175.9540  139.3860 C   0  0  0  0  0  0  0  0  0  0  0  0
  184.0010  178.5380  142.9950 C   0  0  1  0  0  0  0  0  0  0  0  0
  180.8840  177.6670  141.1350 C   0  0  2  0  0  3  0  0  0  0  0  0
  182.5050  176.0570  139.3280 C   0  0  0  0  0  2  0  0  0  0  0  0
  180.4470  174.9670  138.9370 O   0  0  0  0  0  0  0  0  0  0  0  0
  182.3350  178.0840  140.8830 C   0  0  2  0  0  0  0  0  0  0  0  0
  180.1860  177.1010  139.9040 C   0  0  0  0  0  2  0  0  0  0  0  0
  183.0730  176.7670  140.5690 C   0  0  0  0  0  2  0  0  0  0  0  0
  183.7630  179.6520  142.1620 O   0  0  0  0  0  0  0  0  0  0  0  0
  182.7050  178.7160  142.2490 C   0  0  2  0  0  0  0  0  0  0  0  0
  181.2590  179.4420  143.1060 S   0  0  0  0  0  0  0  0  0  0  0  0
  180.1330  178.7770  141.8380 C   0  0  0  0  0  2  0  0  0  0  0  0
  186.3530  178.4640  142.1190 C   0  0  0  0  0  1  0  0  0  0  0  0
  185.1090  177.6540  142.4330 C   0  0  0  0  0  2  0  0  0  0  0  0
  184.1010  178.9080  144.4850 C   0  0  1  0  0  3  0  0  0  0  0  0
  182.8730  179.3010  145.0260 O   0  0  0  0  0  1  0  0  0  0  0  0
  184.7110  177.7650  145.2920 C   0  0  0  0  0  2  0  0  0  0  0  0
  185.9910  179.7280  146.2510 C   0  0  0  0  0  1  0  0  0  0  0  0
  185.8440  178.2120  146.2150 C   0  0  2  0  0  3  0  0  0  0  0  0
  187.1620  177.4720  145.9140 C   0  0  1  0  0  3  0  0  0  0  0  0
  187.9840  178.2110  145.0570 O   0  0  0  0  0  1  0  0  0  0  0  0
  187.9550  177.0050  147.1450 C   0  0  0  0  0  3  0  0  0  0  0  0
  189.0850  178.3200  148.4050 C   0  0  0  0  0  2  0  0  0  0  0  0
  187.6470  177.8360  148.3770 C   0  0  0  0  0  2  0  0  0  0  0  0
  189.3900  177.4990  147.1670 C   0  0  0  0  0  2  0  0  0  0  0  0
  182.4060  179.0920  139.6830 C   0  0  2  0  0  3  0  0  0  0  0  0
  183.7780  179.6730  139.3040 C   0  0  0  0  0  2  0  0  0  0  0  0
  185.8310  178.6400  138.7550 O   0  0  0  0  0  0  0  0  0  0  0  0
  184.6410  178.7490  138.5040 C   0  0  0  0  0  0  0  0  0  0  0  0
  184.0340  177.9890  137.3680 C   0  0  0  0  0  2  0  0  0  0  0  0
  185.0970  177.4890  136.4010 C   0  0  0  0  0  2  0  0  0  0  0  0
  185.6760  175.2890  137.2870 C   0  0  0  0  0  3  0  0  0  0  0  0
  185.0810  176.0000  136.3390 C   0  0  0  0  0  3  0  0  0  0  0  0
  184.7760  173.1900  137.8580 O   0  0  0  0  0  0  0  0  0  0  0  0
  185.6830  173.8230  137.2600 C   0  0  0  0  0  0  0  0  0  0  0  0
  186.7040  173.1080  136.5690 N   0  0  0  0  0  1  0  0  0  0  0  0
  181.2590  180.1000  139.5680 C   0  0  0  0  0  2  0  0  0  0  0  0
  181.0070  180.4520  138.1430 C   0  0  0  0  0  0  0  0  0  0  0  0
  180.5740  181.1150  135.4580 C   0  0  0  0  0  3  0  0  0  0  0  0
  180.7540  182.1250  136.4080 C   0  0  0  0  0  3  0  0  0  0  0  0
  180.6130  179.7720  135.8490 C   0  0  0  0  0  3  0  0  0  0  0  0
  180.9720  181.7940  137.7490 C   0  0  0  0  0  3  0  0  0  0  0  0
  180.8320  179.4410  137.1900 C   0  0  0  0  0  3  0  0  0  0  0  0
  1  7  1  0  0  0  0
  2 14  1  6  0  0  0
  2 15  1  0  0  0  0
  3  7  1  6  0  0  0
  3 12  1  0  0  0  0
  4  1  1  0  0  0  0
  4  8  1  0  0  0  0
  5  1  2  0  0  0  0
  6 26  1  6  0  0  0
  6  3  1  0  0  0  0
  6 10  1  0  0  0  0
  8  6  1  0  0  0  0
  9  2  1  0  0  0  0
 10  9  1  6  0  0  0
 10  2  1  0  0  0  0
 10 11  1  0  0  0  0
 12 11  1  0  0  0  0
 13 14  1  0  0  0  0
 15 16  1  1  0  0  0
 15 17  1  0  0  0  0
 17 19  1  0  0  0  0
 19 18  1  6  0  0  0
 20 21  1  1  0  0  0
 20 19  1  0  0  0  0
 20 22  1  0  0  0  0
 22 25  1  0  0  0  0
 22 24  1  0  0  0  0
 24 23  1  0  0  0  0
 25 23  1  0  0  0  0
 26 27  1  1  0  0  0
 29 28  2  0  0  0  0
 29 27  1  0  0  0  0
 30 29  1  0  0  0  0
 31 30  1  0  0  0  0
 33 31  1  0  0  0  0
 33 32  2  0  0  0  0
 35 32  1  0  0  0  0
 35 34  2  0  0  0  0
 36 35  1  0  0  0  0
 37 26  1  0  0  0  0
 38 37  1  0  0  0  0
 39 41  2  0  0  0  0
 39 40  1  0  0  0  0
 40 42  2  0  0  0  0
 41 43  1  0  0  0  0
 42 38  1  0  0  0  0
 43 38  2  0  0  0  0
M  END
>  <MODEL>
2

>  <REMARK>
 VINA RESULT:      -5.2      1.666      2.056
  Name = 
  15 active torsions:
  status: ('A' for Active; 'I' for Inactive)
    1  A    between atoms: C_1  and  C_34
    2  A    between atoms: C_1  and  C_35
    3  A    between atoms: C_3  and  C_12
    4  A    between atoms: C_4  and  C_15
    5  A    between atoms: C_8  and  C_13
    6  A    between atoms: C_8  and  C_34
    7  A    between atoms: C_9  and  C_19
    8  A    between atoms: C_9  and  C_35
    9  A    between atoms: C_10  and  C_41
   10  A    between atoms: C_10  and  C_42
   11  A    between atoms: C_11  and  C_14
   12  A    between atoms: C_14  and  C_41
   13  A    between atoms: C_15  and  C_22
   14  A    between atoms: C_21  and  C_41
   15  A    between atoms: C_22  and  C_42
                            x       y       z     vdW  Elec       q    Type
                         _______ _______ _______ _____ _____    ______ ____

>  <TORSDO>
F 15

$$$$
=
 OpenBabel10272414423D

 43 47  0  0  1  0  0  0  0  0999 V2000
  181.0380  177.1620  135.6220 C   0  0  0  0  0  0  0  0  0  0  0  0
  186.2450  175.9350  135.9010 C   0  0  1  0  0  0  0  0  0  0  0  0
  182.5880  175.4770  136.4980 C   0  0  2  0  0  3  0  0  0  0  0  0
  182.1580  178.1510  135.4240 C   0  0  0  0  0  2  0  0  0  0  0  0
  179.9850  177.3150  135.0290 O   0  0  0  0  0  0  0  0  0  0  0  0
  183.6930  176.5220  136.6680 C   0  0  2  0  0  0  0  0  0  0  0  0
  181.1800  176.0480  136.6180 C   0  0  0  0  0  2  0  0  0  0  0  0
  183.5340  177.4640  135.4570 C   0  0  0  0  0  2  0  0  0  0  0  0
  186.0730  176.2060  137.2750 O   0  0  0  0  0  0  0  0  0  0  0  0
  184.9590  175.6290  136.6220 C   0  0  2  0  0  0  0  0  0  0  0  0
  184.6470  173.9330  137.2390 S   0  0  0  0  0  0  0  0  0  0  0  0
  182.8630  174.2750  137.3740 C   0  0  0  0  0  2  0  0  0  0  0  0
  187.4930  178.1020  135.6770 C   0  0  0  0  0  1  0  0  0  0  0  0
  186.4000  177.2210  135.0980 C   0  0  0  0  0  2  0  0  0  0  0  0
  187.2710  174.8220  135.6290 C   0  0  1  0  0  3  0  0  0  0  0  0
  188.0740  175.0900  134.5160 O   0  0  0  0  0  1  0  0  0  0  0  0
  188.1250  174.5520  136.8650 C   0  0  0  0  0  2  0  0  0  0  0  0
  189.9590  173.0100  136.0430 C   0  0  0  0  0  1  0  0  0  0  0  0
  189.6150  174.4050  136.5510 C   0  0  2  0  0  3  0  0  0  0  0  0
  190.5010  174.8720  137.7200 C   0  0  1  0  0  3  0  0  0  0  0  0
  191.7950  174.3480  137.6290 O   0  0  0  0  0  1  0  0  0  0  0  0
  190.5560  176.3920  137.9450 C   0  0  0  0  0  3  0  0  0  0  0  0
  190.6870  177.3070  139.8790 C   0  0  0  0  0  2  0  0  0  0  0  0
  191.6940  176.7960  138.8650 C   0  0  0  0  0  2  0  0  0  0  0  0
  189.5500  176.8930  138.9650 C   0  0  0  0  0  2  0  0  0  0  0  0
  183.5100  177.2850  138.0270 C   0  0  2  0  0  3  0  0  0  0  0  0
  184.7650  177.8270  138.7300 C   0  0  0  0  0  2  0  0  0  0  0  0
  184.3760  180.1520  138.8970 O   0  0  0  0  0  0  0  0  0  0  0  0
  184.5480  179.0970  139.4900 C   0  0  0  0  0  0  0  0  0  0  0  0
  184.5830  179.0660  140.9840 C   0  0  0  0  0  2  0  0  0  0  0  0
  185.9620  178.6880  141.5020 C   0  0  0  0  0  2  0  0  0  0  0  0
  184.9000  178.9340  143.6860 C   0  0  0  0  0  3  0  0  0  0  0  0
  185.9210  178.4740  142.9760 C   0  0  0  0  0  3  0  0  0  0  0  0
  183.7600  179.0350  145.7440 O   0  0  0  0  0  0  0  0  0  0  0  0
  184.8240  178.7460  145.1380 C   0  0  0  0  0  0  0  0  0  0  0  0
  185.9370  178.2420  145.8710 N   0  0  0  0  0  1  0  0  0  0  0  0
  182.4600  176.7240  138.9900 C   0  0  0  0  0  2  0  0  0  0  0  0
  181.6320  177.8200  139.5660 C   0  0  0  0  0  0  0  0  0  0  0  0
  180.1120  179.9000  140.6580 C   0  0  0  0  0  3  0  0  0  0  0  0
  180.5430  178.8470  141.4710 C   0  0  0  0  0  3  0  0  0  0  0  0
  180.4420  179.9160  139.2990 C   0  0  0  0  0  3  0  0  0  0  0  0
  181.3040  177.8090  140.9260 C   0  0  0  0  0  3  0  0  0  0  0  0
  181.2040  178.8770  138.7540 C   0  0  0  0  0  3  0  0  0  0  0  0
  1  7  1  0  0  0  0
  2 14  1  6  0  0  0
  2 10  1  0  0  0  0
  2  9  1  0  0  0  0
  3  7  1  1  0  0  0
  3  6  1  0  0  0  0
  3 12  1  0  0  0  0
  4  8  1  0  0  0  0
  4  1  1  0  0  0  0
  5  1  2  0  0  0  0
  6 26  1  1  0  0  0
  8  6  1  0  0  0  0
 10  6  1  0  0  0  0
 10 11  1  1  0  0  0
 10  9  1  0  0  0  0
 11 12  1  0  0  0  0
 14 13  1  0  0  0  0
 15 16  1  6  0  0  0
 15  2  1  0  0  0  0
 15 17  1  0  0  0  0
 19 18  1  1  0  0  0
 19 17  1  0  0  0  0
 19 20  1  0  0  0  0
 20 21  1  6  0  0  0
 20 22  1  0  0  0  0
 22 24  1  0  0  0  0
 22 25  1  0  0  0  0
 24 23  1  0  0  0  0
 25 23  1  0  0  0  0
 26 27  1  1  0  0  0
 26 37  1  0  0  0  0
 27 29  1  0  0  0  0
 28 29  2  0  0  0  0
 29 30  1  0  0  0  0
 30 31  1  0  0  0  0
 31 33  1  0  0  0  0
 32 35  1  0  0  0  0
 33 32  2  0  0  0  0
 35 34  2  0  0  0  0
 35 36  1  0  0  0  0
 37 38  1  0  0  0  0
 38 42  1  0  0  0  0
 39 40  1  0  0  0  0
 41 39  2  0  0  0  0
 42 40  2  0  0  0  0
 43 41  1  0  0  0  0
 43 38  2  0  0  0  0
M  END
>  <MODEL>
3

>  <REMARK>
 VINA RESULT:      -5.2      3.109      6.787
  Name = 
  15 active torsions:
  status: ('A' for Active; 'I' for Inactive)
    1  A    between atoms: C_1  and  C_34
    2  A    between atoms: C_1  and  C_35
    3  A    between atoms: C_3  and  C_12
    4  A    between atoms: C_4  and  C_15
    5  A    between atoms: C_8  and  C_13
    6  A    between atoms: C_8  and  C_34
    7  A    between atoms: C_9  and  C_19
    8  A    between atoms: C_9  and  C_35
    9  A    between atoms: C_10  and  C_41
   10  A    between atoms: C_10  and  C_42
   11  A    between atoms: C_11  and  C_14
   12  A    between atoms: C_14  and  C_41
   13  A    between atoms: C_15  and  C_22
   14  A    between atoms: C_21  and  C_41
   15  A    between atoms: C_22  and  C_42
                            x       y       z     vdW  Elec       q    Type
                         _______ _______ _______ _____ _____    ______ ____

>  <TORSDO>
F 15

$$$$
=
 OpenBabel10272414423D

 43 47  0  0  1  0  0  0  0  0999 V2000
  192.0440  174.9530  135.4880 C   0  0  0  0  0  0  0  0  0  0  0  0
  186.9090  173.9720  136.6530 C   0  0  1  0  0  0  0  0  0  0  0  0
  189.7760  175.8060  135.1190 C   0  0  2  0  0  3  0  0  0  0  0  0
  191.5810  174.0950  136.6350 C   0  0  0  0  0  2  0  0  0  0  0  0
  193.1040  174.7070  134.9380 O   0  0  0  0  0  0  0  0  0  0  0  0
  189.3070  175.2600  136.4700 C   0  0  2  0  0  0  0  0  0  0  0  0
  191.2570  176.1650  135.0830 C   0  0  0  0  0  2  0  0  0  0  0  0
  190.0530  173.9200  136.6330 C   0  0  0  0  0  2  0  0  0  0  0  0
  187.0190  175.1550  137.4120 O   0  0  0  0  0  0  0  0  0  0  0  0
  187.7840  175.1200  136.2220 C   0  0  2  0  0  0  0  0  0  0  0  0
  187.1530  176.3320  135.0030 S   0  0  0  0  0  0  0  0  0  0  0  0
  188.8450  176.8990  134.6430 C   0  0  0  0  0  2  0  0  0  0  0  0
  187.7770  171.6240  136.4520 C   0  0  0  0  0  1  0  0  0  0  0  0
  187.4990  172.7800  137.3970 C   0  0  0  0  0  2  0  0  0  0  0  0
  185.5140  173.7780  136.0340 C   0  0  1  0  0  3  0  0  0  0  0  0
  185.5280  172.9170  134.9320 O   0  0  0  0  0  1  0  0  0  0  0  0
  184.5120  173.3030  137.0830 C   0  0  0  0  0  2  0  0  0  0  0  0
  182.4940  174.2160  135.8560 C   0  0  0  0  0  1  0  0  0  0  0  0
  183.2640  174.1810  137.1700 C   0  0  2  0  0  3  0  0  0  0  0  0
  183.5780  175.5780  137.7380 C   0  0  1  0  0  3  0  0  0  0  0  0
  183.5280  176.5620  136.7450 O   0  0  0  0  0  1  0  0  0  0  0  0
  182.7390  176.0040  138.9530 C   0  0  0  0  0  3  0  0  0  0  0  0
  180.6230  176.3360  138.8840 C   0  0  0  0  0  2  0  0  0  0  0  0
  181.5100  175.1320  139.1370 C   0  0  0  0  0  2  0  0  0  0  0  0
  181.8510  177.2050  138.6890 C   0  0  0  0  0  2  0  0  0  0  0  0
  189.6680  176.2700  137.6150 C   0  0  2  0  0  3  0  0  0  0  0  0
  189.8100  177.7570  137.2530 C   0  0  0  0  0  2  0  0  0  0  0  0
  188.6020  179.7860  137.3400 O   0  0  0  0  0  0  0  0  0  0  0  0
  188.6420  178.6040  137.6470 C   0  0  0  0  0  0  0  0  0  0  0  0
  187.5410  177.9940  138.4540 C   0  0  0  0  0  2  0  0  0  0  0  0
  186.1800  178.5270  138.0330 C   0  0  0  0  0  2  0  0  0  0  0  0
  185.7260  178.7080  140.4250 C   0  0  0  0  0  3  0  0  0  0  0  0
  185.2500  178.5500  139.1970 C   0  0  0  0  0  3  0  0  0  0  0  0
  183.7960  178.0380  141.5950 O   0  0  0  0  0  0  0  0  0  0  0  0
  184.8440  178.7340  141.5960 C   0  0  0  0  0  0  0  0  0  0  0  0
  185.1550  179.5380  142.7310 N   0  0  0  0  0  1  0  0  0  0  0  0
  190.6850  175.7900  138.6540 C   0  0  0  0  0  2  0  0  0  0  0  0
  190.5040  176.5120  139.9440 C   0  0  0  0  0  0  0  0  0  0  0  0
  190.1530  177.9050  142.3460 C   0  0  0  0  0  3  0  0  0  0  0  0
  191.3920  177.9280  141.6980 C   0  0  0  0  0  3  0  0  0  0  0  0
  189.0870  177.1870  141.7920 C   0  0  0  0  0  3  0  0  0  0  0  0
  191.5670  177.2340  140.4970 C   0  0  0  0  0  3  0  0  0  0  0  0
  189.2620  176.4940  140.5910 C   0  0  0  0  0  3  0  0  0  0  0  0
  1  4  1  0  0  0  0
  2 14  1  1  0  0  0
  2  9  1  0  0  0  0
  3 12  1  1  0  0  0
  3  6  1  0  0  0  0
  5  1  2  0  0  0  0
  6  8  1  0  0  0  0
  6 26  1  1  0  0  0
  7  3  1  0  0  0  0
  7  1  1  0  0  0  0
  8  4  1  0  0  0  0
 10 11  1  6  0  0  0
 10  6  1  0  0  0  0
 10  2  1  0  0  0  0
 10  9  1  0  0  0  0
 12 11  1  0  0  0  0
 13 14  1  0  0  0  0
 15 16  1  6  0  0  0
 15  2  1  0  0  0  0
 15 17  1  0  0  0  0
 17 19  1  0  0  0  0
 19 18  1  6  0  0  0
 19 20  1  0  0  0  0
 20 21  1  6  0  0  0
 20 22  1  0  0  0  0
 22 24  1  0  0  0  0
 23 24  1  0  0  0  0
 25 23  1  0  0  0  0
 25 22  1  0  0  0  0
 26 27  1  6  0  0  0
 26 37  1  0  0  0  0
 27 29  1  0  0  0  0
 28 29  2  0  0  0  0
 29 30  1  0  0  0  0
 31 30  1  0  0  0  0
 31 33  1  0  0  0  0
 32 35  1  0  0  0  0
 33 32  2  0  0  0  0
 34 35  2  0  0  0  0
 35 36  1  0  0  0  0
 37 38  1  0  0  0  0
 38 42  2  0  0  0  0
 38 43  1  0  0  0  0
 40 39  2  0  0  0  0
 41 39  1  0  0  0  0
 42 40  1  0  0  0  0
 43 41  2  0  0  0  0
M  END
>  <MODEL>
4

>  <REMARK>
 VINA RESULT:      -5.0      3.724      9.403
  Name = 
  15 active torsions:
  status: ('A' for Active; 'I' for Inactive)
    1  A    between atoms: C_1  and  C_34
    2  A    between atoms: C_1  and  C_35
    3  A    between atoms: C_3  and  C_12
    4  A    between atoms: C_4  and  C_15
    5  A    between atoms: C_8  and  C_13
    6  A    between atoms: C_8  and  C_34
    7  A    between atoms: C_9  and  C_19
    8  A    between atoms: C_9  and  C_35
    9  A    between atoms: C_10  and  C_41
   10  A    between atoms: C_10  and  C_42
   11  A    between atoms: C_11  and  C_14
   12  A    between atoms: C_14  and  C_41
   13  A    between atoms: C_15  and  C_22
   14  A    between atoms: C_21  and  C_41
   15  A    between atoms: C_22  and  C_42
                            x       y       z     vdW  Elec       q    Type
                         _______ _______ _______ _____ _____    ______ ____

>  <TORSDO>
F 15

$$$$
=
 OpenBabel10272414423D

 43 47  0  0  1  0  0  0  0  0999 V2000
  191.6390  179.1620  143.8420 C   0  0  0  0  0  0  0  0  0  0  0  0
  189.6190  177.0260  139.3640 C   0  0  1  0  0  0  0  0  0  0  0  0
  189.5630  178.9660  142.5530 C   0  0  2  0  0  3  0  0  0  0  0  0
  192.2670  178.0220  143.0840 C   0  0  0  0  0  2  0  0  0  0  0  0
  192.3460  179.9440  144.4540 O   0  0  0  0  0  0  0  0  0  0  0  0
  189.9830  177.5990  142.0060 C   0  0  2  0  0  0  0  0  0  0  0  0
  190.1460  179.2830  143.9250 C   0  0  0  0  0  2  0  0  0  0  0  0
  191.5050  177.7160  141.7840 C   0  0  0  0  0  2  0  0  0  0  0  0
  188.9070  176.2070  140.2650 O   0  0  0  0  0  0  0  0  0  0  0  0
  189.1480  177.5300  140.7020 C   0  0  2  0  0  0  0  0  0  0  0  0
  187.5850  178.4770  140.8150 S   0  0  0  0  0  0  0  0  0  0  0  0
  188.0640  179.1370  142.4430 C   0  0  0  0  0  2  0  0  0  0  0  0
  191.1010  175.3470  138.2270 C   0  0  0  0  0  1  0  0  0  0  0  0
  191.0490  176.5300  139.1780 C   0  0  0  0  0  2  0  0  0  0  0  0
  188.8280  177.3500  138.0850 C   0  0  1  0  0  3  0  0  0  0  0  0
  189.6170  177.9540  137.1020 O   0  0  0  0  0  1  0  0  0  0  0  0
  188.1380  176.1020  137.5390 C   0  0  0  0  0  2  0  0  0  0  0  0
  186.0340  177.4810  137.2510 C   0  0  0  0  0  1  0  0  0  0  0  0
  186.9390  176.4160  136.6450 C   0  0  2  0  0  3  0  0  0  0  0  0
  186.1880  175.1410  136.2150 C   0  0  1  0  0  3  0  0  0  0  0  0
  186.7560  174.5690  135.0720 O   0  0  0  0  0  1  0  0  0  0  0  0
  186.0050  174.0790  137.3100 C   0  0  0  0  0  3  0  0  0  0  0  0
  184.7200  172.3730  137.1140 C   0  0  0  0  0  2  0  0  0  0  0  0
  186.1700  172.6670  136.7750 C   0  0  0  0  0  2  0  0  0  0  0  0
  184.5520  173.7870  137.6380 C   0  0  0  0  0  2  0  0  0  0  0  0
  189.6310  176.4730  143.0400 C   0  0  2  0  0  3  0  0  0  0  0  0
  190.5160  175.2170  143.0750 C   0  0  0  0  0  2  0  0  0  0  0  0
  192.3990  174.3680  144.2240 O   0  0  0  0  0  0  0  0  0  0  0  0
  191.4750  175.1680  144.2220 C   0  0  0  0  0  0  0  0  0  0  0  0
  191.2670  176.0860  145.3830 C   0  0  0  0  0  2  0  0  0  0  0  0
  191.6590  175.4230  146.6950 C   0  0  0  0  0  2  0  0  0  0  0  0
  192.9780  176.1310  148.6230 C   0  0  0  0  0  3  0  0  0  0  0  0
  192.0990  176.4490  147.6820 C   0  0  0  0  0  3  0  0  0  0  0  0
  192.8070  178.1940  149.7450 O   0  0  0  0  0  0  0  0  0  0  0  0
  193.4340  177.1110  149.6130 C   0  0  0  0  0  0  0  0  0  0  0  0
  194.5780  176.8560  150.4250 N   0  0  0  0  0  1  0  0  0  0  0  0
  188.1430  176.1820  143.2530 C   0  0  0  0  0  2  0  0  0  0  0  0
  187.6430  176.8590  144.4820 C   0  0  0  0  0  0  0  0  0  0  0  0
  186.7200  178.1690  146.7760 C   0  0  0  0  0  3  0  0  0  0  0  0
  188.0130  177.6370  146.7470 C   0  0  0  0  0  3  0  0  0  0  0  0
  185.8880  178.0490  145.6580 C   0  0  0  0  0  3  0  0  0  0  0  0
  188.4740  176.9840  145.6000 C   0  0  0  0  0  3  0  0  0  0  0  0
  186.3500  177.3970  144.5110 C   0  0  0  0  0  3  0  0  0  0  0  0
  1  7  1  0  0  0  0
  1  5  2  0  0  0  0
  2 14  1  6  0  0  0
  2  9  1  0  0  0  0
  2 10  1  0  0  0  0
  3 12  1  1  0  0  0
  3  7  1  0  0  0  0
  4  1  1  0  0  0  0
  6  3  1  0  0  0  0
  6 26  1  1  0  0  0
  8  6  1  0  0  0  0
  8  4  1  0  0  0  0
 10  9  1  1  0  0  0
 10 11  1  0  0  0  0
 10  6  1  0  0  0  0
 11 12  1  0  0  0  0
 13 14  1  0  0  0  0
 15 16  1  6  0  0  0
 15  2  1  0  0  0  0
 17 15  1  0  0  0  0
 19 18  1  1  0  0  0
 19 17  1  0  0  0  0
 20 21  1  6  0  0  0
 20 19  1  0  0  0  0
 20 22  1  0  0  0  0
 22 25  1  0  0  0  0
 23 25  1  0  0  0  0
 24 23  1  0  0  0  0
 24 22  1  0  0  0  0
 26 27  1  6  0  0  0
 26 37  1  0  0  0  0
 27 29  1  0  0  0  0
 29 28  2  0  0  0  0
 29 30  1  0  0  0  0
 30 31  1  0  0  0  0
 31 33  1  0  0  0  0
 32 35  1  0  0  0  0
 33 32  2  0  0  0  0
 35 34  2  0  0  0  0
 35 36  1  0  0  0  0
 37 38  1  0  0  0  0
 38 43  2  0  0  0  0
 38 42  1  0  0  0  0
 40 39  1  0  0  0  0
 41 39  2  0  0  0  0
 42 40  2  0  0  0  0
 43 41  1  0  0  0  0
M  END
>  <MODEL>
5

>  <REMARK>
 VINA RESULT:      -4.9      4.858     10.145
  Name = 
  15 active torsions:
  status: ('A' for Active; 'I' for Inactive)
    1  A    between atoms: C_1  and  C_34
    2  A    between atoms: C_1  and  C_35
    3  A    between atoms: C_3  and  C_12
    4  A    between atoms: C_4  and  C_15
    5  A    between atoms: C_8  and  C_13
    6  A    between atoms: C_8  and  C_34
    7  A    between atoms: C_9  and  C_19
    8  A    between atoms: C_9  and  C_35
    9  A    between atoms: C_10  and  C_41
   10  A    between atoms: C_10  and  C_42
   11  A    between atoms: C_11  and  C_14
   12  A    between atoms: C_14  and  C_41
   13  A    between atoms: C_15  and  C_22
   14  A    between atoms: C_21  and  C_41
   15  A    between atoms: C_22  and  C_42
                            x       y       z     vdW  Elec       q    Type
                         _______ _______ _______ _____ _____    ______ ____

>  <TORSDO>
F 15

$$$$
=
 OpenBabel10272414423D

 43 47  0  0  1  0  0  0  0  0999 V2000
  189.3490  176.8600  136.2310 C   0  0  0  0  0  0  0  0  0  0  0  0
  184.6100  174.4260  136.7890 C   0  0  1  0  0  0  0  0  0  0  0  0
  187.0180  176.9610  135.4790 C   0  0  2  0  0  3  0  0  0  0  0  0
  188.9830  175.9650  137.3860 C   0  0  0  0  0  2  0  0  0  0  0  0
  190.5070  176.9190  135.8550 O   0  0  0  0  0  0  0  0  0  0  0  0
  186.5230  176.3710  136.8020 C   0  0  2  0  0  0  0  0  0  0  0  0
  188.3150  177.7510  135.6070 C   0  0  0  0  0  2  0  0  0  0  0  0
  187.5930  175.3330  137.1950 C   0  0  0  0  0  2  0  0  0  0  0  0
  184.2470  175.6260  137.4350 O   0  0  0  0  0  0  0  0  0  0  0  0
  185.1670  175.7600  136.3670 C   0  0  2  0  0  0  0  0  0  0  0  0
  184.4090  176.6550  134.9610 S   0  0  0  0  0  0  0  0  0  0  0  0
  185.8950  177.6900  134.7760 C   0  0  0  0  0  2  0  0  0  0  0  0
  186.0990  172.4100  136.9460 C   0  0  0  0  0  1  0  0  0  0  0  0
  185.3990  173.5120  137.7200 C   0  0  0  0  0  2  0  0  0  0  0  0
  183.4490  173.7830  136.0110 C   0  0  1  0  0  3  0  0  0  0  0  0
  183.8880  172.9970  134.9410 O   0  0  0  0  0  1  0  0  0  0  0  0
  182.5460  172.9800  136.9420 C   0  0  0  0  0  2  0  0  0  0  0  0
  180.4450  172.4720  135.6230 C   0  0  0  0  0  1  0  0  0  0  0  0
  181.0590  173.2840  136.7560 C   0  0  2  0  0  3  0  0  0  0  0  0
  180.7880  174.7970  136.6480 C   0  0  1  0  0  3  0  0  0  0  0  0
  180.1360  175.1200  135.4530 O   0  0  0  0  0  1  0  0  0  0  0  0
  180.0550  175.4260  137.8430 C   0  0  0  0  0  3  0  0  0  0  0  0
  180.8670  175.5180  139.8250 C   0  0  0  0  0  2  0  0  0  0  0  0
  180.9280  176.4110  138.6000 C   0  0  0  0  0  2  0  0  0  0  0  0
  180.0020  174.5290  139.0660 C   0  0  0  0  0  2  0  0  0  0  0  0
  186.3870  177.5040  137.8800 C   0  0  2  0  0  3  0  0  0  0  0  0
  185.0760  178.3050  137.9290 C   0  0  0  0  0  2  0  0  0  0  0  0
  184.8520  179.9110  139.6480 O   0  0  0  0  0  0  0  0  0  0  0  0
  184.6770  178.7530  139.3000 C   0  0  0  0  0  0  0  0  0  0  0  0
  184.0950  177.7570  140.2510 C   0  0  0  0  0  2  0  0  0  0  0  0
  182.9260  178.3430  141.0260 C   0  0  0  0  0  2  0  0  0  0  0  0
  184.4490  178.1380  142.9230 C   0  0  0  0  0  3  0  0  0  0  0  0
  183.3380  178.6610  142.4220 C   0  0  0  0  0  3  0  0  0  0  0  0
  186.0120  178.0190  144.6790 O   0  0  0  0  0  0  0  0  0  0  0  0
  184.8860  178.4260  144.2920 C   0  0  0  0  0  0  0  0  0  0  0  0
  184.0550  179.1580  145.1900 N   0  0  0  0  0  1  0  0  0  0  0  0
  187.6350  178.3510  138.1420 C   0  0  0  0  0  2  0  0  0  0  0  0
  188.1960  178.0620  139.4910 C   0  0  0  0  0  0  0  0  0  0  0  0
  189.2700  177.5550  142.0240 C   0  0  0  0  0  3  0  0  0  0  0  0
  189.9910  177.2090  140.8770 C   0  0  0  0  0  3  0  0  0  0  0  0
  188.0130  178.1570  141.9070 C   0  0  0  0  0  3  0  0  0  0  0  0
  189.4550  177.4640  139.6110 C   0  0  0  0  0  3  0  0  0  0  0  0
  187.4780  178.4120  140.6400 C   0  0  0  0  0  3  0  0  0  0  0  0
  1  4  1  0  0  0  0
  2  9  1  0  0  0  0
  2 14  1  1  0  0  0
  3 12  1  1  0  0  0
  3  7  1  0  0  0  0
  3  6  1  0  0  0  0
  5  1  2  0  0  0  0
  6  8  1  0  0  0  0
  6 26  1  1  0  0  0
  7  1  1  0  0  0  0
  8  4  1  0  0  0  0
 10 11  1  6  0  0  0
 10  2  1  0  0  0  0
 10  6  1  0  0  0  0
 10  9  1  0  0  0  0
 12 11  1  0  0  0  0
 13 14  1  0  0  0  0
 15 16  1  6  0  0  0
 15  2  1  0  0  0  0
 15 17  1  0  0  0  0
 19 18  1  6  0  0  0
 19 17  1  0  0  0  0
 20 21  1  6  0  0  0
 20 19  1  0  0  0  0
 20 22  1  0  0  0  0
 22 24  1  0  0  0  0
 22 25  1  0  0  0  0
 24 23  1  0  0  0  0
 25 23  1  0  0  0  0
 26 27  1  6  0  0  0
 26 37  1  0  0  0  0
 27 29  1  0  0  0  0
 29 28  2  0  0  0  0
 29 30  1  0  0  0  0
 30 31  1  0  0  0  0
 31 33  1  0  0  0  0
 32 35  1  0  0  0  0
 33 32  2  0  0  0  0
 35 34  2  0  0  0  0
 35 36  1  0  0  0  0
 37 38  1  0  0  0  0
 38 42  2  0  0  0  0
 38 43  1  0  0  0  0
 40 39  2  0  0  0  0
 41 39  1  0  0  0  0
 42 40  1  0  0  0  0
 43 41  2  0  0  0  0
M  END
>  <MODEL>
6

>  <REMARK>
 VINA RESULT:      -4.4      3.461      8.764
  Name = 
  15 active torsions:
  status: ('A' for Active; 'I' for Inactive)
    1  A    between atoms: C_1  and  C_34
    2  A    between atoms: C_1  and  C_35
    3  A    between atoms: C_3  and  C_12
    4  A    between atoms: C_4  and  C_15
    5  A    between atoms: C_8  and  C_13
    6  A    between atoms: C_8  and  C_34
    7  A    between atoms: C_9  and  C_19
    8  A    between atoms: C_9  and  C_35
    9  A    between atoms: C_10  and  C_41
   10  A    between atoms: C_10  and  C_42
   11  A    between atoms: C_11  and  C_14
   12  A    between atoms: C_14  and  C_41
   13  A    between atoms: C_15  and  C_22
   14  A    between atoms: C_21  and  C_41
   15  A    between atoms: C_22  and  C_42
                            x       y       z     vdW  Elec       q    Type
                         _______ _______ _______ _____ _____    ______ ____

>  <TORSDO>
F 15

$$$$
=
 OpenBabel10272414423D

 43 47  0  0  1  0  0  0  0  0999 V2000
  188.6040  177.9500  138.6190 C   0  0  0  0  0  0  0  0  0  0  0  0
  192.6390  175.3180  136.2810 C   0  0  1  0  0  0  0  0  0  0  0  0
  189.6900  177.5990  136.4500 C   0  0  2  0  0  3  0  0  0  0  0  0
  189.2790  176.7370  139.2020 C   0  0  0  0  0  2  0  0  0  0  0  0
  188.1410  178.7990  139.3610 O   0  0  0  0  0  0  0  0  0  0  0  0
  190.1150  176.1830  136.8460 C   0  0  2  0  0  0  0  0  0  0  0  0
  188.4130  178.0710  137.1360 C   0  0  0  0  0  2  0  0  0  0  0  0
  190.4720  176.2840  138.3430 C   0  0  0  0  0  2  0  0  0  0  0  0
  191.5990  174.5990  135.6550 O   0  0  0  0  0  0  0  0  0  0  0  0
  191.3310  175.9650  135.9100 C   0  0  2  0  0  0  0  0  0  0  0  0
  191.1970  176.9080  134.3470 S   0  0  0  0  0  0  0  0  0  0  0  0
  189.6950  177.7480  134.9450 C   0  0  0  0  0  2  0  0  0  0  0  0
  193.5660  175.8720  138.5480 C   0  0  0  0  0  1  0  0  0  0  0  0
  192.8860  174.8130  137.6980 C   0  0  0  0  0  2  0  0  0  0  0  0
  193.8780  175.4920  135.3840 C   0  0  1  0  0  3  0  0  0  0  0  0
  194.6480  176.6040  135.7410 O   0  0  0  0  0  1  0  0  0  0  0  0
  194.7260  174.2240  135.3720 C   0  0  0  0  0  2  0  0  0  0  0  0
  197.2070  174.7270  135.4360 C   0  0  0  0  0  1  0  0  0  0  0  0
  195.9790  174.3240  136.2420 C   0  0  2  0  0  3  0  0  0  0  0  0
  196.1910  173.0620  137.1000 C   0  0  1  0  0  3  0  0  0  0  0  0
  196.0790  173.3410  138.4660 O   0  0  0  0  0  1  0  0  0  0  0  0
  195.3160  171.8540  136.7290 C   0  0  0  0  0  3  0  0  0  0  0  0
  195.9700  169.8180  136.8780 C   0  0  0  0  0  2  0  0  0  0  0  0
  195.2990  170.7990  137.8210 C   0  0  0  0  0  2  0  0  0  0  0  0
  195.9970  170.8750  135.7900 C   0  0  0  0  0  2  0  0  0  0  0  0
  188.9380  175.1760  136.5950 C   0  0  2  0  0  3  0  0  0  0  0  0
  189.0990  173.7320  137.0960 C   0  0  0  0  0  2  0  0  0  0  0  0
  189.4160  172.2800  135.2590 O   0  0  0  0  0  0  0  0  0  0  0  0
  188.6540  172.6870  136.1240 C   0  0  0  0  0  0  0  0  0  0  0  0
  187.2520  172.1720  136.1990 C   0  0  0  0  0  2  0  0  0  0  0  0
  186.5340  172.3150  134.8660 C   0  0  0  0  0  2  0  0  0  0  0  0
  184.5580  172.4080  136.2960 C   0  0  0  0  0  3  0  0  0  0  0  0
  185.0580  172.3210  135.0710 C   0  0  0  0  0  3  0  0  0  0  0  0
  182.5380  173.5000  136.8150 O   0  0  0  0  0  0  0  0  0  0  0  0
  183.1120  172.4150  136.5390 C   0  0  0  0  0  0  0  0  0  0  0  0
  182.3510  171.2120  136.4700 N   0  0  0  0  0  1  0  0  0  0  0  0
  188.2250  175.2810  135.2440 C   0  0  0  0  0  2  0  0  0  0  0  0
  186.8300  175.7720  135.4200 C   0  0  0  0  0  0  0  0  0  0  0  0
  184.1940  176.6570  135.7360 C   0  0  0  0  0  3  0  0  0  0  0  0
  184.8390  176.8070  134.5050 C   0  0  0  0  0  3  0  0  0  0  0  0
  184.8650  176.0620  136.8100 C   0  0  0  0  0  3  0  0  0  0  0  0
  186.1550  176.3630  134.3460 C   0  0  0  0  0  3  0  0  0  0  0  0
  186.1810  175.6180  136.6510 C   0  0  0  0  0  3  0  0  0  0  0  0
  1  4  1  0  0  0  0
  1  5  2  0  0  0  0
  2 14  1  1  0  0  0
  3 12  1  6  0  0  0
  3  6  1  0  0  0  0
  3  7  1  0  0  0  0
  6 26  1  6  0  0  0
  6  8  1  0  0  0  0
  7  1  1  0  0  0  0
  8  4  1  0  0  0  0
  9 10  1  0  0  0  0
  9  2  1  0  0  0  0
 10 11  1  6  0  0  0
 10  2  1  0  0  0  0
 10  6  1  0  0  0  0
 11 12  1  0  0  0  0
 14 13  1  0  0  0  0
 15 16  1  1  0  0  0
 15  2  1  0  0  0  0
 17 15  1  0  0  0  0
 17 19  1  0  0  0  0
 19 18  1  6  0  0  0
 19 20  1  0  0  0  0
 20 21  1  1  0  0  0
 22 20  1  0  0  0  0
 22 24  1  0  0  0  0
 23 24  1  0  0  0  0
 25 22  1  0  0  0  0
 25 23  1  0  0  0  0
 26 37  1  6  0  0  0
 26 27  1  0  0  0  0
 28 29  2  0  0  0  0
 29 30  1  0  0  0  0
 29 27  1  0  0  0  0
 31 33  1  0  0  0  0
 31 30  1  0  0  0  0
 32 35  1  0  0  0  0
 33 32  2  0  0  0  0
 35 34  2  0  0  0  0
 36 35  1  0  0  0  0
 37 38  1  0  0  0  0
 38 43  1  0  0  0  0
 39 41  1  0  0  0  0
 40 39  2  0  0  0  0
 42 40  1  0  0  0  0
 42 38  2  0  0  0  0
 43 41  2  0  0  0  0
M  END
>  <MODEL>
7

>  <REMARK>
 VINA RESULT:      -4.2      5.945     10.290
  Name = 
  15 active torsions:
  status: ('A' for Active; 'I' for Inactive)
    1  A    between atoms: C_1  and  C_34
    2  A    between atoms: C_1  and  C_35
    3  A    between atoms: C_3  and  C_12
    4  A    between atoms: C_4  and  C_15
    5  A    between atoms: C_8  and  C_13
    6  A    between atoms: C_8  and  C_34
    7  A    between atoms: C_9  and  C_19
    8  A    between atoms: C_9  and  C_35
    9  A    between atoms: C_10  and  C_41
   10  A    between atoms: C_10  and  C_42
   11  A    between atoms: C_11  and  C_14
   12  A    between atoms: C_14  and  C_41
   13  A    between atoms: C_15  and  C_22
   14  A    between atoms: C_21  and  C_41
   15  A    between atoms: C_22  and  C_42
                            x       y       z     vdW  Elec       q    Type
                         _______ _______ _______ _____ _____    ______ ____

>  <TORSDO>
F 15

$$$$
=
 OpenBabel10272414423D

 43 47  0  0  1  0  0  0  0  0999 V2000
  191.0970  179.3860  143.7250 C   0  0  0  0  0  0  0  0  0  0  0  0
  190.9790  176.6000  139.1510 C   0  0  1  0  0  0  0  0  0  0  0  0
  189.6360  178.8140  141.8410 C   0  0  2  0  0  3  0  0  0  0  0  0
  192.0440  178.2650  143.3870 C   0  0  0  0  0  2  0  0  0  0  0  0
  191.4740  180.3030  144.4330 O   0  0  0  0  0  0  0  0  0  0  0  0
  190.3330  177.4630  141.6580 C   0  0  2  0  0  0  0  0  0  0  0  0
  189.6660  179.3300  143.2750 C   0  0  0  0  0  2  0  0  0  0  0  0
  191.8200  177.7450  141.9560 C   0  0  0  0  0  2  0  0  0  0  0  0
  190.0620  175.7890  139.8530 O   0  0  0  0  0  0  0  0  0  0  0  0
  190.0240  177.1680  140.1680 C   0  0  2  0  0  0  0  0  0  0  0  0
  188.4510  177.9220  139.6120 S   0  0  0  0  0  0  0  0  0  0  0  0
  188.2650  178.7880  141.2030 C   0  0  0  0  0  2  0  0  0  0  0  0
  193.3670  177.3750  139.1090 C   0  0  0  0  0  1  0  0  0  0  0  0
  192.4170  176.2690  139.5330 C   0  0  0  0  0  2  0  0  0  0  0  0
  190.6680  176.7010  137.6480 C   0  0  1  0  0  3  0  0  0  0  0  0
  191.8220  176.8210  136.8670 O   0  0  0  0  0  1  0  0  0  0  0  0
  189.8190  175.5200  137.1850 C   0  0  0  0  0  2  0  0  0  0  0  0
  188.9350  175.0110  134.8680 C   0  0  0  0  0  1  0  0  0  0  0  0
  188.8040  175.8910  136.1040 C   0  0  2  0  0  3  0  0  0  0  0  0
  188.8170  177.3990  135.7910 C   0  0  1  0  0  3  0  0  0  0  0  0
  189.4400  177.6670  134.5680 O   0  0  0  0  0  1  0  0  0  0  0  0
  187.4520  178.1030  135.8610 C   0  0  0  0  0  3  0  0  0  0  0  0
  185.6130  177.2010  135.2290 C   0  0  0  0  0  2  0  0  0  0  0  0
  186.3950  177.2420  136.5290 C   0  0  0  0  0  2  0  0  0  0  0  0
  186.6750  178.0530  134.5590 C   0  0  0  0  0  2  0  0  0  0  0  0
  189.7310  176.4060  142.6480 C   0  0  2  0  0  3  0  0  0  0  0  0
  190.5660  175.1570  142.9710 C   0  0  0  0  0  2  0  0  0  0  0  0
  192.3460  174.5240  144.3900 O   0  0  0  0  0  0  0  0  0  0  0  0
  191.3980  175.2730  144.2090 C   0  0  0  0  0  0  0  0  0  0  0  0
  191.0310  176.2930  145.2390 C   0  0  0  0  0  2  0  0  0  0  0  0
  191.8500  176.1210  146.5090 C   0  0  0  0  0  2  0  0  0  0  0  0
  189.9690  177.2760  147.5520 C   0  0  0  0  0  3  0  0  0  0  0  0
  191.2350  176.8880  147.6290 C   0  0  0  0  0  3  0  0  0  0  0  0
  190.0270  178.7910  149.3530 O   0  0  0  0  0  0  0  0  0  0  0  0
  189.3280  178.0320  148.6320 C   0  0  0  0  0  0  0  0  0  0  0  0
  187.9290  177.9190  148.8780 N   0  0  0  0  0  1  0  0  0  0  0  0
  188.2310  176.1260  142.5190 C   0  0  0  0  0  2  0  0  0  0  0  0
  187.4610  176.8990  143.5340 C   0  0  0  0  0  0  0  0  0  0  0  0
  186.0400  178.3840  145.4330 C   0  0  0  0  0  3  0  0  0  0  0  0
  187.1720  177.6580  145.8160 C   0  0  0  0  0  3  0  0  0  0  0  0
  185.6190  178.3710  144.0990 C   0  0  0  0  0  3  0  0  0  0  0  0
  187.8830  176.9170  144.8670 C   0  0  0  0  0  3  0  0  0  0  0  0
  186.3310  177.6310  143.1490 C   0  0  0  0  0  3  0  0  0  0  0  0
  1  5  2  0  0  0  0
  2 14  1  1  0  0  0
  2  9  1  0  0  0  0
  2 10  1  0  0  0  0
  3 12  1  1  0  0  0
  3  7  1  0  0  0  0
  4  1  1  0  0  0  0
  6  3  1  0  0  0  0
  6  8  1  0  0  0  0
  6 26  1  1  0  0  0
  7  1  1  0  0  0  0
  8  4  1  0  0  0  0
  9 10  1  0  0  0  0
 10 11  1  6  0  0  0
 10  6  1  0  0  0  0
 11 12  1  0  0  0  0
 13 14  1  0  0  0  0
 15 16  1  6  0  0  0
 15  2  1  0  0  0  0
 17 15  1  0  0  0  0
 19 18  1  6  0  0  0
 19 17  1  0  0  0  0
 20 21  1  6  0  0  0
 20 22  1  0  0  0  0
 20 19  1  0  0  0  0
 22 24  1  0  0  0  0
 23 24  1  0  0  0  0
 25 23  1  0  0  0  0
 25 22  1  0  0  0  0
 26 37  1  6  0  0  0
 26 27  1  0  0  0  0
 27 29  1  0  0  0  0
 29 28  2  0  0  0  0
 29 30  1  0  0  0  0
 30 31  1  0  0  0  0
 31 33  1  0  0  0  0
 32 33  2  0  0  0  0
 32 35  1  0  0  0  0
 35 36  1  0  0  0  0
 35 34  2  0  0  0  0
 37 38  1  0  0  0  0
 38 42  1  0  0  0  0
 39 40  1  0  0  0  0
 41 39  2  0  0  0  0
 42 40  2  0  0  0  0
 43 38  2  0  0  0  0
 43 41  1  0  0  0  0
M  END
>  <MODEL>
8

>  <REMARK>
 VINA RESULT:      -3.9      5.101     10.147
  Name = 
  15 active torsions:
  status: ('A' for Active; 'I' for Inactive)
    1  A    between atoms: C_1  and  C_34
    2  A    between atoms: C_1  and  C_35
    3  A    between atoms: C_3  and  C_12
    4  A    between atoms: C_4  and  C_15
    5  A    between atoms: C_8  and  C_13
    6  A    between atoms: C_8  and  C_34
    7  A    between atoms: C_9  and  C_19
    8  A    between atoms: C_9  and  C_35
    9  A    between atoms: C_10  and  C_41
   10  A    between atoms: C_10  and  C_42
   11  A    between atoms: C_11  and  C_14
   12  A    between atoms: C_14  and  C_41
   13  A    between atoms: C_15  and  C_22
   14  A    between atoms: C_21  and  C_41
   15  A    between atoms: C_22  and  C_42
                            x       y       z     vdW  Elec       q    Type
                         _______ _______ _______ _____ _____    ______ ____

>  <TORSDO>
F 15

$$$$
=
 OpenBabel10272414423D

 43 47  0  0  1  0  0  0  0  0999 V2000
  189.2560  178.0280  135.3960 C   0  0  0  0  0  0  0  0  0  0  0  0
  188.6850  177.8900  140.7200 C   0  0  1  0  0  0  0  0  0  0  0  0
  190.1710  176.9860  137.4170 C   0  0  2  0  0  3  0  0  0  0  0  0
  188.0150  178.4620  136.1310 C   0  0  0  0  0  2  0  0  0  0  0  0
  189.5570  178.5680  134.3460 O   0  0  0  0  0  0  0  0  0  0  0  0
  188.8150  177.0670  138.1230 C   0  0  2  0  0  0  0  0  0  0  0  0
  190.0680  176.8710  135.9010 C   0  0  0  0  0  2  0  0  0  0  0  0
  188.2080  178.4050  137.6560 C   0  0  0  0  0  2  0  0  0  0  0  0
  188.2400  176.5740  140.4800 O   0  0  0  0  0  0  0  0  0  0  0  0
  189.2510  177.0450  139.6100 C   0  0  2  0  0  0  0  0  0  0  0  0
  190.8170  176.1340  139.8730 S   0  0  0  0  0  0  0  0  0  0  0  0
  191.0440  175.9410  138.0760 C   0  0  0  0  0  2  0  0  0  0  0  0
  186.2550  178.4500  141.0190 C   0  0  0  0  0  1  0  0  0  0  0  0
  187.5830  178.9070  140.4420 C   0  0  0  0  0  2  0  0  0  0  0  0
  189.4420  178.0390  142.0510 C   0  0  1  0  0  3  0  0  0  0  0  0
  189.5350  179.3700  142.4720 O   0  0  0  0  0  1  0  0  0  0  0  0
  188.8150  177.1680  143.1370 C   0  0  0  0  0  2  0  0  0  0  0  0
  189.2370  177.8600  145.5360 C   0  0  0  0  0  1  0  0  0  0  0  0
  188.3050  177.9680  144.3360 C   0  0  2  0  0  3  0  0  0  0  0  0
  186.8350  177.6440  144.6640 C   0  0  1  0  0  3  0  0  0  0  0  0
  186.7320  176.6000  145.5890 O   0  0  0  0  0  1  0  0  0  0  0  0
  185.9770  178.8380  145.1090 C   0  0  0  0  0  3  0  0  0  0  0  0
  183.8380  178.7840  145.2430 C   0  0  0  0  0  2  0  0  0  0  0  0
  184.9790  178.4590  146.1890 C   0  0  0  0  0  2  0  0  0  0  0  0
  184.8350  179.1540  144.1610 C   0  0  0  0  0  2  0  0  0  0  0  0
  187.9190  175.8470  137.7110 C   0  0  2  0  0  3  0  0  0  0  0  0
  188.5930  174.4760  137.5400 C   0  0  0  0  0  2  0  0  0  0  0  0
  188.2860  173.9660  135.2530 O   0  0  0  0  0  0  0  0  0  0  0  0
  188.0510  173.6570  136.4110 C   0  0  0  0  0  0  0  0  0  0  0  0
  187.1860  172.4770  136.7190 C   0  0  0  0  0  2  0  0  0  0  0  0
  186.6350  171.8450  135.4510 C   0  0  0  0  0  2  0  0  0  0  0  0
  184.3850  171.1300  136.0740 C   0  0  0  0  0  3  0  0  0  0  0  0
  185.1510  171.9820  135.4070 C   0  0  0  0  0  3  0  0  0  0  0  0
  182.2970  170.9250  135.0070 O   0  0  0  0  0  0  0  0  0  0  0  0
  182.9230  171.2300  136.0550 C   0  0  0  0  0  0  0  0  0  0  0  0
  182.2020  171.6710  137.2030 N   0  0  0  0  0  1  0  0  0  0  0  0
  186.8180  176.1230  136.6830 C   0  0  0  0  0  2  0  0  0  0  0  0
  185.4780  176.1290  137.3330 C   0  0  0  0  0  0  0  0  0  0  0  0
  182.9780  176.1290  138.5910 C   0  0  0  0  0  3  0  0  0  0  0  0
  183.4850  174.9480  138.0410 C   0  0  0  0  0  3  0  0  0  0  0  0
  183.7220  177.3120  138.5150 C   0  0  0  0  0  3  0  0  0  0  0  0
  184.7340  174.9470  137.4140 C   0  0  0  0  0  3  0  0  0  0  0  0
  184.9720  177.3110  137.8880 C   0  0  0  0  0  3  0  0  0  0  0  0
  1  7  1  0  0  0  0
  1  4  1  0  0  0  0
  2 14  1  6  0  0  0
  2 15  1  0  0  0  0
  3  7  1  6  0  0  0
  3 12  1  0  0  0  0
  3  6  1  0  0  0  0
  4  8  1  0  0  0  0
  5  1  2  0  0  0  0
  6 26  1  6  0  0  0
  6 10  1  0  0  0  0
  8  6  1  0  0  0  0
  9  2  1  0  0  0  0
 10 11  1  1  0  0  0
 10  9  1  0  0  0  0
 10  2  1  0  0  0  0
 12 11  1  0  0  0  0
 14 13  1  0  0  0  0
 15 16  1  1  0  0  0
 15 17  1  0  0  0  0
 17 19  1  0  0  0  0
 19 20  1  0  0  0  0
 19 18  1  1  0  0  0
 20 22  1  0  0  0  0
 20 21  1  1  0  0  0
 22 24  1  0  0  0  0
 23 24  1  0  0  0  0
 25 22  1  0  0  0  0
 25 23  1  0  0  0  0
 26 37  1  6  0  0  0
 27 26  1  0  0  0  0
 28 29  2  0  0  0  0
 29 30  1  0  0  0  0
 29 27  1  0  0  0  0
 31 30  1  0  0  0  0
 33 31  1  0  0  0  0
 33 32  2  0  0  0  0
 34 35  2  0  0  0  0
 35 32  1  0  0  0  0
 35 36  1  0  0  0  0
 37 38  1  0  0  0  0
 38 42  2  0  0  0  0
 38 43  1  0  0  0  0
 40 39  2  0  0  0  0
 41 39  1  0  0  0  0
 42 40  1  0  0  0  0
 43 41  2  0  0  0  0
M  END
>  <MODEL>
9

>  <REMARK>
 VINA RESULT:      -3.9      3.808      7.075
  Name = 
  15 active torsions:
  status: ('A' for Active; 'I' for Inactive)
    1  A    between atoms: C_1  and  C_34
    2  A    between atoms: C_1  and  C_35
    3  A    between atoms: C_3  and  C_12
    4  A    between atoms: C_4  and  C_15
    5  A    between atoms: C_8  and  C_13
    6  A    between atoms: C_8  and  C_34
    7  A    between atoms: C_9  and  C_19
    8  A    between atoms: C_9  and  C_35
    9  A    between atoms: C_10  and  C_41
   10  A    between atoms: C_10  and  C_42
   11  A    between atoms: C_11  and  C_14
   12  A    between atoms: C_14  and  C_41
   13  A    between atoms: C_15  and  C_22
   14  A    between atoms: C_21  and  C_41
   15  A    between atoms: C_22  and  C_42
                            x       y       z     vdW  Elec       q    Type
                         _______ _______ _______ _____ _____    ______ ____

>  <TORSDO>
F 15

$$$$
