=
 OpenBabel10272401423D

 55 60  0  0  1  0  0  0  0  0999 V2000
  189.2170  177.3160  144.2130 C   0  0  0  0  0  2  0  0  0  0  0  0
  189.3110  177.0890  141.3710 C   0  0  2  0  0  3  0  0  0  0  0  0
  188.7000  178.3560  141.9800 C   0  0  2  0  0  3  0  0  0  0  0  0
  189.8690  176.1860  143.4250 C   0  0  0  0  0  2  0  0  0  0  0  0
  189.2680  178.5920  143.3830 C   0  0  0  0  0  2  0  0  0  0  0  0
  189.1740  175.9580  142.2130 O   0  0  0  0  0  0  0  0  0  0  0  0
  190.7340  177.2760  140.8650 C   0  0  0  0  0  2  0  0  0  0  0  0
  190.7140  177.3210  139.3500 C   0  0  0  0  0  2  0  0  0  0  0  0
  191.5870  176.2270  138.7670 C   0  0  0  0  0  2  0  0  0  0  0  0
  192.9860  176.7050  138.5740 C   0  0  0  0  0  0  0  0  0  0  0  0
  193.7070  176.9510  139.5780 O   0  0  0  0  0  0  0  0  0  0  0  0
  193.4960  176.8400  137.2820 O   0  0  0  0  0  0  0  0  0  0  0  0
  192.6710  175.5530  135.3510 C   0  0  0  0  0  2  0  0  0  0  0  0
  193.6880  175.7320  136.4100 C   0  0  1  0  0  0  0  0  0  0  0  0
  193.9310  176.1410  135.0880 O   0  0  0  0  0  0  0  0  0  0  0  0
  194.5400  174.5370  136.8610 C   0  0  1  0  0  0  0  0  0  0  0  0
  195.6760  175.0230  137.5170 O   0  0  0  0  0  1  0  0  0  0  0  0
  193.8240  173.7400  137.7440 F   0  0  0  0  0  0  0  0  0  0  0  0
  194.2880  172.5000  135.5860 F   0  0  0  0  0  0  0  0  0  0  0  0
  194.9810  173.6960  135.6560 C   0  0  2  0  0  3  0  0  0  0  0  0
  196.5020  173.4860  135.6310 C   0  0  2  0  0  3  0  0  0  0  0  0
  197.1330  174.2090  134.4450 C   0  0  0  0  0  2  0  0  0  0  0  0
  198.6240  175.1440  134.9150 S   0  0  0  0  0  1  0  0  0  0  0  0
  196.9350  172.0160  135.6690 C   0  0  0  0  0  2  0  0  0  0  0  0
  198.7330  171.3570  137.1090 O   0  0  0  0  0  1  0  0  0  0  0  0
  197.3490  171.5460  137.0650 C   0  0  2  0  0  3  0  0  0  0  0  0
  196.6160  170.2800  137.5200 C   0  0  0  0  0  3  0  0  0  0  0  0
  195.2390  170.6340  138.0390 C   0  0  0  0  0  1  0  0  0  0  0  0
  196.4590  169.2970  136.3750 C   0  0  0  0  0  1  0  0  0  0  0  0
  187.1920  178.1830  142.0160 C   0  0  0  0  0  2  0  0  0  0  0  0
  186.5000  179.3540  141.4820 N   0  0  0  0  0  2  0  0  0  0  0  0
  185.1980  178.9490  140.9340 C   0  0  2  0  0  3  0  0  0  0  0  0
  183.9430  179.0650  143.1170 C   0  0  2  0  0  3  0  0  0  0  0  0
  182.9340  178.5360  142.1040 C   0  0  0  0  0  2  0  0  0  0  0  0
  184.3960  178.1480  141.9870 C   0  0  1  0  0  3  0  0  0  0  0  0
  183.9590  178.3140  144.3080 O   0  0  0  0  0  0  0  0  0  0  0  0
  185.8540  178.3770  146.6750 C   0  0  0  0  0  0  0  0  0  0  0  0
  186.6720  177.9700  147.5440 O   0  0  0  0  0  0  0  0  0  0  0  0
  185.9670  178.9940  145.3240 C   0  0  0  0  0  2  0  0  0  0  0  0
  184.5360  179.1030  145.3270 C   0  0  2  0  0  3  0  0  0  0  0  0
  184.4100  178.4370  146.5690 O   0  0  0  0  0  0  0  0  0  0  0  0
  185.3520  178.2960  139.5390 C   0  0  1  0  0  3  0  0  0  0  0  0
  183.6290  180.0090  138.9370 C   0  0  0  0  0  2  0  0  0  0  0  0
  181.6590  179.3590  137.5410 C   0  0  0  0  0  2  0  0  0  0  0  0
  183.0360  177.5170  138.6910 C   0  0  2  0  0  3  0  0  0  0  0  0
  181.8380  177.8590  137.7940 C   0  0  0  0  0  2  0  0  0  0  0  0
  182.1200  180.1670  138.7410 C   0  0  0  0  0  2  0  0  0  0  0  0
  184.1470  178.5910  138.6310 C   0  0  2  0  0  3  0  0  0  0  0  0
  183.5560  176.2210  138.2960 N   0  0  0  0  0  1  0  0  0  0  0  0
  186.5380  178.7040  138.9140 O   0  0  0  0  0  0  0  0  0  0  0  0
  186.8760  177.6520  138.0590 C   0  0  0  0  0  2  0  0  0  0  0  0
  187.1280  178.2870  135.7810 C   0  0  0  0  0  0  0  0  0  0  0  0
  187.4880  179.4440  136.6600 O   0  0  0  0  0  0  0  0  0  0  0  0
  186.5750  177.7930  134.6830 C   0  0  0  0  0  2  0  0  0  0  0  0
  187.8050  178.1520  136.9730 C   0  0  1  0  0  3  0  0  0  0  0  0
  2  7  1  1  0  0  0
  2  3  1  0  0  0  0
  2  6  1  0  0  0  0
  3 30  1  1  0  0  0
  3  5  1  0  0  0  0
  4  1  1  0  0  0  0
  5  1  1  0  0  0  0
  6  4  1  0  0  0  0
  8  7  1  0  0  0  0
  9  8  1  0  0  0  0
 10  9  1  0  0  0  0
 10 11  2  0  0  0  0
 12 10  1  0  0  0  0
 13 14  1  0  0  0  0
 14 16  1  0  0  0  0
 14 12  1  1  0  0  0
 15 13  1  0  0  0  0
 15 14  1  0  0  0  0
 16 17  1  1  0  0  0
 16 18  1  0  0  0  0
 20 19  1  1  0  0  0
 20 16  1  0  0  0  0
 21 22  1  6  0  0  0
 21 20  1  0  0  0  0
 21 24  1  0  0  0  0
 22 23  1  0  0  0  0
 24 26  1  0  0  0  0
 26 25  1  6  0  0  0
 26 27  1  0  0  0  0
 27 28  1  0  0  0  0
 29 27  1  0  0  0  0
 31 30  1  0  0  0  0
 32 31  1  1  0  0  0
 33 36  1  1  0  0  0
 34 33  1  0  0  0  0
 35 32  1  6  0  0  0
 35 34  1  0  0  0  0
 35 33  1  0  0  0  0
 37 38  2  0  0  0  0
 39 40  1  0  0  0  0
 39 37  1  0  0  0  0
 40 36  1  6  0  0  0
 40 41  1  0  0  0  0
 41 37  1  0  0  0  0
 42 50  1  6  0  0  0
 42 32  1  0  0  0  0
 44 46  1  0  0  0  0
 44 47  1  0  0  0  0
 45 49  1  6  0  0  0
 46 45  1  0  0  0  0
 47 43  1  0  0  0  0
 48 45  1  0  0  0  0
 48 43  1  0  0  0  0
 48 42  1  1  0  0  0
 51 50  1  0  0  0  0
 52 53  1  0  0  0  0
 52 55  1  0  0  0  0
 53 55  1  0  0  0  0
 54 52  2  0  0  0  0
 55 51  1  1  0  0  0
M  END
>  <MODEL>
1

>  <REMARK>
 VINA RESULT:      -6.6      0.000      0.000
  Name = 
  24 active torsions:
  status: ('A' for Active; 'I' for Inactive)
    1  A    between atoms: C_1  and  C_29
    2  A    between atoms: C_2  and  N_28
    3  A    between atoms: C_2  and  C_31
    4  A    between atoms: C_3  and  C_29
    5  A    between atoms: C_3  and  C_38
    6  A    between atoms: C_6  and  C_14
    7  A    between atoms: C_6  and  C_20
    8  A    between atoms: C_8  and  O_22
    9  A    between atoms: C_8  and  C_35
   10  A    between atoms: C_11  and  C_38
   11  A    between atoms: C_13  and  O_48
   12  A    between atoms: C_14  and  C_38
   13  A    between atoms: C_19  and  C_40
   14  A    between atoms: C_19  and  O_45
   15  A    between atoms: C_20  and  O_22
   16  A    between atoms: C_26  and  C_49
   17  A    between atoms: C_27  and  C_54
   18  A    between atoms: N_28  and  C_33
   19  A    between atoms: C_33  and  C_49
   20  A    between atoms: C_33  and  C_52
   21  A    between atoms: C_35  and  C_51
   22  A    between atoms: C_39  and  O_48
   23  A    between atoms: O_45  and  C_49
   24  A    between atoms: C_51  and  C_54
                            x       y       z     vdW  Elec       q    Type
                         _______ _______ _______ _____ _____    ______ ____

>  <TORSDO>
F 24

$$$$
=
 OpenBabel10272401423D

 55 60  0  0  1  0  0  0  0  0999 V2000
  189.3090  177.1930  143.5620 C   0  0  0  0  0  2  0  0  0  0  0  0
  188.9900  177.3810  140.7340 C   0  0  2  0  0  3  0  0  0  0  0  0
  188.4880  178.5410  141.6020 C   0  0  2  0  0  3  0  0  0  0  0  0
  189.8280  176.1960  142.5330 C   0  0  0  0  0  2  0  0  0  0  0  0
  189.2540  178.5770  142.9270 C   0  0  0  0  0  2  0  0  0  0  0  0
  188.9630  176.1400  141.4140 O   0  0  0  0  0  0  0  0  0  0  0  0
  190.3280  177.6540  140.0600 C   0  0  0  0  0  2  0  0  0  0  0  0
  190.4000  176.8600  138.7720 C   0  0  0  0  0  2  0  0  0  0  0  0
  191.6610  176.0200  138.7270 C   0  0  0  0  0  2  0  0  0  0  0  0
  192.4390  176.2890  137.4840 C   0  0  0  0  0  0  0  0  0  0  0  0
  193.5050  176.9580  137.5460 O   0  0  0  0  0  0  0  0  0  0  0  0
  191.9970  175.7640  136.2680 O   0  0  0  0  0  0  0  0  0  0  0  0
  191.0210  173.5050  136.1820 C   0  0  0  0  0  2  0  0  0  0  0  0
  192.1680  174.3980  135.9110 C   0  0  1  0  0  0  0  0  0  0  0  0
  191.2880  174.0090  134.8870 O   0  0  0  0  0  0  0  0  0  0  0  0
  193.5800  173.8080  135.7790 C   0  0  1  0  0  0  0  0  0  0  0  0
  193.6250  173.0160  134.6270 O   0  0  0  0  0  1  0  0  0  0  0  0
  194.5180  174.8240  135.6570 F   0  0  0  0  0  0  0  0  0  0  0  0
  194.2310  173.7100  138.1030 F   0  0  0  0  0  0  0  0  0  0  0  0
  193.9230  172.9390  136.9960 C   0  0  2  0  0  3  0  0  0  0  0  0
  195.0260  171.9180  136.6780 C   0  0  2  0  0  3  0  0  0  0  0  0
  194.4660  170.4990  136.6650 C   0  0  0  0  0  2  0  0  0  0  0  0
  195.1130  169.4850  138.0340 S   0  0  0  0  0  1  0  0  0  0  0  0
  196.2540  172.0140  137.5880 C   0  0  0  0  0  2  0  0  0  0  0  0
  198.6300  172.1980  137.3330 O   0  0  0  0  0  1  0  0  0  0  0  0
  197.4170  172.7800  136.9520 C   0  0  2  0  0  3  0  0  0  0  0  0
  197.4090  174.2760  137.2810 C   0  0  0  0  0  3  0  0  0  0  0  0
  198.4660  174.5860  138.3180 C   0  0  0  0  0  1  0  0  0  0  0  0
  197.6900  175.1090  136.0450 C   0  0  0  0  0  1  0  0  0  0  0  0
  186.9990  178.3510  141.8290 C   0  0  0  0  0  2  0  0  0  0  0  0
  186.2260  179.4920  141.3430 N   0  0  0  0  0  2  0  0  0  0  0  0
  184.9060  179.0340  140.8890 C   0  0  2  0  0  3  0  0  0  0  0  0
  183.8220  179.1070  143.1630 C   0  0  2  0  0  3  0  0  0  0  0  0
  182.7520  178.5520  142.2280 C   0  0  0  0  0  2  0  0  0  0  0  0
  184.2110  178.2070  141.9960 C   0  0  1  0  0  3  0  0  0  0  0  0
  183.9520  178.3530  144.3450 O   0  0  0  0  0  0  0  0  0  0  0  0
  185.9060  178.3430  146.6640 C   0  0  0  0  0  0  0  0  0  0  0  0
  186.6960  177.8980  147.5410 O   0  0  0  0  0  0  0  0  0  0  0  0
  186.0520  178.8570  145.2740 C   0  0  0  0  0  2  0  0  0  0  0  0
  184.6430  179.1320  145.2990 C   0  0  2  0  0  3  0  0  0  0  0  0
  184.4760  178.5630  146.5840 O   0  0  0  0  0  0  0  0  0  0  0  0
  184.9870  178.3820  139.4860 C   0  0  1  0  0  3  0  0  0  0  0  0
  183.2560  180.0990  138.9210 C   0  0  0  0  0  2  0  0  0  0  0  0
  181.1800  179.4230  137.7020 C   0  0  0  0  0  2  0  0  0  0  0  0
  182.6040  177.6110  138.8440 C   0  0  2  0  0  3  0  0  0  0  0  0
  181.3500  177.9340  138.0180 C   0  0  0  0  0  2  0  0  0  0  0  0
  181.7390  180.2790  138.8250 C   0  0  0  0  0  2  0  0  0  0  0  0
  183.7260  178.6570  138.6520 C   0  0  2  0  0  3  0  0  0  0  0  0
  183.0710  176.2870  138.4800 N   0  0  0  0  0  1  0  0  0  0  0  0
  186.1270  178.8080  138.7920 O   0  0  0  0  0  0  0  0  0  0  0  0
  186.1430  178.0460  137.6210 C   0  0  0  0  0  2  0  0  0  0  0  0
  187.7380  177.1720  136.0890 C   0  0  0  0  0  0  0  0  0  0  0  0
  187.2040  178.4670  135.5630 O   0  0  0  0  0  0  0  0  0  0  0  0
  188.1630  175.9300  135.9020 C   0  0  0  0  0  2  0  0  0  0  0  0
  187.4520  178.2550  136.8900 C   0  0  1  0  0  3  0  0  0  0  0  0
  2  7  1  1  0  0  0
  2  6  1  0  0  0  0
  2  3  1  0  0  0  0
  3 30  1  1  0  0  0
  3  5  1  0  0  0  0
  4  1  1  0  0  0  0
  5  1  1  0  0  0  0
  6  4  1  0  0  0  0
  8  7  1  0  0  0  0
  9  8  1  0  0  0  0
 10 11  2  0  0  0  0
 10  9  1  0  0  0  0
 12 10  1  0  0  0  0
 14 13  1  0  0  0  0
 14 12  1  1  0  0  0
 15 14  1  0  0  0  0
 15 13  1  0  0  0  0
 16 17  1  6  0  0  0
 16 14  1  0  0  0  0
 16 20  1  0  0  0  0
 18 16  1  0  0  0  0
 20 19  1  1  0  0  0
 21 22  1  1  0  0  0
 21 20  1  0  0  0  0
 21 24  1  0  0  0  0
 22 23  1  0  0  0  0
 26 27  1  0  0  0  0
 26 25  1  1  0  0  0
 26 24  1  0  0  0  0
 27 28  1  0  0  0  0
 29 27  1  0  0  0  0
 31 30  1  0  0  0  0
 32 31  1  1  0  0  0
 33 36  1  1  0  0  0
 34 33  1  0  0  0  0
 35 32  1  6  0  0  0
 35 34  1  0  0  0  0
 35 33  1  0  0  0  0
 37 38  2  0  0  0  0
 39 40  1  0  0  0  0
 39 37  1  0  0  0  0
 40 36  1  6  0  0  0
 40 41  1  0  0  0  0
 41 37  1  0  0  0  0
 42 50  1  6  0  0  0
 42 32  1  0  0  0  0
 44 46  1  0  0  0  0
 44 47  1  0  0  0  0
 45 49  1  6  0  0  0
 46 45  1  0  0  0  0
 47 43  1  0  0  0  0
 48 45  1  0  0  0  0
 48 43  1  0  0  0  0
 48 42  1  1  0  0  0
 51 50  1  0  0  0  0
 52 55  1  0  0  0  0
 53 52  1  0  0  0  0
 53 55  1  0  0  0  0
 54 52  2  0  0  0  0
 55 51  1  1  0  0  0
M  END
>  <MODEL>
2

>  <REMARK>
 VINA RESULT:      -6.2      1.652      2.174
  Name = 
  24 active torsions:
  status: ('A' for Active; 'I' for Inactive)
    1  A    between atoms: C_1  and  C_29
    2  A    between atoms: C_2  and  N_28
    3  A    between atoms: C_2  and  C_31
    4  A    between atoms: C_3  and  C_29
    5  A    between atoms: C_3  and  C_38
    6  A    between atoms: C_6  and  C_14
    7  A    between atoms: C_6  and  C_20
    8  A    between atoms: C_8  and  O_22
    9  A    between atoms: C_8  and  C_35
   10  A    between atoms: C_11  and  C_38
   11  A    between atoms: C_13  and  O_48
   12  A    between atoms: C_14  and  C_38
   13  A    between atoms: C_19  and  C_40
   14  A    between atoms: C_19  and  O_45
   15  A    between atoms: C_20  and  O_22
   16  A    between atoms: C_26  and  C_49
   17  A    between atoms: C_27  and  C_54
   18  A    between atoms: N_28  and  C_33
   19  A    between atoms: C_33  and  C_49
   20  A    between atoms: C_33  and  C_52
   21  A    between atoms: C_35  and  C_51
   22  A    between atoms: C_39  and  O_48
   23  A    between atoms: O_45  and  C_49
   24  A    between atoms: C_51  and  C_54
                            x       y       z     vdW  Elec       q    Type
                         _______ _______ _______ _____ _____    ______ ____

>  <TORSDO>
F 24

$$$$
=
 OpenBabel10272401423D

 55 60  0  0  1  0  0  0  0  0999 V2000
  188.5970  177.5120  135.6570 C   0  0  0  0  0  2  0  0  0  0  0  0
  187.0050  178.1330  137.9410 C   0  0  2  0  0  3  0  0  0  0  0  0
  186.7770  176.7900  137.2380 C   0  0  2  0  0  3  0  0  0  0  0  0
  188.7420  178.7440  136.5430 C   0  0  0  0  0  2  0  0  0  0  0  0
  188.0440  176.3640  136.4920 C   0  0  0  0  0  2  0  0  0  0  0  0
  187.4850  179.1340  137.0620 O   0  0  0  0  0  0  0  0  0  0  0  0
  187.8310  178.0250  139.2160 C   0  0  0  0  0  2  0  0  0  0  0  0
  186.9990  178.5160  140.3830 C   0  0  0  0  0  2  0  0  0  0  0  0
  187.8770  178.8190  141.5810 C   0  0  0  0  0  2  0  0  0  0  0  0
  188.5630  177.5880  142.0670 C   0  0  0  0  0  0  0  0  0  0  0  0
  187.8820  176.5750  142.3760 O   0  0  0  0  0  0  0  0  0  0  0  0
  189.9570  177.5590  142.1390 O   0  0  0  0  0  0  0  0  0  0  0  0
  191.1810  175.7930  143.3410 C   0  0  0  0  0  2  0  0  0  0  0  0
  190.6600  177.1770  143.3160 C   0  0  1  0  0  0  0  0  0  0  0  0
  192.0120  176.9010  143.0520 O   0  0  0  0  0  0  0  0  0  0  0  0
  190.4190  177.9280  144.6330 C   0  0  1  0  0  0  0  0  0  0  0  0
  191.6230  177.9730  145.3450 O   0  0  0  0  0  1  0  0  0  0  0  0
  190.0040  179.2280  144.3790 F   0  0  0  0  0  0  0  0  0  0  0  0
  188.7930  176.1490  144.8020 F   0  0  0  0  0  0  0  0  0  0  0  0
  189.3630  177.2110  145.4840 C   0  0  2  0  0  3  0  0  0  0  0  0
  188.3060  178.1850  146.0240 C   0  0  2  0  0  3  0  0  0  0  0  0
  188.2520  178.1390  147.5480 C   0  0  0  0  0  2  0  0  0  0  0  0
  189.7060  177.3130  148.2700 S   0  0  0  0  0  1  0  0  0  0  0  0
  186.9100  177.9970  145.4210 C   0  0  0  0  0  2  0  0  0  0  0  0
  185.6000  179.2290  147.0040 O   0  0  0  0  0  1  0  0  0  0  0  0
  185.9840  179.1920  145.6610 C   0  0  2  0  0  3  0  0  0  0  0  0
  184.7540  179.1990  144.7470 C   0  0  0  0  0  3  0  0  0  0  0  0
  185.0270  178.3790  143.5040 C   0  0  0  0  0  1  0  0  0  0  0  0
  183.5450  178.6140  145.4520 C   0  0  0  0  0  1  0  0  0  0  0  0
  185.6030  176.9490  136.2870 C   0  0  0  0  0  2  0  0  0  0  0  0
  184.5020  176.0510  136.6310 N   0  0  0  0  0  2  0  0  0  0  0  0
  183.9420  175.4680  135.4050 C   0  0  2  0  0  3  0  0  0  0  0  0
  182.0310  176.7900  136.3810 C   0  0  2  0  0  3  0  0  0  0  0  0
  182.1840  177.3040  134.9530 C   0  0  0  0  0  2  0  0  0  0  0  0
  182.4480  175.8420  135.2620 C   0  0  1  0  0  3  0  0  0  0  0  0
  180.6930  176.4990  136.7110 O   0  0  0  0  0  0  0  0  0  0  0  0
  182.1570  176.6550  139.3630 C   0  0  0  0  0  0  0  0  0  0  0  0
  183.1110  176.7570  140.1810 O   0  0  0  0  0  0  0  0  0  0  0  0
  181.2110  177.6080  138.7190 C   0  0  0  0  0  2  0  0  0  0  0  0
  180.5760  176.4690  138.1180 C   0  0  2  0  0  3  0  0  0  0  0  0
  181.5240  175.5630  138.6510 O   0  0  0  0  0  0  0  0  0  0  0  0
  184.2920  173.9640  135.2850 C   0  0  1  0  0  3  0  0  0  0  0  0
  186.5100  173.2810  134.3470 C   0  0  0  0  0  2  0  0  0  0  0  0
  188.3690  172.6300  135.8870 C   0  0  0  0  0  2  0  0  0  0  0  0
  185.9610  172.6820  136.7880 C   0  0  2  0  0  3  0  0  0  0  0  0
  187.4420  172.4090  137.0860 C   0  0  0  0  0  2  0  0  0  0  0  0
  187.6570  172.2970  134.5880 C   0  0  0  0  0  2  0  0  0  0  0  0
  185.7640  173.6890  135.6310 C   0  0  2  0  0  3  0  0  0  0  0  0
  185.3240  173.1630  137.9990 N   0  0  0  0  0  1  0  0  0  0  0  0
  183.4530  173.1800  136.0890 O   0  0  0  0  0  0  0  0  0  0  0  0
  182.8600  172.2690  135.2120 C   0  0  0  0  0  2  0  0  0  0  0  0
  183.4190  170.1050  136.0240 C   0  0  0  0  0  0  0  0  0  0  0  0
  183.0560  170.9890  137.1770 O   0  0  0  0  0  0  0  0  0  0  0  0
  184.1580  169.1470  135.4850 C   0  0  0  0  0  2  0  0  0  0  0  0
  182.4100  171.0410  135.9740 C   0  0  1  0  0  3  0  0  0  0  0  0
  1  5  1  0  0  0  0
  1  4  1  0  0  0  0
  2  7  1  1  0  0  0
  3 30  1  6  0  0  0
  3  2  1  0  0  0  0
  4  6  1  0  0  0  0
  5  3  1  0  0  0  0
  6  2  1  0  0  0  0
  7  8  1  0  0  0  0
  8  9  1  0  0  0  0
  9 10  1  0  0  0  0
 10 12  1  0  0  0  0
 10 11  2  0  0  0  0
 14 12  1  6  0  0  0
 14 13  1  0  0  0  0
 14 16  1  0  0  0  0
 15 14  1  0  0  0  0
 15 13  1  0  0  0  0
 16 18  1  6  0  0  0
 16 17  1  0  0  0  0
 16 20  1  0  0  0  0
 20 19  1  6  0  0  0
 20 21  1  0  0  0  0
 21 24  1  6  0  0  0
 21 22  1  0  0  0  0
 22 23  1  0  0  0  0
 24 26  1  0  0  0  0
 26 25  1  1  0  0  0
 27 29  1  0  0  0  0
 27 26  1  0  0  0  0
 28 27  1  0  0  0  0
 30 31  1  0  0  0  0
 32 31  1  1  0  0  0
 33 36  1  6  0  0  0
 34 35  1  0  0  0  0
 34 33  1  0  0  0  0
 35 32  1  1  0  0  0
 35 33  1  0  0  0  0
 37 38  2  0  0  0  0
 39 37  1  0  0  0  0
 40 36  1  6  0  0  0
 40 41  1  0  0  0  0
 40 39  1  0  0  0  0
 41 37  1  0  0  0  0
 42 32  1  0  0  0  0
 42 50  1  1  0  0  0
 43 47  1  0  0  0  0
 43 48  1  0  0  0  0
 44 46  1  0  0  0  0
 45 46  1  0  0  0  0
 45 49  1  1  0  0  0
 47 44  1  0  0  0  0
 48 42  1  6  0  0  0
 48 45  1  0  0  0  0
 51 50  1  0  0  0  0
 52 53  1  0  0  0  0
 54 52  2  0  0  0  0
 55 51  1  6  0  0  0
 55 52  1  0  0  0  0
 55 53  1  0  0  0  0
M  END
>  <MODEL>
3

>  <REMARK>
 VINA RESULT:      -5.1      5.368      9.654
  Name = 
  24 active torsions:
  status: ('A' for Active; 'I' for Inactive)
    1  A    between atoms: C_1  and  C_29
    2  A    between atoms: C_2  and  N_28
    3  A    between atoms: C_2  and  C_31
    4  A    between atoms: C_3  and  C_29
    5  A    between atoms: C_3  and  C_38
    6  A    between atoms: C_6  and  C_14
    7  A    between atoms: C_6  and  C_20
    8  A    between atoms: C_8  and  O_22
    9  A    between atoms: C_8  and  C_35
   10  A    between atoms: C_11  and  C_38
   11  A    between atoms: C_13  and  O_48
   12  A    between atoms: C_14  and  C_38
   13  A    between atoms: C_19  and  C_40
   14  A    between atoms: C_19  and  O_45
   15  A    between atoms: C_20  and  O_22
   16  A    between atoms: C_26  and  C_49
   17  A    between atoms: C_27  and  C_54
   18  A    between atoms: N_28  and  C_33
   19  A    between atoms: C_33  and  C_49
   20  A    between atoms: C_33  and  C_52
   21  A    between atoms: C_35  and  C_51
   22  A    between atoms: C_39  and  O_48
   23  A    between atoms: O_45  and  C_49
   24  A    between atoms: C_51  and  C_54
                            x       y       z     vdW  Elec       q    Type
                         _______ _______ _______ _____ _____    ______ ____

>  <TORSDO>
F 24

$$$$
=
 OpenBabel10272401423D

 55 60  0  0  1  0  0  0  0  0999 V2000
  189.0840  177.4930  143.1460 C   0  0  0  0  0  2  0  0  0  0  0  0
  189.5130  177.2380  140.3380 C   0  0  2  0  0  3  0  0  0  0  0  0
  188.6620  178.4100  140.8410 C   0  0  2  0  0  3  0  0  0  0  0  0
  189.9740  176.4600  142.4650 C   0  0  0  0  0  2  0  0  0  0  0  0
  189.0360  178.7500  142.2860 C   0  0  0  0  0  2  0  0  0  0  0  0
  189.4530  176.1130  141.1970 O   0  0  0  0  0  0  0  0  0  0  0  0
  190.9390  177.6260  139.9750 C   0  0  0  0  0  2  0  0  0  0  0  0
  191.5450  176.5310  139.1210 C   0  0  0  0  0  2  0  0  0  0  0  0
  192.9490  176.9020  138.6850 C   0  0  0  0  0  2  0  0  0  0  0  0
  193.2550  176.3430  137.3370 C   0  0  0  0  0  0  0  0  0  0  0  0
  192.3210  176.1380  136.5180 O   0  0  0  0  0  0  0  0  0  0  0  0
  194.5810  176.0870  136.9830 O   0  0  0  0  0  0  0  0  0  0  0  0
  195.1120  175.0120  134.8330 C   0  0  0  0  0  2  0  0  0  0  0  0
  194.9830  174.9040  136.3020 C   0  0  1  0  0  0  0  0  0  0  0  0
  196.2380  175.0540  135.6880 O   0  0  0  0  0  0  0  0  0  0  0  0
  194.7630  173.5300  136.9520 C   0  0  1  0  0  0  0  0  0  0  0  0
  194.9680  173.6530  138.3300 O   0  0  0  0  0  1  0  0  0  0  0  0
  193.4630  173.0950  136.7320 F   0  0  0  0  0  0  0  0  0  0  0  0
  195.1410  171.6530  135.4790 F   0  0  0  0  0  0  0  0  0  0  0  0
  195.7500  172.4990  136.3900 C   0  0  2  0  0  3  0  0  0  0  0  0
  196.4670  171.7250  137.5060 C   0  0  2  0  0  3  0  0  0  0  0  0
  197.9800  171.7830  137.3230 C   0  0  0  0  0  2  0  0  0  0  0  0
  198.4580  172.4260  135.6870 S   0  0  0  0  0  1  0  0  0  0  0  0
  195.9910  170.2790  137.6760 C   0  0  0  0  0  2  0  0  0  0  0  0
  196.1760  168.7440  135.8460 O   0  0  0  0  0  1  0  0  0  0  0  0
  196.8700  169.2650  136.9410 C   0  0  2  0  0  3  0  0  0  0  0  0
  197.3790  168.1370  137.8440 C   0  0  0  0  0  3  0  0  0  0  0  0
  198.7520  168.4810  138.3820 C   0  0  0  0  0  1  0  0  0  0  0  0
  196.4470  167.9140  139.0190 C   0  0  0  0  0  1  0  0  0  0  0  0
  187.2000  178.0160  140.7260 C   0  0  0  0  0  2  0  0  0  0  0  0
  186.4910  178.8420  139.7500 N   0  0  0  0  0  2  0  0  0  0  0  0
  185.3170  178.1140  139.2510 C   0  0  2  0  0  3  0  0  0  0  0  0
  186.5050  177.1180  137.2630 C   0  0  2  0  0  3  0  0  0  0  0  0
  185.0610  176.6410  137.1460 C   0  0  0  0  0  2  0  0  0  0  0  0
  185.3580  178.0190  137.7070 C   0  0  1  0  0  3  0  0  0  0  0  0
  187.0050  177.6320  136.0510 O   0  0  0  0  0  0  0  0  0  0  0  0
  188.8940  175.3750  136.7840 C   0  0  0  0  0  0  0  0  0  0  0  0
  189.3580  174.3760  137.3990 O   0  0  0  0  0  0  0  0  0  0  0  0
  188.0350  175.5700  135.5830 C   0  0  0  0  0  2  0  0  0  0  0  0
  188.2250  176.9820  135.7590 C   0  0  2  0  0  3  0  0  0  0  0  0
  188.9660  176.8120  136.9530 O   0  0  0  0  0  0  0  0  0  0  0  0
  184.0090  178.6590  139.8750 C   0  0  1  0  0  3  0  0  0  0  0  0
  182.8160  180.6120  138.8620 C   0  0  0  0  0  2  0  0  0  0  0  0
  180.8710  180.2310  137.3370 C   0  0  0  0  0  2  0  0  0  0  0  0
  181.6530  178.3170  138.8660 C   0  0  2  0  0  3  0  0  0  0  0  0
  180.6540  178.7860  137.7980 C   0  0  0  0  0  2  0  0  0  0  0  0
  181.4130  181.0830  138.4710 C   0  0  0  0  0  2  0  0  0  0  0  0
  182.9940  179.0830  138.8020 C   0  0  2  0  0  3  0  0  0  0  0  0
  181.8700  176.8920  138.7030 N   0  0  0  0  0  1  0  0  0  0  0  0
  183.4300  177.7220  140.7420 O   0  0  0  0  0  0  0  0  0  0  0  0
  184.1570  177.8320  141.9310 C   0  0  0  0  0  2  0  0  0  0  0  0
  184.1270  179.1470  143.9120 C   0  0  0  0  0  0  0  0  0  0  0  0
  185.1180  179.7230  142.9490 O   0  0  0  0  0  0  0  0  0  0  0  0
  183.7510  178.8390  145.1440 C   0  0  0  0  0  2  0  0  0  0  0  0
  183.9240  179.1930  142.5500 C   0  0  1  0  0  3  0  0  0  0  0  0
  2  7  1  1  0  0  0
  2  3  1  0  0  0  0
  2  6  1  0  0  0  0
  3 30  1  1  0  0  0
  3  5  1  0  0  0  0
  4  1  1  0  0  0  0
  5  1  1  0  0  0  0
  6  4  1  0  0  0  0
  8  7  1  0  0  0  0
  9  8  1  0  0  0  0
 10  9  1  0  0  0  0
 11 10  2  0  0  0  0
 12 10  1  0  0  0  0
 13 15  1  0  0  0  0
 13 14  1  0  0  0  0
 14 16  1  0  0  0  0
 14 12  1  1  0  0  0
 15 14  1  0  0  0  0
 16 18  1  6  0  0  0
 16 17  1  0  0  0  0
 20 19  1  6  0  0  0
 20 16  1  0  0  0  0
 20 21  1  0  0  0  0
 21 22  1  6  0  0  0
 21 24  1  0  0  0  0
 23 22  1  0  0  0  0
 26 25  1  6  0  0  0
 26 24  1  0  0  0  0
 26 27  1  0  0  0  0
 27 28  1  0  0  0  0
 27 29  1  0  0  0  0
 31 30  1  0  0  0  0
 32 31  1  6  0  0  0
 32 42  1  0  0  0  0
 33 36  1  6  0  0  0
 33 35  1  0  0  0  0
 34 33  1  0  0  0  0
 34 35  1  0  0  0  0
 35 32  1  1  0  0  0
 37 41  1  0  0  0  0
 37 38  2  0  0  0  0
 39 40  1  0  0  0  0
 39 37  1  0  0  0  0
 40 36  1  1  0  0  0
 40 41  1  0  0  0  0
 42 50  1  6  0  0  0
 44 46  1  0  0  0  0
 44 47  1  0  0  0  0
 45 49  1  6  0  0  0
 46 45  1  0  0  0  0
 47 43  1  0  0  0  0
 48 43  1  0  0  0  0
 48 45  1  0  0  0  0
 48 42  1  1  0  0  0
 50 51  1  0  0  0  0
 52 54  2  0  0  0  0
 53 52  1  0  0  0  0
 55 51  1  6  0  0  0
 55 53  1  0  0  0  0
 55 52  1  0  0  0  0
M  END
>  <MODEL>
4

>  <REMARK>
 VINA RESULT:      -4.4      1.797      4.747
  Name = 
  24 active torsions:
  status: ('A' for Active; 'I' for Inactive)
    1  A    between atoms: C_1  and  C_29
    2  A    between atoms: C_2  and  N_28
    3  A    between atoms: C_2  and  C_31
    4  A    between atoms: C_3  and  C_29
    5  A    between atoms: C_3  and  C_38
    6  A    between atoms: C_6  and  C_14
    7  A    between atoms: C_6  and  C_20
    8  A    between atoms: C_8  and  O_22
    9  A    between atoms: C_8  and  C_35
   10  A    between atoms: C_11  and  C_38
   11  A    between atoms: C_13  and  O_48
   12  A    between atoms: C_14  and  C_38
   13  A    between atoms: C_19  and  C_40
   14  A    between atoms: C_19  and  O_45
   15  A    between atoms: C_20  and  O_22
   16  A    between atoms: C_26  and  C_49
   17  A    between atoms: C_27  and  C_54
   18  A    between atoms: N_28  and  C_33
   19  A    between atoms: C_33  and  C_49
   20  A    between atoms: C_33  and  C_52
   21  A    between atoms: C_35  and  C_51
   22  A    between atoms: C_39  and  O_48
   23  A    between atoms: O_45  and  C_49
   24  A    between atoms: C_51  and  C_54
                            x       y       z     vdW  Elec       q    Type
                         _______ _______ _______ _____ _____    ______ ____

>  <TORSDO>
F 24

$$$$
=
 OpenBabel10272401423D

 55 60  0  0  1  0  0  0  0  0999 V2000
  188.4300  177.4120  135.4530 C   0  0  0  0  0  2  0  0  0  0  0  0
  186.9830  177.9810  137.8440 C   0  0  2  0  0  3  0  0  0  0  0  0
  186.7050  176.6580  137.1220 C   0  0  2  0  0  3  0  0  0  0  0  0
  188.6350  178.6200  136.3590 C   0  0  0  0  0  2  0  0  0  0  0  0
  187.9230  176.2450  136.2900 C   0  0  0  0  0  2  0  0  0  0  0  0
  187.4140  179.0030  136.9630 O   0  0  0  0  0  0  0  0  0  0  0  0
  187.8830  177.8370  139.0630 C   0  0  0  0  0  2  0  0  0  0  0  0
  187.1590  178.3860  140.2760 C   0  0  0  0  0  2  0  0  0  0  0  0
  188.1450  178.8060  141.3480 C   0  0  0  0  0  2  0  0  0  0  0  0
  189.1650  177.7440  141.5820 C   0  0  0  0  0  0  0  0  0  0  0  0
  189.0060  176.6020  141.0740 O   0  0  0  0  0  0  0  0  0  0  0  0
  190.3060  178.0380  142.3310 O   0  0  0  0  0  0  0  0  0  0  0  0
  191.1660  175.8850  143.1630 C   0  0  0  0  0  2  0  0  0  0  0  0
  190.7110  177.2620  143.4530 C   0  0  1  0  0  0  0  0  0  0  0  0
  192.0780  176.9400  143.4010 O   0  0  0  0  0  0  0  0  0  0  0  0
  190.2060  177.6200  144.8590 C   0  0  1  0  0  0  0  0  0  0  0  0
  191.1870  177.2610  145.7880 O   0  0  0  0  0  1  0  0  0  0  0  0
  189.9790  178.9860  144.9570 F   0  0  0  0  0  0  0  0  0  0  0  0
  188.1570  176.6340  144.0430 F   0  0  0  0  0  0  0  0  0  0  0  0
  188.9120  176.8620  145.1810 C   0  0  2  0  0  3  0  0  0  0  0  0
  188.1000  177.5590  146.2820 C   0  0  2  0  0  3  0  0  0  0  0  0
  188.4210  176.9690  147.6520 C   0  0  0  0  0  2  0  0  0  0  0  0
  187.8540  178.0320  149.0180 S   0  0  0  0  0  1  0  0  0  0  0  0
  186.5870  177.5760  146.0350 C   0  0  0  0  0  2  0  0  0  0  0  0
  185.3880  179.3700  147.0760 O   0  0  0  0  0  1  0  0  0  0  0  0
  186.0170  178.9880  145.8880 C   0  0  2  0  0  3  0  0  0  0  0  0
  185.0600  179.1340  144.7000 C   0  0  0  0  0  3  0  0  0  0  0  0
  185.4750  178.2030  143.5810 C   0  0  0  0  0  1  0  0  0  0  0  0
  183.6360  178.7980  145.1000 C   0  0  0  0  0  1  0  0  0  0  0  0
  185.4760  176.8450  136.2490 C   0  0  0  0  0  2  0  0  0  0  0  0
  184.4250  175.8860  136.5800 N   0  0  0  0  0  2  0  0  0  0  0  0
  183.5540  175.6880  135.4140 C   0  0  2  0  0  3  0  0  0  0  0  0
  182.6350  177.9050  136.1870 C   0  0  2  0  0  3  0  0  0  0  0  0
  182.3250  177.8420  134.6950 C   0  0  0  0  0  2  0  0  0  0  0  0
  182.2910  176.5740  135.5270 C   0  0  1  0  0  3  0  0  0  0  0  0
  181.5230  178.3010  136.9550 O   0  0  0  0  0  0  0  0  0  0  0  0
  182.3990  178.9370  139.7880 C   0  0  0  0  0  0  0  0  0  0  0  0
  182.6880  178.7590  141.0020 O   0  0  0  0  0  0  0  0  0  0  0  0
  183.1640  178.9470  138.5100 C   0  0  0  0  0  2  0  0  0  0  0  0
  181.9380  179.3060  137.8560 C   0  0  2  0  0  3  0  0  0  0  0  0
  181.1830  179.2110  139.0490 O   0  0  0  0  0  0  0  0  0  0  0  0
  183.3190  174.1830  135.1340 C   0  0  1  0  0  3  0  0  0  0  0  0
  185.7650  173.8580  134.7100 C   0  0  0  0  0  2  0  0  0  0  0  0
  186.8990  171.7710  135.4910 C   0  0  0  0  0  2  0  0  0  0  0  0
  184.3330  171.8130  135.3310 C   0  0  2  0  0  3  0  0  0  0  0  0
  185.5890  170.9990  135.6740 C   0  0  0  0  0  2  0  0  0  0  0  0
  186.7800  172.7710  134.3540 C   0  0  0  0  0  2  0  0  0  0  0  0
  184.5480  173.3350  135.4960 C   0  0  2  0  0  3  0  0  0  0  0  0
  183.2410  171.3560  136.1700 N   0  0  0  0  0  1  0  0  0  0  0  0
  182.1890  173.7090  135.8130 O   0  0  0  0  0  0  0  0  0  0  0  0
  182.2930  174.2390  137.1020 C   0  0  0  0  0  2  0  0  0  0  0  0
  180.7630  174.9970  138.7570 C   0  0  0  0  0  0  0  0  0  0  0  0
  180.0450  174.8410  137.4530 O   0  0  0  0  0  0  0  0  0  0  0  0
  180.9750  175.6420  139.8950 C   0  0  0  0  0  2  0  0  0  0  0  0
  181.0150  173.9740  137.8700 C   0  0  1  0  0  3  0  0  0  0  0  0
  1  5  1  0  0  0  0
  1  4  1  0  0  0  0
  2  7  1  1  0  0  0
  3 30  1  6  0  0  0
  3  2  1  0  0  0  0
  4  6  1  0  0  0  0
  5  3  1  0  0  0  0
  6  2  1  0  0  0  0
  7  8  1  0  0  0  0
  8  9  1  0  0  0  0
  9 10  1  0  0  0  0
 10 12  1  0  0  0  0
 11 10  2  0  0  0  0
 13 15  1  0  0  0  0
 13 14  1  0  0  0  0
 14 12  1  6  0  0  0
 14 16  1  0  0  0  0
 15 14  1  0  0  0  0
 16 18  1  1  0  0  0
 16 20  1  0  0  0  0
 16 17  1  0  0  0  0
 20 19  1  6  0  0  0
 20 21  1  0  0  0  0
 21 24  1  6  0  0  0
 21 22  1  0  0  0  0
 22 23  1  0  0  0  0
 26 24  1  0  0  0  0
 26 25  1  1  0  0  0
 27 29  1  0  0  0  0
 27 26  1  0  0  0  0
 28 27  1  0  0  0  0
 30 31  1  0  0  0  0
 32 31  1  1  0  0  0
 33 36  1  1  0  0  0
 34 35  1  0  0  0  0
 34 33  1  0  0  0  0
 35 32  1  6  0  0  0
 35 33  1  0  0  0  0
 37 38  2  0  0  0  0
 39 37  1  0  0  0  0
 40 36  1  6  0  0  0
 40 39  1  0  0  0  0
 40 41  1  0  0  0  0
 41 37  1  0  0  0  0
 42 32  1  0  0  0  0
 42 50  1  1  0  0  0
 43 48  1  0  0  0  0
 44 46  1  0  0  0  0
 45 48  1  0  0  0  0
 45 46  1  0  0  0  0
 45 49  1  1  0  0  0
 47 43  1  0  0  0  0
 47 44  1  0  0  0  0
 48 42  1  6  0  0  0
 50 51  1  0  0  0  0
 52 54  2  0  0  0  0
 53 55  1  0  0  0  0
 53 52  1  0  0  0  0
 55 51  1  6  0  0  0
 55 52  1  0  0  0  0
M  END
>  <MODEL>
5

>  <REMARK>
 VINA RESULT:      -4.3      5.642      9.558
  Name = 
  24 active torsions:
  status: ('A' for Active; 'I' for Inactive)
    1  A    between atoms: C_1  and  C_29
    2  A    between atoms: C_2  and  N_28
    3  A    between atoms: C_2  and  C_31
    4  A    between atoms: C_3  and  C_29
    5  A    between atoms: C_3  and  C_38
    6  A    between atoms: C_6  and  C_14
    7  A    between atoms: C_6  and  C_20
    8  A    between atoms: C_8  and  O_22
    9  A    between atoms: C_8  and  C_35
   10  A    between atoms: C_11  and  C_38
   11  A    between atoms: C_13  and  O_48
   12  A    between atoms: C_14  and  C_38
   13  A    between atoms: C_19  and  C_40
   14  A    between atoms: C_19  and  O_45
   15  A    between atoms: C_20  and  O_22
   16  A    between atoms: C_26  and  C_49
   17  A    between atoms: C_27  and  C_54
   18  A    between atoms: N_28  and  C_33
   19  A    between atoms: C_33  and  C_49
   20  A    between atoms: C_33  and  C_52
   21  A    between atoms: C_35  and  C_51
   22  A    between atoms: C_39  and  O_48
   23  A    between atoms: O_45  and  C_49
   24  A    between atoms: C_51  and  C_54
                            x       y       z     vdW  Elec       q    Type
                         _______ _______ _______ _____ _____    ______ ____

>  <TORSDO>
F 24

$$$$
=
 OpenBabel10272401423D

 55 60  0  0  1  0  0  0  0  0999 V2000
  181.4760  178.8960  139.9180 C   0  0  0  0  0  2  0  0  0  0  0  0
  184.1970  178.0420  139.8950 C   0  0  2  0  0  3  0  0  0  0  0  0
  183.6170  178.6600  138.6180 C   0  0  2  0  0  3  0  0  0  0  0  0
  182.2550  178.3530  141.1100 C   0  0  0  0  0  2  0  0  0  0  0  0
  182.4450  179.5830  138.9640 C   0  0  0  0  0  2  0  0  0  0  0  0
  183.2130  177.4010  140.6870 O   0  0  0  0  0  0  0  0  0  0  0  0
  185.0670  178.9990  140.6990 C   0  0  0  0  0  2  0  0  0  0  0  0
  185.2510  178.4400  142.0950 C   0  0  0  0  0  2  0  0  0  0  0  0
  184.7910  179.4380  143.1400 C   0  0  0  0  0  2  0  0  0  0  0  0
  185.0270  178.9170  144.5170 C   0  0  0  0  0  0  0  0  0  0  0  0
  184.1230  178.2630  145.1010 O   0  0  0  0  0  0  0  0  0  0  0  0
  186.2620  179.1300  145.1310 O   0  0  0  0  0  0  0  0  0  0  0  0
  186.4850  179.3460  147.5740 C   0  0  0  0  0  2  0  0  0  0  0  0
  186.6280  178.5130  146.3600 C   0  0  1  0  0  0  0  0  0  0  0  0
  185.5270  178.3670  147.2200 O   0  0  0  0  0  0  0  0  0  0  0  0
  187.5890  177.3150  146.3640 C   0  0  1  0  0  0  0  0  0  0  0  0
  187.4920  176.6720  147.6020 O   0  0  0  0  0  1  0  0  0  0  0  0
  187.2420  176.4150  145.3660 F   0  0  0  0  0  0  0  0  0  0  0  0
  189.1250  179.1570  146.0740 F   0  0  0  0  0  0  0  0  0  0  0  0
  189.0360  177.7780  146.1540 C   0  0  2  0  0  3  0  0  0  0  0  0
  189.6890  177.0860  144.9480 C   0  0  2  0  0  3  0  0  0  0  0  0
  191.1140  176.6520  145.2760 C   0  0  0  0  0  2  0  0  0  0  0  0
  191.3960  176.4850  147.0680 S   0  0  0  0  0  1  0  0  0  0  0  0
  189.6510  177.9050  143.6540 C   0  0  0  0  0  2  0  0  0  0  0  0
  188.6660  175.9040  142.7800 O   0  0  0  0  0  1  0  0  0  0  0  0
  189.3630  177.0580  142.4130 C   0  0  2  0  0  3  0  0  0  0  0  0
  190.6240  176.6990  141.6200 C   0  0  0  0  0  3  0  0  0  0  0  0
  190.3070  176.6360  140.1410 C   0  0  0  0  0  1  0  0  0  0  0  0
  191.7170  177.7290  141.8330 C   0  0  0  0  0  1  0  0  0  0  0  0
  183.1790  177.5290  137.7030 C   0  0  0  0  0  2  0  0  0  0  0  0
  184.1700  176.4560  137.6560 N   0  0  0  0  0  2  0  0  0  0  0  0
  184.4570  176.1120  136.2570 C   0  0  2  0  0  3  0  0  0  0  0  0
  183.1940  173.9390  136.4520 C   0  0  2  0  0  3  0  0  0  0  0  0
  182.1380  175.0300  136.5970 C   0  0  0  0  0  2  0  0  0  0  0  0
  183.3200  175.2420  135.6710 C   0  0  1  0  0  3  0  0  0  0  0  0
  182.8120  172.9330  135.5440 O   0  0  0  0  0  0  0  0  0  0  0  0
  182.1070  169.9850  135.4270 C   0  0  0  0  0  0  0  0  0  0  0  0
  181.6430  168.8980  134.9870 O   0  0  0  0  0  0  0  0  0  0  0  0
  183.4280  170.6700  135.3700 C   0  0  0  0  0  2  0  0  0  0  0  0
  182.8620  171.6880  136.2100 C   0  0  2  0  0  3  0  0  0  0  0  0
  181.5780  171.0930  136.1970 O   0  0  0  0  0  0  0  0  0  0  0  0
  185.8970  175.5680  136.0950 C   0  0  1  0  0  3  0  0  0  0  0  0
  187.2420  176.6900  137.8830 C   0  0  0  0  0  2  0  0  0  0  0  0
  188.4690  178.8090  137.3770 C   0  0  0  0  0  2  0  0  0  0  0  0
  186.6000  178.0370  135.7880 C   0  0  2  0  0  3  0  0  0  0  0  0
  187.6630  179.0990  136.1070 C   0  0  0  0  0  2  0  0  0  0  0  0
  187.6170  178.0800  138.4010 C   0  0  0  0  0  2  0  0  0  0  0  0
  186.9540  176.6500  136.3710 C   0  0  2  0  0  3  0  0  0  0  0  0
  186.4390  177.9610  134.3480 N   0  0  0  0  0  1  0  0  0  0  0  0
  186.1180  174.4570  136.9200 O   0  0  0  0  0  0  0  0  0  0  0  0
  186.7710  173.5270  136.1070 C   0  0  0  0  0  2  0  0  0  0  0  0
  187.8420  171.4040  136.1640 C   0  0  0  0  0  0  0  0  0  0  0  0
  188.6980  172.4100  136.8680 O   0  0  0  0  0  0  0  0  0  0  0  0
  187.7020  170.3480  135.3760 C   0  0  0  0  0  2  0  0  0  0  0  0
  187.3340  172.4090  136.9580 C   0  0  1  0  0  3  0  0  0  0  0  0
  1  4  1  0  0  0  0
  2  6  1  0  0  0  0
  2  7  1  1  0  0  0
  3 30  1  6  0  0  0
  3  5  1  0  0  0  0
  3  2  1  0  0  0  0
  5  1  1  0  0  0  0
  6  4  1  0  0  0  0
  7  8  1  0  0  0  0
  8  9  1  0  0  0  0
  9 10  1  0  0  0  0
 10 11  2  0  0  0  0
 10 12  1  0  0  0  0
 14 12  1  6  0  0  0
 14 16  1  0  0  0  0
 14 15  1  0  0  0  0
 14 13  1  0  0  0  0
 15 13  1  0  0  0  0
 16 18  1  6  0  0  0
 16 17  1  0  0  0  0
 20 19  1  6  0  0  0
 20 16  1  0  0  0  0
 21 24  1  6  0  0  0
 21 22  1  0  0  0  0
 21 20  1  0  0  0  0
 22 23  1  0  0  0  0
 26 25  1  1  0  0  0
 26 24  1  0  0  0  0
 27 29  1  0  0  0  0
 27 26  1  0  0  0  0
 28 27  1  0  0  0  0
 31 30  1  0  0  0  0
 32 31  1  1  0  0  0
 33 36  1  6  0  0  0
 33 34  1  0  0  0  0
 35 32  1  1  0  0  0
 35 33  1  0  0  0  0
 35 34  1  0  0  0  0
 37 41  1  0  0  0  0
 38 37  2  0  0  0  0
 39 37  1  0  0  0  0
 39 40  1  0  0  0  0
 40 36  1  6  0  0  0
 41 40  1  0  0  0  0
 42 32  1  0  0  0  0
 42 50  1  1  0  0  0
 43 47  1  0  0  0  0
 44 47  1  0  0  0  0
 45 49  1  6  0  0  0
 45 46  1  0  0  0  0
 45 48  1  0  0  0  0
 46 44  1  0  0  0  0
 48 42  1  1  0  0  0
 48 43  1  0  0  0  0
 51 50  1  0  0  0  0
 52 53  1  0  0  0  0
 52 55  1  0  0  0  0
 53 55  1  0  0  0  0
 54 52  2  0  0  0  0
 55 51  1  6  0  0  0
M  END
>  <MODEL>
6

>  <REMARK>
 VINA RESULT:      -4.3      5.316      9.701
  Name = 
  24 active torsions:
  status: ('A' for Active; 'I' for Inactive)
    1  A    between atoms: C_1  and  C_29
    2  A    between atoms: C_2  and  N_28
    3  A    between atoms: C_2  and  C_31
    4  A    between atoms: C_3  and  C_29
    5  A    between atoms: C_3  and  C_38
    6  A    between atoms: C_6  and  C_14
    7  A    between atoms: C_6  and  C_20
    8  A    between atoms: C_8  and  O_22
    9  A    between atoms: C_8  and  C_35
   10  A    between atoms: C_11  and  C_38
   11  A    between atoms: C_13  and  O_48
   12  A    between atoms: C_14  and  C_38
   13  A    between atoms: C_19  and  C_40
   14  A    between atoms: C_19  and  O_45
   15  A    between atoms: C_20  and  O_22
   16  A    between atoms: C_26  and  C_49
   17  A    between atoms: C_27  and  C_54
   18  A    between atoms: N_28  and  C_33
   19  A    between atoms: C_33  and  C_49
   20  A    between atoms: C_33  and  C_52
   21  A    between atoms: C_35  and  C_51
   22  A    between atoms: C_39  and  O_48
   23  A    between atoms: O_45  and  C_49
   24  A    between atoms: C_51  and  C_54
                            x       y       z     vdW  Elec       q    Type
                         _______ _______ _______ _____ _____    ______ ____

>  <TORSDO>
F 24

$$$$
=
 OpenBabel10272401423D

 55 60  0  0  1  0  0  0  0  0999 V2000
  189.0080  177.2610  135.7640 C   0  0  0  0  0  2  0  0  0  0  0  0
  187.3700  178.2920  137.8600 C   0  0  2  0  0  3  0  0  0  0  0  0
  186.9620  176.9690  137.2010 C   0  0  2  0  0  3  0  0  0  0  0  0
  189.2990  178.5000  136.6020 C   0  0  0  0  0  2  0  0  0  0  0  0
  188.1900  176.2810  136.5960 C   0  0  0  0  0  2  0  0  0  0  0  0
  188.0940  179.1370  136.9840 O   0  0  0  0  0  0  0  0  0  0  0  0
  188.0540  178.1190  139.2090 C   0  0  0  0  0  2  0  0  0  0  0  0
  187.0560  178.4270  140.3080 C   0  0  0  0  0  2  0  0  0  0  0  0
  187.7690  178.7870  141.5970 C   0  0  0  0  0  2  0  0  0  0  0  0
  188.9090  177.8620  141.8540 C   0  0  0  0  0  0  0  0  0  0  0  0
  188.7850  176.6340  141.6060 O   0  0  0  0  0  0  0  0  0  0  0  0
  190.1170  178.3740  142.3320 O   0  0  0  0  0  0  0  0  0  0  0  0
  191.5560  176.4780  142.9590 C   0  0  0  0  0  2  0  0  0  0  0  0
  190.8770  177.7320  143.3490 C   0  0  1  0  0  0  0  0  0  0  0  0
  192.2480  177.7090  143.0430 O   0  0  0  0  0  0  0  0  0  0  0  0
  190.5710  178.0080  144.8290 C   0  0  1  0  0  0  0  0  0  0  0  0
  191.7280  177.7610  145.5750 O   0  0  0  0  0  1  0  0  0  0  0  0
  190.2020  179.3340  145.0060 F   0  0  0  0  0  0  0  0  0  0  0  0
  189.1260  176.1190  144.4020 F   0  0  0  0  0  0  0  0  0  0  0  0
  189.4480  177.0920  145.3320 C   0  0  2  0  0  3  0  0  0  0  0  0
  188.2160  177.8920  145.7810 C   0  0  2  0  0  3  0  0  0  0  0  0
  188.5140  178.6850  147.0490 C   0  0  0  0  0  2  0  0  0  0  0  0
  188.7400  177.6100  148.5040 S   0  0  0  0  0  1  0  0  0  0  0  0
  186.9450  177.0520  145.9470 C   0  0  0  0  0  2  0  0  0  0  0  0
  186.3350  177.3740  143.6520 O   0  0  0  0  0  1  0  0  0  0  0  0
  185.8400  177.4290  144.9580 C   0  0  2  0  0  3  0  0  0  0  0  0
  185.2160  178.8000  145.2410 C   0  0  0  0  0  3  0  0  0  0  0  0
  184.2480  179.1680  144.1370 C   0  0  0  0  0  1  0  0  0  0  0  0
  184.4620  178.7960  146.5570 C   0  0  0  0  0  1  0  0  0  0  0  0
  185.9190  177.2720  136.1390 C   0  0  0  0  0  2  0  0  0  0  0  0
  184.5730  177.3340  136.7040 N   0  0  0  0  0  2  0  0  0  0  0  0
  183.6770  176.4570  135.9380 C   0  0  2  0  0  3  0  0  0  0  0  0
  182.1770  178.3890  136.5480 C   0  0  2  0  0  3  0  0  0  0  0  0
  181.8430  178.0670  135.0950 C   0  0  0  0  0  2  0  0  0  0  0  0
  182.2150  176.9490  136.0510 C   0  0  1  0  0  3  0  0  0  0  0  0
  181.0280  178.5350  137.3480 O   0  0  0  0  0  0  0  0  0  0  0  0
  183.2780  179.7940  138.9450 C   0  0  0  0  0  0  0  0  0  0  0  0
  184.4320  180.2180  139.2280 O   0  0  0  0  0  0  0  0  0  0  0  0
  182.0440  180.3940  138.3680 C   0  0  0  0  0  2  0  0  0  0  0  0
  181.4090  179.1230  138.5740 C   0  0  2  0  0  3  0  0  0  0  0  0
  182.6000  178.5170  139.0390 O   0  0  0  0  0  0  0  0  0  0  0  0
  183.9320  174.9660  136.2660 C   0  0  1  0  0  3  0  0  0  0  0  0
  181.8230  173.9230  135.4110 C   0  0  0  0  0  2  0  0  0  0  0  0
  179.9830  173.3460  137.0030 C   0  0  0  0  0  2  0  0  0  0  0  0
  181.8190  174.9810  137.7570 C   0  0  2  0  0  3  0  0  0  0  0  0
  180.5240  174.2420  138.1210 C   0  0  0  0  0  2  0  0  0  0  0  0
  180.3100  173.9300  135.6400 C   0  0  0  0  0  2  0  0  0  0  0  0
  182.6420  174.2400  136.6770 C   0  0  2  0  0  3  0  0  0  0  0  0
  182.6050  175.1630  138.9630 N   0  0  0  0  0  1  0  0  0  0  0  0
  184.5350  174.3030  135.1880 O   0  0  0  0  0  0  0  0  0  0  0  0
  185.4680  173.4410  135.7700 C   0  0  0  0  0  2  0  0  0  0  0  0
  186.3730  171.2510  135.5710 C   0  0  0  0  0  0  0  0  0  0  0  0
  184.9990  171.1670  136.1590 O   0  0  0  0  0  0  0  0  0  0  0  0
  187.6320  170.8420  135.5000 C   0  0  0  0  0  2  0  0  0  0  0  0
  185.3290  172.0560  135.1750 C   0  0  1  0  0  3  0  0  0  0  0  0
  1  5  1  0  0  0  0
  1  4  1  0  0  0  0
  2  7  1  1  0  0  0
  3 30  1  6  0  0  0
  3  2  1  0  0  0  0
  4  6  1  0  0  0  0
  5  3  1  0  0  0  0
  6  2  1  0  0  0  0
  7  8  1  0  0  0  0
  8  9  1  0  0  0  0
  9 10  1  0  0  0  0
 10 12  1  0  0  0  0
 11 10  2  0  0  0  0
 13 15  1  0  0  0  0
 13 14  1  0  0  0  0
 14 12  1  6  0  0  0
 14 16  1  0  0  0  0
 15 14  1  0  0  0  0
 16 18  1  1  0  0  0
 16 20  1  0  0  0  0
 16 17  1  0  0  0  0
 20 19  1  6  0  0  0
 20 21  1  0  0  0  0
 21 24  1  1  0  0  0
 21 22  1  0  0  0  0
 22 23  1  0  0  0  0
 26 25  1  6  0  0  0
 26 27  1  0  0  0  0
 26 24  1  0  0  0  0
 27 29  1  0  0  0  0
 28 27  1  0  0  0  0
 30 31  1  0  0  0  0
 32 42  1  0  0  0  0
 32 31  1  1  0  0  0
 33 36  1  1  0  0  0
 34 35  1  0  0  0  0
 34 33  1  0  0  0  0
 35 32  1  6  0  0  0
 35 33  1  0  0  0  0
 37 41  1  0  0  0  0
 37 38  2  0  0  0  0
 39 40  1  0  0  0  0
 39 37  1  0  0  0  0
 40 36  1  6  0  0  0
 40 41  1  0  0  0  0
 42 50  1  6  0  0  0
 43 47  1  0  0  0  0
 43 48  1  0  0  0  0
 44 46  1  0  0  0  0
 45 46  1  0  0  0  0
 45 49  1  1  0  0  0
 47 44  1  0  0  0  0
 48 42  1  6  0  0  0
 48 45  1  0  0  0  0
 50 51  1  0  0  0  0
 52 53  1  0  0  0  0
 54 52  2  0  0  0  0
 55 52  1  0  0  0  0
 55 51  1  1  0  0  0
 55 53  1  0  0  0  0
M  END
>  <MODEL>
7

>  <REMARK>
 VINA RESULT:      -3.9      5.403      9.060
  Name = 
  24 active torsions:
  status: ('A' for Active; 'I' for Inactive)
    1  A    between atoms: C_1  and  C_29
    2  A    between atoms: C_2  and  N_28
    3  A    between atoms: C_2  and  C_31
    4  A    between atoms: C_3  and  C_29
    5  A    between atoms: C_3  and  C_38
    6  A    between atoms: C_6  and  C_14
    7  A    between atoms: C_6  and  C_20
    8  A    between atoms: C_8  and  O_22
    9  A    between atoms: C_8  and  C_35
   10  A    between atoms: C_11  and  C_38
   11  A    between atoms: C_13  and  O_48
   12  A    between atoms: C_14  and  C_38
   13  A    between atoms: C_19  and  C_40
   14  A    between atoms: C_19  and  O_45
   15  A    between atoms: C_20  and  O_22
   16  A    between atoms: C_26  and  C_49
   17  A    between atoms: C_27  and  C_54
   18  A    between atoms: N_28  and  C_33
   19  A    between atoms: C_33  and  C_49
   20  A    between atoms: C_33  and  C_52
   21  A    between atoms: C_35  and  C_51
   22  A    between atoms: C_39  and  O_48
   23  A    between atoms: O_45  and  C_49
   24  A    between atoms: C_51  and  C_54
                            x       y       z     vdW  Elec       q    Type
                         _______ _______ _______ _____ _____    ______ ____

>  <TORSDO>
F 24

$$$$
=
 OpenBabel10272401423D

 55 60  0  0  1  0  0  0  0  0999 V2000
  181.5370  179.2610  140.2480 C   0  0  0  0  0  2  0  0  0  0  0  0
  184.1040  178.0180  140.2200 C   0  0  2  0  0  3  0  0  0  0  0  0
  183.6540  178.7880  138.9730 C   0  0  2  0  0  3  0  0  0  0  0  0
  182.1960  178.5400  141.4180 C   0  0  0  0  0  2  0  0  0  0  0  0
  182.6210  179.8510  139.3550 C   0  0  0  0  0  2  0  0  0  0  0  0
  183.0160  177.4840  140.9530 O   0  0  0  0  0  0  0  0  0  0  0  0
  185.0820  178.7870  141.0970 C   0  0  0  0  0  2  0  0  0  0  0  0
  184.9050  178.3450  142.5350 C   0  0  0  0  0  2  0  0  0  0  0  0
  184.6630  179.5380  143.4390 C   0  0  0  0  0  2  0  0  0  0  0  0
  184.8000  179.1580  144.8740 C   0  0  0  0  0  0  0  0  0  0  0  0
  183.7830  178.8070  145.5280 O   0  0  0  0  0  0  0  0  0  0  0  0
  186.0630  179.1600  145.4690 O   0  0  0  0  0  0  0  0  0  0  0  0
  187.0340  177.5440  147.0530 C   0  0  0  0  0  2  0  0  0  0  0  0
  186.8300  177.9760  145.6530 C   0  0  1  0  0  0  0  0  0  0  0  0
  186.0670  176.9400  146.2160 O   0  0  0  0  0  0  0  0  0  0  0  0
  187.8050  177.5140  144.5600 C   0  0  1  0  0  0  0  0  0  0  0  0
  187.5310  176.1760  144.2580 O   0  0  0  0  0  1  0  0  0  0  0  0
  187.6370  178.2730  143.4110 F   0  0  0  0  0  0  0  0  0  0  0  0
  189.6090  178.9440  145.2930 F   0  0  0  0  0  0  0  0  0  0  0  0
  189.2570  177.6290  145.0420 C   0  0  2  0  0  3  0  0  0  0  0  0
  190.2360  176.9440  144.0770 C   0  0  2  0  0  3  0  0  0  0  0  0
  191.4380  176.3820  144.8290 C   0  0  0  0  0  2  0  0  0  0  0  0
  191.2830  176.5780  146.6340 S   0  0  0  0  0  1  0  0  0  0  0  0
  190.6860  177.8250  142.9060 C   0  0  0  0  0  2  0  0  0  0  0  0
  192.5340  177.6310  141.3940 O   0  0  0  0  0  1  0  0  0  0  0  0
  191.3290  177.0300  141.7670 C   0  0  2  0  0  3  0  0  0  0  0  0
  190.4100  176.8620  140.5520 C   0  0  0  0  0  3  0  0  0  0  0  0
  189.3160  177.9070  140.5800 C   0  0  0  0  0  1  0  0  0  0  0  0
  191.1840  177.0130  139.2560 C   0  0  0  0  0  1  0  0  0  0  0  0
  183.0810  177.7900  137.9830 C   0  0  0  0  0  2  0  0  0  0  0  0
  183.8400  176.5410  137.9700 N   0  0  0  0  0  2  0  0  0  0  0  0
  184.4520  176.3510  136.6490 C   0  0  2  0  0  3  0  0  0  0  0  0
  181.9850  176.2920  136.1360 C   0  0  2  0  0  3  0  0  0  0  0  0
  182.6030  177.1380  135.0290 C   0  0  0  0  0  2  0  0  0  0  0  0
  183.3770  175.9680  135.6050 C   0  0  1  0  0  3  0  0  0  0  0  0
  181.1010  175.3140  135.6410 O   0  0  0  0  0  0  0  0  0  0  0  0
  180.1250  174.6570  138.4370 C   0  0  0  0  0  0  0  0  0  0  0  0
  180.1580  174.2930  139.6440 O   0  0  0  0  0  0  0  0  0  0  0  0
  180.2240  175.9620  137.7250 C   0  0  0  0  0  2  0  0  0  0  0  0
  179.9880  175.2390  136.5070 C   0  0  2  0  0  3  0  0  0  0  0  0
  179.9830  173.9840  137.1620 O   0  0  0  0  0  0  0  0  0  0  0  0
  185.6950  175.4310  136.7310 C   0  0  1  0  0  3  0  0  0  0  0  0
  184.0300  173.5680  136.8810 C   0  0  0  0  0  2  0  0  0  0  0  0
  184.6460  171.2770  136.0880 C   0  0  0  0  0  2  0  0  0  0  0  0
  186.5140  172.9850  136.5460 C   0  0  2  0  0  3  0  0  0  0  0  0
  186.1510  171.5600  136.1030 C   0  0  0  0  0  2  0  0  0  0  0  0
  183.9390  172.0690  137.1740 C   0  0  0  0  0  2  0  0  0  0  0  0
  185.3780  173.9980  136.2730 C   0  0  2  0  0  3  0  0  0  0  0  0
  187.7320  173.3860  135.8680 N   0  0  0  0  0  1  0  0  0  0  0  0
  186.7630  175.9490  135.9860 O   0  0  0  0  0  0  0  0  0  0  0  0
  186.8970  177.2710  136.4190 C   0  0  0  0  0  2  0  0  0  0  0  0
  189.1430  176.9010  135.7310 C   0  0  0  0  0  0  0  0  0  0  0  0
  188.3520  177.4320  134.5760 O   0  0  0  0  0  0  0  0  0  0  0  0
  190.0760  176.1030  136.2280 C   0  0  0  0  0  2  0  0  0  0  0  0
  188.1700  177.8680  135.8580 C   0  0  1  0  0  3  0  0  0  0  0  0
  1  4  1  0  0  0  0
  2  6  1  0  0  0  0
  2  7  1  1  0  0  0
  3 30  1  6  0  0  0
  3  5  1  0  0  0  0
  3  2  1  0  0  0  0
  5  1  1  0  0  0  0
  6  4  1  0  0  0  0
  7  8  1  0  0  0  0
  8  9  1  0  0  0  0
  9 10  1  0  0  0  0
 10 12  1  0  0  0  0
 10 11  2  0  0  0  0
 14 12  1  6  0  0  0
 14 15  1  0  0  0  0
 14 13  1  0  0  0  0
 15 13  1  0  0  0  0
 16 18  1  6  0  0  0
 16 20  1  0  0  0  0
 16 14  1  0  0  0  0
 17 16  1  0  0  0  0
 20 19  1  6  0  0  0
 21 24  1  6  0  0  0
 21 22  1  0  0  0  0
 21 20  1  0  0  0  0
 22 23  1  0  0  0  0
 26 25  1  6  0  0  0
 26 24  1  0  0  0  0
 27 28  1  0  0  0  0
 27 26  1  0  0  0  0
 29 27  1  0  0  0  0
 31 30  1  0  0  0  0
 32 42  1  0  0  0  0
 32 31  1  1  0  0  0
 33 36  1  6  0  0  0
 34 35  1  0  0  0  0
 34 33  1  0  0  0  0
 35 33  1  0  0  0  0
 35 32  1  1  0  0  0
 37 38  2  0  0  0  0
 39 37  1  0  0  0  0
 40 36  1  6  0  0  0
 40 41  1  0  0  0  0
 40 39  1  0  0  0  0
 41 37  1  0  0  0  0
 42 50  1  6  0  0  0
 43 47  1  0  0  0  0
 44 46  1  0  0  0  0
 44 47  1  0  0  0  0
 45 49  1  6  0  0  0
 46 45  1  0  0  0  0
 48 45  1  0  0  0  0
 48 42  1  1  0  0  0
 48 43  1  0  0  0  0
 50 51  1  0  0  0  0
 52 55  1  0  0  0  0
 52 54  2  0  0  0  0
 53 52  1  0  0  0  0
 53 55  1  0  0  0  0
 55 51  1  1  0  0  0
M  END
>  <MODEL>
8

>  <REMARK>
 VINA RESULT:      -3.9      4.785      8.888
  Name = 
  24 active torsions:
  status: ('A' for Active; 'I' for Inactive)
    1  A    between atoms: C_1  and  C_29
    2  A    between atoms: C_2  and  N_28
    3  A    between atoms: C_2  and  C_31
    4  A    between atoms: C_3  and  C_29
    5  A    between atoms: C_3  and  C_38
    6  A    between atoms: C_6  and  C_14
    7  A    between atoms: C_6  and  C_20
    8  A    between atoms: C_8  and  O_22
    9  A    between atoms: C_8  and  C_35
   10  A    between atoms: C_11  and  C_38
   11  A    between atoms: C_13  and  O_48
   12  A    between atoms: C_14  and  C_38
   13  A    between atoms: C_19  and  C_40
   14  A    between atoms: C_19  and  O_45
   15  A    between atoms: C_20  and  O_22
   16  A    between atoms: C_26  and  C_49
   17  A    between atoms: C_27  and  C_54
   18  A    between atoms: N_28  and  C_33
   19  A    between atoms: C_33  and  C_49
   20  A    between atoms: C_33  and  C_52
   21  A    between atoms: C_35  and  C_51
   22  A    between atoms: C_39  and  O_48
   23  A    between atoms: O_45  and  C_49
   24  A    between atoms: C_51  and  C_54
                            x       y       z     vdW  Elec       q    Type
                         _______ _______ _______ _____ _____    ______ ____

>  <TORSDO>
F 24

$$$$
=
 OpenBabel10272401423D

 55 60  0  0  1  0  0  0  0  0999 V2000
  187.7300  177.4340  137.1370 C   0  0  0  0  0  2  0  0  0  0  0  0
  185.4070  177.6650  138.7760 C   0  0  2  0  0  3  0  0  0  0  0  0
  186.6480  178.4820  139.1530 C   0  0  2  0  0  3  0  0  0  0  0  0
  186.3770  176.7830  136.8720 C   0  0  0  0  0  2  0  0  0  0  0  0
  187.5140  178.7260  137.9140 C   0  0  0  0  0  2  0  0  0  0  0  0
  185.7300  176.4680  138.0900 O   0  0  0  0  0  0  0  0  0  0  0  0
  184.3300  178.4760  138.0700 C   0  0  0  0  0  2  0  0  0  0  0  0
  183.2210  177.5420  137.6300 C   0  0  0  0  0  2  0  0  0  0  0  0
  182.5840  176.8620  138.8260 C   0  0  0  0  0  2  0  0  0  0  0  0
  182.2850  175.4310  138.5310 C   0  0  0  0  0  0  0  0  0  0  0  0
  181.2410  174.9020  138.9960 O   0  0  0  0  0  0  0  0  0  0  0  0
  183.1490  174.7020  137.7120 O   0  0  0  0  0  0  0  0  0  0  0  0
  181.6780  174.6790  135.7380 C   0  0  0  0  0  2  0  0  0  0  0  0
  182.7060  174.0010  136.5560 C   0  0  1  0  0  0  0  0  0  0  0  0
  183.0440  174.6770  135.3720 O   0  0  0  0  0  0  0  0  0  0  0  0
  182.8650  172.4760  136.4730 C   0  0  1  0  0  0  0  0  0  0  0  0
  181.9850  171.8870  137.3870 O   0  0  0  0  0  1  0  0  0  0  0  0
  182.5490  172.0260  135.1990 F   0  0  0  0  0  0  0  0  0  0  0  0
  184.8020  172.7930  137.8810 F   0  0  0  0  0  0  0  0  0  0  0  0
  184.3000  172.0580  136.8220 C   0  0  2  0  0  3  0  0  0  0  0  0
  185.2230  172.1070  135.5960 C   0  0  2  0  0  3  0  0  0  0  0  0
  185.9700  170.7880  135.4250 C   0  0  0  0  0  2  0  0  0  0  0  0
  184.8590  169.4100  134.9920 S   0  0  0  0  0  1  0  0  0  0  0  0
  186.1950  173.2910  135.5860 C   0  0  0  0  0  2  0  0  0  0  0  0
  187.7990  173.5080  137.3520 O   0  0  0  0  0  1  0  0  0  0  0  0
  187.5920  172.9290  136.0970 C   0  0  2  0  0  3  0  0  0  0  0  0
  188.7120  173.3220  135.1290 C   0  0  0  0  0  3  0  0  0  0  0  0
  188.3980  174.6550  134.4850 C   0  0  0  0  0  1  0  0  0  0  0  0
  190.0420  173.4390  135.8490 C   0  0  0  0  0  1  0  0  0  0  0  0
  187.4130  177.7160  140.2190 C   0  0  0  0  0  2  0  0  0  0  0  0
  187.7390  178.5620  141.3640 N   0  0  0  0  0  2  0  0  0  0  0  0
  188.2510  177.7300  142.4610 C   0  0  2  0  0  3  0  0  0  0  0  0
  190.4730  176.7270  141.8170 C   0  0  2  0  0  3  0  0  0  0  0  0
  189.9040  175.7900  142.8770 C   0  0  0  0  0  2  0  0  0  0  0  0
  188.9710  176.4810  141.9000 C   0  0  1  0  0  3  0  0  0  0  0  0
  190.9570  176.0380  140.6890 O   0  0  0  0  0  0  0  0  0  0  0  0
  192.0710  176.5430  137.9130 C   0  0  0  0  0  0  0  0  0  0  0  0
  192.6890  176.3370  136.8340 O   0  0  0  0  0  0  0  0  0  0  0  0
  190.6670  176.3600  138.3780 C   0  0  0  0  0  2  0  0  0  0  0  0
  191.0720  176.9550  139.6200 C   0  0  2  0  0  3  0  0  0  0  0  0
  192.4270  177.0500  139.2230 O   0  0  0  0  0  0  0  0  0  0  0  0
  187.1620  177.4770  143.5320 C   0  0  1  0  0  3  0  0  0  0  0  0
  189.1360  178.0560  144.9590 C   0  0  0  0  0  2  0  0  0  0  0  0
  188.8460  178.3660  147.4230 C   0  0  0  0  0  2  0  0  0  0  0  0
  187.0120  177.1500  146.0930 C   0  0  2  0  0  3  0  0  0  0  0  0
  187.4910  177.6520  147.4620 C   0  0  0  0  0  2  0  0  0  0  0  0
  189.7330  177.7790  146.3400 C   0  0  0  0  0  2  0  0  0  0  0  0
  187.5980  177.9700  144.9210 C   0  0  2  0  0  3  0  0  0  0  0  0
  185.5620  177.1860  146.0680 N   0  0  0  0  0  1  0  0  0  0  0  0
  185.9450  178.0710  143.1710 O   0  0  0  0  0  0  0  0  0  0  0  0
  185.9470  179.3150  143.8070 C   0  0  0  0  0  2  0  0  0  0  0  0
  183.7040  179.1290  143.0400 C   0  0  0  0  0  0  0  0  0  0  0  0
  183.7250  179.0380  144.5340 O   0  0  0  0  0  0  0  0  0  0  0  0
  183.2250  178.7570  141.8620 C   0  0  0  0  0  2  0  0  0  0  0  0
  184.5430  179.8790  143.8330 C   0  0  1  0  0  3  0  0  0  0  0  0
  1  5  1  0  0  0  0
  2  7  1  6  0  0  0
  2  3  1  0  0  0  0
  3 30  1  1  0  0  0
  4  1  1  0  0  0  0
  4  6  1  0  0  0  0
  5  3  1  0  0  0  0
  6  2  1  0  0  0  0
  8  7  1  0  0  0  0
  8  9  1  0  0  0  0
 10  9  1  0  0  0  0
 10 11  2  0  0  0  0
 12 10  1  0  0  0  0
 13 14  1  0  0  0  0
 14 12  1  1  0  0  0
 15 13  1  0  0  0  0
 15 14  1  0  0  0  0
 16 18  1  6  0  0  0
 16 14  1  0  0  0  0
 16 20  1  0  0  0  0
 16 17  1  0  0  0  0
 20 19  1  1  0  0  0
 21 22  1  1  0  0  0
 21 20  1  0  0  0  0
 23 22  1  0  0  0  0
 24 21  1  0  0  0  0
 24 26  1  0  0  0  0
 26 25  1  1  0  0  0
 27 29  1  0  0  0  0
 27 26  1  0  0  0  0
 28 27  1  0  0  0  0
 30 31  1  0  0  0  0
 32 31  1  6  0  0  0
 32 42  1  0  0  0  0
 33 36  1  6  0  0  0
 33 35  1  0  0  0  0
 33 34  1  0  0  0  0
 35 32  1  1  0  0  0
 35 34  1  0  0  0  0
 37 39  1  0  0  0  0
 37 41  1  0  0  0  0
 38 37  2  0  0  0  0
 39 40  1  0  0  0  0
 40 36  1  1  0  0  0
 41 40  1  0  0  0  0
 42 50  1  6  0  0  0
 43 47  1  0  0  0  0
 44 46  1  0  0  0  0
 45 49  1  1  0  0  0
 45 46  1  0  0  0  0
 47 44  1  0  0  0  0
 48 42  1  6  0  0  0
 48 43  1  0  0  0  0
 48 45  1  0  0  0  0
 50 51  1  0  0  0  0
 52 55  1  0  0  0  0
 52 53  1  0  0  0  0
 54 52  2  0  0  0  0
 55 51  1  6  0  0  0
 55 53  1  0  0  0  0
M  END
>  <MODEL>
9

>  <REMARK>
 VINA RESULT:      -3.9      4.339      9.185
  Name = 
  24 active torsions:
  status: ('A' for Active; 'I' for Inactive)
    1  A    between atoms: C_1  and  C_29
    2  A    between atoms: C_2  and  N_28
    3  A    between atoms: C_2  and  C_31
    4  A    between atoms: C_3  and  C_29
    5  A    between atoms: C_3  and  C_38
    6  A    between atoms: C_6  and  C_14
    7  A    between atoms: C_6  and  C_20
    8  A    between atoms: C_8  and  O_22
    9  A    between atoms: C_8  and  C_35
   10  A    between atoms: C_11  and  C_38
   11  A    between atoms: C_13  and  O_48
   12  A    between atoms: C_14  and  C_38
   13  A    between atoms: C_19  and  C_40
   14  A    between atoms: C_19  and  O_45
   15  A    between atoms: C_20  and  O_22
   16  A    between atoms: C_26  and  C_49
   17  A    between atoms: C_27  and  C_54
   18  A    between atoms: N_28  and  C_33
   19  A    between atoms: C_33  and  C_49
   20  A    between atoms: C_33  and  C_52
   21  A    between atoms: C_35  and  C_51
   22  A    between atoms: C_39  and  O_48
   23  A    between atoms: O_45  and  C_49
   24  A    between atoms: C_51  and  C_54
                            x       y       z     vdW  Elec       q    Type
                         _______ _______ _______ _____ _____    ______ ____

>  <TORSDO>
F 24

$$$$
