=
 OpenBabel10262423593D

 34 38  0  0  1  0  0  0  0  0999 V2000
  189.1030  177.5250  137.3070 C   0  0  0  0  0  0  0  0  0  0  0  0
  186.7610  177.9010  136.8150 C   0  0  0  0  0  3  0  0  0  0  0  0
  187.5960  178.1550  139.1230 C   0  0  0  0  0  0  0  0  0  0  0  0
  186.1050  178.5980  141.1090 N   0  0  0  0  0  0  0  0  0  0  0  0
  188.2870  177.2760  135.0420 C   0  0  0  0  0  3  0  0  0  0  0  0
  185.8800  177.6510  134.4930 C   0  0  0  0  0  1  0  0  0  0  0  0
  185.3350  178.9160  138.9310 O   0  0  0  0  0  0  0  0  0  0  0  0
  187.8050  177.8680  137.7530 C   0  0  0  0  0  0  0  0  0  0  0  0
  189.3370  177.2340  135.9600 C   0  0  0  0  0  3  0  0  0  0  0  0
  188.6940  178.0590  140.0100 C   0  0  0  0  0  0  0  0  0  0  0  0
  190.1540  177.4790  138.2180 C   0  0  0  0  0  3  0  0  0  0  0  0
  186.9990  177.6080  135.4690 C   0  0  0  0  0  0  0  0  0  0  0  0
  187.1320  178.0290  141.9770 C   0  0  0  0  0  2  0  0  0  0  0  0
  188.5240  178.4100  141.4740 C   0  0  1  0  0  3  0  0  0  0  0  0
  186.2790  178.5610  139.6850 C   0  0  0  0  0  0  0  0  0  0  0  0
  189.9310  177.7500  139.5280 N   0  0  0  0  0  0  0  0  0  0  0  0
  191.4690  178.0090  143.8610 C   0  0  0  0  0  0  0  0  0  0  0  0
  191.5180  176.6180  143.9900 C   0  0  0  0  0  3  0  0  0  0  0  0
  189.5780  177.7990  142.3520 C   0  0  0  0  0  0  0  0  0  0  0  0
  190.6010  175.8180  143.3040 C   0  0  0  0  0  3  0  0  0  0  0  0
  190.5010  178.6000  143.0430 C   0  0  0  0  0  3  0  0  0  0  0  0
  189.6320  176.4070  142.4870 C   0  0  0  0  0  3  0  0  0  0  0  0
  192.3570  178.7840  144.5260 F   0  0  0  0  0  0  0  0  0  0  0  0
  184.9280  179.2240  141.7010 C   0  0  0  0  0  2  0  0  0  0  0  0
  184.4880  178.4720  142.9510 C   0  0  0  0  0  2  0  0  0  0  0  0
  184.7880  179.2640  144.2150 C   0  0  0  0  0  2  0  0  0  0  0  0
  184.6780  178.3720  145.4420 C   0  0  0  0  0  2  0  0  0  0  0  0
  186.0780  180.0700  147.5660 N   0  0  0  0  0  1  0  0  0  0  0  0
  185.9780  178.2050  146.0760 N   0  0  0  0  0  0  0  0  0  0  0  0
  186.1450  178.6200  147.4750 C   0  0  1  0  0  3  0  0  0  0  0  0
  188.4570  177.7340  147.2720 C   0  0  0  0  0  3  0  0  0  0  0  0
  188.2990  177.6540  145.8130 C   0  0  0  0  0  3  0  0  0  0  0  0
  187.1090  177.8750  145.2570 C   0  0  0  0  0  3  0  0  0  0  0  0
  187.4550  178.1480  148.0500 C   0  0  0  0  0  3  0  0  0  0  0  0
  1  8  2  0  0  0  0
  1 11  1  0  0  0  0
  2  8  1  0  0  0  0
  3 15  1  0  0  0  0
  3 10  2  0  0  0  0
  4 24  1  0  0  0  0
  4 13  1  0  0  0  0
  5 12  1  0  0  0  0
  5  9  2  0  0  0  0
  6 12  1  0  0  0  0
  7 15  2  0  0  0  0
  8  3  1  0  0  0  0
  9  1  1  0  0  0  0
 10 14  1  0  0  0  0
 11 16  2  0  0  0  0
 12  2  2  0  0  0  0
 14 13  1  0  0  0  0
 14 19  1  1  0  0  0
 15  4  1  0  0  0  0
 16 10  1  0  0  0  0
 17 18  1  0  0  0  0
 17 23  1  0  0  0  0
 19 22  2  0  0  0  0
 19 21  1  0  0  0  0
 20 18  2  0  0  0  0
 21 17  2  0  0  0  0
 22 20  1  0  0  0  0
 24 25  1  0  0  0  0
 25 26  1  0  0  0  0
 26 27  1  0  0  0  0
 27 29  1  0  0  0  0
 29 30  1  0  0  0  0
 30 28  1  6  0  0  0
 30 34  1  0  0  0  0
 31 34  2  0  0  0  0
 32 31  1  0  0  0  0
 33 32  2  0  0  0  0
 33 29  1  0  0  0  0
M  END
>  <MODEL>
1

>  <REMARK>
 VINA RESULT:      -9.5      0.000      0.000
  Name = 
  6 active torsions:
  status: ('A' for Active; 'I' for Inactive)
    1  A    between atoms: C_3  and  N_13
    2  A    between atoms: C_3  and  C_17
    3  A    between atoms: N_5  and  C_18
    4  A    between atoms: C_12  and  C_28
    5  A    between atoms: C_17  and  C_29
    6  A    between atoms: C_18  and  C_29
                            x       y       z     vdW  Elec       q    Type
                         _______ _______ _______ _____ _____    ______ ____

>  <TORSDO>
F 6

$$$$
=
 OpenBabel10262423593D

 34 38  0  0  1  0  0  0  0  0999 V2000
  185.7690  178.0110  143.3590 C   0  0  0  0  0  0  0  0  0  0  0  0
  186.0470  178.6700  141.0450 C   0  0  0  0  0  3  0  0  0  0  0  0
  187.9610  177.7640  142.3120 C   0  0  0  0  0  0  0  0  0  0  0  0
  190.3130  177.6550  141.4070 N   0  0  0  0  0  0  0  0  0  0  0  0
  183.8900  178.8980  142.1180 C   0  0  0  0  0  3  0  0  0  0  0  0
  184.1360  179.5930  139.7320 C   0  0  0  0  0  1  0  0  0  0  0  0
  188.4930  177.9980  139.9900 O   0  0  0  0  0  0  0  0  0  0  0  0
  186.6020  178.1460  142.2240 C   0  0  0  0  0  0  0  0  0  0  0  0
  184.4230  178.3830  143.3010 C   0  0  0  0  0  3  0  0  0  0  0  0
  188.4500  177.2830  143.5500 C   0  0  0  0  0  0  0  0  0  0  0  0
  186.2940  177.5000  144.5420 C   0  0  0  0  0  3  0  0  0  0  0  0
  184.7010  179.0430  140.9900 C   0  0  0  0  0  0  0  0  0  0  0  0
  190.8150  177.6340  142.7770 C   0  0  0  0  0  2  0  0  0  0  0  0
  189.8860  176.8140  143.6710 C   0  0  1  0  0  3  0  0  0  0  0  0
  188.9090  177.8330  141.1670 C   0  0  0  0  0  0  0  0  0  0  0  0
  187.6020  177.1460  144.6080 N   0  0  0  0  0  0  0  0  0  0  0  0
  190.1720  177.4700  147.4140 C   0  0  0  0  0  0  0  0  0  0  0  0
  191.3550  176.7880  147.7140 C   0  0  0  0  0  3  0  0  0  0  0  0
  190.3880  176.8180  145.0850 C   0  0  0  0  0  0  0  0  0  0  0  0
  192.0540  176.1220  146.7040 C   0  0  0  0  0  3  0  0  0  0  0  0
  189.6880  177.4860  146.1030 C   0  0  0  0  0  3  0  0  0  0  0  0
  191.5720  176.1370  145.3930 C   0  0  0  0  0  3  0  0  0  0  0  0
  189.4950  178.1150  148.3940 F   0  0  0  0  0  0  0  0  0  0  0  0
  191.2410  177.4660  140.2970 C   0  0  0  0  0  2  0  0  0  0  0  0
  190.7850  176.3190  139.4030 C   0  0  0  0  0  2  0  0  0  0  0  0
  191.1270  176.5780  137.9430 C   0  0  0  0  0  2  0  0  0  0  0  0
  190.1200  175.8950  137.0310 C   0  0  0  0  0  2  0  0  0  0  0  0
  187.3720  175.0910  135.9560 N   0  0  0  0  0  1  0  0  0  0  0  0
  188.8680  176.6350  136.9990 N   0  0  0  0  0  0  0  0  0  0  0  0
  187.6040  175.8990  137.1420 C   0  0  1  0  0  3  0  0  0  0  0  0
  186.5080  178.1290  137.0640 C   0  0  0  0  0  3  0  0  0  0  0  0
  187.7690  178.7320  136.6070 C   0  0  0  0  0  3  0  0  0  0  0  0
  188.8870  178.0090  136.5880 C   0  0  0  0  0  3  0  0  0  0  0  0
  186.4330  176.8260  137.3450 C   0  0  0  0  0  3  0  0  0  0  0  0
  1 11  1  0  0  0  0
  2  8  1  0  0  0  0
  3 10  2  0  0  0  0
  4 13  1  0  0  0  0
  5  9  2  0  0  0  0
  6 12  1  0  0  0  0
  7 15  2  0  0  0  0
  8  3  1  0  0  0  0
  8  1  2  0  0  0  0
  9  1  1  0  0  0  0
 10 14  1  0  0  0  0
 10 16  1  0  0  0  0
 11 16  2  0  0  0  0
 12  2  2  0  0  0  0
 12  5  1  0  0  0  0
 13 14  1  0  0  0  0
 14 19  1  1  0  0  0
 15  4  1  0  0  0  0
 15  3  1  0  0  0  0
 17 18  1  0  0  0  0
 17 23  1  0  0  0  0
 19 22  2  0  0  0  0
 19 21  1  0  0  0  0
 20 18  2  0  0  0  0
 21 17  2  0  0  0  0
 22 20  1  0  0  0  0
 24  4  1  0  0  0  0
 25 24  1  0  0  0  0
 26 25  1  0  0  0  0
 27 26  1  0  0  0  0
 29 27  1  0  0  0  0
 29 30  1  0  0  0  0
 30 28  1  6  0  0  0
 30 34  1  0  0  0  0
 31 34  2  0  0  0  0
 32 31  1  0  0  0  0
 33 32  2  0  0  0  0
 33 29  1  0  0  0  0
M  END
>  <MODEL>
2

>  <REMARK>
 VINA RESULT:      -9.0      2.113      6.946
  Name = 
  6 active torsions:
  status: ('A' for Active; 'I' for Inactive)
    1  A    between atoms: C_3  and  N_13
    2  A    between atoms: C_3  and  C_17
    3  A    between atoms: N_5  and  C_18
    4  A    between atoms: C_12  and  C_28
    5  A    between atoms: C_17  and  C_29
    6  A    between atoms: C_18  and  C_29
                            x       y       z     vdW  Elec       q    Type
                         _______ _______ _______ _____ _____    ______ ____

>  <TORSDO>
F 6

$$$$
=
 OpenBabel10262423593D

 34 38  0  0  1  0  0  0  0  0999 V2000
  186.0110  178.1490  144.7580 C   0  0  0  0  0  0  0  0  0  0  0  0
  188.3710  177.6110  144.6600 C   0  0  0  0  0  3  0  0  0  0  0  0
  187.1530  178.2180  142.6010 C   0  0  0  0  0  0  0  0  0  0  0  0
  188.1710  178.1240  140.2950 N   0  0  0  0  0  0  0  0  0  0  0  0
  187.2020  177.5550  146.7790 C   0  0  0  0  0  3  0  0  0  0  0  0
  189.6340  176.9900  146.7210 C   0  0  0  0  0  1  0  0  0  0  0  0
  189.5100  178.0750  142.2040 O   0  0  0  0  0  0  0  0  0  0  0  0
  187.1930  177.9950  143.9980 C   0  0  0  0  0  0  0  0  0  0  0  0
  186.0210  177.9320  146.1390 C   0  0  0  0  0  3  0  0  0  0  0  0
  185.9170  178.5620  142.0060 C   0  0  0  0  0  0  0  0  0  0  0  0
  184.8290  178.5230  144.1250 C   0  0  0  0  0  3  0  0  0  0  0  0
  188.3770  177.3930  146.0410 C   0  0  0  0  0  0  0  0  0  0  0  0
  186.8300  178.0030  139.7330 C   0  0  0  0  0  2  0  0  0  0  0  0
  185.8430  178.8620  140.5220 C   0  0  1  0  0  3  0  0  0  0  0  0
  188.3480  178.1180  141.7190 C   0  0  0  0  0  0  0  0  0  0  0  0
  184.8100  178.7250  142.7840 N   0  0  0  0  0  0  0  0  0  0  0  0
  182.4090  177.4430  139.6730 C   0  0  0  0  0  0  0  0  0  0  0  0
  181.8750  178.4810  138.9040 C   0  0  0  0  0  3  0  0  0  0  0  0
  184.4590  178.7120  139.9600 C   0  0  0  0  0  0  0  0  0  0  0  0
  182.6290  179.6330  138.6640 C   0  0  0  0  0  3  0  0  0  0  0  0
  183.6990  177.5560  140.2000 C   0  0  0  0  0  3  0  0  0  0  0  0
  183.9180  179.7480  139.1910 C   0  0  0  0  0  3  0  0  0  0  0  0
  181.6780  176.3270  139.9060 F   0  0  0  0  0  0  0  0  0  0  0  0
  189.3140  178.2800  139.4020 C   0  0  0  0  0  2  0  0  0  0  0  0
  188.8610  178.7290  138.0180 C   0  0  0  0  0  2  0  0  0  0  0  0
  189.3480  177.7790  136.9350 C   0  0  0  0  0  2  0  0  0  0  0  0
  188.3290  177.6870  135.8090 C   0  0  0  0  0  2  0  0  0  0  0  0
  187.4800  174.8100  135.2100 N   0  0  0  0  0  1  0  0  0  0  0  0
  187.1540  176.9430  136.2370 N   0  0  0  0  0  0  0  0  0  0  0  0
  187.2740  175.4980  136.4740 C   0  0  1  0  0  3  0  0  0  0  0  0
  184.8950  175.6000  137.1840 C   0  0  0  0  0  3  0  0  0  0  0  0
  184.7840  176.9530  136.6180 C   0  0  0  0  0  3  0  0  0  0  0  0
  185.8710  177.5830  136.1770 C   0  0  0  0  0  3  0  0  0  0  0  0
  186.0510  174.9350  137.1510 C   0  0  0  0  0  3  0  0  0  0  0  0
  1  9  2  0  0  0  0
  2 12  1  0  0  0  0
  3  8  1  0  0  0  0
  4 15  1  0  0  0  0
  8  2  2  0  0  0  0
  8  1  1  0  0  0  0
  9  5  1  0  0  0  0
 10  3  2  0  0  0  0
 10 16  1  0  0  0  0
 11  1  1  0  0  0  0
 12  6  1  0  0  0  0
 12  5  2  0  0  0  0
 13  4  1  0  0  0  0
 13 14  1  0  0  0  0
 14 19  1  6  0  0  0
 14 10  1  0  0  0  0
 15  7  2  0  0  0  0
 15  3  1  0  0  0  0
 16 11  2  0  0  0  0
 17 23  1  0  0  0  0
 17 21  1  0  0  0  0
 18 17  2  0  0  0  0
 19 21  2  0  0  0  0
 20 18  1  0  0  0  0
 20 22  2  0  0  0  0
 22 19  1  0  0  0  0
 24  4  1  0  0  0  0
 25 24  1  0  0  0  0
 26 25  1  0  0  0  0
 27 29  1  0  0  0  0
 27 26  1  0  0  0  0
 29 30  1  0  0  0  0
 30 28  1  6  0  0  0
 30 34  1  0  0  0  0
 32 31  1  0  0  0  0
 33 29  1  0  0  0  0
 33 32  2  0  0  0  0
 34 31  2  0  0  0  0
M  END
>  <MODEL>
3

>  <REMARK>
 VINA RESULT:      -8.9      3.176      8.722
  Name = 
  6 active torsions:
  status: ('A' for Active; 'I' for Inactive)
    1  A    between atoms: C_3  and  N_13
    2  A    between atoms: C_3  and  C_17
    3  A    between atoms: N_5  and  C_18
    4  A    between atoms: C_12  and  C_28
    5  A    between atoms: C_17  and  C_29
    6  A    between atoms: C_18  and  C_29
                            x       y       z     vdW  Elec       q    Type
                         _______ _______ _______ _____ _____    ______ ____

>  <TORSDO>
F 6

$$$$
=
 OpenBabel10262423593D

 34 38  0  0  1  0  0  0  0  0999 V2000
  184.4120  178.6140  144.2340 C   0  0  0  0  0  0  0  0  0  0  0  0
  186.7730  178.1360  144.4980 C   0  0  0  0  0  3  0  0  0  0  0  0
  185.8460  178.5980  142.2570 C   0  0  0  0  0  0  0  0  0  0  0  0
  187.1810  178.4070  140.1260 N   0  0  0  0  0  0  0  0  0  0  0  0
  185.3180  178.1620  146.4330 C   0  0  0  0  0  3  0  0  0  0  0  0
  187.7440  177.6620  146.7480 C   0  0  0  0  0  1  0  0  0  0  0  0
  188.2380  178.4980  142.2030 O   0  0  0  0  0  0  0  0  0  0  0  0
  185.6930  178.4510  143.6570 C   0  0  0  0  0  0  0  0  0  0  0  0
  184.2320  178.4720  145.6130 C   0  0  0  0  0  3  0  0  0  0  0  0
  184.7000  178.8750  141.4770 C   0  0  0  0  0  0  0  0  0  0  0  0
  183.3250  178.9200  143.4220 C   0  0  0  0  0  3  0  0  0  0  0  0
  186.5880  177.9930  145.8760 C   0  0  0  0  0  0  0  0  0  0  0  0
  185.9360  178.2190  139.3900 C   0  0  0  0  0  2  0  0  0  0  0  0
  184.8300  179.0920  139.9820 C   0  0  1  0  0  3  0  0  0  0  0  0
  187.1560  178.4830  141.5590 C   0  0  0  0  0  0  0  0  0  0  0  0
  183.4910  179.0490  142.0820 N   0  0  0  0  0  0  0  0  0  0  0  0
  181.8780  177.4010  138.2650 C   0  0  0  0  0  0  0  0  0  0  0  0
  181.1270  178.5130  137.8710 C   0  0  0  0  0  3  0  0  0  0  0  0
  183.5430  178.8740  139.2420 C   0  0  0  0  0  0  0  0  0  0  0  0
  181.5810  179.8020  138.1620 C   0  0  0  0  0  3  0  0  0  0  0  0
  183.0840  177.5800  138.9490 C   0  0  0  0  0  3  0  0  0  0  0  0
  182.7860  179.9820  138.8460 C   0  0  0  0  0  3  0  0  0  0  0  0
  181.4370  176.1520  137.9830 F   0  0  0  0  0  0  0  0  0  0  0  0
  188.4360  178.5460  139.3950 C   0  0  0  0  0  2  0  0  0  0  0  0
  189.3050  177.3070  139.5730 C   0  0  0  0  0  2  0  0  0  0  0  0
  190.6860  177.6640  140.1020 C   0  0  0  0  0  2  0  0  0  0  0  0
  191.2320  176.5380  140.9670 C   0  0  0  0  0  2  0  0  0  0  0  0
  189.3020  175.7890  143.2180 N   0  0  0  0  0  1  0  0  0  0  0  0
  191.2290  176.9190  142.3710 N   0  0  0  0  0  0  0  0  0  0  0  0
  190.7380  175.9580  143.3680 C   0  0  1  0  0  3  0  0  0  0  0  0
  191.3750  177.6630  145.0600 C   0  0  0  0  0  3  0  0  0  0  0  0
  191.5340  178.6620  143.9930 C   0  0  0  0  0  3  0  0  0  0  0  0
  191.4690  178.2910  142.7160 C   0  0  0  0  0  3  0  0  0  0  0  0
  191.0400  176.4030  144.7750 C   0  0  0  0  0  3  0  0  0  0  0  0
  1  9  2  0  0  0  0
  2 12  1  0  0  0  0
  3  8  1  0  0  0  0
  4 15  1  0  0  0  0
  8  1  1  0  0  0  0
  8  2  2  0  0  0  0
  9  5  1  0  0  0  0
 10 16  1  0  0  0  0
 10  3  2  0  0  0  0
 11  1  1  0  0  0  0
 12  5  2  0  0  0  0
 12  6  1  0  0  0  0
 13 14  1  0  0  0  0
 13  4  1  0  0  0  0
 14 19  1  6  0  0  0
 14 10  1  0  0  0  0
 15  7  2  0  0  0  0
 15  3  1  0  0  0  0
 16 11  2  0  0  0  0
 17 21  1  0  0  0  0
 18 20  1  0  0  0  0
 18 17  2  0  0  0  0
 20 22  2  0  0  0  0
 21 19  2  0  0  0  0
 22 19  1  0  0  0  0
 23 17  1  0  0  0  0
 24 25  1  0  0  0  0
 24  4  1  0  0  0  0
 25 26  1  0  0  0  0
 26 27  1  0  0  0  0
 27 29  1  0  0  0  0
 29 33  1  0  0  0  0
 29 30  1  0  0  0  0
 30 28  1  1  0  0  0
 30 34  1  0  0  0  0
 32 31  1  0  0  0  0
 33 32  2  0  0  0  0
 34 31  2  0  0  0  0
M  END
>  <MODEL>
4

>  <REMARK>
 VINA RESULT:      -8.8      3.322      7.763
  Name = 
  6 active torsions:
  status: ('A' for Active; 'I' for Inactive)
    1  A    between atoms: C_3  and  N_13
    2  A    between atoms: C_3  and  C_17
    3  A    between atoms: N_5  and  C_18
    4  A    between atoms: C_12  and  C_28
    5  A    between atoms: C_17  and  C_29
    6  A    between atoms: C_18  and  C_29
                            x       y       z     vdW  Elec       q    Type
                         _______ _______ _______ _____ _____    ______ ____

>  <TORSDO>
F 6

$$$$
=
 OpenBabel10262423593D

 34 38  0  0  1  0  0  0  0  0999 V2000
  191.4060  176.9700  139.8740 C   0  0  0  0  0  0  0  0  0  0  0  0
  189.5180  177.3340  138.4000 C   0  0  0  0  0  3  0  0  0  0  0  0
  189.3040  177.7800  140.8180 C   0  0  0  0  0  0  0  0  0  0  0  0
  187.1350  178.4180  141.9360 N   0  0  0  0  0  0  0  0  0  0  0  0
  191.6190  176.5330  137.5030 C   0  0  0  0  0  3  0  0  0  0  0  0
  189.6960  176.8920  135.9500 C   0  0  0  0  0  1  0  0  0  0  0  0
  187.3810  178.5530  139.6210 O   0  0  0  0  0  0  0  0  0  0  0  0
  190.0610  177.3700  139.6950 C   0  0  0  0  0  0  0  0  0  0  0  0
  192.1760  176.5580  138.7820 C   0  0  0  0  0  3  0  0  0  0  0  0
  189.9150  177.7470  142.0930 C   0  0  0  0  0  0  0  0  0  0  0  0
  191.9670  176.9900  141.1470 C   0  0  0  0  0  3  0  0  0  0  0  0
  190.2900  176.9190  137.3110 C   0  0  0  0  0  0  0  0  0  0  0  0
  187.6650  177.9140  143.2000 C   0  0  0  0  0  2  0  0  0  0  0  0
  189.1560  178.2290  143.3140 C   0  0  1  0  0  3  0  0  0  0  0  0
  187.8960  178.2520  140.7300 C   0  0  0  0  0  0  0  0  0  0  0  0
  191.2220  177.3790  142.2120 N   0  0  0  0  0  0  0  0  0  0  0  0
  189.3990  176.9130  146.8830 C   0  0  0  0  0  0  0  0  0  0  0  0
  190.7700  176.6520  146.9770 C   0  0  0  0  0  3  0  0  0  0  0  0
  189.7050  177.6840  144.6010 C   0  0  0  0  0  0  0  0  0  0  0  0
  191.6070  176.9050  145.8870 C   0  0  0  0  0  3  0  0  0  0  0  0
  188.8660  177.4290  145.6980 C   0  0  0  0  0  3  0  0  0  0  0  0
  191.0760  177.4190  144.7010 C   0  0  0  0  0  3  0  0  0  0  0  0
  188.5880  176.6680  147.9390 F   0  0  0  0  0  0  0  0  0  0  0  0
  185.8520  179.1100  141.9190 C   0  0  0  0  0  2  0  0  0  0  0  0
  184.9160  178.5380  142.9770 C   0  0  0  0  0  2  0  0  0  0  0  0
  183.4920  178.4140  142.4560 C   0  0  0  0  0  2  0  0  0  0  0  0
  183.4920  177.9400  141.0110 C   0  0  0  0  0  2  0  0  0  0  0  0
  184.0890  180.2880  139.1440 N   0  0  0  0  0  1  0  0  0  0  0  0
  182.5950  178.7530  140.2020 N   0  0  0  0  0  0  0  0  0  0  0  0
  183.0740  179.2730  138.9150 C   0  0  1  0  0  3  0  0  0  0  0  0
  180.7820  180.1920  138.6400 C   0  0  0  0  0  3  0  0  0  0  0  0
  180.5020  179.9180  140.0560 C   0  0  0  0  0  3  0  0  0  0  0  0
  181.3730  179.2250  140.7870 C   0  0  0  0  0  3  0  0  0  0  0  0
  181.9570  179.8660  138.0960 C   0  0  0  0  0  3  0  0  0  0  0  0
  1 11  1  0  0  0  0
  2  8  1  0  0  0  0
  3 10  2  0  0  0  0
  4 13  1  0  0  0  0
  5  9  2  0  0  0  0
  6 12  1  0  0  0  0
  7 15  2  0  0  0  0
  8  1  2  0  0  0  0
  8  3  1  0  0  0  0
  9  1  1  0  0  0  0
 10 16  1  0  0  0  0
 10 14  1  0  0  0  0
 11 16  2  0  0  0  0
 12  5  1  0  0  0  0
 12  2  2  0  0  0  0
 13 14  1  0  0  0  0
 14 19  1  1  0  0  0
 15  3  1  0  0  0  0
 15  4  1  0  0  0  0
 17 18  1  0  0  0  0
 17 23  1  0  0  0  0
 19 22  2  0  0  0  0
 19 21  1  0  0  0  0
 20 18  2  0  0  0  0
 21 17  2  0  0  0  0
 22 20  1  0  0  0  0
 24  4  1  0  0  0  0
 24 25  1  0  0  0  0
 26 25  1  0  0  0  0
 27 26  1  0  0  0  0
 29 33  1  0  0  0  0
 29 27  1  0  0  0  0
 30 28  1  1  0  0  0
 30 29  1  0  0  0  0
 31 32  1  0  0  0  0
 32 33  2  0  0  0  0
 34 31  2  0  0  0  0
 34 30  1  0  0  0  0
M  END
>  <MODEL>
5

>  <REMARK>
 VINA RESULT:      -8.6      2.549      5.122
  Name = 
  6 active torsions:
  status: ('A' for Active; 'I' for Inactive)
    1  A    between atoms: C_3  and  N_13
    2  A    between atoms: C_3  and  C_17
    3  A    between atoms: N_5  and  C_18
    4  A    between atoms: C_12  and  C_28
    5  A    between atoms: C_17  and  C_29
    6  A    between atoms: C_18  and  C_29
                            x       y       z     vdW  Elec       q    Type
                         _______ _______ _______ _____ _____    ______ ____

>  <TORSDO>
F 6

$$$$
=
 OpenBabel10262423593D

 34 38  0  0  1  0  0  0  0  0999 V2000
  187.3800  177.7290  146.4380 C   0  0  0  0  0  0  0  0  0  0  0  0
  189.5390  177.2110  145.4710 C   0  0  0  0  0  3  0  0  0  0  0  0
  187.7070  178.0380  144.0380 C   0  0  0  0  0  0  0  0  0  0  0  0
  187.8620  178.2010  141.5260 N   0  0  0  0  0  0  0  0  0  0  0  0
  189.1740  176.9190  147.8460 C   0  0  0  0  0  3  0  0  0  0  0  0
  191.4130  176.3700  146.8880 C   0  0  0  0  0  1  0  0  0  0  0  0
  189.7750  177.9460  142.8350 O   0  0  0  0  0  0  0  0  0  0  0  0
  188.2200  177.6620  145.3030 C   0  0  0  0  0  0  0  0  0  0  0  0
  187.8580  177.3610  147.6990 C   0  0  0  0  0  3  0  0  0  0  0  0
  186.3550  178.4430  143.9490 C   0  0  0  0  0  0  0  0  0  0  0  0
  186.0660  178.1670  146.2980 C   0  0  0  0  0  3  0  0  0  0  0  0
  190.0140  176.8420  146.7320 C   0  0  0  0  0  0  0  0  0  0  0  0
  186.4060  178.1390  141.4550 C   0  0  0  0  0  2  0  0  0  0  0  0
  185.7830  178.9040  142.6230 C   0  0  1  0  0  3  0  0  0  0  0  0
  188.5200  178.0390  142.7910 C   0  0  0  0  0  0  0  0  0  0  0  0
  185.5920  178.5160  145.0760 N   0  0  0  0  0  0  0  0  0  0  0  0
  182.2350  178.2930  141.3750 C   0  0  0  0  0  0  0  0  0  0  0  0
  181.4910  178.6450  142.5050 C   0  0  0  0  0  3  0  0  0  0  0  0
  184.2860  178.8130  142.5650 C   0  0  0  0  0  0  0  0  0  0  0  0
  182.1410  179.0800  143.6630 C   0  0  0  0  0  3  0  0  0  0  0  0
  183.6300  178.3770  141.4030 C   0  0  0  0  0  3  0  0  0  0  0  0
  183.5360  179.1640  143.6930 C   0  0  0  0  0  3  0  0  0  0  0  0
  181.6040  177.8720  140.2530 F   0  0  0  0  0  0  0  0  0  0  0  0
  188.6310  178.4580  140.3130 C   0  0  0  0  0  2  0  0  0  0  0  0
  188.9710  177.1530  139.6030 C   0  0  0  0  0  2  0  0  0  0  0  0
  189.1830  177.3660  138.1120 C   0  0  0  0  0  2  0  0  0  0  0  0
  188.0640  178.2150  137.5300 C   0  0  0  0  0  2  0  0  0  0  0  0
  187.0170  176.4910  135.2310 N   0  0  0  0  0  1  0  0  0  0  0  0
  186.8360  177.4430  137.4150 N   0  0  0  0  0  0  0  0  0  0  0  0
  186.8520  176.1920  136.6440 C   0  0  1  0  0  3  0  0  0  0  0  0
  184.4810  175.9420  137.3460 C   0  0  0  0  0  3  0  0  0  0  0  0
  184.4700  177.3380  137.8080 C   0  0  0  0  0  3  0  0  0  0  0  0
  185.6020  178.0390  137.8410 C   0  0  0  0  0  3  0  0  0  0  0  0
  185.5880  175.3960  136.8380 C   0  0  0  0  0  3  0  0  0  0  0  0
  1  9  2  0  0  0  0
  2 12  1  0  0  0  0
  3  8  1  0  0  0  0
  4 15  1  0  0  0  0
  8  2  2  0  0  0  0
  8  1  1  0  0  0  0
  9  5  1  0  0  0  0
 10  3  2  0  0  0  0
 10 16  1  0  0  0  0
 11  1  1  0  0  0  0
 12  6  1  0  0  0  0
 12  5  2  0  0  0  0
 13  4  1  0  0  0  0
 13 14  1  0  0  0  0
 14 19  1  1  0  0  0
 14 10  1  0  0  0  0
 15  7  2  0  0  0  0
 15  3  1  0  0  0  0
 16 11  2  0  0  0  0
 17 21  2  0  0  0  0
 17 18  1  0  0  0  0
 18 20  2  0  0  0  0
 19 22  2  0  0  0  0
 20 22  1  0  0  0  0
 21 19  1  0  0  0  0
 23 17  1  0  0  0  0
 24  4  1  0  0  0  0
 25 24  1  0  0  0  0
 26 25  1  0  0  0  0
 27 26  1  0  0  0  0
 29 27  1  0  0  0  0
 29 33  1  0  0  0  0
 30 28  1  6  0  0  0
 30 34  1  0  0  0  0
 30 29  1  0  0  0  0
 31 32  1  0  0  0  0
 32 33  2  0  0  0  0
 34 31  2  0  0  0  0
M  END
>  <MODEL>
6

>  <REMARK>
 VINA RESULT:      -8.6      2.992      8.705
  Name = 
  6 active torsions:
  status: ('A' for Active; 'I' for Inactive)
    1  A    between atoms: C_3  and  N_13
    2  A    between atoms: C_3  and  C_17
    3  A    between atoms: N_5  and  C_18
    4  A    between atoms: C_12  and  C_28
    5  A    between atoms: C_17  and  C_29
    6  A    between atoms: C_18  and  C_29
                            x       y       z     vdW  Elec       q    Type
                         _______ _______ _______ _____ _____    ______ ____

>  <TORSDO>
F 6

$$$$
=
 OpenBabel10262423593D

 34 38  0  0  1  0  0  0  0  0999 V2000
  187.3850  177.7350  146.4520 C   0  0  0  0  0  0  0  0  0  0  0  0
  189.5350  177.2030  145.4710 C   0  0  0  0  0  3  0  0  0  0  0  0
  187.7010  178.0470  144.0510 C   0  0  0  0  0  0  0  0  0  0  0  0
  187.8410  178.2130  141.5380 N   0  0  0  0  0  0  0  0  0  0  0  0
  189.1820  176.9090  147.8480 C   0  0  0  0  0  3  0  0  0  0  0  0
  191.4120  176.3460  146.8750 C   0  0  0  0  0  1  0  0  0  0  0  0
  189.7600  177.9410  142.8350 O   0  0  0  0  0  0  0  0  0  0  0  0
  188.2180  177.6650  145.3110 C   0  0  0  0  0  0  0  0  0  0  0  0
  187.8690  177.3620  147.7090 C   0  0  0  0  0  3  0  0  0  0  0  0
  186.3510  178.4610  143.9710 C   0  0  0  0  0  0  0  0  0  0  0  0
  186.0740  178.1830  146.3210 C   0  0  0  0  0  3  0  0  0  0  0  0
  190.0150  176.8290  146.7290 C   0  0  0  0  0  0  0  0  0  0  0  0
  186.3840  178.1620  141.4760 C   0  0  0  0  0  2  0  0  0  0  0  0
  185.7740  178.9290  142.6490 C   0  0  1  0  0  3  0  0  0  0  0  0
  188.5060  178.0430  142.7990 C   0  0  0  0  0  0  0  0  0  0  0  0
  185.5950  178.5370  145.1020 N   0  0  0  0  0  0  0  0  0  0  0  0
  182.2140  178.3470  141.4210 C   0  0  0  0  0  0  0  0  0  0  0  0
  181.4790  178.7020  142.5570 C   0  0  0  0  0  3  0  0  0  0  0  0
  184.2760  178.8490  142.6000 C   0  0  0  0  0  0  0  0  0  0  0  0
  182.1400  179.1280  143.7120 C   0  0  0  0  0  3  0  0  0  0  0  0
  183.6100  178.4210  141.4410 C   0  0  0  0  0  3  0  0  0  0  0  0
  183.5360  179.2020  143.7340 C   0  0  0  0  0  3  0  0  0  0  0  0
  181.5730  177.9340  140.3020 F   0  0  0  0  0  0  0  0  0  0  0  0
  188.6040  178.4670  140.3210 C   0  0  0  0  0  2  0  0  0  0  0  0
  187.8590  177.9460  139.0980 C   0  0  0  0  0  2  0  0  0  0  0  0
  188.6760  176.9060  138.3450 C   0  0  0  0  0  2  0  0  0  0  0  0
  190.0160  176.6840  139.0290 C   0  0  0  0  0  2  0  0  0  0  0  0
  190.3280  174.0920  137.4350 N   0  0  0  0  0  1  0  0  0  0  0  0
  191.0290  176.2890  138.0610 N   0  0  0  0  0  0  0  0  0  0  0  0
  190.6410  175.4230  136.9400 C   0  0  1  0  0  3  0  0  0  0  0  0
  192.9900  175.6770  136.1690 C   0  0  0  0  0  3  0  0  0  0  0  0
  193.3550  176.2550  137.4710 C   0  0  0  0  0  3  0  0  0  0  0  0
  192.4080  176.5470  138.3610 C   0  0  0  0  0  3  0  0  0  0  0  0
  191.7310  175.3220  135.9040 C   0  0  0  0  0  3  0  0  0  0  0  0
  1  9  2  0  0  0  0
  2 12  1  0  0  0  0
  3  8  1  0  0  0  0
  4 15  1  0  0  0  0
  8  2  2  0  0  0  0
  8  1  1  0  0  0  0
  9  5  1  0  0  0  0
 10  3  2  0  0  0  0
 10 16  1  0  0  0  0
 11  1  1  0  0  0  0
 12  6  1  0  0  0  0
 12  5  2  0  0  0  0
 13  4  1  0  0  0  0
 13 14  1  0  0  0  0
 14 19  1  1  0  0  0
 14 10  1  0  0  0  0
 15  7  2  0  0  0  0
 15  3  1  0  0  0  0
 16 11  2  0  0  0  0
 17 21  2  0  0  0  0
 17 18  1  0  0  0  0
 18 20  2  0  0  0  0
 19 22  2  0  0  0  0
 20 22  1  0  0  0  0
 21 19  1  0  0  0  0
 23 17  1  0  0  0  0
 24  4  1  0  0  0  0
 25 24  1  0  0  0  0
 26 27  1  0  0  0  0
 26 25  1  0  0  0  0
 29 33  1  0  0  0  0
 29 27  1  0  0  0  0
 30 28  1  1  0  0  0
 30 29  1  0  0  0  0
 31 32  1  0  0  0  0
 32 33  2  0  0  0  0
 34 31  2  0  0  0  0
 34 30  1  0  0  0  0
M  END
>  <MODEL>
7

>  <REMARK>
 VINA RESULT:      -8.6      3.001      8.907
  Name = 
  6 active torsions:
  status: ('A' for Active; 'I' for Inactive)
    1  A    between atoms: C_3  and  N_13
    2  A    between atoms: C_3  and  C_17
    3  A    between atoms: N_5  and  C_18
    4  A    between atoms: C_12  and  C_28
    5  A    between atoms: C_17  and  C_29
    6  A    between atoms: C_18  and  C_29
                            x       y       z     vdW  Elec       q    Type
                         _______ _______ _______ _____ _____    ______ ____

>  <TORSDO>
F 6

$$$$
=
 OpenBabel10262423593D

 34 38  0  0  1  0  0  0  0  0999 V2000
  184.7750  178.7550  142.0420 C   0  0  0  0  0  0  0  0  0  0  0  0
  186.1380  178.5630  144.0350 C   0  0  0  0  0  3  0  0  0  0  0  0
  187.1810  178.4110  141.8040 C   0  0  0  0  0  0  0  0  0  0  0  0
  189.6130  177.8530  141.4320 N   0  0  0  0  0  0  0  0  0  0  0  0
  183.7490  178.9060  144.2290 C   0  0  0  0  0  3  0  0  0  0  0  0
  185.1170  178.7100  146.3080 C   0  0  0  0  0  1  0  0  0  0  0  0
  188.8370  178.5140  143.5300 O   0  0  0  0  0  0  0  0  0  0  0  0
  186.0470  178.5780  142.6340 C   0  0  0  0  0  0  0  0  0  0  0  0
  183.6380  178.9200  142.8380 C   0  0  0  0  0  3  0  0  0  0  0  0
  186.9970  178.3980  140.4020 C   0  0  0  0  0  0  0  0  0  0  0  0
  184.6570  178.7680  140.6550 C   0  0  0  0  0  3  0  0  0  0  0  0
  184.9980  178.7260  144.8280 C   0  0  0  0  0  0  0  0  0  0  0  0
  189.2770  177.3900  140.0890 C   0  0  0  0  0  2  0  0  0  0  0  0
  188.1920  178.2750  139.4770 C   0  0  1  0  0  3  0  0  0  0  0  0
  188.5650  178.2550  142.3280 C   0  0  0  0  0  0  0  0  0  0  0  0
  185.7550  178.5980  139.8770 N   0  0  0  0  0  0  0  0  0  0  0  0
  187.4720  175.9660  136.5310 C   0  0  0  0  0  0  0  0  0  0  0  0
  187.1270  176.8950  135.5440 C   0  0  0  0  0  3  0  0  0  0  0  0
  187.8280  177.7780  138.1080 C   0  0  0  0  0  0  0  0  0  0  0  0
  187.1310  178.2610  135.8370 C   0  0  0  0  0  3  0  0  0  0  0  0
  187.8230  176.4050  137.8110 C   0  0  0  0  0  3  0  0  0  0  0  0
  187.4800  178.7020  137.1160 C   0  0  0  0  0  3  0  0  0  0  0  0
  187.4680  174.6430  136.2470 F   0  0  0  0  0  0  0  0  0  0  0  0
  191.0110  177.9310  141.8380 C   0  0  0  0  0  2  0  0  0  0  0  0
  191.5080  176.5750  142.3280 C   0  0  0  0  0  2  0  0  0  0  0  0
  190.8050  176.1510  143.6090 C   0  0  0  0  0  2  0  0  0  0  0  0
  191.6070  176.5850  144.8260 C   0  0  0  0  0  2  0  0  0  0  0  0
  191.6420  175.5870  147.7160 N   0  0  0  0  0  1  0  0  0  0  0  0
  190.7250  176.8960  145.9410 N   0  0  0  0  0  0  0  0  0  0  0  0
  191.2820  176.9320  147.3000 C   0  0  1  0  0  3  0  0  0  0  0  0
  189.0080  177.6290  148.0180 C   0  0  0  0  0  3  0  0  0  0  0  0
  188.4760  177.2550  146.7000 C   0  0  0  0  0  3  0  0  0  0  0  0
  189.3080  176.9140  145.7170 C   0  0  0  0  0  3  0  0  0  0  0  0
  190.3090  177.5140  148.2920 C   0  0  0  0  0  3  0  0  0  0  0  0
  1  8  1  0  0  0  0
  1  9  2  0  0  0  0
  2 12  1  0  0  0  0
  3 15  1  0  0  0  0
  3  8  1  0  0  0  0
  4 24  1  0  0  0  0
  4 15  1  0  0  0  0
  5 12  2  0  0  0  0
  8  2  2  0  0  0  0
  9  5  1  0  0  0  0
 10  3  2  0  0  0  0
 11  1  1  0  0  0  0
 12  6  1  0  0  0  0
 13  4  1  0  0  0  0
 14 19  1  6  0  0  0
 14 13  1  0  0  0  0
 14 10  1  0  0  0  0
 15  7  2  0  0  0  0
 16 10  1  0  0  0  0
 16 11  2  0  0  0  0
 17 21  1  0  0  0  0
 18 20  1  0  0  0  0
 18 17  2  0  0  0  0
 20 22  2  0  0  0  0
 21 19  2  0  0  0  0
 22 19  1  0  0  0  0
 23 17  1  0  0  0  0
 24 25  1  0  0  0  0
 25 26  1  0  0  0  0
 26 27  1  0  0  0  0
 27 29  1  0  0  0  0
 29 30  1  0  0  0  0
 30 28  1  1  0  0  0
 30 34  1  0  0  0  0
 31 34  2  0  0  0  0
 32 31  1  0  0  0  0
 33 29  1  0  0  0  0
 33 32  2  0  0  0  0
M  END
>  <MODEL>
8

>  <REMARK>
 VINA RESULT:      -8.5      2.753      6.516
  Name = 
  6 active torsions:
  status: ('A' for Active; 'I' for Inactive)
    1  A    between atoms: C_3  and  N_13
    2  A    between atoms: C_3  and  C_17
    3  A    between atoms: N_5  and  C_18
    4  A    between atoms: C_12  and  C_28
    5  A    between atoms: C_17  and  C_29
    6  A    between atoms: C_18  and  C_29
                            x       y       z     vdW  Elec       q    Type
                         _______ _______ _______ _____ _____    ______ ____

>  <TORSDO>
F 6

$$$$
=
 OpenBabel10262423593D

 34 38  0  0  1  0  0  0  0  0999 V2000
  184.7970  178.3220  144.2960 C   0  0  0  0  0  0  0  0  0  0  0  0
  183.6360  178.8840  142.2450 C   0  0  0  0  0  3  0  0  0  0  0  0
  186.0200  178.2460  142.1830 C   0  0  0  0  0  0  0  0  0  0  0  0
  187.4360  178.3320  140.0980 N   0  0  0  0  0  0  0  0  0  0  0  0
  182.4590  178.9460  144.3600 C   0  0  0  0  0  3  0  0  0  0  0  0
  181.2270  179.5370  142.2700 C   0  0  0  0  0  1  0  0  0  0  0  0
  185.1090  178.4120  139.9760 O   0  0  0  0  0  0  0  0  0  0  0  0
  184.8170  178.4820  142.8910 C   0  0  0  0  0  0  0  0  0  0  0  0
  183.6230  178.5510  145.0200 C   0  0  0  0  0  3  0  0  0  0  0  0
  187.1740  177.8840  142.9150 C   0  0  0  0  0  0  0  0  0  0  0  0
  185.9550  177.9300  144.9610 C   0  0  0  0  0  3  0  0  0  0  0  0
  182.4650  179.1140  142.9730 C   0  0  0  0  0  0  0  0  0  0  0  0
  188.6250  178.4340  140.9380 C   0  0  0  0  0  2  0  0  0  0  0  0
  188.4680  177.5700  142.1900 C   0  0  1  0  0  3  0  0  0  0  0  0
  186.1350  178.3520  140.7030 C   0  0  0  0  0  0  0  0  0  0  0  0
  187.0990  177.7160  144.2650 N   0  0  0  0  0  0  0  0  0  0  0  0
  191.4080  176.7180  144.4600 C   0  0  0  0  0  0  0  0  0  0  0  0
  191.9500  177.9880  144.6830 C   0  0  0  0  0  3  0  0  0  0  0  0
  189.6800  177.7000  143.0660 C   0  0  0  0  0  0  0  0  0  0  0  0
  191.3590  179.1120  144.0990 C   0  0  0  0  0  3  0  0  0  0  0  0
  190.2760  176.5730  143.6540 C   0  0  0  0  0  3  0  0  0  0  0  0
  190.2270  178.9690  143.2920 C   0  0  0  0  0  3  0  0  0  0  0  0
  191.9810  175.6300  145.0260 F   0  0  0  0  0  0  0  0  0  0  0  0
  187.5850  178.1800  138.6550 C   0  0  0  0  0  2  0  0  0  0  0  0
  188.9510  178.6780  138.1980 C   0  0  0  0  0  2  0  0  0  0  0  0
  189.6900  177.6220  137.3900 C   0  0  0  0  0  2  0  0  0  0  0  0
  190.6340  176.8310  138.2830 C   0  0  0  0  0  2  0  0  0  0  0  0
  190.5300  173.9180  137.3580 N   0  0  0  0  0  1  0  0  0  0  0  0
  191.5760  176.0620  137.4830 N   0  0  0  0  0  0  0  0  0  0  0  0
  191.0610  175.0250  136.5800 C   0  0  1  0  0  3  0  0  0  0  0  0
  193.4260  174.7160  135.8810 C   0  0  0  0  0  3  0  0  0  0  0  0
  193.8700  175.5230  137.0260 C   0  0  0  0  0  3  0  0  0  0  0  0
  192.9770  176.1640  137.7780 C   0  0  0  0  0  3  0  0  0  0  0  0
  192.1280  174.5090  135.6490 C   0  0  0  0  0  3  0  0  0  0  0  0
  1 11  1  0  0  0  0
  1  9  2  0  0  0  0
  2  8  2  0  0  0  0
  2 12  1  0  0  0  0
  3  8  1  0  0  0  0
  3 10  2  0  0  0  0
  4 15  1  0  0  0  0
  4 13  1  0  0  0  0
  5  9  1  0  0  0  0
  6 12  1  0  0  0  0
  7 15  2  0  0  0  0
  8  1  1  0  0  0  0
 10 16  1  0  0  0  0
 12  5  2  0  0  0  0
 13 14  1  0  0  0  0
 14 10  1  0  0  0  0
 14 19  1  1  0  0  0
 15  3  1  0  0  0  0
 16 11  2  0  0  0  0
 17 18  1  0  0  0  0
 17 23  1  0  0  0  0
 19 22  2  0  0  0  0
 19 21  1  0  0  0  0
 20 18  2  0  0  0  0
 21 17  2  0  0  0  0
 22 20  1  0  0  0  0
 24  4  1  0  0  0  0
 25 24  1  0  0  0  0
 26 25  1  0  0  0  0
 26 27  1  0  0  0  0
 29 33  1  0  0  0  0
 29 27  1  0  0  0  0
 30 28  1  1  0  0  0
 30 29  1  0  0  0  0
 31 32  1  0  0  0  0
 32 33  2  0  0  0  0
 34 31  2  0  0  0  0
 34 30  1  0  0  0  0
M  END
>  <MODEL>
9

>  <REMARK>
 VINA RESULT:      -8.5      2.197      7.521
  Name = 
  6 active torsions:
  status: ('A' for Active; 'I' for Inactive)
    1  A    between atoms: C_3  and  N_13
    2  A    between atoms: C_3  and  C_17
    3  A    between atoms: N_5  and  C_18
    4  A    between atoms: C_12  and  C_28
    5  A    between atoms: C_17  and  C_29
    6  A    between atoms: C_18  and  C_29
                            x       y       z     vdW  Elec       q    Type
                         _______ _______ _______ _____ _____    ______ ____

>  <TORSDO>
F 6

$$$$
