=
 OpenBabel10272413253D

 32 38  0  0  1  0  0  0  0  0999 V2000
  186.9270  178.2370  146.1070 S   0  0  0  0  0  0  0  0  0  0  0  0
  187.4100  178.7540  141.0020 N   0  0  0  0  0  0  0  0  0  0  0  0
  182.7680  177.6740  139.8920 C   0  0  0  0  0  3  0  0  0  0  0  0
  183.1750  177.2520  138.6250 C   0  0  0  0  0  3  0  0  0  0  0  0
  189.0920  178.4050  139.1890 C   0  0  2  0  0  3  0  0  0  0  0  0
  189.7510  177.4770  140.1770 C   0  0  0  0  0  0  0  0  0  0  0  0
  187.8410  178.0740  143.3920 C   0  0  1  0  0  3  0  0  0  0  0  0
  185.7050  178.9510  142.8340 C   0  0  0  0  0  2  0  0  0  0  0  0
  189.8750  176.8100  137.4190 C   0  0  0  0  0  0  0  0  0  0  0  0
  185.8400  177.6200  144.7690 C   0  0  0  0  0  2  0  0  0  0  0  0
  183.6890  178.2490  140.7730 C   0  0  0  0  0  3  0  0  0  0  0  0
  186.0170  179.0970  141.3310 C   0  0  2  0  0  3  0  0  0  0  0  0
  185.0330  178.3940  140.4010 C   0  0  0  0  0  0  0  0  0  0  0  0
  186.8470  178.1480  138.7210 C   0  0  0  0  0  0  0  0  0  0  0  0
  190.7190  176.2440  138.2900 C   0  0  0  0  0  3  0  0  0  0  0  0
  186.3920  177.8000  143.4150 N   0  0  2  0  0  0  0  0  0  0  0  0
  190.5750  176.5150  139.7400 C   0  0  0  0  0  3  0  0  0  0  0  0
  188.6250  177.0400  144.2110 C   0  0  0  0  0  2  0  0  0  0  0  0
  188.2270  177.0200  145.6900 C   0  0  1  0  0  3  0  0  0  0  0  0
  184.5040  177.4090  138.2280 C   0  0  0  0  0  3  0  0  0  0  0  0
  185.4330  177.9900  139.0990 C   0  0  0  0  0  0  0  0  0  0  0  0
  187.4800  177.5580  137.7180 C   0  0  0  0  0  3  0  0  0  0  0  0
  188.2920  178.1360  141.9590 C   0  0  0  0  0  0  0  0  0  0  0  0
  189.3850  177.5400  141.5630 N   0  0  0  0  0  0  0  0  0  0  0  0
  189.9450  176.4690  135.9730 C   0  0  0  0  0  1  0  0  0  0  0  0
  187.7550  178.7080  139.6460 N   0  0  0  0  0  0  0  0  0  0  0  0
  188.8880  177.7250  137.9110 N   0  0  0  0  0  0  0  0  0  0  0  0
  189.3990  177.2510  146.5170 N   0  0  0  0  0  2  0  0  0  0  0  0
  190.5580  176.9000  145.7140 C   0  0  0  0  0  2  0  0  0  0  0  0
  191.6400  176.3860  146.5960 C   0  0  0  0  0  0  0  0  0  0  0  0
  191.9310  177.0320  147.7900 O   0  0  0  0  0  1  0  0  0  0  0  0
  192.2690  175.3440  146.2760 O   0  0  0  0  0  0  0  0  0  0  0  0
  2 12  1  0  0  0  0
  2 23  1  0  0  0  0
  3 11  1  0  0  0  0
  4  3  2  0  0  0  0
  5 26  1  0  0  0  0
  5  6  1  1  0  0  0
  6 24  1  0  0  0  0
  7 16  1  0  0  0  0
  7 18  1  1  0  0  0
  9 27  1  0  0  0  0
  9 15  2  0  0  0  0
 10  1  1  0  0  0  0
 12  8  1  1  0  0  0
 13 11  2  0  0  0  0
 13 12  1  0  0  0  0
 14 21  1  0  0  0  0
 14 26  1  0  0  0  0
 15 17  1  0  0  0  0
 16  8  1  1  0  0  0
 16 10  1  0  0  0  0
 17  6  2  0  0  0  0
 18 19  1  0  0  0  0
 19  1  1  0  0  0  0
 19 28  1  1  0  0  0
 20  4  1  0  0  0  0
 20 21  2  0  0  0  0
 21 13  1  0  0  0  0
 22 27  1  0  0  0  0
 22 14  2  0  0  0  0
 23  7  1  0  0  0  0
 24 23  2  0  0  0  0
 25  9  1  0  0  0  0
 26  2  1  0  0  0  0
 27  5  1  0  0  0  0
 29 28  1  0  0  0  0
 29 30  1  0  0  0  0
 30 31  1  0  0  0  0
 32 30  2  0  0  0  0
M  END
>  <MODEL>
1

>  <REMARK>
 VINA RESULT:      -8.4      0.000      0.000
  Name = 
  3 active torsions:
  status: ('A' for Active; 'I' for Inactive)
    1  A    between atoms: C_1  and  C_10
    2  A    between atoms: C_10  and  N_19
    3  A    between atoms: N_19  and  C_24
                            x       y       z     vdW  Elec       q    Type
                         _______ _______ _______ _____ _____    ______ ____

>  <TORSDO>
F 3

$$$$
=
 OpenBabel10272413253D

 32 38  0  0  1  0  0  0  0  0999 V2000
  182.5140  179.4080  143.4870 S   0  0  0  0  0  0  0  0  0  0  0  0
  186.1210  178.8070  139.8560 N   0  0  0  0  0  0  0  0  0  0  0  0
  183.2940  176.4200  136.6530 C   0  0  0  0  0  3  0  0  0  0  0  0
  184.4300  175.8210  136.1050 C   0  0  0  0  0  3  0  0  0  0  0  0
  188.5840  178.4530  139.6380 C   0  0  2  0  0  3  0  0  0  0  0  0
  188.4940  177.9680  141.0620 C   0  0  0  0  0  0  0  0  0  0  0  0
  184.9540  178.8320  142.0910 C   0  0  1  0  0  3  0  0  0  0  0  0
  183.6340  179.0180  140.1250 C   0  0  0  0  0  2  0  0  0  0  0  0
  190.3720  176.7200  139.3350 C   0  0  0  0  0  0  0  0  0  0  0  0
  182.5520  178.2520  142.0680 C   0  0  0  0  0  2  0  0  0  0  0  0
  183.4210  177.3880  137.6530 C   0  0  0  0  0  3  0  0  0  0  0  0
  184.8260  178.8750  139.1580 C   0  0  2  0  0  3  0  0  0  0  0  0
  184.6870  177.7580  138.1280 C   0  0  0  0  0  0  0  0  0  0  0  0
  187.1630  177.5640  138.0510 C   0  0  0  0  0  0  0  0  0  0  0  0
  190.4860  176.5940  140.6630 C   0  0  0  0  0  3  0  0  0  0  0  0
  183.8330  178.2340  141.3420 N   0  0  2  0  0  0  0  0  0  0  0  0
  189.4420  177.1570  141.5510 C   0  0  0  0  0  3  0  0  0  0  0  0
  185.0720  178.2390  143.5010 C   0  0  0  0  0  2  0  0  0  0  0  0
  183.8240  178.4730  144.3570 C   0  0  1  0  0  3  0  0  0  0  0  0
  185.7010  176.1920  136.5490 C   0  0  0  0  0  3  0  0  0  0  0  0
  185.8390  177.1670  137.5440 C   0  0  0  0  0  0  0  0  0  0  0  0
  188.3110  176.9230  137.8870 C   0  0  0  0  0  3  0  0  0  0  0  0
  186.2120  178.6610  141.2860 C   0  0  0  0  0  0  0  0  0  0  0  0
  187.3270  178.2670  141.8410 N   0  0  0  0  0  0  0  0  0  0  0  0
  191.3590  176.0750  138.4290 C   0  0  0  0  0  1  0  0  0  0  0  0
  187.2530  178.5260  139.0810 N   0  0  0  0  0  0  0  0  0  0  0  0
  189.2650  177.4630  138.8060 N   0  0  0  0  0  0  0  0  0  0  0  0
  184.1900  179.1660  145.5800 N   0  0  0  0  0  2  0  0  0  0  0  0
  184.8180  178.1850  146.4490 C   0  0  0  0  0  2  0  0  0  0  0  0
  185.9690  178.8070  147.1560 C   0  0  0  0  0  0  0  0  0  0  0  0
  187.1280  178.0740  147.3790 O   0  0  0  0  0  0  0  0  0  0  0  0
  185.9060  180.0100  147.5210 O   0  0  0  0  0  1  0  0  0  0  0  0
  1 19  1  0  0  0  0
  2 23  1  0  0  0  0
  3 11  1  0  0  0  0
  4 20  1  0  0  0  0
  4  3  2  0  0  0  0
  5  6  1  1  0  0  0
  6 17  2  0  0  0  0
  6 24  1  0  0  0  0
  7 18  1  1  0  0  0
  9 15  2  0  0  0  0
 10  1  1  0  0  0  0
 11 13  2  0  0  0  0
 12  2  1  0  0  0  0
 12  8  1  1  0  0  0
 13 12  1  0  0  0  0
 14 26  1  0  0  0  0
 15 17  1  0  0  0  0
 16  8  1  6  0  0  0
 16 10  1  0  0  0  0
 16  7  1  0  0  0  0
 18 19  1  0  0  0  0
 19 28  1  1  0  0  0
 20 21  2  0  0  0  0
 21 14  1  0  0  0  0
 21 13  1  0  0  0  0
 22 14  2  0  0  0  0
 22 27  1  0  0  0  0
 23 24  2  0  0  0  0
 23  7  1  0  0  0  0
 25  9  1  0  0  0  0
 26  5  1  0  0  0  0
 26  2  1  0  0  0  0
 27  9  1  0  0  0  0
 27  5  1  0  0  0  0
 28 29  1  0  0  0  0
 29 30  1  0  0  0  0
 30 31  2  0  0  0  0
 30 32  1  0  0  0  0
M  END
>  <MODEL>
2

>  <REMARK>
 VINA RESULT:      -8.2      2.649      3.565
  Name = 
  3 active torsions:
  status: ('A' for Active; 'I' for Inactive)
    1  A    between atoms: C_1  and  C_10
    2  A    between atoms: C_10  and  N_19
    3  A    between atoms: N_19  and  C_24
                            x       y       z     vdW  Elec       q    Type
                         _______ _______ _______ _____ _____    ______ ____

>  <TORSDO>
F 3

$$$$
=
 OpenBabel10272413253D

 32 38  0  0  1  0  0  0  0  0999 V2000
  185.2310  178.8000  145.1740 S   0  0  0  0  0  0  0  0  0  0  0  0
  186.9990  178.7660  140.3340 N   0  0  0  0  0  0  0  0  0  0  0  0
  182.8010  177.4120  138.2160 C   0  0  0  0  0  3  0  0  0  0  0  0
  183.5200  176.8670  137.1510 C   0  0  0  0  0  3  0  0  0  0  0  0
  189.0910  178.2780  139.0580 C   0  0  2  0  0  3  0  0  0  0  0  0
  189.4800  177.4880  140.2810 C   0  0  0  0  0  0  0  0  0  0  0  0
  186.8090  178.3700  142.8160 C   0  0  1  0  0  3  0  0  0  0  0  0
  184.8820  179.1060  141.6380 C   0  0  0  0  0  2  0  0  0  0  0  0
  190.3090  176.5260  137.7410 C   0  0  0  0  0  0  0  0  0  0  0  0
  184.5250  178.0020  143.6850 C   0  0  0  0  0  2  0  0  0  0  0  0
  183.4630  178.1110  139.2290 C   0  0  0  0  0  3  0  0  0  0  0  0
  185.5670  179.0960  140.2570 C   0  0  2  0  0  3  0  0  0  0  0  0
  184.8570  178.2600  139.1960 C   0  0  0  0  0  0  0  0  0  0  0  0
  187.0410  177.8940  138.0700 C   0  0  0  0  0  0  0  0  0  0  0  0
  190.9050  176.0890  138.8570 C   0  0  0  0  0  3  0  0  0  0  0  0
  185.4030  178.0510  142.5040 N   0  0  2  0  0  0  0  0  0  0  0  0
  190.3940  176.5130  140.1810 C   0  0  0  0  0  3  0  0  0  0  0  0
  187.3630  177.4610  143.9210 C   0  0  0  0  0  2  0  0  0  0  0  0
  186.6000  177.5900  145.2430 C   0  0  1  0  0  3  0  0  0  0  0  0
  184.9060  177.0240  137.0880 C   0  0  0  0  0  3  0  0  0  0  0  0
  185.5790  177.7300  138.0930 C   0  0  0  0  0  0  0  0  0  0  0  0
  187.9130  177.2190  137.3350 C   0  0  0  0  0  3  0  0  0  0  0  0
  187.6110  178.2890  141.5480 C   0  0  0  0  0  0  0  0  0  0  0  0
  188.7710  177.6910  141.5120 N   0  0  0  0  0  0  0  0  0  0  0  0
  190.7480  176.0300  136.4090 C   0  0  0  0  0  1  0  0  0  0  0  0
  187.6800  178.5830  139.1240 N   0  0  0  0  0  0  0  0  0  0  0  0
  189.2240  177.4550  137.8580 N   0  0  0  0  0  0  0  0  0  0  0  0
  187.5210  177.9510  146.3070 N   0  0  0  0  0  2  0  0  0  0  0  0
  188.8100  177.3770  145.9630 C   0  0  0  0  0  2  0  0  0  0  0  0
  189.6420  177.2460  147.1900 C   0  0  0  0  0  0  0  0  0  0  0  0
  190.8040  176.4870  147.1660 O   0  0  0  0  0  0  0  0  0  0  0  0
  189.3110  177.8540  148.2410 O   0  0  0  0  0  1  0  0  0  0  0  0
  1 19  1  0  0  0  0
  2 23  1  0  0  0  0
  3 11  1  0  0  0  0
  4  3  2  0  0  0  0
  5 26  1  0  0  0  0
  5  6  1  1  0  0  0
  6 24  1  0  0  0  0
  7 18  1  1  0  0  0
  9 27  1  0  0  0  0
  9 15  2  0  0  0  0
 10  1  1  0  0  0  0
 12  2  1  0  0  0  0
 12  8  1  1  0  0  0
 13 11  2  0  0  0  0
 13 12  1  0  0  0  0
 14 21  1  0  0  0  0
 14 26  1  0  0  0  0
 15 17  1  0  0  0  0
 16  8  1  6  0  0  0
 16  7  1  0  0  0  0
 16 10  1  0  0  0  0
 17  6  2  0  0  0  0
 18 19  1  0  0  0  0
 19 28  1  1  0  0  0
 20  4  1  0  0  0  0
 20 21  2  0  0  0  0
 21 13  1  0  0  0  0
 22 27  1  0  0  0  0
 22 14  2  0  0  0  0
 23  7  1  0  0  0  0
 24 23  2  0  0  0  0
 25  9  1  0  0  0  0
 26  2  1  0  0  0  0
 27  5  1  0  0  0  0
 29 28  1  0  0  0  0
 29 30  1  0  0  0  0
 30 32  1  0  0  0  0
 31 30  2  0  0  0  0
M  END
>  <MODEL>
3

>  <REMARK>
 VINA RESULT:      -8.2      1.171      1.475
  Name = 
  3 active torsions:
  status: ('A' for Active; 'I' for Inactive)
    1  A    between atoms: C_1  and  C_10
    2  A    between atoms: C_10  and  N_19
    3  A    between atoms: N_19  and  C_24
                            x       y       z     vdW  Elec       q    Type
                         _______ _______ _______ _____ _____    ______ ____

>  <TORSDO>
F 3

$$$$
=
 OpenBabel10272413253D

 32 38  0  0  1  0  0  0  0  0999 V2000
  182.4690  178.8900  138.2950 S   0  0  0  0  0  0  0  0  0  0  0  0
  187.3930  178.4860  139.7570 N   0  0  0  0  0  0  0  0  0  0  0  0
  188.8120  175.5340  136.1210 C   0  0  0  0  0  3  0  0  0  0  0  0
  189.8420  175.0450  136.9280 C   0  0  0  0  0  3  0  0  0  0  0  0
  188.7810  178.4310  141.8330 C   0  0  2  0  0  3  0  0  0  0  0  0
  187.4910  178.0440  142.5110 C   0  0  0  0  0  0  0  0  0  0  0  0
  184.8730  178.5270  139.8180 C   0  0  1  0  0  3  0  0  0  0  0  0
  185.9510  178.4000  137.7050 C   0  0  0  0  0  2  0  0  0  0  0  0
  189.9100  176.9210  143.4860 C   0  0  0  0  0  0  0  0  0  0  0  0
  183.7240  177.6480  137.8150 C   0  0  0  0  0  2  0  0  0  0  0  0
  188.0030  176.5810  136.5700 C   0  0  0  0  0  3  0  0  0  0  0  0
  187.3750  178.3390  138.2920 C   0  0  2  0  0  3  0  0  0  0  0  0
  188.2040  177.1420  137.8390 C   0  0  0  0  0  0  0  0  0  0  0  0
  189.4750  177.2570  139.9710 C   0  0  0  0  0  0  0  0  0  0  0  0
  188.8050  176.9070  144.2420 C   0  0  0  0  0  3  0  0  0  0  0  0
  184.9820  177.7390  138.5760 N   0  0  2  0  0  0  0  0  0  0  0  0
  187.5230  177.3970  143.6840 C   0  0  0  0  0  3  0  0  0  0  0  0
  183.6970  178.0580  140.6840 C   0  0  0  0  0  2  0  0  0  0  0  0
  182.3430  178.1950  139.9820 C   0  0  1  0  0  3  0  0  0  0  0  0
  190.0730  175.6050  138.1850 C   0  0  0  0  0  3  0  0  0  0  0  0
  189.2730  176.6600  138.6420 C   0  0  0  0  0  0  0  0  0  0  0  0
  190.1740  176.7550  140.9790 C   0  0  0  0  0  3  0  0  0  0  0  0
  186.1870  178.4580  140.5440 C   0  0  0  0  0  0  0  0  0  0  0  0
  186.2440  178.2500  141.8320 N   0  0  0  0  0  0  0  0  0  0  0  0
  191.1800  176.3410  143.9990 C   0  0  0  0  0  1  0  0  0  0  0  0
  188.6200  178.2950  140.4040 N   0  0  0  0  0  0  0  0  0  0  0  0
  189.8360  177.4770  142.1670 N   0  0  0  0  0  0  0  0  0  0  0  0
  181.4540  179.0160  140.7860 N   0  0  0  0  0  2  0  0  0  0  0  0
  181.8700  178.8590  142.1690 C   0  0  0  0  0  2  0  0  0  0  0  0
  180.7890  179.3360  143.0730 C   0  0  0  0  0  0  0  0  0  0  0  0
  180.3510  178.5340  144.1180 O   0  0  0  0  0  1  0  0  0  0  0  0
  180.2960  180.4830  142.9120 O   0  0  0  0  0  0  0  0  0  0  0  0
  1 19  1  0  0  0  0
  2 26  1  0  0  0  0
  2 23  1  0  0  0  0
  3 11  2  0  0  0  0
  3  4  1  0  0  0  0
  4 20  2  0  0  0  0
  5 27  1  0  0  0  0
  5  6  1  1  0  0  0
  6 17  2  0  0  0  0
  7 23  1  0  0  0  0
  7 18  1  1  0  0  0
  9 25  1  0  0  0  0
  9 15  2  0  0  0  0
 10  1  1  0  0  0  0
 10 16  1  0  0  0  0
 11 13  1  0  0  0  0
 12  8  1  1  0  0  0
 12  2  1  0  0  0  0
 13 12  1  0  0  0  0
 13 21  2  0  0  0  0
 14 26  1  0  0  0  0
 14 22  2  0  0  0  0
 16  8  1  6  0  0  0
 16  7  1  0  0  0  0
 17 15  1  0  0  0  0
 19 18  1  0  0  0  0
 19 28  1  1  0  0  0
 20 21  1  0  0  0  0
 21 14  1  0  0  0  0
 22 27  1  0  0  0  0
 23 24  2  0  0  0  0
 24  6  1  0  0  0  0
 26  5  1  0  0  0  0
 27  9  1  0  0  0  0
 28 29  1  0  0  0  0
 29 30  1  0  0  0  0
 30 31  1  0  0  0  0
 32 30  2  0  0  0  0
M  END
>  <MODEL>
4

>  <REMARK>
 VINA RESULT:      -7.9      3.935      6.744
  Name = 
  3 active torsions:
  status: ('A' for Active; 'I' for Inactive)
    1  A    between atoms: C_1  and  C_10
    2  A    between atoms: C_10  and  N_19
    3  A    between atoms: N_19  and  C_24
                            x       y       z     vdW  Elec       q    Type
                         _______ _______ _______ _____ _____    ______ ____

>  <TORSDO>
F 3

$$$$
=
 OpenBabel10272413253D

 32 38  0  0  1  0  0  0  0  0999 V2000
  189.0510  177.9570  144.3550 S   0  0  0  0  0  0  0  0  0  0  0  0
  189.2820  177.8550  139.2080 N   0  0  0  0  0  0  0  0  0  0  0  0
  184.4500  177.8700  138.4340 C   0  0  0  0  0  3  0  0  0  0  0  0
  184.6510  177.2430  137.2030 C   0  0  0  0  0  3  0  0  0  0  0  0
  190.6950  176.9280  137.3690 C   0  0  2  0  0  3  0  0  0  0  0  0
  191.1760  175.9620  138.4210 C   0  0  0  0  0  0  0  0  0  0  0  0
  189.7020  177.3170  141.6350 C   0  0  1  0  0  3  0  0  0  0  0  0
  187.8110  178.6440  141.0830 C   0  0  0  0  0  2  0  0  0  0  0  0
  190.9380  175.0300  135.7490 C   0  0  0  0  0  0  0  0  0  0  0  0
  187.7540  177.5090  143.1430 C   0  0  0  0  0  2  0  0  0  0  0  0
  185.5430  178.2760  139.2040 C   0  0  0  0  0  3  0  0  0  0  0  0
  188.0410  178.5650  139.5610 C   0  0  2  0  0  3  0  0  0  0  0  0
  186.8520  178.0450  138.7580 C   0  0  0  0  0  0  0  0  0  0  0  0
  188.4270  177.1980  137.0340 C   0  0  0  0  0  0  0  0  0  0  0  0
  191.6790  174.3550  136.6370 C   0  0  0  0  0  3  0  0  0  0  0  0
  188.2360  177.4170  141.7540 N   0  0  2  0  0  0  0  0  0  0  0  0
  191.7080  174.7890  138.0540 C   0  0  0  0  0  3  0  0  0  0  0  0
  190.2670  176.2020  142.5250 C   0  0  0  0  0  2  0  0  0  0  0  0
  189.9810  176.4210  144.0140 C   0  0  1  0  0  3  0  0  0  0  0  0
  185.9470  177.0240  136.7310 C   0  0  0  0  0  3  0  0  0  0  0  0
  187.0490  177.4340  137.4910 C   0  0  0  0  0  0  0  0  0  0  0  0
  188.8250  176.3770  136.0730 C   0  0  0  0  0  3  0  0  0  0  0  0
  190.0520  177.1300  140.1860 C   0  0  0  0  0  0  0  0  0  0  0  0
  190.9350  176.2450  139.8070 N   0  0  0  0  0  0  0  0  0  0  0  0
  190.8200  174.5480  134.3460 C   0  0  0  0  0  1  0  0  0  0  0  0
  189.5080  177.5970  137.8510 N   0  0  0  0  0  0  0  0  0  0  0  0
  190.2410  176.2040  136.1830 N   0  0  0  0  0  0  0  0  0  0  0  0
  191.2300  176.4290  144.7570 N   0  0  0  0  0  2  0  0  0  0  0  0
  190.8930  176.6880  146.1460 C   0  0  0  0  0  2  0  0  0  0  0  0
  191.9710  176.1650  147.0280 C   0  0  0  0  0  0  0  0  0  0  0  0
  192.3470  176.8720  148.1620 O   0  0  0  0  0  1  0  0  0  0  0  0
  192.5180  175.0630  146.7640 O   0  0  0  0  0  0  0  0  0  0  0  0
  2 12  1  0  0  0  0
  2 23  1  0  0  0  0
  3 11  1  0  0  0  0
  4  3  2  0  0  0  0
  5 26  1  0  0  0  0
  5  6  1  1  0  0  0
  6 24  1  0  0  0  0
  7 16  1  0  0  0  0
  7 18  1  1  0  0  0
  9 27  1  0  0  0  0
  9 15  2  0  0  0  0
 10  1  1  0  0  0  0
 12  8  1  1  0  0  0
 13 11  2  0  0  0  0
 13 12  1  0  0  0  0
 14 21  1  0  0  0  0
 14 26  1  0  0  0  0
 15 17  1  0  0  0  0
 16  8  1  6  0  0  0
 16 10  1  0  0  0  0
 17  6  2  0  0  0  0
 18 19  1  0  0  0  0
 19  1  1  0  0  0  0
 19 28  1  1  0  0  0
 20  4  1  0  0  0  0
 20 21  2  0  0  0  0
 21 13  1  0  0  0  0
 22 27  1  0  0  0  0
 22 14  2  0  0  0  0
 23  7  1  0  0  0  0
 24 23  2  0  0  0  0
 25  9  1  0  0  0  0
 26  2  1  0  0  0  0
 27  5  1  0  0  0  0
 28 29  1  0  0  0  0
 29 30  1  0  0  0  0
 30 31  1  0  0  0  0
 32 30  2  0  0  0  0
M  END
>  <MODEL>
5

>  <REMARK>
 VINA RESULT:      -7.9      1.557      2.421
  Name = 
  3 active torsions:
  status: ('A' for Active; 'I' for Inactive)
    1  A    between atoms: C_1  and  C_10
    2  A    between atoms: C_10  and  N_19
    3  A    between atoms: N_19  and  C_24
                            x       y       z     vdW  Elec       q    Type
                         _______ _______ _______ _____ _____    ______ ____

>  <TORSDO>
F 3

$$$$
=
 OpenBabel10272413253D

 32 38  0  0  1  0  0  0  0  0999 V2000
  190.6810  176.6870  137.1990 S   0  0  0  0  0  0  0  0  0  0  0  0
  186.9480  178.6700  140.1470 N   0  0  0  0  0  0  0  0  0  0  0  0
  188.7050  177.0650  144.4230 C   0  0  0  0  0  3  0  0  0  0  0  0
  187.4160  177.0940  144.9580 C   0  0  0  0  0  3  0  0  0  0  0  0
  184.5010  179.1630  140.0710 C   0  0  2  0  0  3  0  0  0  0  0  0
  184.4770  178.1440  138.9610 C   0  0  0  0  0  0  0  0  0  0  0  0
  188.1390  177.4550  138.2860 C   0  0  1  0  0  3  0  0  0  0  0  0
  189.3730  178.0250  140.2340 C   0  0  0  0  0  2  0  0  0  0  0  0
  182.2300  178.2980  140.6910 C   0  0  0  0  0  0  0  0  0  0  0  0
  190.2100  176.2640  138.9160 C   0  0  0  0  0  2  0  0  0  0  0  0
  188.9430  177.5410  143.1310 C   0  0  0  0  0  3  0  0  0  0  0  0
  188.1660  178.6350  140.9740 C   0  0  2  0  0  3  0  0  0  0  0  0
  187.8890  178.0380  142.3510 C   0  0  0  0  0  0  0  0  0  0  0  0
  185.4880  178.6180  142.0850 C   0  0  0  0  0  0  0  0  0  0  0  0
  182.1290  177.6880  139.5040 C   0  0  0  0  0  3  0  0  0  0  0  0
  188.9700  176.9120  139.3760 N   0  0  2  0  0  0  0  0  0  0  0  0
  183.3330  177.5170  138.6570 C   0  0  0  0  0  3  0  0  0  0  0  0
  187.8820  176.4080  137.1940 C   0  0  0  0  0  2  0  0  0  0  0  0
  189.1680  175.9050  136.5310 C   0  0  1  0  0  3  0  0  0  0  0  0
  186.3570  177.6070  144.2050 C   0  0  0  0  0  3  0  0  0  0  0  0
  186.5860  178.0930  142.9120 C   0  0  0  0  0  0  0  0  0  0  0  0
  184.1870  178.4600  142.2810 C   0  0  0  0  0  3  0  0  0  0  0  0
  186.8670  177.9950  138.8770 C   0  0  0  0  0  0  0  0  0  0  0  0
  185.7050  177.7520  138.3310 N   0  0  0  0  0  0  0  0  0  0  0  0
  181.0520  178.3880  141.5940 C   0  0  0  0  0  1  0  0  0  0  0  0
  185.7600  179.0660  140.7730 N   0  0  0  0  0  0  0  0  0  0  0  0
  183.5000  178.8350  141.0840 N   0  0  0  0  0  0  0  0  0  0  0  0
  189.0970  176.1220  135.0960 N   0  0  0  0  0  2  0  0  0  0  0  0
  189.7300  174.9770  134.4650 C   0  0  0  0  0  2  0  0  0  0  0  0
  188.9030  173.7610  134.6880 C   0  0  0  0  0  0  0  0  0  0  0  0
  189.4540  172.6470  135.3060 O   0  0  0  0  0  1  0  0  0  0  0  0
  187.6910  173.7550  134.3460 O   0  0  0  0  0  0  0  0  0  0  0  0
  1 10  1  0  0  0  0
  2 26  1  0  0  0  0
  2 12  1  0  0  0  0
  3  4  1  0  0  0  0
  5  6  1  6  0  0  0
  5 26  1  0  0  0  0
  5 27  1  0  0  0  0
  7 18  1  6  0  0  0
  7 23  1  0  0  0  0
  7 16  1  0  0  0  0
  9 27  1  0  0  0  0
  9 25  1  0  0  0  0
 11  3  2  0  0  0  0
 12  8  1  6  0  0  0
 12 13  1  0  0  0  0
 13 21  2  0  0  0  0
 13 11  1  0  0  0  0
 14 22  2  0  0  0  0
 14 21  1  0  0  0  0
 15  9  2  0  0  0  0
 16 10  1  6  0  0  0
 16  8  1  0  0  0  0
 17  6  2  0  0  0  0
 17 15  1  0  0  0  0
 19 28  1  6  0  0  0
 19 18  1  0  0  0  0
 19  1  1  0  0  0  0
 20  4  2  0  0  0  0
 21 20  1  0  0  0  0
 23  2  1  0  0  0  0
 24 23  2  0  0  0  0
 24  6  1  0  0  0  0
 26 14  1  0  0  0  0
 27 22  1  0  0  0  0
 29 30  1  0  0  0  0
 29 28  1  0  0  0  0
 30 31  1  0  0  0  0
 32 30  2  0  0  0  0
M  END
>  <MODEL>
6

>  <REMARK>
 VINA RESULT:      -7.7      4.020      7.588
  Name = 
  3 active torsions:
  status: ('A' for Active; 'I' for Inactive)
    1  A    between atoms: C_1  and  C_10
    2  A    between atoms: C_10  and  N_19
    3  A    between atoms: N_19  and  C_24
                            x       y       z     vdW  Elec       q    Type
                         _______ _______ _______ _____ _____    ______ ____

>  <TORSDO>
F 3

$$$$
=
 OpenBabel10272413253D

 32 38  0  0  1  0  0  0  0  0999 V2000
  191.2480  176.7230  138.0480 S   0  0  0  0  0  0  0  0  0  0  0  0
  187.1250  178.6950  140.4290 N   0  0  0  0  0  0  0  0  0  0  0  0
  188.2840  177.1460  144.9240 C   0  0  0  0  0  3  0  0  0  0  0  0
  186.9320  177.1670  145.2730 C   0  0  0  0  0  3  0  0  0  0  0  0
  184.7070  179.1640  140.0080 C   0  0  2  0  0  3  0  0  0  0  0  0
  184.8470  178.1340  138.9160 C   0  0  0  0  0  0  0  0  0  0  0  0
  188.5730  177.4760  138.7630 C   0  0  1  0  0  3  0  0  0  0  0  0
  189.5190  178.0740  140.8580 C   0  0  0  0  0  2  0  0  0  0  0  0
  182.3800  178.2820  140.3150 C   0  0  0  0  0  0  0  0  0  0  0  0
  190.5460  176.3110  139.6880 C   0  0  0  0  0  2  0  0  0  0  0  0
  188.6950  177.6130  143.6720 C   0  0  0  0  0  3  0  0  0  0  0  0
  188.2150  178.6790  141.4180 C   0  0  2  0  0  3  0  0  0  0  0  0
  187.7550  178.0930  142.7480 C   0  0  0  0  0  0  0  0  0  0  0  0
  185.4100  178.6460  142.1450 C   0  0  0  0  0  0  0  0  0  0  0  0
  182.4500  177.6600  139.1320 C   0  0  0  0  0  3  0  0  0  0  0  0
  189.2490  176.9510  139.9650 N   0  0  2  0  0  0  0  0  0  0  0  0
  183.7610  177.4930  138.4620 C   0  0  0  0  0  3  0  0  0  0  0  0
  188.4800  176.4160  137.6580 C   0  0  0  0  0  2  0  0  0  0  0  0
  189.8490  175.9200  137.1850 C   0  0  1  0  0  3  0  0  0  0  0  0
  185.9840  177.6620  144.3760 C   0  0  0  0  0  3  0  0  0  0  0  0
  186.3860  178.1400  143.1230 C   0  0  0  0  0  0  0  0  0  0  0  0
  184.0950  178.4770  142.1600 C   0  0  0  0  0  3  0  0  0  0  0  0
  187.2260  178.0080  139.1670 C   0  0  0  0  0  0  0  0  0  0  0  0
  186.1540  177.7490  138.4670 N   0  0  0  0  0  0  0  0  0  0  0  0
  181.0870  178.3680  141.0450 C   0  0  0  0  0  1  0  0  0  0  0  0
  185.8570  179.0850  140.8790 N   0  0  0  0  0  0  0  0  0  0  0  0
  183.5780  178.8350  140.8750 N   0  0  0  0  0  0  0  0  0  0  0  0
  189.9760  176.1230  135.7520 N   0  0  0  0  0  2  0  0  0  0  0  0
  190.2880  174.8300  135.1690 C   0  0  0  0  0  2  0  0  0  0  0  0
  191.7470  174.7460  134.8890 C   0  0  0  0  0  0  0  0  0  0  0  0
  192.4430  175.8730  134.4750 O   0  0  0  0  0  0  0  0  0  0  0  0
  192.3570  173.6580  135.0620 O   0  0  0  0  0  1  0  0  0  0  0  0
  1 10  1  0  0  0  0
  2 26  1  0  0  0  0
  2 12  1  0  0  0  0
  3  4  1  0  0  0  0
  5  6  1  6  0  0  0
  5 27  1  0  0  0  0
  5 26  1  0  0  0  0
  7 18  1  6  0  0  0
  7 23  1  0  0  0  0
  7 16  1  0  0  0  0
  9 27  1  0  0  0  0
  9 25  1  0  0  0  0
 11  3  2  0  0  0  0
 12  8  1  6  0  0  0
 12 13  1  0  0  0  0
 13 21  2  0  0  0  0
 13 11  1  0  0  0  0
 14 22  2  0  0  0  0
 14 21  1  0  0  0  0
 15  9  2  0  0  0  0
 16 10  1  6  0  0  0
 16  8  1  0  0  0  0
 17  6  2  0  0  0  0
 17 15  1  0  0  0  0
 19 28  1  6  0  0  0
 19 18  1  0  0  0  0
 19  1  1  0  0  0  0
 20  4  2  0  0  0  0
 21 20  1  0  0  0  0
 23  2  1  0  0  0  0
 24  6  1  0  0  0  0
 24 23  2  0  0  0  0
 26 14  1  0  0  0  0
 27 22  1  0  0  0  0
 29 28  1  0  0  0  0
 30 32  1  0  0  0  0
 30 29  1  0  0  0  0
 31 30  2  0  0  0  0
M  END
>  <MODEL>
7

>  <REMARK>
 VINA RESULT:      -7.5      3.905      7.249
  Name = 
  3 active torsions:
  status: ('A' for Active; 'I' for Inactive)
    1  A    between atoms: C_1  and  C_10
    2  A    between atoms: C_10  and  N_19
    3  A    between atoms: N_19  and  C_24
                            x       y       z     vdW  Elec       q    Type
                         _______ _______ _______ _____ _____    ______ ____

>  <TORSDO>
F 3

$$$$
=
 OpenBabel10272413253D

 32 38  0  0  1  0  0  0  0  0999 V2000
  182.4080  178.7290  144.1170 S   0  0  0  0  0  0  0  0  0  0  0  0
  187.1990  176.8300  144.1270 N   0  0  0  0  0  0  0  0  0  0  0  0
  188.4160  178.4150  148.5940 C   0  0  0  0  0  3  0  0  0  0  0  0
  189.7620  178.4130  148.2220 C   0  0  0  0  0  3  0  0  0  0  0  0
  189.0900  176.3840  142.5570 C   0  0  2  0  0  3  0  0  0  0  0  0
  188.4070  177.4000  141.6770 C   0  0  0  0  0  0  0  0  0  0  0  0
  185.0940  178.0150  143.4030 C   0  0  1  0  0  3  0  0  0  0  0  0
  185.3300  177.4280  145.6930 C   0  0  0  0  0  2  0  0  0  0  0  0
  191.2460  177.2960  141.6570 C   0  0  0  0  0  0  0  0  0  0  0  0
  183.8280  179.1670  145.1850 C   0  0  0  0  0  2  0  0  0  0  0  0
  187.4420  177.9300  147.7170 C   0  0  0  0  0  3  0  0  0  0  0  0
  186.7480  176.8440  145.5290 C   0  0  2  0  0  3  0  0  0  0  0  0
  187.8020  177.4510  146.4490 C   0  0  0  0  0  0  0  0  0  0  0  0
  189.5410  176.9170  144.7570 C   0  0  0  0  0  0  0  0  0  0  0  0
  190.5850  177.9040  140.6640 C   0  0  0  0  0  3  0  0  0  0  0  0
  185.1000  178.5450  144.7790 N   0  0  2  0  0  0  0  0  0  0  0  0
  189.1120  178.0480  140.7390 C   0  0  0  0  0  3  0  0  0  0  0  0
  184.6060  179.0640  142.3950 C   0  0  0  0  0  2  0  0  0  0  0  0
  183.1760  179.5380  142.6680 C   0  0  1  0  0  3  0  0  0  0  0  0
  190.1430  177.9190  146.9730 C   0  0  0  0  0  3  0  0  0  0  0  0
  189.1760  177.4230  146.0900 C   0  0  0  0  0  0  0  0  0  0  0  0
  190.6840  177.1020  144.1130 C   0  0  0  0  0  3  0  0  0  0  0  0
  186.4700  177.5020  143.0820 C   0  0  0  0  0  0  0  0  0  0  0  0
  187.0450  177.7650  141.9390 N   0  0  0  0  0  0  0  0  0  0  0  0
  192.7320  177.2320  141.6440 C   0  0  0  0  0  1  0  0  0  0  0  0
  188.5270  176.4600  143.8860 N   0  0  0  0  0  0  0  0  0  0  0  0
  190.4960  176.7360  142.7430 N   0  0  0  0  0  0  0  0  0  0  0  0
  182.3540  179.3180  141.4910 N   0  0  0  0  0  2  0  0  0  0  0  0
  183.2070  178.7040  140.4880 C   0  0  0  0  0  2  0  0  0  0  0  0
  183.3000  179.5920  139.2980 C   0  0  0  0  0  0  0  0  0  0  0  0
  184.4730  180.2880  139.0390 O   0  0  0  0  0  1  0  0  0  0  0  0
  182.3260  179.6850  138.5070 O   0  0  0  0  0  0  0  0  0  0  0  0
  1 10  1  0  0  0  0
  2 12  1  0  0  0  0
  4  3  1  0  0  0  0
  5  6  1  6  0  0  0
  5 27  1  0  0  0  0
  5 26  1  0  0  0  0
  6 24  1  0  0  0  0
  7 18  1  6  0  0  0
  7 16  1  0  0  0  0
  9 27  1  0  0  0  0
 11  3  2  0  0  0  0
 12  8  1  6  0  0  0
 12 13  1  0  0  0  0
 13 11  1  0  0  0  0
 14 21  1  0  0  0  0
 15 17  1  0  0  0  0
 15  9  2  0  0  0  0
 16 10  1  1  0  0  0
 16  8  1  0  0  0  0
 17  6  2  0  0  0  0
 18 19  1  0  0  0  0
 19 28  1  6  0  0  0
 19  1  1  0  0  0  0
 20  4  2  0  0  0  0
 21 13  2  0  0  0  0
 21 20  1  0  0  0  0
 22 14  2  0  0  0  0
 23  7  1  0  0  0  0
 23  2  1  0  0  0  0
 24 23  2  0  0  0  0
 25  9  1  0  0  0  0
 26  2  1  0  0  0  0
 26 14  1  0  0  0  0
 27 22  1  0  0  0  0
 29 28  1  0  0  0  0
 30 29  1  0  0  0  0
 31 30  1  0  0  0  0
 32 30  2  0  0  0  0
M  END
>  <MODEL>
8

>  <REMARK>
 VINA RESULT:      -7.4      3.803      6.956
  Name = 
  3 active torsions:
  status: ('A' for Active; 'I' for Inactive)
    1  A    between atoms: C_1  and  C_10
    2  A    between atoms: C_10  and  N_19
    3  A    between atoms: N_19  and  C_24
                            x       y       z     vdW  Elec       q    Type
                         _______ _______ _______ _____ _____    ______ ____

>  <TORSDO>
F 3

$$$$
=
 OpenBabel10272413253D

 32 38  0  0  1  0  0  0  0  0999 V2000
  191.1660  177.1200  139.3750 S   0  0  0  0  0  0  0  0  0  0  0  0
  187.5370  178.9400  142.5490 N   0  0  0  0  0  0  0  0  0  0  0  0
  189.2120  176.7780  146.6070 C   0  0  0  0  0  3  0  0  0  0  0  0
  187.9250  176.8110  147.1490 C   0  0  0  0  0  3  0  0  0  0  0  0
  185.1180  179.5610  142.5430 C   0  0  2  0  0  3  0  0  0  0  0  0
  185.0430  178.6760  141.3250 C   0  0  0  0  0  0  0  0  0  0  0  0
  188.6660  177.8860  140.5560 C   0  0  1  0  0  3  0  0  0  0  0  0
  189.9260  178.1700  142.5490 C   0  0  0  0  0  2  0  0  0  0  0  0
  182.8070  178.7450  143.0740 C   0  0  0  0  0  0  0  0  0  0  0  0
  190.6740  176.5300  141.0370 C   0  0  0  0  0  2  0  0  0  0  0  0
  189.4730  177.3850  145.3750 C   0  0  0  0  0  3  0  0  0  0  0  0
  188.7510  178.7520  143.3600 C   0  0  2  0  0  3  0  0  0  0  0  0
  188.4450  178.0190  144.6620 C   0  0  0  0  0  0  0  0  0  0  0  0
  186.0760  178.7440  144.4760 C   0  0  0  0  0  0  0  0  0  0  0  0
  182.6750  178.2790  141.8260 C   0  0  0  0  0  3  0  0  0  0  0  0
  189.4680  177.1830  141.5740 N   0  0  2  0  0  0  0  0  0  0  0  0
  183.8680  178.1450  140.9580 C   0  0  0  0  0  3  0  0  0  0  0  0
  188.3570  176.9820  139.3550 C   0  0  0  0  0  2  0  0  0  0  0  0
  189.6160  176.4940  138.6330 C   0  0  1  0  0  3  0  0  0  0  0  0
  186.8930  177.4570  146.4650 C   0  0  0  0  0  3  0  0  0  0  0  0
  187.1460  178.0750  145.2340 C   0  0  0  0  0  0  0  0  0  0  0  0
  184.7690  178.6290  144.6610 C   0  0  0  0  0  3  0  0  0  0  0  0
  187.4220  178.4180  141.2110 C   0  0  0  0  0  0  0  0  0  0  0  0
  186.2500  178.2970  140.6480 N   0  0  0  0  0  0  0  0  0  0  0  0
  181.6340  178.7910  143.9880 C   0  0  0  0  0  1  0  0  0  0  0  0
  186.3700  179.3220  143.2220 N   0  0  0  0  0  0  0  0  0  0  0  0
  184.1010  179.1710  143.5180 N   0  0  0  0  0  0  0  0  0  0  0  0
  189.5560  176.8740  137.2310 N   0  0  0  0  0  2  0  0  0  0  0  0
  189.2750  178.2990  137.1930 C   0  0  0  0  0  2  0  0  0  0  0  0
  187.9910  178.5370  136.4790 C   0  0  0  0  0  0  0  0  0  0  0  0
  187.8020  178.0340  135.1990 O   0  0  0  0  0  0  0  0  0  0  0  0
  187.0630  179.1650  137.0510 O   0  0  0  0  0  1  0  0  0  0  0  0
  1 10  1  0  0  0  0
  2 26  1  0  0  0  0
  2 12  1  0  0  0  0
  3  4  1  0  0  0  0
  5  6  1  6  0  0  0
  5 26  1  0  0  0  0
  5 27  1  0  0  0  0
  7 18  1  6  0  0  0
  7 23  1  0  0  0  0
  7 16  1  0  0  0  0
  9 27  1  0  0  0  0
  9 25  1  0  0  0  0
 11  3  2  0  0  0  0
 12  8  1  6  0  0  0
 12 13  1  0  0  0  0
 13 21  2  0  0  0  0
 13 11  1  0  0  0  0
 14 22  2  0  0  0  0
 14 21  1  0  0  0  0
 15  9  2  0  0  0  0
 16 10  1  6  0  0  0
 16  8  1  0  0  0  0
 17  6  2  0  0  0  0
 17 15  1  0  0  0  0
 19 28  1  6  0  0  0
 19 18  1  0  0  0  0
 19  1  1  0  0  0  0
 20  4  2  0  0  0  0
 21 20  1  0  0  0  0
 23  2  1  0  0  0  0
 24 23  2  0  0  0  0
 24  6  1  0  0  0  0
 26 14  1  0  0  0  0
 27 22  1  0  0  0  0
 29 28  1  0  0  0  0
 30 32  1  0  0  0  0
 30 29  1  0  0  0  0
 31 30  2  0  0  0  0
M  END
>  <MODEL>
9

>  <REMARK>
 VINA RESULT:      -6.6      3.656      7.469
  Name = 
  3 active torsions:
  status: ('A' for Active; 'I' for Inactive)
    1  A    between atoms: C_1  and  C_10
    2  A    between atoms: C_10  and  N_19
    3  A    between atoms: N_19  and  C_24
                            x       y       z     vdW  Elec       q    Type
                         _______ _______ _______ _____ _____    ______ ____

>  <TORSDO>
F 3

$$$$
