=
 OpenBabel10272415163D

 34 39  0  0  1  0  0  0  0  0999 V2000
  190.8380  177.5750  140.3910 C   0  0  1  0  0  3  0  0  0  0  0  0
  189.9150  176.3960  140.4640 C   0  0  1  0  0  3  0  0  0  0  0  0
  190.3640  177.7440  143.2460 C   0  0  2  0  0  0  0  0  0  0  0  0
  191.6420  177.0030  142.7110 C   0  0  0  0  0  2  0  0  0  0  0  0
  192.1060  177.3460  141.2630 C   0  0  0  0  0  2  0  0  0  0  0  0
  189.2000  177.6720  142.4190 O   0  0  0  0  0  0  0  0  0  0  0  0
  189.1140  176.4110  141.7900 C   0  0  0  0  0  2  0  0  0  0  0  0
  190.7080  179.2130  143.3880 C   0  0  0  0  0  1  0  0  0  0  0  0
  189.0400  176.4820  139.3690 O   0  0  0  0  0  0  0  0  0  0  0  0
  191.0290  177.7300  138.9140 C   0  0  0  0  0  2  0  0  0  0  0  0
  189.6140  177.3520  138.4040 C   0  0  1  0  0  0  0  0  0  0  0  0
  188.6810  177.2090  135.9940 C   0  0  0  0  0  2  0  0  0  0  0  0
  190.5690  174.2600  137.6500 C   0  0  0  0  0  2  0  0  0  0  0  0
  193.0500  174.5660  137.6060 C   0  0  0  0  0  3  0  0  0  0  0  0
  188.0330  174.7030  137.4420 C   0  0  0  0  0  2  0  0  0  0  0  0
  186.2690  177.5960  135.5010 C   0  0  0  0  0  2  0  0  0  0  0  0
  184.5500  175.9870  136.3650 C   0  0  0  0  0  3  0  0  0  0  0  0
  193.3510  176.0190  135.8850 N   0  0  0  0  0  0  0  0  0  0  0  0
  184.8590  177.0820  135.6440 C   0  0  0  0  0  3  0  0  0  0  0  0
  186.9870  175.4020  136.5560 C   0  0  2  0  0  3  0  0  0  0  0  0
  187.2570  176.9170  136.4510 C   0  0  1  0  0  3  0  0  0  0  0  0
  185.5870  175.2270  137.1510 C   0  0  0  0  0  2  0  0  0  0  0  0
  191.8650  174.7030  137.0440 C   0  0  0  0  0  0  0  0  0  0  0  0
  193.9640  175.3870  136.8290 C   0  0  0  0  0  3  0  0  0  0  0  0
  191.1170  176.9440  136.3450 C   0  0  0  0  0  2  0  0  0  0  0  0
  191.9280  175.6960  135.9390 C   0  0  1  0  0  3  0  0  0  0  0  0
  189.4460  175.0990  137.0120 C   0  0  1  0  0  3  0  0  0  0  0  0
  189.7200  176.6430  136.9770 C   0  0  1  0  0  0  0  0  0  0  0  0
  187.7110  178.7150  139.0220 O   0  0  0  0  0  1  0  0  0  0  0  0
  189.1290  179.6930  137.5210 O   0  0  0  0  0  0  0  0  0  0  0  0
  188.7830  178.6320  138.3380 C   0  0  0  0  0  0  0  0  0  0  0  0
  189.9670  177.2360  144.6260 C   0  0  0  0  0  0  0  0  0  0  0  0
  190.9640  176.7540  145.4730 O   0  0  0  0  0  1  0  0  0  0  0  0
  188.8930  177.6790  145.1330 O   0  0  0  0  0  0  0  0  0  0  0  0
  1 10  1  6  0  0  0
  1  2  1  0  0  0  0
  1  5  1  0  0  0  0
  2  7  1  1  0  0  0
  3  8  1  1  0  0  0
  3 32  1  0  0  0  0
  4  3  1  0  0  0  0
  5  4  1  0  0  0  0
  6  3  1  0  0  0  0
  7  6  1  0  0  0  0
  9  2  1  0  0  0  0
 11 31  1  6  0  0  0
 11 10  1  0  0  0  0
 11  9  1  0  0  0  0
 12 21  1  0  0  0  0
 16 19  1  0  0  0  0
 17 22  1  0  0  0  0
 18 26  1  0  0  0  0
 18 24  2  0  0  0  0
 19 17  2  0  0  0  0
 20 22  1  1  0  0  0
 20 15  1  0  0  0  0
 21 16  1  6  0  0  0
 21 20  1  0  0  0  0
 23 14  2  0  0  0  0
 23 13  1  0  0  0  0
 24 14  1  0  0  0  0
 25 28  1  0  0  0  0
 26 25  1  1  0  0  0
 26 23  1  0  0  0  0
 27 15  1  1  0  0  0
 27 13  1  0  0  0  0
 28 12  1  6  0  0  0
 28 27  1  0  0  0  0
 28 11  1  0  0  0  0
 30 31  2  0  0  0  0
 31 29  1  0  0  0  0
 32 34  2  0  0  0  0
 32 33  1  0  0  0  0
M  END
>  <MODEL>
1

>  <REMARK>
 VINA RESULT:      -6.4      0.000      0.000
  Name = 
  3 active torsions:
  status: ('A' for Active; 'I' for Inactive)
    1  A    between atoms: C_7  and  C_11
    2  A    between atoms: C_18  and  C_33
    3  A    between atoms: C_33  and  C_34
                            x       y       z     vdW  Elec       q    Type
                         _______ _______ _______ _____ _____    ______ ____

>  <TORSDO>
F 3

$$$$
=
 OpenBabel10272415163D

 34 39  0  0  1  0  0  0  0  0999 V2000
  190.7700  177.4100  140.6110 C   0  0  1  0  0  3  0  0  0  0  0  0
  189.8270  176.3060  140.9810 C   0  0  1  0  0  3  0  0  0  0  0  0
  190.7430  177.9830  143.4530 C   0  0  2  0  0  0  0  0  0  0  0  0
  191.8960  177.1060  142.8450 C   0  0  0  0  0  2  0  0  0  0  0  0
  192.1470  177.2260  141.3120 C   0  0  0  0  0  2  0  0  0  0  0  0
  189.4650  177.8690  142.8220 O   0  0  0  0  0  0  0  0  0  0  0  0
  189.2380  176.5430  142.3950 C   0  0  0  0  0  2  0  0  0  0  0  0
  191.1580  179.4360  143.3360 C   0  0  0  0  0  1  0  0  0  0  0  0
  188.7990  176.2960  140.0240 O   0  0  0  0  0  0  0  0  0  0  0  0
  190.7400  177.3570  139.1150 C   0  0  0  0  0  2  0  0  0  0  0  0
  189.2510  176.9960  138.8740 C   0  0  1  0  0  0  0  0  0  0  0  0
  190.0560  174.8860  137.6090 C   0  0  0  0  0  2  0  0  0  0  0  0
  188.4590  177.9030  135.7780 C   0  0  0  0  0  2  0  0  0  0  0  0
  185.9640  177.9160  135.9490 C   0  0  0  0  0  3  0  0  0  0  0  0
  190.9450  177.3040  136.1400 C   0  0  0  0  0  2  0  0  0  0  0  0
  192.4070  174.0760  137.7800 C   0  0  0  0  0  2  0  0  0  0  0  0
  194.2720  175.4670  136.8440 C   0  0  0  0  0  3  0  0  0  0  0  0
  185.4740  175.7380  136.3770 N   0  0  0  0  0  0  0  0  0  0  0  0
  193.8520  174.3360  137.4430 C   0  0  0  0  0  3  0  0  0  0  0  0
  191.8920  176.1110  136.3520 C   0  0  2  0  0  3  0  0  0  0  0  0
  191.5200  175.3110  137.6180 C   0  0  1  0  0  3  0  0  0  0  0  0
  193.3320  176.6020  136.5290 C   0  0  0  0  0  2  0  0  0  0  0  0
  187.1050  177.2640  135.8320 C   0  0  0  0  0  0  0  0  0  0  0  0
  184.9580  176.9160  136.2640 C   0  0  0  0  0  3  0  0  0  0  0  0
  187.6660  175.5150  137.4750 C   0  0  0  0  0  2  0  0  0  0  0  0
  186.9160  175.8260  136.1630 C   0  0  1  0  0  3  0  0  0  0  0  0
  189.4880  176.8510  136.2350 C   0  0  1  0  0  3  0  0  0  0  0  0
  189.1120  176.0990  137.5600 C   0  0  1  0  0  0  0  0  0  0  0  0
  189.0660  179.3550  138.3590 O   0  0  0  0  0  0  0  0  0  0  0  0
  187.1300  178.3920  139.0990 O   0  0  0  0  0  1  0  0  0  0  0  0
  188.4670  178.3010  138.7520 C   0  0  0  0  0  0  0  0  0  0  0  0
  190.5420  177.6870  144.9330 C   0  0  0  0  0  0  0  0  0  0  0  0
  191.6580  177.3890  145.7120 O   0  0  0  0  0  1  0  0  0  0  0  0
  189.5100  178.1590  145.4960 O   0  0  0  0  0  0  0  0  0  0  0  0
  1 10  1  6  0  0  0
  1  2  1  0  0  0  0
  1  5  1  0  0  0  0
  2  7  1  1  0  0  0
  3  8  1  6  0  0  0
  3 32  1  0  0  0  0
  4  3  1  0  0  0  0
  5  4  1  0  0  0  0
  6  3  1  0  0  0  0
  7  6  1  0  0  0  0
  9  2  1  0  0  0  0
 11 31  1  6  0  0  0
 11 10  1  0  0  0  0
 11  9  1  0  0  0  0
 13 23  1  0  0  0  0
 14 24  1  0  0  0  0
 15 27  1  0  0  0  0
 17 19  2  0  0  0  0
 19 16  1  0  0  0  0
 20 15  1  1  0  0  0
 20 22  1  0  0  0  0
 20 21  1  0  0  0  0
 21 12  1  6  0  0  0
 21 16  1  0  0  0  0
 22 17  1  0  0  0  0
 23 14  2  0  0  0  0
 23 26  1  0  0  0  0
 24 18  2  0  0  0  0
 26 18  1  0  0  0  0
 26 25  1  1  0  0  0
 27 13  1  1  0  0  0
 27 28  1  0  0  0  0
 28 25  1  6  0  0  0
 28 12  1  0  0  0  0
 28 11  1  0  0  0  0
 29 31  2  0  0  0  0
 31 30  1  0  0  0  0
 32 34  2  0  0  0  0
 32 33  1  0  0  0  0
M  END
>  <MODEL>
2

>  <REMARK>
 VINA RESULT:      -4.9      1.540      4.542
  Name = 
  3 active torsions:
  status: ('A' for Active; 'I' for Inactive)
    1  A    between atoms: C_7  and  C_11
    2  A    between atoms: C_18  and  C_33
    3  A    between atoms: C_33  and  C_34
                            x       y       z     vdW  Elec       q    Type
                         _______ _______ _______ _____ _____    ______ ____

>  <TORSDO>
F 3

$$$$
=
 OpenBabel10272415163D

 34 39  0  0  1  0  0  0  0  0999 V2000
  184.6180  176.6170  137.3340 C   0  0  1  0  0  3  0  0  0  0  0  0
  184.4610  177.1950  135.9600 C   0  0  1  0  0  3  0  0  0  0  0  0
  187.3540  177.5420  137.0870 C   0  0  2  0  0  0  0  0  0  0  0  0
  186.2950  178.4310  137.8330 C   0  0  0  0  0  2  0  0  0  0  0  0
  185.0150  177.7160  138.3600 C   0  0  0  0  0  2  0  0  0  0  0  0
  186.8610  176.7450  136.0070 O   0  0  0  0  0  0  0  0  0  0  0  0
  185.8460  177.4310  135.3060 C   0  0  0  0  0  2  0  0  0  0  0  0
  187.9490  176.5850  138.1000 C   0  0  0  0  0  1  0  0  0  0  0  0
  183.7170  176.2760  135.2020 O   0  0  0  0  0  0  0  0  0  0  0  0
  183.3060  175.9230  137.5310 C   0  0  0  0  0  2  0  0  0  0  0  0
  183.0420  175.4020  136.0950 C   0  0  1  0  0  0  0  0  0  0  0  0
  181.0680  176.4980  134.8280 C   0  0  0  0  0  2  0  0  0  0  0  0
  180.5460  174.4270  138.0590 C   0  0  0  0  0  2  0  0  0  0  0  0
  180.5920  171.9640  137.6370 C   0  0  0  0  0  3  0  0  0  0  0  0
  180.7500  176.9820  137.7360 C   0  0  0  0  0  2  0  0  0  0  0  0
  181.0050  178.9470  134.3710 C   0  0  0  0  0  2  0  0  0  0  0  0
  180.8030  180.5620  136.2790 C   0  0  0  0  0  3  0  0  0  0  0  0
  180.0760  171.8190  135.4280 N   0  0  0  0  0  0  0  0  0  0  0  0
  180.8700  180.3300  134.9550 C   0  0  0  0  0  3  0  0  0  0  0  0
  180.5040  178.1040  136.7120 C   0  0  2  0  0  3  0  0  0  0  0  0
  181.3170  177.8790  135.4210 C   0  0  1  0  0  3  0  0  0  0  0  0
  180.9320  179.4550  137.2940 C   0  0  0  0  0  2  0  0  0  0  0  0
  180.2730  173.1880  137.2640 C   0  0  0  0  0  0  0  0  0  0  0  0
  180.4260  171.1270  136.4600 C   0  0  0  0  0  3  0  0  0  0  0  0
  181.0900  174.0370  135.0990 C   0  0  0  0  0  2  0  0  0  0  0  0
  179.9830  173.2260  135.8050 C   0  0  1  0  0  3  0  0  0  0  0  0
  180.5850  175.6130  137.0760 C   0  0  1  0  0  3  0  0  0  0  0  0
  181.4710  175.3790  135.8030 C   0  0  1  0  0  0  0  0  0  0  0  0
  183.6950  173.2580  137.0090 O   0  0  0  0  0  1  0  0  0  0  0  0
  184.2200  173.5470  134.8040 O   0  0  0  0  0  0  0  0  0  0  0  0
  183.6570  174.0090  135.9810 C   0  0  0  0  0  0  0  0  0  0  0  0
  188.4960  178.3860  136.5360 C   0  0  0  0  0  0  0  0  0  0  0  0
  188.8980  179.5140  137.2490 O   0  0  0  0  0  1  0  0  0  0  0  0
  189.3260  177.8250  135.7590 O   0  0  0  0  0  0  0  0  0  0  0  0
  1 10  1  1  0  0  0
  1  5  1  0  0  0  0
  2  7  1  6  0  0  0
  2  1  1  0  0  0  0
  3  4  1  0  0  0  0
  3  8  1  1  0  0  0
  4  5  1  0  0  0  0
  6  3  1  0  0  0  0
  7  6  1  0  0  0  0
  9  2  1  0  0  0  0
  9 11  1  0  0  0  0
 11 31  1  6  0  0  0
 11 10  1  0  0  0  0
 12 21  1  0  0  0  0
 16 19  1  0  0  0  0
 17 22  1  0  0  0  0
 18 26  1  0  0  0  0
 18 24  2  0  0  0  0
 19 17  2  0  0  0  0
 20 22  1  1  0  0  0
 20 15  1  0  0  0  0
 21 16  1  6  0  0  0
 21 20  1  0  0  0  0
 23 14  2  0  0  0  0
 23 13  1  0  0  0  0
 24 14  1  0  0  0  0
 25 28  1  0  0  0  0
 26 25  1  6  0  0  0
 26 23  1  0  0  0  0
 27 15  1  1  0  0  0
 27 13  1  0  0  0  0
 28 12  1  6  0  0  0
 28 11  1  0  0  0  0
 28 27  1  0  0  0  0
 30 31  2  0  0  0  0
 31 29  1  0  0  0  0
 32  3  1  0  0  0  0
 32 33  1  0  0  0  0
 34 32  2  0  0  0  0
M  END
>  <MODEL>
3

>  <REMARK>
 VINA RESULT:      -4.8      4.814      8.603
  Name = 
  3 active torsions:
  status: ('A' for Active; 'I' for Inactive)
    1  A    between atoms: C_7  and  C_11
    2  A    between atoms: C_18  and  C_33
    3  A    between atoms: C_33  and  C_34
                            x       y       z     vdW  Elec       q    Type
                         _______ _______ _______ _____ _____    ______ ____

>  <TORSDO>
F 3

$$$$
=
 OpenBabel10272415163D

 34 39  0  0  1  0  0  0  0  0999 V2000
  183.7020  176.0640  137.7870 C   0  0  1  0  0  3  0  0  0  0  0  0
  182.8670  175.9790  136.5450 C   0  0  1  0  0  3  0  0  0  0  0  0
  182.1710  178.4730  138.2920 C   0  0  2  0  0  0  0  0  0  0  0  0
  181.7330  177.1180  138.9560 C   0  0  0  0  0  2  0  0  0  0  0  0
  182.8130  176.0000  139.0620 C   0  0  0  0  0  2  0  0  0  0  0  0
  182.7830  178.3760  137.0030 O   0  0  0  0  0  0  0  0  0  0  0  0
  182.1900  177.3400  136.2480 C   0  0  0  0  0  2  0  0  0  0  0  0
  183.1850  179.1300  139.2070 C   0  0  0  0  0  1  0  0  0  0  0  0
  183.7240  175.6240  135.4890 O   0  0  0  0  0  0  0  0  0  0  0  0
  184.6910  174.9600  137.5730 C   0  0  0  0  0  2  0  0  0  0  0  0
  184.9070  175.0660  136.0420 C   0  0  1  0  0  0  0  0  0  0  0  0
  184.0510  173.1470  134.5290 C   0  0  0  0  0  2  0  0  0  0  0  0
  186.6670  172.5560  137.3240 C   0  0  0  0  0  2  0  0  0  0  0  0
  188.9720  173.2420  136.6390 C   0  0  0  0  0  3  0  0  0  0  0  0
  184.1070  172.2200  137.3450 C   0  0  0  0  0  2  0  0  0  0  0  0
  181.6250  172.6040  134.3540 C   0  0  0  0  0  2  0  0  0  0  0  0
  180.4070  171.7020  136.3520 C   0  0  0  0  0  3  0  0  0  0  0  0
  188.8690  173.1700  134.3690 N   0  0  0  0  0  0  0  0  0  0  0  0
  180.4080  172.0530  135.0520 C   0  0  0  0  0  3  0  0  0  0  0  0
  182.9110  171.9060  136.4290 C   0  0  2  0  0  3  0  0  0  0  0  0
  182.7590  172.9630  135.3160 C   0  0  1  0  0  3  0  0  0  0  0  0
  181.6100  171.9020  137.2370 C   0  0  0  0  0  2  0  0  0  0  0  0
  187.7940  172.7210  136.3510 C   0  0  0  0  0  0  0  0  0  0  0  0
  189.6290  173.4830  135.3650 C   0  0  0  0  0  3  0  0  0  0  0  0
  186.4670  173.6870  134.5140 C   0  0  0  0  0  2  0  0  0  0  0  0
  187.5870  172.6910  134.8790 C   0  0  1  0  0  3  0  0  0  0  0  0
  185.3590  172.4930  136.5120 C   0  0  1  0  0  3  0  0  0  0  0  0
  185.2030  173.6200  135.4310 C   0  0  1  0  0  0  0  0  0  0  0  0
  187.0430  176.0510  136.6160 O   0  0  0  0  0  1  0  0  0  0  0  0
  186.0750  176.9180  134.7360 O   0  0  0  0  0  0  0  0  0  0  0  0
  186.0670  176.0290  135.7970 C   0  0  0  0  0  0  0  0  0  0  0  0
  180.9940  179.4310  138.1590 C   0  0  0  0  0  0  0  0  0  0  0  0
  179.9960  179.4010  139.1310 O   0  0  0  0  0  1  0  0  0  0  0  0
  181.1680  180.4940  137.4920 O   0  0  0  0  0  0  0  0  0  0  0  0
  1 10  1  1  0  0  0
  1  5  1  0  0  0  0
  2  7  1  6  0  0  0
  2  1  1  0  0  0  0
  3  4  1  0  0  0  0
  3  8  1  1  0  0  0
  4  5  1  0  0  0  0
  6  3  1  0  0  0  0
  7  6  1  0  0  0  0
  9 11  1  0  0  0  0
  9  2  1  0  0  0  0
 11 31  1  6  0  0  0
 11 10  1  0  0  0  0
 12 21  1  0  0  0  0
 12 28  1  0  0  0  0
 16 19  1  0  0  0  0
 17 22  1  0  0  0  0
 18 26  1  0  0  0  0
 18 24  2  0  0  0  0
 19 17  2  0  0  0  0
 20 22  1  1  0  0  0
 20 15  1  0  0  0  0
 21 16  1  6  0  0  0
 21 20  1  0  0  0  0
 23 14  2  0  0  0  0
 23 13  1  0  0  0  0
 24 14  1  0  0  0  0
 26 25  1  1  0  0  0
 26 23  1  0  0  0  0
 27 13  1  1  0  0  0
 27 15  1  0  0  0  0
 28 25  1  6  0  0  0
 28 11  1  0  0  0  0
 28 27  1  0  0  0  0
 30 31  2  0  0  0  0
 31 29  1  0  0  0  0
 32  3  1  0  0  0  0
 32 33  1  0  0  0  0
 34 32  2  0  0  0  0
M  END
>  <MODEL>
4

>  <REMARK>
 VINA RESULT:      -4.4      5.156      7.216
  Name = 
  3 active torsions:
  status: ('A' for Active; 'I' for Inactive)
    1  A    between atoms: C_7  and  C_11
    2  A    between atoms: C_18  and  C_33
    3  A    between atoms: C_33  and  C_34
                            x       y       z     vdW  Elec       q    Type
                         _______ _______ _______ _____ _____    ______ ____

>  <TORSDO>
F 3

$$$$
=
 OpenBabel10272415163D

 34 39  0  0  1  0  0  0  0  0999 V2000
  189.2810  176.8730  139.1890 C   0  0  1  0  0  3  0  0  0  0  0  0
  190.6780  177.3800  138.9920 C   0  0  1  0  0  3  0  0  0  0  0  0
  189.8710  177.2250  142.0060 C   0  0  2  0  0  0  0  0  0  0  0  0
  189.1040  178.3510  141.2230 C   0  0  0  0  0  2  0  0  0  0  0  0
  188.3960  177.9380  139.8980 C   0  0  0  0  0  2  0  0  0  0  0  0
  190.8250  176.4710  141.2540 O   0  0  0  0  0  0  0  0  0  0  0  0
  191.4810  177.2960  140.3150 C   0  0  0  0  0  2  0  0  0  0  0  0
  188.8420  176.2370  142.5190 C   0  0  0  0  0  1  0  0  0  0  0  0
  191.2790  176.5770  138.0080 O   0  0  0  0  0  0  0  0  0  0  0  0
  188.9000  176.4650  137.8000 C   0  0  0  0  0  2  0  0  0  0  0  0
  190.2540  175.9140  137.2840 C   0  0  1  0  0  0  0  0  0  0  0  0
  189.3950  177.2550  135.2430 C   0  0  0  0  0  2  0  0  0  0  0  0
  191.1620  173.8300  134.8610 C   0  0  0  0  0  2  0  0  0  0  0  0
  193.6500  174.0100  135.0380 C   0  0  0  0  0  3  0  0  0  0  0  0
  188.6450  174.4040  134.9230 C   0  0  0  0  0  2  0  0  0  0  0  0
  187.0090  177.9480  135.0430 C   0  0  0  0  0  2  0  0  0  0  0  0
  185.2280  176.2040  134.7690 C   0  0  0  0  0  3  0  0  0  0  0  0
  194.0380  176.1870  134.5120 N   0  0  0  0  0  0  0  0  0  0  0  0
  185.5850  177.5010  134.8380 C   0  0  0  0  0  3  0  0  0  0  0  0
  187.6440  175.5290  134.6080 C   0  0  2  0  0  3  0  0  0  0  0  0
  187.9500  176.8030  135.4210 C   0  0  1  0  0  3  0  0  0  0  0  0
  186.2220  175.0880  134.9670 C   0  0  0  0  0  2  0  0  0  0  0  0
  192.4860  174.4970  134.6500 C   0  0  0  0  0  0  0  0  0  0  0  0
  194.6060  175.0980  134.9080 C   0  0  0  0  0  3  0  0  0  0  0  0
  191.8120  176.7450  135.4010 C   0  0  0  0  0  2  0  0  0  0  0  0
  192.6080  175.9480  134.3460 C   0  0  1  0  0  3  0  0  0  0  0  0
  190.0790  174.9250  134.8270 C   0  0  1  0  0  3  0  0  0  0  0  0
  190.3890  176.1810  135.7150 C   0  0  1  0  0  0  0  0  0  0  0  0
  191.4350  173.8680  137.8150 O   0  0  0  0  0  1  0  0  0  0  0  0
  189.1690  173.6350  137.6420 O   0  0  0  0  0  0  0  0  0  0  0  0
  190.3070  174.4220  137.6090 C   0  0  0  0  0  0  0  0  0  0  0  0
  190.6000  177.7890  143.2180 C   0  0  0  0  0  0  0  0  0  0  0  0
  191.5750  177.0080  143.8350 O   0  0  0  0  0  1  0  0  0  0  0  0
  190.6560  179.0490  143.3410 O   0  0  0  0  0  0  0  0  0  0  0  0
  1 10  1  6  0  0  0
  1  5  1  0  0  0  0
  2  1  1  0  0  0  0
  2  7  1  1  0  0  0
  3  8  1  1  0  0  0
  3 32  1  0  0  0  0
  4  3  1  0  0  0  0
  5  4  1  0  0  0  0
  6  3  1  0  0  0  0
  7  6  1  0  0  0  0
  9  2  1  0  0  0  0
 11 31  1  1  0  0  0
 11 10  1  0  0  0  0
 11  9  1  0  0  0  0
 12 21  1  0  0  0  0
 17 19  2  0  0  0  0
 17 22  1  0  0  0  0
 18 24  2  0  0  0  0
 19 16  1  0  0  0  0
 20 15  1  1  0  0  0
 20 22  1  0  0  0  0
 20 21  1  0  0  0  0
 21 16  1  6  0  0  0
 23 13  1  0  0  0  0
 23 14  2  0  0  0  0
 24 14  1  0  0  0  0
 25 28  1  0  0  0  0
 26 18  1  0  0  0  0
 26 23  1  0  0  0  0
 26 25  1  1  0  0  0
 27 13  1  1  0  0  0
 27 15  1  0  0  0  0
 27 28  1  0  0  0  0
 28 12  1  6  0  0  0
 28 11  1  0  0  0  0
 31 30  2  0  0  0  0
 31 29  1  0  0  0  0
 32 34  2  0  0  0  0
 32 33  1  0  0  0  0
M  END
>  <MODEL>
5

>  <REMARK>
 VINA RESULT:      -4.3      1.829      2.745
  Name = 
  3 active torsions:
  status: ('A' for Active; 'I' for Inactive)
    1  A    between atoms: C_7  and  C_11
    2  A    between atoms: C_18  and  C_33
    3  A    between atoms: C_33  and  C_34
                            x       y       z     vdW  Elec       q    Type
                         _______ _______ _______ _____ _____    ______ ____

>  <TORSDO>
F 3

$$$$
=
 OpenBabel10272415163D

 34 39  0  0  1  0  0  0  0  0999 V2000
  186.3530  177.4800  136.2990 C   0  0  1  0  0  3  0  0  0  0  0  0
  186.4230  176.0240  136.6520 C   0  0  1  0  0  3  0  0  0  0  0  0
  189.1460  177.4960  137.0730 C   0  0  2  0  0  0  0  0  0  0  0  0
  188.7580  177.3470  135.5580 C   0  0  0  0  0  2  0  0  0  0  0  0
  187.3330  177.8210  135.1410 C   0  0  0  0  0  2  0  0  0  0  0  0
  188.2360  176.9260  138.0170 O   0  0  0  0  0  0  0  0  0  0  0  0
  187.6790  175.7310  137.5100 C   0  0  0  0  0  2  0  0  0  0  0  0
  189.2270  178.9770  137.3850 C   0  0  0  0  0  1  0  0  0  0  0  0
  185.2590  175.7130  137.3740 O   0  0  0  0  0  0  0  0  0  0  0  0
  184.8880  177.6690  136.0490 C   0  0  0  0  0  2  0  0  0  0  0  0
  184.2930  176.7220  137.1230 C   0  0  1  0  0  0  0  0  0  0  0  0
  182.7600  174.6370  137.0640 C   0  0  0  0  0  2  0  0  0  0  0  0
  182.5940  177.3910  134.3460 C   0  0  0  0  0  2  0  0  0  0  0  0
  181.3050  179.3990  135.0940 C   0  0  0  0  0  3  0  0  0  0  0  0
  183.8420  175.1300  134.3470 C   0  0  0  0  0  2  0  0  0  0  0  0
  183.6950  172.3270  137.0630 C   0  0  0  0  0  2  0  0  0  0  0  0
  185.0230  171.5250  135.0920 C   0  0  0  0  0  3  0  0  0  0  0  0
  179.9860  178.5670  136.7480 N   0  0  0  0  0  0  0  0  0  0  0  0
  184.4630  171.2830  136.2930 C   0  0  0  0  0  3  0  0  0  0  0  0
  183.7870  173.7090  134.9350 C   0  0  2  0  0  3  0  0  0  0  0  0
  183.8370  173.7320  136.4770 C   0  0  1  0  0  3  0  0  0  0  0  0
  184.9870  172.8890  134.4520 C   0  0  0  0  0  2  0  0  0  0  0  0
  181.4890  178.0920  135.0740 C   0  0  0  0  0  0  0  0  0  0  0  0
  180.3300  179.6530  136.1410 C   0  0  0  0  0  3  0  0  0  0  0  0
  181.7160  176.8770  137.2050 C   0  0  0  0  0  2  0  0  0  0  0  0
  180.7220  177.4450  136.1710 C   0  0  1  0  0  3  0  0  0  0  0  0
  182.8120  176.0290  135.0320 C   0  0  1  0  0  3  0  0  0  0  0  0
  182.9220  176.0930  136.5950 C   0  0  1  0  0  0  0  0  0  0  0  0
  184.2680  178.7950  138.3740 O   0  0  0  0  0  0  0  0  0  0  0  0
  183.7480  176.9400  139.6030 O   0  0  0  0  0  1  0  0  0  0  0  0
  184.0850  177.5350  138.4000 C   0  0  0  0  0  0  0  0  0  0  0  0
  190.5180  176.8990  137.3540 C   0  0  0  0  0  0  0  0  0  0  0  0
  190.8880  176.6710  138.6790 O   0  0  0  0  0  1  0  0  0  0  0  0
  191.0660  176.2150  136.4390 O   0  0  0  0  0  0  0  0  0  0  0  0
  1  5  1  6  0  0  0
  1  2  1  0  0  0  0
  2  9  1  0  0  0  0
  2  7  1  1  0  0  0
  3 32  1  0  0  0  0
  3  8  1  1  0  0  0
  3  6  1  0  0  0  0
  4  3  1  0  0  0  0
  5  4  1  0  0  0  0
  7  6  1  0  0  0  0
 10  1  1  0  0  0  0
 10 11  1  0  0  0  0
 11  9  1  0  0  0  0
 11 31  1  1  0  0  0
 13 23  1  0  0  0  0
 14 24  1  0  0  0  0
 15 27  1  0  0  0  0
 17 19  2  0  0  0  0
 19 16  1  0  0  0  0
 20 15  1  6  0  0  0
 20 21  1  0  0  0  0
 21 16  1  1  0  0  0
 21 12  1  0  0  0  0
 22 20  1  0  0  0  0
 22 17  1  0  0  0  0
 23 14  2  0  0  0  0
 23 26  1  0  0  0  0
 24 18  2  0  0  0  0
 26 18  1  0  0  0  0
 26 25  1  1  0  0  0
 27 13  1  6  0  0  0
 27 28  1  0  0  0  0
 28 12  1  1  0  0  0
 28 11  1  0  0  0  0
 28 25  1  0  0  0  0
 29 31  2  0  0  0  0
 31 30  1  0  0  0  0
 32 33  1  0  0  0  0
 34 32  2  0  0  0  0
M  END
>  <MODEL>
6

>  <REMARK>
 VINA RESULT:      -4.3      4.179      7.572
  Name = 
  3 active torsions:
  status: ('A' for Active; 'I' for Inactive)
    1  A    between atoms: C_7  and  C_11
    2  A    between atoms: C_18  and  C_33
    3  A    between atoms: C_33  and  C_34
                            x       y       z     vdW  Elec       q    Type
                         _______ _______ _______ _____ _____    ______ ____

>  <TORSDO>
F 3

$$$$
=
 OpenBabel10272415163D

 34 39  0  0  1  0  0  0  0  0999 V2000
  185.2510  176.2950  136.5410 C   0  0  1  0  0  3  0  0  0  0  0  0
  184.8520  177.0480  137.7740 C   0  0  1  0  0  3  0  0  0  0  0  0
  187.7880  177.6530  136.8920 C   0  0  2  0  0  0  0  0  0  0  0  0
  187.6020  176.1940  137.4440 C   0  0  0  0  0  2  0  0  0  0  0  0
  186.4490  175.3450  136.8300 C   0  0  0  0  0  2  0  0  0  0  0  0
  186.6240  178.4840  136.9000 O   0  0  0  0  0  0  0  0  0  0  0  0
  185.8320  178.2190  138.0390 C   0  0  0  0  0  2  0  0  0  0  0  0
  188.2380  177.5480  135.4490 C   0  0  0  0  0  1  0  0  0  0  0  0
  183.5540  177.5410  137.5610 O   0  0  0  0  0  0  0  0  0  0  0  0
  183.9550  175.6720  136.1240 C   0  0  0  0  0  2  0  0  0  0  0  0
  182.9630  176.8010  136.5030 C   0  0  1  0  0  0  0  0  0  0  0  0
  180.5720  177.2650  137.3820 C   0  0  0  0  0  2  0  0  0  0  0  0
  182.3240  173.8470  137.8820 C   0  0  0  0  0  2  0  0  0  0  0  0
  182.2360  172.4170  135.8330 C   0  0  0  0  0  3  0  0  0  0  0  0
  182.1300  175.8650  139.4810 C   0  0  0  0  0  2  0  0  0  0  0  0
  180.0940  179.1530  138.9370 C   0  0  0  0  0  2  0  0  0  0  0  0
  181.0450  179.1230  141.2570 C   0  0  0  0  0  3  0  0  0  0  0  0
  180.4530  173.2600  134.7030 N   0  0  0  0  0  0  0  0  0  0  0  0
  180.2770  179.7150  140.3240 C   0  0  0  0  0  3  0  0  0  0  0  0
  181.2290  177.0640  139.8260 C   0  0  2  0  0  3  0  0  0  0  0  0
  181.0590  178.0090  138.6200 C   0  0  1  0  0  3  0  0  0  0  0  0
  181.8480  177.8820  140.9640 C   0  0  0  0  0  2  0  0  0  0  0  0
  181.6830  173.2980  136.6440 C   0  0  0  0  0  0  0  0  0  0  0  0
  181.4140  172.4010  134.6340 C   0  0  0  0  0  3  0  0  0  0  0  0
  180.9030  175.4490  135.7320 C   0  0  0  0  0  2  0  0  0  0  0  0
  180.5380  173.9700  135.9750 C   0  0  1  0  0  3  0  0  0  0  0  0
  181.6650  175.2070  138.1820 C   0  0  1  0  0  3  0  0  0  0  0  0
  181.5640  176.1720  136.9490 C   0  0  1  0  0  0  0  0  0  0  0  0
  183.6620  177.6510  134.3460 O   0  0  0  0  0  0  0  0  0  0  0  0
  181.7920  178.6510  135.1970 O   0  0  0  0  0  1  0  0  0  0  0  0
  182.8080  177.7160  135.2890 C   0  0  0  0  0  0  0  0  0  0  0  0
  188.8760  178.3990  137.6530 C   0  0  0  0  0  0  0  0  0  0  0  0
  190.0320  177.7080  138.0140 O   0  0  0  0  0  1  0  0  0  0  0  0
  188.9300  179.6580  137.5280 O   0  0  0  0  0  0  0  0  0  0  0  0
  1 10  1  1  0  0  0
  1  5  1  0  0  0  0
  1  2  1  0  0  0  0
  2  7  1  6  0  0  0
  3  8  1  6  0  0  0
  3  6  1  0  0  0  0
  3  4  1  0  0  0  0
  3 32  1  0  0  0  0
  5  4  1  0  0  0  0
  6  7  1  0  0  0  0
  9  2  1  0  0  0  0
 10 11  1  0  0  0  0
 11 31  1  6  0  0  0
 11 28  1  0  0  0  0
 11  9  1  0  0  0  0
 14 23  2  0  0  0  0
 16 19  1  0  0  0  0
 18 26  1  0  0  0  0
 19 17  2  0  0  0  0
 20 15  1  6  0  0  0
 20 22  1  0  0  0  0
 21 12  1  6  0  0  0
 21 16  1  0  0  0  0
 21 20  1  0  0  0  0
 22 17  1  0  0  0  0
 23 13  1  0  0  0  0
 24 18  2  0  0  0  0
 24 14  1  0  0  0  0
 26 25  1  6  0  0  0
 26 23  1  0  0  0  0
 27 13  1  6  0  0  0
 27 15  1  0  0  0  0
 28 25  1  6  0  0  0
 28 12  1  0  0  0  0
 28 27  1  0  0  0  0
 29 31  2  0  0  0  0
 30 31  1  0  0  0  0
 32 33  1  0  0  0  0
 34 32  2  0  0  0  0
M  END
>  <MODEL>
7

>  <REMARK>
 VINA RESULT:      -4.2      4.532      8.086
  Name = 
  3 active torsions:
  status: ('A' for Active; 'I' for Inactive)
    1  A    between atoms: C_7  and  C_11
    2  A    between atoms: C_18  and  C_33
    3  A    between atoms: C_33  and  C_34
                            x       y       z     vdW  Elec       q    Type
                         _______ _______ _______ _____ _____    ______ ____

>  <TORSDO>
F 3

$$$$
=
 OpenBabel10272415163D

 34 39  0  0  1  0  0  0  0  0999 V2000
  187.6130  175.0600  135.8890 C   0  0  1  0  0  3  0  0  0  0  0  0
  187.2230  175.1630  137.3320 C   0  0  1  0  0  3  0  0  0  0  0  0
  190.2680  175.6910  136.8680 C   0  0  2  0  0  0  0  0  0  0  0  0
  189.8620  174.1920  136.6270 C   0  0  0  0  0  2  0  0  0  0  0  0
  188.6590  173.9280  135.6720 C   0  0  0  0  0  2  0  0  0  0  0  0
  189.2190  176.5700  137.2840 O   0  0  0  0  0  0  0  0  0  0  0  0
  188.3200  175.9000  138.1420 C   0  0  0  0  0  2  0  0  0  0  0  0
  190.8040  176.2400  135.5620 C   0  0  0  0  0  1  0  0  0  0  0  0
  186.0160  175.8780  137.3890 O   0  0  0  0  0  0  0  0  0  0  0  0
  186.2830  174.9140  135.2170 C   0  0  0  0  0  2  0  0  0  0  0  0
  185.4150  175.8440  136.1030 C   0  0  1  0  0  0  0  0  0  0  0  0
  182.8920  176.4190  136.0200 C   0  0  0  0  0  2  0  0  0  0  0  0
  184.2210  173.2300  137.7720 C   0  0  0  0  0  2  0  0  0  0  0  0
  184.7500  171.3990  136.1540 C   0  0  0  0  0  3  0  0  0  0  0  0
  183.6020  175.5350  138.7600 C   0  0  0  0  0  2  0  0  0  0  0  0
  182.0140  178.5790  136.9000 C   0  0  0  0  0  2  0  0  0  0  0  0
  182.1420  179.0640  139.3580 C   0  0  0  0  0  3  0  0  0  0  0  0
  183.4820  171.9370  134.3460 N   0  0  0  0  0  0  0  0  0  0  0  0
  181.7530  179.4250  138.1200 C   0  0  0  0  0  3  0  0  0  0  0  0
  182.6940  176.7550  138.5300 C   0  0  2  0  0  3  0  0  0  0  0  0
  182.9750  177.4200  137.1670 C   0  0  1  0  0  3  0  0  0  0  0  0
  182.9390  177.8100  139.6130 C   0  0  0  0  0  2  0  0  0  0  0  0
  184.0010  172.4170  136.5340 C   0  0  0  0  0  0  0  0  0  0  0  0
  184.3710  171.1090  134.7810 C   0  0  0  0  0  3  0  0  0  0  0  0
  183.6660  174.3060  134.9890 C   0  0  0  0  0  2  0  0  0  0  0  0
  183.1730  172.9020  135.3980 C   0  0  1  0  0  3  0  0  0  0  0  0
  183.5640  174.6050  137.5470 C   0  0  1  0  0  3  0  0  0  0  0  0
  183.9200  175.2860  136.1790 C   0  0  1  0  0  0  0  0  0  0  0  0
  184.9610  177.4470  134.3460 O   0  0  0  0  0  0  0  0  0  0  0  0
  186.0780  178.3050  136.1450 O   0  0  0  0  0  1  0  0  0  0  0  0
  185.4630  177.2470  135.4990 C   0  0  0  0  0  0  0  0  0  0  0  0
  191.3830  175.8040  137.8990 C   0  0  0  0  0  0  0  0  0  0  0  0
  191.4690  176.9650  138.6660 O   0  0  0  0  0  1  0  0  0  0  0  0
  191.8790  174.7300  138.3550 O   0  0  0  0  0  0  0  0  0  0  0  0
  1 10  1  6  0  0  0
  1  2  1  0  0  0  0
  2  9  1  0  0  0  0
  2  7  1  1  0  0  0
  3  8  1  6  0  0  0
  3  6  1  0  0  0  0
  3 32  1  0  0  0  0
  4  3  1  0  0  0  0
  5  1  1  0  0  0  0
  5  4  1  0  0  0  0
  6  7  1  0  0  0  0
 10 11  1  0  0  0  0
 11 31  1  6  0  0  0
 11 28  1  0  0  0  0
 11  9  1  0  0  0  0
 12 28  1  0  0  0  0
 14 23  2  0  0  0  0
 16 21  1  0  0  0  0
 16 19  1  0  0  0  0
 17 22  1  0  0  0  0
 18 24  2  0  0  0  0
 18 26  1  0  0  0  0
 19 17  2  0  0  0  0
 20 15  1  1  0  0  0
 20 22  1  0  0  0  0
 21 12  1  6  0  0  0
 21 20  1  0  0  0  0
 23 13  1  0  0  0  0
 24 14  1  0  0  0  0
 26 25  1  6  0  0  0
 26 23  1  0  0  0  0
 27 13  1  1  0  0  0
 27 15  1  0  0  0  0
 28 25  1  6  0  0  0
 28 27  1  0  0  0  0
 29 31  2  0  0  0  0
 31 30  1  0  0  0  0
 32 34  2  0  0  0  0
 32 33  1  0  0  0  0
M  END
>  <MODEL>
8

>  <REMARK>
 VINA RESULT:      -4.1      3.839      6.529
  Name = 
  3 active torsions:
  status: ('A' for Active; 'I' for Inactive)
    1  A    between atoms: C_7  and  C_11
    2  A    between atoms: C_18  and  C_33
    3  A    between atoms: C_33  and  C_34
                            x       y       z     vdW  Elec       q    Type
                         _______ _______ _______ _____ _____    ______ ____

>  <TORSDO>
F 3

$$$$
=
 OpenBabel10272415163D

 34 39  0  0  1  0  0  0  0  0999 V2000
  185.1320  176.9490  136.2430 C   0  0  1  0  0  3  0  0  0  0  0  0
  184.8270  175.6210  136.8680 C   0  0  1  0  0  3  0  0  0  0  0  0
  187.8390  175.9220  136.0940 C   0  0  2  0  0  0  0  0  0  0  0  0
  186.8930  175.8110  134.8450 C   0  0  0  0  0  2  0  0  0  0  0  0
  185.6690  176.7740  134.7940 C   0  0  0  0  0  2  0  0  0  0  0  0
  187.2060  175.8420  137.3740 O   0  0  0  0  0  0  0  0  0  0  0  0
  186.1300  174.9280  137.3400 C   0  0  0  0  0  2  0  0  0  0  0  0
  188.5280  177.2700  136.0330 C   0  0  0  0  0  1  0  0  0  0  0  0
  183.9810  175.8590  137.9640 O   0  0  0  0  0  0  0  0  0  0  0  0
  183.8380  177.6810  136.4210 C   0  0  0  0  0  2  0  0  0  0  0  0
  183.3970  177.1440  137.8070 C   0  0  1  0  0  0  0  0  0  0  0  0
  181.3240  175.6290  138.1420 C   0  0  0  0  0  2  0  0  0  0  0  0
  181.1220  179.0100  136.2630 C   0  0  0  0  0  2  0  0  0  0  0  0
  181.0310  180.9660  137.8170 C   0  0  0  0  0  3  0  0  0  0  0  0
  181.3750  176.6100  135.3440 C   0  0  0  0  0  2  0  0  0  0  0  0
  181.2930  173.2640  137.3570 C   0  0  0  0  0  2  0  0  0  0  0  0
  181.3770  172.7700  134.9000 C   0  0  0  0  0  3  0  0  0  0  0  0
  180.2480  180.0470  139.7430 N   0  0  0  0  0  0  0  0  0  0  0  0
  181.2770  172.3350  136.1700 C   0  0  0  0  0  3  0  0  0  0  0  0
  181.0470  175.1410  135.6660 C   0  0  2  0  0  3  0  0  0  0  0  0
  181.6910  174.6960  136.9950 C   0  0  1  0  0  3  0  0  0  0  0  0
  181.5880  174.2240  134.5650 C   0  0  0  0  0  2  0  0  0  0  0  0
  180.7130  179.7220  137.5150 C   0  0  0  0  0  0  0  0  0  0  0  0
  180.6960  181.1400  139.2210 C   0  0  0  0  0  3  0  0  0  0  0  0
  181.2920  177.9160  139.0890 C   0  0  0  0  0  2  0  0  0  0  0  0
  180.2510  178.9970  138.7290 C   0  0  1  0  0  3  0  0  0  0  0  0
  181.0840  177.4980  136.5540 C   0  0  1  0  0  3  0  0  0  0  0  0
  181.8030  177.0670  137.8800 C   0  0  1  0  0  0  0  0  0  0  0  0
  184.1490  177.6370  140.0550 O   0  0  0  0  0  1  0  0  0  0  0  0
  184.2480  179.4070  138.6140 O   0  0  0  0  0  0  0  0  0  0  0  0
  183.9660  178.0780  138.8740 C   0  0  0  0  0  0  0  0  0  0  0  0
  188.9250  174.8550  136.0630 C   0  0  0  0  0  0  0  0  0  0  0  0
  189.6130  174.5680  137.2410 O   0  0  0  0  0  1  0  0  0  0  0  0
  188.8590  173.9680  135.1610 O   0  0  0  0  0  0  0  0  0  0  0  0
  1  5  1  6  0  0  0
  1 10  1  0  0  0  0
  1  2  1  0  0  0  0
  2  7  1  1  0  0  0
  2  9  1  0  0  0  0
  3  8  1  6  0  0  0
  3  6  1  0  0  0  0
  4  3  1  0  0  0  0
  5  4  1  0  0  0  0
  7  6  1  0  0  0  0
 10 11  1  0  0  0  0
 11 28  1  0  0  0  0
 11  9  1  0  0  0  0
 11 31  1  1  0  0  0
 13 27  1  0  0  0  0
 13 23  1  0  0  0  0
 14 24  1  0  0  0  0
 15 20  1  0  0  0  0
 17 19  2  0  0  0  0
 19 16  1  0  0  0  0
 20 22  1  6  0  0  0
 20 21  1  0  0  0  0
 21 16  1  1  0  0  0
 21 12  1  0  0  0  0
 22 17  1  0  0  0  0
 23 14  2  0  0  0  0
 23 26  1  0  0  0  0
 24 18  2  0  0  0  0
 26 25  1  1  0  0  0
 26 18  1  0  0  0  0
 27 15  1  6  0  0  0
 27 28  1  0  0  0  0
 28 12  1  1  0  0  0
 28 25  1  0  0  0  0
 30 31  2  0  0  0  0
 31 29  1  0  0  0  0
 32  3  1  0  0  0  0
 32 33  1  0  0  0  0
 34 32  2  0  0  0  0
M  END
>  <MODEL>
9

>  <REMARK>
 VINA RESULT:      -4.0      5.067      8.547
  Name = 
  3 active torsions:
  status: ('A' for Active; 'I' for Inactive)
    1  A    between atoms: C_7  and  C_11
    2  A    between atoms: C_18  and  C_33
    3  A    between atoms: C_33  and  C_34
                            x       y       z     vdW  Elec       q    Type
                         _______ _______ _______ _____ _____    ______ ____

>  <TORSDO>
F 3

$$$$
