=
 OpenBabel10272400283D

 31 35  0  0  0  0  0  0  0  0999 V2000
  187.4360  178.1400  143.3470 C   0  0  0  0  0  0  0  0  0  0  0  0
  186.1560  178.3610  143.9010 C   0  0  0  0  0  0  0  0  0  0  0  0
  184.5900  178.3380  145.7620 C   0  0  0  0  0  0  0  0  0  0  0  0
  188.6040  177.6770  144.1110 C   0  0  0  0  0  0  0  0  0  0  0  0
  190.2030  177.0960  145.5410 C   0  0  0  0  0  0  0  0  0  0  0  0
  185.8690  178.1050  145.2510 C   0  0  0  0  0  3  0  0  0  0  0  0
  189.0030  178.1540  141.3030 C   0  0  0  0  0  0  0  0  0  0  0  0
  185.3810  179.1200  141.7570 N   0  0  0  0  0  0  0  0  0  0  0  0
  184.3260  178.0870  147.0660 F   0  0  0  0  0  0  0  0  0  0  0  0
  190.0960  177.8170  142.2360 N   0  0  0  0  0  4  0  0  0  0  0  0
  187.6580  178.4130  141.9780 C   0  0  0  0  0  0  0  0  0  0  0  0
  188.7630  177.4020  145.3970 C   0  0  0  0  0  3  0  0  0  0  0  0
  183.5830  178.8310  144.9290 C   0  0  0  0  0  3  0  0  0  0  0  0
  189.8850  177.5700  143.4900 C   0  0  0  0  0  0  0  0  0  0  0  0
  190.8730  177.2130  144.4360 N   0  0  0  0  0  0  0  0  0  0  0  0
  186.6040  178.9080  141.2050 C   0  0  0  0  0  3  0  0  0  0  0  0
  185.1300  178.8600  143.0660 C   0  0  0  0  0  0  0  0  0  0  0  0
  183.8520  179.0930  143.5830 C   0  0  0  0  0  3  0  0  0  0  0  0
  189.2570  178.4610  138.4870 O   0  0  0  0  0  0  0  0  0  0  0  0
  189.0120  177.3000  138.9150 C   0  0  0  0  0  0  0  0  0  0  0  0
  188.8570  177.0870  140.3220 N   0  0  0  0  0  2  0  0  0  0  0  0
  188.5070  174.0230  136.2160 C   0  0  0  0  0  0  0  0  0  0  0  0
  187.6100  175.8810  137.4470 C   0  0  0  0  0  3  0  0  0  0  0  0
  191.3430  175.5120  138.1040 C   0  0  0  0  0  1  0  0  0  0  0  0
  188.3240  172.8860  135.2780 C   0  0  0  0  0  1  0  0  0  0  0  0
  187.4180  174.8190  136.5650 C   0  0  0  0  0  3  0  0  0  0  0  0
  189.9540  175.3160  137.5970 C   0  0  0  0  0  0  0  0  0  0  0  0
  188.8760  176.1530  137.9810 C   0  0  0  0  0  0  0  0  0  0  0  0
  189.7350  174.2870  136.7330 N   0  0  0  0  0  0  0  0  0  0  0  0
  190.8540  176.7710  146.8390 C   0  0  0  0  0  2  0  0  0  0  0  0
  192.1850  176.4170  146.6200 O   0  0  0  0  0  1  0  0  0  0  0  0
  1  2  1  0  0  0  0
  1  4  1  0  0  0  0
  2  6  1  0  0  0  0
  3  9  1  0  0  0  0
  4 12  2  0  0  0  0
  5 30  1  0  0  0  0
  6  3  2  0  0  0  0
  7 11  1  0  0  0  0
  7 10  2  0  0  0  0
  8 17  1  0  0  0  0
 10 14  2  0  0  0  0
 11  1  2  0  0  0  0
 12  5  1  0  0  0  0
 13  3  1  0  0  0  0
 14  4  1  0  0  0  0
 14 15  1  0  0  0  0
 15  5  2  0  0  0  0
 16  8  2  0  0  0  0
 16 11  1  0  0  0  0
 17 18  1  0  0  0  0
 17  2  2  0  0  0  0
 18 13  2  0  0  0  0
 19 20  2  0  0  0  0
 20 21  1  0  0  0  0
 21  7  1  0  0  0  0
 22 26  2  0  0  0  0
 22 29  1  0  0  0  0
 23 28  2  0  0  0  0
 25 22  1  0  0  0  0
 26 23  1  0  0  0  0
 27 28  1  0  0  0  0
 27 24  1  0  0  0  0
 28 20  1  0  0  0  0
 29 27  2  0  0  0  0
 31 30  1  0  0  0  0
M  END
>  <MODEL>
1

>  <REMARK>
 VINA RESULT:      -9.9      0.000      0.000
  Name = 
  3 active torsions:
  status: ('A' for Active; 'I' for Inactive)
    1  A    between atoms: C_2  and  CA_13
    2  A    between atoms: C_9  and  C_22
    3  A    between atoms: C_15  and  N_23
                            x       y       z     vdW  Elec       q    Type
                         _______ _______ _______ _____ _____    ______ ____

>  <TORSDO>
F 3

$$$$
=
 OpenBabel10272400283D

 31 35  0  0  0  0  0  0  0  0999 V2000
  187.4790  178.1130  143.2950 C   0  0  0  0  0  0  0  0  0  0  0  0
  186.1940  178.3360  143.8370 C   0  0  0  0  0  0  0  0  0  0  0  0
  184.6130  178.3240  145.6840 C   0  0  0  0  0  0  0  0  0  0  0  0
  188.6410  177.6570  144.0720 C   0  0  0  0  0  0  0  0  0  0  0  0
  190.2290  177.0870  145.5190 C   0  0  0  0  0  0  0  0  0  0  0  0
  185.8970  178.0880  145.1860 C   0  0  0  0  0  3  0  0  0  0  0  0
  189.0630  178.1160  141.2640 C   0  0  0  0  0  0  0  0  0  0  0  0
  185.4370  179.0800  141.6810 N   0  0  0  0  0  0  0  0  0  0  0  0
  184.3380  178.0810  146.9880 F   0  0  0  0  0  0  0  0  0  0  0  0
  190.1490  177.7870  142.2080 N   0  0  0  0  0  4  0  0  0  0  0  0
  187.7120  178.3780  141.9260 C   0  0  0  0  0  0  0  0  0  0  0  0
  188.7900  177.3910  145.3610 C   0  0  0  0  0  3  0  0  0  0  0  0
  183.6120  178.8100  144.8390 C   0  0  0  0  0  3  0  0  0  0  0  0
  189.9280  177.5470  143.4620 C   0  0  0  0  0  0  0  0  0  0  0  0
  190.9090  177.1970  144.4180 N   0  0  0  0  0  0  0  0  0  0  0  0
  186.6640  178.8670  141.1410 C   0  0  0  0  0  3  0  0  0  0  0  0
  185.1750  178.8290  142.9890 C   0  0  0  0  0  0  0  0  0  0  0  0
  183.8930  179.0630  143.4940 C   0  0  0  0  0  3  0  0  0  0  0  0
  189.3980  178.3930  138.4540 O   0  0  0  0  0  0  0  0  0  0  0  0
  189.1230  177.2400  138.8850 C   0  0  0  0  0  0  0  0  0  0  0  0
  188.9270  177.0420  140.2890 N   0  0  0  0  0  2  0  0  0  0  0  0
  188.8630  173.8910  136.2410 C   0  0  0  0  0  0  0  0  0  0  0  0
  190.0930  175.2310  137.8090 C   0  0  0  0  0  3  0  0  0  0  0  0
  186.5950  176.6440  137.2900 C   0  0  0  0  0  1  0  0  0  0  0  0
  188.7800  172.7250  135.3240 C   0  0  0  0  0  1  0  0  0  0  0  0
  190.0350  174.1320  136.9540 C   0  0  0  0  0  3  0  0  0  0  0  0
  187.8240  175.8010  137.2120 C   0  0  0  0  0  0  0  0  0  0  0  0
  188.9940  176.0870  137.9580 C   0  0  0  0  0  0  0  0  0  0  0  0
  187.7970  174.7200  136.3850 N   0  0  0  0  0  0  0  0  0  0  0  0
  190.8690  176.7710  146.8240 C   0  0  0  0  0  2  0  0  0  0  0  0
  192.2010  176.4110  146.6190 O   0  0  0  0  0  1  0  0  0  0  0  0
  1  2  1  0  0  0  0
  1  4  1  0  0  0  0
  2  6  1  0  0  0  0
  3  9  1  0  0  0  0
  4 12  2  0  0  0  0
  5 30  1  0  0  0  0
  6  3  2  0  0  0  0
  7 11  1  0  0  0  0
  7 10  2  0  0  0  0
  8 17  1  0  0  0  0
 10 14  2  0  0  0  0
 11  1  2  0  0  0  0
 12  5  1  0  0  0  0
 13  3  1  0  0  0  0
 14  4  1  0  0  0  0
 14 15  1  0  0  0  0
 15  5  2  0  0  0  0
 16  8  2  0  0  0  0
 16 11  1  0  0  0  0
 17 18  1  0  0  0  0
 17  2  2  0  0  0  0
 18 13  2  0  0  0  0
 19 20  2  0  0  0  0
 20 21  1  0  0  0  0
 21  7  1  0  0  0  0
 22 29  2  0  0  0  0
 22 26  1  0  0  0  0
 23 28  1  0  0  0  0
 25 22  1  0  0  0  0
 26 23  2  0  0  0  0
 27 24  1  0  0  0  0
 27 28  2  0  0  0  0
 28 20  1  0  0  0  0
 29 27  1  0  0  0  0
 31 30  1  0  0  0  0
M  END
>  <MODEL>
2

>  <REMARK>
 VINA RESULT:      -9.9      0.516      1.247
  Name = 
  3 active torsions:
  status: ('A' for Active; 'I' for Inactive)
    1  A    between atoms: C_2  and  CA_13
    2  A    between atoms: C_9  and  C_22
    3  A    between atoms: C_15  and  N_23
                            x       y       z     vdW  Elec       q    Type
                         _______ _______ _______ _____ _____    ______ ____

>  <TORSDO>
F 3

$$$$
=
 OpenBabel10272400283D

 31 35  0  0  0  0  0  0  0  0999 V2000
  187.5070  178.0570  143.7220 C   0  0  0  0  0  0  0  0  0  0  0  0
  187.7410  177.7640  145.0840 C   0  0  0  0  0  0  0  0  0  0  0  0
  189.1410  176.9330  146.8910 C   0  0  0  0  0  0  0  0  0  0  0  0
  188.4960  177.8700  142.6500 C   0  0  0  0  0  0  0  0  0  0  0  0
  190.2250  177.5970  141.2800 C   0  0  0  0  0  0  0  0  0  0  0  0
  188.9490  177.2080  145.5340 C   0  0  0  0  0  3  0  0  0  0  0  0
  185.9300  178.9100  141.8740 C   0  0  0  0  0  0  0  0  0  0  0  0
  185.5450  178.5840  145.6150 N   0  0  0  0  0  0  0  0  0  0  0  0
  190.3110  176.3980  147.3130 F   0  0  0  0  0  0  0  0  0  0  0  0
  187.0740  178.7880  140.9490 N   0  0  0  0  0  4  0  0  0  0  0  0
  186.2670  178.6120  143.3330 C   0  0  0  0  0  0  0  0  0  0  0  0
  189.7520  177.4490  142.6730 C   0  0  0  0  0  3  0  0  0  0  0  0
  188.1290  177.2130  147.8120 C   0  0  0  0  0  3  0  0  0  0  0  0
  188.2080  178.2810  141.3130 C   0  0  0  0  0  0  0  0  0  0  0  0
  189.3370  178.1040  140.4800 N   0  0  0  0  0  0  0  0  0  0  0  0
  185.3010  178.8670  144.3100 C   0  0  0  0  0  3  0  0  0  0  0  0
  186.7220  178.0430  146.0240 C   0  0  0  0  0  0  0  0  0  0  0  0
  186.9210  177.7670  147.3800 C   0  0  0  0  0  3  0  0  0  0  0  0
  184.0690  179.4970  139.8050 O   0  0  0  0  0  0  0  0  0  0  0  0
  183.9570  178.3770  140.3740 C   0  0  0  0  0  0  0  0  0  0  0  0
  184.8550  178.0320  141.4330 N   0  0  0  0  0  2  0  0  0  0  0  0
  181.0030  175.5480  139.1260 C   0  0  0  0  0  0  0  0  0  0  0  0
  183.2560  176.3810  139.0850 C   0  0  0  0  0  3  0  0  0  0  0  0
  181.0700  178.5330  141.3420 C   0  0  0  0  0  1  0  0  0  0  0  0
  179.9820  174.5630  138.6890 C   0  0  0  0  0  1  0  0  0  0  0  0
  182.3120  175.4460  138.6630 C   0  0  0  0  0  3  0  0  0  0  0  0
  181.5580  177.4770  140.4080 C   0  0  0  0  0  0  0  0  0  0  0  0
  182.9030  177.4140  139.9630 C   0  0  0  0  0  0  0  0  0  0  0  0
  180.6600  176.5490  139.9780 N   0  0  0  0  0  0  0  0  0  0  0  0
  191.6100  177.2840  140.8380 C   0  0  0  0  0  2  0  0  0  0  0  0
  191.6320  177.1020  139.4560 O   0  0  0  0  0  1  0  0  0  0  0  0
  1  2  1  0  0  0  0
  2  6  2  0  0  0  0
  2 17  1  0  0  0  0
  3  9  1  0  0  0  0
  3 13  2  0  0  0  0
  4 12  2  0  0  0  0
  4  1  1  0  0  0  0
  5 12  1  0  0  0  0
  6  3  1  0  0  0  0
  7 11  1  0  0  0  0
  8 17  1  0  0  0  0
 10 14  2  0  0  0  0
 10  7  2  0  0  0  0
 11  1  2  0  0  0  0
 11 16  1  0  0  0  0
 14  4  1  0  0  0  0
 15  5  2  0  0  0  0
 15 14  1  0  0  0  0
 16  8  2  0  0  0  0
 17 18  2  0  0  0  0
 18 13  1  0  0  0  0
 19 20  2  0  0  0  0
 20 21  1  0  0  0  0
 21  7  1  0  0  0  0
 22 29  1  0  0  0  0
 23 28  2  0  0  0  0
 25 22  1  0  0  0  0
 26 23  1  0  0  0  0
 26 22  2  0  0  0  0
 27 24  1  0  0  0  0
 28 20  1  0  0  0  0
 28 27  1  0  0  0  0
 29 27  2  0  0  0  0
 30  5  1  0  0  0  0
 31 30  1  0  0  0  0
M  END
>  <MODEL>
3

>  <REMARK>
 VINA RESULT:      -9.2      3.456      5.599
  Name = 
  3 active torsions:
  status: ('A' for Active; 'I' for Inactive)
    1  A    between atoms: C_2  and  CA_13
    2  A    between atoms: C_9  and  C_22
    3  A    between atoms: C_15  and  N_23
                            x       y       z     vdW  Elec       q    Type
                         _______ _______ _______ _____ _____    ______ ____

>  <TORSDO>
F 3

$$$$
=
 OpenBabel10272400283D

 31 35  0  0  0  0  0  0  0  0999 V2000
  187.4420  178.0710  142.6930 C   0  0  0  0  0  0  0  0  0  0  0  0
  186.3690  178.3180  143.5770 C   0  0  0  0  0  0  0  0  0  0  0  0
  185.3430  178.2420  145.7810 C   0  0  0  0  0  0  0  0  0  0  0  0
  188.7340  177.4950  143.0940 C   0  0  0  0  0  0  0  0  0  0  0  0
  190.6050  176.7290  144.0160 C   0  0  0  0  0  0  0  0  0  0  0  0
  186.4260  177.9800  144.9380 C   0  0  0  0  0  3  0  0  0  0  0  0
  188.4200  178.1530  140.3120 C   0  0  0  0  0  0  0  0  0  0  0  0
  185.1170  179.2700  141.7590 N   0  0  0  0  0  0  0  0  0  0  0  0
  185.4100  177.9110  147.0930 F   0  0  0  0  0  0  0  0  0  0  0  0
  189.6920  177.6930  140.9020 N   0  0  0  0  0  4  0  0  0  0  0  0
  187.3180  178.4320  141.3310 C   0  0  0  0  0  0  0  0  0  0  0  0
  189.2030  177.1190  144.2750 C   0  0  0  0  0  3  0  0  0  0  0  0
  184.1910  178.8460  145.2720 C   0  0  0  0  0  3  0  0  0  0  0  0
  189.7980  177.3670  142.1510 C   0  0  0  0  0  0  0  0  0  0  0  0
  190.9720  176.8910  142.7810 N   0  0  0  0  0  0  0  0  0  0  0  0
  186.1360  179.0360  140.8940 C   0  0  0  0  0  3  0  0  0  0  0  0
  185.1970  178.9290  143.0720 C   0  0  0  0  0  0  0  0  0  0  0  0
  184.1180  179.1890  143.9200 C   0  0  0  0  0  3  0  0  0  0  0  0
  188.5180  178.4450  137.4850 O   0  0  0  0  0  0  0  0  0  0  0  0
  188.0410  177.3660  137.9310 C   0  0  0  0  0  0  0  0  0  0  0  0
  187.9510  177.1680  139.3460 N   0  0  0  0  0  2  0  0  0  0  0  0
  186.5720  174.3580  135.2710 C   0  0  0  0  0  0  0  0  0  0  0  0
  186.2740  176.4130  136.4790 C   0  0  0  0  0  3  0  0  0  0  0  0
  189.7290  174.9540  137.1420 C   0  0  0  0  0  1  0  0  0  0  0  0
  186.0550  173.3170  134.3470 C   0  0  0  0  0  1  0  0  0  0  0  0
  185.7720  175.4470  135.6100 C   0  0  0  0  0  3  0  0  0  0  0  0
  188.3430  175.1770  136.6370 C   0  0  0  0  0  0  0  0  0  0  0  0
  187.5660  176.3020  137.0110 C   0  0  0  0  0  0  0  0  0  0  0  0
  187.8240  174.2490  135.7860 N   0  0  0  0  0  0  0  0  0  0  0  0
  191.5470  176.2780  145.0750 C   0  0  0  0  0  2  0  0  0  0  0  0
  191.7350  177.3010  146.0030 O   0  0  0  0  0  1  0  0  0  0  0  0
  1  4  1  0  0  0  0
  1  2  1  0  0  0  0
  2  6  1  0  0  0  0
  3  9  1  0  0  0  0
  4 12  2  0  0  0  0
  5 12  1  0  0  0  0
  5 30  1  0  0  0  0
  6  3  2  0  0  0  0
  7 10  2  0  0  0  0
  7 11  1  0  0  0  0
  8 17  1  0  0  0  0
 10 14  2  0  0  0  0
 11  1  2  0  0  0  0
 13  3  1  0  0  0  0
 14 15  1  0  0  0  0
 14  4  1  0  0  0  0
 15  5  2  0  0  0  0
 16 11  1  0  0  0  0
 16  8  2  0  0  0  0
 17  2  2  0  0  0  0
 17 18  1  0  0  0  0
 18 13  2  0  0  0  0
 19 20  2  0  0  0  0
 20 21  1  0  0  0  0
 21  7  1  0  0  0  0
 22 26  2  0  0  0  0
 22 29  1  0  0  0  0
 23 28  2  0  0  0  0
 25 22  1  0  0  0  0
 26 23  1  0  0  0  0
 27 28  1  0  0  0  0
 27 24  1  0  0  0  0
 28 20  1  0  0  0  0
 29 27  2  0  0  0  0
 30 31  1  0  0  0  0
M  END
>  <MODEL>
4

>  <REMARK>
 VINA RESULT:      -9.0      1.216      1.399
  Name = 
  3 active torsions:
  status: ('A' for Active; 'I' for Inactive)
    1  A    between atoms: C_2  and  CA_13
    2  A    between atoms: C_9  and  C_22
    3  A    between atoms: C_15  and  N_23
                            x       y       z     vdW  Elec       q    Type
                         _______ _______ _______ _____ _____    ______ ____

>  <TORSDO>
F 3

$$$$
=
 OpenBabel10272400283D

 31 35  0  0  0  0  0  0  0  0999 V2000
  186.3870  178.3500  142.5490 C   0  0  0  0  0  0  0  0  0  0  0  0
  184.9880  178.5410  142.5720 C   0  0  0  0  0  0  0  0  0  0  0  0
  182.8400  178.5360  143.7120 C   0  0  0  0  0  0  0  0  0  0  0  0
  187.1940  177.9730  143.7190 C   0  0  0  0  0  0  0  0  0  0  0  0
  188.1530  177.5260  145.6740 C   0  0  0  0  0  0  0  0  0  0  0  0
  184.2220  178.3350  143.7300 C   0  0  0  0  0  3  0  0  0  0  0  0
  188.6050  178.3380  141.2400 C   0  0  0  0  0  0  0  0  0  0  0  0
  185.0570  179.1680  140.2530 N   0  0  0  0  0  0  0  0  0  0  0  0
  182.1120  178.3340  144.8360 F   0  0  0  0  0  0  0  0  0  0  0  0
  189.2760  178.0910  142.5310 N   0  0  0  0  0  4  0  0  0  0  0  0
  187.1000  178.5700  141.3480 C   0  0  0  0  0  0  0  0  0  0  0  0
  186.8660  177.7640  144.9850 C   0  0  0  0  0  3  0  0  0  0  0  0
  182.2080  178.9480  142.5360 C   0  0  0  0  0  3  0  0  0  0  0  0
  188.6160  177.8920  143.6280 C   0  0  0  0  0  0  0  0  0  0  0  0
  189.1860  177.6210  144.8930 N   0  0  0  0  0  0  0  0  0  0  0  0
  186.4010  178.9840  140.2110 C   0  0  0  0  0  3  0  0  0  0  0  0
  184.3390  178.9580  141.3860 C   0  0  0  0  0  0  0  0  0  0  0  0
  182.9560  179.1590  141.3750 C   0  0  0  0  0  3  0  0  0  0  0  0
  189.4310  178.5680  138.5290 O   0  0  0  0  0  0  0  0  0  0  0  0
  189.2910  177.4010  138.9860 C   0  0  0  0  0  0  0  0  0  0  0  0
  188.8620  177.2220  140.3390 N   0  0  0  0  0  2  0  0  0  0  0  0
  190.1780  173.9770  136.5830 C   0  0  0  0  0  0  0  0  0  0  0  0
  190.8610  175.6910  138.1210 C   0  0  0  0  0  3  0  0  0  0  0  0
  187.1620  176.0340  137.2870 C   0  0  0  0  0  1  0  0  0  0  0  0
  190.4930  172.7890  135.7510 C   0  0  0  0  0  1  0  0  0  0  0  0
  191.1770  174.5760  137.3470 C   0  0  0  0  0  3  0  0  0  0  0  0
  188.5770  175.5670  137.3460 C   0  0  0  0  0  0  0  0  0  0  0  0
  189.5600  176.2110  138.1390 C   0  0  0  0  0  0  0  0  0  0  0  0
  188.9160  174.4800  136.6000 N   0  0  0  0  0  0  0  0  0  0  0  0
  188.2770  177.2880  147.1370 C   0  0  0  0  0  2  0  0  0  0  0  0
  189.3740  177.9910  147.6350 O   0  0  0  0  0  1  0  0  0  0  0  0
  1  2  1  0  0  0  0
  1  4  1  0  0  0  0
  2  6  1  0  0  0  0
  3  6  2  0  0  0  0
  3  9  1  0  0  0  0
  4 12  2  0  0  0  0
  5 30  1  0  0  0  0
  7 11  1  0  0  0  0
  7 10  2  0  0  0  0
  8 17  1  0  0  0  0
 10 14  2  0  0  0  0
 11  1  2  0  0  0  0
 12  5  1  0  0  0  0
 13  3  1  0  0  0  0
 14  4  1  0  0  0  0
 14 15  1  0  0  0  0
 15  5  2  0  0  0  0
 16  8  2  0  0  0  0
 16 11  1  0  0  0  0
 17  2  2  0  0  0  0
 18 17  1  0  0  0  0
 18 13  2  0  0  0  0
 19 20  2  0  0  0  0
 20 21  1  0  0  0  0
 21  7  1  0  0  0  0
 22 29  2  0  0  0  0
 22 26  1  0  0  0  0
 23 28  1  0  0  0  0
 24 27  1  0  0  0  0
 25 22  1  0  0  0  0
 26 23  2  0  0  0  0
 27 28  2  0  0  0  0
 28 20  1  0  0  0  0
 29 27  1  0  0  0  0
 30 31  1  0  0  0  0
M  END
>  <MODEL>
5

>  <REMARK>
 VINA RESULT:      -8.6      1.461      2.115
  Name = 
  3 active torsions:
  status: ('A' for Active; 'I' for Inactive)
    1  A    between atoms: C_2  and  CA_13
    2  A    between atoms: C_9  and  C_22
    3  A    between atoms: C_15  and  N_23
                            x       y       z     vdW  Elec       q    Type
                         _______ _______ _______ _____ _____    ______ ____

>  <TORSDO>
F 3

$$$$
=
 OpenBabel10272400283D

 31 35  0  0  0  0  0  0  0  0999 V2000
  188.8030  177.7200  141.3190 C   0  0  0  0  0  0  0  0  0  0  0  0
  187.4290  178.0440  141.3410 C   0  0  0  0  0  0  0  0  0  0  0  0
  185.3060  178.3200  142.4960 C   0  0  0  0  0  0  0  0  0  0  0  0
  189.5880  177.3480  142.5060 C   0  0  0  0  0  0  0  0  0  0  0  0
  190.5290  176.9450  144.4780 C   0  0  0  0  0  0  0  0  0  0  0  0
  186.6640  177.9900  142.5170 C   0  0  0  0  0  3  0  0  0  0  0  0
  190.9900  177.4100  139.9960 C   0  0  0  0  0  0  0  0  0  0  0  0
  187.5220  178.5040  138.9840 N   0  0  0  0  0  0  0  0  0  0  0  0
  184.5790  178.2640  143.6370 F   0  0  0  0  0  0  0  0  0  0  0  0
  191.6540  177.1880  141.2950 N   0  0  0  0  0  4  0  0  0  0  0  0
  189.5150  177.7900  140.1000 C   0  0  0  0  0  0  0  0  0  0  0  0
  189.2600  177.2570  143.7870 C   0  0  0  0  0  3  0  0  0  0  0  0
  184.6990  178.7090  141.3000 C   0  0  0  0  0  3  0  0  0  0  0  0
  190.9950  177.1270  142.4090 C   0  0  0  0  0  0  0  0  0  0  0  0
  191.5550  176.8890  143.6850 N   0  0  0  0  0  0  0  0  0  0  0  0
  188.8420  178.1910  138.9430 C   0  0  0  0  0  3  0  0  0  0  0  0
  186.8040  178.4400  140.1350 C   0  0  0  0  0  0  0  0  0  0  0  0
  185.4460  178.7700  140.1220 C   0  0  0  0  0  3  0  0  0  0  0  0
  193.0620  176.9460  138.1040 O   0  0  0  0  0  0  0  0  0  0  0  0
  192.2030  176.0330  138.2460 C   0  0  0  0  0  0  0  0  0  0  0  0
  191.1280  176.2160  139.1720 N   0  0  0  0  0  2  0  0  0  0  0  0
  192.3370  172.4220  135.9600 C   0  0  0  0  0  0  0  0  0  0  0  0
  191.1430  174.3360  136.7850 C   0  0  0  0  0  3  0  0  0  0  0  0
  194.7390  174.3550  138.0370 C   0  0  0  0  0  1  0  0  0  0  0  0
  192.3770  171.1680  135.1650 C   0  0  0  0  0  1  0  0  0  0  0  0
  191.1600  173.1630  136.0330 C   0  0  0  0  0  3  0  0  0  0  0  0
  193.4630  173.9870  137.3590 C   0  0  0  0  0  0  0  0  0  0  0  0
  192.2890  174.7740  137.4620 C   0  0  0  0  0  0  0  0  0  0  0  0
  193.4490  172.8460  136.6160 N   0  0  0  0  0  0  0  0  0  0  0  0
  190.6520  176.7970  145.9540 C   0  0  0  0  0  2  0  0  0  0  0  0
  191.9990  176.7930  146.3140 O   0  0  0  0  0  1  0  0  0  0  0  0
  1  2  1  0  0  0  0
  1  4  1  0  0  0  0
  2  6  1  0  0  0  0
  3  6  2  0  0  0  0
  3  9  1  0  0  0  0
  4 12  2  0  0  0  0
  5 30  1  0  0  0  0
  7 11  1  0  0  0  0
  7 10  2  0  0  0  0
  8 17  1  0  0  0  0
 10 14  2  0  0  0  0
 11  1  2  0  0  0  0
 12  5  1  0  0  0  0
 13  3  1  0  0  0  0
 14  4  1  0  0  0  0
 14 15  1  0  0  0  0
 15  5  2  0  0  0  0
 16  8  2  0  0  0  0
 16 11  1  0  0  0  0
 17  2  2  0  0  0  0
 18 17  1  0  0  0  0
 18 13  2  0  0  0  0
 19 20  2  0  0  0  0
 20 21  1  0  0  0  0
 21  7  1  0  0  0  0
 22 26  2  0  0  0  0
 22 29  1  0  0  0  0
 23 28  2  0  0  0  0
 25 22  1  0  0  0  0
 26 23  1  0  0  0  0
 27 28  1  0  0  0  0
 27 24  1  0  0  0  0
 28 20  1  0  0  0  0
 29 27  2  0  0  0  0
 30 31  1  0  0  0  0
M  END
>  <MODEL>
6

>  <REMARK>
 VINA RESULT:      -8.6      2.251      3.119
  Name = 
  3 active torsions:
  status: ('A' for Active; 'I' for Inactive)
    1  A    between atoms: C_2  and  CA_13
    2  A    between atoms: C_9  and  C_22
    3  A    between atoms: C_15  and  N_23
                            x       y       z     vdW  Elec       q    Type
                         _______ _______ _______ _____ _____    ______ ____

>  <TORSDO>
F 3

$$$$
=
 OpenBabel10272400283D

 31 35  0  0  0  0  0  0  0  0999 V2000
  186.6330  178.2270  143.2810 C   0  0  0  0  0  0  0  0  0  0  0  0
  186.4980  178.1400  144.6840 C   0  0  0  0  0  0  0  0  0  0  0  0
  187.3600  177.6050  146.8940 C   0  0  0  0  0  0  0  0  0  0  0  0
  187.8630  177.9010  142.5430 C   0  0  0  0  0  0  0  0  0  0  0  0
  189.8810  177.4590  141.7250 C   0  0  0  0  0  0  0  0  0  0  0  0
  187.5330  177.6750  145.5090 C   0  0  0  0  0  3  0  0  0  0  0  0
  185.6110  178.7760  140.9810 C   0  0  0  0  0  0  0  0  0  0  0  0
  184.2580  178.9930  144.4990 N   0  0  0  0  0  0  0  0  0  0  0  0
  188.3660  177.1550  147.6810 F   0  0  0  0  0  0  0  0  0  0  0  0
  186.9530  178.5380  140.4150 N   0  0  0  0  0  4  0  0  0  0  0  0
  185.5500  178.6990  142.5050 C   0  0  0  0  0  0  0  0  0  0  0  0
  189.0590  177.5080  142.9540 C   0  0  0  0  0  3  0  0  0  0  0  0
  186.1490  177.9990  147.4690 C   0  0  0  0  0  3  0  0  0  0  0  0
  187.9420  178.1080  141.1320 C   0  0  0  0  0  0  0  0  0  0  0  0
  189.2440  177.8290  140.6570 N   0  0  0  0  0  0  0  0  0  0  0  0
  184.3690  179.0790  143.1490 C   0  0  0  0  0  3  0  0  0  0  0  0
  185.2750  178.5370  145.2750 C   0  0  0  0  0  0  0  0  0  0  0  0
  185.1090  178.4650  146.6610 C   0  0  0  0  0  3  0  0  0  0  0  0
  183.8640  179.3040  138.8010 O   0  0  0  0  0  0  0  0  0  0  0  0
  183.8230  178.1450  139.2980 C   0  0  0  0  0  0  0  0  0  0  0  0
  184.6680  177.8250  140.4080 N   0  0  0  0  0  2  0  0  0  0  0  0
  181.1110  175.1930  137.8110 C   0  0  0  0  0  0  0  0  0  0  0  0
  181.6800  176.9060  139.3960 C   0  0  0  0  0  3  0  0  0  0  0  0
  184.4770  176.4470  136.8530 C   0  0  0  0  0  1  0  0  0  0  0  0
  180.1650  174.1690  137.3000 C   0  0  0  0  0  1  0  0  0  0  0  0
  180.7790  175.9500  138.9310 C   0  0  0  0  0  3  0  0  0  0  0  0
  183.2020  176.3160  137.6150 C   0  0  0  0  0  0  0  0  0  0  0  0
  182.9080  177.1110  138.7520 C   0  0  0  0  0  0  0  0  0  0  0  0
  182.3010  175.3910  137.1860 N   0  0  0  0  0  0  0  0  0  0  0  0
  191.3270  177.1070  141.7110 C   0  0  0  0  0  2  0  0  0  0  0  0
  191.9350  177.6690  140.5890 O   0  0  0  0  0  1  0  0  0  0  0  0
  1  2  1  0  0  0  0
  2 17  2  0  0  0  0
  2  6  1  0  0  0  0
  3 13  1  0  0  0  0
  3  9  1  0  0  0  0
  4 12  2  0  0  0  0
  4  1  1  0  0  0  0
  5 12  1  0  0  0  0
  6  3  2  0  0  0  0
  7 11  1  0  0  0  0
  8 17  1  0  0  0  0
 10  7  2  0  0  0  0
 10 14  2  0  0  0  0
 11 16  1  0  0  0  0
 11  1  2  0  0  0  0
 14  4  1  0  0  0  0
 15 14  1  0  0  0  0
 15  5  2  0  0  0  0
 16  8  2  0  0  0  0
 17 18  1  0  0  0  0
 18 13  2  0  0  0  0
 19 20  2  0  0  0  0
 20 21  1  0  0  0  0
 21  7  1  0  0  0  0
 22 26  1  0  0  0  0
 24 27  1  0  0  0  0
 25 22  1  0  0  0  0
 26 23  2  0  0  0  0
 27 28  2  0  0  0  0
 28 20  1  0  0  0  0
 28 23  1  0  0  0  0
 29 27  1  0  0  0  0
 29 22  2  0  0  0  0
 30  5  1  0  0  0  0
 31 30  1  0  0  0  0
M  END
>  <MODEL>
7

>  <REMARK>
 VINA RESULT:      -8.6      3.480      4.796
  Name = 
  3 active torsions:
  status: ('A' for Active; 'I' for Inactive)
    1  A    between atoms: C_2  and  CA_13
    2  A    between atoms: C_9  and  C_22
    3  A    between atoms: C_15  and  N_23
                            x       y       z     vdW  Elec       q    Type
                         _______ _______ _______ _____ _____    ______ ____

>  <TORSDO>
F 3

$$$$
=
 OpenBabel10272400283D

 31 35  0  0  0  0  0  0  0  0999 V2000
  191.0200  175.6770  138.0720 C   0  0  0  0  0  0  0  0  0  0  0  0
  192.1770  174.9870  137.6490 C   0  0  0  0  0  0  0  0  0  0  0  0
  193.2850  173.2150  136.4050 C   0  0  0  0  0  0  0  0  0  0  0  0
  189.6520  175.3470  137.6430 C   0  0  0  0  0  0  0  0  0  0  0  0
  187.7350  174.6960  136.7260 C   0  0  0  0  0  0  0  0  0  0  0  0
  192.1160  173.8690  136.8020 C   0  0  0  0  0  3  0  0  0  0  0  0
  189.9380  177.5560  139.4620 C   0  0  0  0  0  0  0  0  0  0  0  0
  193.5270  176.5220  138.9130 N   0  0  0  0  0  0  0  0  0  0  0  0
  193.2140  172.1380  135.5870 F   0  0  0  0  0  0  0  0  0  0  0  0
  188.6580  177.1790  138.8330 N   0  0  0  0  0  4  0  0  0  0  0  0
  191.1490  176.7920  138.9310 C   0  0  0  0  0  0  0  0  0  0  0  0
  189.1880  174.4310  136.8060 C   0  0  0  0  0  3  0  0  0  0  0  0
  194.5280  173.6710  136.8510 C   0  0  0  0  0  3  0  0  0  0  0  0
  188.5470  176.1570  138.0450 C   0  0  0  0  0  0  0  0  0  0  0  0
  187.3520  175.7170  137.4300 N   0  0  0  0  0  0  0  0  0  0  0  0
  192.4260  177.1940  139.3330 C   0  0  0  0  0  3  0  0  0  0  0  0
  193.4400  175.4410  138.0950 C   0  0  0  0  0  0  0  0  0  0  0  0
  194.6060  174.7830  137.6930 C   0  0  0  0  0  3  0  0  0  0  0  0
  188.2950  179.0820  141.2110 O   0  0  0  0  0  0  0  0  0  0  0  0
  188.9840  178.1620  141.7320 C   0  0  0  0  0  0  0  0  0  0  0  0
  189.8420  177.3710  140.9040 N   0  0  0  0  0  2  0  0  0  0  0  0
  188.6930  177.3410  145.9180 C   0  0  0  0  0  0  0  0  0  0  0  0
  187.7610  177.2950  143.7040 C   0  0  0  0  0  3  0  0  0  0  0  0
  191.2410  178.8410  143.6640 C   0  0  0  0  0  1  0  0  0  0  0  0
  188.5850  177.0530  147.3710 C   0  0  0  0  0  1  0  0  0  0  0  0
  187.6410  177.0170  145.0650 C   0  0  0  0  0  3  0  0  0  0  0  0
  189.9640  178.2040  144.0980 C   0  0  0  0  0  0  0  0  0  0  0  0
  188.9200  177.8920  143.1910 C   0  0  0  0  0  0  0  0  0  0  0  0
  189.8170  177.9190  145.4210 N   0  0  0  0  0  0  0  0  0  0  0  0
  186.8010  173.9300  135.8570 C   0  0  0  0  0  2  0  0  0  0  0  0
  186.6880  172.6220  136.3280 O   0  0  0  0  0  1  0  0  0  0  0  0
  1 11  1  0  0  0  0
  2  1  2  0  0  0  0
  2 17  1  0  0  0  0
  3  6  2  0  0  0  0
  3 13  1  0  0  0  0
  4 14  1  0  0  0  0
  4  1  1  0  0  0  0
  5 12  1  0  0  0  0
  5 15  2  0  0  0  0
  6  2  1  0  0  0  0
  7 21  1  0  0  0  0
  8 16  1  0  0  0  0
  9  3  1  0  0  0  0
 10  7  2  0  0  0  0
 11 16  2  0  0  0  0
 11  7  1  0  0  0  0
 12  4  2  0  0  0  0
 13 18  2  0  0  0  0
 14 10  2  0  0  0  0
 15 14  1  0  0  0  0
 17  8  2  0  0  0  0
 18 17  1  0  0  0  0
 19 20  2  0  0  0  0
 20 28  1  0  0  0  0
 21 20  1  0  0  0  0
 22 25  1  0  0  0  0
 23 26  1  0  0  0  0
 24 27  1  0  0  0  0
 26 22  2  0  0  0  0
 27 29  2  0  0  0  0
 28 23  2  0  0  0  0
 28 27  1  0  0  0  0
 29 22  1  0  0  0  0
 30 31  1  0  0  0  0
 30  5  1  0  0  0  0
M  END
>  <MODEL>
8

>  <REMARK>
 VINA RESULT:      -8.1      3.762      9.120
  Name = 
  3 active torsions:
  status: ('A' for Active; 'I' for Inactive)
    1  A    between atoms: C_2  and  CA_13
    2  A    between atoms: C_9  and  C_22
    3  A    between atoms: C_15  and  N_23
                            x       y       z     vdW  Elec       q    Type
                         _______ _______ _______ _____ _____    ______ ____

>  <TORSDO>
F 3

$$$$
=
 OpenBabel10272400283D

 31 35  0  0  0  0  0  0  0  0999 V2000
  188.2520  177.9110  142.6700 C   0  0  0  0  0  0  0  0  0  0  0  0
  188.6360  177.5800  143.9880 C   0  0  0  0  0  0  0  0  0  0  0  0
  190.2110  176.6650  145.6000 C   0  0  0  0  0  0  0  0  0  0  0  0
  189.0990  177.7140  141.4840 C   0  0  0  0  0  0  0  0  0  0  0  0
  190.6410  177.4150  139.9120 C   0  0  0  0  0  0  0  0  0  0  0  0
  189.8680  176.9750  144.2810 C   0  0  0  0  0  3  0  0  0  0  0  0
  186.4970  178.8560  141.0390 C   0  0  0  0  0  0  0  0  0  0  0  0
  186.5490  178.4600  144.7930 N   0  0  0  0  0  0  0  0  0  0  0  0
  191.4030  176.0820  145.8690 F   0  0  0  0  0  0  0  0  0  0  0  0
  187.5170  178.7160  139.9820 N   0  0  0  0  0  4  0  0  0  0  0  0
  186.9940  178.5140  142.4420 C   0  0  0  0  0  0  0  0  0  0  0  0
  190.3330  177.2520  141.3490 C   0  0  0  0  0  3  0  0  0  0  0  0
  189.3260  176.9570  146.6400 C   0  0  0  0  0  3  0  0  0  0  0  0
  188.6680  178.1640  140.1990 C   0  0  0  0  0  0  0  0  0  0  0  0
  189.6820  177.9680  139.2330 N   0  0  0  0  0  0  0  0  0  0  0  0
  186.1610  178.7800  143.5320 C   0  0  0  0  0  3  0  0  0  0  0  0
  187.7460  177.8720  145.0490 C   0  0  0  0  0  0  0  0  0  0  0  0
  188.0960  177.5600  146.3650 C   0  0  0  0  0  3  0  0  0  0  0  0
  184.3010  179.6430  139.4120 O   0  0  0  0  0  0  0  0  0  0  0  0
  184.2760  178.4710  139.8760 C   0  0  0  0  0  0  0  0  0  0  0  0
  185.3460  178.0230  140.7150 N   0  0  0  0  0  2  0  0  0  0  0  0
  181.1050  175.7700  138.9110 C   0  0  0  0  0  0  0  0  0  0  0  0
  183.3420  176.5810  138.5760 C   0  0  0  0  0  3  0  0  0  0  0  0
  181.5790  178.5860  141.2920 C   0  0  0  0  0  1  0  0  0  0  0  0
  180.0080  174.8290  138.5700 C   0  0  0  0  0  1  0  0  0  0  0  0
  182.3240  175.6880  138.2430 C   0  0  0  0  0  3  0  0  0  0  0  0
  181.8940  177.5950  140.2220 C   0  0  0  0  0  0  0  0  0  0  0  0
  183.1510  177.5510  139.5690 C   0  0  0  0  0  0  0  0  0  0  0  0
  180.9200  176.7100  139.8740 N   0  0  0  0  0  0  0  0  0  0  0  0
  191.9520  177.0670  139.3020 C   0  0  0  0  0  2  0  0  0  0  0  0
  191.7920  175.9940  138.4260 O   0  0  0  0  0  1  0  0  0  0  0  0
  1  2  1  0  0  0  0
  2  6  2  0  0  0  0
  2 17  1  0  0  0  0
  3  9  1  0  0  0  0
  3 13  2  0  0  0  0
  4  1  1  0  0  0  0
  5 12  1  0  0  0  0
  6  3  1  0  0  0  0
  7 11  1  0  0  0  0
  8 17  1  0  0  0  0
 10 14  2  0  0  0  0
 10  7  2  0  0  0  0
 11  1  2  0  0  0  0
 11 16  1  0  0  0  0
 12  4  2  0  0  0  0
 14  4  1  0  0  0  0
 15  5  2  0  0  0  0
 15 14  1  0  0  0  0
 16  8  2  0  0  0  0
 17 18  2  0  0  0  0
 18 13  1  0  0  0  0
 19 20  2  0  0  0  0
 20 21  1  0  0  0  0
 21  7  1  0  0  0  0
 22 29  1  0  0  0  0
 23 28  2  0  0  0  0
 25 22  1  0  0  0  0
 26 23  1  0  0  0  0
 26 22  2  0  0  0  0
 27 24  1  0  0  0  0
 28 20  1  0  0  0  0
 28 27  1  0  0  0  0
 29 27  2  0  0  0  0
 30  5  1  0  0  0  0
 31 30  1  0  0  0  0
M  END
>  <MODEL>
9

>  <REMARK>
 VINA RESULT:      -8.1      3.425      5.801
  Name = 
  3 active torsions:
  status: ('A' for Active; 'I' for Inactive)
    1  A    between atoms: C_2  and  CA_13
    2  A    between atoms: C_9  and  C_22
    3  A    between atoms: C_15  and  N_23
                            x       y       z     vdW  Elec       q    Type
                         _______ _______ _______ _____ _____    ______ ____

>  <TORSDO>
F 3

$$$$
