=
 OpenBabel10272413423D

 30 34  0  0  1  0  0  0  0  0999 V2000
  186.3650  175.3140  136.7040 C   0  0  0  0  0  0  0  0  0  0  0  0
  186.0570  173.0770  135.4800 C   0  0  0  0  0  0  0  0  0  0  0  0
  183.4590  174.5360  137.5980 C   0  0  1  0  0  3  0  0  0  0  0  0
  185.9130  176.7490  136.4470 C   0  0  2  0  0  3  0  0  0  0  0  0
  187.5800  175.0480  137.2160 C   0  0  0  0  0  3  0  0  0  0  0  0
  190.0840  177.5960  138.1640 N   0  0  0  0  0  0  0  0  0  0  0  0
  188.8170  177.2840  137.8380 C   0  0  0  0  0  0  0  0  0  0  0  0
  189.9380  175.3730  137.8010 N   0  0  0  0  0  2  0  0  0  0  0  0
  182.6250  175.8260  137.5560 C   0  0  2  0  0  3  0  0  0  0  0  0
  188.7220  175.9140  137.6030 C   0  0  0  0  0  0  0  0  0  0  0  0
  187.7450  178.3180  137.7950 C   0  0  0  0  0  2  0  0  0  0  0  0
  185.5220  171.8500  135.3300 C   0  0  0  0  0  3  0  0  0  0  0  0
  192.1740  176.2690  138.4350 C   0  0  0  0  0  1  0  0  0  0  0  0
  187.1530  173.3950  134.7400 F   0  0  0  0  0  0  0  0  0  0  0  0
  183.0380  173.3400  136.7460 C   0  0  2  0  0  3  0  0  0  0  0  0
  184.2700  171.2910  135.9810 C   0  0  0  0  0  2  0  0  0  0  0  0
  190.7250  176.4140  138.1300 C   0  0  0  0  0  0  0  0  0  0  0  0
  185.5090  174.0790  136.4650 C   0  0  2  0  0  3  0  0  0  0  0  0
  184.4340  177.0960  136.1960 C   0  0  0  0  0  2  0  0  0  0  0  0
  181.4940  175.8520  136.5320 C   0  0  0  0  0  1  0  0  0  0  0  0
  183.5180  177.0770  137.4410 C   0  0  2  0  0  3  0  0  0  0  0  0
  186.9670  177.5620  135.2110 S   0  0  0  0  0  0  0  0  0  0  0  0
  183.7400  172.0570  137.1940 C   0  0  0  0  0  2  0  0  0  0  0  0
  184.0460  174.3510  136.2150 C   0  0  2  0  0  3  0  0  0  0  0  0
  187.5390  178.8500  136.3780 C   0  0  0  0  0  2  0  0  0  0  0  0
  184.2630  177.3060  138.6740 N   0  0  0  0  0  2  0  0  0  0  0  0
  184.2380  178.7360  138.9350 C   0  0  1  0  0  3  0  0  0  0  0  0
  182.8220  179.2480  138.7690 C   0  0  0  0  0  1  0  0  0  0  0  0
  184.7060  179.0120  140.3530 C   0  0  0  0  0  2  0  0  0  0  0  0
  183.9950  178.0960  141.3320 C   0  0  0  0  0  1  0  0  0  0  0  0
  1  5  2  0  0  0  0
  2 18  1  0  0  0  0
  4  1  1  0  0  0  0
  5 10  1  0  0  0  0
  7  6  1  0  0  0  0
  8 17  1  0  0  0  0
  9  3  1  0  0  0  0
 10  8  1  0  0  0  0
 10  7  2  0  0  0  0
 11  7  1  0  0  0  0
 12  2  2  0  0  0  0
 12 16  1  0  0  0  0
 14  2  1  0  0  0  0
 15 23  1  0  0  0  0
 15  3  1  0  0  0  0
 16 23  1  0  0  0  0
 17  6  2  0  0  0  0
 17 13  1  0  0  0  0
 18  1  1  0  0  0  0
 19  4  1  0  0  0  0
 19 21  1  0  0  0  0
 20  9  1  0  0  0  0
 21  9  1  0  0  0  0
 21 26  1  0  0  0  0
 22 25  1  0  0  0  0
 22  4  1  0  0  0  0
 24 18  1  0  0  0  0
 24 15  1  0  0  0  0
 24  3  1  0  0  0  0
 25 11  1  0  0  0  0
 26 27  1  0  0  0  0
 27 29  1  0  0  0  0
 28 27  1  0  0  0  0
 29 30  1  0  0  0  0
M  END
>  <MODEL>
1

>  <REMARK>
 VINA RESULT:      -5.5      0.000      0.000
  Name = 
  3 active torsions:
  status: ('A' for Active; 'I' for Inactive)
    1  A    between atoms: C_7  and  N_10
    2  A    between atoms: C_7  and  C_15
    3  A    between atoms: N_10  and  C_25
                            x       y       z     vdW  Elec       q    Type
                         _______ _______ _______ _____ _____    ______ ____

>  <TORSDO>
F 3

$$$$
=
 OpenBabel10272413423D

 30 34  0  0  1  0  0  0  0  0999 V2000
  188.2760  177.9720  143.7280 C   0  0  0  0  0  0  0  0  0  0  0  0
  186.0090  179.1800  143.6800 C   0  0  0  0  0  0  0  0  0  0  0  0
  187.0990  177.1550  146.5200 C   0  0  1  0  0  3  0  0  0  0  0  0
  189.6300  178.2580  144.3710 C   0  0  2  0  0  3  0  0  0  0  0  0
  188.1880  177.4230  142.5040 C   0  0  0  0  0  3  0  0  0  0  0  0
  191.0710  176.4300  140.4160 N   0  0  0  0  0  0  0  0  0  0  0  0
  190.5810  176.7900  141.6150 C   0  0  0  0  0  0  0  0  0  0  0  0
  188.8480  176.7730  140.2350 N   0  0  0  0  0  2  0  0  0  0  0  0
  188.2580  177.2340  147.5270 C   0  0  2  0  0  3  0  0  0  0  0  0
  189.2100  177.0120  141.5080 C   0  0  0  0  0  0  0  0  0  0  0  0
  191.4520  176.8750  142.8210 C   0  0  0  0  0  2  0  0  0  0  0  0
  184.7180  179.3320  144.0300 C   0  0  0  0  0  3  0  0  0  0  0  0
  190.0570  176.0850  138.1680 C   0  0  0  0  0  1  0  0  0  0  0  0
  186.4740  179.8910  142.6180 F   0  0  0  0  0  0  0  0  0  0  0  0
  185.8500  178.0050  146.7420 C   0  0  2  0  0  3  0  0  0  0  0  0
  183.9910  178.7120  145.2100 C   0  0  0  0  0  2  0  0  0  0  0  0
  189.9920  176.4330  139.6130 C   0  0  0  0  0  0  0  0  0  0  0  0
  186.9300  178.2230  144.3930 C   0  0  2  0  0  3  0  0  0  0  0  0
  189.7620  178.5560  145.8760 C   0  0  0  0  0  2  0  0  0  0  0  0
  188.1160  178.2920  148.6190 C   0  0  0  0  0  1  0  0  0  0  0  0
  189.6220  177.3380  146.8170 C   0  0  2  0  0  3  0  0  0  0  0  0
  190.5760  179.4720  143.4050 S   0  0  0  0  0  0  0  0  0  0  0  0
  184.6830  177.5230  145.8800 C   0  0  0  0  0  2  0  0  0  0  0  0
  186.9900  178.5180  145.8720 C   0  0  2  0  0  3  0  0  0  0  0  0
  191.9400  178.3030  143.0570 C   0  0  0  0  0  2  0  0  0  0  0  0
  189.9620  176.0870  146.1490 N   0  0  0  0  0  2  0  0  0  0  0  0
  191.1010  175.5170  146.8530 C   0  0  1  0  0  3  0  0  0  0  0  0
  192.1230  175.0400  145.8420 C   0  0  0  0  0  1  0  0  0  0  0  0
  191.7360  176.5680  147.7470 C   0  0  0  0  0  2  0  0  0  0  0  0
  192.8740  175.9620  148.5480 C   0  0  0  0  0  1  0  0  0  0  0  0
  1  4  1  0  0  0  0
  1 18  1  0  0  0  0
  2 12  2  0  0  0  0
  2 18  1  0  0  0  0
  3 15  1  0  0  0  0
  3  9  1  0  0  0  0
  4 19  1  0  0  0  0
  5  1  2  0  0  0  0
  6  7  1  0  0  0  0
  7 11  1  0  0  0  0
  8 10  1  0  0  0  0
  9 20  1  0  0  0  0
 10  7  2  0  0  0  0
 10  5  1  0  0  0  0
 11 25  1  0  0  0  0
 12 16  1  0  0  0  0
 13 17  1  0  0  0  0
 14  2  1  0  0  0  0
 16 23  1  0  0  0  0
 17  8  1  0  0  0  0
 17  6  2  0  0  0  0
 18 24  1  0  0  0  0
 19 21  1  0  0  0  0
 21  9  1  0  0  0  0
 22  4  1  0  0  0  0
 23 15  1  0  0  0  0
 24  3  1  0  0  0  0
 24 15  1  0  0  0  0
 25 22  1  0  0  0  0
 26 21  1  0  0  0  0
 26 27  1  0  0  0  0
 27 29  1  0  0  0  0
 28 27  1  0  0  0  0
 29 30  1  0  0  0  0
M  END
>  <MODEL>
2

>  <REMARK>
 VINA RESULT:      -5.5      6.233      9.358
  Name = 
  3 active torsions:
  status: ('A' for Active; 'I' for Inactive)
    1  A    between atoms: C_7  and  N_10
    2  A    between atoms: C_7  and  C_15
    3  A    between atoms: N_10  and  C_25
                            x       y       z     vdW  Elec       q    Type
                         _______ _______ _______ _____ _____    ______ ____

>  <TORSDO>
F 3

$$$$
=
 OpenBabel10272413423D

 30 34  0  0  1  0  0  0  0  0999 V2000
  187.6480  177.5930  139.1330 C   0  0  0  0  0  0  0  0  0  0  0  0
  186.3790  178.6490  141.1010 C   0  0  0  0  0  0  0  0  0  0  0  0
  189.3440  176.5630  141.5640 C   0  0  1  0  0  3  0  0  0  0  0  0
  188.9260  177.9360  138.3740 C   0  0  2  0  0  3  0  0  0  0  0  0
  186.5720  177.1000  138.4970 C   0  0  0  0  0  3  0  0  0  0  0  0
  186.3870  176.4040  134.8720 N   0  0  0  0  0  0  0  0  0  0  0  0
  187.1270  176.6710  135.9620 C   0  0  0  0  0  0  0  0  0  0  0  0
  185.0250  176.6080  136.6600 N   0  0  0  0  0  2  0  0  0  0  0  0
  190.8200  176.6700  141.1490 C   0  0  2  0  0  3  0  0  0  0  0  0
  186.2910  176.8070  137.0680 C   0  0  0  0  0  0  0  0  0  0  0  0
  188.6130  176.7540  135.8950 C   0  0  0  0  0  2  0  0  0  0  0  0
  185.9700  178.6970  142.3830 C   0  0  0  0  0  3  0  0  0  0  0  0
  183.9480  176.1040  134.4710 C   0  0  0  0  0  1  0  0  0  0  0  0
  185.7450  179.4400  140.1940 F   0  0  0  0  0  0  0  0  0  0  0  0
  188.8540  177.3170  142.7990 C   0  0  2  0  0  3  0  0  0  0  0  0
  186.5590  177.9730  143.5800 C   0  0  0  0  0  2  0  0  0  0  0  0
  185.1250  176.3750  135.3380 C   0  0  0  0  0  0  0  0  0  0  0  0
  187.4730  177.7210  140.6400 C   0  0  2  0  0  3  0  0  0  0  0  0
  190.2620  178.1680  139.1050 C   0  0  0  0  0  2  0  0  0  0  0  0
  191.6640  177.6600  141.9480 C   0  0  0  0  0  1  0  0  0  0  0  0
  190.9690  176.8980  139.6320 C   0  0  2  0  0  3  0  0  0  0  0  0
  188.6390  179.2560  137.1590 S   0  0  0  0  0  0  0  0  0  0  0  0
  187.4920  176.8010  143.2670 C   0  0  0  0  0  2  0  0  0  0  0  0
  188.7480  177.9460  141.4160 C   0  0  2  0  0  3  0  0  0  0  0  0
  189.0850  178.1980  135.7340 C   0  0  0  0  0  2  0  0  0  0  0  0
  190.5880  175.7060  138.8820 N   0  0  0  0  0  2  0  0  0  0  0  0
  191.4740  175.6180  137.7320 C   0  0  1  0  0  3  0  0  0  0  0  0
  192.8560  176.0910  138.1310 C   0  0  0  0  0  1  0  0  0  0  0  0
  191.5570  174.1800  137.2500 C   0  0  0  0  0  2  0  0  0  0  0  0
  190.1670  173.6300  136.9890 C   0  0  0  0  0  1  0  0  0  0  0  0
  1 18  1  0  0  0  0
  2 12  2  0  0  0  0
  3 15  1  0  0  0  0
  4 19  1  0  0  0  0
  4  1  1  0  0  0  0
  5  1  2  0  0  0  0
  6 17  2  0  0  0  0
  6  7  1  0  0  0  0
  7 10  2  0  0  0  0
  8 10  1  0  0  0  0
  9  3  1  0  0  0  0
  9 20  1  0  0  0  0
 10  5  1  0  0  0  0
 11  7  1  0  0  0  0
 12 16  1  0  0  0  0
 13 17  1  0  0  0  0
 14  2  1  0  0  0  0
 15 23  1  0  0  0  0
 17  8  1  0  0  0  0
 18  2  1  0  0  0  0
 18 24  1  0  0  0  0
 19 21  1  0  0  0  0
 21  9  1  0  0  0  0
 22  4  1  0  0  0  0
 23 16  1  0  0  0  0
 24  3  1  0  0  0  0
 24 15  1  0  0  0  0
 25 11  1  0  0  0  0
 25 22  1  0  0  0  0
 26 21  1  0  0  0  0
 27 28  1  0  0  0  0
 27 26  1  0  0  0  0
 29 27  1  0  0  0  0
 30 29  1  0  0  0  0
M  END
>  <MODEL>
3

>  <REMARK>
 VINA RESULT:      -5.4      3.128      7.265
  Name = 
  3 active torsions:
  status: ('A' for Active; 'I' for Inactive)
    1  A    between atoms: C_7  and  N_10
    2  A    between atoms: C_7  and  C_15
    3  A    between atoms: N_10  and  C_25
                            x       y       z     vdW  Elec       q    Type
                         _______ _______ _______ _____ _____    ______ ____

>  <TORSDO>
F 3

$$$$
=
 OpenBabel10272413423D

 30 34  0  0  1  0  0  0  0  0999 V2000
  185.9930  176.5930  137.2660 C   0  0  0  0  0  0  0  0  0  0  0  0
  184.3220  175.7030  135.5300 C   0  0  0  0  0  0  0  0  0  0  0  0
  183.2910  176.8610  138.8400 C   0  0  1  0  0  3  0  0  0  0  0  0
  186.4160  177.9820  137.7340 C   0  0  2  0  0  3  0  0  0  0  0  0
  186.8870  175.5950  137.1510 C   0  0  0  0  0  3  0  0  0  0  0  0
  190.4870  175.8760  137.9390 N   0  0  0  0  0  0  0  0  0  0  0  0
  189.2420  176.3760  138.0230 C   0  0  0  0  0  0  0  0  0  0  0  0
  189.0570  174.4860  136.8820 N   0  0  0  0  0  2  0  0  0  0  0  0
  183.3460  178.2060  139.5830 C   0  0  2  0  0  3  0  0  0  0  0  0
  188.3550  175.5280  137.3650 C   0  0  0  0  0  0  0  0  0  0  0  0
  188.9570  177.6380  138.7620 C   0  0  0  0  0  2  0  0  0  0  0  0
  183.1690  175.1120  135.1610 C   0  0  0  0  0  3  0  0  0  0  0  0
  191.4590  173.8280  136.9070 C   0  0  0  0  0  1  0  0  0  0  0  0
  185.3080  175.8230  134.6020 F   0  0  0  0  0  0  0  0  0  0  0  0
  182.1670  176.6000  137.8400 C   0  0  2  0  0  3  0  0  0  0  0  0
  181.9080  174.9280  135.9850 C   0  0  0  0  0  2  0  0  0  0  0  0
  190.3290  174.7350  137.2420 C   0  0  0  0  0  0  0  0  0  0  0  0
  184.5640  176.1850  136.9380 C   0  0  2  0  0  3  0  0  0  0  0  0
  185.3830  179.0260  138.1990 C   0  0  0  0  0  2  0  0  0  0  0  0
  182.3230  179.2490  139.1430 C   0  0  0  0  0  1  0  0  0  0  0  0
  184.7730  178.7890  139.6000 C   0  0  2  0  0  3  0  0  0  0  0  0
  187.5930  178.7390  136.5750 S   0  0  0  0  0  0  0  0  0  0  0  0
  182.0560  175.1140  137.4970 C   0  0  0  0  0  2  0  0  0  0  0  0
  183.5010  177.1650  137.3730 C   0  0  2  0  0  3  0  0  0  0  0  0
  188.9290  178.8420  137.8220 C   0  0  0  0  0  2  0  0  0  0  0  0
  185.6520  177.9990  140.4550 N   0  0  0  0  0  2  0  0  0  0  0  0
  186.1970  178.8970  141.4600 C   0  0  1  0  0  3  0  0  0  0  0  0
  185.1720  179.0990  142.5570 C   0  0  0  0  0  1  0  0  0  0  0  0
  187.4580  178.3000  142.0600 C   0  0  0  0  0  2  0  0  0  0  0  0
  187.1110  177.4060  143.2370 C   0  0  0  0  0  1  0  0  0  0  0  0
  1  4  1  0  0  0  0
  2 18  1  0  0  0  0
  3  9  1  0  0  0  0
  4 19  1  0  0  0  0
  5  1  2  0  0  0  0
  5 10  1  0  0  0  0
  6  7  1  0  0  0  0
  7 11  1  0  0  0  0
  8 17  1  0  0  0  0
  8 10  1  0  0  0  0
  9 21  1  0  0  0  0
 10  7  2  0  0  0  0
 12  2  2  0  0  0  0
 12 16  1  0  0  0  0
 13 17  1  0  0  0  0
 14  2  1  0  0  0  0
 15  3  1  0  0  0  0
 16 23  1  0  0  0  0
 17  6  2  0  0  0  0
 18  1  1  0  0  0  0
 18 24  1  0  0  0  0
 19 21  1  0  0  0  0
 20  9  1  0  0  0  0
 21 26  1  0  0  0  0
 22  4  1  0  0  0  0
 22 25  1  0  0  0  0
 23 15  1  0  0  0  0
 24 15  1  0  0  0  0
 24  3  1  0  0  0  0
 25 11  1  0  0  0  0
 26 27  1  0  0  0  0
 27 29  1  0  0  0  0
 27 28  1  0  0  0  0
 29 30  1  0  0  0  0
M  END
>  <MODEL>
4

>  <REMARK>
 VINA RESULT:      -5.3      1.982      2.859
  Name = 
  3 active torsions:
  status: ('A' for Active; 'I' for Inactive)
    1  A    between atoms: C_7  and  N_10
    2  A    between atoms: C_7  and  C_15
    3  A    between atoms: N_10  and  C_25
                            x       y       z     vdW  Elec       q    Type
                         _______ _______ _______ _____ _____    ______ ____

>  <TORSDO>
F 3

$$$$
=
 OpenBabel10272413423D

 30 34  0  0  1  0  0  0  0  0999 V2000
  190.5840  176.3370  138.6420 C   0  0  0  0  0  0  0  0  0  0  0  0
  193.0510  176.0560  137.9850 C   0  0  0  0  0  0  0  0  0  0  0  0
  190.4140  173.8700  136.7110 C   0  0  1  0  0  3  0  0  0  0  0  0
  189.3600  176.9580  137.9740 C   0  0  2  0  0  3  0  0  0  0  0  0
  190.7840  176.4480  139.9670 C   0  0  0  0  0  3  0  0  0  0  0  0
  188.5130  178.1730  142.3170 N   0  0  0  0  0  0  0  0  0  0  0  0
  188.7320  177.6360  141.1040 C   0  0  0  0  0  0  0  0  0  0  0  0
  190.6120  177.3480  142.2400 N   0  0  0  0  0  2  0  0  0  0  0  0
  189.1620  174.0740  135.8440 C   0  0  2  0  0  3  0  0  0  0  0  0
  190.0300  177.1330  141.0470 C   0  0  0  0  0  0  0  0  0  0  0  0
  187.6690  177.6050  140.0610 C   0  0  0  0  0  2  0  0  0  0  0  0
  194.1160  175.3360  137.5830 C   0  0  0  0  0  3  0  0  0  0  0  0
  189.8950  178.4130  144.3740 C   0  0  0  0  0  1  0  0  0  0  0  0
  193.2730  177.2930  138.5050 F   0  0  0  0  0  0  0  0  0  0  0  0
  191.7800  173.7350  136.0400 C   0  0  2  0  0  3  0  0  0  0  0  0
  194.1230  173.9750  136.9110 C   0  0  0  0  0  2  0  0  0  0  0  0
  189.6730  177.9780  142.9700 C   0  0  0  0  0  0  0  0  0  0  0  0
  191.6450  175.5180  137.9210 C   0  0  2  0  0  3  0  0  0  0  0  0
  188.9310  176.5610  136.5490 C   0  0  0  0  0  2  0  0  0  0  0  0
  189.4140  174.2710  134.3510 C   0  0  0  0  0  1  0  0  0  0  0  0
  188.2510  175.1790  136.4120 C   0  0  2  0  0  3  0  0  0  0  0  0
  189.3580  178.7660  138.1490 S   0  0  0  0  0  0  0  0  0  0  0  0
  192.8240  173.1700  137.0030 C   0  0  0  0  0  2  0  0  0  0  0  0
  191.2830  175.0930  136.5180 C   0  0  2  0  0  3  0  0  0  0  0  0
  187.7940  178.7860  139.1000 C   0  0  0  0  0  2  0  0  0  0  0  0
  187.6210  174.7520  137.6560 N   0  0  0  0  0  2  0  0  0  0  0  0
  186.2430  174.4050  137.3460 C   0  0  1  0  0  3  0  0  0  0  0  0
  185.8890  174.9480  135.9770 C   0  0  0  0  0  1  0  0  0  0  0  0
  186.0770  172.8960  137.3430 C   0  0  0  0  0  2  0  0  0  0  0  0
  184.6050  172.5270  137.3440 C   0  0  0  0  0  1  0  0  0  0  0  0
  1  5  2  0  0  0  0
  2 14  1  0  0  0  0
  4 22  1  0  0  0  0
  4  1  1  0  0  0  0
  5 10  1  0  0  0  0
  6 17  2  0  0  0  0
  7  6  1  0  0  0  0
  8 17  1  0  0  0  0
  9 21  1  0  0  0  0
  9  3  1  0  0  0  0
 10  7  2  0  0  0  0
 10  8  1  0  0  0  0
 11  7  1  0  0  0  0
 12  2  2  0  0  0  0
 15 24  1  0  0  0  0
 15  3  1  0  0  0  0
 15 23  1  0  0  0  0
 16 23  1  0  0  0  0
 16 12  1  0  0  0  0
 17 13  1  0  0  0  0
 18  2  1  0  0  0  0
 18  1  1  0  0  0  0
 19  4  1  0  0  0  0
 20  9  1  0  0  0  0
 21 19  1  0  0  0  0
 21 26  1  0  0  0  0
 22 25  1  0  0  0  0
 24  3  1  0  0  0  0
 24 18  1  0  0  0  0
 25 11  1  0  0  0  0
 27 26  1  0  0  0  0
 28 27  1  0  0  0  0
 29 30  1  0  0  0  0
 29 27  1  0  0  0  0
M  END
>  <MODEL>
5

>  <REMARK>
 VINA RESULT:      -5.1      3.211      6.330
  Name = 
  3 active torsions:
  status: ('A' for Active; 'I' for Inactive)
    1  A    between atoms: C_7  and  N_10
    2  A    between atoms: C_7  and  C_15
    3  A    between atoms: N_10  and  C_25
                            x       y       z     vdW  Elec       q    Type
                         _______ _______ _______ _____ _____    ______ ____

>  <TORSDO>
F 3

$$$$
=
 OpenBabel10272413423D

 30 34  0  0  1  0  0  0  0  0999 V2000
  188.1980  176.7030  137.9680 C   0  0  0  0  0  0  0  0  0  0  0  0
  187.0580  178.2820  139.6430 C   0  0  0  0  0  0  0  0  0  0  0  0
  190.1460  176.4860  140.4190 C   0  0  1  0  0  3  0  0  0  0  0  0
  189.3880  176.8240  137.0200 C   0  0  2  0  0  3  0  0  0  0  0  0
  187.0940  176.0220  137.6160 C   0  0  0  0  0  3  0  0  0  0  0  0
  186.6260  174.2610  134.4000 N   0  0  0  0  0  0  0  0  0  0  0  0
  187.4460  174.8580  135.2830 C   0  0  0  0  0  0  0  0  0  0  0  0
  185.4180  174.9710  136.1690 N   0  0  0  0  0  2  0  0  0  0  0  0
  191.5730  176.4890  139.8490 C   0  0  2  0  0  3  0  0  0  0  0  0
  186.7040  175.3070  136.3740 C   0  0  0  0  0  0  0  0  0  0  0  0
  188.9150  174.9440  135.0510 C   0  0  0  0  0  2  0  0  0  0  0  0
  186.7610  178.7070  140.8860 C   0  0  0  0  0  3  0  0  0  0  0  0
  184.1780  173.8100  134.3470 C   0  0  0  0  0  1  0  0  0  0  0  0
  186.3120  178.7510  138.6080 F   0  0  0  0  0  0  0  0  0  0  0  0
  189.7310  177.5690  141.4130 C   0  0  2  0  0  3  0  0  0  0  0  0
  187.4850  178.3890  142.1810 C   0  0  0  0  0  2  0  0  0  0  0  0
  185.4130  174.3520  134.9740 C   0  0  0  0  0  0  0  0  0  0  0  0
  188.1500  177.2770  139.3770 C   0  0  2  0  0  3  0  0  0  0  0  0
  190.7700  177.2890  137.5150 C   0  0  0  0  0  2  0  0  0  0  0  0
  192.4370  177.6890  140.2290 C   0  0  0  0  0  1  0  0  0  0  0  0
  191.5780  176.2510  138.3260 C   0  0  2  0  0  3  0  0  0  0  0  0
  188.9350  177.7100  135.5000 S   0  0  0  0  0  0  0  0  0  0  0  0
  188.4410  177.1940  142.1440 C   0  0  0  0  0  2  0  0  0  0  0  0
  189.4760  177.7490  139.9230 C   0  0  2  0  0  3  0  0  0  0  0  0
  189.3030  176.2800  134.4200 C   0  0  0  0  0  2  0  0  0  0  0  0
  191.1890  174.8820  138.0080 N   0  0  0  0  0  2  0  0  0  0  0  0
  192.3760  174.1980  137.5190 C   0  0  1  0  0  3  0  0  0  0  0  0
  192.1350  173.7360  136.0970 C   0  0  0  0  0  1  0  0  0  0  0  0
  193.5650  175.1430  137.5420 C   0  0  0  0  0  2  0  0  0  0  0  0
  194.8290  174.3910  137.9180 C   0  0  0  0  0  1  0  0  0  0  0  0
  1 18  1  0  0  0  0
  2 12  2  0  0  0  0
  3 15  1  0  0  0  0
  4 19  1  0  0  0  0
  4  1  1  0  0  0  0
  5  1  2  0  0  0  0
  6 17  2  0  0  0  0
  6  7  1  0  0  0  0
  7 10  2  0  0  0  0
  8 10  1  0  0  0  0
  9 20  1  0  0  0  0
  9  3  1  0  0  0  0
 10  5  1  0  0  0  0
 11  7  1  0  0  0  0
 12 16  1  0  0  0  0
 13 17  1  0  0  0  0
 14  2  1  0  0  0  0
 15 23  1  0  0  0  0
 17  8  1  0  0  0  0
 18  2  1  0  0  0  0
 18 24  1  0  0  0  0
 19 21  1  0  0  0  0
 21  9  1  0  0  0  0
 22  4  1  0  0  0  0
 23 16  1  0  0  0  0
 24  3  1  0  0  0  0
 24 15  1  0  0  0  0
 25 11  1  0  0  0  0
 25 22  1  0  0  0  0
 26 21  1  0  0  0  0
 27 29  1  0  0  0  0
 27 26  1  0  0  0  0
 28 27  1  0  0  0  0
 29 30  1  0  0  0  0
M  END
>  <MODEL>
6

>  <REMARK>
 VINA RESULT:      -5.1      2.819      7.469
  Name = 
  3 active torsions:
  status: ('A' for Active; 'I' for Inactive)
    1  A    between atoms: C_7  and  N_10
    2  A    between atoms: C_7  and  C_15
    3  A    between atoms: N_10  and  C_25
                            x       y       z     vdW  Elec       q    Type
                         _______ _______ _______ _____ _____    ______ ____

>  <TORSDO>
F 3

$$$$
=
 OpenBabel10272413423D

 30 34  0  0  1  0  0  0  0  0999 V2000
  187.4160  176.0800  136.5160 C   0  0  0  0  0  0  0  0  0  0  0  0
  189.8250  176.9730  136.5310 C   0  0  0  0  0  0  0  0  0  0  0  0
  189.0470  173.4080  136.7380 C   0  0  1  0  0  3  0  0  0  0  0  0
  186.5120  175.4530  135.4580 C   0  0  2  0  0  3  0  0  0  0  0  0
  186.9270  176.9300  137.4350 C   0  0  0  0  0  3  0  0  0  0  0  0
  183.3820  177.9380  137.7130 N   0  0  0  0  0  0  0  0  0  0  0  0
  184.3120  177.1050  137.2140 C   0  0  0  0  0  0  0  0  0  0  0  0
  185.4150  178.5580  138.4720 N   0  0  0  0  0  2  0  0  0  0  0  0
  188.3590  172.3940  135.8110 C   0  0  2  0  0  3  0  0  0  0  0  0
  185.5710  177.4880  137.6710 C   0  0  0  0  0  0  0  0  0  0  0  0
  183.9420  175.9570  136.3400 C   0  0  0  0  0  2  0  0  0  0  0  0
  191.1310  176.9090  136.8520 C   0  0  0  0  0  3  0  0  0  0  0  0
  183.4670  179.9120  139.2290 C   0  0  0  0  0  1  0  0  0  0  0  0
  189.3260  178.1660  136.1080 F   0  0  0  0  0  0  0  0  0  0  0  0
  190.5150  173.7630  136.5070 C   0  0  2  0  0  3  0  0  0  0  0  0
  191.9300  175.6890  137.2750 C   0  0  0  0  0  2  0  0  0  0  0  0
  184.0910  178.7990  138.4660 C   0  0  0  0  0  0  0  0  0  0  0  0
  188.9030  175.7890  136.6690 C   0  0  2  0  0  3  0  0  0  0  0  0
  186.9640  174.2360  134.6290 C   0  0  0  0  0  2  0  0  0  0  0  0
  189.1850  171.9180  134.6180 C   0  0  0  0  0  1  0  0  0  0  0  0
  186.9640  172.8800  135.3720 C   0  0  2  0  0  3  0  0  0  0  0  0
  185.7890  176.7180  134.3730 S   0  0  0  0  0  0  0  0  0  0  0  0
  191.1180  174.4710  137.7210 C   0  0  0  0  0  2  0  0  0  0  0  0
  189.4090  174.6040  135.8840 C   0  0  2  0  0  3  0  0  0  0  0  0
  184.0710  176.3160  134.8610 C   0  0  0  0  0  2  0  0  0  0  0  0
  186.0270  172.8660  136.4890 N   0  0  0  0  0  2  0  0  0  0  0  0
  184.7750  172.3150  135.9970 C   0  0  1  0  0  3  0  0  0  0  0  0
  185.0190  170.9150  135.4710 C   0  0  0  0  0  1  0  0  0  0  0  0
  183.7570  172.2540  137.1230 C   0  0  0  0  0  2  0  0  0  0  0  0
  182.6390  171.2890  136.7720 C   0  0  0  0  0  1  0  0  0  0  0  0
  1 18  1  0  0  0  0
  1  5  2  0  0  0  0
  2 18  1  0  0  0  0
  2 12  2  0  0  0  0
  4  1  1  0  0  0  0
  5 10  1  0  0  0  0
  6 17  2  0  0  0  0
  7 10  2  0  0  0  0
  7  6  1  0  0  0  0
  9  3  1  0  0  0  0
 10  8  1  0  0  0  0
 11  7  1  0  0  0  0
 12 16  1  0  0  0  0
 14  2  1  0  0  0  0
 15  3  1  0  0  0  0
 15 23  1  0  0  0  0
 16 23  1  0  0  0  0
 17  8  1  0  0  0  0
 17 13  1  0  0  0  0
 19 21  1  0  0  0  0
 19  4  1  0  0  0  0
 20  9  1  0  0  0  0
 21  9  1  0  0  0  0
 21 26  1  0  0  0  0
 22 25  1  0  0  0  0
 22  4  1  0  0  0  0
 24 15  1  0  0  0  0
 24 18  1  0  0  0  0
 24  3  1  0  0  0  0
 25 11  1  0  0  0  0
 27 26  1  0  0  0  0
 27 29  1  0  0  0  0
 28 27  1  0  0  0  0
 30 29  1  0  0  0  0
M  END
>  <MODEL>
7

>  <REMARK>
 VINA RESULT:      -4.9      2.161      6.222
  Name = 
  3 active torsions:
  status: ('A' for Active; 'I' for Inactive)
    1  A    between atoms: C_7  and  N_10
    2  A    between atoms: C_7  and  C_15
    3  A    between atoms: N_10  and  C_25
                            x       y       z     vdW  Elec       q    Type
                         _______ _______ _______ _____ _____    ______ ____

>  <TORSDO>
F 3

$$$$
=
 OpenBabel10272413423D

 30 34  0  0  1  0  0  0  0  0999 V2000
  185.7090  176.9370  136.6790 C   0  0  0  0  0  0  0  0  0  0  0  0
  187.8340  178.3570  136.9400 C   0  0  0  0  0  0  0  0  0  0  0  0
  187.8950  174.7030  136.9710 C   0  0  1  0  0  3  0  0  0  0  0  0
  185.0660  176.1720  135.5260 C   0  0  2  0  0  3  0  0  0  0  0  0
  184.9620  177.6040  137.5750 C   0  0  0  0  0  3  0  0  0  0  0  0
  181.2690  177.7560  137.5580 N   0  0  0  0  0  0  0  0  0  0  0  0
  182.4050  177.1850  137.1220 C   0  0  0  0  0  0  0  0  0  0  0  0
  183.0320  178.7870  138.5170 N   0  0  0  0  0  2  0  0  0  0  0  0
  187.5400  173.6050  135.9560 C   0  0  2  0  0  3  0  0  0  0  0  0
  183.4990  177.8230  137.7030 C   0  0  0  0  0  0  0  0  0  0  0  0
  182.3870  176.0270  136.1840 C   0  0  0  0  0  2  0  0  0  0  0  0
  189.0880  178.5790  137.3780 C   0  0  0  0  0  3  0  0  0  0  0  0
  180.7670  179.6180  139.1320 C   0  0  0  0  0  1  0  0  0  0  0  0
  187.1070  179.4230  136.5090 F   0  0  0  0  0  0  0  0  0  0  0  0
  189.2530  175.3960  136.8850 C   0  0  2  0  0  3  0  0  0  0  0  0
  190.1120  177.5560  137.8350 C   0  0  0  0  0  2  0  0  0  0  0  0
  181.6940  178.7180  138.3970 C   0  0  0  0  0  0  0  0  0  0  0  0
  187.2050  176.9880  136.9600 C   0  0  2  0  0  3  0  0  0  0  0  0
  185.8560  175.1340  134.7070 C   0  0  0  0  0  2  0  0  0  0  0  0
  188.5490  173.3920  134.8300 C   0  0  0  0  0  1  0  0  0  0  0  0
  186.1110  173.7780  135.4060 C   0  0  2  0  0  3  0  0  0  0  0  0
  184.1590  177.2880  134.4170 S   0  0  0  0  0  0  0  0  0  0  0  0
  189.5720  176.1630  138.1690 C   0  0  0  0  0  2  0  0  0  0  0  0
  188.0360  175.9910  136.1890 C   0  0  2  0  0  3  0  0  0  0  0  0
  182.5480  176.4790  134.7340 C   0  0  0  0  0  2  0  0  0  0  0  0
  185.1150  173.4950  136.4320 N   0  0  0  0  0  2  0  0  0  0  0  0
  184.8540  172.0640  136.3970 C   0  0  1  0  0  3  0  0  0  0  0  0
  183.4780  171.7950  136.9710 C   0  0  0  0  0  1  0  0  0  0  0  0
  184.9040  171.5640  134.9640 C   0  0  0  0  0  2  0  0  0  0  0  0
  185.5150  170.1750  134.9100 C   0  0  0  0  0  1  0  0  0  0  0  0
  1 18  1  0  0  0  0
  1  5  2  0  0  0  0
  2 18  1  0  0  0  0
  2 12  2  0  0  0  0
  4  1  1  0  0  0  0
  5 10  1  0  0  0  0
  6 17  2  0  0  0  0
  7  6  1  0  0  0  0
  7 10  2  0  0  0  0
  9  3  1  0  0  0  0
 10  8  1  0  0  0  0
 11  7  1  0  0  0  0
 12 16  1  0  0  0  0
 14  2  1  0  0  0  0
 15  3  1  0  0  0  0
 15 23  1  0  0  0  0
 16 23  1  0  0  0  0
 17  8  1  0  0  0  0
 17 13  1  0  0  0  0
 19 21  1  0  0  0  0
 19  4  1  0  0  0  0
 20  9  1  0  0  0  0
 21  9  1  0  0  0  0
 21 26  1  0  0  0  0
 22 25  1  0  0  0  0
 22  4  1  0  0  0  0
 24 15  1  0  0  0  0
 24 18  1  0  0  0  0
 24  3  1  0  0  0  0
 25 11  1  0  0  0  0
 27 26  1  0  0  0  0
 27 28  1  0  0  0  0
 29 27  1  0  0  0  0
 30 29  1  0  0  0  0
M  END
>  <MODEL>
8

>  <REMARK>
 VINA RESULT:      -4.8      2.516      6.670
  Name = 
  3 active torsions:
  status: ('A' for Active; 'I' for Inactive)
    1  A    between atoms: C_7  and  N_10
    2  A    between atoms: C_7  and  C_15
    3  A    between atoms: N_10  and  C_25
                            x       y       z     vdW  Elec       q    Type
                         _______ _______ _______ _____ _____    ______ ____

>  <TORSDO>
F 3

$$$$
=
 OpenBabel10272413423D

 30 34  0  0  1  0  0  0  0  0999 V2000
  191.0220  174.0610  136.0420 C   0  0  0  0  0  0  0  0  0  0  0  0
  189.8230  172.0140  135.0550 C   0  0  0  0  0  0  0  0  0  0  0  0
  188.0490  174.6550  136.8560 C   0  0  1  0  0  3  0  0  0  0  0  0
  191.2030  175.5110  135.6050 C   0  0  2  0  0  3  0  0  0  0  0  0
  192.0160  173.3860  136.6450 C   0  0  0  0  0  3  0  0  0  0  0  0
  195.3430  174.7810  137.4440 N   0  0  0  0  0  0  0  0  0  0  0  0
  194.0630  174.9780  137.0850 C   0  0  0  0  0  0  0  0  0  0  0  0
  194.2950  172.7870  137.3190 N   0  0  0  0  0  2  0  0  0  0  0  0
  187.8220  176.1580  136.6280 C   0  0  2  0  0  3  0  0  0  0  0  0
  193.4120  173.7490  136.9970 C   0  0  0  0  0  0  0  0  0  0  0  0
  193.5130  176.3460  136.8710 C   0  0  0  0  0  2  0  0  0  0  0  0
  188.8310  171.1050  135.0120 C   0  0  0  0  0  3  0  0  0  0  0  0
  196.6990  172.7600  137.9710 C   0  0  0  0  0  1  0  0  0  0  0  0
  190.9560  171.7630  134.3460 F   0  0  0  0  0  0  0  0  0  0  0  0
  187.1760  173.6420  136.1180 C   0  0  2  0  0  3  0  0  0  0  0  0
  187.4560  171.1910  135.6500 C   0  0  0  0  0  2  0  0  0  0  0  0
  195.4400  173.4460  137.5740 C   0  0  0  0  0  0  0  0  0  0  0  0
  189.7330  173.2640  135.8930 C   0  0  2  0  0  3  0  0  0  0  0  0
  190.0000  176.4000  135.2370 C   0  0  0  0  0  2  0  0  0  0  0  0
  186.8070  176.5180  135.5470 C   0  0  0  0  0  1  0  0  0  0  0  0
  189.1520  176.9100  136.4250 C   0  0  2  0  0  3  0  0  0  0  0  0
  192.5040  175.6640  134.3470 S   0  0  0  0  0  0  0  0  0  0  0  0
  187.2840  172.2490  136.7420 C   0  0  0  0  0  2  0  0  0  0  0  0
  188.5130  174.0780  135.5360 C   0  0  2  0  0  3  0  0  0  0  0  0
  193.5510  176.7380  135.3950 C   0  0  0  0  0  2  0  0  0  0  0  0
  189.9200  176.9620  137.6640 N   0  0  0  0  0  2  0  0  0  0  0  0
  189.6770  178.2630  138.2680 C   0  0  1  0  0  3  0  0  0  0  0  0
  189.0560  179.1820  137.2370 C   0  0  0  0  0  1  0  0  0  0  0  0
  188.7290  178.1200  139.4450 C   0  0  0  0  0  2  0  0  0  0  0  0
  189.3480  177.2450  140.5190 C   0  0  0  0  0  1  0  0  0  0  0  0
  1  5  2  0  0  0  0
  2 18  1  0  0  0  0
  4  1  1  0  0  0  0
  5 10  1  0  0  0  0
  6 17  2  0  0  0  0
  7  6  1  0  0  0  0
  8 17  1  0  0  0  0
  9  3  1  0  0  0  0
 10  7  2  0  0  0  0
 10  8  1  0  0  0  0
 11  7  1  0  0  0  0
 12  2  2  0  0  0  0
 12 16  1  0  0  0  0
 14  2  1  0  0  0  0
 15 23  1  0  0  0  0
 15  3  1  0  0  0  0
 16 23  1  0  0  0  0
 17 13  1  0  0  0  0
 18  1  1  0  0  0  0
 19  4  1  0  0  0  0
 19 21  1  0  0  0  0
 20  9  1  0  0  0  0
 21  9  1  0  0  0  0
 21 26  1  0  0  0  0
 22 25  1  0  0  0  0
 22  4  1  0  0  0  0
 24 18  1  0  0  0  0
 24 15  1  0  0  0  0
 24  3  1  0  0  0  0
 25 11  1  0  0  0  0
 26 27  1  0  0  0  0
 27 29  1  0  0  0  0
 28 27  1  0  0  0  0
 29 30  1  0  0  0  0
M  END
>  <MODEL>
9

>  <REMARK>
 VINA RESULT:      -4.8      3.465      5.162
  Name = 
  3 active torsions:
  status: ('A' for Active; 'I' for Inactive)
    1  A    between atoms: C_7  and  N_10
    2  A    between atoms: C_7  and  C_15
    3  A    between atoms: N_10  and  C_25
                            x       y       z     vdW  Elec       q    Type
                         _______ _______ _______ _____ _____    ______ ____

>  <TORSDO>
F 3

$$$$
