=
 OpenBabel10272402083D

 32 36  0  0  1  0  0  0  0  0999 V2000
  186.3930  178.6800  140.8880 C   0  0  2  0  0  3  0  0  0  0  0  0
  185.0250  178.9770  141.5290 C   0  0  0  0  0  2  0  0  0  0  0  0
  183.5470  177.6780  138.1970 C   0  0  0  0  0  3  0  0  0  0  0  0
  186.3340  178.2500  139.3980 C   0  0  1  0  0  3  0  0  0  0  0  0
  182.4640  176.7580  140.3020 C   0  0  0  0  0  2  0  0  0  0  0  0
  183.3200  177.9830  140.5540 C   0  0  1  0  0  3  0  0  0  0  0  0
  184.2100  177.8370  141.6140 O   0  0  0  0  0  0  0  0  0  0  0  0
  185.4800  179.1320  138.6010 N   0  0  0  0  0  2  0  0  0  0  0  0
  183.7290  176.9740  139.4970 C   0  0  2  0  0  3  0  0  0  0  0  0
  184.3520  178.6840  137.8260 C   0  0  0  0  0  3  0  0  0  0  0  0
  188.0010  179.1430  137.7990 O   0  0  0  0  0  0  0  0  0  0  0  0
  187.3820  174.7280  136.7580 C   0  0  1  0  0  3  0  0  0  0  0  0
  189.0720  178.6700  137.0120 C   0  0  0  0  0  2  0  0  0  0  0  0
  186.4740  174.2280  135.8240 O   0  0  0  0  0  1  0  0  0  0  0  0
  188.8100  174.6790  136.1890 C   0  0  1  0  0  3  0  0  0  0  0  0
  189.2490  177.1740  137.2220 C   0  0  2  0  0  3  0  0  0  0  0  0
  189.4140  176.3090  135.6090 S   0  0  0  0  0  0  0  0  0  0  0  0
  186.9340  176.1050  137.2660 C   0  0  2  0  0  3  0  0  0  0  0  0
  186.5100  176.9120  136.2040 O   0  0  0  0  0  1  0  0  0  0  0  0
  187.6990  178.1080  138.6960 C   0  0  2  0  0  3  0  0  0  0  0  0
  188.0620  176.7730  138.0710 C   0  0  2  0  0  3  0  0  0  0  0  0
  189.7840  174.0750  137.1900 C   0  0  0  0  0  2  0  0  0  0  0  0
  192.1830  174.5420  137.5690 C   0  0  0  0  0  1  0  0  0  0  0  0
  191.1740  173.9830  136.5900 C   0  0  0  0  0  2  0  0  0  0  0  0
  187.2330  177.7520  141.7740 C   0  0  0  0  0  2  0  0  0  0  0  0
  186.9080  177.8910  143.2550 C   0  0  0  0  0  2  0  0  0  0  0  0
  188.6480  177.2560  145.3120 C   0  0  0  0  0  0  0  0  0  0  0  0
  189.3760  177.0120  144.1230 N   0  0  0  0  0  0  0  0  0  0  0  0
  188.5680  177.2290  146.5670 O   0  0  0  0  0  0  0  0  0  0  0  0
  188.0630  177.5170  144.0500 N   0  0  0  0  0  0  0  0  0  0  0  0
  190.5560  176.4930  143.4600 C   0  0  0  0  0  2  0  0  0  0  0  0
  190.2210  175.3520  142.7340 O   0  0  0  0  0  1  0  0  0  0  0  0
  1  2  1  0  0  0  0
  1 25  1  1  0  0  0
  2  7  1  0  0  0  0
  4  8  1  6  0  0  0
  4  1  1  0  0  0  0
  6  5  1  1  0  0  0
  6  7  1  0  0  0  0
  9  3  1  6  0  0  0
  9  5  1  0  0  0  0
  9  6  1  0  0  0  0
 10  3  2  0  0  0  0
 10  8  1  0  0  0  0
 12 14  1  6  0  0  0
 12 18  1  0  0  0  0
 13 11  1  0  0  0  0
 15 12  1  0  0  0  0
 15 22  1  1  0  0  0
 16 13  1  6  0  0  0
 16 21  1  0  0  0  0
 17 15  1  0  0  0  0
 17 16  1  0  0  0  0
 18 19  1  6  0  0  0
 18 21  1  0  0  0  0
 20 11  1  6  0  0  0
 20  4  1  0  0  0  0
 21 20  1  0  0  0  0
 24 22  1  0  0  0  0
 24 23  1  0  0  0  0
 25 26  1  0  0  0  0
 26 30  1  0  0  0  0
 27 29  2  0  0  0  0
 28 27  1  0  0  0  0
 30 28  1  0  0  0  0
 30 27  1  0  0  0  0
 31 28  1  0  0  0  0
 32 31  1  0  0  0  0
M  END
>  <MODEL>
1

>  <REMARK>
 VINA RESULT:      -6.0      0.000      0.000
  Name = 
  7 active torsions:
  status: ('A' for Active; 'I' for Inactive)
    1  A    between atoms: C_2  and  C_5
    2  A    between atoms: C_5  and  C_18
    3  A    between atoms: C_10  and  C_24
    4  A    between atoms: N_14  and  C_21
    5  A    between atoms: C_15  and  C_19
    6  A    between atoms: C_18  and  N_29
    7  A    between atoms: C_19  and  C_26
                            x       y       z     vdW  Elec       q    Type
                         _______ _______ _______ _____ _____    ______ ____

>  <TORSDO>
F 7

$$$$
=
 OpenBabel10272402083D

 32 36  0  0  1  0  0  0  0  0999 V2000
  187.8170  177.6310  141.4570 C   0  0  2  0  0  3  0  0  0  0  0  0
  187.7710  177.0200  142.8690 C   0  0  0  0  0  2  0  0  0  0  0  0
  191.6000  177.5720  142.8810 C   0  0  0  0  0  3  0  0  0  0  0  0
  189.2450  177.9000  140.9110 C   0  0  1  0  0  3  0  0  0  0  0  0
  190.3830  178.3270  144.9790 C   0  0  0  0  0  2  0  0  0  0  0  0
  189.5530  177.4140  144.0990 C   0  0  1  0  0  3  0  0  0  0  0  0
  188.2680  177.8910  143.8510 O   0  0  0  0  0  0  0  0  0  0  0  0
  190.1340  176.7520  141.0960 N   0  0  0  0  0  2  0  0  0  0  0  0
  190.5150  178.4050  143.4710 C   0  0  2  0  0  3  0  0  0  0  0  0
  191.3860  176.8030  141.8050 C   0  0  0  0  0  3  0  0  0  0  0  0
  188.0930  178.7880  138.9060 O   0  0  0  0  0  0  0  0  0  0  0  0
  190.5320  175.1600  137.5490 C   0  0  1  0  0  3  0  0  0  0  0  0
  188.2730  178.8130  137.5070 C   0  0  0  0  0  2  0  0  0  0  0  0
  190.0660  173.8460  137.4670 O   0  0  0  0  0  1  0  0  0  0  0  0
  190.6350  175.7750  136.1440 C   0  0  1  0  0  3  0  0  0  0  0  0
  189.5550  178.0850  137.1350 C   0  0  2  0  0  3  0  0  0  0  0  0
  189.2550  176.9150  135.7500 S   0  0  0  0  0  0  0  0  0  0  0  0
  189.6970  175.9680  138.5510 C   0  0  2  0  0  3  0  0  0  0  0  0
  188.3310  175.7220  138.3730 O   0  0  0  0  0  1  0  0  0  0  0  0
  189.3160  178.3570  139.4410 C   0  0  2  0  0  3  0  0  0  0  0  0
  190.0240  177.4670  138.4340 C   0  0  2  0  0  3  0  0  0  0  0  0
  191.9730  176.4690  135.9400 C   0  0  0  0  0  2  0  0  0  0  0  0
  194.2140  175.4520  136.1900 C   0  0  0  0  0  1  0  0  0  0  0  0
  192.9960  175.9540  136.9340 C   0  0  0  0  0  2  0  0  0  0  0  0
  186.8650  178.8260  141.3350 C   0  0  0  0  0  2  0  0  0  0  0  0
  185.4220  178.4120  141.0780 C   0  0  0  0  0  2  0  0  0  0  0  0
  183.3410  178.8700  142.8460 C   0  0  0  0  0  0  0  0  0  0  0  0
  184.5090  178.8490  143.6460 N   0  0  0  0  0  0  0  0  0  0  0  0
  182.0910  178.9520  142.7440 O   0  0  0  0  0  0  0  0  0  0  0  0
  184.6130  178.6930  142.2500 N   0  0  0  0  0  0  0  0  0  0  0  0
  185.1310  178.8480  144.9550 C   0  0  0  0  0  2  0  0  0  0  0  0
  184.1530  178.9910  145.9380 O   0  0  0  0  0  1  0  0  0  0  0  0
  1 25  1  1  0  0  0
  1  2  1  0  0  0  0
  2  7  1  0  0  0  0
  4  8  1  6  0  0  0
  4  1  1  0  0  0  0
  6  5  1  1  0  0  0
  7  6  1  0  0  0  0
  8 10  1  0  0  0  0
  9  3  1  1  0  0  0
  9  6  1  0  0  0  0
  9  5  1  0  0  0  0
 10  3  2  0  0  0  0
 12 14  1  6  0  0  0
 12 18  1  0  0  0  0
 13 11  1  0  0  0  0
 15 22  1  1  0  0  0
 15 12  1  0  0  0  0
 16 13  1  1  0  0  0
 16 21  1  0  0  0  0
 17 15  1  0  0  0  0
 17 16  1  0  0  0  0
 18 19  1  6  0  0  0
 20 11  1  6  0  0  0
 20  4  1  0  0  0  0
 21 18  1  0  0  0  0
 21 20  1  0  0  0  0
 22 24  1  0  0  0  0
 23 24  1  0  0  0  0
 26 25  1  0  0  0  0
 26 30  1  0  0  0  0
 27 28  1  0  0  0  0
 28 31  1  0  0  0  0
 29 27  2  0  0  0  0
 30 27  1  0  0  0  0
 30 28  1  0  0  0  0
 31 32  1  0  0  0  0
M  END
>  <MODEL>
2

>  <REMARK>
 VINA RESULT:      -5.9      2.410      4.920
  Name = 
  7 active torsions:
  status: ('A' for Active; 'I' for Inactive)
    1  A    between atoms: C_2  and  C_5
    2  A    between atoms: C_5  and  C_18
    3  A    between atoms: C_10  and  C_24
    4  A    between atoms: N_14  and  C_21
    5  A    between atoms: C_15  and  C_19
    6  A    between atoms: C_18  and  N_29
    7  A    between atoms: C_19  and  C_26
                            x       y       z     vdW  Elec       q    Type
                         _______ _______ _______ _____ _____    ______ ____

>  <TORSDO>
F 7

$$$$
=
 OpenBabel10272402083D

 32 36  0  0  1  0  0  0  0  0999 V2000
  186.6670  178.6630  141.0260 C   0  0  2  0  0  3  0  0  0  0  0  0
  185.3660  179.0240  141.7660 C   0  0  0  0  0  2  0  0  0  0  0  0
  183.5910  177.9410  138.5030 C   0  0  0  0  0  3  0  0  0  0  0  0
  186.4830  178.2910  139.5310 C   0  0  1  0  0  3  0  0  0  0  0  0
  182.5890  177.0190  140.6470 C   0  0  0  0  0  2  0  0  0  0  0  0
  183.5390  178.1770  140.8780 C   0  0  1  0  0  3  0  0  0  0  0  0
  184.4850  177.9360  141.8710 O   0  0  0  0  0  0  0  0  0  0  0  0
  185.6380  179.2540  138.8210 N   0  0  0  0  0  2  0  0  0  0  0  0
  183.8110  177.1820  139.7660 C   0  0  2  0  0  3  0  0  0  0  0  0
  184.4360  178.9060  138.1100 C   0  0  0  0  0  3  0  0  0  0  0  0
  188.0680  179.1050  137.8110 O   0  0  0  0  0  0  0  0  0  0  0  0
  187.1860  174.7180  136.8470 C   0  0  1  0  0  3  0  0  0  0  0  0
  189.0590  178.5820  136.9530 C   0  0  0  0  0  2  0  0  0  0  0  0
  186.1930  174.2540  135.9830 O   0  0  0  0  0  1  0  0  0  0  0  0
  188.5660  174.6040  136.1780 C   0  0  1  0  0  3  0  0  0  0  0  0
  189.1850  177.0810  137.1610 C   0  0  2  0  0  3  0  0  0  0  0  0
  189.1980  176.2030  135.5460 S   0  0  0  0  0  0  0  0  0  0  0  0
  186.8350  176.1140  137.3760 C   0  0  2  0  0  3  0  0  0  0  0  0
  186.3720  176.9350  136.3420 O   0  0  0  0  0  1  0  0  0  0  0  0
  187.7860  178.0870  138.7340 C   0  0  2  0  0  3  0  0  0  0  0  0
  188.0460  176.7350  138.0940 C   0  0  2  0  0  3  0  0  0  0  0  0
  189.5820  173.9620  137.1110 C   0  0  0  0  0  2  0  0  0  0  0  0
  191.9950  174.4050  137.4220 C   0  0  0  0  0  1  0  0  0  0  0  0
  190.9470  173.9050  136.4520 C   0  0  0  0  0  2  0  0  0  0  0  0
  187.5000  177.6540  141.8240 C   0  0  0  0  0  2  0  0  0  0  0  0
  188.8620  178.1980  142.2320 C   0  0  0  0  0  2  0  0  0  0  0  0
  190.0130  177.7500  144.7090 C   0  0  0  0  0  0  0  0  0  0  0  0
  188.6170  177.7310  144.9410 N   0  0  0  0  0  0  0  0  0  0  0  0
  191.1920  177.6960  145.1450 O   0  0  0  0  0  0  0  0  0  0  0  0
  189.1080  177.9120  143.6330 N   0  0  0  0  0  0  0  0  0  0  0  0
  187.5000  177.6940  145.8650 C   0  0  0  0  0  2  0  0  0  0  0  0
  186.3050  177.8330  145.1600 O   0  0  0  0  0  1  0  0  0  0  0  0
  1  2  1  0  0  0  0
  1 25  1  1  0  0  0
  2  7  1  0  0  0  0
  4  8  1  6  0  0  0
  4  1  1  0  0  0  0
  6  5  1  1  0  0  0
  6  7  1  0  0  0  0
  9  3  1  6  0  0  0
  9  5  1  0  0  0  0
  9  6  1  0  0  0  0
 10  3  2  0  0  0  0
 10  8  1  0  0  0  0
 12 14  1  6  0  0  0
 12 18  1  0  0  0  0
 13 11  1  0  0  0  0
 15 12  1  0  0  0  0
 15 22  1  1  0  0  0
 16 13  1  6  0  0  0
 16 21  1  0  0  0  0
 17 15  1  0  0  0  0
 17 16  1  0  0  0  0
 18 19  1  6  0  0  0
 18 21  1  0  0  0  0
 20 11  1  6  0  0  0
 20  4  1  0  0  0  0
 21 20  1  0  0  0  0
 24 22  1  0  0  0  0
 24 23  1  0  0  0  0
 25 26  1  0  0  0  0
 26 30  1  0  0  0  0
 27 28  1  0  0  0  0
 27 29  2  0  0  0  0
 28 31  1  0  0  0  0
 30 27  1  0  0  0  0
 30 28  1  0  0  0  0
 32 31  1  0  0  0  0
M  END
>  <MODEL>
3

>  <REMARK>
 VINA RESULT:      -5.9      0.996      1.433
  Name = 
  7 active torsions:
  status: ('A' for Active; 'I' for Inactive)
    1  A    between atoms: C_2  and  C_5
    2  A    between atoms: C_5  and  C_18
    3  A    between atoms: C_10  and  C_24
    4  A    between atoms: N_14  and  C_21
    5  A    between atoms: C_15  and  C_19
    6  A    between atoms: C_18  and  N_29
    7  A    between atoms: C_19  and  C_26
                            x       y       z     vdW  Elec       q    Type
                         _______ _______ _______ _____ _____    ______ ____

>  <TORSDO>
F 7

$$$$
=
 OpenBabel10272402083D

 32 36  0  0  1  0  0  0  0  0999 V2000
  186.3310  178.8040  140.8840 C   0  0  2  0  0  3  0  0  0  0  0  0
  185.1320  179.2640  141.7320 C   0  0  0  0  0  2  0  0  0  0  0  0
  182.9850  178.1570  138.7090 C   0  0  0  0  0  3  0  0  0  0  0  0
  185.9790  178.3870  139.4320 C   0  0  1  0  0  3  0  0  0  0  0  0
  182.1580  177.3720  140.9790 C   0  0  0  0  0  2  0  0  0  0  0  0
  183.1840  178.4850  141.0660 C   0  0  1  0  0  3  0  0  0  0  0  0
  184.2120  178.2300  141.9700 O   0  0  0  0  0  0  0  0  0  0  0  0
  185.1170  179.3670  138.7680 N   0  0  0  0  0  2  0  0  0  0  0  0
  183.2920  177.4350  139.9750 C   0  0  2  0  0  3  0  0  0  0  0  0
  183.8330  179.0590  138.1940 C   0  0  0  0  0  3  0  0  0  0  0  0
  187.4770  179.0890  137.5880 O   0  0  0  0  0  0  0  0  0  0  0  0
  186.1140  174.8210  136.6510 C   0  0  1  0  0  3  0  0  0  0  0  0
  188.3370  178.4970  136.6390 C   0  0  0  0  0  2  0  0  0  0  0  0
  185.0100  174.4680  135.8720 O   0  0  0  0  0  1  0  0  0  0  0  0
  187.4140  174.5960  135.8600 C   0  0  1  0  0  3  0  0  0  0  0  0
  188.3420  176.9860  136.8150 C   0  0  2  0  0  3  0  0  0  0  0  0
  188.1320  176.1450  135.1950 S   0  0  0  0  0  0  0  0  0  0  0  0
  185.9400  176.2320  137.2270 C   0  0  2  0  0  3  0  0  0  0  0  0
  185.4660  177.1140  136.2470 O   0  0  0  0  0  1  0  0  0  0  0  0
  187.1840  178.0830  138.5200 C   0  0  2  0  0  3  0  0  0  0  0  0
  187.2610  176.7260  137.8420 C   0  0  2  0  0  3  0  0  0  0  0  0
  188.4440  173.8460  136.6910 C   0  0  0  0  0  2  0  0  0  0  0  0
  187.9540  171.5520  135.9080 C   0  0  0  0  0  1  0  0  0  0  0  0
  187.9100  172.4860  137.0970 C   0  0  0  0  0  2  0  0  0  0  0  0
  187.1880  177.7810  141.6380 C   0  0  0  0  0  2  0  0  0  0  0  0
  188.5540  178.3260  142.0330 C   0  0  0  0  0  2  0  0  0  0  0  0
  190.3060  176.1840  142.0830 C   0  0  0  0  0  0  0  0  0  0  0  0
  190.4850  176.7780  140.8110 N   0  0  0  0  0  0  0  0  0  0  0  0
  190.5720  175.2730  142.9090 O   0  0  0  0  0  0  0  0  0  0  0  0
  189.5810  177.3470  141.7300 N   0  0  0  0  0  0  0  0  0  0  0  0
  191.0670  176.7470  139.4840 C   0  0  0  0  0  2  0  0  0  0  0  0
  190.7660  175.5320  138.8700 O   0  0  0  0  0  1  0  0  0  0  0  0
  1 25  1  1  0  0  0
  1  2  1  0  0  0  0
  2  7  1  0  0  0  0
  4  8  1  6  0  0  0
  4  1  1  0  0  0  0
  6  5  1  1  0  0  0
  6  7  1  0  0  0  0
  9  3  1  6  0  0  0
  9  5  1  0  0  0  0
  9  6  1  0  0  0  0
 10  3  2  0  0  0  0
 10  8  1  0  0  0  0
 12 14  1  6  0  0  0
 12 18  1  0  0  0  0
 13 11  1  0  0  0  0
 15 12  1  0  0  0  0
 15 22  1  1  0  0  0
 16 13  1  6  0  0  0
 16 21  1  0  0  0  0
 17 15  1  0  0  0  0
 17 16  1  0  0  0  0
 18 19  1  6  0  0  0
 18 21  1  0  0  0  0
 20 11  1  6  0  0  0
 20  4  1  0  0  0  0
 21 20  1  0  0  0  0
 22 24  1  0  0  0  0
 23 24  1  0  0  0  0
 25 26  1  0  0  0  0
 27 29  2  0  0  0  0
 28 30  1  0  0  0  0
 28 27  1  0  0  0  0
 30 26  1  0  0  0  0
 30 27  1  0  0  0  0
 31 28  1  0  0  0  0
 32 31  1  0  0  0  0
M  END
>  <MODEL>
4

>  <REMARK>
 VINA RESULT:      -5.8      1.641      2.189
  Name = 
  7 active torsions:
  status: ('A' for Active; 'I' for Inactive)
    1  A    between atoms: C_2  and  C_5
    2  A    between atoms: C_5  and  C_18
    3  A    between atoms: C_10  and  C_24
    4  A    between atoms: N_14  and  C_21
    5  A    between atoms: C_15  and  C_19
    6  A    between atoms: C_18  and  N_29
    7  A    between atoms: C_19  and  C_26
                            x       y       z     vdW  Elec       q    Type
                         _______ _______ _______ _____ _____    ______ ____

>  <TORSDO>
F 7

$$$$
=
 OpenBabel10272402083D

 32 36  0  0  1  0  0  0  0  0999 V2000
  187.3290  178.7860  140.3820 C   0  0  2  0  0  3  0  0  0  0  0  0
  188.2540  178.7020  141.6100 C   0  0  0  0  0  2  0  0  0  0  0  0
  184.9820  178.3930  143.6510 C   0  0  0  0  0  3  0  0  0  0  0  0
  185.8140  178.8580  140.7140 C   0  0  1  0  0  3  0  0  0  0  0  0
  186.8010  176.7250  144.2490 C   0  0  0  0  0  2  0  0  0  0  0  0
  187.3050  177.8910  143.4220 C   0  0  1  0  0  3  0  0  0  0  0  0
  188.0850  177.5110  142.3330 O   0  0  0  0  0  0  0  0  0  0  0  0
  185.5220  179.8480  141.7520 N   0  0  0  0  0  2  0  0  0  0  0  0
  185.9150  177.3320  143.1800 C   0  0  2  0  0  3  0  0  0  0  0  0
  184.8440  179.5500  142.9870 C   0  0  0  0  0  3  0  0  0  0  0  0
  184.1420  180.2940  139.5850 O   0  0  0  0  0  0  0  0  0  0  0  0
  182.4730  176.0320  139.5660 C   0  0  1  0  0  3  0  0  0  0  0  0
  183.1210  180.1710  138.6190 C   0  0  0  0  0  2  0  0  0  0  0  0
  181.6280  175.4800  140.5300 O   0  0  0  0  0  1  0  0  0  0  0  0
  181.6790  176.3660  138.2920 C   0  0  1  0  0  3  0  0  0  0  0  0
  183.0400  178.7340  138.1300 C   0  0  2  0  0  3  0  0  0  0  0  0
  181.2970  178.1500  138.1250 S   0  0  0  0  0  0  0  0  0  0  0  0
  183.2770  177.1990  140.1540 C   0  0  2  0  0  3  0  0  0  0  0  0
  182.4530  178.0330  140.9190 O   0  0  0  0  0  1  0  0  0  0  0  0
  184.8850  179.1070  139.5090 C   0  0  2  0  0  3  0  0  0  0  0  0
  183.9890  177.9770  139.0340 C   0  0  2  0  0  3  0  0  0  0  0  0
  182.3880  175.8540  137.0470 C   0  0  0  0  0  2  0  0  0  0  0  0
  183.5190  173.8370  136.1710 C   0  0  0  0  0  1  0  0  0  0  0  0
  183.3080  174.7010  137.3950 C   0  0  0  0  0  2  0  0  0  0  0  0
  187.6900  177.7230  139.3380 C   0  0  0  0  0  2  0  0  0  0  0  0
  188.9420  178.0730  138.5440 C   0  0  0  0  0  2  0  0  0  0  0  0
  190.9090  176.1520  138.8590 C   0  0  0  0  0  0  0  0  0  0  0  0
  191.1780  177.1230  139.8530 N   0  0  0  0  0  0  0  0  0  0  0  0
  191.2180  175.0900  138.2610 O   0  0  0  0  0  0  0  0  0  0  0  0
  190.0600  177.2750  139.0090 N   0  0  0  0  0  0  0  0  0  0  0  0
  192.0450  177.6510  140.8880 C   0  0  0  0  0  2  0  0  0  0  0  0
  191.6140  177.1980  142.1340 O   0  0  0  0  0  1  0  0  0  0  0  0
  1 25  1  6  0  0  0
  1  4  1  0  0  0  0
  1  2  1  0  0  0  0
  2  7  1  0  0  0  0
  4  8  1  1  0  0  0
  6  5  1  1  0  0  0
  7  6  1  0  0  0  0
  8 10  1  0  0  0  0
  9  6  1  0  0  0  0
  9  3  1  1  0  0  0
  9  5  1  0  0  0  0
 10  3  2  0  0  0  0
 12 18  1  0  0  0  0
 12 14  1  1  0  0  0
 13 11  1  0  0  0  0
 15 22  1  6  0  0  0
 15 12  1  0  0  0  0
 16 13  1  1  0  0  0
 16 21  1  0  0  0  0
 17 16  1  0  0  0  0
 17 15  1  0  0  0  0
 18 19  1  6  0  0  0
 20 11  1  1  0  0  0
 20  4  1  0  0  0  0
 21 20  1  0  0  0  0
 21 18  1  0  0  0  0
 22 24  1  0  0  0  0
 23 24  1  0  0  0  0
 26 30  1  0  0  0  0
 26 25  1  0  0  0  0
 27 30  1  0  0  0  0
 27 28  1  0  0  0  0
 28 31  1  0  0  0  0
 29 27  2  0  0  0  0
 30 28  1  0  0  0  0
 31 32  1  0  0  0  0
M  END
>  <MODEL>
5

>  <REMARK>
 VINA RESULT:      -5.6      3.188      5.620
  Name = 
  7 active torsions:
  status: ('A' for Active; 'I' for Inactive)
    1  A    between atoms: C_2  and  C_5
    2  A    between atoms: C_5  and  C_18
    3  A    between atoms: C_10  and  C_24
    4  A    between atoms: N_14  and  C_21
    5  A    between atoms: C_15  and  C_19
    6  A    between atoms: C_18  and  N_29
    7  A    between atoms: C_19  and  C_26
                            x       y       z     vdW  Elec       q    Type
                         _______ _______ _______ _____ _____    ______ ____

>  <TORSDO>
F 7

$$$$
=
 OpenBabel10272402083D

 32 36  0  0  1  0  0  0  0  0999 V2000
  188.4760  178.4130  140.2230 C   0  0  2  0  0  3  0  0  0  0  0  0
  188.9050  179.0280  138.8780 C   0  0  0  0  0  2  0  0  0  0  0  0
  191.0850  175.8540  138.4940 C   0  0  0  0  0  3  0  0  0  0  0  0
  189.2380  177.1210  140.6200 C   0  0  1  0  0  3  0  0  0  0  0  0
  189.7200  176.4930  136.4490 C   0  0  0  0  0  2  0  0  0  0  0  0
  189.8260  177.6060  137.4720 C   0  0  1  0  0  3  0  0  0  0  0  0
  188.6050  178.1980  137.7860 O   0  0  0  0  0  0  0  0  0  0  0  0
  190.6870  177.2620  140.4610 N   0  0  0  0  0  2  0  0  0  0  0  0
  189.7420  176.1620  137.9280 C   0  0  2  0  0  3  0  0  0  0  0  0
  191.5000  176.3970  139.6470 C   0  0  0  0  0  3  0  0  0  0  0  0
  187.6660  176.9110  142.5220 O   0  0  0  0  0  0  0  0  0  0  0  0
  191.6780  178.2810  144.2500 C   0  0  1  0  0  3  0  0  0  0  0  0
  187.7120  176.6650  143.9110 C   0  0  0  0  0  2  0  0  0  0  0  0
  192.0630  179.6050  144.4710 O   0  0  0  0  0  1  0  0  0  0  0  0
  191.3170  177.6050  145.5830 C   0  0  1  0  0  3  0  0  0  0  0  0
  189.1530  176.4670  144.3550 C   0  0  2  0  0  3  0  0  0  0  0  0
  189.5100  177.4650  145.8570 S   0  0  0  0  0  0  0  0  0  0  0  0
  190.5910  178.2070  143.1690 C   0  0  2  0  0  3  0  0  0  0  0  0
  189.6180  179.1930  143.3750 O   0  0  0  0  0  1  0  0  0  0  0  0
  188.9400  176.5860  142.0340 C   0  0  2  0  0  3  0  0  0  0  0  0
  189.9720  176.8000  143.1280 C   0  0  2  0  0  3  0  0  0  0  0  0
  191.9820  176.2420  145.7110 C   0  0  0  0  0  2  0  0  0  0  0  0
  192.7320  175.7880  148.0230 C   0  0  0  0  0  1  0  0  0  0  0  0
  191.6090  175.5900  147.0280 C   0  0  0  0  0  2  0  0  0  0  0  0
  186.9510  178.2950  140.3200 C   0  0  0  0  0  2  0  0  0  0  0  0
  186.3580  179.1630  141.4220 C   0  0  0  0  0  2  0  0  0  0  0  0
  183.8060  178.1040  141.2630 C   0  0  0  0  0  0  0  0  0  0  0  0
  183.9070  178.6290  142.5730 N   0  0  0  0  0  0  0  0  0  0  0  0
  183.1560  177.4790  140.3850 O   0  0  0  0  0  0  0  0  0  0  0  0
  184.9870  178.7640  141.6780 N   0  0  0  0  0  0  0  0  0  0  0  0
  183.3580  178.7890  143.9050 C   0  0  0  0  0  2  0  0  0  0  0  0
  184.3540  179.2370  144.7710 O   0  0  0  0  0  1  0  0  0  0  0  0
  1 25  1  6  0  0  0
  1  4  1  0  0  0  0
  2  1  1  0  0  0  0
  3 10  2  0  0  0  0
  4  8  1  1  0  0  0
  4 20  1  0  0  0  0
  6  5  1  6  0  0  0
  6  7  1  0  0  0  0
  6  9  1  0  0  0  0
  7  2  1  0  0  0  0
  9  5  1  6  0  0  0
  9  3  1  0  0  0  0
 10  8  1  0  0  0  0
 11 13  1  0  0  0  0
 12 14  1  1  0  0  0
 12 15  1  0  0  0  0
 15 22  1  6  0  0  0
 15 17  1  0  0  0  0
 16 13  1  6  0  0  0
 16 17  1  0  0  0  0
 18 19  1  1  0  0  0
 18 12  1  0  0  0  0
 20 11  1  1  0  0  0
 20 21  1  0  0  0  0
 21 18  1  0  0  0  0
 21 16  1  0  0  0  0
 22 24  1  0  0  0  0
 24 23  1  0  0  0  0
 25 26  1  0  0  0  0
 26 30  1  0  0  0  0
 27 30  1  0  0  0  0
 27 28  1  0  0  0  0
 28 31  1  0  0  0  0
 29 27  2  0  0  0  0
 30 28  1  0  0  0  0
 31 32  1  0  0  0  0
M  END
>  <MODEL>
6

>  <REMARK>
 VINA RESULT:      -5.6      3.167      7.279
  Name = 
  7 active torsions:
  status: ('A' for Active; 'I' for Inactive)
    1  A    between atoms: C_2  and  C_5
    2  A    between atoms: C_5  and  C_18
    3  A    between atoms: C_10  and  C_24
    4  A    between atoms: N_14  and  C_21
    5  A    between atoms: C_15  and  C_19
    6  A    between atoms: C_18  and  N_29
    7  A    between atoms: C_19  and  C_26
                            x       y       z     vdW  Elec       q    Type
                         _______ _______ _______ _____ _____    ______ ____

>  <TORSDO>
F 7

$$$$
=
 OpenBabel10272402083D

 32 36  0  0  1  0  0  0  0  0999 V2000
  187.9790  177.6600  141.2140 C   0  0  2  0  0  3  0  0  0  0  0  0
  187.8740  177.0790  142.6360 C   0  0  0  0  0  2  0  0  0  0  0  0
  191.7140  177.5370  142.7570 C   0  0  0  0  0  3  0  0  0  0  0  0
  189.4290  177.8830  140.7080 C   0  0  1  0  0  3  0  0  0  0  0  0
  190.4520  178.3660  144.8000 C   0  0  0  0  0  2  0  0  0  0  0  0
  189.6270  177.4550  143.9130 C   0  0  1  0  0  3  0  0  0  0  0  0
  188.3630  177.9590  143.6150 O   0  0  0  0  0  0  0  0  0  0  0  0
  190.2820  176.7170  140.9430 N   0  0  0  0  0  2  0  0  0  0  0  0
  190.6330  178.4090  143.2960 C   0  0  2  0  0  3  0  0  0  0  0  0
  191.5130  176.7510  141.6900 C   0  0  0  0  0  3  0  0  0  0  0  0
  188.4250  178.9520  138.7130 O   0  0  0  0  0  0  0  0  0  0  0  0
  190.1290  174.9260  137.3560 C   0  0  1  0  0  3  0  0  0  0  0  0
  188.5810  178.9330  137.3100 C   0  0  0  0  0  2  0  0  0  0  0  0
  189.4280  173.7200  137.2960 O   0  0  0  0  0  1  0  0  0  0  0  0
  190.3180  175.5000  135.9420 C   0  0  1  0  0  3  0  0  0  0  0  0
  189.7000  177.9770  136.9260 C   0  0  2  0  0  3  0  0  0  0  0  0
  189.1650  176.8720  135.5580 S   0  0  0  0  0  0  0  0  0  0  0  0
  189.4760  175.8820  138.3630 C   0  0  2  0  0  3  0  0  0  0  0  0
  188.0840  175.8910  138.2090 O   0  0  0  0  0  1  0  0  0  0  0  0
  189.5570  178.3070  139.2320 C   0  0  2  0  0  3  0  0  0  0  0  0
  190.0700  177.2940  138.2240 C   0  0  2  0  0  3  0  0  0  0  0  0
  191.7580  175.9340  135.7090 C   0  0  0  0  0  2  0  0  0  0  0  0
  193.7360  176.0290  137.1900 C   0  0  0  0  0  1  0  0  0  0  0  0
  192.7060  175.1150  136.5640 C   0  0  0  0  0  2  0  0  0  0  0  0
  187.0620  178.8760  141.0390 C   0  0  0  0  0  2  0  0  0  0  0  0
  185.5920  178.5480  141.2680 C   0  0  0  0  0  2  0  0  0  0  0  0
  184.0900  179.5220  139.1570 C   0  0  0  0  0  0  0  0  0  0  0  0
  184.4890  178.2240  138.7590 N   0  0  0  0  0  0  0  0  0  0  0  0
  183.5110  180.6100  138.9060 O   0  0  0  0  0  0  0  0  0  0  0  0
  184.8530  178.7100  140.0300 N   0  0  0  0  0  0  0  0  0  0  0  0
  184.5770  177.1970  137.7400 C   0  0  0  0  0  2  0  0  0  0  0  0
  185.5000  177.5810  136.7680 O   0  0  0  0  0  1  0  0  0  0  0  0
  1 25  1  1  0  0  0
  1  2  1  0  0  0  0
  2  7  1  0  0  0  0
  4  8  1  6  0  0  0
  4  1  1  0  0  0  0
  6  5  1  1  0  0  0
  7  6  1  0  0  0  0
  8 10  1  0  0  0  0
  9  3  1  1  0  0  0
  9  6  1  0  0  0  0
  9  5  1  0  0  0  0
 10  3  2  0  0  0  0
 12 14  1  6  0  0  0
 12 18  1  0  0  0  0
 13 11  1  0  0  0  0
 15 22  1  1  0  0  0
 15 12  1  0  0  0  0
 16 13  1  1  0  0  0
 16 21  1  0  0  0  0
 17 15  1  0  0  0  0
 17 16  1  0  0  0  0
 18 19  1  6  0  0  0
 20 11  1  6  0  0  0
 20  4  1  0  0  0  0
 21 18  1  0  0  0  0
 21 20  1  0  0  0  0
 22 24  1  0  0  0  0
 24 23  1  0  0  0  0
 25 26  1  0  0  0  0
 27 30  1  0  0  0  0
 28 27  1  0  0  0  0
 28 30  1  0  0  0  0
 29 27  2  0  0  0  0
 30 26  1  0  0  0  0
 31 28  1  0  0  0  0
 32 31  1  0  0  0  0
M  END
>  <MODEL>
7

>  <REMARK>
 VINA RESULT:      -5.6      2.129      5.276
  Name = 
  7 active torsions:
  status: ('A' for Active; 'I' for Inactive)
    1  A    between atoms: C_2  and  C_5
    2  A    between atoms: C_5  and  C_18
    3  A    between atoms: C_10  and  C_24
    4  A    between atoms: N_14  and  C_21
    5  A    between atoms: C_15  and  C_19
    6  A    between atoms: C_18  and  N_29
    7  A    between atoms: C_19  and  C_26
                            x       y       z     vdW  Elec       q    Type
                         _______ _______ _______ _____ _____    ______ ____

>  <TORSDO>
F 7

$$$$
=
 OpenBabel10272402083D

 32 36  0  0  1  0  0  0  0  0999 V2000
  192.0710  175.5000  138.2390 C   0  0  2  0  0  3  0  0  0  0  0  0
  193.5800  175.6330  137.9660 C   0  0  0  0  0  2  0  0  0  0  0  0
  192.6870  174.5990  134.3460 C   0  0  0  0  0  3  0  0  0  0  0  0
  191.2440  174.9280  137.0570 C   0  0  1  0  0  3  0  0  0  0  0  0
  194.2430  176.5950  134.5570 C   0  0  0  0  0  2  0  0  0  0  0  0
  194.1170  175.7940  135.8380 C   0  0  1  0  0  3  0  0  0  0  0  0
  193.8660  176.5730  136.9640 O   0  0  0  0  0  0  0  0  0  0  0  0
  191.8560  173.7280  136.4830 N   0  0  0  0  0  2  0  0  0  0  0  0
  192.9190  175.9530  134.9200 C   0  0  2  0  0  3  0  0  0  0  0  0
  192.2220  173.5900  135.0970 C   0  0  0  0  0  3  0  0  0  0  0  0
  189.2960  173.4120  136.8620 O   0  0  0  0  0  0  0  0  0  0  0  0
  187.8670  177.5870  135.6460 C   0  0  1  0  0  3  0  0  0  0  0  0
  187.8880  173.4850  136.9200 C   0  0  0  0  0  2  0  0  0  0  0  0
  187.8400  178.0960  134.3460 O   0  0  0  0  0  1  0  0  0  0  0  0
  186.4450  177.2150  136.0980 C   0  0  1  0  0  3  0  0  0  0  0  0
  187.4530  174.9170  137.1880 C   0  0  2  0  0  3  0  0  0  0  0  0
  186.1130  175.4140  136.0330 S   0  0  0  0  0  0  0  0  0  0  0  0
  188.9010  176.4600  135.7650 C   0  0  2  0  0  3  0  0  0  0  0  0
  188.8120  175.5860  134.6750 O   0  0  0  0  0  1  0  0  0  0  0  0
  189.7630  174.6340  137.3660 C   0  0  2  0  0  3  0  0  0  0  0  0
  188.7340  175.7190  137.1020 C   0  0  2  0  0  3  0  0  0  0  0  0
  186.1450  177.7620  137.4870 C   0  0  0  0  0  2  0  0  0  0  0  0
  184.3130  178.6670  138.8790 C   0  0  0  0  0  1  0  0  0  0  0  0
  184.6590  177.6890  137.7770 C   0  0  0  0  0  2  0  0  0  0  0  0
  191.4970  176.7890  138.8380 C   0  0  0  0  0  2  0  0  0  0  0  0
  192.2800  177.2810  140.0470 C   0  0  0  0  0  2  0  0  0  0  0  0
  191.2110  177.4950  142.5920 C   0  0  0  0  0  0  0  0  0  0  0  0
  190.1110  177.6480  141.7140 N   0  0  0  0  0  0  0  0  0  0  0  0
  191.6830  177.4840  143.7580 O   0  0  0  0  0  0  0  0  0  0  0  0
  191.3960  177.4010  141.1910 N   0  0  0  0  0  0  0  0  0  0  0  0
  188.7130  177.9650  141.5000 C   0  0  0  0  0  2  0  0  0  0  0  0
  188.5360  178.4490  140.2060 O   0  0  0  0  0  1  0  0  0  0  0  0
  1 25  1  6  0  0  0
  2  1  1  0  0  0  0
  3 10  2  0  0  0  0
  4  8  1  1  0  0  0
  4 20  1  0  0  0  0
  4  1  1  0  0  0  0
  5  9  1  0  0  0  0
  6  5  1  6  0  0  0
  6  7  1  0  0  0  0
  7  2  1  0  0  0  0
  9  3  1  6  0  0  0
  9  6  1  0  0  0  0
 10  8  1  0  0  0  0
 11 13  1  0  0  0  0
 12 14  1  6  0  0  0
 12 18  1  0  0  0  0
 12 15  1  0  0  0  0
 15 22  1  1  0  0  0
 16 13  1  6  0  0  0
 17 15  1  0  0  0  0
 17 16  1  0  0  0  0
 18 19  1  6  0  0  0
 18 21  1  0  0  0  0
 20 11  1  6  0  0  0
 21 16  1  0  0  0  0
 21 20  1  0  0  0  0
 22 24  1  0  0  0  0
 24 23  1  0  0  0  0
 25 26  1  0  0  0  0
 26 30  1  0  0  0  0
 27 29  2  0  0  0  0
 28 27  1  0  0  0  0
 30 28  1  0  0  0  0
 30 27  1  0  0  0  0
 31 28  1  0  0  0  0
 32 31  1  0  0  0  0
M  END
>  <MODEL>
8

>  <REMARK>
 VINA RESULT:      -5.5      2.981      6.806
  Name = 
  7 active torsions:
  status: ('A' for Active; 'I' for Inactive)
    1  A    between atoms: C_2  and  C_5
    2  A    between atoms: C_5  and  C_18
    3  A    between atoms: C_10  and  C_24
    4  A    between atoms: N_14  and  C_21
    5  A    between atoms: C_15  and  C_19
    6  A    between atoms: C_18  and  N_29
    7  A    between atoms: C_19  and  C_26
                            x       y       z     vdW  Elec       q    Type
                         _______ _______ _______ _____ _____    ______ ____

>  <TORSDO>
F 7

$$$$
=
 OpenBabel10272402083D

 32 36  0  0  1  0  0  0  0  0999 V2000
  186.6540  178.7760  140.8440 C   0  0  2  0  0  3  0  0  0  0  0  0
  185.6120  179.3100  141.8440 C   0  0  0  0  0  2  0  0  0  0  0  0
  183.0190  178.4320  139.1090 C   0  0  0  0  0  3  0  0  0  0  0  0
  186.0890  178.4170  139.4450 C   0  0  1  0  0  3  0  0  0  0  0  0
  182.4270  177.6690  141.4580 C   0  0  0  0  0  2  0  0  0  0  0  0
  183.5400  178.6970  141.4240 C   0  0  1  0  0  3  0  0  0  0  0  0
  184.6500  178.3460  142.1870 O   0  0  0  0  0  0  0  0  0  0  0  0
  185.2300  179.4730  138.9060 N   0  0  0  0  0  2  0  0  0  0  0  0
  183.4250  177.6640  140.3180 C   0  0  2  0  0  3  0  0  0  0  0  0
  183.8630  179.2760  138.4990 C   0  0  0  0  0  3  0  0  0  0  0  0
  187.3340  179.0050  137.3870 O   0  0  0  0  0  0  0  0  0  0  0  0
  185.7000  174.7710  136.7940 C   0  0  1  0  0  3  0  0  0  0  0  0
  188.0290  178.3520  136.3470 C   0  0  0  0  0  2  0  0  0  0  0  0
  184.4850  174.4400  136.1910 O   0  0  0  0  0  1  0  0  0  0  0  0
  186.8660  174.4720  135.8370 C   0  0  1  0  0  3  0  0  0  0  0  0
  188.0050  176.8480  136.5710 C   0  0  2  0  0  3  0  0  0  0  0  0
  187.5380  175.9710  135.0250 S   0  0  0  0  0  0  0  0  0  0  0  0
  185.6610  176.2040  137.3410 C   0  0  2  0  0  3  0  0  0  0  0  0
  185.0840  177.0750  136.4090 O   0  0  0  0  0  1  0  0  0  0  0  0
  187.1410  178.0380  138.3830 C   0  0  2  0  0  3  0  0  0  0  0  0
  187.0720  176.6610  137.7470 C   0  0  2  0  0  3  0  0  0  0  0  0
  187.9760  173.7040  136.5390 C   0  0  0  0  0  2  0  0  0  0  0  0
  188.3590  171.5760  135.3390 C   0  0  0  0  0  1  0  0  0  0  0  0
  187.6810  172.2160  136.5310 C   0  0  0  0  0  2  0  0  0  0  0  0
  187.5160  177.6760  141.4730 C   0  0  0  0  0  2  0  0  0  0  0  0
  188.9970  178.0280  141.5070 C   0  0  0  0  0  2  0  0  0  0  0  0
  190.4580  178.4080  143.8270 C   0  0  0  0  0  0  0  0  0  0  0  0
  189.1980  177.9280  144.2580 N   0  0  0  0  0  0  0  0  0  0  0  0
  191.6070  178.8460  144.0920 O   0  0  0  0  0  0  0  0  0  0  0  0
  189.4620  178.0680  142.8810 N   0  0  0  0  0  0  0  0  0  0  0  0
  188.2680  177.6370  145.3310 C   0  0  0  0  0  2  0  0  0  0  0  0
  186.9840  178.0290  144.9560 O   0  0  0  0  0  1  0  0  0  0  0  0
  1 25  1  1  0  0  0
  1  2  1  0  0  0  0
  2  7  1  0  0  0  0
  4  8  1  6  0  0  0
  4  1  1  0  0  0  0
  6  5  1  1  0  0  0
  6  7  1  0  0  0  0
  9  3  1  6  0  0  0
  9  6  1  0  0  0  0
  9  5  1  0  0  0  0
 10  8  1  0  0  0  0
 10  3  2  0  0  0  0
 12 14  1  6  0  0  0
 12 18  1  0  0  0  0
 13 11  1  0  0  0  0
 15 22  1  1  0  0  0
 15 12  1  0  0  0  0
 16 13  1  6  0  0  0
 16 21  1  0  0  0  0
 17 15  1  0  0  0  0
 17 16  1  0  0  0  0
 18 19  1  6  0  0  0
 18 21  1  0  0  0  0
 20 11  1  6  0  0  0
 20  4  1  0  0  0  0
 21 20  1  0  0  0  0
 23 24  1  0  0  0  0
 24 22  1  0  0  0  0
 25 26  1  0  0  0  0
 26 30  1  0  0  0  0
 27 29  2  0  0  0  0
 27 28  1  0  0  0  0
 28 31  1  0  0  0  0
 30 27  1  0  0  0  0
 30 28  1  0  0  0  0
 32 31  1  0  0  0  0
M  END
>  <MODEL>
9

>  <REMARK>
 VINA RESULT:      -5.5      1.703      2.171
  Name = 
  7 active torsions:
  status: ('A' for Active; 'I' for Inactive)
    1  A    between atoms: C_2  and  C_5
    2  A    between atoms: C_5  and  C_18
    3  A    between atoms: C_10  and  C_24
    4  A    between atoms: N_14  and  C_21
    5  A    between atoms: C_15  and  C_19
    6  A    between atoms: C_18  and  N_29
    7  A    between atoms: C_19  and  C_26
                            x       y       z     vdW  Elec       q    Type
                         _______ _______ _______ _____ _____    ______ ____

>  <TORSDO>
F 7

$$$$
