=
 OpenBabel10272400543D

 25 28  0  0  1  0  0  0  0  0999 V2000
  189.8180  177.5110  145.1370 C   0  0  2  0  0  0  0  0  0  0  0  0
  188.8430  177.1700  143.9950 C   0  0  1  0  0  3  0  0  0  0  0  0
  191.6850  176.6910  143.3860 C   0  0  0  0  0  2  0  0  0  0  0  0
  189.3170  177.2360  146.5590 C   0  0  0  0  0  2  0  0  0  0  0  0
  192.0140  175.4600  148.1930 N   0  0  0  0  0  1  0  0  0  0  0  0
  190.5210  176.2030  142.5170 C   0  0  0  0  0  2  0  0  0  0  0  0
  191.3790  176.4170  147.3050 C   0  0  2  0  0  3  0  0  0  0  0  0
  189.9750  176.0710  147.1400 N   0  0  0  0  0  2  0  0  0  0  0  0
  188.2100  177.0040  141.7470 C   0  0  2  0  0  3  0  0  0  0  0  0
  188.4610  177.4400  140.3090 C   0  0  0  0  0  1  0  0  0  0  0  0
  187.5560  177.9560  143.9190 C   0  0  0  0  0  2  0  0  0  0  0  0
  190.9480  178.5520  145.0800 C   0  0  1  0  0  3  0  0  0  0  0  0
  191.2680  177.0650  144.8320 C   0  0  1  0  0  0  0  0  0  0  0  0
  192.0800  176.3970  145.9510 C   0  0  0  0  0  2  0  0  0  0  0  0
  190.8960  179.4400  143.8410 C   0  0  0  0  0  1  0  0  0  0  0  0
  187.0730  177.7610  142.4760 C   0  0  1  0  0  3  0  0  0  0  0  0
  189.4190  177.2330  142.6140 C   0  0  1  0  0  3  0  0  0  0  0  0
  186.7510  179.1260  141.8640 C   0  0  0  0  0  2  0  0  0  0  0  0
  185.2870  179.2210  141.4670 C   0  0  0  0  0  2  0  0  0  0  0  0
  184.4620  178.1810  142.2070 C   0  0  0  0  0  2  0  0  0  0  0  0
  183.4910  178.8560  143.1630 C   0  0  0  0  0  2  0  0  0  0  0  0
  184.2130  179.4720  144.3560 C   0  0  0  0  0  2  0  0  0  0  0  0
  183.8520  178.7600  145.6540 C   0  0  0  0  0  2  0  0  0  0  0  0
  185.0940  178.3990  146.4530 C   0  0  0  0  0  2  0  0  0  0  0  0
  185.6050  179.5350  147.0810 O   0  0  0  0  0  1  0  0  0  0  0  0
  1  4  1  1  0  0  0
  2 11  1  6  0  0  0
  2  1  1  0  0  0  0
  4  8  1  0  0  0  0
  6  3  1  0  0  0  0
  7  5  1  1  0  0  0
  8  7  1  0  0  0  0
  9 10  1  6  0  0  0
  9 16  1  0  0  0  0
  9 17  1  0  0  0  0
 12 15  1  6  0  0  0
 12  1  1  0  0  0  0
 13  3  1  6  0  0  0
 13 12  1  0  0  0  0
 13  1  1  0  0  0  0
 13 14  1  0  0  0  0
 14  7  1  0  0  0  0
 16 18  1  6  0  0  0
 16 11  1  0  0  0  0
 17  6  1  1  0  0  0
 17  2  1  0  0  0  0
 19 18  1  0  0  0  0
 19 20  1  0  0  0  0
 20 21  1  0  0  0  0
 21 22  1  0  0  0  0
 22 23  1  0  0  0  0
 23 24  1  0  0  0  0
 24 25  1  0  0  0  0
M  END
>  <MODEL>
1

>  <REMARK>
 VINA RESULT:      -7.5      0.000      0.000
  Name = 
  7 active torsions:
  status: ('A' for Active; 'I' for Inactive)
    1  A    between atoms: C_2  and  C_7
    2  A    between atoms: C_2  and  C_25
    3  A    between atoms: C_6  and  C_15
    4  A    between atoms: C_6  and  C_21
    5  A    between atoms: C_15  and  C_20
    6  A    between atoms: C_20  and  C_23
    7  A    between atoms: C_21  and  C_25
                            x       y       z     vdW  Elec       q    Type
                         _______ _______ _______ _____ _____    ______ ____

>  <TORSDO>
F 7

$$$$
=
 OpenBabel10272400543D

 25 28  0  0  1  0  0  0  0  0999 V2000
  189.6260  177.5320  145.7320 C   0  0  2  0  0  0  0  0  0  0  0  0
  188.2120  177.3060  145.1670 C   0  0  1  0  0  3  0  0  0  0  0  0
  190.4080  176.4970  143.3780 C   0  0  0  0  0  2  0  0  0  0  0  0
  189.7930  177.3180  147.2410 C   0  0  0  0  0  2  0  0  0  0  0  0
  192.7350  175.2390  147.5890 N   0  0  0  0  0  1  0  0  0  0  0  0
  188.9340  176.1480  143.1480 C   0  0  0  0  0  2  0  0  0  0  0  0
  191.8720  176.2630  147.0300 C   0  0  2  0  0  3  0  0  0  0  0  0
  190.5160  176.0840  147.5280 N   0  0  0  0  0  2  0  0  0  0  0  0
  186.6210  177.2150  143.4520 C   0  0  2  0  0  3  0  0  0  0  0  0
  186.2420  177.6170  142.0320 C   0  0  0  0  0  1  0  0  0  0  0  0
  187.1180  178.2380  145.6320 C   0  0  0  0  0  2  0  0  0  0  0  0
  190.7120  178.4330  145.1210 C   0  0  1  0  0  3  0  0  0  0  0  0
  190.7280  176.9180  144.8360 C   0  0  1  0  0  0  0  0  0  0  0  0
  191.8820  176.1600  145.5080 C   0  0  0  0  0  2  0  0  0  0  0  0
  190.2000  179.3190  143.9910 C   0  0  0  0  0  1  0  0  0  0  0  0
  186.0200  178.1000  144.5690 C   0  0  1  0  0  3  0  0  0  0  0  0
  188.1070  177.3000  143.6730 C   0  0  1  0  0  3  0  0  0  0  0  0
  185.6020  179.4930  144.0950 C   0  0  0  0  0  2  0  0  0  0  0  0
  184.1660  179.8020  144.4860 C   0  0  0  0  0  2  0  0  0  0  0  0
  183.2410  178.6710  144.0680 C   0  0  0  0  0  2  0  0  0  0  0  0
  182.5070  179.0310  142.7870 C   0  0  0  0  0  2  0  0  0  0  0  0
  183.2710  178.5700  141.5520 C   0  0  0  0  0  2  0  0  0  0  0  0
  182.4600  178.7860  140.2800 C   0  0  0  0  0  2  0  0  0  0  0  0
  183.2360  179.5990  139.2570 C   0  0  0  0  0  2  0  0  0  0  0  0
  184.5520  179.7740  139.6840 O   0  0  0  0  0  1  0  0  0  0  0  0
  1  4  1  1  0  0  0
  2 11  1  1  0  0  0
  2  1  1  0  0  0  0
  4  8  1  0  0  0  0
  6  3  1  0  0  0  0
  7  8  1  0  0  0  0
  7  5  1  1  0  0  0
  9 10  1  6  0  0  0
  9 17  1  0  0  0  0
  9 16  1  0  0  0  0
 12 15  1  6  0  0  0
 12  1  1  0  0  0  0
 13  3  1  6  0  0  0
 13 12  1  0  0  0  0
 13 14  1  0  0  0  0
 13  1  1  0  0  0  0
 14  7  1  0  0  0  0
 16 18  1  6  0  0  0
 16 11  1  0  0  0  0
 17  6  1  6  0  0  0
 17  2  1  0  0  0  0
 18 19  1  0  0  0  0
 20 19  1  0  0  0  0
 21 20  1  0  0  0  0
 22 21  1  0  0  0  0
 23 22  1  0  0  0  0
 24 25  1  0  0  0  0
 24 23  1  0  0  0  0
M  END
>  <MODEL>
2

>  <REMARK>
 VINA RESULT:      -7.0      1.967      2.911
  Name = 
  7 active torsions:
  status: ('A' for Active; 'I' for Inactive)
    1  A    between atoms: C_2  and  C_7
    2  A    between atoms: C_2  and  C_25
    3  A    between atoms: C_6  and  C_15
    4  A    between atoms: C_6  and  C_21
    5  A    between atoms: C_15  and  C_20
    6  A    between atoms: C_20  and  C_23
    7  A    between atoms: C_21  and  C_25
                            x       y       z     vdW  Elec       q    Type
                         _______ _______ _______ _____ _____    ______ ____

>  <TORSDO>
F 7

$$$$
=
 OpenBabel10272400543D

 25 28  0  0  1  0  0  0  0  0999 V2000
  189.0540  177.9060  144.2290 C   0  0  2  0  0  0  0  0  0  0  0  0
  188.9340  177.3200  142.8110 C   0  0  1  0  0  3  0  0  0  0  0  0
  191.2860  176.4120  144.3340 C   0  0  0  0  0  2  0  0  0  0  0  0
  187.7370  178.1330  144.9810 C   0  0  0  0  0  2  0  0  0  0  0  0
  188.2570  176.7070  148.2660 N   0  0  0  0  0  1  0  0  0  0  0  0
  190.8200  175.7900  143.0130 C   0  0  0  0  0  2  0  0  0  0  0  0
  188.5890  177.3960  147.0330 C   0  0  2  0  0  3  0  0  0  0  0  0
  187.5520  177.1490  146.0410 N   0  0  0  0  0  2  0  0  0  0  0  0
  189.7920  176.5260  140.7820 C   0  0  2  0  0  3  0  0  0  0  0  0
  190.9770  176.4690  139.8260 C   0  0  0  0  0  1  0  0  0  0  0  0
  188.2390  178.1610  141.7660 C   0  0  0  0  0  2  0  0  0  0  0  0
  190.2130  178.7670  144.7580 C   0  0  1  0  0  3  0  0  0  0  0  0
  190.1950  177.2530  145.0460 C   0  0  1  0  0  0  0  0  0  0  0  0
  189.9310  176.8920  146.5150 C   0  0  0  0  0  2  0  0  0  0  0  0
  191.1740  179.2280  143.6670 C   0  0  0  0  0  1  0  0  0  0  0  0
  188.7100  177.5750  140.4280 C   0  0  1  0  0  3  0  0  0  0  0  0
  190.2230  176.8980  142.1750 C   0  0  1  0  0  3  0  0  0  0  0  0
  189.2170  178.7060  139.5330 C   0  0  0  0  0  2  0  0  0  0  0  0
  188.6180  178.6190  138.1390 C   0  0  0  0  0  2  0  0  0  0  0  0
  187.5130  177.5770  138.0950 C   0  0  0  0  0  2  0  0  0  0  0  0
  186.2820  178.1360  137.4000 C   0  0  0  0  0  2  0  0  0  0  0  0
  185.0070  177.8160  138.1700 C   0  0  0  0  0  2  0  0  0  0  0  0
  184.3730  179.0750  138.7470 C   0  0  0  0  0  2  0  0  0  0  0  0
  184.2730  179.0020  140.2620 C   0  0  0  0  0  2  0  0  0  0  0  0
  185.3840  179.6110  140.8450 O   0  0  0  0  0  1  0  0  0  0  0  0
  1 12  1  0  0  0  0
  1  4  1  1  0  0  0
  1 13  1  0  0  0  0
  2 11  1  6  0  0  0
  2  1  1  0  0  0  0
  4  8  1  0  0  0  0
  6  3  1  0  0  0  0
  7  5  1  1  0  0  0
  8  7  1  0  0  0  0
  9 10  1  6  0  0  0
  9 17  1  0  0  0  0
 12 15  1  6  0  0  0
 12 13  1  0  0  0  0
 13  3  1  6  0  0  0
 13 14  1  0  0  0  0
 14  7  1  0  0  0  0
 16 18  1  6  0  0  0
 16  9  1  0  0  0  0
 16 11  1  0  0  0  0
 17  2  1  0  0  0  0
 17  6  1  1  0  0  0
 19 18  1  0  0  0  0
 20 19  1  0  0  0  0
 21 20  1  0  0  0  0
 21 22  1  0  0  0  0
 22 23  1  0  0  0  0
 23 24  1  0  0  0  0
 24 25  1  0  0  0  0
M  END
>  <MODEL>
3

>  <REMARK>
 VINA RESULT:      -6.8      2.314      3.715
  Name = 
  7 active torsions:
  status: ('A' for Active; 'I' for Inactive)
    1  A    between atoms: C_2  and  C_7
    2  A    between atoms: C_2  and  C_25
    3  A    between atoms: C_6  and  C_15
    4  A    between atoms: C_6  and  C_21
    5  A    between atoms: C_15  and  C_20
    6  A    between atoms: C_20  and  C_23
    7  A    between atoms: C_21  and  C_25
                            x       y       z     vdW  Elec       q    Type
                         _______ _______ _______ _____ _____    ______ ____

>  <TORSDO>
F 7

$$$$
=
 OpenBabel10272400543D

 25 28  0  0  1  0  0  0  0  0999 V2000
  189.0400  177.9120  144.1930 C   0  0  2  0  0  0  0  0  0  0  0  0
  188.9190  177.3340  142.7710 C   0  0  1  0  0  3  0  0  0  0  0  0
  191.2600  176.4000  144.2940 C   0  0  0  0  0  2  0  0  0  0  0  0
  187.7240  178.1450  144.9430 C   0  0  0  0  0  2  0  0  0  0  0  0
  188.2250  176.6990  148.2220 N   0  0  0  0  0  1  0  0  0  0  0  0
  190.7920  175.7890  142.9700 C   0  0  0  0  0  2  0  0  0  0  0  0
  188.5650  177.3910  146.9930 C   0  0  2  0  0  3  0  0  0  0  0  0
  187.5290  177.1580  145.9980 N   0  0  0  0  0  2  0  0  0  0  0  0
  189.7750  176.5440  140.7400 C   0  0  2  0  0  3  0  0  0  0  0  0
  190.9610  176.4820  139.7860 C   0  0  0  0  0  1  0  0  0  0  0  0
  188.2330  178.1850  141.7290 C   0  0  0  0  0  2  0  0  0  0  0  0
  190.2050  178.7610  144.7280 C   0  0  1  0  0  3  0  0  0  0  0  0
  190.1750  177.2460  145.0080 C   0  0  1  0  0  0  0  0  0  0  0  0
  189.9050  176.8800  146.4750 C   0  0  0  0  0  2  0  0  0  0  0  0
  191.1720  179.2200  143.6410 C   0  0  0  0  0  1  0  0  0  0  0  0
  188.7020  177.6020  140.3890 C   0  0  1  0  0  3  0  0  0  0  0  0
  190.2050  176.9050  142.1360 C   0  0  1  0  0  3  0  0  0  0  0  0
  189.2200  178.7340  139.5010 C   0  0  0  0  0  2  0  0  0  0  0  0
  188.6570  178.6340  138.0920 C   0  0  0  0  0  2  0  0  0  0  0  0
  187.5140  177.6330  138.0420 C   0  0  0  0  0  2  0  0  0  0  0  0
  187.7660  176.5920  136.9630 C   0  0  0  0  0  2  0  0  0  0  0  0
  189.0530  176.8750  136.1990 C   0  0  0  0  0  2  0  0  0  0  0  0
  190.0140  175.6940  136.2670 C   0  0  0  0  0  2  0  0  0  0  0  0
  189.3910  174.5130  136.9940 C   0  0  0  0  0  2  0  0  0  0  0  0
  190.3890  173.6700  137.4790 O   0  0  0  0  0  1  0  0  0  0  0  0
  1 12  1  0  0  0  0
  1  4  1  1  0  0  0
  1 13  1  0  0  0  0
  2 11  1  6  0  0  0
  2  1  1  0  0  0  0
  4  8  1  0  0  0  0
  6  3  1  0  0  0  0
  7  5  1  1  0  0  0
  8  7  1  0  0  0  0
  9 10  1  6  0  0  0
  9 17  1  0  0  0  0
 12 15  1  6  0  0  0
 12 13  1  0  0  0  0
 13  3  1  6  0  0  0
 13 14  1  0  0  0  0
 14  7  1  0  0  0  0
 16 18  1  6  0  0  0
 16  9  1  0  0  0  0
 16 11  1  0  0  0  0
 17  2  1  0  0  0  0
 17  6  1  1  0  0  0
 19 18  1  0  0  0  0
 20 19  1  0  0  0  0
 21 20  1  0  0  0  0
 22 23  1  0  0  0  0
 22 21  1  0  0  0  0
 23 24  1  0  0  0  0
 24 25  1  0  0  0  0
M  END
>  <MODEL>
4

>  <REMARK>
 VINA RESULT:      -6.6      3.313      5.308
  Name = 
  7 active torsions:
  status: ('A' for Active; 'I' for Inactive)
    1  A    between atoms: C_2  and  C_7
    2  A    between atoms: C_2  and  C_25
    3  A    between atoms: C_6  and  C_15
    4  A    between atoms: C_6  and  C_21
    5  A    between atoms: C_15  and  C_20
    6  A    between atoms: C_20  and  C_23
    7  A    between atoms: C_21  and  C_25
                            x       y       z     vdW  Elec       q    Type
                         _______ _______ _______ _____ _____    ______ ____

>  <TORSDO>
F 7

$$$$
=
 OpenBabel10272400543D

 25 28  0  0  1  0  0  0  0  0999 V2000
  189.8700  177.4460  145.3660 C   0  0  2  0  0  0  0  0  0  0  0  0
  188.7870  177.1290  144.3200 C   0  0  1  0  0  3  0  0  0  0  0  0
  191.5460  176.5660  143.4580 C   0  0  0  0  0  2  0  0  0  0  0  0
  189.4930  177.1910  146.8300 C   0  0  0  0  0  2  0  0  0  0  0  0
  192.2760  175.3430  148.2220 N   0  0  0  0  0  1  0  0  0  0  0  0
  190.2950  176.1100  142.7010 C   0  0  0  0  0  2  0  0  0  0  0  0
  191.5900  176.3140  147.3900 C   0  0  2  0  0  3  0  0  0  0  0  0
  190.1670  176.0090  147.3550 N   0  0  0  0  0  2  0  0  0  0  0  0
  187.9470  176.9750  142.1400 C   0  0  2  0  0  3  0  0  0  0  0  0
  188.0790  177.3980  140.6820 C   0  0  0  0  0  1  0  0  0  0  0  0
  187.5210  177.9520  144.3560 C   0  0  0  0  0  2  0  0  0  0  0  0
  191.0200  178.4540  145.2010 C   0  0  1  0  0  3  0  0  0  0  0  0
  191.2730  176.9570  144.9330 C   0  0  1  0  0  0  0  0  0  0  0  0
  192.1640  176.2700  145.9780 C   0  0  0  0  0  2  0  0  0  0  0  0
  190.8800  179.3380  143.9660 C   0  0  0  0  0  1  0  0  0  0  0  0
  186.9030  177.7670  142.9640 C   0  0  1  0  0  3  0  0  0  0  0  0
  189.2350  177.1710  142.8920 C   0  0  1  0  0  3  0  0  0  0  0  0
  186.5660  179.1380  142.3760 C   0  0  0  0  0  2  0  0  0  0  0  0
  185.0730  179.4180  142.4470 C   0  0  0  0  0  2  0  0  0  0  0  0
  184.6460  179.6840  143.8810 C   0  0  0  0  0  2  0  0  0  0  0  0
  183.4630  178.8040  144.2540 C   0  0  0  0  0  2  0  0  0  0  0  0
  182.3950  178.8070  143.1680 C   0  0  0  0  0  2  0  0  0  0  0  0
  181.0040  179.0120  143.7550 C   0  0  0  0  0  2  0  0  0  0  0  0
  179.9870  179.3390  142.6730 C   0  0  0  0  0  2  0  0  0  0  0  0
  180.1310  180.6660  142.2670 O   0  0  0  0  0  1  0  0  0  0  0  0
  1  4  1  1  0  0  0
  2 11  1  6  0  0  0
  2  1  1  0  0  0  0
  4  8  1  0  0  0  0
  6  3  1  0  0  0  0
  7  5  1  1  0  0  0
  8  7  1  0  0  0  0
  9 10  1  6  0  0  0
  9 17  1  0  0  0  0
  9 16  1  0  0  0  0
 12 15  1  6  0  0  0
 12  1  1  0  0  0  0
 13  3  1  6  0  0  0
 13 12  1  0  0  0  0
 13  1  1  0  0  0  0
 13 14  1  0  0  0  0
 14  7  1  0  0  0  0
 16 18  1  6  0  0  0
 16 11  1  0  0  0  0
 17  6  1  1  0  0  0
 17  2  1  0  0  0  0
 18 19  1  0  0  0  0
 19 20  1  0  0  0  0
 20 21  1  0  0  0  0
 22 23  1  0  0  0  0
 22 21  1  0  0  0  0
 24 23  1  0  0  0  0
 25 24  1  0  0  0  0
M  END
>  <MODEL>
5

>  <REMARK>
 VINA RESULT:      -6.5      1.784      2.210
  Name = 
  7 active torsions:
  status: ('A' for Active; 'I' for Inactive)
    1  A    between atoms: C_2  and  C_7
    2  A    between atoms: C_2  and  C_25
    3  A    between atoms: C_6  and  C_15
    4  A    between atoms: C_6  and  C_21
    5  A    between atoms: C_15  and  C_20
    6  A    between atoms: C_20  and  C_23
    7  A    between atoms: C_21  and  C_25
                            x       y       z     vdW  Elec       q    Type
                         _______ _______ _______ _____ _____    ______ ____

>  <TORSDO>
F 7

$$$$
=
 OpenBabel10272400543D

 25 28  0  0  1  0  0  0  0  0999 V2000
  184.9290  178.6000  143.1030 C   0  0  2  0  0  0  0  0  0  0  0  0
  185.9130  177.7360  143.9120 C   0  0  1  0  0  3  0  0  0  0  0  0
  183.6540  178.8230  145.4580 C   0  0  0  0  0  2  0  0  0  0  0  0
  184.6830  178.1670  141.6530 C   0  0  0  0  0  2  0  0  0  0  0  0
  181.0870  178.1890  141.2470 N   0  0  0  0  0  1  0  0  0  0  0  0
  184.6160  177.7480  145.9750 C   0  0  0  0  0  2  0  0  0  0  0  0
  182.3870  178.6140  141.7330 C   0  0  2  0  0  3  0  0  0  0  0  0
  183.3650  177.5630  141.4920 N   0  0  0  0  0  2  0  0  0  0  0  0
  187.1060  177.1510  145.8390 C   0  0  2  0  0  3  0  0  0  0  0  0
  187.6350  177.5840  147.2010 C   0  0  0  0  0  1  0  0  0  0  0  0
  187.3530  177.7070  143.4560 C   0  0  0  0  0  2  0  0  0  0  0  0
  184.6010  180.0800  143.3600 C   0  0  1  0  0  3  0  0  0  0  0  0
  183.6700  178.9840  143.9170 C   0  0  1  0  0  0  0  0  0  0  0  0
  182.3000  178.9080  143.2260 C   0  0  0  0  0  2  0  0  0  0  0  0
  185.5310  180.7410  144.3710 C   0  0  0  0  0  1  0  0  0  0  0  0
  188.1330  177.2160  144.6830 C   0  0  1  0  0  3  0  0  0  0  0  0
  185.9760  178.0310  145.3790 C   0  0  1  0  0  3  0  0  0  0  0  0
  189.3020  178.1660  144.9490 C   0  0  0  0  0  2  0  0  0  0  0  0
  190.0350  178.5140  143.6630 C   0  0  0  0  0  2  0  0  0  0  0  0
  191.2920  177.6730  143.5190 C   0  0  0  0  0  2  0  0  0  0  0  0
  191.5440  177.3410  142.0570 C   0  0  0  0  0  2  0  0  0  0  0  0
  190.2690  176.8940  141.3540 C   0  0  0  0  0  2  0  0  0  0  0  0
  190.1700  177.4810  139.9510 C   0  0  0  0  0  2  0  0  0  0  0  0
  188.8320  178.1670  139.7300 C   0  0  0  0  0  2  0  0  0  0  0  0
  188.9360  179.0950  138.6930 O   0  0  0  0  0  1  0  0  0  0  0  0
  1  4  1  6  0  0  0
  1 12  1  0  0  0  0
  1  2  1  0  0  0  0
  1 13  1  0  0  0  0
  2 11  1  6  0  0  0
  2 17  1  0  0  0  0
  3  6  1  0  0  0  0
  7  5  1  1  0  0  0
  7 14  1  0  0  0  0
  8  4  1  0  0  0  0
  8  7  1  0  0  0  0
  9 10  1  1  0  0  0
 11 16  1  0  0  0  0
 12 13  1  0  0  0  0
 12 15  1  1  0  0  0
 13 14  1  6  0  0  0
 13  3  1  0  0  0  0
 16 18  1  1  0  0  0
 16  9  1  0  0  0  0
 17  9  1  0  0  0  0
 17  6  1  1  0  0  0
 19 18  1  0  0  0  0
 20 19  1  0  0  0  0
 21 20  1  0  0  0  0
 22 21  1  0  0  0  0
 23 22  1  0  0  0  0
 24 23  1  0  0  0  0
 25 24  1  0  0  0  0
M  END
>  <MODEL>
6

>  <REMARK>
 VINA RESULT:      -6.1      3.673      7.339
  Name = 
  7 active torsions:
  status: ('A' for Active; 'I' for Inactive)
    1  A    between atoms: C_2  and  C_7
    2  A    between atoms: C_2  and  C_25
    3  A    between atoms: C_6  and  C_15
    4  A    between atoms: C_6  and  C_21
    5  A    between atoms: C_15  and  C_20
    6  A    between atoms: C_20  and  C_23
    7  A    between atoms: C_21  and  C_25
                            x       y       z     vdW  Elec       q    Type
                         _______ _______ _______ _____ _____    ______ ____

>  <TORSDO>
F 7

$$$$
=
 OpenBabel10272400543D

 25 28  0  0  1  0  0  0  0  0999 V2000
  184.7360  178.6690  143.0780 C   0  0  2  0  0  0  0  0  0  0  0  0
  185.8470  177.7680  143.6460 C   0  0  1  0  0  3  0  0  0  0  0  0
  183.9320  178.7830  145.6400 C   0  0  0  0  0  2  0  0  0  0  0  0
  184.2160  178.3050  141.6830 C   0  0  0  0  0  2  0  0  0  0  0  0
  180.6090  178.3500  141.9660 N   0  0  0  0  0  1  0  0  0  0  0  0
  184.9640  177.6850  145.9150 C   0  0  0  0  0  2  0  0  0  0  0  0
  181.9810  178.7500  142.2160 C   0  0  2  0  0  3  0  0  0  0  0  0
  182.8860  177.7110  141.7470 N   0  0  0  0  0  2  0  0  0  0  0  0
  187.3770  177.0920  145.2840 C   0  0  2  0  0  3  0  0  0  0  0  0
  188.1580  177.4610  146.5390 C   0  0  0  0  0  1  0  0  0  0  0  0
  187.1740  177.7590  142.9250 C   0  0  0  0  0  2  0  0  0  0  0  0
  184.4770  180.1360  143.4600 C   0  0  1  0  0  3  0  0  0  0  0  0
  183.6570  179.0160  144.1320 C   0  0  1  0  0  0  0  0  0  0  0  0
  182.1810  178.9740  143.7110 C   0  0  0  0  0  2  0  0  0  0  0  0
  185.5880  180.7490  144.3060 C   0  0  0  0  0  1  0  0  0  0  0  0
  188.1670  177.2100  143.9580 C   0  0  1  0  0  3  0  0  0  0  0  0
  186.1890  177.9940  145.0860 C   0  0  1  0  0  3  0  0  0  0  0  0
  189.3750  178.1460  144.0410 C   0  0  0  0  0  2  0  0  0  0  0  0
  190.4280  177.7810  143.0070 C   0  0  0  0  0  2  0  0  0  0  0  0
  191.5860  177.0440  143.6580 C   0  0  0  0  0  2  0  0  0  0  0  0
  191.6060  177.3040  145.1560 C   0  0  0  0  0  2  0  0  0  0  0  0
  191.6670  176.0060  145.9520 C   0  0  0  0  0  2  0  0  0  0  0  0
  191.5130  176.2600  147.4460 C   0  0  0  0  0  2  0  0  0  0  0  0
  192.7330  175.7840  148.2190 C   0  0  0  0  0  2  0  0  0  0  0  0
  193.1560  176.7760  149.1030 O   0  0  0  0  0  1  0  0  0  0  0  0
  1  4  1  6  0  0  0
  1 12  1  0  0  0  0
  1  2  1  0  0  0  0
  1 13  1  0  0  0  0
  2 11  1  6  0  0  0
  2 17  1  0  0  0  0
  3  6  1  0  0  0  0
  4  8  1  0  0  0  0
  7  5  1  1  0  0  0
  7 14  1  0  0  0  0
  8  7  1  0  0  0  0
  9 10  1  1  0  0  0
 11 16  1  0  0  0  0
 12 13  1  0  0  0  0
 12 15  1  1  0  0  0
 13 14  1  6  0  0  0
 13  3  1  0  0  0  0
 16 18  1  1  0  0  0
 16  9  1  0  0  0  0
 17  9  1  0  0  0  0
 17  6  1  1  0  0  0
 19 20  1  0  0  0  0
 19 18  1  0  0  0  0
 20 21  1  0  0  0  0
 21 22  1  0  0  0  0
 22 23  1  0  0  0  0
 23 24  1  0  0  0  0
 24 25  1  0  0  0  0
M  END
>  <MODEL>
7

>  <REMARK>
 VINA RESULT:      -6.1      3.554      7.357
  Name = 
  7 active torsions:
  status: ('A' for Active; 'I' for Inactive)
    1  A    between atoms: C_2  and  C_7
    2  A    between atoms: C_2  and  C_25
    3  A    between atoms: C_6  and  C_15
    4  A    between atoms: C_6  and  C_21
    5  A    between atoms: C_15  and  C_20
    6  A    between atoms: C_20  and  C_23
    7  A    between atoms: C_21  and  C_25
                            x       y       z     vdW  Elec       q    Type
                         _______ _______ _______ _____ _____    ______ ____

>  <TORSDO>
F 7

$$$$
=
 OpenBabel10272400543D

 25 28  0  0  1  0  0  0  0  0999 V2000
  189.7160  177.5710  145.2150 C   0  0  2  0  0  0  0  0  0  0  0  0
  188.7270  177.2250  144.0870 C   0  0  1  0  0  3  0  0  0  0  0  0
  191.5620  176.7530  143.4410 C   0  0  0  0  0  2  0  0  0  0  0  0
  189.2350  177.2970  146.6440 C   0  0  0  0  0  2  0  0  0  0  0  0
  191.9580  175.5320  148.2450 N   0  0  0  0  0  1  0  0  0  0  0  0
  190.3890  176.2610  142.5880 C   0  0  0  0  0  2  0  0  0  0  0  0
  191.3080  176.4850  147.3640 C   0  0  2  0  0  3  0  0  0  0  0  0
  189.9030  176.1350  147.2180 N   0  0  0  0  0  2  0  0  0  0  0  0
  188.0650  177.0540  141.8470 C   0  0  2  0  0  3  0  0  0  0  0  0
  188.2960  177.4880  140.4050 C   0  0  0  0  0  1  0  0  0  0  0  0
  187.4370  178.0070  144.0260 C   0  0  0  0  0  2  0  0  0  0  0  0
  190.8420  178.6160  145.1420 C   0  0  1  0  0  3  0  0  0  0  0  0
  191.1630  177.1290  144.8910 C   0  0  1  0  0  0  0  0  0  0  0  0
  191.9910  176.4650  146.0010 C   0  0  0  0  0  2  0  0  0  0  0  0
  190.7710  179.5010  143.9020 C   0  0  0  0  0  1  0  0  0  0  0  0
  186.9360  177.8090  142.5890 C   0  0  1  0  0  3  0  0  0  0  0  0
  189.2840  177.2870  142.6980 C   0  0  1  0  0  3  0  0  0  0  0  0
  186.6020  179.1710  141.9800 C   0  0  0  0  0  2  0  0  0  0  0  0
  185.3250  179.1100  141.1570 C   0  0  0  0  0  2  0  0  0  0  0  0
  184.2700  178.2760  141.8650 C   0  0  0  0  0  2  0  0  0  0  0  0
  182.8760  178.7230  141.4550 C   0  0  0  0  0  2  0  0  0  0  0  0
  182.0780  177.5820  140.8370 C   0  0  0  0  0  2  0  0  0  0  0  0
  182.5020  177.3220  139.3960 C   0  0  0  0  0  2  0  0  0  0  0  0
  182.0960  175.9300  138.9410 C   0  0  0  0  0  2  0  0  0  0  0  0
  183.2120  175.2360  138.4740 O   0  0  0  0  0  1  0  0  0  0  0  0
  1  4  1  1  0  0  0
  2 11  1  6  0  0  0
  2  1  1  0  0  0  0
  4  8  1  0  0  0  0
  6  3  1  0  0  0  0
  7  5  1  1  0  0  0
  8  7  1  0  0  0  0
  9 10  1  6  0  0  0
  9 16  1  0  0  0  0
  9 17  1  0  0  0  0
 12 15  1  6  0  0  0
 12  1  1  0  0  0  0
 13  3  1  6  0  0  0
 13 12  1  0  0  0  0
 13  1  1  0  0  0  0
 13 14  1  0  0  0  0
 14  7  1  0  0  0  0
 16 18  1  6  0  0  0
 16 11  1  0  0  0  0
 17  6  1  1  0  0  0
 17  2  1  0  0  0  0
 19 20  1  0  0  0  0
 19 18  1  0  0  0  0
 21 20  1  0  0  0  0
 22 21  1  0  0  0  0
 23 22  1  0  0  0  0
 24 23  1  0  0  0  0
 25 24  1  0  0  0  0
M  END
>  <MODEL>
8

>  <REMARK>
 VINA RESULT:      -5.7      2.400      3.081
  Name = 
  7 active torsions:
  status: ('A' for Active; 'I' for Inactive)
    1  A    between atoms: C_2  and  C_7
    2  A    between atoms: C_2  and  C_25
    3  A    between atoms: C_6  and  C_15
    4  A    between atoms: C_6  and  C_21
    5  A    between atoms: C_15  and  C_20
    6  A    between atoms: C_20  and  C_23
    7  A    between atoms: C_21  and  C_25
                            x       y       z     vdW  Elec       q    Type
                         _______ _______ _______ _____ _____    ______ ____

>  <TORSDO>
F 7

$$$$
=
 OpenBabel10272400543D

 25 28  0  0  1  0  0  0  0  0999 V2000
  188.0160  177.9490  143.3770 C   0  0  2  0  0  0  0  0  0  0  0  0
  186.7140  178.7440  143.1740 C   0  0  1  0  0  3  0  0  0  0  0  0
  187.1950  177.8330  145.9330 C   0  0  0  0  0  2  0  0  0  0  0  0
  189.2160  178.3890  142.5310 C   0  0  0  0  0  2  0  0  0  0  0  0
  191.9830  178.6240  144.8510 N   0  0  0  0  0  1  0  0  0  0  0  0
  186.1110  178.8390  145.5330 C   0  0  0  0  0  2  0  0  0  0  0  0
  190.7570  178.1090  144.2700 C   0  0  2  0  0  3  0  0  0  0  0  0
  190.2110  179.0850  143.3380 N   0  0  0  0  0  2  0  0  0  0  0  0
  184.4700  179.2540  143.6060 C   0  0  2  0  0  3  0  0  0  0  0  0
  183.1390  178.7920  144.1870 C   0  0  0  0  0  1  0  0  0  0  0  0
  186.0530  178.6660  141.8180 C   0  0  0  0  0  2  0  0  0  0  0  0
  188.1220  176.4980  143.8750 C   0  0  1  0  0  3  0  0  0  0  0  0
  188.3090  177.6610  144.8690 C   0  0  1  0  0  0  0  0  0  0  0  0
  189.7470  177.8320  145.3790 C   0  0  0  0  0  2  0  0  0  0  0  0
  186.7790  175.7770  143.9360 C   0  0  0  0  0  1  0  0  0  0  0  0
  184.6050  179.1070  142.0720 C   0  0  1  0  0  3  0  0  0  0  0  0
  185.6200  178.4540  144.1560 C   0  0  1  0  0  3  0  0  0  0  0  0
  183.6520  178.0770  141.4640 C   0  0  0  0  0  2  0  0  0  0  0  0
  182.7650  178.7050  140.4010 C   0  0  0  0  0  2  0  0  0  0  0  0
  183.5110  178.8230  139.0820 C   0  0  0  0  0  2  0  0  0  0  0  0
  183.7150  177.4490  138.4630 C   0  0  0  0  0  2  0  0  0  0  0  0
  185.0310  177.3660  137.7000 C   0  0  0  0  0  2  0  0  0  0  0  0
  186.0250  178.4130  138.1870 C   0  0  0  0  0  2  0  0  0  0  0  0
  187.4560  177.9070  138.0930 C   0  0  0  0  0  2  0  0  0  0  0  0
  188.3190  178.7910  138.7390 O   0  0  0  0  0  1  0  0  0  0  0  0
  1  4  1  6  0  0  0
  1 12  1  0  0  0  0
  1 13  1  0  0  0  0
  2 11  1  6  0  0  0
  2  1  1  0  0  0  0
  2 17  1  0  0  0  0
  4  8  1  0  0  0  0
  6  3  1  0  0  0  0
  7  5  1  1  0  0  0
  7 14  1  0  0  0  0
  8  7  1  0  0  0  0
  9 17  1  0  0  0  0
  9 10  1  1  0  0  0
 11 16  1  0  0  0  0
 12 15  1  1  0  0  0
 12 13  1  0  0  0  0
 13 14  1  1  0  0  0
 13  3  1  0  0  0  0
 16 18  1  1  0  0  0
 16  9  1  0  0  0  0
 17  6  1  1  0  0  0
 19 18  1  0  0  0  0
 20 19  1  0  0  0  0
 21 20  1  0  0  0  0
 22 23  1  0  0  0  0
 22 21  1  0  0  0  0
 24 23  1  0  0  0  0
 24 25  1  0  0  0  0
M  END
>  <MODEL>
9

>  <REMARK>
 VINA RESULT:      -5.5      2.886      5.027
  Name = 
  7 active torsions:
  status: ('A' for Active; 'I' for Inactive)
    1  A    between atoms: C_2  and  C_7
    2  A    between atoms: C_2  and  C_25
    3  A    between atoms: C_6  and  C_15
    4  A    between atoms: C_6  and  C_21
    5  A    between atoms: C_15  and  C_20
    6  A    between atoms: C_20  and  C_23
    7  A    between atoms: C_21  and  C_25
                            x       y       z     vdW  Elec       q    Type
                         _______ _______ _______ _____ _____    ______ ____

>  <TORSDO>
F 7

$$$$
