=
 OpenBabel10272414213D

 43 47  0  0  1  0  0  0  0  0999 V2000
  191.2040  175.7500  147.1220 C   0  0  1  0  0  3  0  0  0  0  0  0
  187.2750  177.9170  144.7550 C   0  0  0  0  0  0  0  0  0  0  0  0
  188.1530  178.4250  142.1880 C   0  0  2  0  0  3  0  0  0  0  0  0
  189.2760  177.1860  146.6760 C   0  0  0  0  0  0  0  0  0  0  0  0
  191.9620  176.3960  145.9530 C   0  0  0  0  0  2  0  0  0  0  0  0
  192.0720  175.5000  148.1670 F   0  0  0  0  0  0  0  0  0  0  0  0
  189.5520  176.9540  145.2060 C   0  0  2  0  0  3  0  0  0  0  0  0
  190.0820  176.6310  147.5860 C   0  0  0  0  0  3  0  0  0  0  0  0
  191.0550  177.0920  144.9170 C   0  0  0  0  0  2  0  0  0  0  0  0
  188.8680  177.4970  142.9660 O   0  0  0  0  0  0  0  0  0  0  0  0
  188.7350  177.8960  144.3130 C   0  0  1  0  0  3  0  0  0  0  0  0
  186.9460  177.9350  146.2300 C   0  0  0  0  0  2  0  0  0  0  0  0
  186.3050  178.0680  143.8300 C   0  0  0  0  0  0  0  0  0  0  0  0
  186.6540  178.1980  142.3740 C   0  0  0  0  0  2  0  0  0  0  0  0
  188.1820  178.1140  147.1100 C   0  0  0  0  0  2  0  0  0  0  0  0
  188.5120  178.2910  140.7130 C   0  0  2  0  0  3  0  0  0  0  0  0
  187.3860  178.5010  139.9100 O   0  0  0  0  0  1  0  0  0  0  0  0
  189.0680  177.0060  140.4580 O   0  0  0  0  0  0  0  0  0  0  0  0
  190.4200  176.8280  140.1440 C   0  0  0  0  0  0  0  0  0  0  0  0
  191.2930  177.6040  140.6190 O   0  0  0  0  0  0  0  0  0  0  0  0
  190.8230  175.7860  139.3110 O   0  0  0  0  0  0  0  0  0  0  0  0
  191.3870  176.0130  138.0240 C   0  0  1  0  0  3  0  0  0  0  0  0
  192.6690  175.4550  137.9600 O   0  0  0  0  0  0  0  0  0  0  0  0
  193.9360  176.2460  136.4110 C   0  0  0  0  0  1  0  0  0  0  0  0
  193.4710  176.4720  137.7060 O   0  0  0  0  0  0  0  0  0  0  0  0
  190.4970  175.4020  136.9390 C   0  0  2  0  0  3  0  0  0  0  0  0
  189.1880  176.1220  136.8420 C   0  0  0  0  0  0  0  0  0  0  0  0
  187.9670  178.1730  136.4050 C   0  0  0  0  0  3  0  0  0  0  0  0
  186.7690  176.1690  137.0480 C   0  0  0  0  0  3  0  0  0  0  0  0
  186.7630  177.5190  136.6860 C   0  0  0  0  0  3  0  0  0  0  0  0
  187.9780  175.4720  137.1280 C   0  0  0  0  0  3  0  0  0  0  0  0
  189.1760  177.4750  136.4850 C   0  0  0  0  0  3  0  0  0  0  0  0
  190.3020  174.0340  137.1610 O   0  0  0  0  0  0  0  0  0  0  0  0
  190.7210  173.4160  135.9830 C   0  0  0  0  0  1  0  0  0  0  0  0
  184.9160  178.1210  144.1860 N   0  0  0  0  0  2  0  0  0  0  0  0
  182.9260  178.4300  141.0260 C   0  0  0  0  0  3  0  0  0  0  0  0
  181.7170  178.9370  141.5240 C   0  0  0  0  0  0  0  0  0  0  0  0
  182.6360  178.8900  143.7680 C   0  0  0  0  0  3  0  0  0  0  0  0
  183.9830  178.1540  141.8970 C   0  0  0  0  0  3  0  0  0  0  0  0
  183.8390  178.3720  143.2750 C   0  0  0  0  0  0  0  0  0  0  0  0
  181.5800  179.1680  142.8970 C   0  0  0  0  0  3  0  0  0  0  0  0
  180.6500  179.2180  140.6730 O   0  0  0  0  0  0  0  0  0  0  0  0
  180.8410  179.8400  139.5020 O   0  0  0  0  0  1  0  0  0  0  0  0
  1  8  1  0  0  0  0
  1  6  1  1  0  0  0
  2 12  1  0  0  0  0
  3 16  1  6  0  0  0
  3 14  1  0  0  0  0
  3 10  1  0  0  0  0
  4 15  1  0  0  0  0
  4  8  2  0  0  0  0
  5  1  1  0  0  0  0
  7  9  1  1  0  0  0
  7  4  1  0  0  0  0
  9  5  1  0  0  0  0
 11 10  1  6  0  0  0
 11  2  1  0  0  0  0
 11  7  1  0  0  0  0
 12 15  1  0  0  0  0
 13 35  1  0  0  0  0
 13  2  2  0  0  0  0
 14 13  1  0  0  0  0
 16 17  1  6  0  0  0
 18 16  1  0  0  0  0
 19 18  1  0  0  0  0
 19 20  2  0  0  0  0
 21 19  1  0  0  0  0
 22 23  1  1  0  0  0
 22 21  1  0  0  0  0
 24 25  1  0  0  0  0
 25 23  1  0  0  0  0
 26 33  1  1  0  0  0
 26 22  1  0  0  0  0
 27 26  1  0  0  0  0
 27 31  1  0  0  0  0
 28 32  1  0  0  0  0
 28 30  2  0  0  0  0
 29 31  2  0  0  0  0
 30 29  1  0  0  0  0
 32 27  2  0  0  0  0
 34 33  1  0  0  0  0
 36 37  2  0  0  0  0
 36 39  1  0  0  0  0
 37 41  1  0  0  0  0
 39 40  2  0  0  0  0
 40 38  1  0  0  0  0
 40 35  1  0  0  0  0
 41 38  2  0  0  0  0
 42 37  1  0  0  0  0
 43 42  1  0  0  0  0
M  END
>  <MODEL>
1

>  <REMARK>
 VINA RESULT:      -9.0      0.000      0.000
  Name = 
  13 active torsions:
  status: ('A' for Active; 'I' for Inactive)
    1  A    between atoms: N_1  and  C_34
    2  A    between atoms: N_1  and  C_35
    3  A    between atoms: C_2  and  O_6
    4  A    between atoms: C_2  and  C_13
    5  A    between atoms: O_3  and  C_4
    6  A    between atoms: O_3  and  C_12
    7  A    between atoms: C_4  and  O_15
    8  A    between atoms: C_4  and  C_22
    9  A    between atoms: O_6  and  C_12
   10  A    between atoms: C_11  and  C_22
   11  A    between atoms: O_14  and  C_22
   12  A    between atoms: O_15  and  O_42
   13  A    between atoms: C_19  and  O_25
                            x       y       z     vdW  Elec       q    Type
                         _______ _______ _______ _____ _____    ______ ____

>  <TORSDO>
F 13

$$$$
=
 OpenBabel10272414213D

 43 47  0  0  1  0  0  0  0  0999 V2000
  184.1110  178.2080  138.7650 C   0  0  1  0  0  3  0  0  0  0  0  0
  188.9520  176.8630  138.0660 C   0  0  0  0  0  0  0  0  0  0  0  0
  190.2170  177.4000  140.4600 C   0  0  2  0  0  3  0  0  0  0  0  0
  186.3130  177.9380  137.7370 C   0  0  0  0  0  0  0  0  0  0  0  0
  184.7420  178.9930  139.9230 C   0  0  0  0  0  2  0  0  0  0  0  0
  182.8890  178.7590  138.4320 F   0  0  0  0  0  0  0  0  0  0  0  0
  186.8430  177.7120  139.1370 C   0  0  2  0  0  3  0  0  0  0  0  0
  185.0140  178.2010  137.5660 C   0  0  0  0  0  3  0  0  0  0  0  0
  186.2540  178.7490  140.1050 C   0  0  0  0  0  2  0  0  0  0  0  0
  188.8130  177.3060  140.4530 O   0  0  0  0  0  0  0  0  0  0  0  0
  188.3760  177.7300  139.1810 C   0  0  1  0  0  3  0  0  0  0  0  0
  188.3180  176.8970  136.6950 C   0  0  0  0  0  2  0  0  0  0  0  0
  190.1030  176.1910  138.2770 C   0  0  0  0  0  0  0  0  0  0  0  0
  190.8060  176.2830  139.6020 C   0  0  0  0  0  2  0  0  0  0  0  0
  187.2460  177.9790  136.5660 C   0  0  0  0  0  2  0  0  0  0  0  0
  190.7630  177.2990  141.8790 C   0  0  2  0  0  3  0  0  0  0  0  0
  190.3950  176.0830  142.4640 O   0  0  0  0  0  1  0  0  0  0  0  0
  190.2930  178.3880  142.6650 O   0  0  0  0  0  0  0  0  0  0  0  0
  190.8210  178.6790  143.9280 C   0  0  0  0  0  0  0  0  0  0  0  0
  192.0260  179.0310  144.0510 O   0  0  0  0  0  0  0  0  0  0  0  0
  190.0230  178.5930  145.0670 O   0  0  0  0  0  0  0  0  0  0  0  0
  189.8550  177.3800  145.7920 C   0  0  1  0  0  3  0  0  0  0  0  0
  190.9180  177.2090  146.6870 O   0  0  0  0  0  0  0  0  0  0  0  0
  192.2970  175.7290  147.4200 C   0  0  0  0  0  1  0  0  0  0  0  0
  191.4640  176.0560  146.3510 O   0  0  0  0  0  0  0  0  0  0  0  0
  188.5280  177.3960  146.5540 C   0  0  2  0  0  3  0  0  0  0  0  0
  187.3790  177.6820  145.6370 C   0  0  0  0  0  0  0  0  0  0  0  0
  186.3250  177.4020  143.4700 C   0  0  0  0  0  3  0  0  0  0  0  0
  185.2650  178.7780  145.1580 C   0  0  0  0  0  3  0  0  0  0  0  0
  185.2680  178.2240  143.8760 C   0  0  0  0  0  3  0  0  0  0  0  0
  186.3190  178.5110  146.0380 C   0  0  0  0  0  3  0  0  0  0  0  0
  187.3790  177.1350  144.3490 C   0  0  0  0  0  3  0  0  0  0  0  0
  188.5670  178.3130  147.6110 O   0  0  0  0  0  0  0  0  0  0  0  0
  188.0690  177.6130  148.7110 C   0  0  0  0  0  1  0  0  0  0  0  0
  190.7080  175.3800  137.2600 N   0  0  0  0  0  2  0  0  0  0  0  0
  194.1560  176.2790  136.0980 C   0  0  0  0  0  3  0  0  0  0  0  0
  194.8540  175.1040  136.4120 C   0  0  0  0  0  0  0  0  0  0  0  0
  192.8090  174.1360  137.2850 C   0  0  0  0  0  3  0  0  0  0  0  0
  192.7910  176.3800  136.3790 C   0  0  0  0  0  3  0  0  0  0  0  0
  192.1120  175.3120  136.9850 C   0  0  0  0  0  0  0  0  0  0  0  0
  194.1730  174.0340  137.0030 C   0  0  0  0  0  3  0  0  0  0  0  0
  196.2160  174.9820  136.1420 O   0  0  0  0  0  0  0  0  0  0  0  0
  197.1130  175.7880  136.7250 O   0  0  0  0  0  1  0  0  0  0  0  0
  1  6  1  6  0  0  0
  1  5  1  0  0  0  0
  2 13  2  0  0  0  0
  3 16  1  1  0  0  0
  4  7  1  0  0  0  0
  5  9  1  0  0  0  0
  7 11  1  0  0  0  0
  7  9  1  1  0  0  0
  8  4  2  0  0  0  0
  8  1  1  0  0  0  0
 10  3  1  0  0  0  0
 11  2  1  6  0  0  0
 11 10  1  0  0  0  0
 12  2  1  0  0  0  0
 13 14  1  0  0  0  0
 14  3  1  0  0  0  0
 15 12  1  0  0  0  0
 15  4  1  0  0  0  0
 16 17  1  1  0  0  0
 16 18  1  0  0  0  0
 18 19  1  0  0  0  0
 19 20  2  0  0  0  0
 19 21  1  0  0  0  0
 22 21  1  1  0  0  0
 22 26  1  0  0  0  0
 22 23  1  0  0  0  0
 25 23  1  0  0  0  0
 25 24  1  0  0  0  0
 26 33  1  1  0  0  0
 27 31  1  0  0  0  0
 27 26  1  0  0  0  0
 28 30  2  0  0  0  0
 28 32  1  0  0  0  0
 29 31  2  0  0  0  0
 30 29  1  0  0  0  0
 32 27  2  0  0  0  0
 33 34  1  0  0  0  0
 35 13  1  0  0  0  0
 36 39  2  0  0  0  0
 36 37  1  0  0  0  0
 37 41  2  0  0  0  0
 39 40  1  0  0  0  0
 40 35  1  0  0  0  0
 40 38  2  0  0  0  0
 41 38  1  0  0  0  0
 42 37  1  0  0  0  0
 42 43  1  0  0  0  0
M  END
>  <MODEL>
2

>  <REMARK>
 VINA RESULT:      -9.0      3.695      9.693
  Name = 
  13 active torsions:
  status: ('A' for Active; 'I' for Inactive)
    1  A    between atoms: N_1  and  C_34
    2  A    between atoms: N_1  and  C_35
    3  A    between atoms: C_2  and  O_6
    4  A    between atoms: C_2  and  C_13
    5  A    between atoms: O_3  and  C_4
    6  A    between atoms: O_3  and  C_12
    7  A    between atoms: C_4  and  O_15
    8  A    between atoms: C_4  and  C_22
    9  A    between atoms: O_6  and  C_12
   10  A    between atoms: C_11  and  C_22
   11  A    between atoms: O_14  and  C_22
   12  A    between atoms: O_15  and  O_42
   13  A    between atoms: C_19  and  O_25
                            x       y       z     vdW  Elec       q    Type
                         _______ _______ _______ _____ _____    ______ ____

>  <TORSDO>
F 13

$$$$
=
 OpenBabel10272414213D

 43 47  0  0  1  0  0  0  0  0999 V2000
  188.0760  176.8370  147.2610 C   0  0  1  0  0  3  0  0  0  0  0  0
  185.6390  178.4740  143.1240 C   0  0  0  0  0  0  0  0  0  0  0  0
  187.5820  178.7240  141.1780 C   0  0  2  0  0  3  0  0  0  0  0  0
  186.5580  178.0950  145.8150 C   0  0  0  0  0  0  0  0  0  0  0  0
  189.2800  177.3820  146.4810 C   0  0  0  0  0  2  0  0  0  0  0  0
  188.3790  176.7650  148.6070 F   0  0  0  0  0  0  0  0  0  0  0  0
  187.4670  177.7060  144.6690 C   0  0  2  0  0  3  0  0  0  0  0  0
  186.8650  177.7000  147.0530 C   0  0  0  0  0  3  0  0  0  0  0  0
  188.9380  177.8960  145.0660 C   0  0  0  0  0  2  0  0  0  0  0  0
  187.8670  177.9380  142.3090 O   0  0  0  0  0  0  0  0  0  0  0  0
  187.1420  178.4860  143.3880 C   0  0  1  0  0  3  0  0  0  0  0  0
  184.6810  178.6480  144.2780 C   0  0  0  0  0  2  0  0  0  0  0  0
  185.1910  178.4570  141.8510 C   0  0  0  0  0  0  0  0  0  0  0  0
  186.1590  178.4330  140.7020 C   0  0  0  0  0  2  0  0  0  0  0  0
  185.3880  179.0020  145.5860 C   0  0  0  0  0  2  0  0  0  0  0  0
  188.5670  178.4360  140.0510 C   0  0  2  0  0  3  0  0  0  0  0  0
  187.9880  178.7080  138.8080 O   0  0  0  0  0  1  0  0  0  0  0  0
  188.9970  177.0810  140.1100 O   0  0  0  0  0  0  0  0  0  0  0  0
  190.3500  176.7260  140.0730 C   0  0  0  0  0  0  0  0  0  0  0  0
  191.1360  177.1120  140.9800 O   0  0  0  0  0  0  0  0  0  0  0  0
  190.8470  175.9330  139.0400 O   0  0  0  0  0  0  0  0  0  0  0  0
  190.8790  176.3740  137.6870 C   0  0  1  0  0  3  0  0  0  0  0  0
  192.1980  176.3770  137.2180 O   0  0  0  0  0  0  0  0  0  0  0  0
  193.8300  174.9760  137.1730 C   0  0  0  0  0  1  0  0  0  0  0  0
  192.8360  175.5160  137.9880 O   0  0  0  0  0  0  0  0  0  0  0  0
  190.0150  175.4630  136.8120 C   0  0  2  0  0  3  0  0  0  0  0  0
  188.6650  176.0640  136.5700 C   0  0  0  0  0  0  0  0  0  0  0  0
  187.2960  177.7240  135.4490 C   0  0  0  0  0  3  0  0  0  0  0  0
  186.2800  176.1790  137.0140 C   0  0  0  0  0  3  0  0  0  0  0  0
  186.1640  177.2440  136.1170 C   0  0  0  0  0  3  0  0  0  0  0  0
  187.5280  175.5910  137.2430 C   0  0  0  0  0  3  0  0  0  0  0  0
  188.5430  177.1350  135.6780 C   0  0  0  0  0  3  0  0  0  0  0  0
  189.9020  174.1860  137.3740 O   0  0  0  0  0  0  0  0  0  0  0  0
  190.3680  173.3170  136.3860 C   0  0  0  0  0  1  0  0  0  0  0  0
  183.7910  178.4710  141.5380 N   0  0  0  0  0  2  0  0  0  0  0  0
  182.3650  176.5250  138.6710 C   0  0  0  0  0  3  0  0  0  0  0  0
  182.1800  177.5440  137.7260 C   0  0  0  0  0  0  0  0  0  0  0  0
  183.0530  179.1570  139.3140 C   0  0  0  0  0  3  0  0  0  0  0  0
  182.8910  176.8220  139.9310 C   0  0  0  0  0  3  0  0  0  0  0  0
  183.2270  178.1430  140.2630 C   0  0  0  0  0  0  0  0  0  0  0  0
  182.5290  178.8590  138.0530 C   0  0  0  0  0  3  0  0  0  0  0  0
  181.6560  177.2700  136.4650 O   0  0  0  0  0  0  0  0  0  0  0  0
  181.3980  178.2520  135.5910 O   0  0  0  0  0  1  0  0  0  0  0  0
  1  6  1  1  0  0  0
  2 11  1  0  0  0  0
  2 12  1  0  0  0  0
  3 16  1  6  0  0  0
  3 10  1  0  0  0  0
  4  8  2  0  0  0  0
  5  1  1  0  0  0  0
  7  9  1  1  0  0  0
  7  4  1  0  0  0  0
  8  1  1  0  0  0  0
  9  5  1  0  0  0  0
 11 10  1  6  0  0  0
 11  7  1  0  0  0  0
 12 15  1  0  0  0  0
 13  2  2  0  0  0  0
 14  3  1  0  0  0  0
 14 13  1  0  0  0  0
 15  4  1  0  0  0  0
 16 17  1  6  0  0  0
 16 18  1  0  0  0  0
 19 18  1  0  0  0  0
 19 20  2  0  0  0  0
 21 19  1  0  0  0  0
 22 23  1  6  0  0  0
 22 21  1  0  0  0  0
 23 25  1  0  0  0  0
 24 25  1  0  0  0  0
 26 33  1  1  0  0  0
 26 22  1  0  0  0  0
 27 26  1  0  0  0  0
 27 31  1  0  0  0  0
 28 32  1  0  0  0  0
 28 30  2  0  0  0  0
 29 31  2  0  0  0  0
 30 29  1  0  0  0  0
 32 27  2  0  0  0  0
 34 33  1  0  0  0  0
 35 13  1  0  0  0  0
 36 39  1  0  0  0  0
 37 41  1  0  0  0  0
 37 36  2  0  0  0  0
 38 40  1  0  0  0  0
 39 40  2  0  0  0  0
 40 35  1  0  0  0  0
 41 38  2  0  0  0  0
 42 37  1  0  0  0  0
 43 42  1  0  0  0  0
M  END
>  <MODEL>
3

>  <REMARK>
 VINA RESULT:      -8.9      1.745      2.443
  Name = 
  13 active torsions:
  status: ('A' for Active; 'I' for Inactive)
    1  A    between atoms: N_1  and  C_34
    2  A    between atoms: N_1  and  C_35
    3  A    between atoms: C_2  and  O_6
    4  A    between atoms: C_2  and  C_13
    5  A    between atoms: O_3  and  C_4
    6  A    between atoms: O_3  and  C_12
    7  A    between atoms: C_4  and  O_15
    8  A    between atoms: C_4  and  C_22
    9  A    between atoms: O_6  and  C_12
   10  A    between atoms: C_11  and  C_22
   11  A    between atoms: O_14  and  C_22
   12  A    between atoms: O_15  and  O_42
   13  A    between atoms: C_19  and  O_25
                            x       y       z     vdW  Elec       q    Type
                         _______ _______ _______ _____ _____    ______ ____

>  <TORSDO>
F 13

$$$$
=
 OpenBabel10272414213D

 43 47  0  0  1  0  0  0  0  0999 V2000
  183.2380  178.7390  143.4920 C   0  0  1  0  0  3  0  0  0  0  0  0
  184.6990  177.7590  138.7340 C   0  0  0  0  0  0  0  0  0  0  0  0
  187.3910  178.3650  138.6530 C   0  0  2  0  0  3  0  0  0  0  0  0
  183.2530  178.6410  141.0490 C   0  0  0  0  0  0  0  0  0  0  0  0
  184.5360  179.5570  143.4730 C   0  0  0  0  0  2  0  0  0  0  0  0
  182.4030  179.2010  144.4910 F   0  0  0  0  0  0  0  0  0  0  0  0
  184.7500  178.4400  141.1530 C   0  0  2  0  0  3  0  0  0  0  0  0
  182.5390  178.8090  142.1650 C   0  0  0  0  0  3  0  0  0  0  0  0
  185.3510  179.4220  142.1690 C   0  0  0  0  0  2  0  0  0  0  0  0
  186.7890  178.1680  139.9090 O   0  0  0  0  0  0  0  0  0  0  0  0
  185.4420  178.5710  139.7900 C   0  0  1  0  0  3  0  0  0  0  0  0
  183.1880  177.7610  138.7230 C   0  0  0  0  0  2  0  0  0  0  0  0
  185.3960  177.1720  137.7390 C   0  0  0  0  0  0  0  0  0  0  0  0
  186.8920  177.3020  137.6760 C   0  0  0  0  0  2  0  0  0  0  0  0
  182.5900  178.7620  139.7100 C   0  0  0  0  0  2  0  0  0  0  0  0
  188.9100  178.2900  138.7580 C   0  0  2  0  0  3  0  0  0  0  0  0
  189.4800  178.0480  137.5040 O   0  0  0  0  0  1  0  0  0  0  0  0
  189.2880  177.2730  139.6780 O   0  0  0  0  0  0  0  0  0  0  0  0
  190.5710  177.2100  140.2340 C   0  0  0  0  0  0  0  0  0  0  0  0
  191.5500  176.8290  139.5370 O   0  0  0  0  0  0  0  0  0  0  0  0
  190.7870  177.5760  141.5610 O   0  0  0  0  0  0  0  0  0  0  0  0
  190.1330  176.9300  142.6470 C   0  0  1  0  0  3  0  0  0  0  0  0
  190.7150  175.6780  142.8780 O   0  0  0  0  0  0  0  0  0  0  0  0
  192.0020  174.7520  144.3320 C   0  0  0  0  0  1  0  0  0  0  0  0
  191.7800  175.9270  143.6150 O   0  0  0  0  0  0  0  0  0  0  0  0
  190.2260  177.7900  143.9100 C   0  0  2  0  0  3  0  0  0  0  0  0
  188.9920  177.6590  144.7470 C   0  0  0  0  0  0  0  0  0  0  0  0
  186.5910  177.3340  144.8810 C   0  0  0  0  0  3  0  0  0  0  0  0
  187.8770  177.6710  146.9050 C   0  0  0  0  0  3  0  0  0  0  0  0
  186.6510  177.4480  146.2730 C   0  0  0  0  0  3  0  0  0  0  0  0
  189.0450  177.7790  146.1450 C   0  0  0  0  0  3  0  0  0  0  0  0
  187.7600  177.4420  144.1200 C   0  0  0  0  0  3  0  0  0  0  0  0
  190.4750  179.1290  143.5890 O   0  0  0  0  0  0  0  0  0  0  0  0
  191.6860  179.4280  144.2140 C   0  0  0  0  0  1  0  0  0  0  0  0
  184.7520  176.4170  136.7020 N   0  0  0  0  0  2  0  0  0  0  0  0
  184.8090  172.7560  137.4970 C   0  0  0  0  0  3  0  0  0  0  0  0
  183.6070  172.3400  136.9080 C   0  0  0  0  0  0  0  0  0  0  0  0
  183.1780  174.6190  136.2000 C   0  0  0  0  0  3  0  0  0  0  0  0
  185.1910  174.0990  137.4380 C   0  0  0  0  0  3  0  0  0  0  0  0
  184.3710  175.0400  136.7990 C   0  0  0  0  0  0  0  0  0  0  0  0
  182.7970  173.2760  136.2580 C   0  0  0  0  0  3  0  0  0  0  0  0
  183.2060  171.0060  136.9570 O   0  0  0  0  0  0  0  0  0  0  0  0
  183.2540  170.2260  135.8690 O   0  0  0  0  0  1  0  0  0  0  0  0
  1  6  1  1  0  0  0
  3 16  1  1  0  0  0
  3 10  1  0  0  0  0
  4  7  1  0  0  0  0
  4  8  2  0  0  0  0
  5  1  1  0  0  0  0
  7  9  1  1  0  0  0
  8  1  1  0  0  0  0
  9  5  1  0  0  0  0
 11  2  1  6  0  0  0
 11 10  1  0  0  0  0
 11  7  1  0  0  0  0
 12  2  1  0  0  0  0
 12 15  1  0  0  0  0
 13  2  2  0  0  0  0
 14 13  1  0  0  0  0
 14  3  1  0  0  0  0
 15  4  1  0  0  0  0
 16 17  1  6  0  0  0
 16 18  1  0  0  0  0
 18 19  1  0  0  0  0
 19 21  1  0  0  0  0
 20 19  2  0  0  0  0
 22 21  1  6  0  0  0
 22 23  1  0  0  0  0
 22 26  1  0  0  0  0
 23 25  1  0  0  0  0
 25 24  1  0  0  0  0
 26 33  1  6  0  0  0
 26 27  1  0  0  0  0
 27 31  1  0  0  0  0
 28 30  2  0  0  0  0
 30 29  1  0  0  0  0
 31 29  2  0  0  0  0
 32 27  2  0  0  0  0
 32 28  1  0  0  0  0
 33 34  1  0  0  0  0
 35 40  1  0  0  0  0
 35 13  1  0  0  0  0
 37 42  1  0  0  0  0
 37 36  2  0  0  0  0
 38 41  2  0  0  0  0
 38 40  1  0  0  0  0
 39 36  1  0  0  0  0
 40 39  2  0  0  0  0
 41 37  1  0  0  0  0
 43 42  1  0  0  0  0
M  END
>  <MODEL>
4

>  <REMARK>
 VINA RESULT:      -8.8      3.428      7.407
  Name = 
  13 active torsions:
  status: ('A' for Active; 'I' for Inactive)
    1  A    between atoms: N_1  and  C_34
    2  A    between atoms: N_1  and  C_35
    3  A    between atoms: C_2  and  O_6
    4  A    between atoms: C_2  and  C_13
    5  A    between atoms: O_3  and  C_4
    6  A    between atoms: O_3  and  C_12
    7  A    between atoms: C_4  and  O_15
    8  A    between atoms: C_4  and  C_22
    9  A    between atoms: O_6  and  C_12
   10  A    between atoms: C_11  and  C_22
   11  A    between atoms: O_14  and  C_22
   12  A    between atoms: O_15  and  O_42
   13  A    between atoms: C_19  and  O_25
                            x       y       z     vdW  Elec       q    Type
                         _______ _______ _______ _____ _____    ______ ____

>  <TORSDO>
F 13

$$$$
=
 OpenBabel10272414213D

 43 47  0  0  1  0  0  0  0  0999 V2000
  188.4790  178.1220  147.7090 C   0  0  1  0  0  3  0  0  0  0  0  0
  188.5570  177.8130  142.6460 C   0  0  0  0  0  0  0  0  0  0  0  0
  185.9310  178.1170  141.8510 C   0  0  2  0  0  3  0  0  0  0  0  0
  189.0100  177.3700  145.4440 C   0  0  0  0  0  0  0  0  0  0  0  0
  186.9950  177.8120  147.4710 C   0  0  0  0  0  2  0  0  0  0  0  0
  188.8290  177.7900  149.0040 F   0  0  0  0  0  0  0  0  0  0  0  0
  187.7370  178.0640  145.0090 C   0  0  2  0  0  3  0  0  0  0  0  0
  189.3470  177.3770  146.7370 C   0  0  0  0  0  3  0  0  0  0  0  0
  186.5940  177.7420  145.9830 C   0  0  0  0  0  2  0  0  0  0  0  0
  186.2880  178.5310  143.1480 O   0  0  0  0  0  0  0  0  0  0  0  0
  187.3480  177.7010  143.5700 C   0  0  1  0  0  3  0  0  0  0  0  0
  189.9040  177.3220  143.1230 C   0  0  0  0  0  2  0  0  0  0  0  0
  188.3800  178.2110  141.3690 C   0  0  0  0  0  0  0  0  0  0  0  0
  187.0090  178.5560  140.8620 C   0  0  0  0  0  2  0  0  0  0  0  0
  189.8270  176.5880  144.4610 C   0  0  0  0  0  2  0  0  0  0  0  0
  184.5880  178.7070  141.4410 C   0  0  2  0  0  3  0  0  0  0  0  0
  183.6200  178.4610  142.4210 O   0  0  0  0  0  1  0  0  0  0  0  0
  184.1750  178.1660  140.1920 O   0  0  0  0  0  0  0  0  0  0  0  0
  183.9540  178.9700  139.0670 C   0  0  0  0  0  0  0  0  0  0  0  0
  184.3520  180.1660  139.0500 O   0  0  0  0  0  0  0  0  0  0  0  0
  183.2990  178.4590  137.9480 O   0  0  0  0  0  0  0  0  0  0  0  0
  182.7930  177.1300  137.9010 C   0  0  1  0  0  3  0  0  0  0  0  0
  181.3950  177.1500  137.9640 O   0  0  0  0  0  0  0  0  0  0  0  0
  181.3180  175.9260  139.7320 C   0  0  0  0  0  1  0  0  0  0  0  0
  181.0540  175.9400  138.3630 O   0  0  0  0  0  0  0  0  0  0  0  0
  183.2480  176.4340  136.6160 C   0  0  2  0  0  3  0  0  0  0  0  0
  184.2340  175.3460  136.9090 C   0  0  0  0  0  0  0  0  0  0  0  0
  184.6720  173.0710  137.6320 C   0  0  0  0  0  3  0  0  0  0  0  0
  186.5180  174.5390  137.0840 C   0  0  0  0  0  3  0  0  0  0  0  0
  186.0470  173.2930  137.5050 C   0  0  0  0  0  3  0  0  0  0  0  0
  185.6150  175.5650  136.7890 C   0  0  0  0  0  3  0  0  0  0  0  0
  183.7690  174.0970  137.3370 C   0  0  0  0  0  3  0  0  0  0  0  0
  183.7740  177.3560  135.7040 O   0  0  0  0  0  0  0  0  0  0  0  0
  183.0210  177.1820  134.5430 C   0  0  0  0  0  1  0  0  0  0  0  0
  189.4740  178.3120  140.4460 N   0  0  0  0  0  2  0  0  0  0  0  0
  189.0230  178.2390  136.7260 C   0  0  0  0  0  3  0  0  0  0  0  0
  189.3640  176.9070  136.4460 C   0  0  0  0  0  0  0  0  0  0  0  0
  189.7770  176.5290  138.8050 C   0  0  0  0  0  3  0  0  0  0  0  0
  189.0620  178.7110  138.0410 C   0  0  0  0  0  3  0  0  0  0  0  0
  189.4510  177.8600  139.0870 C   0  0  0  0  0  0  0  0  0  0  0  0
  189.7370  176.0560  137.4910 C   0  0  0  0  0  3  0  0  0  0  0  0
  189.3340  176.4160  135.1420 O   0  0  0  0  0  0  0  0  0  0  0  0
  188.1870  176.3470  134.4530 O   0  0  0  0  0  1  0  0  0  0  0  0
  1  6  1  1  0  0  0
  2 12  1  0  0  0  0
  3 16  1  6  0  0  0
  3 10  1  0  0  0  0
  4  8  2  0  0  0  0
  5  1  1  0  0  0  0
  7  4  1  0  0  0  0
  7  9  1  1  0  0  0
  8  1  1  0  0  0  0
  9  5  1  0  0  0  0
 10 11  1  0  0  0  0
 11  2  1  6  0  0  0
 11  7  1  0  0  0  0
 12 15  1  0  0  0  0
 13  2  2  0  0  0  0
 14 13  1  0  0  0  0
 14  3  1  0  0  0  0
 15  4  1  0  0  0  0
 16 17  1  1  0  0  0
 18 16  1  0  0  0  0
 19 18  1  0  0  0  0
 20 19  2  0  0  0  0
 21 19  1  0  0  0  0
 22 21  1  6  0  0  0
 22 23  1  0  0  0  0
 23 25  1  0  0  0  0
 25 24  1  0  0  0  0
 26 33  1  6  0  0  0
 26 27  1  0  0  0  0
 26 22  1  0  0  0  0
 27 32  1  0  0  0  0
 29 30  2  0  0  0  0
 30 28  1  0  0  0  0
 31 27  2  0  0  0  0
 31 29  1  0  0  0  0
 32 28  2  0  0  0  0
 34 33  1  0  0  0  0
 35 13  1  0  0  0  0
 36 39  1  0  0  0  0
 37 36  2  0  0  0  0
 37 41  1  0  0  0  0
 38 40  1  0  0  0  0
 39 40  2  0  0  0  0
 40 35  1  0  0  0  0
 41 38  2  0  0  0  0
 42 37  1  0  0  0  0
 43 42  1  0  0  0  0
M  END
>  <MODEL>
5

>  <REMARK>
 VINA RESULT:      -8.7      2.743      6.638
  Name = 
  13 active torsions:
  status: ('A' for Active; 'I' for Inactive)
    1  A    between atoms: N_1  and  C_34
    2  A    between atoms: N_1  and  C_35
    3  A    between atoms: C_2  and  O_6
    4  A    between atoms: C_2  and  C_13
    5  A    between atoms: O_3  and  C_4
    6  A    between atoms: O_3  and  C_12
    7  A    between atoms: C_4  and  O_15
    8  A    between atoms: C_4  and  C_22
    9  A    between atoms: O_6  and  C_12
   10  A    between atoms: C_11  and  C_22
   11  A    between atoms: O_14  and  C_22
   12  A    between atoms: O_15  and  O_42
   13  A    between atoms: C_19  and  O_25
                            x       y       z     vdW  Elec       q    Type
                         _______ _______ _______ _____ _____    ______ ____

>  <TORSDO>
F 13

$$$$
=
 OpenBabel10272414213D

 43 47  0  0  1  0  0  0  0  0999 V2000
  191.4140  175.7510  147.4190 C   0  0  1  0  0  3  0  0  0  0  0  0
  187.5390  177.9140  144.9620 C   0  0  0  0  0  0  0  0  0  0  0  0
  188.2840  177.9510  142.3040 C   0  0  2  0  0  3  0  0  0  0  0  0
  189.5930  177.2840  146.8630 C   0  0  0  0  0  0  0  0  0  0  0  0
  192.1450  176.1400  146.1270 C   0  0  0  0  0  2  0  0  0  0  0  0
  192.3250  175.5750  148.4420 F   0  0  0  0  0  0  0  0  0  0  0  0
  189.7490  176.8130  145.4330 C   0  0  2  0  0  3  0  0  0  0  0  0
  190.4070  176.7950  147.8030 C   0  0  0  0  0  3  0  0  0  0  0  0
  191.2340  176.7600  145.0470 C   0  0  0  0  0  2  0  0  0  0  0  0
  188.9650  177.0820  143.1760 O   0  0  0  0  0  0  0  0  0  0  0  0
  188.9580  177.6870  144.4510 C   0  0  1  0  0  3  0  0  0  0  0  0
  187.3130  178.1810  146.4320 C   0  0  0  0  0  2  0  0  0  0  0  0
  186.5260  178.0200  144.0770 C   0  0  0  0  0  0  0  0  0  0  0  0
  186.7860  177.9000  142.6020 C   0  0  0  0  0  2  0  0  0  0  0  0
  188.6170  178.3670  147.2070 C   0  0  0  0  0  2  0  0  0  0  0  0
  188.5290  177.5660  140.8500 C   0  0  2  0  0  3  0  0  0  0  0  0
  189.8170  177.0440  140.6880 O   0  0  0  0  0  1  0  0  0  0  0  0
  188.3440  178.6970  140.0060 O   0  0  0  0  0  0  0  0  0  0  0  0
  188.5460  178.6350  138.6220 C   0  0  0  0  0  0  0  0  0  0  0  0
  189.1900  179.5430  138.0300 O   0  0  0  0  0  0  0  0  0  0  0  0
  188.0480  177.5660  137.8800 O   0  0  0  0  0  0  0  0  0  0  0  0
  186.6540  177.3680  137.6680 C   0  0  1  0  0  3  0  0  0  0  0  0
  186.0100  178.6050  137.5490 O   0  0  0  0  0  0  0  0  0  0  0  0
  183.9210  178.4130  138.0280 C   0  0  0  0  0  1  0  0  0  0  0  0
  185.1810  178.6570  138.5740 O   0  0  0  0  0  0  0  0  0  0  0  0
  186.4220  176.5340  136.4070 C   0  0  2  0  0  3  0  0  0  0  0  0
  185.8730  175.1820  136.7430 C   0  0  0  0  0  0  0  0  0  0  0  0
  186.2690  172.8670  137.3490 C   0  0  0  0  0  3  0  0  0  0  0  0
  184.0030  173.6590  137.0280 C   0  0  0  0  0  3  0  0  0  0  0  0
  184.8910  172.6260  137.3390 C   0  0  0  0  0  3  0  0  0  0  0  0
  184.4920  174.9350  136.7280 C   0  0  0  0  0  3  0  0  0  0  0  0
  186.7580  174.1420  137.0490 C   0  0  0  0  0  3  0  0  0  0  0  0
  187.5970  176.4260  135.6530 O   0  0  0  0  0  0  0  0  0  0  0  0
  187.3560  177.1780  134.5030 C   0  0  0  0  0  1  0  0  0  0  0  0
  185.1740  178.2590  144.4950 N   0  0  0  0  0  2  0  0  0  0  0  0
  183.0730  178.3910  141.3950 C   0  0  0  0  0  3  0  0  0  0  0  0
  181.8480  178.8220  141.9250 C   0  0  0  0  0  0  0  0  0  0  0  0
  182.8360  178.8660  144.1390 C   0  0  0  0  0  3  0  0  0  0  0  0
  184.1720  178.1990  142.2350 C   0  0  0  0  0  3  0  0  0  0  0  0
  184.0560  178.4240  143.6150 C   0  0  0  0  0  0  0  0  0  0  0  0
  181.7370  179.0600  143.2990 C   0  0  0  0  0  3  0  0  0  0  0  0
  180.7380  179.0180  141.1050 O   0  0  0  0  0  0  0  0  0  0  0  0
  180.2470  178.0250  140.3520 O   0  0  0  0  0  1  0  0  0  0  0  0
  1  8  1  0  0  0  0
  1  6  1  1  0  0  0
  2 12  1  0  0  0  0
  3 16  1  6  0  0  0
  3 14  1  0  0  0  0
  3 10  1  0  0  0  0
  4 15  1  0  0  0  0
  4  8  2  0  0  0  0
  5  1  1  0  0  0  0
  7  9  1  6  0  0  0
  7  4  1  0  0  0  0
  9  5  1  0  0  0  0
 11 10  1  6  0  0  0
 11  2  1  0  0  0  0
 11  7  1  0  0  0  0
 12 15  1  0  0  0  0
 13 35  1  0  0  0  0
 13  2  2  0  0  0  0
 14 13  1  0  0  0  0
 16 17  1  1  0  0  0
 18 16  1  0  0  0  0
 19 18  1  0  0  0  0
 20 19  2  0  0  0  0
 21 19  1  0  0  0  0
 22 23  1  6  0  0  0
 22 21  1  0  0  0  0
 23 25  1  0  0  0  0
 24 25  1  0  0  0  0
 26 33  1  1  0  0  0
 26 27  1  0  0  0  0
 26 22  1  0  0  0  0
 27 32  1  0  0  0  0
 29 30  2  0  0  0  0
 30 28  1  0  0  0  0
 31 27  2  0  0  0  0
 31 29  1  0  0  0  0
 32 28  2  0  0  0  0
 34 33  1  0  0  0  0
 36 37  2  0  0  0  0
 36 39  1  0  0  0  0
 37 41  1  0  0  0  0
 39 40  2  0  0  0  0
 40 38  1  0  0  0  0
 40 35  1  0  0  0  0
 41 38  2  0  0  0  0
 42 37  1  0  0  0  0
 43 42  1  0  0  0  0
M  END
>  <MODEL>
6

>  <REMARK>
 VINA RESULT:      -8.6      2.091      3.394
  Name = 
  13 active torsions:
  status: ('A' for Active; 'I' for Inactive)
    1  A    between atoms: N_1  and  C_34
    2  A    between atoms: N_1  and  C_35
    3  A    between atoms: C_2  and  O_6
    4  A    between atoms: C_2  and  C_13
    5  A    between atoms: O_3  and  C_4
    6  A    between atoms: O_3  and  C_12
    7  A    between atoms: C_4  and  O_15
    8  A    between atoms: C_4  and  C_22
    9  A    between atoms: O_6  and  C_12
   10  A    between atoms: C_11  and  C_22
   11  A    between atoms: O_14  and  C_22
   12  A    between atoms: O_15  and  O_42
   13  A    between atoms: C_19  and  O_25
                            x       y       z     vdW  Elec       q    Type
                         _______ _______ _______ _____ _____    ______ ____

>  <TORSDO>
F 13

$$$$
=
 OpenBabel10272414213D

 43 47  0  0  1  0  0  0  0  0999 V2000
  188.2090  177.9170  145.4010 C   0  0  1  0  0  3  0  0  0  0  0  0
  190.7270  177.0680  141.0800 C   0  0  0  0  0  0  0  0  0  0  0  0
  188.8830  177.4680  139.0650 C   0  0  2  0  0  3  0  0  0  0  0  0
  189.6940  176.8930  143.7500 C   0  0  0  0  0  0  0  0  0  0  0  0
  187.0090  177.6880  144.4720 C   0  0  0  0  0  2  0  0  0  0  0  0
  187.8380  177.7010  146.7140 F   0  0  0  0  0  0  0  0  0  0  0  0
  188.8870  177.6250  142.6990 C   0  0  2  0  0  3  0  0  0  0  0  0
  189.3510  177.0140  145.0360 C   0  0  0  0  0  3  0  0  0  0  0  0
  187.3850  177.4890  142.9890 C   0  0  0  0  0  2  0  0  0  0  0  0
  188.6020  177.9920  140.3400 O   0  0  0  0  0  0  0  0  0  0  0  0
  189.2170  177.1390  141.2810 C   0  0  1  0  0  3  0  0  0  0  0  0
  191.6000  176.5370  142.1930 C   0  0  0  0  0  2  0  0  0  0  0  0
  191.2460  177.3390  139.8650 C   0  0  0  0  0  0  0  0  0  0  0  0
  190.3500  177.7240  138.7220 C   0  0  0  0  0  2  0  0  0  0  0  0
  190.7940  175.9560  143.3530 C   0  0  0  0  0  2  0  0  0  0  0  0
  187.9910  178.1050  138.0060 C   0  0  2  0  0  3  0  0  0  0  0  0
  188.5570  179.2940  137.5340 O   0  0  0  0  0  1  0  0  0  0  0  0
  186.6960  178.3520  138.5400 O   0  0  0  0  0  0  0  0  0  0  0  0
  185.5430  177.7680  138.0000 C   0  0  0  0  0  0  0  0  0  0  0  0
  185.6220  176.7050  137.3280 O   0  0  0  0  0  0  0  0  0  0  0  0
  184.2930  178.3470  138.2050 O   0  0  0  0  0  0  0  0  0  0  0  0
  183.9400  178.9870  139.4260 C   0  0  1  0  0  3  0  0  0  0  0  0
  183.5210  180.2990  139.1730 O   0  0  0  0  0  0  0  0  0  0  0  0
  181.8340  181.4320  138.4670 C   0  0  0  0  0  1  0  0  0  0  0  0
  182.4350  180.1740  138.4360 O   0  0  0  0  0  0  0  0  0  0  0  0
  182.8250  178.2100  140.1300 C   0  0  2  0  0  3  0  0  0  0  0  0
  182.7750  178.5360  141.5910 C   0  0  0  0  0  0  0  0  0  0  0  0
  183.9410  178.8460  143.6960 C   0  0  0  0  0  3  0  0  0  0  0  0
  181.5310  179.0730  143.6070 C   0  0  0  0  0  3  0  0  0  0  0  0
  182.7230  179.1020  144.3350 C   0  0  0  0  0  3  0  0  0  0  0  0
  181.5550  178.7880  142.2380 C   0  0  0  0  0  3  0  0  0  0  0  0
  183.9650  178.5610  142.3270 C   0  0  0  0  0  3  0  0  0  0  0  0
  182.9680  176.8320  139.9280 O   0  0  0  0  0  0  0  0  0  0  0  0
  181.7290  176.4110  139.4450 C   0  0  0  0  0  1  0  0  0  0  0  0
  192.6560  177.2640  139.6060 N   0  0  0  0  0  2  0  0  0  0  0  0
  193.5260  175.6930  136.3170 C   0  0  0  0  0  3  0  0  0  0  0  0
  194.4590  174.7290  136.7250 C   0  0  0  0  0  0  0  0  0  0  0  0
  194.1920  175.4580  139.0220 C   0  0  0  0  0  3  0  0  0  0  0  0
  192.9310  176.5360  137.2590 C   0  0  0  0  0  3  0  0  0  0  0  0
  193.2700  176.4300  138.6170 C   0  0  0  0  0  0  0  0  0  0  0  0
  194.7860  174.6150  138.0800 C   0  0  0  0  0  3  0  0  0  0  0  0
  195.0660  173.8800  135.8010 O   0  0  0  0  0  0  0  0  0  0  0  0
  195.0980  172.5540  135.9930 O   0  0  0  0  0  1  0  0  0  0  0  0
  1  6  1  1  0  0  0
  2 11  1  0  0  0  0
  2 12  1  0  0  0  0
  3 16  1  6  0  0  0
  3 10  1  0  0  0  0
  4  8  2  0  0  0  0
  5  1  1  0  0  0  0
  7  9  1  1  0  0  0
  7  4  1  0  0  0  0
  8  1  1  0  0  0  0
  9  5  1  0  0  0  0
 11 10  1  6  0  0  0
 11  7  1  0  0  0  0
 12 15  1  0  0  0  0
 13  2  2  0  0  0  0
 14  3  1  0  0  0  0
 14 13  1  0  0  0  0
 15  4  1  0  0  0  0
 16 17  1  1  0  0  0
 16 18  1  0  0  0  0
 19 21  1  0  0  0  0
 19 18  1  0  0  0  0
 20 19  2  0  0  0  0
 22 21  1  6  0  0  0
 22 26  1  0  0  0  0
 23 22  1  0  0  0  0
 25 24  1  0  0  0  0
 25 23  1  0  0  0  0
 26 33  1  1  0  0  0
 26 27  1  0  0  0  0
 27 31  2  0  0  0  0
 27 32  1  0  0  0  0
 28 30  1  0  0  0  0
 29 30  2  0  0  0  0
 31 29  1  0  0  0  0
 32 28  2  0  0  0  0
 34 33  1  0  0  0  0
 35 13  1  0  0  0  0
 36 37  2  0  0  0  0
 36 39  1  0  0  0  0
 37 41  1  0  0  0  0
 39 40  2  0  0  0  0
 40 38  1  0  0  0  0
 40 35  1  0  0  0  0
 41 38  2  0  0  0  0
 42 43  1  0  0  0  0
 42 37  1  0  0  0  0
M  END
>  <MODEL>
7

>  <REMARK>
 VINA RESULT:      -8.5      2.636      8.602
  Name = 
  13 active torsions:
  status: ('A' for Active; 'I' for Inactive)
    1  A    between atoms: N_1  and  C_34
    2  A    between atoms: N_1  and  C_35
    3  A    between atoms: C_2  and  O_6
    4  A    between atoms: C_2  and  C_13
    5  A    between atoms: O_3  and  C_4
    6  A    between atoms: O_3  and  C_12
    7  A    between atoms: C_4  and  O_15
    8  A    between atoms: C_4  and  C_22
    9  A    between atoms: O_6  and  C_12
   10  A    between atoms: C_11  and  C_22
   11  A    between atoms: O_14  and  C_22
   12  A    between atoms: O_15  and  O_42
   13  A    between atoms: C_19  and  O_25
                            x       y       z     vdW  Elec       q    Type
                         _______ _______ _______ _____ _____    ______ ____

>  <TORSDO>
F 13

$$$$
=
 OpenBabel10272414213D

 43 47  0  0  1  0  0  0  0  0999 V2000
  191.2530  175.7500  147.1040 C   0  0  1  0  0  3  0  0  0  0  0  0
  187.2480  177.8900  144.8440 C   0  0  0  0  0  0  0  0  0  0  0  0
  188.0600  178.4240  142.2610 C   0  0  2  0  0  3  0  0  0  0  0  0
  189.3000  177.1680  146.7130 C   0  0  0  0  0  0  0  0  0  0  0  0
  191.9770  176.4120  145.9230 C   0  0  0  0  0  2  0  0  0  0  0  0
  192.1480  175.5030  148.1270 F   0  0  0  0  0  0  0  0  0  0  0  0
  189.5450  176.9490  145.2360 C   0  0  2  0  0  3  0  0  0  0  0  0
  190.1320  176.6160  147.6010 C   0  0  0  0  0  3  0  0  0  0  0  0
  191.0380  177.1050  144.9130 C   0  0  0  0  0  2  0  0  0  0  0  0
  188.8030  177.4990  143.0160 O   0  0  0  0  0  0  0  0  0  0  0  0
  188.6970  177.8880  144.3680 C   0  0  1  0  0  3  0  0  0  0  0  0
  186.9520  177.8940  146.3260 C   0  0  0  0  0  2  0  0  0  0  0  0
  186.2550  178.0360  143.9420 C   0  0  0  0  0  0  0  0  0  0  0  0
  186.5690  178.1800  142.4800 C   0  0  0  0  0  2  0  0  0  0  0  0
  188.2070  178.0810  147.1780 C   0  0  0  0  0  2  0  0  0  0  0  0
  188.3860  178.3040  140.7770 C   0  0  2  0  0  3  0  0  0  0  0  0
  187.2260  178.4270  140.0050 O   0  0  0  0  0  1  0  0  0  0  0  0
  189.0240  177.0590  140.5140 O   0  0  0  0  0  0  0  0  0  0  0  0
  190.3400  176.9810  140.0430 C   0  0  0  0  0  0  0  0  0  0  0  0
  191.2990  177.3800  140.7570 O   0  0  0  0  0  0  0  0  0  0  0  0
  190.6110  176.4510  138.7820 O   0  0  0  0  0  0  0  0  0  0  0  0
  189.5970  176.2530  137.8040 C   0  0  1  0  0  3  0  0  0  0  0  0
  189.6150  177.3030  136.8780 O   0  0  0  0  0  0  0  0  0  0  0  0
  188.0570  178.2650  135.7490 C   0  0  0  0  0  1  0  0  0  0  0  0
  188.4600  177.9190  137.0380 O   0  0  0  0  0  0  0  0  0  0  0  0
  189.8060  174.9190  137.0850 C   0  0  2  0  0  3  0  0  0  0  0  0
  188.5260  174.1490  136.9830 C   0  0  0  0  0  0  0  0  0  0  0  0
  187.3900  172.0350  136.6290 C   0  0  0  0  0  3  0  0  0  0  0  0
  186.0990  174.0550  136.9780 C   0  0  0  0  0  3  0  0  0  0  0  0
  186.1530  172.6780  136.7470 C   0  0  0  0  0  3  0  0  0  0  0  0
  187.2820  174.7910  137.0940 C   0  0  0  0  0  3  0  0  0  0  0  0
  188.5730  172.7710  136.7450 C   0  0  0  0  0  3  0  0  0  0  0  0
  190.7990  174.1590  137.7150 O   0  0  0  0  0  0  0  0  0  0  0  0
  191.7710  173.9560  136.7350 C   0  0  0  0  0  1  0  0  0  0  0  0
  184.8740  178.0720  144.3300 N   0  0  0  0  0  2  0  0  0  0  0  0
  182.8490  178.7580  141.2530 C   0  0  0  0  0  3  0  0  0  0  0  0
  181.6290  179.1500  141.8220 C   0  0  0  0  0  0  0  0  0  0  0  0
  182.5680  178.8180  144.0330 C   0  0  0  0  0  3  0  0  0  0  0  0
  183.9220  178.3960  142.0720 C   0  0  0  0  0  3  0  0  0  0  0  0
  183.7820  178.4130  143.4680 C   0  0  0  0  0  0  0  0  0  0  0  0
  181.4960  179.1810  143.2140 C   0  0  0  0  0  3  0  0  0  0  0  0
  180.5460  179.5130  141.0230 O   0  0  0  0  0  0  0  0  0  0  0  0
  180.4520  179.0990  139.7520 O   0  0  0  0  0  1  0  0  0  0  0  0
  1  8  1  0  0  0  0
  1  6  1  1  0  0  0
  2 12  1  0  0  0  0
  3 16  1  6  0  0  0
  3 14  1  0  0  0  0
  3 10  1  0  0  0  0
  4 15  1  0  0  0  0
  4  8  2  0  0  0  0
  5  1  1  0  0  0  0
  7  9  1  1  0  0  0
  7  4  1  0  0  0  0
  9  5  1  0  0  0  0
 11 10  1  6  0  0  0
 11  2  1  0  0  0  0
 11  7  1  0  0  0  0
 12 15  1  0  0  0  0
 13 35  1  0  0  0  0
 13  2  2  0  0  0  0
 14 13  1  0  0  0  0
 16 17  1  6  0  0  0
 18 16  1  0  0  0  0
 19 18  1  0  0  0  0
 19 20  2  0  0  0  0
 21 19  1  0  0  0  0
 22 23  1  6  0  0  0
 22 21  1  0  0  0  0
 23 25  1  0  0  0  0
 24 25  1  0  0  0  0
 26 33  1  1  0  0  0
 26 22  1  0  0  0  0
 27 26  1  0  0  0  0
 27 31  1  0  0  0  0
 28 32  1  0  0  0  0
 28 30  2  0  0  0  0
 29 31  2  0  0  0  0
 30 29  1  0  0  0  0
 32 27  2  0  0  0  0
 34 33  1  0  0  0  0
 36 37  2  0  0  0  0
 36 39  1  0  0  0  0
 37 41  1  0  0  0  0
 39 40  2  0  0  0  0
 40 38  1  0  0  0  0
 40 35  1  0  0  0  0
 41 38  2  0  0  0  0
 42 37  1  0  0  0  0
 43 42  1  0  0  0  0
M  END
>  <MODEL>
8

>  <REMARK>
 VINA RESULT:      -8.5      1.222      2.072
  Name = 
  13 active torsions:
  status: ('A' for Active; 'I' for Inactive)
    1  A    between atoms: N_1  and  C_34
    2  A    between atoms: N_1  and  C_35
    3  A    between atoms: C_2  and  O_6
    4  A    between atoms: C_2  and  C_13
    5  A    between atoms: O_3  and  C_4
    6  A    between atoms: O_3  and  C_12
    7  A    between atoms: C_4  and  O_15
    8  A    between atoms: C_4  and  C_22
    9  A    between atoms: O_6  and  C_12
   10  A    between atoms: C_11  and  C_22
   11  A    between atoms: O_14  and  C_22
   12  A    between atoms: O_15  and  O_42
   13  A    between atoms: C_19  and  O_25
                            x       y       z     vdW  Elec       q    Type
                         _______ _______ _______ _____ _____    ______ ____

>  <TORSDO>
F 13

$$$$
=
 OpenBabel10272414213D

 43 47  0  0  1  0  0  0  0  0999 V2000
  184.1320  178.3930  145.1580 C   0  0  1  0  0  3  0  0  0  0  0  0
  182.6810  178.2910  140.2980 C   0  0  0  0  0  0  0  0  0  0  0  0
  184.9920  178.6640  138.8340 C   0  0  2  0  0  3  0  0  0  0  0  0
  182.8500  178.8000  143.1160 C   0  0  0  0  0  0  0  0  0  0  0  0
  185.3540  179.0810  144.5340 C   0  0  0  0  0  2  0  0  0  0  0  0
  184.0450  178.7110  146.4990 F   0  0  0  0  0  0  0  0  0  0  0  0
  184.1130  178.4520  142.3570 C   0  0  2  0  0  3  0  0  0  0  0  0
  182.8700  178.7960  144.4520 C   0  0  0  0  0  3  0  0  0  0  0  0
  185.3260  179.1470  142.9930 C   0  0  0  0  0  2  0  0  0  0  0  0
  185.1100  178.2650  140.1770 O   0  0  0  0  0  0  0  0  0  0  0  0
  184.0020  178.8000  140.8670 C   0  0  1  0  0  3  0  0  0  0  0  0
  181.4180  178.4270  141.1160 C   0  0  0  0  0  2  0  0  0  0  0  0
  182.6330  177.8630  139.0190 C   0  0  0  0  0  0  0  0  0  0  0  0
  183.8690  177.8720  138.1650 C   0  0  0  0  0  2  0  0  0  0  0  0
  181.6210  179.2510  142.3860 C   0  0  0  0  0  2  0  0  0  0  0  0
  186.2970  178.4360  138.0800 C   0  0  2  0  0  3  0  0  0  0  0  0
  186.2490  177.2380  137.3610 O   0  0  0  0  0  1  0  0  0  0  0  0
  187.3920  178.4250  138.9890 O   0  0  0  0  0  0  0  0  0  0  0  0
  188.6980  178.7270  138.5860 C   0  0  0  0  0  0  0  0  0  0  0  0
  188.9020  179.4830  137.5980 O   0  0  0  0  0  0  0  0  0  0  0  0
  189.7910  178.2050  139.2760 O   0  0  0  0  0  0  0  0  0  0  0  0
  189.7460  176.9450  139.9350 C   0  0  1  0  0  3  0  0  0  0  0  0
  190.0920  175.9260  139.0390 O   0  0  0  0  0  0  0  0  0  0  0  0
  190.8850  175.5980  137.0660 C   0  0  0  0  0  1  0  0  0  0  0  0
  190.8150  176.5200  138.1100 O   0  0  0  0  0  0  0  0  0  0  0  0
  190.7030  176.9360  141.1290 C   0  0  2  0  0  3  0  0  0  0  0  0
  189.9580  177.0600  142.4220 C   0  0  0  0  0  0  0  0  0  0  0  0
  187.9650  176.6050  143.7290 C   0  0  0  0  0  3  0  0  0  0  0  0
  189.7800  177.8810  144.7010 C   0  0  0  0  0  3  0  0  0  0  0  0
  188.5130  177.3010  144.8110 C   0  0  0  0  0  3  0  0  0  0  0  0
  190.5010  177.7630  143.5090 C   0  0  0  0  0  3  0  0  0  0  0  0
  188.6870  176.4870  142.5370 C   0  0  0  0  0  3  0  0  0  0  0  0
  191.6680  177.9430  141.0080 O   0  0  0  0  0  0  0  0  0  0  0  0
  192.8400  177.2750  140.6500 C   0  0  0  0  0  1  0  0  0  0  0  0
  181.4150  177.3980  138.4190 N   0  0  0  0  0  2  0  0  0  0  0  0
  180.3380  173.8110  138.2870 C   0  0  0  0  0  3  0  0  0  0  0  0
  180.8040  173.4420  137.0170 C   0  0  0  0  0  0  0  0  0  0  0  0
  181.6580  175.6890  136.6920 C   0  0  0  0  0  3  0  0  0  0  0  0
  180.5300  175.1140  138.7540 C   0  0  0  0  0  3  0  0  0  0  0  0
  181.1820  176.0630  137.9530 C   0  0  0  0  0  0  0  0  0  0  0  0
  181.4670  174.3860  136.2250 C   0  0  0  0  0  3  0  0  0  0  0  0
  180.6210  172.1490  136.5310 O   0  0  0  0  0  0  0  0  0  0  0  0
  179.9860  171.2180  137.2570 O   0  0  0  0  0  1  0  0  0  0  0  0
  1  6  1  1  0  0  0
  2 11  1  0  0  0  0
  2 12  1  0  0  0  0
  3 16  1  6  0  0  0
  3 10  1  0  0  0  0
  4  8  2  0  0  0  0
  5  1  1  0  0  0  0
  7  9  1  1  0  0  0
  7  4  1  0  0  0  0
  8  1  1  0  0  0  0
  9  5  1  0  0  0  0
 11 10  1  6  0  0  0
 11  7  1  0  0  0  0
 12 15  1  0  0  0  0
 13  2  2  0  0  0  0
 14  3  1  0  0  0  0
 14 13  1  0  0  0  0
 15  4  1  0  0  0  0
 16 17  1  1  0  0  0
 16 18  1  0  0  0  0
 19 18  1  0  0  0  0
 19 21  1  0  0  0  0
 20 19  2  0  0  0  0
 21 22  1  0  0  0  0
 22 23  1  6  0  0  0
 22 26  1  0  0  0  0
 24 25  1  0  0  0  0
 25 23  1  0  0  0  0
 26 33  1  6  0  0  0
 26 27  1  0  0  0  0
 27 32  2  0  0  0  0
 27 31  1  0  0  0  0
 28 30  2  0  0  0  0
 29 30  1  0  0  0  0
 31 29  2  0  0  0  0
 32 28  1  0  0  0  0
 34 33  1  0  0  0  0
 35 13  1  0  0  0  0
 36 39  1  0  0  0  0
 37 36  2  0  0  0  0
 38 40  1  0  0  0  0
 40 35  1  0  0  0  0
 40 39  2  0  0  0  0
 41 38  2  0  0  0  0
 41 37  1  0  0  0  0
 42 37  1  0  0  0  0
 42 43  1  0  0  0  0
M  END
>  <MODEL>
9

>  <REMARK>
 VINA RESULT:      -8.4      3.552      6.266
  Name = 
  13 active torsions:
  status: ('A' for Active; 'I' for Inactive)
    1  A    between atoms: N_1  and  C_34
    2  A    between atoms: N_1  and  C_35
    3  A    between atoms: C_2  and  O_6
    4  A    between atoms: C_2  and  C_13
    5  A    between atoms: O_3  and  C_4
    6  A    between atoms: O_3  and  C_12
    7  A    between atoms: C_4  and  O_15
    8  A    between atoms: C_4  and  C_22
    9  A    between atoms: O_6  and  C_12
   10  A    between atoms: C_11  and  C_22
   11  A    between atoms: O_14  and  C_22
   12  A    between atoms: O_15  and  O_42
   13  A    between atoms: C_19  and  O_25
                            x       y       z     vdW  Elec       q    Type
                         _______ _______ _______ _____ _____    ______ ____

>  <TORSDO>
F 13

$$$$
