=
 OpenBabel10272401453D

 28 33  0  0  1  0  0  0  0  0999 V2000
  185.6210  178.0450  144.2100 C   0  0  0  0  0  0  0  0  0  0  0  0
  188.9000  178.8390  142.4730 C   0  0  0  0  0  2  0  0  0  0  0  0
  189.1800  176.8050  147.1910 C   0  0  0  0  0  1  0  0  0  0  0  0
  191.6050  177.2340  141.9350 C   0  0  0  0  0  2  0  0  0  0  0  0
  188.9460  176.4730  143.4450 N   0  0  2  0  0  0  0  0  0  0  0  0
  189.9120  178.1160  140.4090 N   0  0  0  0  0  0  0  0  0  0  0  0
  189.6460  177.5460  142.7220 C   0  0  1  0  0  0  0  0  0  0  0  0
  191.3270  176.5020  144.5730 S   0  0  0  0  0  0  0  0  0  0  0  0
  190.1890  177.0740  141.3950 C   0  0  2  0  0  3  0  0  0  0  0  0
  187.6540  177.8910  145.5490 C   0  0  0  0  0  0  0  0  0  0  0  0
  187.4780  176.5180  143.4410 C   0  0  0  0  0  2  0  0  0  0  0  0
  191.0510  177.7360  143.2600 C   0  0  1  0  0  3  0  0  0  0  0  0
  185.8730  179.4090  146.1990 C   0  0  0  0  0  3  0  0  0  0  0  0
  189.0480  177.3750  145.7880 C   0  0  2  0  0  3  0  0  0  0  0  0
  187.1330  178.8580  146.4210 C   0  0  0  0  0  3  0  0  0  0  0  0
  189.3630  177.4570  139.2390 C   0  0  0  0  0  1  0  0  0  0  0  0
  188.8490  178.9490  140.9640 C   0  0  0  0  0  2  0  0  0  0  0  0
  189.5330  176.3230  144.7760 C   0  0  1  0  0  3  0  0  0  0  0  0
  185.1210  179.0050  145.0980 C   0  0  0  0  0  3  0  0  0  0  0  0
  186.9110  177.5100  144.4170 C   0  0  0  0  0  0  0  0  0  0  0  0
  184.7850  177.6460  143.0240 C   0  0  0  0  0  2  0  0  0  0  0  0
  183.9370  178.7840  142.4080 C   0  0  2  0  0  3  0  0  0  0  0  0
  181.7970  177.7980  140.7080 C   0  0  0  0  0  2  0  0  0  0  0  0
  182.4870  178.7820  142.9200 C   0  0  0  0  0  2  0  0  0  0  0  0
  185.3890  178.8930  140.4770 C   0  0  0  0  0  1  0  0  0  0  0  0
  184.0080  178.9110  140.9370 N   0  0  0  0  0  0  0  0  0  0  0  0
  183.2720  177.8310  140.2760 C   0  0  0  0  0  2  0  0  0  0  0  0
  181.4740  178.8440  141.7770 C   0  0  0  0  0  2  0  0  0  0  0  0
  1 20  2  0  0  0  0
  1 19  1  0  0  0  0
  5 11  1  1  0  0  0
  5 18  1  0  0  0  0
  6 17  1  0  0  0  0
  6  9  1  0  0  0  0
  7  2  1  6  0  0  0
  7 12  1  0  0  0  0
  7  5  1  0  0  0  0
  9  4  1  1  0  0  0
  9  7  1  0  0  0  0
 10 14  1  0  0  0  0
 10 15  2  0  0  0  0
 11 20  1  0  0  0  0
 12  4  1  6  0  0  0
 12  8  1  0  0  0  0
 13 15  1  0  0  0  0
 14  3  1  1  0  0  0
 16  6  1  0  0  0  0
 17  2  1  0  0  0  0
 18  8  1  6  0  0  0
 18 14  1  0  0  0  0
 19 13  2  0  0  0  0
 20 10  1  0  0  0  0
 21  1  1  0  0  0  0
 22 24  1  0  0  0  0
 22 21  1  6  0  0  0
 23 28  1  0  0  0  0
 25 26  1  0  0  0  0
 26 22  1  0  0  0  0
 27 23  1  0  0  0  0
 27 26  1  0  0  0  0
 28 24  1  0  0  0  0
M  END
>  <MODEL>
1

>  <REMARK>
 VINA RESULT:      -8.1      0.000      0.000
  Name = 
  2 active torsions:
  status: ('A' for Active; 'I' for Inactive)
    1  A    between atoms: C_1  and  C_2
    2  A    between atoms: C_2  and  C_3
                            x       y       z     vdW  Elec       q    Type
                         _______ _______ _______ _____ _____    ______ ____

>  <TORSDO>
F 2

$$$$
=
 OpenBabel10272401453D

 28 33  0  0  1  0  0  0  0  0999 V2000
  184.7980  178.2480  143.1530 C   0  0  0  0  0  0  0  0  0  0  0  0
  188.3760  178.8790  142.0570 C   0  0  0  0  0  2  0  0  0  0  0  0
  187.6240  177.6200  146.9890 C   0  0  0  0  0  1  0  0  0  0  0  0
  191.1350  177.3090  142.3780 C   0  0  0  0  0  2  0  0  0  0  0  0
  188.2110  176.6970  143.3840 N   0  0  2  0  0  0  0  0  0  0  0  0
  189.8140  177.8790  140.4030 N   0  0  0  0  0  0  0  0  0  0  0  0
  189.0510  177.6690  142.6650 C   0  0  1  0  0  0  0  0  0  0  0  0
  190.2900  176.9890  144.9760 S   0  0  0  0  0  0  0  0  0  0  0  0
  189.8710  177.0150  141.5790 C   0  0  2  0  0  3  0  0  0  0  0  0
  186.4900  178.3800  144.9050 C   0  0  0  0  0  0  0  0  0  0  0  0
  186.7800  176.6880  143.0570 C   0  0  0  0  0  2  0  0  0  0  0  0
  190.3050  177.9910  143.4550 C   0  0  1  0  0  3  0  0  0  0  0  0
  184.6090  179.9150  144.9050 C   0  0  0  0  0  3  0  0  0  0  0  0
  187.8000  177.9580  145.5170 C   0  0  2  0  0  3  0  0  0  0  0  0
  185.7910  179.4510  145.4780 C   0  0  0  0  0  3  0  0  0  0  0  0
  189.5330  177.0250  139.2630 C   0  0  0  0  0  1  0  0  0  0  0  0
  188.6540  178.7490  140.5750 C   0  0  0  0  0  2  0  0  0  0  0  0
  188.4950  176.7790  144.8150 C   0  0  1  0  0  3  0  0  0  0  0  0
  184.1150  179.3160  143.7480 C   0  0  0  0  0  3  0  0  0  0  0  0
  186.0120  177.7990  143.7160 C   0  0  0  0  0  0  0  0  0  0  0  0
  184.2410  177.6380  141.8950 C   0  0  0  0  0  2  0  0  0  0  0  0
  183.3760  178.5890  141.0340 C   0  0  2  0  0  3  0  0  0  0  0  0
  181.6610  177.1700  139.1680 C   0  0  0  0  0  2  0  0  0  0  0  0
  181.8730  178.4480  141.3270 C   0  0  0  0  0  2  0  0  0  0  0  0
  185.0940  178.6980  139.3350 C   0  0  0  0  0  1  0  0  0  0  0  0
  183.6650  178.5790  139.5850 N   0  0  0  0  0  0  0  0  0  0  0  0
  183.1720  177.3530  138.9540 C   0  0  0  0  0  2  0  0  0  0  0  0
  181.0540  178.2630  140.0490 C   0  0  0  0  0  2  0  0  0  0  0  0
  1 20  2  0  0  0  0
  1 19  1  0  0  0  0
  5 11  1  1  0  0  0
  5 18  1  0  0  0  0
  6 17  1  0  0  0  0
  6  9  1  0  0  0  0
  7  2  1  6  0  0  0
  7  5  1  0  0  0  0
  7 12  1  0  0  0  0
  9  4  1  1  0  0  0
  9  7  1  0  0  0  0
 10 15  2  0  0  0  0
 10 14  1  0  0  0  0
 11 20  1  0  0  0  0
 12  4  1  6  0  0  0
 12  8  1  0  0  0  0
 13 15  1  0  0  0  0
 14  3  1  1  0  0  0
 16  6  1  0  0  0  0
 17  2  1  0  0  0  0
 18  8  1  6  0  0  0
 18 14  1  0  0  0  0
 19 13  2  0  0  0  0
 20 10  1  0  0  0  0
 21  1  1  0  0  0  0
 22 24  1  0  0  0  0
 22 21  1  1  0  0  0
 23 28  1  0  0  0  0
 25 26  1  0  0  0  0
 26 22  1  0  0  0  0
 27 23  1  0  0  0  0
 27 26  1  0  0  0  0
 28 24  1  0  0  0  0
M  END
>  <MODEL>
2

>  <REMARK>
 VINA RESULT:      -7.1      0.988      1.268
  Name = 
  2 active torsions:
  status: ('A' for Active; 'I' for Inactive)
    1  A    between atoms: C_1  and  C_2
    2  A    between atoms: C_2  and  C_3
                            x       y       z     vdW  Elec       q    Type
                         _______ _______ _______ _____ _____    ______ ____

>  <TORSDO>
F 2

$$$$
=
 OpenBabel10272401453D

 28 33  0  0  1  0  0  0  0  0999 V2000
  190.9490  176.9760  143.1720 C   0  0  0  0  0  0  0  0  0  0  0  0
  187.5350  176.6900  144.8030 C   0  0  0  0  0  2  0  0  0  0  0  0
  191.6070  177.0180  147.9320 C   0  0  0  0  0  1  0  0  0  0  0  0
  186.0030  178.2830  147.1040 C   0  0  0  0  0  2  0  0  0  0  0  0
  188.8810  178.5920  145.8600 N   0  0  2  0  0  0  0  0  0  0  0  0
  185.5300  178.0240  144.7210 N   0  0  0  0  0  0  0  0  0  0  0  0
  187.6430  177.7970  145.8290 C   0  0  1  0  0  0  0  0  0  0  0  0
  188.4190  178.1010  148.4070 S   0  0  0  0  0  0  0  0  0  0  0  0
  186.4160  178.6650  145.6880 C   0  0  2  0  0  3  0  0  0  0  0  0
  190.8970  176.6000  145.5810 C   0  0  0  0  0  0  0  0  0  0  0  0
  189.6920  178.6040  144.6360 C   0  0  0  0  0  2  0  0  0  0  0  0
  187.2260  177.3880  147.2280 C   0  0  1  0  0  3  0  0  0  0  0  0
  192.0200  175.0180  144.1200 C   0  0  0  0  0  3  0  0  0  0  0  0
  190.4320  176.9560  146.9690 C   0  0  2  0  0  3  0  0  0  0  0  0
  191.6270  175.4170  145.3960 C   0  0  0  0  0  3  0  0  0  0  0  0
  185.0890  179.0560  143.8000 C   0  0  0  0  0  1  0  0  0  0  0  0
  186.3500  177.0930  143.9510 C   0  0  0  0  0  2  0  0  0  0  0  0
  189.6340  178.2670  147.0700 C   0  0  1  0  0  3  0  0  0  0  0  0
  191.6820  175.7940  143.0130 C   0  0  0  0  0  3  0  0  0  0  0  0
  190.5230  177.3640  144.4600 C   0  0  0  0  0  0  0  0  0  0  0  0
  190.5900  177.7790  141.9500 C   0  0  0  0  0  2  0  0  0  0  0  0
  189.7140  177.0370  140.9130 C   0  0  2  0  0  3  0  0  0  0  0  0
  189.9180  178.1750  138.2480 C   0  0  0  0  0  2  0  0  0  0  0  0
  190.5500  176.3260  139.8350 C   0  0  0  0  0  2  0  0  0  0  0  0
  187.8430  178.4990  141.3690 C   0  0  0  0  0  1  0  0  0  0  0  0
  188.6070  177.8240  140.3310 N   0  0  0  0  0  0  0  0  0  0  0  0
  189.1080  178.8220  139.3830 C   0  0  0  0  0  2  0  0  0  0  0  0
  190.0720  176.6630  138.4230 C   0  0  0  0  0  2  0  0  0  0  0  0
  1 20  1  0  0  0  0
  5 11  1  6  0  0  0
  5 18  1  0  0  0  0
  6  9  1  0  0  0  0
  7  2  1  6  0  0  0
  7  5  1  0  0  0  0
  7 12  1  0  0  0  0
  9  7  1  0  0  0  0
  9  4  1  1  0  0  0
 10 14  1  0  0  0  0
 12  4  1  1  0  0  0
 12  8  1  0  0  0  0
 13 15  2  0  0  0  0
 14 18  1  0  0  0  0
 14  3  1  1  0  0  0
 15 10  1  0  0  0  0
 16  6  1  0  0  0  0
 17  6  1  0  0  0  0
 17  2  1  0  0  0  0
 18  8  1  1  0  0  0
 19  1  2  0  0  0  0
 19 13  1  0  0  0  0
 20 11  1  0  0  0  0
 20 10  2  0  0  0  0
 21  1  1  0  0  0  0
 22 21  1  6  0  0  0
 23 28  1  0  0  0  0
 23 27  1  0  0  0  0
 24 22  1  0  0  0  0
 26 22  1  0  0  0  0
 26 25  1  0  0  0  0
 27 26  1  0  0  0  0
 28 24  1  0  0  0  0
M  END
>  <MODEL>
3

>  <REMARK>
 VINA RESULT:      -6.8      2.359      5.682
  Name = 
  2 active torsions:
  status: ('A' for Active; 'I' for Inactive)
    1  A    between atoms: C_1  and  C_2
    2  A    between atoms: C_2  and  C_3
                            x       y       z     vdW  Elec       q    Type
                         _______ _______ _______ _____ _____    ______ ____

>  <TORSDO>
F 2

$$$$
=
 OpenBabel10272401453D

 28 33  0  0  1  0  0  0  0  0999 V2000
  187.7770  177.8990  141.5200 C   0  0  0  0  0  0  0  0  0  0  0  0
  184.0320  177.3700  141.2070 C   0  0  0  0  0  2  0  0  0  0  0  0
  185.8240  178.7690  145.8230 C   0  0  0  0  0  1  0  0  0  0  0  0
  181.4480  179.0570  142.0210 C   0  0  0  0  0  2  0  0  0  0  0  0
  184.5340  179.5890  142.3790 N   0  0  2  0  0  0  0  0  0  0  0  0
  182.3150  178.3670  139.8420 N   0  0  0  0  0  0  0  0  0  0  0  0
  183.5340  178.6260  141.8890 C   0  0  1  0  0  0  0  0  0  0  0  0
  182.8210  179.4330  144.3750 S   0  0  0  0  0  0  0  0  0  0  0  0
  182.5290  179.2730  140.9680 C   0  0  2  0  0  3  0  0  0  0  0  0
  186.4790  177.8940  143.5850 C   0  0  0  0  0  0  0  0  0  0  0  0
  185.8670  179.5310  141.7660 C   0  0  0  0  0  2  0  0  0  0  0  0
  182.4610  178.3800  142.9320 C   0  0  1  0  0  3  0  0  0  0  0  0
  188.2720  176.2880  143.2640 C   0  0  0  0  0  3  0  0  0  0  0  0
  185.3380  178.3880  144.4340 C   0  0  2  0  0  3  0  0  0  0  0  0
  187.2480  176.8170  144.0470 C   0  0  0  0  0  3  0  0  0  0  0  0
  182.3810  179.1690  138.6340 C   0  0  0  0  0  1  0  0  0  0  0  0
  183.4580  177.4590  139.8090 C   0  0  0  0  0  2  0  0  0  0  0  0
  184.5500  179.5680  143.8410 C   0  0  1  0  0  3  0  0  0  0  0  0
  188.5350  176.8270  142.0060 C   0  0  0  0  0  3  0  0  0  0  0  0
  186.7190  178.4140  142.2990 C   0  0  0  0  0  0  0  0  0  0  0  0
  188.0810  178.4430  140.1500 C   0  0  0  0  0  2  0  0  0  0  0  0
  188.1440  177.3840  139.0240 C   0  0  2  0  0  3  0  0  0  0  0  0
  189.4980  178.3510  136.6430 C   0  0  0  0  0  2  0  0  0  0  0  0
  189.5820  176.9310  138.7190 C   0  0  0  0  0  2  0  0  0  0  0  0
  186.0400  178.1510  138.1110 C   0  0  0  0  0  1  0  0  0  0  0  0
  187.3910  177.7100  137.7950 N   0  0  0  0  0  0  0  0  0  0  0  0
  188.0640  178.7570  137.0230 C   0  0  0  0  0  2  0  0  0  0  0  0
  189.9000  176.9960  137.2260 C   0  0  0  0  0  2  0  0  0  0  0  0
  1 19  2  0  0  0  0
  1 20  1  0  0  0  0
  5 11  1  6  0  0  0
  5 18  1  0  0  0  0
  6  9  1  0  0  0  0
  7  2  1  6  0  0  0
  7  5  1  0  0  0  0
  7 12  1  0  0  0  0
  9  7  1  0  0  0  0
  9  4  1  1  0  0  0
 10 15  1  0  0  0  0
 10 14  1  0  0  0  0
 11 20  1  0  0  0  0
 12  4  1  6  0  0  0
 12  8  1  0  0  0  0
 13 15  2  0  0  0  0
 14  3  1  1  0  0  0
 16  6  1  0  0  0  0
 17  6  1  0  0  0  0
 17  2  1  0  0  0  0
 18  8  1  1  0  0  0
 18 14  1  0  0  0  0
 19 13  1  0  0  0  0
 20 10  2  0  0  0  0
 21  1  1  0  0  0  0
 22 21  1  1  0  0  0
 23 27  1  0  0  0  0
 23 28  1  0  0  0  0
 24 22  1  0  0  0  0
 26 25  1  0  0  0  0
 26 22  1  0  0  0  0
 27 26  1  0  0  0  0
 28 24  1  0  0  0  0
M  END
>  <MODEL>
4

>  <REMARK>
 VINA RESULT:      -6.8      2.660      6.237
  Name = 
  2 active torsions:
  status: ('A' for Active; 'I' for Inactive)
    1  A    between atoms: C_1  and  C_2
    2  A    between atoms: C_2  and  C_3
                            x       y       z     vdW  Elec       q    Type
                         _______ _______ _______ _____ _____    ______ ____

>  <TORSDO>
F 2

$$$$
=
 OpenBabel10272401453D

 28 33  0  0  1  0  0  0  0  0999 V2000
  190.8690  176.6910  140.2170 C   0  0  0  0  0  0  0  0  0  0  0  0
  189.2820  178.1530  137.0960 C   0  0  0  0  0  2  0  0  0  0  0  0
  193.2310  174.9230  136.4240 C   0  0  0  0  0  1  0  0  0  0  0  0
  188.2020  176.9450  134.3470 C   0  0  0  0  0  2  0  0  0  0  0  0
  189.5540  175.6190  136.8660 N   0  0  2  0  0  0  0  0  0  0  0  0
  187.0570  178.0950  136.1730 N   0  0  0  0  0  0  0  0  0  0  0  0
  189.1290  176.8940  136.2690 C   0  0  1  0  0  0  0  0  0  0  0  0
  190.5410  175.4990  134.4260 S   0  0  0  0  0  0  0  0  0  0  0  0
  187.7000  176.8440  135.7820 C   0  0  2  0  0  3  0  0  0  0  0  0
  192.0230  176.3130  138.1020 C   0  0  0  0  0  0  0  0  0  0  0  0
  189.6260  175.5640  138.3310 C   0  0  0  0  0  2  0  0  0  0  0  0
  189.6370  177.0240  134.8460 C   0  0  1  0  0  3  0  0  0  0  0  0
  193.1470  177.4690  139.9190 C   0  0  0  0  0  3  0  0  0  0  0  0
  192.0480  175.8460  136.6700 C   0  0  2  0  0  3  0  0  0  0  0  0
  193.1520  176.9640  138.6200 C   0  0  0  0  0  3  0  0  0  0  0  0
  185.7740  177.7480  136.7570 C   0  0  0  0  0  1  0  0  0  0  0  0
  187.8670  178.6690  137.2450 C   0  0  0  0  0  2  0  0  0  0  0  0
  190.7640  175.1490  136.1920 C   0  0  1  0  0  3  0  0  0  0  0  0
  192.0110  177.3320  140.7130 C   0  0  0  0  0  3  0  0  0  0  0  0
  190.8630  176.2080  138.8910 C   0  0  0  0  0  0  0  0  0  0  0  0
  189.6560  176.5770  141.1010 C   0  0  0  0  0  2  0  0  0  0  0  0
  189.5390  177.6640  142.1950 C   0  0  2  0  0  3  0  0  0  0  0  0
  187.7430  176.9050  144.3490 C   0  0  0  0  0  2  0  0  0  0  0  0
  190.1110  177.2050  143.5470 C   0  0  0  0  0  2  0  0  0  0  0  0
  187.6830  178.7000  141.0430 C   0  0  0  0  0  1  0  0  0  0  0  0
  188.2070  178.2890  142.3370 N   0  0  0  0  0  0  0  0  0  0  0  0
  187.2560  177.3720  142.9670 C   0  0  0  0  0  2  0  0  0  0  0  0
  189.1310  177.4460  144.6960 C   0  0  0  0  0  2  0  0  0  0  0  0
  1 19  1  0  0  0  0
  1 21  1  0  0  0  0
  2 17  1  0  0  0  0
  5 11  1  1  0  0  0
  6 16  1  0  0  0  0
  6 17  1  0  0  0  0
  7  5  1  0  0  0  0
  7  2  1  1  0  0  0
  8 12  1  0  0  0  0
  9  4  1  6  0  0  0
  9  6  1  0  0  0  0
  9  7  1  0  0  0  0
 10 15  2  0  0  0  0
 10 20  1  0  0  0  0
 11 20  1  0  0  0  0
 12  4  1  6  0  0  0
 12  7  1  0  0  0  0
 13 19  2  0  0  0  0
 14  3  1  1  0  0  0
 14 10  1  0  0  0  0
 15 13  1  0  0  0  0
 18  8  1  6  0  0  0
 18 14  1  0  0  0  0
 18  5  1  0  0  0  0
 20  1  2  0  0  0  0
 22 21  1  6  0  0  0
 22 26  1  0  0  0  0
 22 24  1  0  0  0  0
 23 28  1  0  0  0  0
 24 28  1  0  0  0  0
 25 26  1  0  0  0  0
 26 27  1  0  0  0  0
 27 23  1  0  0  0  0
M  END
>  <MODEL>
5

>  <REMARK>
 VINA RESULT:      -6.7      3.599      7.382
  Name = 
  2 active torsions:
  status: ('A' for Active; 'I' for Inactive)
    1  A    between atoms: C_1  and  C_2
    2  A    between atoms: C_2  and  C_3
                            x       y       z     vdW  Elec       q    Type
                         _______ _______ _______ _____ _____    ______ ____

>  <TORSDO>
F 2

$$$$
=
 OpenBabel10272401453D

 28 33  0  0  1  0  0  0  0  0999 V2000
  186.0160  178.3220  142.4020 C   0  0  0  0  0  0  0  0  0  0  0  0
  189.3890  178.7650  144.0830 C   0  0  0  0  0  2  0  0  0  0  0  0
  185.3480  177.8700  147.1400 C   0  0  0  0  0  1  0  0  0  0  0  0
  191.0400  177.1360  146.2740 C   0  0  0  0  0  2  0  0  0  0  0  0
  188.2010  176.6860  144.9820 N   0  0  2  0  0  0  0  0  0  0  0  0
  191.4980  177.6100  143.9210 N   0  0  0  0  0  0  0  0  0  0  0  0
  189.3700  177.5790  145.0220 C   0  0  1  0  0  0  0  0  0  0  0  0
  188.6130  177.0210  147.5630 S   0  0  0  0  0  0  0  0  0  0  0  0
  190.6650  176.8270  144.8290 C   0  0  2  0  0  3  0  0  0  0  0  0
  186.0290  178.5210  144.8330 C   0  0  0  0  0  0  0  0  0  0  0  0
  187.3980  176.6990  143.7530 C   0  0  0  0  0  2  0  0  0  0  0  0
  189.7470  177.9150  146.4520 C   0  0  1  0  0  3  0  0  0  0  0  0
  184.7840  180.1100  143.4840 C   0  0  0  0  0  3  0  0  0  0  0  0
  186.5170  178.1010  146.1950 C   0  0  2  0  0  3  0  0  0  0  0  0
  185.2050  179.6500  144.7300 C   0  0  0  0  0  3  0  0  0  0  0  0
  192.0250  176.6900  142.9300 C   0  0  0  0  0  1  0  0  0  0  0  0
  190.6060  178.5260  143.2140 C   0  0  0  0  0  2  0  0  0  0  0  0
  187.4200  176.8560  146.2060 C   0  0  1  0  0  3  0  0  0  0  0  0
  185.1880  179.4490  142.3250 C   0  0  0  0  0  3  0  0  0  0  0  0
  186.4680  177.8750  143.6620 C   0  0  0  0  0  0  0  0  0  0  0  0
  186.4440  177.6450  141.1280 C   0  0  0  0  0  2  0  0  0  0  0  0
  186.4410  178.5500  139.8730 C   0  0  2  0  0  3  0  0  0  0  0  0
  186.4730  177.0360  137.3940 C   0  0  0  0  0  2  0  0  0  0  0  0
  185.1530  178.4050  139.0440 C   0  0  0  0  0  2  0  0  0  0  0  0
  188.8580  178.6080  139.8430 C   0  0  0  0  0  1  0  0  0  0  0  0
  187.6550  178.4840  139.0330 N   0  0  0  0  0  0  0  0  0  0  0  0
  187.7130  177.2270  138.2840 C   0  0  0  0  0  2  0  0  0  0  0  0
  185.4480  178.1590  137.5640 C   0  0  0  0  0  2  0  0  0  0  0  0
  1 20  1  0  0  0  0
  5 11  1  6  0  0  0
  5  7  1  0  0  0  0
  5 18  1  0  0  0  0
  6  9  1  0  0  0  0
  7  2  1  6  0  0  0
  7 12  1  0  0  0  0
  9  7  1  0  0  0  0
  9  4  1  1  0  0  0
 10 14  1  0  0  0  0
 12  4  1  1  0  0  0
 12  8  1  0  0  0  0
 13 15  2  0  0  0  0
 14 18  1  0  0  0  0
 14  3  1  1  0  0  0
 15 10  1  0  0  0  0
 16  6  1  0  0  0  0
 17  6  1  0  0  0  0
 17  2  1  0  0  0  0
 18  8  1  1  0  0  0
 19  1  2  0  0  0  0
 19 13  1  0  0  0  0
 20 11  1  0  0  0  0
 20 10  2  0  0  0  0
 21  1  1  0  0  0  0
 22 21  1  1  0  0  0
 23 28  1  0  0  0  0
 23 27  1  0  0  0  0
 24 22  1  0  0  0  0
 26 25  1  0  0  0  0
 26 22  1  0  0  0  0
 27 26  1  0  0  0  0
 28 24  1  0  0  0  0
M  END
>  <MODEL>
6

>  <REMARK>
 VINA RESULT:      -6.4      2.061      3.485
  Name = 
  2 active torsions:
  status: ('A' for Active; 'I' for Inactive)
    1  A    between atoms: C_1  and  C_2
    2  A    between atoms: C_2  and  C_3
                            x       y       z     vdW  Elec       q    Type
                         _______ _______ _______ _____ _____    ______ ____

>  <TORSDO>
F 2

$$$$
=
 OpenBabel10272401453D

 28 33  0  0  1  0  0  0  0  0999 V2000
  182.3960  178.7970  141.9240 C   0  0  0  0  0  0  0  0  0  0  0  0
  181.1470  176.6730  139.0380 C   0  0  0  0  0  2  0  0  0  0  0  0
  180.1150  181.7110  138.8580 C   0  0  0  0  0  1  0  0  0  0  0  0
  181.3020  176.8860  135.8580 C   0  0  0  0  0  2  0  0  0  0  0  0
  182.3490  178.7570  138.1680 N   0  0  2  0  0  0  0  0  0  0  0  0
  182.2300  175.2530  137.4210 N   0  0  0  0  0  0  0  0  0  0  0  0
  181.6060  177.5220  137.8720 C   0  0  1  0  0  0  0  0  0  0  0  0
  180.6370  179.5160  136.3140 S   0  0  0  0  0  0  0  0  0  0  0  0
  182.3580  176.6200  136.9240 C   0  0  2  0  0  3  0  0  0  0  0  0
  180.8740  179.8580  140.3400 C   0  0  0  0  0  0  0  0  0  0  0  0
  183.0120  178.8350  139.4760 C   0  0  0  0  0  2  0  0  0  0  0  0
  180.5340  177.7710  136.8280 C   0  0  1  0  0  3  0  0  0  0  0  0
  180.2890  179.7200  142.6930 C   0  0  0  0  0  3  0  0  0  0  0  0
  180.4700  180.2350  138.9390 C   0  0  2  0  0  3  0  0  0  0  0  0
  179.9820  180.1110  141.3910 C   0  0  0  0  0  3  0  0  0  0  0  0
  183.5560  174.6620  137.3830 C   0  0  0  0  0  1  0  0  0  0  0  0
  181.8500  175.3490  138.8280 C   0  0  0  0  0  2  0  0  0  0  0  0
  181.5120  179.9130  137.8540 C   0  0  1  0  0  3  0  0  0  0  0  0
  181.4910  179.0660  142.9570 C   0  0  0  0  0  3  0  0  0  0  0  0
  182.0710  179.1650  140.6000 C   0  0  0  0  0  0  0  0  0  0  0  0
  183.6760  178.0750  142.2470 C   0  0  0  0  0  2  0  0  0  0  0  0
  184.9020  178.9890  142.4830 C   0  0  2  0  0  3  0  0  0  0  0  0
  187.3390  177.4940  142.9990 C   0  0  0  0  0  2  0  0  0  0  0  0
  185.9650  178.8480  141.3810 C   0  0  0  0  0  2  0  0  0  0  0  0
  184.4640  179.0510  144.8610 C   0  0  0  0  0  1  0  0  0  0  0  0
  185.4920  178.9310  143.8370 N   0  0  0  0  0  0  0  0  0  0  0  0
  186.2250  177.6800  144.0420 C   0  0  0  0  0  2  0  0  0  0  0  0
  187.3620  178.6140  141.9570 C   0  0  0  0  0  2  0  0  0  0  0  0
  1 21  1  0  0  0  0
  1 19  1  0  0  0  0
  5 11  1  1  0  0  0
  6 17  1  0  0  0  0
  7  5  1  0  0  0  0
  7  2  1  1  0  0  0
  8 12  1  0  0  0  0
  9  4  1  6  0  0  0
  9  6  1  0  0  0  0
  9  7  1  0  0  0  0
 10 20  1  0  0  0  0
 10 15  2  0  0  0  0
 11 20  1  0  0  0  0
 12  4  1  6  0  0  0
 12  7  1  0  0  0  0
 13 19  2  0  0  0  0
 14  3  1  1  0  0  0
 14 10  1  0  0  0  0
 15 13  1  0  0  0  0
 16  6  1  0  0  0  0
 17  2  1  0  0  0  0
 18  8  1  6  0  0  0
 18  5  1  0  0  0  0
 18 14  1  0  0  0  0
 20  1  2  0  0  0  0
 22 21  1  1  0  0  0
 22 26  1  0  0  0  0
 23 27  1  0  0  0  0
 24 28  1  0  0  0  0
 24 22  1  0  0  0  0
 26 27  1  0  0  0  0
 26 25  1  0  0  0  0
 28 23  1  0  0  0  0
M  END
>  <MODEL>
7

>  <REMARK>
 VINA RESULT:      -5.9      3.791      8.200
  Name = 
  2 active torsions:
  status: ('A' for Active; 'I' for Inactive)
    1  A    between atoms: C_1  and  C_2
    2  A    between atoms: C_2  and  C_3
                            x       y       z     vdW  Elec       q    Type
                         _______ _______ _______ _____ _____    ______ ____

>  <TORSDO>
F 2

$$$$
=
 OpenBabel10272401453D

 28 33  0  0  1  0  0  0  0  0999 V2000
  184.2970  177.0470  137.8560 C   0  0  0  0  0  0  0  0  0  0  0  0
  185.0200  173.3230  137.7700 C   0  0  0  0  0  2  0  0  0  0  0  0
  180.0780  174.7530  137.6780 C   0  0  0  0  0  1  0  0  0  0  0  0
  184.0480  170.8860  135.9540 C   0  0  0  0  0  2  0  0  0  0  0  0
  183.3320  173.9550  135.9540 N   0  0  2  0  0  0  0  0  0  0  0  0
  186.2500  171.8970  136.2670 N   0  0  0  0  0  0  0  0  0  0  0  0
  184.1080  172.9070  136.6360 C   0  0  1  0  0  0  0  0  0  0  0  0
  181.5690  172.0270  136.2970 S   0  0  0  0  0  0  0  0  0  0  0  0
  184.9330  172.0930  135.6680 C   0  0  2  0  0  3  0  0  0  0  0  0
  182.3990  175.5400  138.1280 C   0  0  0  0  0  0  0  0  0  0  0  0
  183.8340  175.3300  136.0640 C   0  0  0  0  0  2  0  0  0  0  0  0
  183.2400  171.7040  136.9490 C   0  0  1  0  0  3  0  0  0  0  0  0
  182.9370  177.1520  139.8620 C   0  0  0  0  0  3  0  0  0  0  0  0
  181.5520  174.3790  137.6750 C   0  0  2  0  0  3  0  0  0  0  0  0
  182.1370  176.1200  139.3770 C   0  0  0  0  0  3  0  0  0  0  0  0
  187.2320  172.1900  135.2390 C   0  0  0  0  0  1  0  0  0  0  0  0
  186.4010  172.9200  137.2990 C   0  0  0  0  0  2  0  0  0  0  0  0
  181.9180  173.8080  136.2950 C   0  0  1  0  0  3  0  0  0  0  0  0
  184.0120  177.6130  139.1040 C   0  0  0  0  0  3  0  0  0  0  0  0
  183.5060  175.9800  137.3790 C   0  0  0  0  0  0  0  0  0  0  0  0
  185.4760  177.5620  137.0750 C   0  0  0  0  0  2  0  0  0  0  0  0
  186.8560  177.0700  137.5730 C   0  0  2  0  0  3  0  0  0  0  0  0
  188.9900  178.9640  137.0260 C   0  0  0  0  0  2  0  0  0  0  0  0
  187.4190  177.9420  138.7080 C   0  0  0  0  0  2  0  0  0  0  0  0
  187.2970  175.9960  135.4520 C   0  0  0  0  0  1  0  0  0  0  0  0
  187.8600  176.8090  136.5200 N   0  0  0  0  0  0  0  0  0  0  0  0
  188.3680  178.0580  135.9510 C   0  0  0  0  0  2  0  0  0  0  0  0
  188.8580  178.3810  138.4340 C   0  0  0  0  0  2  0  0  0  0  0  0
  1 19  1  0  0  0  0
  5 11  1  1  0  0  0
  5 18  1  0  0  0  0
  5  7  1  0  0  0  0
  6 17  1  0  0  0  0
  7 12  1  0  0  0  0
  7  2  1  1  0  0  0
  8 12  1  0  0  0  0
  9  4  1  1  0  0  0
  9  6  1  0  0  0  0
  9  7  1  0  0  0  0
 10 15  2  0  0  0  0
 11 20  1  0  0  0  0
 12  4  1  6  0  0  0
 14  3  1  6  0  0  0
 14 10  1  0  0  0  0
 15 13  1  0  0  0  0
 16  6  1  0  0  0  0
 17  2  1  0  0  0  0
 18  8  1  1  0  0  0
 18 14  1  0  0  0  0
 19 13  2  0  0  0  0
 20  1  2  0  0  0  0
 20 10  1  0  0  0  0
 21  1  1  0  0  0  0
 22 21  1  6  0  0  0
 22 24  1  0  0  0  0
 23 28  1  0  0  0  0
 25 26  1  0  0  0  0
 26 22  1  0  0  0  0
 27 26  1  0  0  0  0
 27 23  1  0  0  0  0
 28 24  1  0  0  0  0
M  END
>  <MODEL>
8

>  <REMARK>
 VINA RESULT:      -5.7      5.692      8.892
  Name = 
  2 active torsions:
  status: ('A' for Active; 'I' for Inactive)
    1  A    between atoms: C_1  and  C_2
    2  A    between atoms: C_2  and  C_3
                            x       y       z     vdW  Elec       q    Type
                         _______ _______ _______ _____ _____    ______ ____

>  <TORSDO>
F 2

$$$$
=
 OpenBabel10272401453D

 28 33  0  0  1  0  0  0  0  0999 V2000
  185.8770  178.6490  140.8180 C   0  0  0  0  0  0  0  0  0  0  0  0
  183.0680  176.3400  139.7310 C   0  0  0  0  0  2  0  0  0  0  0  0
  182.0880  179.5470  143.6350 C   0  0  0  0  0  1  0  0  0  0  0  0
  179.9850  176.7360  139.0120 C   0  0  0  0  0  2  0  0  0  0  0  0
  182.2220  178.7450  139.9550 N   0  0  2  0  0  0  0  0  0  0  0  0
  181.8860  176.0140  137.6570 N   0  0  0  0  0  0  0  0  0  0  0  0
  181.9290  177.3340  139.6570 C   0  0  1  0  0  0  0  0  0  0  0  0
  179.9820  178.3060  141.2710 S   0  0  0  0  0  0  0  0  0  0  0  0
  181.2680  177.1650  138.3110 C   0  0  2  0  0  3  0  0  0  0  0  0
  183.9020  178.5520  142.2460 C   0  0  0  0  0  0  0  0  0  0  0  0
  183.6190  179.1750  139.8190 C   0  0  0  0  0  2  0  0  0  0  0  0
  180.6660  176.8810  140.3640 C   0  0  1  0  0  3  0  0  0  0  0  0
  186.0850  177.9730  143.1380 C   0  0  0  0  0  3  0  0  0  0  0  0
  182.4130  178.6400  142.4580 C   0  0  2  0  0  3  0  0  0  0  0  0
  184.7110  178.1300  143.3100 C   0  0  0  0  0  3  0  0  0  0  0  0
  182.1900  176.4130  136.2950 C   0  0  0  0  0  1  0  0  0  0  0  0
  183.1640  175.7860  138.3260 C   0  0  0  0  0  2  0  0  0  0  0  0
  181.6100  179.1070  141.2320 C   0  0  1  0  0  3  0  0  0  0  0  0
  186.6650  178.2310  141.8980 C   0  0  0  0  0  3  0  0  0  0  0  0
  184.4810  178.7770  140.9840 C   0  0  0  0  0  0  0  0  0  0  0  0
  186.5380  178.9030  139.4900 C   0  0  0  0  0  2  0  0  0  0  0  0
  187.3750  177.7240  138.9400 C   0  0  2  0  0  3  0  0  0  0  0  0
  189.3510  178.5640  136.9830 C   0  0  0  0  0  2  0  0  0  0  0  0
  188.8580  177.8180  139.3360 C   0  0  0  0  0  2  0  0  0  0  0  0
  185.7890  177.3640  137.1500 C   0  0  0  0  0  1  0  0  0  0  0  0
  187.2000  177.4310  137.5020 N   0  0  0  0  0  0  0  0  0  0  0  0
  187.8490  178.4470  136.6710 C   0  0  0  0  0  2  0  0  0  0  0  0
  189.7860  177.6530  138.1320 C   0  0  0  0  0  2  0  0  0  0  0  0
  1 20  2  0  0  0  0
  1 19  1  0  0  0  0
  5 11  1  1  0  0  0
  5 18  1  0  0  0  0
  6  9  1  0  0  0  0
  6 17  1  0  0  0  0
  7  2  1  1  0  0  0
  7  5  1  0  0  0  0
  7 12  1  0  0  0  0
  9  4  1  1  0  0  0
  9  7  1  0  0  0  0
 10 14  1  0  0  0  0
 10 15  2  0  0  0  0
 11 20  1  0  0  0  0
 12  4  1  6  0  0  0
 12  8  1  0  0  0  0
 13 15  1  0  0  0  0
 14  3  1  1  0  0  0
 16  6  1  0  0  0  0
 17  2  1  0  0  0  0
 18  8  1  1  0  0  0
 18 14  1  0  0  0  0
 19 13  2  0  0  0  0
 20 10  1  0  0  0  0
 21  1  1  0  0  0  0
 22 24  1  0  0  0  0
 22 21  1  6  0  0  0
 23 28  1  0  0  0  0
 25 26  1  0  0  0  0
 26 22  1  0  0  0  0
 27 23  1  0  0  0  0
 27 26  1  0  0  0  0
 28 24  1  0  0  0  0
M  END
>  <MODEL>
9

>  <REMARK>
 VINA RESULT:      -5.7      3.656      7.381
  Name = 
  2 active torsions:
  status: ('A' for Active; 'I' for Inactive)
    1  A    between atoms: C_1  and  C_2
    2  A    between atoms: C_2  and  C_3
                            x       y       z     vdW  Elec       q    Type
                         _______ _______ _______ _____ _____    ______ ____

>  <TORSDO>
F 2

$$$$
