=
 OpenBabel10272401483D

 28 31  0  0  1  0  0  0  0  0999 V2000
  188.0500  177.8600  139.0640 C   0  0  1  0  0  3  0  0  0  0  0  0
  184.5020  178.7740  138.9520 C   0  0  0  0  0  2  0  0  0  0  0  0
  186.5910  178.0820  138.7890 C   0  0  0  0  0  0  0  0  0  0  0  0
  184.6850  177.8420  137.7990 C   0  0  0  0  0  3  0  0  0  0  0  0
  185.8390  178.8370  139.5170 N   0  0  0  0  0  0  0  0  0  0  0  0
  185.9090  177.4490  137.7200 N   0  0  0  0  0  0  0  0  0  0  0  0
  188.9220  178.4890  138.0150 C   0  0  0  0  0  0  0  0  0  0  0  0
  189.8790  177.7130  137.2840 N   0  0  0  0  0  2  0  0  0  0  0  0
  188.8900  179.7370  137.8390 O   0  0  0  0  0  0  0  0  0  0  0  0
  189.9440  176.2830  137.2400 C   0  0  0  0  0  0  0  0  0  0  0  0
  189.6390  174.1530  136.4870 N   0  0  0  0  0  0  0  0  0  0  0  0
  191.2160  175.3810  138.1030 S   0  0  0  0  0  0  0  0  0  0  0  0
  188.2890  176.0230  135.3990 C   0  0  0  0  0  1  0  0  0  0  0  0
  189.2540  175.5160  136.4210 C   0  0  0  0  0  0  0  0  0  0  0  0
  188.9960  173.1090  135.7070 C   0  0  0  0  0  1  0  0  0  0  0  0
  190.6970  173.8460  137.3580 N   0  0  0  0  0  2  0  0  0  0  0  0
  188.4500  178.3460  140.4610 C   0  0  0  0  0  2  0  0  0  0  0  0
  186.5680  177.8740  142.7950 C   0  0  0  0  0  3  0  0  0  0  0  0
  188.5850  177.3180  144.0250 C   0  0  0  0  0  0  0  0  0  0  0  0
  188.6060  177.2040  141.4730 C   0  0  2  0  0  3  0  0  0  0  0  0
  186.5790  177.9750  145.2130 C   0  0  0  0  0  0  0  0  0  0  0  0
  187.9200  177.5020  142.7930 C   0  0  0  0  0  0  0  0  0  0  0  0
  190.3450  176.0010  142.8720 C   0  0  0  0  0  2  0  0  0  0  0  0
  187.9170  177.5750  145.2240 C   0  0  0  0  0  3  0  0  0  0  0  0
  190.0160  176.8770  144.0730 C   0  0  0  0  0  2  0  0  0  0  0  0
  185.8730  178.2450  146.4910 C   0  0  0  0  0  1  0  0  0  0  0  0
  185.9010  178.1120  144.0000 C   0  0  0  0  0  3  0  0  0  0  0  0
  190.0800  176.7880  141.5980 C   0  0  0  0  0  2  0  0  0  0  0  0
  1 17  1  1  0  0  0
  2  5  1  0  0  0  0
  3  1  1  0  0  0  0
  3  5  2  0  0  0  0
  4  2  1  0  0  0  0
  6  4  2  0  0  0  0
  6  3  1  0  0  0  0
  7  1  1  0  0  0  0
  8  7  1  0  0  0  0
  9  7  2  0  0  0  0
 10  8  1  0  0  0  0
 10 12  1  0  0  0  0
 11 16  1  0  0  0  0
 13 14  1  0  0  0  0
 14 11  1  0  0  0  0
 14 10  2  0  0  0  0
 15 11  1  0  0  0  0
 16 12  1  0  0  0  0
 18 27  1  0  0  0  0
 19 25  1  0  0  0  0
 19 24  2  0  0  0  0
 20 17  1  6  0  0  0
 20 28  1  0  0  0  0
 20 22  1  0  0  0  0
 21 24  1  0  0  0  0
 21 26  1  0  0  0  0
 22 18  2  0  0  0  0
 22 19  1  0  0  0  0
 23 25  1  0  0  0  0
 27 21  2  0  0  0  0
 28 23  1  0  0  0  0
M  END
>  <MODEL>
1

>  <REMARK>
 VINA RESULT:      -8.5      0.000      0.000
  Name = 
  5 active torsions:
  status: ('A' for Active; 'I' for Inactive)
    1  A    between atoms: C_1  and  C_27
    2  A    between atoms: N_2  and  C_3
    3  A    between atoms: C_10  and  C_17
    4  A    between atoms: C_16  and  C_27
    5  A    between atoms: C_17  and  C_27
                            x       y       z     vdW  Elec       q    Type
                         _______ _______ _______ _____ _____    ______ ____

>  <TORSDO>
F 5

$$$$
=
 OpenBabel10272401483D

 28 31  0  0  1  0  0  0  0  0999 V2000
  187.9610  177.9600  138.9330 C   0  0  1  0  0  3  0  0  0  0  0  0
  184.4240  178.0730  137.9740 C   0  0  0  0  0  2  0  0  0  0  0  0
  186.4830  178.1610  138.7660 C   0  0  0  0  0  0  0  0  0  0  0  0
  184.5130  178.9500  139.1800 C   0  0  0  0  0  3  0  0  0  0  0  0
  185.7970  177.6250  137.8130 N   0  0  0  0  0  0  0  0  0  0  0  0
  185.7210  178.9890  139.6280 N   0  0  0  0  0  0  0  0  0  0  0  0
  188.7470  178.6390  137.8490 C   0  0  0  0  0  0  0  0  0  0  0  0
  189.2780  177.8990  136.7430 N   0  0  0  0  0  2  0  0  0  0  0  0
  189.0360  179.8620  137.9560 O   0  0  0  0  0  0  0  0  0  0  0  0
  188.9240  176.5590  136.3810 C   0  0  0  0  0  0  0  0  0  0  0  0
  188.7910  174.2850  136.4750 N   0  0  0  0  0  0  0  0  0  0  0  0
  187.4960  176.2130  135.3720 S   0  0  0  0  0  0  0  0  0  0  0  0
  190.4920  175.4590  137.9700 C   0  0  0  0  0  1  0  0  0  0  0  0
  189.4450  175.4680  136.9040 C   0  0  0  0  0  0  0  0  0  0  0  0
  189.2090  172.9550  136.8850 C   0  0  0  0  0  1  0  0  0  0  0  0
  187.6930  174.4570  135.6160 N   0  0  0  0  0  2  0  0  0  0  0  0
  188.4480  178.4080  140.3150 C   0  0  0  0  0  2  0  0  0  0  0  0
  186.5950  177.8720  142.6590 C   0  0  0  0  0  3  0  0  0  0  0  0
  188.6290  177.2980  143.8520 C   0  0  0  0  0  0  0  0  0  0  0  0
  188.6210  177.2440  141.2990 C   0  0  2  0  0  3  0  0  0  0  0  0
  186.6330  177.9170  145.0780 C   0  0  0  0  0  0  0  0  0  0  0  0
  187.9480  177.5070  142.6320 C   0  0  0  0  0  0  0  0  0  0  0  0
  190.3810  176.0180  142.6490 C   0  0  0  0  0  2  0  0  0  0  0  0
  187.9730  177.5240  145.0650 C   0  0  0  0  0  3  0  0  0  0  0  0
  190.0620  176.8640  143.8740 C   0  0  0  0  0  2  0  0  0  0  0  0
  185.9400  178.1540  146.3700 C   0  0  0  0  0  1  0  0  0  0  0  0
  185.9410  178.0790  143.8760 C   0  0  0  0  0  3  0  0  0  0  0  0
  190.0970  176.8320  141.3970 C   0  0  0  0  0  2  0  0  0  0  0  0
  1 17  1  1  0  0  0
  2  4  1  0  0  0  0
  3  1  1  0  0  0  0
  3  6  1  0  0  0  0
  4  6  2  0  0  0  0
  5  2  1  0  0  0  0
  5  3  2  0  0  0  0
  7  9  2  0  0  0  0
  7  1  1  0  0  0  0
  8  7  1  0  0  0  0
 10  8  1  0  0  0  0
 10 14  2  0  0  0  0
 11 15  1  0  0  0  0
 11 14  1  0  0  0  0
 12 16  1  0  0  0  0
 12 10  1  0  0  0  0
 14 13  1  0  0  0  0
 16 11  1  0  0  0  0
 18 27  1  0  0  0  0
 19 25  1  0  0  0  0
 19 24  2  0  0  0  0
 20 17  1  6  0  0  0
 20 28  1  0  0  0  0
 20 22  1  0  0  0  0
 21 26  1  0  0  0  0
 22 18  2  0  0  0  0
 22 19  1  0  0  0  0
 23 25  1  0  0  0  0
 24 21  1  0  0  0  0
 27 21  2  0  0  0  0
 28 23  1  0  0  0  0
M  END
>  <MODEL>
2

>  <REMARK>
 VINA RESULT:      -7.9      1.092      1.545
  Name = 
  5 active torsions:
  status: ('A' for Active; 'I' for Inactive)
    1  A    between atoms: C_1  and  C_27
    2  A    between atoms: N_2  and  C_3
    3  A    between atoms: C_10  and  C_17
    4  A    between atoms: C_16  and  C_27
    5  A    between atoms: C_17  and  C_27
                            x       y       z     vdW  Elec       q    Type
                         _______ _______ _______ _____ _____    ______ ____

>  <TORSDO>
F 5

$$$$
=
 OpenBabel10272401483D

 28 31  0  0  1  0  0  0  0  0999 V2000
  184.7850  178.5140  140.4080 C   0  0  1  0  0  3  0  0  0  0  0  0
  181.2660  178.3640  141.4240 C   0  0  0  0  0  2  0  0  0  0  0  0
  183.4390  178.5190  141.0730 C   0  0  0  0  0  0  0  0  0  0  0  0
  181.9910  178.8060  142.6520 C   0  0  0  0  0  3  0  0  0  0  0  0
  182.3440  178.2180  140.4610 N   0  0  0  0  0  0  0  0  0  0  0  0
  183.2570  178.8910  142.4280 N   0  0  0  0  0  0  0  0  0  0  0  0
  184.7740  179.2740  139.1120 C   0  0  0  0  0  0  0  0  0  0  0  0
  185.3270  178.7090  137.9170 N   0  0  0  0  0  2  0  0  0  0  0  0
  184.3670  180.4660  139.0870 O   0  0  0  0  0  0  0  0  0  0  0  0
  185.6840  177.3350  137.7230 C   0  0  0  0  0  0  0  0  0  0  0  0
  185.4860  175.1370  137.1530 N   0  0  0  0  0  0  0  0  0  0  0  0
  187.3820  176.8330  137.5220 S   0  0  0  0  0  0  0  0  0  0  0  0
  183.3620  176.5400  137.3090 C   0  0  0  0  0  1  0  0  0  0  0  0
  184.8370  176.3610  137.4560 C   0  0  0  0  0  0  0  0  0  0  0  0
  184.7640  173.9090  136.8640 C   0  0  0  0  0  1  0  0  0  0  0  0
  186.8900  175.1610  137.1420 N   0  0  0  0  0  2  0  0  0  0  0  0
  185.8840  179.0420  141.3340 C   0  0  0  0  0  2  0  0  0  0  0  0
  186.1770  177.6740  144.0280 C   0  0  0  0  0  3  0  0  0  0  0  0
  188.5620  177.9030  143.6390 C   0  0  0  0  0  0  0  0  0  0  0  0
  186.9570  177.9940  141.6540 C   0  0  2  0  0  3  0  0  0  0  0  0
  187.7200  177.5940  145.8900 C   0  0  0  0  0  0  0  0  0  0  0  0
  187.2400  177.8880  143.1400 C   0  0  0  0  0  0  0  0  0  0  0  0
  189.4270  177.5090  141.3470 C   0  0  0  0  0  2  0  0  0  0  0  0
  188.7910  177.7770  145.0120 C   0  0  0  0  0  3  0  0  0  0  0  0
  189.7320  178.0840  142.7230 C   0  0  0  0  0  2  0  0  0  0  0  0
  187.9700  177.4590  147.3480 C   0  0  0  0  0  1  0  0  0  0  0  0
  186.4150  177.5300  145.3970 C   0  0  0  0  0  3  0  0  0  0  0  0
  188.2020  178.2090  140.7790 C   0  0  0  0  0  2  0  0  0  0  0  0
  1  3  1  0  0  0  0
  1 17  1  1  0  0  0
  2  4  1  0  0  0  0
  3  6  1  0  0  0  0
  5  3  2  0  0  0  0
  5  2  1  0  0  0  0
  6  4  2  0  0  0  0
  7  1  1  0  0  0  0
  8  7  1  0  0  0  0
  9  7  2  0  0  0  0
 10  8  1  0  0  0  0
 11 14  1  0  0  0  0
 12 10  1  0  0  0  0
 13 14  1  0  0  0  0
 14 10  2  0  0  0  0
 15 11  1  0  0  0  0
 16 11  1  0  0  0  0
 16 12  1  0  0  0  0
 18 27  1  0  0  0  0
 19 24  2  0  0  0  0
 20 17  1  1  0  0  0
 20 22  1  0  0  0  0
 21 26  1  0  0  0  0
 22 19  1  0  0  0  0
 22 18  2  0  0  0  0
 23 25  1  0  0  0  0
 24 21  1  0  0  0  0
 25 19  1  0  0  0  0
 27 21  2  0  0  0  0
 28 23  1  0  0  0  0
 28 20  1  0  0  0  0
M  END
>  <MODEL>
3

>  <REMARK>
 VINA RESULT:      -7.7      2.575      3.617
  Name = 
  5 active torsions:
  status: ('A' for Active; 'I' for Inactive)
    1  A    between atoms: C_1  and  C_27
    2  A    between atoms: N_2  and  C_3
    3  A    between atoms: C_10  and  C_17
    4  A    between atoms: C_16  and  C_27
    5  A    between atoms: C_17  and  C_27
                            x       y       z     vdW  Elec       q    Type
                         _______ _______ _______ _____ _____    ______ ____

>  <TORSDO>
F 5

$$$$
=
 OpenBabel10272401483D

 28 31  0  0  1  0  0  0  0  0999 V2000
  184.4680  178.5420  140.4670 C   0  0  1  0  0  3  0  0  0  0  0  0
  181.0930  178.6970  141.8890 C   0  0  0  0  0  2  0  0  0  0  0  0
  183.2170  178.6300  141.2900 C   0  0  0  0  0  0  0  0  0  0  0  0
  182.0010  178.9020  143.0570 C   0  0  0  0  0  3  0  0  0  0  0  0
  182.0300  178.5370  140.7900 N   0  0  0  0  0  0  0  0  0  0  0  0
  183.2350  178.8600  142.6880 N   0  0  0  0  0  0  0  0  0  0  0  0
  184.3240  179.2420  139.1460 C   0  0  0  0  0  0  0  0  0  0  0  0
  184.4050  178.5200  137.9110 N   0  0  0  0  0  2  0  0  0  0  0  0
  184.2290  180.4990  139.1090 O   0  0  0  0  0  0  0  0  0  0  0  0
  184.3530  177.0960  137.7640 C   0  0  0  0  0  0  0  0  0  0  0  0
  185.0700  174.9440  137.5330 N   0  0  0  0  0  0  0  0  0  0  0  0
  182.9370  176.1560  138.3000 S   0  0  0  0  0  0  0  0  0  0  0  0
  186.7590  176.8240  137.1900 C   0  0  0  0  0  1  0  0  0  0  0  0
  185.3740  176.3270  137.4460 C   0  0  0  0  0  0  0  0  0  0  0  0
  186.0220  173.9010  137.1940 C   0  0  0  0  0  1  0  0  0  0  0  0
  183.7770  174.6170  137.9740 N   0  0  0  0  0  2  0  0  0  0  0  0
  185.6910  179.0680  141.2250 C   0  0  0  0  0  2  0  0  0  0  0  0
  186.2120  177.6520  143.8600 C   0  0  0  0  0  3  0  0  0  0  0  0
  188.5540  177.8630  143.2580 C   0  0  0  0  0  0  0  0  0  0  0  0
  186.7760  178.0030  141.4290 C   0  0  2  0  0  3  0  0  0  0  0  0
  187.9180  177.5260  145.5710 C   0  0  0  0  0  0  0  0  0  0  0  0
  187.1930  177.8700  142.8810 C   0  0  0  0  0  0  0  0  0  0  0  0
  189.2020  177.4960  140.8900 C   0  0  0  0  0  2  0  0  0  0  0  0
  188.9060  177.7120  144.6010 C   0  0  0  0  0  3  0  0  0  0  0  0
  189.6380  178.0460  142.2410 C   0  0  0  0  0  2  0  0  0  0  0  0
  188.2980  177.3640  146.9980 C   0  0  0  0  0  1  0  0  0  0  0  0
  186.5730  177.4840  145.1990 C   0  0  0  0  0  3  0  0  0  0  0  0
  187.9380  178.2180  140.4470 C   0  0  0  0  0  2  0  0  0  0  0  0
  1 17  1  1  0  0  0
  1  3  1  0  0  0  0
  2  4  1  0  0  0  0
  3  6  1  0  0  0  0
  5  3  2  0  0  0  0
  5  2  1  0  0  0  0
  6  4  2  0  0  0  0
  7  1  1  0  0  0  0
  8  7  1  0  0  0  0
  9  7  2  0  0  0  0
 10  8  1  0  0  0  0
 10 12  1  0  0  0  0
 11 16  1  0  0  0  0
 13 14  1  0  0  0  0
 14 11  1  0  0  0  0
 14 10  2  0  0  0  0
 15 11  1  0  0  0  0
 16 12  1  0  0  0  0
 18 27  1  0  0  0  0
 19 24  2  0  0  0  0
 20 17  1  1  0  0  0
 20 22  1  0  0  0  0
 21 26  1  0  0  0  0
 22 19  1  0  0  0  0
 22 18  2  0  0  0  0
 23 25  1  0  0  0  0
 24 21  1  0  0  0  0
 25 19  1  0  0  0  0
 27 21  2  0  0  0  0
 28 23  1  0  0  0  0
 28 20  1  0  0  0  0
M  END
>  <MODEL>
4

>  <REMARK>
 VINA RESULT:      -7.6      3.011      4.112
  Name = 
  5 active torsions:
  status: ('A' for Active; 'I' for Inactive)
    1  A    between atoms: C_1  and  C_27
    2  A    between atoms: N_2  and  C_3
    3  A    between atoms: C_10  and  C_17
    4  A    between atoms: C_16  and  C_27
    5  A    between atoms: C_17  and  C_27
                            x       y       z     vdW  Elec       q    Type
                         _______ _______ _______ _____ _____    ______ ____

>  <TORSDO>
F 5

$$$$
=
 OpenBabel10272401483D

 28 31  0  0  1  0  0  0  0  0999 V2000
  185.6310  177.9380  142.0190 C   0  0  1  0  0  3  0  0  0  0  0  0
  182.1350  178.4190  141.0270 C   0  0  0  0  0  2  0  0  0  0  0  0
  184.1600  178.1950  141.8780 C   0  0  0  0  0  0  0  0  0  0  0  0
  182.1680  178.7880  142.4740 C   0  0  0  0  0  3  0  0  0  0  0  0
  183.5170  178.0540  140.7680 N   0  0  0  0  0  0  0  0  0  0  0  0
  183.3560  178.6510  142.9530 N   0  0  0  0  0  0  0  0  0  0  0  0
  186.4400  179.1920  141.8500 C   0  0  0  0  0  0  0  0  0  0  0  0
  187.7130  179.1700  141.1920 N   0  0  0  0  0  2  0  0  0  0  0  0
  186.0500  180.2660  142.3810 O   0  0  0  0  0  0  0  0  0  0  0  0
  188.2340  178.0930  140.4040 C   0  0  0  0  0  0  0  0  0  0  0  0
  188.5990  176.7480  138.6000 N   0  0  0  0  0  0  0  0  0  0  0  0
  189.7660  177.2870  140.8260 S   0  0  0  0  0  0  0  0  0  0  0  0
  186.6700  178.4140  138.4950 C   0  0  0  0  0  1  0  0  0  0  0  0
  187.7920  177.7390  139.2140 C   0  0  0  0  0  0  0  0  0  0  0  0
  188.2920  176.1700  137.3030 C   0  0  0  0  0  1  0  0  0  0  0  0
  189.7370  176.3400  139.3140 N   0  0  0  0  0  2  0  0  0  0  0  0
  185.9690  177.2520  143.3460 C   0  0  0  0  0  2  0  0  0  0  0  0
  188.8610  177.4290  144.2530 C   0  0  0  0  0  3  0  0  0  0  0  0
  187.9180  177.7410  146.4680 C   0  0  0  0  0  0  0  0  0  0  0  0
  186.4760  178.2280  144.4150 C   0  0  2  0  0  3  0  0  0  0  0  0
  190.2020  176.9730  146.2150 C   0  0  0  0  0  0  0  0  0  0  0  0
  187.7650  177.7590  145.0630 C   0  0  0  0  0  0  0  0  0  0  0  0
  185.8970  179.1630  146.7000 C   0  0  0  0  0  2  0  0  0  0  0  0
  189.1270  177.3290  147.0330 C   0  0  0  0  0  3  0  0  0  0  0  0
  186.7890  178.1290  147.3730 C   0  0  0  0  0  2  0  0  0  0  0  0
  191.4860  176.5380  146.8220 C   0  0  0  0  0  1  0  0  0  0  0  0
  190.0720  177.0350  144.8260 C   0  0  0  0  0  3  0  0  0  0  0  0
  185.3540  178.5800  145.4040 C   0  0  0  0  0  2  0  0  0  0  0  0
  1 17  1  1  0  0  0
  2  4  1  0  0  0  0
  3  1  1  0  0  0  0
  3  6  1  0  0  0  0
  4  6  2  0  0  0  0
  5  2  1  0  0  0  0
  5  3  2  0  0  0  0
  7  1  1  0  0  0  0
  7  9  2  0  0  0  0
  8  7  1  0  0  0  0
 10 12  1  0  0  0  0
 10  8  1  0  0  0  0
 11 14  1  0  0  0  0
 11 16  1  0  0  0  0
 13 14  1  0  0  0  0
 14 10  2  0  0  0  0
 15 11  1  0  0  0  0
 16 12  1  0  0  0  0
 18 27  2  0  0  0  0
 18 22  1  0  0  0  0
 19 24  1  0  0  0  0
 19 25  1  0  0  0  0
 20 17  1  6  0  0  0
 20 22  1  0  0  0  0
 20 28  1  0  0  0  0
 21 26  1  0  0  0  0
 21 24  2  0  0  0  0
 22 19  2  0  0  0  0
 23 25  1  0  0  0  0
 27 21  1  0  0  0  0
 28 23  1  0  0  0  0
M  END
>  <MODEL>
5

>  <REMARK>
 VINA RESULT:      -7.3      2.329      4.279
  Name = 
  5 active torsions:
  status: ('A' for Active; 'I' for Inactive)
    1  A    between atoms: C_1  and  C_27
    2  A    between atoms: N_2  and  C_3
    3  A    between atoms: C_10  and  C_17
    4  A    between atoms: C_16  and  C_27
    5  A    between atoms: C_17  and  C_27
                            x       y       z     vdW  Elec       q    Type
                         _______ _______ _______ _____ _____    ______ ____

>  <TORSDO>
F 5

$$$$
=
 OpenBabel10272401483D

 28 31  0  0  1  0  0  0  0  0999 V2000
  184.9170  178.4420  140.0840 C   0  0  1  0  0  3  0  0  0  0  0  0
  181.5370  178.2640  141.4930 C   0  0  0  0  0  2  0  0  0  0  0  0
  183.4830  178.1960  140.4530 C   0  0  0  0  0  0  0  0  0  0  0  0
  181.5180  177.3010  140.3520 C   0  0  0  0  0  3  0  0  0  0  0  0
  182.8960  178.7770  141.4450 N   0  0  0  0  0  0  0  0  0  0  0  0
  182.6610  177.2740  139.7580 N   0  0  0  0  0  0  0  0  0  0  0  0
  185.0450  179.3750  138.9140 C   0  0  0  0  0  0  0  0  0  0  0  0
  185.9310  179.0820  137.8260 N   0  0  0  0  0  2  0  0  0  0  0  0
  184.4450  180.4830  138.9270 O   0  0  0  0  0  0  0  0  0  0  0  0
  186.5610  177.8210  137.5710 C   0  0  0  0  0  0  0  0  0  0  0  0
  188.1360  176.1740  137.6080 N   0  0  0  0  0  0  0  0  0  0  0  0
  185.6080  176.3660  137.1820 S   0  0  0  0  0  0  0  0  0  0  0  0
  188.8130  178.5100  138.3750 C   0  0  0  0  0  1  0  0  0  0  0  0
  187.8280  177.5440  137.8020 C   0  0  0  0  0  0  0  0  0  0  0  0
  189.4760  175.6330  137.7640 C   0  0  0  0  0  1  0  0  0  0  0  0
  187.0650  175.3380  137.2510 N   0  0  0  0  0  2  0  0  0  0  0  0
  185.7350  178.9530  141.2740 C   0  0  0  0  0  2  0  0  0  0  0  0
  185.0300  178.3950  144.1740 C   0  0  0  0  0  3  0  0  0  0  0  0
  187.4000  177.9450  144.4350 C   0  0  0  0  0  0  0  0  0  0  0  0
  186.3540  177.8240  142.1070 C   0  0  2  0  0  3  0  0  0  0  0  0
  186.0480  178.5050  146.3660 C   0  0  0  0  0  0  0  0  0  0  0  0
  186.2720  178.0910  143.5980 C   0  0  0  0  0  0  0  0  0  0  0  0
  188.5740  176.7140  142.6270 C   0  0  0  0  0  2  0  0  0  0  0  0
  187.2850  178.1730  145.8080 C   0  0  0  0  0  3  0  0  0  0  0  0
  188.7380  177.5770  143.8710 C   0  0  0  0  0  2  0  0  0  0  0  0
  185.9320  178.7440  147.8270 C   0  0  0  0  0  1  0  0  0  0  0  0
  184.9190  178.6040  145.5500 C   0  0  0  0  0  3  0  0  0  0  0  0
  187.7620  177.4820  141.5960 C   0  0  0  0  0  2  0  0  0  0  0  0
  1  3  1  0  0  0  0
  1 17  1  1  0  0  0
  3  5  2  0  0  0  0
  4  2  1  0  0  0  0
  5  2  1  0  0  0  0
  6  4  2  0  0  0  0
  6  3  1  0  0  0  0
  7  9  2  0  0  0  0
  7  1  1  0  0  0  0
  8  7  1  0  0  0  0
 10 14  2  0  0  0  0
 10  8  1  0  0  0  0
 11 15  1  0  0  0  0
 11 14  1  0  0  0  0
 12 16  1  0  0  0  0
 12 10  1  0  0  0  0
 14 13  1  0  0  0  0
 16 11  1  0  0  0  0
 18 27  1  0  0  0  0
 19 24  2  0  0  0  0
 20 17  1  6  0  0  0
 20 22  1  0  0  0  0
 21 26  1  0  0  0  0
 22 18  2  0  0  0  0
 22 19  1  0  0  0  0
 23 25  1  0  0  0  0
 24 21  1  0  0  0  0
 25 19  1  0  0  0  0
 27 21  2  0  0  0  0
 28 20  1  0  0  0  0
 28 23  1  0  0  0  0
M  END
>  <MODEL>
6

>  <REMARK>
 VINA RESULT:      -7.1      2.288      3.208
  Name = 
  5 active torsions:
  status: ('A' for Active; 'I' for Inactive)
    1  A    between atoms: C_1  and  C_27
    2  A    between atoms: N_2  and  C_3
    3  A    between atoms: C_10  and  C_17
    4  A    between atoms: C_16  and  C_27
    5  A    between atoms: C_17  and  C_27
                            x       y       z     vdW  Elec       q    Type
                         _______ _______ _______ _____ _____    ______ ____

>  <TORSDO>
F 5

$$$$
=
 OpenBabel10272401483D

 28 31  0  0  1  0  0  0  0  0999 V2000
  186.8660  178.0090  138.5260 C   0  0  1  0  0  3  0  0  0  0  0  0
  183.6210  179.5690  139.2190 C   0  0  0  0  0  2  0  0  0  0  0  0
  185.4400  178.4660  138.6270 C   0  0  0  0  0  0  0  0  0  0  0  0
  183.3070  178.4550  138.2750 C   0  0  0  0  0  3  0  0  0  0  0  0
  185.0620  179.4550  139.3660 N   0  0  0  0  0  0  0  0  0  0  0  0
  184.3790  177.8230  137.9410 N   0  0  0  0  0  0  0  0  0  0  0  0
  187.4780  178.3670  137.2030 C   0  0  0  0  0  0  0  0  0  0  0  0
  187.8800  177.3530  136.2730 N   0  0  0  0  0  2  0  0  0  0  0  0
  187.7410  179.5710  136.9380 O   0  0  0  0  0  0  0  0  0  0  0  0
  187.5220  175.9670  136.3340 C   0  0  0  0  0  0  0  0  0  0  0  0
  186.4790  174.0050  135.8250 N   0  0  0  0  0  0  0  0  0  0  0  0
  188.6270  174.7510  137.0240 S   0  0  0  0  0  0  0  0  0  0  0  0
  185.5340  176.1650  134.8500 C   0  0  0  0  0  1  0  0  0  0  0  0
  186.4940  175.4190  135.7190 C   0  0  0  0  0  0  0  0  0  0  0  0
  185.4240  173.1800  135.2620 C   0  0  0  0  0  1  0  0  0  0  0  0
  187.5540  173.4200  136.5140 N   0  0  0  0  0  2  0  0  0  0  0  0
  187.7210  178.5430  139.6790 C   0  0  0  0  0  2  0  0  0  0  0  0
  187.5730  177.4570  142.5100 C   0  0  0  0  0  3  0  0  0  0  0  0
  189.9980  177.5530  142.4390 C   0  0  0  0  0  0  0  0  0  0  0  0
  188.6850  177.4940  140.2490 C   0  0  2  0  0  3  0  0  0  0  0  0
  188.8440  177.5160  144.5690 C   0  0  0  0  0  0  0  0  0  0  0  0
  188.7580  177.5350  141.7630 C   0  0  0  0  0  0  0  0  0  0  0  0
  191.1450  176.8860  140.3420 C   0  0  0  0  0  2  0  0  0  0  0  0
  190.0310  177.5640  143.8360 C   0  0  0  0  0  3  0  0  0  0  0  0
  191.2900  177.5910  141.6830 C   0  0  0  0  0  2  0  0  0  0  0  0
  188.8850  177.5260  146.0540 C   0  0  0  0  0  1  0  0  0  0  0  0
  187.6160  177.4500  143.9060 C   0  0  0  0  0  3  0  0  0  0  0  0
  190.0460  177.5670  139.5400 C   0  0  0  0  0  2  0  0  0  0  0  0
  1  3  1  0  0  0  0
  1 17  1  1  0  0  0
  2  5  1  0  0  0  0
  3  5  2  0  0  0  0
  4  2  1  0  0  0  0
  6  4  2  0  0  0  0
  6  3  1  0  0  0  0
  7  1  1  0  0  0  0
  8 10  1  0  0  0  0
  8  7  1  0  0  0  0
  9  7  2  0  0  0  0
 10 12  1  0  0  0  0
 11 16  1  0  0  0  0
 13 14  1  0  0  0  0
 14 11  1  0  0  0  0
 14 10  2  0  0  0  0
 15 11  1  0  0  0  0
 16 12  1  0  0  0  0
 18 27  1  0  0  0  0
 19 24  2  0  0  0  0
 20 17  1  6  0  0  0
 20 22  1  0  0  0  0
 21 26  1  0  0  0  0
 22 19  1  0  0  0  0
 22 18  2  0  0  0  0
 23 25  1  0  0  0  0
 24 21  1  0  0  0  0
 25 19  1  0  0  0  0
 27 21  2  0  0  0  0
 28 20  1  0  0  0  0
 28 23  1  0  0  0  0
M  END
>  <MODEL>
7

>  <REMARK>
 VINA RESULT:      -6.9      1.778      2.254
  Name = 
  5 active torsions:
  status: ('A' for Active; 'I' for Inactive)
    1  A    between atoms: C_1  and  C_27
    2  A    between atoms: N_2  and  C_3
    3  A    between atoms: C_10  and  C_17
    4  A    between atoms: C_16  and  C_27
    5  A    between atoms: C_17  and  C_27
                            x       y       z     vdW  Elec       q    Type
                         _______ _______ _______ _____ _____    ______ ____

>  <TORSDO>
F 5

$$$$
=
 OpenBabel10272401483D

 28 31  0  0  1  0  0  0  0  0999 V2000
  183.7270  177.5780  139.0150 C   0  0  1  0  0  3  0  0  0  0  0  0
  180.8950  176.5830  136.9120 C   0  0  0  0  0  2  0  0  0  0  0  0
  182.7140  177.2800  137.9490 C   0  0  0  0  0  0  0  0  0  0  0  0
  181.8920  177.1480  135.9540 C   0  0  0  0  0  3  0  0  0  0  0  0
  181.5720  176.7290  138.1890 N   0  0  0  0  0  0  0  0  0  0  0  0
  182.9460  177.5490  136.5770 N   0  0  0  0  0  0  0  0  0  0  0  0
  184.1980  179.0030  138.9610 C   0  0  0  0  0  0  0  0  0  0  0  0
  185.5790  179.3360  139.1510 N   0  0  0  0  0  2  0  0  0  0  0  0
  183.3600  179.9370  138.8470 O   0  0  0  0  0  0  0  0  0  0  0  0
  186.6760  178.4140  139.1360 C   0  0  0  0  0  0  0  0  0  0  0  0
  188.3220  177.0660  138.3180 N   0  0  0  0  0  0  0  0  0  0  0  0
  187.7620  178.2350  140.5370 S   0  0  0  0  0  0  0  0  0  0  0  0
  186.5650  177.9490  136.6940 C   0  0  0  0  0  1  0  0  0  0  0  0
  187.1280  177.7890  138.0680 C   0  0  0  0  0  0  0  0  0  0  0  0
  188.9900  176.2650  137.3050 C   0  0  0  0  0  1  0  0  0  0  0  0
  188.8470  177.1600  139.6160 N   0  0  0  0  0  2  0  0  0  0  0  0
  183.2050  177.2360  140.4140 C   0  0  0  0  0  2  0  0  0  0  0  0
  184.8790  178.4230  142.6510 C   0  0  0  0  0  3  0  0  0  0  0  0
  182.7490  178.7740  143.7610 C   0  0  0  0  0  0  0  0  0  0  0  0
  182.8010  178.4740  141.2250 C   0  0  2  0  0  3  0  0  0  0  0  0
  184.7980  178.7090  145.0530 C   0  0  0  0  0  0  0  0  0  0  0  0
  183.4820  178.5270  142.5800 C   0  0  0  0  0  0  0  0  0  0  0  0
  180.8180  179.5320  142.3980 C   0  0  0  0  0  2  0  0  0  0  0  0
  183.4090  178.8430  144.9910 C   0  0  0  0  0  3  0  0  0  0  0  0
  181.2600  178.9370  143.7280 C   0  0  0  0  0  2  0  0  0  0  0  0
  185.4950  178.7840  146.3620 C   0  0  0  0  0  1  0  0  0  0  0  0
  185.5330  178.5110  143.8820 C   0  0  0  0  0  3  0  0  0  0  0  0
  181.2730  178.6170  141.2710 C   0  0  0  0  0  2  0  0  0  0  0  0
  1 17  1  1  0  0  0
  2  5  1  0  0  0  0
  3  5  2  0  0  0  0
  3  1  1  0  0  0  0
  4  6  2  0  0  0  0
  4  2  1  0  0  0  0
  6  3  1  0  0  0  0
  7  1  1  0  0  0  0
  7  8  1  0  0  0  0
  9  7  2  0  0  0  0
 10  8  1  0  0  0  0
 10 12  1  0  0  0  0
 11 16  1  0  0  0  0
 13 14  1  0  0  0  0
 14 11  1  0  0  0  0
 14 10  2  0  0  0  0
 15 11  1  0  0  0  0
 16 12  1  0  0  0  0
 18 27  1  0  0  0  0
 19 24  2  0  0  0  0
 20 17  1  1  0  0  0
 20 28  1  0  0  0  0
 20 22  1  0  0  0  0
 21 26  1  0  0  0  0
 22 18  2  0  0  0  0
 22 19  1  0  0  0  0
 23 25  1  0  0  0  0
 24 21  1  0  0  0  0
 25 19  1  0  0  0  0
 27 21  2  0  0  0  0
 28 23  1  0  0  0  0
M  END
>  <MODEL>
8

>  <REMARK>
 VINA RESULT:      -6.7      2.993      5.037
  Name = 
  5 active torsions:
  status: ('A' for Active; 'I' for Inactive)
    1  A    between atoms: C_1  and  C_27
    2  A    between atoms: N_2  and  C_3
    3  A    between atoms: C_10  and  C_17
    4  A    between atoms: C_16  and  C_27
    5  A    between atoms: C_17  and  C_27
                            x       y       z     vdW  Elec       q    Type
                         _______ _______ _______ _____ _____    ______ ____

>  <TORSDO>
F 5

$$$$
=
 OpenBabel10272401483D

 28 31  0  0  1  0  0  0  0  0999 V2000
  189.3010  177.9170  138.7780 C   0  0  1  0  0  3  0  0  0  0  0  0
  191.5060  175.0690  138.0960 C   0  0  0  0  0  2  0  0  0  0  0  0
  190.2550  176.8800  138.2610 C   0  0  0  0  0  0  0  0  0  0  0  0
  191.6930  175.9760  136.9240 C   0  0  0  0  0  3  0  0  0  0  0  0
  190.5350  175.7930  138.8990 N   0  0  0  0  0  0  0  0  0  0  0  0
  190.9560  177.0260  137.0380 N   0  0  0  0  0  0  0  0  0  0  0  0
  188.6420  178.6790  137.6650 C   0  0  0  0  0  0  0  0  0  0  0  0
  187.7100  178.0430  136.7810 N   0  0  0  0  0  2  0  0  0  0  0  0
  188.9810  179.8700  137.4320 O   0  0  0  0  0  0  0  0  0  0  0  0
  187.0960  176.7640  136.9850 C   0  0  0  0  0  0  0  0  0  0  0  0
  185.4650  175.2060  137.3130 N   0  0  0  0  0  0  0  0  0  0  0  0
  187.8940  175.2560  136.4720 S   0  0  0  0  0  0  0  0  0  0  0  0
  184.8590  177.6670  137.5970 C   0  0  0  0  0  1  0  0  0  0  0  0
  185.8430  176.5720  137.3460 C   0  0  0  0  0  0  0  0  0  0  0  0
  184.1460  174.7390  137.7050 C   0  0  0  0  0  1  0  0  0  0  0  0
  186.4420  174.2990  136.8710 N   0  0  0  0  0  2  0  0  0  0  0  0
  188.2510  177.3140  139.7150 C   0  0  0  0  0  2  0  0  0  0  0  0
  189.5110  177.6780  142.4530 C   0  0  0  0  0  3  0  0  0  0  0  0
  187.2230  177.8890  143.2350 C   0  0  0  0  0  0  0  0  0  0  0  0
  187.7440  178.3060  140.7690 C   0  0  2  0  0  3  0  0  0  0  0  0
  188.9870  177.2870  144.7830 C   0  0  0  0  0  0  0  0  0  0  0  0
  188.1570  177.9180  142.1760 C   0  0  0  0  0  0  0  0  0  0  0  0
  185.6120  179.1620  141.8410 C   0  0  0  0  0  2  0  0  0  0  0  0
  187.6400  177.5540  144.5250 C   0  0  0  0  0  3  0  0  0  0  0  0
  185.7740  178.1830  142.9960 C   0  0  0  0  0  2  0  0  0  0  0  0
  189.4250  176.9330  146.1570 C   0  0  0  0  0  1  0  0  0  0  0  0
  189.9230  177.3610  143.7490 C   0  0  0  0  0  3  0  0  0  0  0  0
  186.2390  178.5630  140.5920 C   0  0  0  0  0  2  0  0  0  0  0  0
  1 17  1  6  0  0  0
  2  5  1  0  0  0  0
  3  1  1  0  0  0  0
  3  5  2  0  0  0  0
  4  6  2  0  0  0  0
  4  2  1  0  0  0  0
  6  3  1  0  0  0  0
  7  1  1  0  0  0  0
  8 10  1  0  0  0  0
  8  7  1  0  0  0  0
  9  7  2  0  0  0  0
 10 14  2  0  0  0  0
 11 14  1  0  0  0  0
 11 15  1  0  0  0  0
 12 16  1  0  0  0  0
 12 10  1  0  0  0  0
 14 13  1  0  0  0  0
 16 11  1  0  0  0  0
 18 27  1  0  0  0  0
 19 24  2  0  0  0  0
 20 17  1  6  0  0  0
 20 22  1  0  0  0  0
 21 26  1  0  0  0  0
 22 18  2  0  0  0  0
 22 19  1  0  0  0  0
 23 25  1  0  0  0  0
 24 21  1  0  0  0  0
 25 19  1  0  0  0  0
 27 21  2  0  0  0  0
 28 20  1  0  0  0  0
 28 23  1  0  0  0  0
M  END
>  <MODEL>
9

>  <REMARK>
 VINA RESULT:      -6.7      1.916      3.999
  Name = 
  5 active torsions:
  status: ('A' for Active; 'I' for Inactive)
    1  A    between atoms: C_1  and  C_27
    2  A    between atoms: N_2  and  C_3
    3  A    between atoms: C_10  and  C_17
    4  A    between atoms: C_16  and  C_27
    5  A    between atoms: C_17  and  C_27
                            x       y       z     vdW  Elec       q    Type
                         _______ _______ _______ _____ _____    ______ ____

>  <TORSDO>
F 5

$$$$
