=
 OpenBabel10272414003D

 30 33  0  0  1  0  0  0  0  0999 V2000
  184.9290  178.2470  145.3730 C   0  0  0  0  0  0  0  0  0  0  0  0
  183.5680  178.7590  143.3750 C   0  0  0  0  0  3  0  0  0  0  0  0
  186.9400  178.5200  140.8750 O   0  0  0  0  0  0  0  0  0  0  0  0
  187.2810  176.4400  143.5010 O   0  0  0  0  0  1  0  0  0  0  0  0
  185.3690  179.3450  146.1800 N   0  0  0  0  0  0  0  0  0  0  0  0
  188.2420  177.8290  147.5060 C   0  0  1  0  0  0  0  0  0  0  0  0
  186.7960  177.9980  147.5210 N   0  0  0  0  0  2  0  0  0  0  0  0
  186.5780  180.4900  147.9060 C   0  0  0  0  0  1  0  0  0  0  0  0
  189.8470  178.0450  143.3620 C   0  0  2  0  0  3  0  0  0  0  0  0
  188.2360  178.4320  141.3940 C   0  0  0  0  0  0  0  0  0  0  0  0
  186.1820  179.2470  147.1880 C   0  0  0  0  0  0  0  0  0  0  0  0
  188.7870  177.2430  146.2100 C   0  0  2  0  0  3  0  0  0  0  0  0
  183.4430  178.9820  142.0020 C   0  0  0  0  0  3  0  0  0  0  0  0
  190.3100  178.6150  144.7170 C   0  0  0  0  0  2  0  0  0  0  0  0
  189.0850  178.6690  148.4560 C   0  0  0  0  0  1  0  0  0  0  0  0
  184.6750  177.1250  145.8870 O   0  0  0  0  0  0  0  0  0  0  0  0
  185.8150  178.5790  141.7090 C   0  0  0  0  0  0  0  0  0  0  0  0
  184.5610  178.8920  141.1690 C   0  0  0  0  0  0  0  0  0  0  0  0
  188.6700  176.3820  147.4670 C   0  0  0  0  0  2  0  0  0  0  0  0
  184.8110  178.4340  143.9260 C   0  0  0  0  0  0  0  0  0  0  0  0
  187.2570  177.8300  143.6270 C   0  0  1  0  0  3  0  0  0  0  0  0
  189.2180  178.4060  140.6050 O   0  0  0  0  0  0  0  0  0  0  0  0
  188.4410  178.4720  142.8880 C   0  0  1  0  0  3  0  0  0  0  0  0
  191.0800  176.6020  145.8160 O   0  0  0  0  0  1  0  0  0  0  0  0
  184.4220  179.1240  139.8060 O   0  0  0  0  0  1  0  0  0  0  0  0
  185.9420  178.3350  143.0920 C   0  0  0  0  0  0  0  0  0  0  0  0
  190.2170  177.6930  145.9400 C   0  0  2  0  0  3  0  0  0  0  0  0
  190.3490  176.6810  142.9700 C   0  0  0  0  0  0  0  0  0  0  0  0
  191.7420  176.5320  142.4630 C   0  0  0  0  0  1  0  0  0  0  0  0
  189.6400  175.6940  143.0760 O   0  0  0  0  0  0  0  0  0  0  0  0
  1 16  2  0  0  0  0
  1  5  1  0  0  0  0
  2 20  1  0  0  0  0
  3 10  1  0  0  0  0
  3 17  1  0  0  0  0
  5 11  2  0  0  0  0
  6  7  1  0  0  0  0
  6 15  1  1  0  0  0
  9 28  1  1  0  0  0
  9 14  1  0  0  0  0
 11  7  1  0  0  0  0
 11  8  1  0  0  0  0
 12 19  1  1  0  0  0
 12  6  1  0  0  0  0
 13  2  2  0  0  0  0
 14 27  1  0  0  0  0
 17 26  1  0  0  0  0
 18 17  2  0  0  0  0
 18 13  1  0  0  0  0
 19  6  1  0  0  0  0
 20  1  1  0  0  0  0
 21  4  1  6  0  0  0
 22 10  2  0  0  0  0
 23 10  1  6  0  0  0
 23  9  1  0  0  0  0
 23 21  1  0  0  0  0
 25 18  1  0  0  0  0
 26 21  1  0  0  0  0
 26 20  2  0  0  0  0
 27 24  1  6  0  0  0
 27 12  1  0  0  0  0
 28 30  2  0  0  0  0
 29 28  1  0  0  0  0
M  END
>  <MODEL>
1

>  <REMARK>
 VINA RESULT:      -7.9      0.000      0.000
  Name = 
  1 active torsions:
  status: ('A' for Active; 'I' for Inactive)
    1  A    between atoms: C_7  and  C_10
                            x       y       z     vdW  Elec       q    Type
                         _______ _______ _______ _____ _____    ______ ____

>  <TORSDO>
F 1

$$$$
=
 OpenBabel10272414003D

 30 33  0  0  1  0  0  0  0  0999 V2000
  184.5800  178.9260  139.7420 C   0  0  0  0  0  0  0  0  0  0  0  0
  182.9140  179.0930  141.5590 C   0  0  0  0  0  3  0  0  0  0  0  0
  185.7660  177.9650  144.4340 O   0  0  0  0  0  0  0  0  0  0  0  0
  187.2470  179.6300  141.9090 O   0  0  0  0  0  1  0  0  0  0  0  0
  184.6050  177.7220  138.9670 N   0  0  0  0  0  0  0  0  0  0  0  0
  187.9790  177.8490  138.0130 C   0  0  1  0  0  0  0  0  0  0  0  0
  186.6080  178.3040  137.8280 N   0  0  0  0  0  2  0  0  0  0  0  0
  185.4060  176.1250  137.3670 C   0  0  0  0  0  1  0  0  0  0  0  0
  188.8630  177.0990  142.3080 C   0  0  2  0  0  3  0  0  0  0  0  0
  187.0280  177.4840  144.0700 C   0  0  0  0  0  0  0  0  0  0  0  0
  185.4910  177.4390  138.0620 C   0  0  0  0  0  0  0  0  0  0  0  0
  188.5690  178.1890  139.3740 C   0  0  2  0  0  3  0  0  0  0  0  0
  182.5520  178.9840  142.9040 C   0  0  0  0  0  3  0  0  0  0  0  0
  189.1940  176.3480  141.0030 C   0  0  0  0  0  2  0  0  0  0  0  0
  188.4910  176.7050  137.1480 C   0  0  0  0  0  1  0  0  0  0  0  0
  184.8830  180.0360  139.2260 O   0  0  0  0  0  0  0  0  0  0  0  0
  184.8230  178.3600  143.4750 C   0  0  0  0  0  0  0  0  0  0  0  0
  183.5020  178.6190  143.8610 C   0  0  0  0  0  0  0  0  0  0  0  0
  188.9690  178.9820  138.1310 C   0  0  0  0  0  2  0  0  0  0  0  0
  184.2310  178.8490  141.1610 C   0  0  0  0  0  0  0  0  0  0  0  0
  186.6530  178.3760  141.7520 C   0  0  1  0  0  3  0  0  0  0  0  0
  187.8340  177.1170  144.9660 O   0  0  0  0  0  0  0  0  0  0  0  0
  187.3650  177.3180  142.6080 C   0  0  1  0  0  3  0  0  0  0  0  0
  190.8590  177.8160  140.0430 O   0  0  0  0  0  1  0  0  0  0  0  0
  183.1260  178.5070  145.1940 O   0  0  0  0  0  1  0  0  0  0  0  0
  185.1970  178.4870  142.1220 C   0  0  0  0  0  0  0  0  0  0  0  0
  189.6360  177.1870  139.7970 C   0  0  2  0  0  3  0  0  0  0  0  0
  189.8460  178.1360  142.7840 C   0  0  0  0  0  0  0  0  0  0  0  0
  191.1020  177.7000  143.4550 C   0  0  0  0  0  1  0  0  0  0  0  0
  189.6380  179.3260  142.6140 O   0  0  0  0  0  0  0  0  0  0  0  0
  1 20  1  0  0  0  0
  2 13  1  0  0  0  0
  5  1  1  0  0  0  0
  6 15  1  6  0  0  0
  6 19  1  0  0  0  0
  6 12  1  0  0  0  0
  7  6  1  0  0  0  0
  7 11  1  0  0  0  0
  8 11  1  0  0  0  0
  9 23  1  0  0  0  0
  9 28  1  6  0  0  0
 10  3  1  0  0  0  0
 10 22  2  0  0  0  0
 11  5  2  0  0  0  0
 12 19  1  6  0  0  0
 12 27  1  0  0  0  0
 13 18  2  0  0  0  0
 14  9  1  0  0  0  0
 16  1  2  0  0  0  0
 17 18  1  0  0  0  0
 17  3  1  0  0  0  0
 18 25  1  0  0  0  0
 20  2  2  0  0  0  0
 20 26  1  0  0  0  0
 21  4  1  1  0  0  0
 21 26  1  0  0  0  0
 21 23  1  0  0  0  0
 23 10  1  1  0  0  0
 26 17  2  0  0  0  0
 27 24  1  1  0  0  0
 27 14  1  0  0  0  0
 28 29  1  0  0  0  0
 30 28  2  0  0  0  0
M  END
>  <MODEL>
2

>  <REMARK>
 VINA RESULT:      -7.0      3.127      5.934
  Name = 
  1 active torsions:
  status: ('A' for Active; 'I' for Inactive)
    1  A    between atoms: C_7  and  C_10
                            x       y       z     vdW  Elec       q    Type
                         _______ _______ _______ _____ _____    ______ ____

>  <TORSDO>
F 1

$$$$
=
 OpenBabel10272414003D

 30 33  0  0  1  0  0  0  0  0999 V2000
  187.2070  178.1940  138.3710 C   0  0  0  0  0  0  0  0  0  0  0  0
  184.8690  178.7720  138.9270 C   0  0  0  0  0  3  0  0  0  0  0  0
  185.5900  178.2320  143.0340 O   0  0  0  0  0  0  0  0  0  0  0  0
  188.3850  179.2970  141.4860 O   0  0  0  0  0  1  0  0  0  0  0  0
  187.4810  176.8520  137.9530 N   0  0  0  0  0  0  0  0  0  0  0  0
  190.8310  176.7160  138.9870 C   0  0  1  0  0  0  0  0  0  0  0  0
  189.8390  177.1450  138.0110 N   0  0  0  0  0  2  0  0  0  0  0  0
  188.7920  174.9390  137.3460 C   0  0  0  0  0  1  0  0  0  0  0  0
  189.2000  176.8810  143.1230 C   0  0  2  0  0  3  0  0  0  0  0  0
  186.7780  177.6630  143.5040 C   0  0  0  0  0  0  0  0  0  0  0  0
  188.6670  176.3690  137.7400 C   0  0  0  0  0  0  0  0  0  0  0  0
  190.6490  177.3280  140.3690 C   0  0  2  0  0  3  0  0  0  0  0  0
  183.8390  178.9570  139.8520 C   0  0  0  0  0  3  0  0  0  0  0  0
  190.0700  175.8650  142.3580 C   0  0  0  0  0  2  0  0  0  0  0  0
  191.5690  175.4060  138.7500 C   0  0  0  0  0  1  0  0  0  0  0  0
  187.8770  179.1630  137.9250 O   0  0  0  0  0  0  0  0  0  0  0  0
  185.3590  178.4310  141.6660 C   0  0  0  0  0  0  0  0  0  0  0  0
  184.0810  178.7880  141.2180 C   0  0  0  0  0  0  0  0  0  0  0  0
  191.7450  177.8310  139.4320 C   0  0  0  0  0  2  0  0  0  0  0  0
  186.1520  178.4260  139.3600 C   0  0  0  0  0  0  0  0  0  0  0  0
  187.8070  178.0480  141.2450 C   0  0  1  0  0  3  0  0  0  0  0  0
  186.9310  177.4820  144.7400 O   0  0  0  0  0  0  0  0  0  0  0  0
  187.8130  177.1840  142.5150 C   0  0  1  0  0  3  0  0  0  0  0  0
  192.1650  177.0670  142.2290 O   0  0  0  0  0  1  0  0  0  0  0  0
  183.0450  178.9690  142.1260 O   0  0  0  0  0  1  0  0  0  0  0  0
  186.4050  178.2610  140.7360 C   0  0  0  0  0  0  0  0  0  0  0  0
  191.1890  176.4210  141.4670 C   0  0  2  0  0  3  0  0  0  0  0  0
  189.9060  177.9790  143.8730 C   0  0  0  0  0  0  0  0  0  0  0  0
  190.3820  177.7270  145.2620 C   0  0  0  0  0  1  0  0  0  0  0  0
  190.1090  179.0660  143.3580 O   0  0  0  0  0  0  0  0  0  0  0  0
  1 20  1  0  0  0  0
  2 20  2  0  0  0  0
  2 13  1  0  0  0  0
  3 10  1  0  0  0  0
  5  1  1  0  0  0  0
  6 15  1  6  0  0  0
  6 19  1  0  0  0  0
  6 12  1  0  0  0  0
  7  6  1  0  0  0  0
  8 11  1  0  0  0  0
  9 28  1  6  0  0  0
 10 22  2  0  0  0  0
 11  5  2  0  0  0  0
 11  7  1  0  0  0  0
 12 19  1  6  0  0  0
 12 27  1  0  0  0  0
 13 18  2  0  0  0  0
 14  9  1  0  0  0  0
 16  1  2  0  0  0  0
 17  3  1  0  0  0  0
 18 17  1  0  0  0  0
 18 25  1  0  0  0  0
 20 26  1  0  0  0  0
 21  4  1  1  0  0  0
 21 23  1  0  0  0  0
 23  9  1  0  0  0  0
 23 10  1  1  0  0  0
 26 21  1  0  0  0  0
 26 17  2  0  0  0  0
 27 24  1  1  0  0  0
 27 14  1  0  0  0  0
 28 29  1  0  0  0  0
 30 28  2  0  0  0  0
M  END
>  <MODEL>
3

>  <REMARK>
 VINA RESULT:      -6.2      3.366      5.959
  Name = 
  1 active torsions:
  status: ('A' for Active; 'I' for Inactive)
    1  A    between atoms: C_7  and  C_10
                            x       y       z     vdW  Elec       q    Type
                         _______ _______ _______ _____ _____    ______ ____

>  <TORSDO>
F 1

$$$$
=
 OpenBabel10272414003D

 30 33  0  0  1  0  0  0  0  0999 V2000
  188.6590  178.0140  139.3310 C   0  0  0  0  0  0  0  0  0  0  0  0
  190.5660  176.6560  138.5400 C   0  0  0  0  0  3  0  0  0  0  0  0
  188.0280  174.2320  136.2260 O   0  0  0  0  0  0  0  0  0  0  0  0
  186.7870  177.3540  136.4400 O   0  0  0  0  0  1  0  0  0  0  0  0
  188.1040  177.7010  140.6130 N   0  0  0  0  0  0  0  0  0  0  0  0
  184.8570  178.8900  140.0180 C   0  0  1  0  0  0  0  0  0  0  0  0
  186.2490  179.1630  140.3460 N   0  0  0  0  0  2  0  0  0  0  0  0
  186.5580  177.7830  142.4450 C   0  0  0  0  0  1  0  0  0  0  0  0
  184.5080  175.4940  137.1660 C   0  0  2  0  0  3  0  0  0  0  0  0
  186.6360  174.3070  136.3370 C   0  0  0  0  0  0  0  0  0  0  0  0
  187.0350  178.2440  141.1120 C   0  0  0  0  0  0  0  0  0  0  0  0
  184.6520  178.2630  138.6460 C   0  0  2  0  0  3  0  0  0  0  0  0
  191.0920  175.5990  137.7930 C   0  0  0  0  0  3  0  0  0  0  0  0
  183.7320  175.9090  138.4300 C   0  0  0  0  0  2  0  0  0  0  0  0
  183.8540  178.7450  141.1550 C   0  0  0  0  0  1  0  0  0  0  0  0
  188.6630  179.1970  138.8970 O   0  0  0  0  0  0  0  0  0  0  0  0
  188.8730  175.0540  136.9830 C   0  0  0  0  0  0  0  0  0  0  0  0
  190.2500  174.8000  137.0160 C   0  0  0  0  0  0  0  0  0  0  0  0
  184.3370  179.7390  138.8840 C   0  0  0  0  0  2  0  0  0  0  0  0
  189.1960  176.9290  138.5070 C   0  0  0  0  0  0  0  0  0  0  0  0
  186.8920  176.4980  137.5380 C   0  0  1  0  0  3  0  0  0  0  0  0
  185.9170  173.5300  135.6540 O   0  0  0  0  0  0  0  0  0  0  0  0
  186.0220  175.2470  137.3460 C   0  0  1  0  0  3  0  0  0  0  0  0
  182.5170  177.8320  137.6060 O   0  0  0  0  0  1  0  0  0  0  0  0
  190.7860  173.7470  136.2840 O   0  0  0  0  0  1  0  0  0  0  0  0
  188.3410  176.1320  137.7210 C   0  0  0  0  0  0  0  0  0  0  0  0
  183.3990  177.3980  138.5980 C   0  0  2  0  0  3  0  0  0  0  0  0
  184.0240  176.0260  135.8430 C   0  0  0  0  0  0  0  0  0  0  0  0
  182.8900  175.3500  135.1530 C   0  0  0  0  0  1  0  0  0  0  0  0
  184.5340  177.0110  135.3350 O   0  0  0  0  0  0  0  0  0  0  0  0
  1  5  1  0  0  0  0
  3 10  1  0  0  0  0
  3 17  1  0  0  0  0
  5 11  2  0  0  0  0
  6  7  1  0  0  0  0
  6 15  1  1  0  0  0
  7 11  1  0  0  0  0
  9 28  1  6  0  0  0
  9 23  1  0  0  0  0
  9 14  1  0  0  0  0
 11  8  1  0  0  0  0
 12 19  1  6  0  0  0
 12  6  1  0  0  0  0
 13  2  2  0  0  0  0
 14 27  1  0  0  0  0
 16  1  2  0  0  0  0
 17 18  2  0  0  0  0
 17 26  1  0  0  0  0
 18 13  1  0  0  0  0
 19  6  1  0  0  0  0
 20  2  1  0  0  0  0
 20  1  1  0  0  0  0
 21  4  1  6  0  0  0
 21 26  1  0  0  0  0
 22 10  2  0  0  0  0
 23 10  1  6  0  0  0
 23 21  1  0  0  0  0
 25 18  1  0  0  0  0
 26 20  2  0  0  0  0
 27 24  1  6  0  0  0
 27 12  1  0  0  0  0
 29 28  1  0  0  0  0
 30 28  2  0  0  0  0
M  END
>  <MODEL>
4

>  <REMARK>
 VINA RESULT:      -5.9      4.702      8.298
  Name = 
  1 active torsions:
  status: ('A' for Active; 'I' for Inactive)
    1  A    between atoms: C_7  and  C_10
                            x       y       z     vdW  Elec       q    Type
                         _______ _______ _______ _____ _____    ______ ____

>  <TORSDO>
F 1

$$$$
=
 OpenBabel10272414003D

 30 33  0  0  1  0  0  0  0  0999 V2000
  187.4000  178.3200  137.9290 C   0  0  0  0  0  0  0  0  0  0  0  0
  189.8120  177.8070  138.0920 C   0  0  0  0  0  3  0  0  0  0  0  0
  189.1460  173.7900  137.0430 O   0  0  0  0  0  0  0  0  0  0  0  0
  186.8580  175.7770  135.5740 O   0  0  0  0  0  1  0  0  0  0  0  0
  186.6370  178.3280  139.1400 N   0  0  0  0  0  0  0  0  0  0  0  0
  183.5220  177.5350  137.7340 C   0  0  1  0  0  0  0  0  0  0  0  0
  184.5520  178.5240  138.0150 N   0  0  0  0  0  2  0  0  0  0  0  0
  184.6910  178.4130  140.5390 C   0  0  0  0  0  1  0  0  0  0  0  0
  185.3020  173.5430  136.9040 C   0  0  2  0  0  3  0  0  0  0  0  0
  187.8580  173.2520  136.9710 C   0  0  0  0  0  0  0  0  0  0  0  0
  185.3470  178.4650  139.2040 C   0  0  0  0  0  0  0  0  0  0  0  0
  183.9810  176.3950  136.8360 C   0  0  2  0  0  3  0  0  0  0  0  0
  190.8830  176.9130  138.0150 C   0  0  0  0  0  3  0  0  0  0  0  0
  184.0850  174.0200  137.7210 C   0  0  0  0  0  2  0  0  0  0  0  0
  182.3460  177.4120  138.6950 C   0  0  0  0  0  1  0  0  0  0  0  0
  187.1070  179.0840  136.9710 O   0  0  0  0  0  0  0  0  0  0  0  0
  189.3670  175.1350  137.3730 C   0  0  0  0  0  0  0  0  0  0  0  0
  190.6640  175.5810  137.6560 C   0  0  0  0  0  0  0  0  0  0  0  0
  183.0980  177.5130  136.2860 C   0  0  0  0  0  2  0  0  0  0  0  0
  188.5140  177.3790  137.8000 C   0  0  0  0  0  0  0  0  0  0  0  0
  186.9290  175.5860  136.9560 C   0  0  1  0  0  3  0  0  0  0  0  0
  187.7100  172.0330  136.6950 O   0  0  0  0  0  0  0  0  0  0  0  0
  186.6720  174.1170  137.3240 C   0  0  1  0  0  3  0  0  0  0  0  0
  182.5670  174.6520  135.9470 O   0  0  0  0  0  1  0  0  0  0  0  0
  191.7380  174.7020  137.5910 O   0  0  0  0  0  1  0  0  0  0  0  0
  188.2860  176.0380  137.4310 C   0  0  0  0  0  0  0  0  0  0  0  0
  183.2030  175.1120  137.1020 C   0  0  2  0  0  3  0  0  0  0  0  0
  185.0810  173.2120  135.4520 C   0  0  0  0  0  0  0  0  0  0  0  0
  184.5290  171.8790  135.0810 C   0  0  0  0  0  1  0  0  0  0  0  0
  185.3310  174.0230  134.5750 O   0  0  0  0  0  0  0  0  0  0  0  0
  1  5  1  0  0  0  0
  3 17  1  0  0  0  0
  5 11  2  0  0  0  0
  6  7  1  0  0  0  0
  6 15  1  1  0  0  0
  7 11  1  0  0  0  0
  9 28  1  6  0  0  0
  9 23  1  0  0  0  0
  9 14  1  0  0  0  0
 10  3  1  0  0  0  0
 11  8  1  0  0  0  0
 12 19  1  6  0  0  0
 12 27  1  0  0  0  0
 12  6  1  0  0  0  0
 13  2  1  0  0  0  0
 16  1  2  0  0  0  0
 17 26  2  0  0  0  0
 17 18  1  0  0  0  0
 18 13  2  0  0  0  0
 19  6  1  0  0  0  0
 20  1  1  0  0  0  0
 20  2  2  0  0  0  0
 21  4  1  6  0  0  0
 21 23  1  0  0  0  0
 21 26  1  0  0  0  0
 22 10  2  0  0  0  0
 23 10  1  6  0  0  0
 25 18  1  0  0  0  0
 26 20  1  0  0  0  0
 27 24  1  6  0  0  0
 27 14  1  0  0  0  0
 29 28  1  0  0  0  0
 30 28  2  0  0  0  0
M  END
>  <MODEL>
5

>  <REMARK>
 VINA RESULT:      -5.9      5.988      9.138
  Name = 
  1 active torsions:
  status: ('A' for Active; 'I' for Inactive)
    1  A    between atoms: C_7  and  C_10
                            x       y       z     vdW  Elec       q    Type
                         _______ _______ _______ _____ _____    ______ ____

>  <TORSDO>
F 1

$$$$
=
 OpenBabel10272414003D

 30 33  0  0  1  0  0  0  0  0999 V2000
  182.1930  177.7800  139.3390 C   0  0  0  0  0  0  0  0  0  0  0  0
  182.3750  178.5550  141.6780 C   0  0  0  0  0  3  0  0  0  0  0  0
  186.5560  178.8760  141.3670 O   0  0  0  0  0  0  0  0  0  0  0  0
  185.1120  179.4740  138.3840 O   0  0  0  0  0  1  0  0  0  0  0  0
  182.0930  176.3700  139.1090 N   0  0  0  0  0  0  0  0  0  0  0  0
  183.4680  176.3240  135.8820 C   0  0  1  0  0  0  0  0  0  0  0  0
  182.3290  176.5740  136.7530 N   0  0  0  0  0  2  0  0  0  0  0  0
  182.0350  174.3200  137.8660 C   0  0  0  0  0  1  0  0  0  0  0  0
  187.2910  177.4320  137.8680 C   0  0  2  0  0  3  0  0  0  0  0  0
  187.2530  178.3740  140.2630 C   0  0  0  0  0  0  0  0  0  0  0  0
  182.1080  175.8050  137.9400 C   0  0  0  0  0  0  0  0  0  0  0  0
  184.6670  177.2230  136.1510 C   0  0  2  0  0  3  0  0  0  0  0  0
  183.1330  178.9750  142.7750 C   0  0  0  0  0  3  0  0  0  0  0  0
  186.8480  176.2420  136.9960 C   0  0  0  0  0  2  0  0  0  0  0  0
  183.5850  174.9640  135.2050 C   0  0  0  0  0  1  0  0  0  0  0  0
  181.6250  178.6040  138.5730 O   0  0  0  0  0  0  0  0  0  0  0  0
  185.1610  178.7870  141.4600 C   0  0  0  0  0  0  0  0  0  0  0  0
  184.5200  179.0920  142.6680 C   0  0  0  0  0  0  0  0  0  0  0  0
  183.7610  177.4710  134.9460 C   0  0  0  0  0  2  0  0  0  0  0  0
  182.9990  178.2590  140.4630 C   0  0  0  0  0  0  0  0  0  0  0  0
  185.0800  178.2270  139.0110 C   0  0  1  0  0  3  0  0  0  0  0  0
  188.5090  178.4540  140.2340 O   0  0  0  0  0  0  0  0  0  0  0  0
  186.4960  177.6540  139.1730 C   0  0  1  0  0  3  0  0  0  0  0  0
  186.6840  177.3040  134.8280 O   0  0  0  0  0  1  0  0  0  0  0  0
  185.2610  179.5030  143.7700 O   0  0  0  0  0  1  0  0  0  0  0  0
  184.3980  178.3810  140.3460 C   0  0  0  0  0  0  0  0  0  0  0  0
  185.9790  176.5500  135.7690 C   0  0  2  0  0  3  0  0  0  0  0  0
  187.8640  178.6360  137.1690 C   0  0  0  0  0  0  0  0  0  0  0  0
  189.3150  178.6650  136.8320 C   0  0  0  0  0  1  0  0  0  0  0  0
  187.1570  179.5800  136.8580 O   0  0  0  0  0  0  0  0  0  0  0  0
  1 20  1  0  0  0  0
  2 13  1  0  0  0  0
  3 17  1  0  0  0  0
  5  1  1  0  0  0  0
  6 15  1  6  0  0  0
  6 12  1  0  0  0  0
  6  7  1  0  0  0  0
  7 11  1  0  0  0  0
  8 11  1  0  0  0  0
  9 28  1  6  0  0  0
  9 23  1  0  0  0  0
 10  3  1  0  0  0  0
 11  5  2  0  0  0  0
 12 19  1  6  0  0  0
 14  9  1  0  0  0  0
 16  1  2  0  0  0  0
 17 18  1  0  0  0  0
 18 13  2  0  0  0  0
 18 25  1  0  0  0  0
 19  6  1  0  0  0  0
 20  2  2  0  0  0  0
 21  4  1  1  0  0  0
 21 23  1  0  0  0  0
 21 26  1  0  0  0  0
 22 10  2  0  0  0  0
 23 10  1  1  0  0  0
 26 20  1  0  0  0  0
 26 17  2  0  0  0  0
 27 24  1  6  0  0  0
 27 12  1  0  0  0  0
 27 14  1  0  0  0  0
 29 28  1  0  0  0  0
 30 28  2  0  0  0  0
M  END
>  <MODEL>
6

>  <REMARK>
 VINA RESULT:      -5.8      4.661      8.023
  Name = 
  1 active torsions:
  status: ('A' for Active; 'I' for Inactive)
    1  A    between atoms: C_7  and  C_10
                            x       y       z     vdW  Elec       q    Type
                         _______ _______ _______ _____ _____    ______ ____

>  <TORSDO>
F 1

$$$$
=
 OpenBabel10272414003D

 30 33  0  0  1  0  0  0  0  0999 V2000
  187.0030  178.1440  138.0410 C   0  0  0  0  0  0  0  0  0  0  0  0
  188.7560  176.6940  137.0760 C   0  0  0  0  0  3  0  0  0  0  0  0
  185.9710  173.6380  136.3150 O   0  0  0  0  0  0  0  0  0  0  0  0
  184.4840  176.6520  136.1080 O   0  0  0  0  0  1  0  0  0  0  0  0
  186.8690  178.1710  139.4670 N   0  0  0  0  0  0  0  0  0  0  0  0
  183.4710  179.0310  139.6020 C   0  0  1  0  0  0  0  0  0  0  0  0
  184.8570  179.4340  139.4160 N   0  0  0  0  0  2  0  0  0  0  0  0
  185.9010  178.6910  141.5980 C   0  0  0  0  0  1  0  0  0  0  0  0
  182.7340  174.9760  137.9260 C   0  0  2  0  0  3  0  0  0  0  0  0
  184.6670  173.6890  136.8170 C   0  0  0  0  0  0  0  0  0  0  0  0
  185.9280  178.7880  140.1130 C   0  0  0  0  0  0  0  0  0  0  0  0
  182.9630  178.0470  138.5570 C   0  0  2  0  0  3  0  0  0  0  0  0
  189.1700  175.4940  136.4930 C   0  0  0  0  0  3  0  0  0  0  0  0
  182.3010  175.6900  139.2210 C   0  0  0  0  0  2  0  0  0  0  0  0
  182.8510  179.1630  140.9870 C   0  0  0  0  0  1  0  0  0  0  0  0
  186.7460  179.1630  137.3460 O   0  0  0  0  0  0  0  0  0  0  0  0
  186.8930  174.6670  136.5510 C   0  0  0  0  0  0  0  0  0  0  0  0
  188.2430  174.4830  136.2300 C   0  0  0  0  0  0  0  0  0  0  0  0
  182.5580  179.5190  138.5030 C   0  0  0  0  0  2  0  0  0  0  0  0
  187.4090  176.8970  137.3910 C   0  0  0  0  0  0  0  0  0  0  0  0
  184.9920  176.1320  137.3000 C   0  0  1  0  0  3  0  0  0  0  0  0
  183.8810  172.7290  136.5990 O   0  0  0  0  0  0  0  0  0  0  0  0
  184.2560  174.8440  137.6970 C   0  0  1  0  0  3  0  0  0  0  0  0
  180.6880  177.2690  138.3500 O   0  0  0  0  0  1  0  0  0  0  0  0
  188.6710  173.2920  135.6570 O   0  0  0  0  0  1  0  0  0  0  0  0
  186.4680  175.8840  137.1230 C   0  0  0  0  0  0  0  0  0  0  0  0
  181.8570  177.1550  139.1050 C   0  0  2  0  0  3  0  0  0  0  0  0
  181.8400  175.1090  136.7220 C   0  0  0  0  0  0  0  0  0  0  0  0
  180.6380  174.2370  136.6030 C   0  0  0  0  0  1  0  0  0  0  0  0
  182.0740  175.9310  135.8510 O   0  0  0  0  0  0  0  0  0  0  0  0
  1  5  1  0  0  0  0
  2 20  1  0  0  0  0
  3 17  1  0  0  0  0
  3 10  1  0  0  0  0
  5 11  2  0  0  0  0
  6 15  1  1  0  0  0
  7  6  1  0  0  0  0
  7 11  1  0  0  0  0
  9 28  1  6  0  0  0
  9 14  1  0  0  0  0
 11  8  1  0  0  0  0
 12 19  1  6  0  0  0
 12 27  1  0  0  0  0
 12  6  1  0  0  0  0
 13  2  2  0  0  0  0
 16  1  2  0  0  0  0
 17 26  1  0  0  0  0
 18 13  1  0  0  0  0
 18 17  2  0  0  0  0
 19  6  1  0  0  0  0
 20  1  1  0  0  0  0
 21  4  1  6  0  0  0
 21 23  1  0  0  0  0
 22 10  2  0  0  0  0
 23 10  1  6  0  0  0
 23  9  1  0  0  0  0
 25 18  1  0  0  0  0
 26 21  1  0  0  0  0
 26 20  2  0  0  0  0
 27 24  1  6  0  0  0
 27 14  1  0  0  0  0
 29 28  1  0  0  0  0
 30 28  2  0  0  0  0
M  END
>  <MODEL>
7

>  <REMARK>
 VINA RESULT:      -5.7      5.413      8.892
  Name = 
  1 active torsions:
  status: ('A' for Active; 'I' for Inactive)
    1  A    between atoms: C_7  and  C_10
                            x       y       z     vdW  Elec       q    Type
                         _______ _______ _______ _____ _____    ______ ____

>  <TORSDO>
F 1

$$$$
=
 OpenBabel10272414003D

 30 33  0  0  1  0  0  0  0  0999 V2000
  184.7520  178.7770  140.5140 C   0  0  0  0  0  0  0  0  0  0  0  0
  184.6390  178.8520  142.9820 C   0  0  0  0  0  3  0  0  0  0  0  0
  188.5500  177.3440  143.3210 O   0  0  0  0  0  0  0  0  0  0  0  0
  188.2380  179.1630  140.5050 O   0  0  0  0  0  1  0  0  0  0  0  0
  184.1700  177.6470  139.8540 N   0  0  0  0  0  0  0  0  0  0  0  0
  186.1680  177.7110  136.9700 C   0  0  1  0  0  0  0  0  0  0  0  0
  185.0400  178.2400  137.7230 N   0  0  0  0  0  2  0  0  0  0  0  0
  183.6250  176.1670  138.0470 C   0  0  0  0  0  1  0  0  0  0  0  0
  189.5010  176.5380  139.6730 C   0  0  2  0  0  3  0  0  0  0  0  0
  189.2440  176.8430  142.2150 C   0  0  0  0  0  0  0  0  0  0  0  0
  184.2510  177.4080  138.5800 C   0  0  0  0  0  0  0  0  0  0  0  0
  187.5150  177.9000  137.6530 C   0  0  2  0  0  3  0  0  0  0  0  0
  185.2040  178.6380  144.2420 C   0  0  0  0  0  3  0  0  0  0  0  0
  188.8590  175.8940  138.4290 C   0  0  0  0  0  2  0  0  0  0  0  0
  185.9080  176.6280  135.9320 C   0  0  0  0  0  1  0  0  0  0  0  0
  184.7590  179.9130  139.9710 O   0  0  0  0  0  0  0  0  0  0  0  0
  187.2540  177.8650  143.2040 C   0  0  0  0  0  0  0  0  0  0  0  0
  186.5070  178.1470  144.3550 C   0  0  0  0  0  0  0  0  0  0  0  0
  187.1070  178.7840  136.4760 C   0  0  0  0  0  2  0  0  0  0  0  0
  185.3770  178.5870  141.8240 C   0  0  0  0  0  0  0  0  0  0  0  0
  187.5680  177.9560  140.7110 C   0  0  1  0  0  3  0  0  0  0  0  0
  190.3970  176.3620  142.3730 O   0  0  0  0  0  0  0  0  0  0  0  0
  188.5600  176.7950  140.8700 C   0  0  1  0  0  3  0  0  0  0  0  0
  189.6630  177.3690  136.6880 O   0  0  0  0  0  1  0  0  0  0  0  0
  187.0530  177.9320  145.6140 O   0  0  0  0  0  1  0  0  0  0  0  0
  186.6940  178.0980  141.9300 C   0  0  0  0  0  0  0  0  0  0  0  0
  188.5110  176.8190  137.2540 C   0  0  2  0  0  3  0  0  0  0  0  0
  190.6520  177.4840  139.4540 C   0  0  0  0  0  0  0  0  0  0  0  0
  192.0390  176.9450  139.3880 C   0  0  0  0  0  1  0  0  0  0  0  0
  190.4660  178.6810  139.3130 O   0  0  0  0  0  0  0  0  0  0  0  0
  1 20  1  0  0  0  0
  2 13  1  0  0  0  0
  5  1  1  0  0  0  0
  6 15  1  6  0  0  0
  6 12  1  0  0  0  0
  6  7  1  0  0  0  0
  7 11  1  0  0  0  0
  8 11  1  0  0  0  0
  9 28  1  6  0  0  0
  9 23  1  0  0  0  0
 10 22  2  0  0  0  0
 10  3  1  0  0  0  0
 11  5  2  0  0  0  0
 12 19  1  6  0  0  0
 13 18  2  0  0  0  0
 14  9  1  0  0  0  0
 16  1  2  0  0  0  0
 17  3  1  0  0  0  0
 17 18  1  0  0  0  0
 18 25  1  0  0  0  0
 19  6  1  0  0  0  0
 20 26  1  0  0  0  0
 20  2  2  0  0  0  0
 21  4  1  1  0  0  0
 21 23  1  0  0  0  0
 21 26  1  0  0  0  0
 23 10  1  1  0  0  0
 26 17  2  0  0  0  0
 27 24  1  1  0  0  0
 27 12  1  0  0  0  0
 27 14  1  0  0  0  0
 29 28  1  0  0  0  0
 30 28  2  0  0  0  0
M  END
>  <MODEL>
8

>  <REMARK>
 VINA RESULT:      -5.6      3.403      6.625
  Name = 
  1 active torsions:
  status: ('A' for Active; 'I' for Inactive)
    1  A    between atoms: C_7  and  C_10
                            x       y       z     vdW  Elec       q    Type
                         _______ _______ _______ _____ _____    ______ ____

>  <TORSDO>
F 1

$$$$
=
 OpenBabel10272414003D

 30 33  0  0  1  0  0  0  0  0999 V2000
  185.4240  178.3350  141.6750 C   0  0  0  0  0  0  0  0  0  0  0  0
  185.9290  178.5500  139.2660 C   0  0  0  0  0  3  0  0  0  0  0  0
  190.0210  177.8590  139.9450 O   0  0  0  0  0  0  0  0  0  0  0  0
  188.1640  176.2140  142.2210 O   0  0  0  0  0  1  0  0  0  0  0  0
  185.3050  179.5380  142.4420 N   0  0  0  0  0  0  0  0  0  0  0  0
  186.2090  178.1990  145.5570 C   0  0  1  0  0  0  0  0  0  0  0  0
  185.2030  178.3940  144.5230 N   0  0  0  0  0  2  0  0  0  0  0  0
  185.0890  180.9190  144.3910 C   0  0  0  0  0  1  0  0  0  0  0  0
  190.2650  177.7310  143.7900 C   0  0  2  0  0  3  0  0  0  0  0  0
  190.5580  177.8310  141.2360 C   0  0  0  0  0  0  0  0  0  0  0  0
  185.1590  179.5860  143.7310 C   0  0  0  0  0  0  0  0  0  0  0  0
  187.4260  177.4070  145.0990 C   0  0  2  0  0  3  0  0  0  0  0  0
  186.8300  178.5560  138.1980 C   0  0  0  0  0  3  0  0  0  0  0  0
  189.7130  178.4990  145.0070 C   0  0  0  0  0  2  0  0  0  0  0  0
  186.2410  179.1630  146.7350 C   0  0  0  0  0  1  0  0  0  0  0  0
  184.7460  177.3120  141.9630 O   0  0  0  0  0  0  0  0  0  0  0  0
  188.6530  178.0690  139.7200 C   0  0  0  0  0  0  0  0  0  0  0  0
  188.1880  178.3160  138.4220 C   0  0  0  0  0  0  0  0  0  0  0  0
  186.3570  176.7570  145.9760 C   0  0  0  0  0  2  0  0  0  0  0  0
  186.3770  178.2930  140.5650 C   0  0  0  0  0  0  0  0  0  0  0  0
  188.2310  177.6070  142.1540 C   0  0  1  0  0  3  0  0  0  0  0  0
  191.7970  177.6640  141.3870 O   0  0  0  0  0  0  0  0  0  0  0  0
  189.6610  178.1030  142.4180 C   0  0  1  0  0  3  0  0  0  0  0  0
  189.2350  176.6710  146.5180 O   0  0  0  0  0  1  0  0  0  0  0  0
  189.0740  178.3320  137.3510 O   0  0  0  0  0  1  0  0  0  0  0  0
  187.7440  178.0440  140.7980 C   0  0  0  0  0  0  0  0  0  0  0  0
  188.6760  177.7830  145.8840 C   0  0  2  0  0  3  0  0  0  0  0  0
  190.7230  176.3140  144.0080 C   0  0  0  0  0  0  0  0  0  0  0  0
  191.8060  176.0370  144.9930 C   0  0  0  0  0  1  0  0  0  0  0  0
  190.2100  175.3850  143.4040 O   0  0  0  0  0  0  0  0  0  0  0  0
  1 16  2  0  0  0  0
  1  5  1  0  0  0  0
  2 20  1  0  0  0  0
  3 10  1  0  0  0  0
  5 11  2  0  0  0  0
  6 19  1  0  0  0  0
  6 15  1  1  0  0  0
  7  6  1  0  0  0  0
  9 28  1  1  0  0  0
  9 14  1  0  0  0  0
 10 22  2  0  0  0  0
 11  8  1  0  0  0  0
 11  7  1  0  0  0  0
 12  6  1  0  0  0  0
 12 27  1  0  0  0  0
 12 19  1  1  0  0  0
 13 18  1  0  0  0  0
 13  2  2  0  0  0  0
 14 27  1  0  0  0  0
 17  3  1  0  0  0  0
 17 26  1  0  0  0  0
 18 17  2  0  0  0  0
 20 26  2  0  0  0  0
 20  1  1  0  0  0  0
 21  4  1  6  0  0  0
 21 23  1  0  0  0  0
 23 10  1  6  0  0  0
 23  9  1  0  0  0  0
 25 18  1  0  0  0  0
 26 21  1  0  0  0  0
 27 24  1  6  0  0  0
 28 29  1  0  0  0  0
 30 28  2  0  0  0  0
M  END
>  <MODEL>
9

>  <REMARK>
 VINA RESULT:      -5.5      1.971      3.127
  Name = 
  1 active torsions:
  status: ('A' for Active; 'I' for Inactive)
    1  A    between atoms: C_7  and  C_10
                            x       y       z     vdW  Elec       q    Type
                         _______ _______ _______ _____ _____    ______ ____

>  <TORSDO>
F 1

$$$$
