=
 OpenBabel10272400423D

 25 27  0  0  1  0  0  0  0  0999 V2000
  190.5870  176.9660  144.8410 C   0  0  0  0  0  0  0  0  0  0  0  0
  189.3850  177.3720  145.4640 C   0  0  0  0  0  0  0  0  0  0  0  0
  191.5100  176.4470  146.9660 C   0  0  0  0  0  3  0  0  0  0  0  0
  185.8030  178.5670  144.7160 N   0  0  0  0  0  2  0  0  0  0  0  0
  190.3640  176.8290  147.5800 N   0  0  0  0  0  0  0  0  0  0  0  0
  188.0630  177.6880  147.5300 C   0  0  0  0  0  0  0  0  0  0  0  0
  187.9580  177.6310  148.8170 N   0  0  0  0  0  2  0  0  0  0  0  0
  184.5020  178.8040  145.2680 C   0  0  0  0  0  0  0  0  0  0  0  0
  188.2510  177.9820  144.6720 C   0  0  0  0  0  2  0  0  0  0  0  0
  191.6130  176.5180  145.6150 N   0  0  0  0  0  0  0  0  0  0  0  0
  186.9320  178.0710  146.7450 N   0  0  0  0  0  0  0  0  0  0  0  0
  186.9720  178.1820  145.4480 C   0  0  0  0  0  0  0  0  0  0  0  0
  189.3070  177.2890  146.8620 C   0  0  0  0  0  0  0  0  0  0  0  0
  184.2830  178.6550  146.5010 O   0  0  0  0  0  0  0  0  0  0  0  0
  190.7680  176.9990  143.3690 C   0  0  0  0  0  0  0  0  0  0  0  0
  191.1050  177.1550  140.5820 C   0  0  0  0  0  3  0  0  0  0  0  0
  189.8740  176.3300  142.5030 C   0  0  0  0  0  0  0  0  0  0  0  0
  190.0530  176.4090  141.1180 C   0  0  0  0  0  3  0  0  0  0  0  0
  191.9860  177.8250  141.4310 C   0  0  0  0  0  3  0  0  0  0  0  0
  188.8040  175.5410  143.0140 N   0  0  0  0  0  1  0  0  0  0  0  0
  191.8160  177.7500  142.8150 C   0  0  0  0  0  3  0  0  0  0  0  0
  183.3860  179.1960  144.3560 C   0  0  2  0  0  3  0  0  0  0  0  0
  182.1780  178.6810  144.7950 F   0  0  0  0  0  0  0  0  0  0  0  0
  182.3960  178.7650  142.0750 C   0  0  0  0  0  1  0  0  0  0  0  0
  183.6650  178.7890  142.9120 C   0  0  0  0  0  2  0  0  0  0  0  0
  1  2  2  0  0  0  0
  1 10  1  0  0  0  0
  2 13  1  0  0  0  0
  3  5  1  0  0  0  0
  4  8  1  0  0  0  0
  4 12  1  0  0  0  0
  6  7  2  0  0  0  0
  8 14  2  0  0  0  0
  9 12  1  0  0  0  0
  9  2  1  0  0  0  0
 10  3  2  0  0  0  0
 11  6  1  0  0  0  0
 12 11  2  0  0  0  0
 13  6  1  0  0  0  0
 13  5  2  0  0  0  0
 15  1  1  0  0  0  0
 16 18  2  0  0  0  0
 16 19  1  0  0  0  0
 17 20  1  0  0  0  0
 17 15  2  0  0  0  0
 18 17  1  0  0  0  0
 19 21  2  0  0  0  0
 21 15  1  0  0  0  0
 22 23  1  1  0  0  0
 22  8  1  0  0  0  0
 24 25  1  0  0  0  0
 25 22  1  0  0  0  0
M  END
>  <MODEL>
1

>  <REMARK>
 VINA RESULT:      -9.4      0.000      0.000
  Name = 
  3 active torsions:
  status: ('A' for Active; 'I' for Inactive)
    1  A    between atoms: C_1  and  C_5
    2  A    between atoms: C_2  and  C_15
    3  A    between atoms: C_2  and  C_21
                            x       y       z     vdW  Elec       q    Type
                         _______ _______ _______ _____ _____    ______ ____

>  <TORSDO>
F 3

$$$$
=
 OpenBabel10272400423D

 25 27  0  0  1  0  0  0  0  0999 V2000
  187.1080  177.7460  145.1020 C   0  0  0  0  0  0  0  0  0  0  0  0
  188.1430  177.4230  144.1970 C   0  0  0  0  0  0  0  0  0  0  0  0
  188.5710  177.3250  146.9240 C   0  0  0  0  0  3  0  0  0  0  0  0
  189.0130  177.3320  140.4470 N   0  0  0  0  0  2  0  0  0  0  0  0
  189.5770  177.0140  146.0700 N   0  0  0  0  0  0  0  0  0  0  0  0
  190.4850  176.7300  143.8050 C   0  0  0  0  0  0  0  0  0  0  0  0
  191.6430  176.3790  144.2570 N   0  0  0  0  0  2  0  0  0  0  0  0
  190.0690  177.2070  139.4880 C   0  0  0  0  0  0  0  0  0  0  0  0
  187.9000  177.3640  142.7060 C   0  0  0  0  0  2  0  0  0  0  0  0
  187.3560  177.6850  146.4390 N   0  0  0  0  0  0  0  0  0  0  0  0
  190.2900  176.8770  142.3970 N   0  0  0  0  0  0  0  0  0  0  0  0
  189.1440  177.1950  141.8680 C   0  0  0  0  0  0  0  0  0  0  0  0
  189.3890  177.0540  144.7250 C   0  0  0  0  0  0  0  0  0  0  0  0
  191.2550  176.9840  139.8520 O   0  0  0  0  0  0  0  0  0  0  0  0
  185.7590  178.1640  144.6480 C   0  0  0  0  0  0  0  0  0  0  0  0
  183.2430  179.0180  143.7280 C   0  0  0  0  0  3  0  0  0  0  0  0
  184.7990  178.6660  145.5560 C   0  0  0  0  0  0  0  0  0  0  0  0
  183.5480  179.0830  145.0890 C   0  0  0  0  0  3  0  0  0  0  0  0
  184.1880  178.5320  142.8250 C   0  0  0  0  0  3  0  0  0  0  0  0
  185.0680  178.7260  146.9530 N   0  0  0  0  0  1  0  0  0  0  0  0
  185.4390  178.1100  143.2820 C   0  0  0  0  0  3  0  0  0  0  0  0
  189.7570  177.3850  138.0370 C   0  0  2  0  0  3  0  0  0  0  0  0
  190.8780  177.1640  137.2550 F   0  0  0  0  0  0  0  0  0  0  0  0
  187.9150  178.6570  136.8710 C   0  0  0  0  0  1  0  0  0  0  0  0
  189.1500  178.7560  137.7530 C   0  0  0  0  0  2  0  0  0  0  0  0
  1 10  1  0  0  0  0
  2 13  1  0  0  0  0
  2  1  2  0  0  0  0
  4 12  1  0  0  0  0
  5  3  1  0  0  0  0
  6  7  2  0  0  0  0
  6 13  1  0  0  0  0
  8 14  2  0  0  0  0
  8  4  1  0  0  0  0
  9  2  1  0  0  0  0
 10  3  2  0  0  0  0
 11  6  1  0  0  0  0
 12 11  2  0  0  0  0
 12  9  1  0  0  0  0
 13  5  2  0  0  0  0
 15  1  1  0  0  0  0
 15 17  1  0  0  0  0
 16 18  1  0  0  0  0
 17 20  1  0  0  0  0
 18 17  2  0  0  0  0
 19 21  1  0  0  0  0
 19 16  2  0  0  0  0
 21 15  2  0  0  0  0
 22 23  1  6  0  0  0
 22  8  1  0  0  0  0
 24 25  1  0  0  0  0
 25 22  1  0  0  0  0
M  END
>  <MODEL>
2

>  <REMARK>
 VINA RESULT:      -9.0      3.583      6.458
  Name = 
  3 active torsions:
  status: ('A' for Active; 'I' for Inactive)
    1  A    between atoms: C_1  and  C_5
    2  A    between atoms: C_2  and  C_15
    3  A    between atoms: C_2  and  C_21
                            x       y       z     vdW  Elec       q    Type
                         _______ _______ _______ _____ _____    ______ ____

>  <TORSDO>
F 3

$$$$
=
 OpenBabel10272400423D

 25 27  0  0  1  0  0  0  0  0999 V2000
  187.1740  177.8340  145.7470 C   0  0  0  0  0  0  0  0  0  0  0  0
  188.3830  177.5580  145.0690 C   0  0  0  0  0  0  0  0  0  0  0  0
  188.2810  177.5570  147.8300 C   0  0  0  0  0  3  0  0  0  0  0  0
  189.9650  177.4310  141.5620 N   0  0  0  0  0  2  0  0  0  0  0  0
  189.4500  177.2930  147.1960 N   0  0  0  0  0  0  0  0  0  0  0  0
  190.7930  177.0130  145.1600 C   0  0  0  0  0  0  0  0  0  0  0  0
  191.8620  176.7520  145.8370 N   0  0  0  0  0  2  0  0  0  0  0  0
  191.1920  177.3540  140.8270 C   0  0  0  0  0  0  0  0  0  0  0  0
  188.4370  177.4470  143.5630 C   0  0  0  0  0  2  0  0  0  0  0  0
  187.1620  177.8240  147.1080 N   0  0  0  0  0  0  0  0  0  0  0  0
  190.8660  177.1110  143.7360 N   0  0  0  0  0  0  0  0  0  0  0  0
  189.8260  177.3390  142.9850 C   0  0  0  0  0  0  0  0  0  0  0  0
  189.5230  177.2860  145.8400 C   0  0  0  0  0  0  0  0  0  0  0  0
  192.2970  177.2190  141.4200 O   0  0  0  0  0  0  0  0  0  0  0  0
  185.9160  178.1510  145.0280 C   0  0  0  0  0  0  0  0  0  0  0  0
  183.5780  178.8120  143.6120 C   0  0  0  0  0  3  0  0  0  0  0  0
  184.7740  178.6230  145.7140 C   0  0  0  0  0  0  0  0  0  0  0  0
  183.6140  178.9450  145.0010 C   0  0  0  0  0  3  0  0  0  0  0  0
  184.7040  178.3540  142.9270 C   0  0  0  0  0  3  0  0  0  0  0  0
  184.7670  178.7500  147.1330 N   0  0  0  0  0  1  0  0  0  0  0  0
  185.8650  178.0290  143.6300 C   0  0  0  0  0  3  0  0  0  0  0  0
  191.1560  177.4740  139.3380 C   0  0  2  0  0  3  0  0  0  0  0  0
  189.9390  177.9720  138.9070 F   0  0  0  0  0  0  0  0  0  0  0  0
  192.8520  176.1730  137.9950 C   0  0  0  0  0  1  0  0  0  0  0  0
  191.4820  176.1490  138.6560 C   0  0  0  0  0  2  0  0  0  0  0  0
  1 10  1  0  0  0  0
  2  1  2  0  0  0  0
  2 13  1  0  0  0  0
  4 12  1  0  0  0  0
  5  3  1  0  0  0  0
  6  7  2  0  0  0  0
  6 13  1  0  0  0  0
  8 14  2  0  0  0  0
  8  4  1  0  0  0  0
  9  2  1  0  0  0  0
 10  3  2  0  0  0  0
 11  6  1  0  0  0  0
 12  9  1  0  0  0  0
 12 11  2  0  0  0  0
 13  5  2  0  0  0  0
 15 17  1  0  0  0  0
 15  1  1  0  0  0  0
 16 18  1  0  0  0  0
 17 20  1  0  0  0  0
 18 17  2  0  0  0  0
 19 16  2  0  0  0  0
 19 21  1  0  0  0  0
 21 15  2  0  0  0  0
 22 23  1  1  0  0  0
 22  8  1  0  0  0  0
 24 25  1  0  0  0  0
 25 22  1  0  0  0  0
M  END
>  <MODEL>
3

>  <REMARK>
 VINA RESULT:      -9.0      3.069      6.509
  Name = 
  3 active torsions:
  status: ('A' for Active; 'I' for Inactive)
    1  A    between atoms: C_1  and  C_5
    2  A    between atoms: C_2  and  C_15
    3  A    between atoms: C_2  and  C_21
                            x       y       z     vdW  Elec       q    Type
                         _______ _______ _______ _____ _____    ______ ____

>  <TORSDO>
F 3

$$$$
=
 OpenBabel10272400423D

 25 27  0  0  1  0  0  0  0  0999 V2000
  185.2940  178.3890  144.3300 C   0  0  0  0  0  0  0  0  0  0  0  0
  185.4330  178.5640  142.9350 C   0  0  0  0  0  0  0  0  0  0  0  0
  182.9620  178.7940  144.1470 C   0  0  0  0  0  3  0  0  0  0  0  0
  187.9860  178.3450  140.0620 N   0  0  0  0  0  2  0  0  0  0  0  0
  183.0750  178.9620  142.8070 N   0  0  0  0  0  0  0  0  0  0  0  0
  184.3960  179.0240  140.7370 C   0  0  0  0  0  0  0  0  0  0  0  0
  183.3570  179.3000  140.0200 N   0  0  0  0  0  2  0  0  0  0  0  0
  188.1570  178.3160  138.6400 C   0  0  0  0  0  0  0  0  0  0  0  0
  186.7890  178.5500  142.2670 C   0  0  0  0  0  2  0  0  0  0  0  0
  184.0600  178.5120  144.8920 N   0  0  0  0  0  0  0  0  0  0  0  0
  185.6570  178.8070  140.1000 N   0  0  0  0  0  0  0  0  0  0  0  0
  186.7520  178.5570  140.7580 C   0  0  0  0  0  0  0  0  0  0  0  0
  184.2810  178.8550  142.1900 C   0  0  0  0  0  0  0  0  0  0  0  0
  187.1730  178.4570  137.8640 O   0  0  0  0  0  0  0  0  0  0  0  0
  186.4450  178.0630  145.2070 C   0  0  0  0  0  0  0  0  0  0  0  0
  188.6140  177.3520  146.8490 C   0  0  0  0  0  3  0  0  0  0  0  0
  186.4650  178.4420  146.5680 C   0  0  0  0  0  0  0  0  0  0  0  0
  187.5510  178.0880  147.3760 C   0  0  0  0  0  3  0  0  0  0  0  0
  188.5980  176.9670  145.5090 C   0  0  0  0  0  3  0  0  0  0  0  0
  185.4090  179.2120  147.1330 N   0  0  0  0  0  1  0  0  0  0  0  0
  187.5190  177.3170  144.6940 C   0  0  0  0  0  3  0  0  0  0  0  0
  189.5200  178.0760  138.0760 C   0  0  2  0  0  3  0  0  0  0  0  0
  189.4980  178.0930  136.6920 F   0  0  0  0  0  0  0  0  0  0  0  0
  191.2580  177.0400  139.5840 C   0  0  0  0  0  1  0  0  0  0  0  0
  190.1280  176.7780  138.6010 C   0  0  0  0  0  2  0  0  0  0  0  0
  1 10  1  0  0  0  0
  1 15  1  0  0  0  0
  2  1  2  0  0  0  0
  3 10  2  0  0  0  0
  4 12  1  0  0  0  0
  5  3  1  0  0  0  0
  6 13  1  0  0  0  0
  7  6  2  0  0  0  0
  8  4  1  0  0  0  0
  9  2  1  0  0  0  0
 11  6  1  0  0  0  0
 11 12  2  0  0  0  0
 12  9  1  0  0  0  0
 13  5  2  0  0  0  0
 13  2  1  0  0  0  0
 14  8  2  0  0  0  0
 15 17  1  0  0  0  0
 16 18  1  0  0  0  0
 17 20  1  0  0  0  0
 17 18  2  0  0  0  0
 19 16  2  0  0  0  0
 21 15  2  0  0  0  0
 21 19  1  0  0  0  0
 22 23  1  6  0  0  0
 22 25  1  0  0  0  0
 22  8  1  0  0  0  0
 25 24  1  0  0  0  0
M  END
>  <MODEL>
4

>  <REMARK>
 VINA RESULT:      -8.8      3.902      7.296
  Name = 
  3 active torsions:
  status: ('A' for Active; 'I' for Inactive)
    1  A    between atoms: C_1  and  C_5
    2  A    between atoms: C_2  and  C_15
    3  A    between atoms: C_2  and  C_21
                            x       y       z     vdW  Elec       q    Type
                         _______ _______ _______ _____ _____    ______ ____

>  <TORSDO>
F 3

$$$$
=
 OpenBabel10272400423D

 25 27  0  0  1  0  0  0  0  0999 V2000
  188.0190  177.8280  145.0180 C   0  0  0  0  0  0  0  0  0  0  0  0
  186.8100  178.1990  144.3890 C   0  0  0  0  0  0  0  0  0  0  0  0
  186.9340  177.8770  147.1290 C   0  0  0  0  0  3  0  0  0  0  0  0
  185.2010  178.7590  140.9360 N   0  0  0  0  0  2  0  0  0  0  0  0
  185.7650  178.2310  146.5430 N   0  0  0  0  0  0  0  0  0  0  0  0
  184.4090  178.7670  144.5660 C   0  0  0  0  0  0  0  0  0  0  0  0
  183.3510  178.9640  145.2800 N   0  0  0  0  0  2  0  0  0  0  0  0
  183.9690  178.9400  140.2280 C   0  0  0  0  0  0  0  0  0  0  0  0
  186.7450  178.4870  142.9060 C   0  0  0  0  0  2  0  0  0  0  0  0
  188.0430  177.6800  146.3710 N   0  0  0  0  0  0  0  0  0  0  0  0
  184.3230  178.8360  143.1410 N   0  0  0  0  0  0  0  0  0  0  0  0
  185.3520  178.6820  142.3590 C   0  0  0  0  0  0  0  0  0  0  0  0
  185.6810  178.3970  145.1970 C   0  0  0  0  0  0  0  0  0  0  0  0
  182.8710  179.0210  140.8440 O   0  0  0  0  0  0  0  0  0  0  0  0
  189.2660  177.5790  144.2540 C   0  0  0  0  0  0  0  0  0  0  0  0
  191.6220  177.1930  142.7680 C   0  0  0  0  0  3  0  0  0  0  0  0
  189.3800  176.4860  143.3650 C   0  0  0  0  0  0  0  0  0  0  0  0
  190.5570  176.3000  142.6340 C   0  0  0  0  0  3  0  0  0  0  0  0
  191.5140  178.2790  143.6360 C   0  0  0  0  0  3  0  0  0  0  0  0
  188.3230  175.5420  143.2200 N   0  0  0  0  0  1  0  0  0  0  0  0
  190.3430  178.4720  144.3720 C   0  0  0  0  0  3  0  0  0  0  0  0
  183.9900  178.9940  138.7350 C   0  0  2  0  0  3  0  0  0  0  0  0
  182.7180  179.1880  138.2240 F   0  0  0  0  0  0  0  0  0  0  0  0
  186.0340  178.0420  137.6000 C   0  0  0  0  0  1  0  0  0  0  0  0
  184.6400  177.7510  138.1330 C   0  0  0  0  0  2  0  0  0  0  0  0
  1 10  1  0  0  0  0
  2  1  2  0  0  0  0
  2 13  1  0  0  0  0
  4 12  1  0  0  0  0
  5  3  1  0  0  0  0
  6 13  1  0  0  0  0
  6  7  2  0  0  0  0
  8 14  2  0  0  0  0
  8  4  1  0  0  0  0
  9  2  1  0  0  0  0
 10  3  2  0  0  0  0
 11  6  1  0  0  0  0
 12  9  1  0  0  0  0
 12 11  2  0  0  0  0
 13  5  2  0  0  0  0
 15 21  1  0  0  0  0
 15  1  1  0  0  0  0
 16 19  1  0  0  0  0
 17 15  2  0  0  0  0
 18 16  2  0  0  0  0
 18 17  1  0  0  0  0
 19 21  2  0  0  0  0
 20 17  1  0  0  0  0
 22 23  1  6  0  0  0
 22  8  1  0  0  0  0
 24 25  1  0  0  0  0
 25 22  1  0  0  0  0
M  END
>  <MODEL>
5

>  <REMARK>
 VINA RESULT:      -8.7      2.828      4.117
  Name = 
  3 active torsions:
  status: ('A' for Active; 'I' for Inactive)
    1  A    between atoms: C_1  and  C_5
    2  A    between atoms: C_2  and  C_15
    3  A    between atoms: C_2  and  C_21
                            x       y       z     vdW  Elec       q    Type
                         _______ _______ _______ _____ _____    ______ ____

>  <TORSDO>
F 3

$$$$
=
 OpenBabel10272400423D

 25 27  0  0  1  0  0  0  0  0999 V2000
  188.9370  177.5290  145.2580 C   0  0  0  0  0  0  0  0  0  0  0  0
  187.5730  177.8880  145.1840 C   0  0  0  0  0  0  0  0  0  0  0  0
  188.7930  177.4800  147.6280 C   0  0  0  0  0  3  0  0  0  0  0  0
  184.7050  178.5170  142.6940 N   0  0  0  0  0  2  0  0  0  0  0  0
  187.4820  177.8220  147.5750 N   0  0  0  0  0  0  0  0  0  0  0  0
  185.4400  178.3860  146.3330 C   0  0  0  0  0  0  0  0  0  0  0  0
  184.7570  178.5320  147.4200 N   0  0  0  0  0  2  0  0  0  0  0  0
  183.2900  178.6890  142.5480 C   0  0  0  0  0  0  0  0  0  0  0  0
  186.9140  178.2220  143.8650 C   0  0  0  0  0  2  0  0  0  0  0  0
  189.5040  177.3370  146.4800 N   0  0  0  0  0  0  0  0  0  0  0  0
  184.7870  178.5000  145.0670 N   0  0  0  0  0  0  0  0  0  0  0  0
  185.4160  178.3980  143.9310 C   0  0  0  0  0  0  0  0  0  0  0  0
  186.8620  178.0300  146.3850 C   0  0  0  0  0  0  0  0  0  0  0  0
  182.5320  178.7210  143.5550 O   0  0  0  0  0  0  0  0  0  0  0  0
  189.7740  177.3380  144.0480 C   0  0  0  0  0  0  0  0  0  0  0  0
  191.3940  176.8960  141.7930 C   0  0  0  0  0  3  0  0  0  0  0  0
  190.7190  178.3080  143.6460 C   0  0  0  0  0  0  0  0  0  0  0  0
  191.5170  178.0820  142.5200 C   0  0  0  0  0  3  0  0  0  0  0  0
  190.4690  175.9290  142.1890 C   0  0  0  0  0  3  0  0  0  0  0  0
  190.8560  179.5390  144.3500 N   0  0  0  0  0  1  0  0  0  0  0  0
  189.6670  176.1480  143.3110 C   0  0  0  0  0  3  0  0  0  0  0  0
  182.7080  178.7910  141.1750 C   0  0  2  0  0  3  0  0  0  0  0  0
  181.5340  178.0640  141.0750 F   0  0  0  0  0  0  0  0  0  0  0  0
  184.1130  179.5370  139.2160 C   0  0  0  0  0  1  0  0  0  0  0  0
  183.7090  178.3700  140.1030 C   0  0  0  0  0  2  0  0  0  0  0  0
  1 10  1  0  0  0  0
  2  1  2  0  0  0  0
  2 13  1  0  0  0  0
  4 12  1  0  0  0  0
  5  3  1  0  0  0  0
  6 13  1  0  0  0  0
  6  7  2  0  0  0  0
  8  4  1  0  0  0  0
  8 14  2  0  0  0  0
  9 12  1  0  0  0  0
  9  2  1  0  0  0  0
 10  3  2  0  0  0  0
 11  6  1  0  0  0  0
 12 11  2  0  0  0  0
 13  5  2  0  0  0  0
 15  1  1  0  0  0  0
 16 19  2  0  0  0  0
 16 18  1  0  0  0  0
 17 15  1  0  0  0  0
 17 20  1  0  0  0  0
 18 17  2  0  0  0  0
 19 21  1  0  0  0  0
 21 15  2  0  0  0  0
 22 23  1  1  0  0  0
 22  8  1  0  0  0  0
 24 25  1  0  0  0  0
 25 22  1  0  0  0  0
M  END
>  <MODEL>
6

>  <REMARK>
 VINA RESULT:      -8.7      1.870      2.809
  Name = 
  3 active torsions:
  status: ('A' for Active; 'I' for Inactive)
    1  A    between atoms: C_1  and  C_5
    2  A    between atoms: C_2  and  C_15
    3  A    between atoms: C_2  and  C_21
                            x       y       z     vdW  Elec       q    Type
                         _______ _______ _______ _____ _____    ______ ____

>  <TORSDO>
F 3

$$$$
=
 OpenBabel10272400423D

 25 27  0  0  1  0  0  0  0  0999 V2000
  190.1230  176.8550  137.9610 C   0  0  0  0  0  0  0  0  0  0  0  0
  189.7730  177.1620  139.2950 C   0  0  0  0  0  0  0  0  0  0  0  0
  188.2790  178.1330  137.1850 C   0  0  0  0  0  3  0  0  0  0  0  0
  190.9410  176.7410  142.9400 N   0  0  0  0  0  2  0  0  0  0  0  0
  187.9300  178.4400  138.4590 N   0  0  0  0  0  0  0  0  0  0  0  0
  188.2750  178.3180  140.8870 C   0  0  0  0  0  0  0  0  0  0  0  0
  187.2420  179.0560  141.1240 N   0  0  0  0  0  2  0  0  0  0  0  0
  190.7540  177.1740  144.2920 C   0  0  0  0  0  0  0  0  0  0  0  0
  190.5110  176.5530  140.4660 C   0  0  0  0  0  2  0  0  0  0  0  0
  189.3620  177.3510  136.9470 N   0  0  0  0  0  0  0  0  0  0  0  0
  189.1060  177.8960  141.9710 N   0  0  0  0  0  0  0  0  0  0  0  0
  190.1440  177.1260  141.8130 C   0  0  0  0  0  0  0  0  0  0  0  0
  188.6490  177.9720  139.5120 C   0  0  0  0  0  0  0  0  0  0  0  0
  189.8410  177.9900  144.5930 O   0  0  0  0  0  0  0  0  0  0  0  0
  191.3020  176.0210  137.6220 C   0  0  0  0  0  0  0  0  0  0  0  0
  193.5540  174.4970  136.9070 C   0  0  0  0  0  3  0  0  0  0  0  0
  191.1730  174.6410  137.3430 C   0  0  0  0  0  0  0  0  0  0  0  0
  192.2990  173.8910  136.9930 C   0  0  0  0  0  3  0  0  0  0  0  0
  193.6890  175.8600  137.1720 C   0  0  0  0  0  3  0  0  0  0  0  0
  189.9120  173.9850  137.4430 N   0  0  0  0  0  1  0  0  0  0  0  0
  192.5700  176.6170  137.5240 C   0  0  0  0  0  3  0  0  0  0  0  0
  191.6840  176.6760  145.3500 C   0  0  2  0  0  3  0  0  0  0  0  0
  192.1430  175.4040  145.0520 F   0  0  0  0  0  0  0  0  0  0  0  0
  191.9380  176.0970  147.7930 C   0  0  0  0  0  1  0  0  0  0  0  0
  191.0430  176.7200  146.7340 C   0  0  0  0  0  2  0  0  0  0  0  0
  1  2  1  0  0  0  0
  2 13  2  0  0  0  0
  2  9  1  0  0  0  0
  3  5  2  0  0  0  0
  4  8  1  0  0  0  0
  5 13  1  0  0  0  0
  6  7  2  0  0  0  0
  6 11  1  0  0  0  0
  8 14  2  0  0  0  0
  8 22  1  0  0  0  0
  9 12  1  0  0  0  0
 10  3  1  0  0  0  0
 10  1  2  0  0  0  0
 12 11  2  0  0  0  0
 12  4  1  0  0  0  0
 13  6  1  0  0  0  0
 15  1  1  0  0  0  0
 16 18  2  0  0  0  0
 16 19  1  0  0  0  0
 17 20  1  0  0  0  0
 17 15  2  0  0  0  0
 18 17  1  0  0  0  0
 19 21  2  0  0  0  0
 21 15  1  0  0  0  0
 22 23  1  6  0  0  0
 22 25  1  0  0  0  0
 25 24  1  0  0  0  0
M  END
>  <MODEL>
7

>  <REMARK>
 VINA RESULT:      -8.5      4.254      7.256
  Name = 
  3 active torsions:
  status: ('A' for Active; 'I' for Inactive)
    1  A    between atoms: C_1  and  C_5
    2  A    between atoms: C_2  and  C_15
    3  A    between atoms: C_2  and  C_21
                            x       y       z     vdW  Elec       q    Type
                         _______ _______ _______ _____ _____    ______ ____

>  <TORSDO>
F 3

$$$$
=
 OpenBabel10272400423D

 25 27  0  0  1  0  0  0  0  0999 V2000
  190.0100  177.1080  138.5820 C   0  0  0  0  0  0  0  0  0  0  0  0
  189.8790  177.3170  139.9740 C   0  0  0  0  0  0  0  0  0  0  0  0
  192.3570  176.8670  138.8410 C   0  0  0  0  0  3  0  0  0  0  0  0
  187.2710  177.8050  142.7630 N   0  0  0  0  0  2  0  0  0  0  0  0
  192.2510  177.0630  140.1780 N   0  0  0  0  0  0  0  0  0  0  0  0
  190.9310  177.4860  142.2060 C   0  0  0  0  0  0  0  0  0  0  0  0
  191.9820  177.4720  142.9570 N   0  0  0  0  0  2  0  0  0  0  0  0
  187.0530  177.8280  144.1790 C   0  0  0  0  0  0  0  0  0  0  0  0
  188.5490  177.6730  140.5980 C   0  0  0  0  0  2  0  0  0  0  0  0
  191.2480  176.8900  138.0600 N   0  0  0  0  0  0  0  0  0  0  0  0
  189.6380  177.6200  142.8010 N   0  0  0  0  0  0  0  0  0  0  0  0
  188.5380  177.6740  142.1070 C   0  0  0  0  0  0  0  0  0  0  0  0
  191.0420  177.2880  140.7560 C   0  0  0  0  0  0  0  0  0  0  0  0
  188.0130  177.7000  144.9860 O   0  0  0  0  0  0  0  0  0  0  0  0
  188.8420  177.1030  137.6680 C   0  0  0  0  0  0  0  0  0  0  0  0
  186.6730  177.0320  135.8800 C   0  0  0  0  0  3  0  0  0  0  0  0
  188.3810  178.2900  137.0540 C   0  0  0  0  0  0  0  0  0  0  0  0
  187.2990  178.2450  136.1710 C   0  0  0  0  0  3  0  0  0  0  0  0
  187.1270  175.8540  136.4740 C   0  0  0  0  0  3  0  0  0  0  0  0
  188.9810  179.5490  137.3450 N   0  0  0  0  0  1  0  0  0  0  0  0
  188.2060  175.8900  137.3600 C   0  0  0  0  0  3  0  0  0  0  0  0
  185.6590  177.9670  144.6970 C   0  0  2  0  0  3  0  0  0  0  0  0
  184.7450  178.0390  143.6600 F   0  0  0  0  0  0  0  0  0  0  0  0
  185.5710  178.7450  147.0970 C   0  0  0  0  0  1  0  0  0  0  0  0
  185.5210  179.1630  145.6350 C   0  0  0  0  0  2  0  0  0  0  0  0
  1  2  1  0  0  0  0
  2  9  1  0  0  0  0
  2 13  2  0  0  0  0
  3  5  2  0  0  0  0
  4  8  1  0  0  0  0
  5 13  1  0  0  0  0
  6 11  1  0  0  0  0
  6  7  2  0  0  0  0
  8 22  1  0  0  0  0
  8 14  2  0  0  0  0
  9 12  1  0  0  0  0
 10  1  2  0  0  0  0
 10  3  1  0  0  0  0
 12  4  1  0  0  0  0
 12 11  2  0  0  0  0
 13  6  1  0  0  0  0
 15  1  1  0  0  0  0
 16 18  2  0  0  0  0
 16 19  1  0  0  0  0
 17 20  1  0  0  0  0
 17 15  2  0  0  0  0
 18 17  1  0  0  0  0
 19 21  2  0  0  0  0
 21 15  1  0  0  0  0
 22 23  1  6  0  0  0
 22 25  1  0  0  0  0
 25 24  1  0  0  0  0
M  END
>  <MODEL>
8

>  <REMARK>
 VINA RESULT:      -8.5      3.667      5.738
  Name = 
  3 active torsions:
  status: ('A' for Active; 'I' for Inactive)
    1  A    between atoms: C_1  and  C_5
    2  A    between atoms: C_2  and  C_15
    3  A    between atoms: C_2  and  C_21
                            x       y       z     vdW  Elec       q    Type
                         _______ _______ _______ _____ _____    ______ ____

>  <TORSDO>
F 3

$$$$
=
 OpenBabel10272400423D

 25 27  0  0  1  0  0  0  0  0999 V2000
  187.8960  177.5860  145.4020 C   0  0  0  0  0  0  0  0  0  0  0  0
  187.5150  177.9280  144.0850 C   0  0  0  0  0  0  0  0  0  0  0  0
  185.6690  177.9490  146.1390 C   0  0  0  0  0  3  0  0  0  0  0  0
  188.8270  178.1170  140.4700 N   0  0  0  0  0  2  0  0  0  0  0  0
  185.2850  178.2780  144.8810 N   0  0  0  0  0  0  0  0  0  0  0  0
  185.7520  178.6180  142.4940 C   0  0  0  0  0  0  0  0  0  0  0  0
  184.5280  178.9500  142.2480 N   0  0  0  0  0  2  0  0  0  0  0  0
  188.4620  178.2610  139.0930 C   0  0  0  0  0  0  0  0  0  0  0  0
  188.5300  178.0280  142.9690 C   0  0  0  0  0  2  0  0  0  0  0  0
  186.9590  177.6090  146.3880 N   0  0  0  0  0  0  0  0  0  0  0  0
  186.6850  178.5110  141.4170 N   0  0  0  0  0  0  0  0  0  0  0  0
  187.9410  178.2130  141.5920 C   0  0  0  0  0  0  0  0  0  0  0  0
  186.1760  178.2760  143.8560 C   0  0  0  0  0  0  0  0  0  0  0  0
  187.2650  178.4680  138.7560 O   0  0  0  0  0  0  0  0  0  0  0  0
  189.2830  177.1870  145.7480 C   0  0  0  0  0  0  0  0  0  0  0  0
  191.8950  176.3490  146.3630 C   0  0  0  0  0  3  0  0  0  0  0  0
  189.7330  177.1750  147.0880 C   0  0  0  0  0  0  0  0  0  0  0  0
  191.0360  176.7620  147.3830 C   0  0  0  0  0  3  0  0  0  0  0  0
  191.4560  176.3490  145.0390 C   0  0  0  0  0  3  0  0  0  0  0  0
  188.8910  177.6110  148.1510 N   0  0  0  0  0  1  0  0  0  0  0  0
  190.1570  176.7630  144.7340 C   0  0  0  0  0  3  0  0  0  0  0  0
  189.5170  178.1250  138.0430 C   0  0  2  0  0  3  0  0  0  0  0  0
  189.1040  178.6800  136.8440 F   0  0  0  0  0  0  0  0  0  0  0  0
  191.3660  176.4340  138.3470 C   0  0  0  0  0  1  0  0  0  0  0  0
  189.9460  176.6720  137.8580 C   0  0  0  0  0  2  0  0  0  0  0  0
  1 15  1  0  0  0  0
  1 10  1  0  0  0  0
  2  1  2  0  0  0  0
  3 10  2  0  0  0  0
  4 12  1  0  0  0  0
  5  3  1  0  0  0  0
  6 13  1  0  0  0  0
  7  6  2  0  0  0  0
  8  4  1  0  0  0  0
  9  2  1  0  0  0  0
 11 12  2  0  0  0  0
 11  6  1  0  0  0  0
 12  9  1  0  0  0  0
 13  2  1  0  0  0  0
 13  5  2  0  0  0  0
 14  8  2  0  0  0  0
 15 17  1  0  0  0  0
 16 18  1  0  0  0  0
 17 18  2  0  0  0  0
 17 20  1  0  0  0  0
 19 16  2  0  0  0  0
 21 19  1  0  0  0  0
 21 15  2  0  0  0  0
 22 23  1  6  0  0  0
 22  8  1  0  0  0  0
 25 22  1  0  0  0  0
 25 24  1  0  0  0  0
M  END
>  <MODEL>
9

>  <REMARK>
 VINA RESULT:      -8.4      3.389      6.107
  Name = 
  3 active torsions:
  status: ('A' for Active; 'I' for Inactive)
    1  A    between atoms: C_1  and  C_5
    2  A    between atoms: C_2  and  C_15
    3  A    between atoms: C_2  and  C_21
                            x       y       z     vdW  Elec       q    Type
                         _______ _______ _______ _____ _____    ______ ____

>  <TORSDO>
F 3

$$$$
