=
 OpenBabel10272401093D

 27 30  0  0  1  0  0  0  0  0999 V2000
  189.9950  177.0170  140.3630 C   0  0  0  0  0  0  0  0  0  0  0  0
  191.0740  176.5230  139.9470 O   0  0  0  0  0  0  0  0  0  0  0  0
  187.4950  177.9500  141.2580 C   0  0  1  0  0  3  0  0  0  0  0  0
  189.3950  176.5380  141.6480 C   0  0  0  0  0  2  0  0  0  0  0  0
  189.2810  177.9570  139.5620 N   0  0  0  0  0  2  0  0  0  0  0  0
  188.1670  178.7140  140.1160 C   0  0  0  0  0  2  0  0  0  0  0  0
  188.5190  177.5480  142.2460 N   0  0  0  0  0  0  0  0  0  0  0  0
  186.4600  178.8910  141.8650 C   0  0  0  0  0  2  0  0  0  0  0  0
  185.1440  178.6050  141.3140 N   0  0  0  0  0  2  0  0  0  0  0  0
  181.6260  178.8340  143.6540 C   0  0  0  0  0  3  0  0  0  0  0  0
  183.9480  178.6690  142.0920 C   0  0  0  0  0  0  0  0  0  0  0  0
  184.0420  178.8090  143.4810 C   0  0  0  0  0  3  0  0  0  0  0  0
  182.8840  178.8900  144.2610 C   0  0  0  0  0  3  0  0  0  0  0  0
  181.5260  178.6950  142.2670 C   0  0  0  0  0  3  0  0  0  0  0  0
  182.6820  178.6150  141.4870 C   0  0  0  0  0  3  0  0  0  0  0  0
  187.8840  176.8660  143.3710 C   0  0  0  0  0  2  0  0  0  0  0  0
  186.7990  177.6000  145.4690 C   0  0  0  0  0  2  0  0  0  0  0  0
  190.3930  176.6750  147.5710 C   0  0  0  0  0  3  0  0  0  0  0  0
  192.6950  176.0610  147.5960 F   0  0  0  0  0  0  0  0  0  0  0  0
  187.0140  178.1790  146.8570 C   0  0  0  0  0  2  0  0  0  0  0  0
  190.5200  176.9440  144.7950 C   0  0  0  0  0  3  0  0  0  0  0  0
  191.6580  176.5700  145.5130 C   0  0  0  0  0  3  0  0  0  0  0  0
  189.2980  177.1640  145.4500 C   0  0  0  0  0  0  0  0  0  0  0  0
  191.5920  176.4290  146.8990 C   0  0  0  0  0  0  0  0  0  0  0  0
  189.2520  177.0610  146.8610 C   0  0  0  0  0  0  0  0  0  0  0  0
  188.0950  177.6520  144.6610 C   0  0  1  0  0  3  0  0  0  0  0  0
  187.9780  177.2830  147.6240 C   0  0  0  0  0  2  0  0  0  0  0  0
  1  4  1  0  0  0  0
  2  1  2  0  0  0  0
  3  8  1  1  0  0  0
  3  7  1  0  0  0  0
  4  7  1  0  0  0  0
  5  6  1  0  0  0  0
  5  1  1  0  0  0  0
  6  3  1  0  0  0  0
  7 16  1  0  0  0  0
  9  8  1  0  0  0  0
  9 11  1  0  0  0  0
 10 13  1  0  0  0  0
 11 12  1  0  0  0  0
 12 13  2  0  0  0  0
 14 10  2  0  0  0  0
 15 11  2  0  0  0  0
 15 14  1  0  0  0  0
 17 20  1  0  0  0  0
 20 27  1  0  0  0  0
 21 23  2  0  0  0  0
 21 22  1  0  0  0  0
 22 24  2  0  0  0  0
 23 25  1  0  0  0  0
 24 18  1  0  0  0  0
 24 19  1  0  0  0  0
 25 18  2  0  0  0  0
 25 27  1  0  0  0  0
 26 16  1  6  0  0  0
 26 23  1  0  0  0  0
 26 17  1  0  0  0  0
M  END
>  <MODEL>
1

>  <REMARK>
 VINA RESULT:      -9.6      0.000      0.000
  Name = 
  5 active torsions:
  status: ('A' for Active; 'I' for Inactive)
    1  A    between atoms: C_1  and  N_15
    2  A    between atoms: C_1  and  C_18
    3  A    between atoms: C_3  and  C_19
    4  A    between atoms: C_3  and  N_26
    5  A    between atoms: C_9  and  N_15
                            x       y       z     vdW  Elec       q    Type
                         _______ _______ _______ _____ _____    ______ ____

>  <TORSDO>
F 5

$$$$
=
 OpenBabel10272401093D

 27 30  0  0  1  0  0  0  0  0999 V2000
  190.8370  177.2340  139.9290 C   0  0  0  0  0  0  0  0  0  0  0  0
  192.0140  176.9050  139.6300 O   0  0  0  0  0  0  0  0  0  0  0  0
  188.1510  177.7850  140.5590 C   0  0  1  0  0  3  0  0  0  0  0  0
  190.1930  176.6800  141.1610 C   0  0  0  0  0  2  0  0  0  0  0  0
  190.0730  178.0480  139.0420 N   0  0  0  0  0  2  0  0  0  0  0  0
  188.8100  178.6330  139.4690 C   0  0  0  0  0  2  0  0  0  0  0  0
  189.1210  177.5510  141.6490 N   0  0  0  0  0  0  0  0  0  0  0  0
  186.9320  178.5650  141.0420 C   0  0  0  0  0  2  0  0  0  0  0  0
  186.0220  178.8030  139.9330 N   0  0  0  0  0  2  0  0  0  0  0  0
  181.8220  179.0810  140.3670 C   0  0  0  0  0  3  0  0  0  0  0  0
  184.6060  178.9010  140.0990 C   0  0  0  0  0  0  0  0  0  0  0  0
  183.8370  179.4770  139.0820 C   0  0  0  0  0  3  0  0  0  0  0  0
  182.4480  179.5680  139.2160 C   0  0  0  0  0  3  0  0  0  0  0  0
  182.5850  178.5020  141.3850 C   0  0  0  0  0  3  0  0  0  0  0  0
  183.9730  178.4110  141.2520 C   0  0  0  0  0  3  0  0  0  0  0  0
  188.4880  176.7900  142.7230 C   0  0  0  0  0  2  0  0  0  0  0  0
  186.8810  177.5760  144.4320 C   0  0  0  0  0  2  0  0  0  0  0  0
  189.8580  176.9530  147.4210 C   0  0  0  0  0  3  0  0  0  0  0  0
  192.1000  176.4630  148.0620 F   0  0  0  0  0  0  0  0  0  0  0  0
  186.7150  178.2380  145.7890 C   0  0  0  0  0  2  0  0  0  0  0  0
  190.6730  177.0810  144.7540 C   0  0  0  0  0  3  0  0  0  0  0  0
  191.6050  176.8060  145.7570 C   0  0  0  0  0  3  0  0  0  0  0  0
  189.3180  177.2710  145.0670 C   0  0  0  0  0  0  0  0  0  0  0  0
  191.1960  176.7350  147.0890 C   0  0  0  0  0  0  0  0  0  0  0  0
  188.9200  177.2400  146.4250 C   0  0  0  0  0  0  0  0  0  0  0  0
  188.3370  177.6530  143.9720 C   0  0  1  0  0  3  0  0  0  0  0  0
  187.4870  177.4360  146.8290 C   0  0  0  0  0  2  0  0  0  0  0  0
  1  4  1  0  0  0  0
  2  1  2  0  0  0  0
  3  8  1  1  0  0  0
  3  7  1  0  0  0  0
  4  7  1  0  0  0  0
  5  6  1  0  0  0  0
  5  1  1  0  0  0  0
  6  3  1  0  0  0  0
  7 16  1  0  0  0  0
  9 11  1  0  0  0  0
  9  8  1  0  0  0  0
 10 14  1  0  0  0  0
 11 15  1  0  0  0  0
 12 13  1  0  0  0  0
 12 11  2  0  0  0  0
 13 10  2  0  0  0  0
 15 14  2  0  0  0  0
 17 20  1  0  0  0  0
 20 27  1  0  0  0  0
 21 23  2  0  0  0  0
 21 22  1  0  0  0  0
 22 24  2  0  0  0  0
 23 25  1  0  0  0  0
 24 18  1  0  0  0  0
 24 19  1  0  0  0  0
 25 27  1  0  0  0  0
 25 18  2  0  0  0  0
 26 16  1  6  0  0  0
 26 17  1  0  0  0  0
 26 23  1  0  0  0  0
M  END
>  <MODEL>
2

>  <REMARK>
 VINA RESULT:      -9.5      1.184      1.740
  Name = 
  5 active torsions:
  status: ('A' for Active; 'I' for Inactive)
    1  A    between atoms: C_1  and  N_15
    2  A    between atoms: C_1  and  C_18
    3  A    between atoms: C_3  and  C_19
    4  A    between atoms: C_3  and  N_26
    5  A    between atoms: C_9  and  N_15
                            x       y       z     vdW  Elec       q    Type
                         _______ _______ _______ _____ _____    ______ ____

>  <TORSDO>
F 5

$$$$
=
 OpenBabel10272401093D

 27 30  0  0  1  0  0  0  0  0999 V2000
  181.9190  178.7720  143.3880 C   0  0  0  0  0  0  0  0  0  0  0  0
  180.9380  178.7030  144.1720 O   0  0  0  0  0  0  0  0  0  0  0  0
  184.1310  179.1140  141.6820 C   0  0  1  0  0  3  0  0  0  0  0  0
  183.3010  178.9600  143.9280 C   0  0  0  0  0  2  0  0  0  0  0  0
  181.7090  178.7810  141.9770 N   0  0  0  0  0  2  0  0  0  0  0  0
  182.8260  178.6210  141.0560 C   0  0  0  0  0  2  0  0  0  0  0  0
  184.3180  178.4650  142.9970 N   0  0  0  0  0  0  0  0  0  0  0  0
  185.2480  178.7540  140.7080 C   0  0  0  0  0  2  0  0  0  0  0  0
  184.8840  179.1630  139.3600 N   0  0  0  0  0  2  0  0  0  0  0  0
  185.6080  176.7170  135.9850 C   0  0  0  0  0  3  0  0  0  0  0  0
  185.1100  178.3430  138.2130 C   0  0  0  0  0  0  0  0  0  0  0  0
  186.3990  178.2630  137.6730 C   0  0  0  0  0  3  0  0  0  0  0  0
  186.6480  177.4540  136.5610 C   0  0  0  0  0  3  0  0  0  0  0  0
  184.3200  176.7910  136.5210 C   0  0  0  0  0  3  0  0  0  0  0  0
  184.0700  177.6000  137.6330 C   0  0  0  0  0  3  0  0  0  0  0  0
  185.5890  178.8840  143.5820 C   0  0  0  0  0  2  0  0  0  0  0  0
  187.4360  177.3780  142.9200 C   0  0  0  0  0  2  0  0  0  0  0  0
  188.8940  177.5130  146.9250 C   0  0  0  0  0  3  0  0  0  0  0  0
  188.6470  178.1260  149.2140 F   0  0  0  0  0  0  0  0  0  0  0  0
  188.4190  176.3170  143.3850 C   0  0  0  0  0  2  0  0  0  0  0  0
  186.2670  178.3300  146.4490 C   0  0  0  0  0  3  0  0  0  0  0  0
  186.8070  178.4270  147.7330 C   0  0  0  0  0  3  0  0  0  0  0  0
  187.0390  177.8470  145.3810 C   0  0  0  0  0  0  0  0  0  0  0  0
  188.1210  178.0260  147.9700 C   0  0  0  0  0  0  0  0  0  0  0  0
  188.3580  177.4020  145.6390 C   0  0  0  0  0  0  0  0  0  0  0  0
  186.4070  177.6690  144.0120 C   0  0  1  0  0  3  0  0  0  0  0  0
  189.2370  176.8740  144.5430 C   0  0  0  0  0  2  0  0  0  0  0  0
  1  4  1  0  0  0  0
  1  2  2  0  0  0  0
  3  8  1  6  0  0  0
  3  7  1  0  0  0  0
  5  1  1  0  0  0  0
  6  3  1  0  0  0  0
  6  5  1  0  0  0  0
  7 16  1  0  0  0  0
  7  4  1  0  0  0  0
  9  8  1  0  0  0  0
 10 14  2  0  0  0  0
 10 13  1  0  0  0  0
 11  9  1  0  0  0  0
 12 11  1  0  0  0  0
 13 12  2  0  0  0  0
 14 15  1  0  0  0  0
 15 11  2  0  0  0  0
 17 20  1  0  0  0  0
 17 26  1  0  0  0  0
 18 24  1  0  0  0  0
 20 27  1  0  0  0  0
 21 22  1  0  0  0  0
 22 24  2  0  0  0  0
 23 25  1  0  0  0  0
 23 21  2  0  0  0  0
 24 19  1  0  0  0  0
 25 18  2  0  0  0  0
 26 16  1  6  0  0  0
 26 23  1  0  0  0  0
 27 25  1  0  0  0  0
M  END
>  <MODEL>
3

>  <REMARK>
 VINA RESULT:      -8.9      3.323      5.476
  Name = 
  5 active torsions:
  status: ('A' for Active; 'I' for Inactive)
    1  A    between atoms: C_1  and  N_15
    2  A    between atoms: C_1  and  C_18
    3  A    between atoms: C_3  and  C_19
    4  A    between atoms: C_3  and  N_26
    5  A    between atoms: C_9  and  N_15
                            x       y       z     vdW  Elec       q    Type
                         _______ _______ _______ _____ _____    ______ ____

>  <TORSDO>
F 5

$$$$
=
 OpenBabel10272401093D

 27 30  0  0  1  0  0  0  0  0999 V2000
  188.4340  177.2360  139.0400 C   0  0  0  0  0  0  0  0  0  0  0  0
  188.1000  176.8110  137.9040 O   0  0  0  0  0  0  0  0  0  0  0  0
  189.1750  178.3700  141.5060 C   0  0  1  0  0  3  0  0  0  0  0  0
  187.4630  178.0250  139.8610 C   0  0  0  0  0  2  0  0  0  0  0  0
  189.7710  177.0650  139.5050 N   0  0  0  0  0  2  0  0  0  0  0  0
  190.1180  177.3330  140.8930 C   0  0  0  0  0  2  0  0  0  0  0  0
  187.7750  177.9470  141.2910 N   0  0  0  0  0  0  0  0  0  0  0  0
  189.5210  178.4540  142.9900 C   0  0  0  0  0  2  0  0  0  0  0  0
  189.7880  177.1240  143.5140 N   0  0  0  0  0  2  0  0  0  0  0  0
  191.1110  176.4240  147.4720 C   0  0  0  0  0  3  0  0  0  0  0  0
  190.2530  176.8940  144.8450 C   0  0  0  0  0  0  0  0  0  0  0  0
  189.3960  177.1480  145.9220 C   0  0  0  0  0  3  0  0  0  0  0  0
  189.8240  176.9150  147.2320 C   0  0  0  0  0  3  0  0  0  0  0  0
  191.9700  176.1660  146.4000 C   0  0  0  0  0  3  0  0  0  0  0  0
  191.5430  176.3990  145.0900 C   0  0  0  0  0  3  0  0  0  0  0  0
  186.8650  178.9000  141.9200 C   0  0  0  0  0  2  0  0  0  0  0  0
  186.4290  178.5630  144.3310 C   0  0  0  0  0  2  0  0  0  0  0  0
  182.2510  178.9250  143.5580 C   0  0  0  0  0  3  0  0  0  0  0  0
  180.4150  179.0730  142.0480 F   0  0  0  0  0  0  0  0  0  0  0  0
  185.4400  178.0650  145.3700 C   0  0  0  0  0  2  0  0  0  0  0  0
  183.9520  178.4170  141.4040 C   0  0  0  0  0  3  0  0  0  0  0  0
  182.5870  178.6150  141.1850 C   0  0  0  0  0  3  0  0  0  0  0  0
  184.4890  178.4950  142.6980 C   0  0  0  0  0  0  0  0  0  0  0  0
  181.7390  178.8760  142.2610 C   0  0  0  0  0  0  0  0  0  0  0  0
  183.6140  178.7170  143.7890 C   0  0  0  0  0  0  0  0  0  0  0  0
  185.9610  178.1920  142.9250 C   0  0  1  0  0  3  0  0  0  0  0  0
  184.1220  178.8100  145.1980 C   0  0  0  0  0  2  0  0  0  0  0  0
  1  5  1  0  0  0  0
  1  4  1  0  0  0  0
  2  1  2  0  0  0  0
  3  8  1  1  0  0  0
  4  7  1  0  0  0  0
  5  6  1  0  0  0  0
  6  3  1  0  0  0  0
  7  3  1  0  0  0  0
  7 16  1  0  0  0  0
  8  9  1  0  0  0  0
  9 11  1  0  0  0  0
 11 15  2  0  0  0  0
 11 12  1  0  0  0  0
 12 13  2  0  0  0  0
 13 10  1  0  0  0  0
 14 10  2  0  0  0  0
 15 14  1  0  0  0  0
 17 20  1  0  0  0  0
 18 25  1  0  0  0  0
 19 24  1  0  0  0  0
 21 23  1  0  0  0  0
 22 21  2  0  0  0  0
 22 24  1  0  0  0  0
 23 26  1  0  0  0  0
 23 25  2  0  0  0  0
 24 18  2  0  0  0  0
 25 27  1  0  0  0  0
 26 16  1  6  0  0  0
 26 17  1  0  0  0  0
 27 20  1  0  0  0  0
M  END
>  <MODEL>
4

>  <REMARK>
 VINA RESULT:      -8.9      2.996      6.811
  Name = 
  5 active torsions:
  status: ('A' for Active; 'I' for Inactive)
    1  A    between atoms: C_1  and  N_15
    2  A    between atoms: C_1  and  C_18
    3  A    between atoms: C_3  and  C_19
    4  A    between atoms: C_3  and  N_26
    5  A    between atoms: C_9  and  N_15
                            x       y       z     vdW  Elec       q    Type
                         _______ _______ _______ _____ _____    ______ ____

>  <TORSDO>
F 5

$$$$
=
 OpenBabel10272401093D

 27 30  0  0  1  0  0  0  0  0999 V2000
  190.0810  176.7200  139.8320 C   0  0  0  0  0  0  0  0  0  0  0  0
  191.0150  176.0690  139.2980 O   0  0  0  0  0  0  0  0  0  0  0  0
  187.9640  178.0250  141.1500 C   0  0  1  0  0  3  0  0  0  0  0  0
  190.2320  177.2460  141.2250 C   0  0  0  0  0  2  0  0  0  0  0  0
  188.8320  176.8660  139.1580 N   0  0  0  0  0  2  0  0  0  0  0  0
  187.8290  177.8040  139.6430 C   0  0  0  0  0  2  0  0  0  0  0  0
  189.3590  178.3980  141.4660 N   0  0  0  0  0  0  0  0  0  0  0  0
  186.9830  179.1330  141.5200 C   0  0  0  0  0  2  0  0  0  0  0  0
  185.6170  178.6460  141.4090 N   0  0  0  0  0  2  0  0  0  0  0  0
  182.8580  178.9460  144.6030 C   0  0  0  0  0  3  0  0  0  0  0  0
  184.6740  178.7350  142.4780 C   0  0  0  0  0  0  0  0  0  0  0  0
  185.1380  178.8200  143.7950 C   0  0  0  0  0  3  0  0  0  0  0  0
  184.2330  178.9240  144.8560 C   0  0  0  0  0  3  0  0  0  0  0  0
  182.3880  178.8630  143.2900 C   0  0  0  0  0  3  0  0  0  0  0  0
  183.2920  178.7590  142.2290 C   0  0  0  0  0  3  0  0  0  0  0  0
  189.4910  178.6680  142.8950 C   0  0  0  0  0  2  0  0  0  0  0  0
  191.3850  177.2290  143.5730 C   0  0  0  0  0  2  0  0  0  0  0  0
  189.6120  176.8260  147.4300 C   0  0  0  0  0  3  0  0  0  0  0  0
  187.7890  177.1440  148.9310 F   0  0  0  0  0  0  0  0  0  0  0  0
  191.8420  176.1020  144.4820 C   0  0  0  0  0  2  0  0  0  0  0  0
  188.0130  177.7400  145.3320 C   0  0  0  0  0  3  0  0  0  0  0  0
  187.4910  177.6630  146.6260 C   0  0  0  0  0  3  0  0  0  0  0  0
  189.3460  177.3860  145.0740 C   0  0  0  0  0  0  0  0  0  0  0  0
  188.2930  177.2130  147.6750 C   0  0  0  0  0  0  0  0  0  0  0  0
  190.1390  176.8890  146.1370 C   0  0  0  0  0  0  0  0  0  0  0  0
  189.8670  177.3950  143.6470 C   0  0  1  0  0  3  0  0  0  0  0  0
  191.5710  176.4920  145.9300 C   0  0  0  0  0  2  0  0  0  0  0  0
  1  4  1  0  0  0  0
  2  1  2  0  0  0  0
  3  7  1  0  0  0  0
  3  8  1  6  0  0  0
  4  7  1  0  0  0  0
  5  6  1  0  0  0  0
  5  1  1  0  0  0  0
  6  3  1  0  0  0  0
  7 16  1  0  0  0  0
  9  8  1  0  0  0  0
  9 11  1  0  0  0  0
 10 13  1  0  0  0  0
 11 12  1  0  0  0  0
 12 13  2  0  0  0  0
 14 10  2  0  0  0  0
 15 11  2  0  0  0  0
 15 14  1  0  0  0  0
 17 26  1  0  0  0  0
 17 20  1  0  0  0  0
 18 24  1  0  0  0  0
 20 27  1  0  0  0  0
 21 22  1  0  0  0  0
 22 24  2  0  0  0  0
 23 21  2  0  0  0  0
 23 25  1  0  0  0  0
 24 19  1  0  0  0  0
 25 18  2  0  0  0  0
 26 16  1  1  0  0  0
 26 23  1  0  0  0  0
 27 25  1  0  0  0  0
M  END
>  <MODEL>
5

>  <REMARK>
 VINA RESULT:      -8.7      1.423      2.513
  Name = 
  5 active torsions:
  status: ('A' for Active; 'I' for Inactive)
    1  A    between atoms: C_1  and  N_15
    2  A    between atoms: C_1  and  C_18
    3  A    between atoms: C_3  and  C_19
    4  A    between atoms: C_3  and  N_26
    5  A    between atoms: C_9  and  N_15
                            x       y       z     vdW  Elec       q    Type
                         _______ _______ _______ _____ _____    ______ ____

>  <TORSDO>
F 5

$$$$
=
 OpenBabel10272401093D

 27 30  0  0  1  0  0  0  0  0999 V2000
  191.0720  176.2720  142.9510 C   0  0  0  0  0  0  0  0  0  0  0  0
  191.9820  175.7430  143.6410 O   0  0  0  0  0  0  0  0  0  0  0  0
  188.9730  177.2730  141.3680 C   0  0  1  0  0  3  0  0  0  0  0  0
  189.6470  176.1930  143.4010 C   0  0  0  0  0  2  0  0  0  0  0  0
  191.3780  176.8520  141.6850 N   0  0  0  0  0  2  0  0  0  0  0  0
  190.3990  177.6710  140.9840 C   0  0  0  0  0  2  0  0  0  0  0  0
  188.8420  177.2810  142.8400 N   0  0  0  0  0  0  0  0  0  0  0  0
  188.0430  178.2880  140.7110 C   0  0  0  0  0  2  0  0  0  0  0  0
  188.6280  178.7670  139.4680 N   0  0  0  0  0  2  0  0  0  0  0  0
  187.1700  177.6730  135.6490 C   0  0  0  0  0  3  0  0  0  0  0  0
  188.1180  178.4070  138.1830 C   0  0  0  0  0  0  0  0  0  0  0  0
  188.9820  178.4020  137.0820 C   0  0  0  0  0  3  0  0  0  0  0  0
  188.5100  178.0380  135.8170 C   0  0  0  0  0  3  0  0  0  0  0  0
  186.3030  177.6750  136.7450 C   0  0  0  0  0  3  0  0  0  0  0  0
  186.7750  178.0390  138.0090 C   0  0  0  0  0  3  0  0  0  0  0  0
  187.4690  176.9580  143.2200 C   0  0  0  0  0  2  0  0  0  0  0  0
  185.3470  178.1060  143.7650 C   0  0  0  0  0  2  0  0  0  0  0  0
  186.5810  178.3070  147.8420 C   0  0  0  0  0  3  0  0  0  0  0  0
  188.2340  178.0390  149.5360 F   0  0  0  0  0  0  0  0  0  0  0  0
  184.6510  179.0800  144.7010 C   0  0  0  0  0  2  0  0  0  0  0  0
  188.5200  177.7890  145.9010 C   0  0  0  0  0  3  0  0  0  0  0  0
  188.8680  177.7910  147.2540 C   0  0  0  0  0  3  0  0  0  0  0  0
  187.1940  178.0210  145.5020 C   0  0  0  0  0  0  0  0  0  0  0  0
  187.8980  178.0430  148.2240 C   0  0  0  0  0  0  0  0  0  0  0  0
  186.2250  178.3180  146.4900 C   0  0  0  0  0  0  0  0  0  0  0  0
  186.8540  178.1000  144.0240 C   0  0  1  0  0  3  0  0  0  0  0  0
  184.7910  178.5770  146.1320 C   0  0  0  0  0  2  0  0  0  0  0  0
  1  4  1  0  0  0  0
  1  2  2  0  0  0  0
  3  8  1  6  0  0  0
  3  7  1  0  0  0  0
  5  1  1  0  0  0  0
  6  3  1  0  0  0  0
  6  5  1  0  0  0  0
  7 16  1  0  0  0  0
  7  4  1  0  0  0  0
  9  8  1  0  0  0  0
 10 13  2  0  0  0  0
 10 14  1  0  0  0  0
 11  9  1  0  0  0  0
 12 11  2  0  0  0  0
 13 12  1  0  0  0  0
 14 15  2  0  0  0  0
 15 11  1  0  0  0  0
 17 26  1  0  0  0  0
 17 20  1  0  0  0  0
 18 24  1  0  0  0  0
 20 27  1  0  0  0  0
 21 22  1  0  0  0  0
 22 24  2  0  0  0  0
 23 21  2  0  0  0  0
 23 25  1  0  0  0  0
 24 19  1  0  0  0  0
 25 18  2  0  0  0  0
 26 16  1  6  0  0  0
 26 23  1  0  0  0  0
 27 25  1  0  0  0  0
M  END
>  <MODEL>
6

>  <REMARK>
 VINA RESULT:      -8.7      2.418      4.627
  Name = 
  5 active torsions:
  status: ('A' for Active; 'I' for Inactive)
    1  A    between atoms: C_1  and  N_15
    2  A    between atoms: C_1  and  C_18
    3  A    between atoms: C_3  and  C_19
    4  A    between atoms: C_3  and  N_26
    5  A    between atoms: C_9  and  N_15
                            x       y       z     vdW  Elec       q    Type
                         _______ _______ _______ _____ _____    ______ ____

>  <TORSDO>
F 5

$$$$
=
 OpenBabel10272401093D

 27 30  0  0  1  0  0  0  0  0999 V2000
  191.9820  175.5410  146.2330 C   0  0  0  0  0  0  0  0  0  0  0  0
  192.4390  175.0380  147.2920 O   0  0  0  0  0  0  0  0  0  0  0  0
  190.7860  176.5890  143.9110 C   0  0  1  0  0  3  0  0  0  0  0  0
  191.0140  176.6790  146.2980 C   0  0  0  0  0  2  0  0  0  0  0  0
  192.2980  174.9590  144.9690 N   0  0  0  0  0  2  0  0  0  0  0  0
  191.9820  175.6530  143.7290 C   0  0  0  0  0  2  0  0  0  0  0  0
  191.0310  177.4760  145.0680 N   0  0  0  0  0  0  0  0  0  0  0  0
  190.6440  177.3770  142.6130 C   0  0  0  0  0  2  0  0  0  0  0  0
  190.2730  176.4840  141.5270 N   0  0  0  0  0  2  0  0  0  0  0  0
  189.3640  177.9140  137.6500 C   0  0  0  0  0  3  0  0  0  0  0  0
  189.9690  176.9480  140.2110 C   0  0  0  0  0  0  0  0  0  0  0  0
  188.9790  177.9220  140.0410 C   0  0  0  0  0  3  0  0  0  0  0  0
  188.6760  178.4040  138.7640 C   0  0  0  0  0  3  0  0  0  0  0  0
  190.3560  176.9430  137.8130 C   0  0  0  0  0  3  0  0  0  0  0  0
  190.6590  176.4610  139.0890 C   0  0  0  0  0  3  0  0  0  0  0  0
  189.9220  178.4140  145.2210 C   0  0  0  0  0  2  0  0  0  0  0  0
  188.7490  178.1850  147.3870 C   0  0  0  0  0  2  0  0  0  0  0  0
  185.0270  178.4540  145.3240 C   0  0  0  0  0  3  0  0  0  0  0  0
  183.7590  178.5070  143.3070 F   0  0  0  0  0  0  0  0  0  0  0  0
  187.4820  177.7220  148.0850 C   0  0  0  0  0  2  0  0  0  0  0  0
  187.3180  177.8690  143.8400 C   0  0  0  0  0  3  0  0  0  0  0  0
  186.0910  178.0380  143.1940 C   0  0  0  0  0  3  0  0  0  0  0  0
  187.4210  178.0140  145.2320 C   0  0  0  0  0  0  0  0  0  0  0  0
  184.9480  178.3370  143.9350 C   0  0  0  0  0  0  0  0  0  0  0  0
  186.2480  178.2750  145.9800 C   0  0  0  0  0  0  0  0  0  0  0  0
  188.7460  177.7420  145.9230 C   0  0  1  0  0  3  0  0  0  0  0  0
  186.2880  178.4410  147.4720 C   0  0  0  0  0  2  0  0  0  0  0  0
  1  4  1  0  0  0  0
  1  2  2  0  0  0  0
  3  8  1  6  0  0  0
  3  7  1  0  0  0  0
  5  1  1  0  0  0  0
  6  3  1  0  0  0  0
  6  5  1  0  0  0  0
  7 16  1  0  0  0  0
  7  4  1  0  0  0  0
  9  8  1  0  0  0  0
 10 14  2  0  0  0  0
 10 13  1  0  0  0  0
 11  9  1  0  0  0  0
 12 11  1  0  0  0  0
 13 12  2  0  0  0  0
 14 15  1  0  0  0  0
 15 11  2  0  0  0  0
 17 20  1  0  0  0  0
 18 25  1  0  0  0  0
 19 24  1  0  0  0  0
 21 23  1  0  0  0  0
 22 21  2  0  0  0  0
 22 24  1  0  0  0  0
 23 26  1  0  0  0  0
 23 25  2  0  0  0  0
 24 18  2  0  0  0  0
 25 27  1  0  0  0  0
 26 16  1  6  0  0  0
 26 17  1  0  0  0  0
 27 20  1  0  0  0  0
M  END
>  <MODEL>
7

>  <REMARK>
 VINA RESULT:      -8.6      3.189      6.079
  Name = 
  5 active torsions:
  status: ('A' for Active; 'I' for Inactive)
    1  A    between atoms: C_1  and  N_15
    2  A    between atoms: C_1  and  C_18
    3  A    between atoms: C_3  and  C_19
    4  A    between atoms: C_3  and  N_26
    5  A    between atoms: C_9  and  N_15
                            x       y       z     vdW  Elec       q    Type
                         _______ _______ _______ _____ _____    ______ ____

>  <TORSDO>
F 5

$$$$
=
 OpenBabel10272401093D

 27 30  0  0  1  0  0  0  0  0999 V2000
  184.5320  178.5950  145.6090 C   0  0  0  0  0  0  0  0  0  0  0  0
  184.1190  178.5250  146.7950 O   0  0  0  0  0  0  0  0  0  0  0  0
  185.5180  178.9330  142.9950 C   0  0  1  0  0  3  0  0  0  0  0  0
  186.0010  178.6440  145.3270 C   0  0  0  0  0  2  0  0  0  0  0  0
  183.6050  178.7370  144.5340 N   0  0  0  0  0  2  0  0  0  0  0  0
  184.0370  178.5820  143.1520 C   0  0  0  0  0  2  0  0  0  0  0  0
  186.3100  178.1640  143.9780 N   0  0  0  0  0  0  0  0  0  0  0  0
  185.9010  178.5840  141.5600 C   0  0  0  0  0  2  0  0  0  0  0  0
  185.2240  179.4770  140.6330 N   0  0  0  0  0  2  0  0  0  0  0  0
  182.9480  178.0310  137.3730 C   0  0  0  0  0  3  0  0  0  0  0  0
  184.4470  179.0070  139.5300 C   0  0  0  0  0  0  0  0  0  0  0  0
  185.0170  178.0990  138.6300 C   0  0  0  0  0  3  0  0  0  0  0  0
  184.2700  177.6130  137.5530 C   0  0  0  0  0  3  0  0  0  0  0  0
  182.3730  178.9350  138.2690 C   0  0  0  0  0  3  0  0  0  0  0  0
  183.1190  179.4220  139.3470 C   0  0  0  0  0  3  0  0  0  0  0  0
  187.7320  178.4460  143.8020 C   0  0  0  0  0  2  0  0  0  0  0  0
  189.2370  177.0070  142.4680 C   0  0  0  0  0  2  0  0  0  0  0  0
  191.6630  176.4500  145.9300 C   0  0  0  0  0  3  0  0  0  0  0  0
  192.0470  176.6950  148.2690 F   0  0  0  0  0  0  0  0  0  0  0  0
  190.2260  175.8540  142.5000 C   0  0  0  0  0  2  0  0  0  0  0  0
  189.0680  177.4180  146.2790 C   0  0  0  0  0  3  0  0  0  0  0  0
  189.9200  177.2900  147.3790 C   0  0  0  0  0  3  0  0  0  0  0  0
  189.5090  177.0880  144.9890 C   0  0  0  0  0  0  0  0  0  0  0  0
  191.2190  176.8130  147.2030 C   0  0  0  0  0  0  0  0  0  0  0  0
  190.8140  176.5640  144.8260 C   0  0  0  0  0  0  0  0  0  0  0  0
  188.5400  177.1530  143.8200 C   0  0  1  0  0  3  0  0  0  0  0  0
  191.3480  176.1900  143.4740 C   0  0  0  0  0  2  0  0  0  0  0  0
  1  2  2  0  0  0  0
  3  8  1  6  0  0  0
  3  6  1  0  0  0  0
  3  7  1  0  0  0  0
  4  1  1  0  0  0  0
  5  1  1  0  0  0  0
  6  5  1  0  0  0  0
  7  4  1  0  0  0  0
  9  8  1  0  0  0  0
 10 13  2  0  0  0  0
 10 14  1  0  0  0  0
 11  9  1  0  0  0  0
 12 11  2  0  0  0  0
 13 12  1  0  0  0  0
 14 15  2  0  0  0  0
 15 11  1  0  0  0  0
 16  7  1  0  0  0  0
 17 20  1  0  0  0  0
 17 26  1  0  0  0  0
 18 24  1  0  0  0  0
 20 27  1  0  0  0  0
 21 22  1  0  0  0  0
 23 21  2  0  0  0  0
 24 22  2  0  0  0  0
 24 19  1  0  0  0  0
 25 23  1  0  0  0  0
 25 18  2  0  0  0  0
 26 16  1  6  0  0  0
 26 23  1  0  0  0  0
 27 25  1  0  0  0  0
M  END
>  <MODEL>
8

>  <REMARK>
 VINA RESULT:      -8.6      2.815      4.485
  Name = 
  5 active torsions:
  status: ('A' for Active; 'I' for Inactive)
    1  A    between atoms: C_1  and  N_15
    2  A    between atoms: C_1  and  C_18
    3  A    between atoms: C_3  and  C_19
    4  A    between atoms: C_3  and  N_26
    5  A    between atoms: C_9  and  N_15
                            x       y       z     vdW  Elec       q    Type
                         _______ _______ _______ _____ _____    ______ ____

>  <TORSDO>
F 5

$$$$
=
 OpenBabel10272401093D

 27 30  0  0  1  0  0  0  0  0999 V2000
  185.2190  179.0590  142.6100 C   0  0  0  0  0  0  0  0  0  0  0  0
  184.0780  179.5320  142.8450 O   0  0  0  0  0  0  0  0  0  0  0  0
  187.8400  178.1050  142.2360 C   0  0  1  0  0  3  0  0  0  0  0  0
  185.8440  178.0950  143.5680 C   0  0  0  0  0  2  0  0  0  0  0  0
  185.9690  179.5210  141.4880 N   0  0  0  0  0  2  0  0  0  0  0  0
  187.1770  178.8280  141.0620 C   0  0  0  0  0  2  0  0  0  0  0  0
  186.8420  177.2470  142.9090 N   0  0  0  0  0  0  0  0  0  0  0  0
  188.9890  177.2880  141.6540 C   0  0  0  0  0  2  0  0  0  0  0  0
  189.1570  177.5990  140.2430 N   0  0  0  0  0  2  0  0  0  0  0  0
  192.6800  176.5980  138.1250 C   0  0  0  0  0  3  0  0  0  0  0  0
  190.3380  177.2690  139.5110 C   0  0  0  0  0  0  0  0  0  0  0  0
  191.5820  177.3540  140.1470 C   0  0  0  0  0  3  0  0  0  0  0  0
  192.7510  177.0200  139.4550 C   0  0  0  0  0  3  0  0  0  0  0  0
  191.4410  176.5090  137.4850 C   0  0  0  0  0  3  0  0  0  0  0  0
  190.2720  176.8430  138.1760 C   0  0  0  0  0  3  0  0  0  0  0  0
  187.4750  176.5080  143.9980 C   0  0  0  0  0  2  0  0  0  0  0  0
  186.7480  177.5440  146.1230 C   0  0  0  0  0  2  0  0  0  0  0  0
  190.6380  176.8330  147.7210 C   0  0  0  0  0  3  0  0  0  0  0  0
  192.9130  176.1760  147.4570 F   0  0  0  0  0  0  0  0  0  0  0  0
  187.1870  178.3010  147.3650 C   0  0  0  0  0  2  0  0  0  0  0  0
  190.3080  176.7190  144.9510 C   0  0  0  0  0  3  0  0  0  0  0  0
  191.5490  176.4210  145.5200 C   0  0  0  0  0  3  0  0  0  0  0  0
  189.2110  177.0530  145.7590 C   0  0  0  0  0  0  0  0  0  0  0  0
  191.7110  176.4710  146.9040 C   0  0  0  0  0  0  0  0  0  0  0  0
  189.3960  177.1440  147.1600 C   0  0  0  0  0  0  0  0  0  0  0  0
  187.8950  177.4570  145.1160 C   0  0  1  0  0  3  0  0  0  0  0  0
  188.2650  177.4970  148.0810 C   0  0  0  0  0  2  0  0  0  0  0  0
  1  2  2  0  0  0  0
  1  4  1  0  0  0  0
  3  8  1  6  0  0  0
  3  7  1  0  0  0  0
  5  1  1  0  0  0  0
  6  5  1  0  0  0  0
  6  3  1  0  0  0  0
  7  4  1  0  0  0  0
  7 16  1  0  0  0  0
  9  8  1  0  0  0  0
 10 13  1  0  0  0  0
 11 12  1  0  0  0  0
 11  9  1  0  0  0  0
 13 12  2  0  0  0  0
 14 10  2  0  0  0  0
 14 15  1  0  0  0  0
 15 11  2  0  0  0  0
 17 20  1  0  0  0  0
 20 27  1  0  0  0  0
 21 22  2  0  0  0  0
 21 23  1  0  0  0  0
 22 24  1  0  0  0  0
 23 25  2  0  0  0  0
 24 19  1  0  0  0  0
 24 18  2  0  0  0  0
 25 18  1  0  0  0  0
 25 27  1  0  0  0  0
 26 16  1  6  0  0  0
 26 23  1  0  0  0  0
 26 17  1  0  0  0  0
M  END
>  <MODEL>
9

>  <REMARK>
 VINA RESULT:      -8.6      2.181      5.338
  Name = 
  5 active torsions:
  status: ('A' for Active; 'I' for Inactive)
    1  A    between atoms: C_1  and  N_15
    2  A    between atoms: C_1  and  C_18
    3  A    between atoms: C_3  and  C_19
    4  A    between atoms: C_3  and  N_26
    5  A    between atoms: C_9  and  N_15
                            x       y       z     vdW  Elec       q    Type
                         _______ _______ _______ _____ _____    ______ ____

>  <TORSDO>
F 5

$$$$
