=
 OpenBabel10272402103D

 32 35  0  0  1  0  0  0  0  0999 V2000
  188.2570  177.4560  137.5010 C   0  0  2  0  0  3  0  0  0  0  0  0
  185.0570  177.2270  134.5670 C   0  0  0  0  0  1  0  0  0  0  0  0
  188.1180  176.3170  136.4610 C   0  0  1  0  0  3  0  0  0  0  0  0
  185.3220  175.5300  136.1990 C   0  0  2  0  0  3  0  0  0  0  0  0
  187.6350  175.0030  137.0950 C   0  0  1  0  0  3  0  0  0  0  0  0
  186.1350  175.0510  137.4070 C   0  0  0  0  0  2  0  0  0  0  0  0
  185.8120  176.8410  135.7500 N   0  0  0  0  0  0  0  0  0  0  0  0
  187.1940  176.6950  135.2960 C   0  0  0  0  0  2  0  0  0  0  0  0
  187.9790  173.8140  136.2040 C   0  0  0  0  0  3  0  0  0  0  0  0
  189.1290  173.0390  136.8170 C   0  0  0  0  0  2  0  0  0  0  0  0
  187.7110  172.5230  136.9510 C   0  0  0  0  0  2  0  0  0  0  0  0
  183.9820  175.6260  136.5850 O   0  0  0  0  0  0  0  0  0  0  0  0
  183.8660  174.8010  137.7070 C   0  0  0  0  0  1  0  0  0  0  0  0
  188.5970  178.8300  136.8920 C   0  0  0  0  0  0  0  0  0  0  0  0
  189.2350  179.6360  137.8180 F   0  0  0  0  0  0  0  0  0  0  0  0
  187.4480  179.4690  136.4580 F   0  0  0  0  0  0  0  0  0  0  0  0
  189.4290  178.6580  135.8030 F   0  0  0  0  0  0  0  0  0  0  0  0
  189.1440  177.1160  138.7230 C   0  0  2  0  0  3  0  0  0  0  0  0
  188.4730  176.8500  142.3270 C   0  0  0  0  0  2  0  0  0  0  0  0
  187.0490  178.7410  141.5700 C   0  0  0  0  0  2  0  0  0  0  0  0
  188.8460  177.9280  140.0010 C   0  0  1  0  0  3  0  0  0  0  0  0
  187.5900  177.9670  142.7130 N   0  0  1  0  0  0  0  0  0  0  0  0
  187.3410  178.1270  140.1930 C   0  0  0  0  0  2  0  0  0  0  0  0
  189.4080  177.2580  141.2290 C   0  0  0  0  0  0  0  0  0  0  0  0
  190.6090  177.0850  141.3580 O   0  0  0  0  0  0  0  0  0  0  0  0
  186.4520  177.3990  143.4230 C   0  0  0  0  0  3  0  0  0  0  0  0
  185.4530  178.4990  143.7430 C   0  0  0  0  0  2  0  0  0  0  0  0
  186.3690  177.9770  144.8280 C   0  0  0  0  0  2  0  0  0  0  0  0
  190.4870  177.2520  138.3560 O   0  0  0  0  0  0  0  0  0  0  0  0
  190.9740  175.9450  138.2670 C   0  0  0  0  0  2  0  0  0  0  0  0
  192.1530  175.9100  137.3210 C   0  0  0  0  0  2  0  0  0  0  0  0
  191.6560  175.8520  135.8930 C   0  0  0  0  0  1  0  0  0  0  0  0
  1 14  1  6  0  0  0
  1 18  1  0  0  0  0
  2  7  1  0  0  0  0
  3  5  1  0  0  0  0
  3  1  1  1  0  0  0
  4 12  1  1  0  0  0
  4  6  1  0  0  0  0
  5  9  1  6  0  0  0
  5  6  1  0  0  0  0
  7  4  1  0  0  0  0
  8  7  1  0  0  0  0
  8  3  1  0  0  0  0
  9 10  1  0  0  0  0
  9 11  1  0  0  0  0
 10 11  1  0  0  0  0
 12 13  1  0  0  0  0
 14 15  1  0  0  0  0
 16 14  1  0  0  0  0
 17 14  1  0  0  0  0
 18 29  1  6  0  0  0
 19 22  1  0  0  0  0
 20 22  1  0  0  0  0
 21 18  1  6  0  0  0
 21 23  1  0  0  0  0
 21 24  1  0  0  0  0
 22 26  1  6  0  0  0
 23 20  1  0  0  0  0
 24 25  2  0  0  0  0
 24 19  1  0  0  0  0
 26 27  1  0  0  0  0
 26 28  1  0  0  0  0
 27 28  1  0  0  0  0
 30 29  1  0  0  0  0
 31 30  1  0  0  0  0
 32 31  1  0  0  0  0
M  END
>  <MODEL>
1

>  <REMARK>
 VINA RESULT:      -5.5      0.000      0.000
  Name = 
  10 active torsions:
  status: ('A' for Active; 'I' for Inactive)
    1  A    between atoms: C_1  and  C_4
    2  A    between atoms: C_1  and  O_24
    3  A    between atoms: C_2  and  C_5
    4  A    between atoms: C_5  and  C_10
    5  A    between atoms: C_5  and  C_27
    6  A    between atoms: C_6  and  C_13
    7  A    between atoms: C_7  and  N_19
    8  A    between atoms: O_11  and  C_12
    9  A    between atoms: C_16  and  C_27
   10  A    between atoms: O_24  and  C_27
                            x       y       z     vdW  Elec       q    Type
                         _______ _______ _______ _____ _____    ______ ____

>  <TORSDO>
F 10

$$$$
=
 OpenBabel10272402103D

 32 35  0  0  1  0  0  0  0  0999 V2000
  188.5410  177.4340  140.8990 C   0  0  2  0  0  3  0  0  0  0  0  0
  188.0160  178.4680  136.7090 C   0  0  0  0  0  1  0  0  0  0  0  0
  189.6710  177.9910  140.0000 C   0  0  1  0  0  3  0  0  0  0  0  0
  189.5400  176.7720  137.3530 C   0  0  2  0  0  3  0  0  0  0  0  0
  190.6910  176.9110  139.6080 C   0  0  1  0  0  3  0  0  0  0  0  0
  190.1340  175.9810  138.5240 C   0  0  0  0  0  2  0  0  0  0  0  0
  188.5060  177.6950  137.8410 N   0  0  0  0  0  0  0  0  0  0  0  0
  189.1320  178.6700  138.7330 C   0  0  0  0  0  2  0  0  0  0  0  0
  192.0090  177.5420  139.1730 C   0  0  0  0  0  3  0  0  0  0  0  0
  193.1240  177.0630  140.0820 C   0  0  0  0  0  2  0  0  0  0  0  0
  192.9620  176.4630  138.7010 C   0  0  0  0  0  2  0  0  0  0  0  0
  188.9820  175.8610  136.4510 O   0  0  0  0  0  0  0  0  0  0  0  0
  189.4280  174.6070  136.8740 C   0  0  0  0  0  1  0  0  0  0  0  0
  187.3220  178.3680  141.0350 C   0  0  0  0  0  0  0  0  0  0  0  0
  186.6480  178.4790  139.8320 F   0  0  0  0  0  0  0  0  0  0  0  0
  187.7190  179.6300  141.4440 F   0  0  0  0  0  0  0  0  0  0  0  0
  186.4570  177.8620  141.9860 F   0  0  0  0  0  0  0  0  0  0  0  0
  189.0120  176.8780  142.2650 C   0  0  2  0  0  3  0  0  0  0  0  0
  190.0770  177.9840  145.6050 C   0  0  0  0  0  2  0  0  0  0  0  0
  187.6260  177.6390  145.8200 C   0  0  0  0  0  2  0  0  0  0  0  0
  188.5980  177.7130  143.4960 C   0  0  1  0  0  3  0  0  0  0  0  0
  188.8720  178.1470  146.4400 N   0  0  1  0  0  0  0  0  0  0  0  0
  187.8390  176.8600  144.5140 C   0  0  0  0  0  2  0  0  0  0  0  0
  189.7920  178.3320  144.1750 C   0  0  0  0  0  0  0  0  0  0  0  0
  190.4990  179.1400  143.5940 O   0  0  0  0  0  0  0  0  0  0  0  0
  189.0830  177.3870  147.6650 C   0  0  0  0  0  3  0  0  0  0  0  0
  187.8630  177.5210  148.5610 C   0  0  0  0  0  2  0  0  0  0  0  0
  189.1100  178.3220  148.8640 C   0  0  0  0  0  2  0  0  0  0  0  0
  190.4010  176.7120  142.2290 O   0  0  0  0  0  0  0  0  0  0  0  0
  190.6420  175.5270  142.9310 C   0  0  0  0  0  2  0  0  0  0  0  0
  191.9590  175.6390  143.6680 C   0  0  0  0  0  2  0  0  0  0  0  0
  192.0590  174.5320  144.6950 C   0  0  0  0  0  1  0  0  0  0  0  0
  1 14  1  1  0  0  0
  1 18  1  0  0  0  0
  2  7  1  0  0  0  0
  3  1  1  6  0  0  0
  4 12  1  6  0  0  0
  4  7  1  0  0  0  0
  4  6  1  0  0  0  0
  5  9  1  6  0  0  0
  5  3  1  0  0  0  0
  6  5  1  0  0  0  0
  7  8  1  0  0  0  0
  8  3  1  0  0  0  0
  9 10  1  0  0  0  0
 11  9  1  0  0  0  0
 11 10  1  0  0  0  0
 12 13  1  0  0  0  0
 14 16  1  0  0  0  0
 14 17  1  0  0  0  0
 15 14  1  0  0  0  0
 18 29  1  6  0  0  0
 19 22  1  0  0  0  0
 20 22  1  0  0  0  0
 21 18  1  6  0  0  0
 21 24  1  0  0  0  0
 21 23  1  0  0  0  0
 22 26  1  1  0  0  0
 23 20  1  0  0  0  0
 24 19  1  0  0  0  0
 25 24  2  0  0  0  0
 26 27  1  0  0  0  0
 26 28  1  0  0  0  0
 27 28  1  0  0  0  0
 29 30  1  0  0  0  0
 30 31  1  0  0  0  0
 31 32  1  0  0  0  0
M  END
>  <MODEL>
2

>  <REMARK>
 VINA RESULT:      -4.8      2.868      4.915
  Name = 
  10 active torsions:
  status: ('A' for Active; 'I' for Inactive)
    1  A    between atoms: C_1  and  C_4
    2  A    between atoms: C_1  and  O_24
    3  A    between atoms: C_2  and  C_5
    4  A    between atoms: C_5  and  C_10
    5  A    between atoms: C_5  and  C_27
    6  A    between atoms: C_6  and  C_13
    7  A    between atoms: C_7  and  N_19
    8  A    between atoms: O_11  and  C_12
    9  A    between atoms: C_16  and  C_27
   10  A    between atoms: O_24  and  C_27
                            x       y       z     vdW  Elec       q    Type
                         _______ _______ _______ _____ _____    ______ ____

>  <TORSDO>
F 10

$$$$
=
 OpenBabel10272402103D

 32 35  0  0  1  0  0  0  0  0999 V2000
  183.7460  178.0510  138.9260 C   0  0  2  0  0  3  0  0  0  0  0  0
  179.9820  177.0160  137.0130 C   0  0  0  0  0  1  0  0  0  0  0  0
  183.6290  177.1010  137.7100 C   0  0  1  0  0  3  0  0  0  0  0  0
  181.3210  175.3450  138.0260 C   0  0  2  0  0  3  0  0  0  0  0  0
  183.8400  175.6280  138.0960 C   0  0  1  0  0  3  0  0  0  0  0  0
  182.6080  175.0540  138.8050 C   0  0  0  0  0  2  0  0  0  0  0  0
  181.1800  176.7910  137.8080 N   0  0  0  0  0  0  0  0  0  0  0  0
  182.2900  177.2500  136.9750 C   0  0  0  0  0  2  0  0  0  0  0  0
  184.2150  174.7960  136.8750 C   0  0  0  0  0  3  0  0  0  0  0  0
  185.6450  174.3110  137.0140 C   0  0  0  0  0  2  0  0  0  0  0  0
  184.4940  173.3680  137.2970 C   0  0  0  0  0  2  0  0  0  0  0  0
  180.2420  174.8650  138.7730 O   0  0  0  0  0  0  0  0  0  0  0  0
  180.4330  175.3740  140.0600 C   0  0  0  0  0  1  0  0  0  0  0  0
  183.0350  179.4060  138.7410 C   0  0  0  0  0  0  0  0  0  0  0  0
  182.5650  179.5450  137.4480 F   0  0  0  0  0  0  0  0  0  0  0  0
  183.8990  180.4520  139.0190 F   0  0  0  0  0  0  0  0  0  0  0  0
  181.9680  179.4890  139.6150 F   0  0  0  0  0  0  0  0  0  0  0  0
  185.1790  178.2100  139.4910 C   0  0  2  0  0  3  0  0  0  0  0  0
  186.7220  178.0620  142.8230 C   0  0  0  0  0  2  0  0  0  0  0  0
  184.4460  178.9690  143.2360 C   0  0  0  0  0  2  0  0  0  0  0  0
  185.2750  178.9240  140.8560 C   0  0  1  0  0  3  0  0  0  0  0  0
  185.7870  178.6700  143.7890 N   0  0  1  0  0  0  0  0  0  0  0  0
  184.2040  178.4160  141.8240 C   0  0  0  0  0  2  0  0  0  0  0  0
  186.6300  178.7350  141.4880 C   0  0  0  0  0  0  0  0  0  0  0  0
  187.6400  179.1590  140.9500 O   0  0  0  0  0  0  0  0  0  0  0  0
  185.6010  177.7180  144.8760 C   0  0  0  0  0  3  0  0  0  0  0  0
  184.9890  178.4280  146.0730 C   0  0  0  0  0  2  0  0  0  0  0  0
  186.4670  178.1040  146.0660 C   0  0  0  0  0  2  0  0  0  0  0  0
  185.9690  178.8630  138.5380 O   0  0  0  0  0  0  0  0  0  0  0  0
  186.8140  177.8730  138.0280 C   0  0  0  0  0  2  0  0  0  0  0  0
  187.3870  178.3330  136.7060 C   0  0  0  0  0  2  0  0  0  0  0  0
  186.6360  177.6700  135.5710 C   0  0  0  0  0  1  0  0  0  0  0  0
  1 14  1  6  0  0  0
  1 18  1  0  0  0  0
  2  7  1  0  0  0  0
  3  5  1  0  0  0  0
  3  1  1  1  0  0  0
  4 12  1  1  0  0  0
  4  6  1  0  0  0  0
  5  9  1  6  0  0  0
  5  6  1  0  0  0  0
  7  4  1  0  0  0  0
  8  3  1  0  0  0  0
  8  7  1  0  0  0  0
  9 10  1  0  0  0  0
  9 11  1  0  0  0  0
 10 11  1  0  0  0  0
 12 13  1  0  0  0  0
 14 16  1  0  0  0  0
 14 17  1  0  0  0  0
 15 14  1  0  0  0  0
 18 29  1  6  0  0  0
 19 22  1  0  0  0  0
 20 22  1  0  0  0  0
 21 18  1  6  0  0  0
 21 24  1  0  0  0  0
 21 23  1  0  0  0  0
 22 26  1  1  0  0  0
 23 20  1  0  0  0  0
 24 19  1  0  0  0  0
 25 24  2  0  0  0  0
 26 28  1  0  0  0  0
 26 27  1  0  0  0  0
 28 27  1  0  0  0  0
 30 29  1  0  0  0  0
 31 30  1  0  0  0  0
 32 31  1  0  0  0  0
M  END
>  <MODEL>
3

>  <REMARK>
 VINA RESULT:      -4.4      3.235      4.423
  Name = 
  10 active torsions:
  status: ('A' for Active; 'I' for Inactive)
    1  A    between atoms: C_1  and  C_4
    2  A    between atoms: C_1  and  O_24
    3  A    between atoms: C_2  and  C_5
    4  A    between atoms: C_5  and  C_10
    5  A    between atoms: C_5  and  C_27
    6  A    between atoms: C_6  and  C_13
    7  A    between atoms: C_7  and  N_19
    8  A    between atoms: O_11  and  C_12
    9  A    between atoms: C_16  and  C_27
   10  A    between atoms: O_24  and  C_27
                            x       y       z     vdW  Elec       q    Type
                         _______ _______ _______ _____ _____    ______ ____

>  <TORSDO>
F 10

$$$$
=
 OpenBabel10272402103D

 32 35  0  0  1  0  0  0  0  0999 V2000
  185.8690  178.2700  143.5960 C   0  0  2  0  0  3  0  0  0  0  0  0
  189.3890  176.7110  145.6160 C   0  0  0  0  0  1  0  0  0  0  0  0
  186.9310  177.3750  142.9120 C   0  0  1  0  0  3  0  0  0  0  0  0
  189.6080  178.1660  143.7590 C   0  0  2  0  0  3  0  0  0  0  0  0
  187.8310  178.1670  141.9500 C   0  0  1  0  0  3  0  0  0  0  0  0
  188.8650  179.0030  142.7120 C   0  0  0  0  0  2  0  0  0  0  0  0
  188.6470  177.5440  144.6810 N   0  0  0  0  0  0  0  0  0  0  0  0
  187.8030  176.6210  143.9250 C   0  0  0  0  0  2  0  0  0  0  0  0
  188.5020  177.2360  140.9460 C   0  0  0  0  0  3  0  0  0  0  0  0
  188.1760  177.6920  139.5370 C   0  0  0  0  0  2  0  0  0  0  0  0
  189.5280  178.0070  140.1410 C   0  0  0  0  0  2  0  0  0  0  0  0
  190.4680  179.0130  144.4630 O   0  0  0  0  0  0  0  0  0  0  0  0
  191.6970  178.9130  143.8080 C   0  0  0  0  0  1  0  0  0  0  0  0
  185.7810  178.0920  145.1240 C   0  0  0  0  0  0  0  0  0  0  0  0
  186.0730  176.7900  145.4880 F   0  0  0  0  0  0  0  0  0  0  0  0
  184.5120  178.4100  145.5790 F   0  0  0  0  0  0  0  0  0  0  0  0
  186.6810  178.9400  145.7400 F   0  0  0  0  0  0  0  0  0  0  0  0
  184.4770  178.2580  142.9190 C   0  0  2  0  0  3  0  0  0  0  0  0
  183.5170  179.4380  139.5730 C   0  0  0  0  0  2  0  0  0  0  0  0
  183.1050  176.9880  139.5070 C   0  0  0  0  0  2  0  0  0  0  0  0
  184.4750  177.8940  141.4200 C   0  0  1  0  0  3  0  0  0  0  0  0
  183.1800  178.2600  138.7510 N   0  0  1  0  0  0  0  0  0  0  0  0
  183.1950  177.1500  141.0320 C   0  0  0  0  0  2  0  0  0  0  0  0
  184.6070  179.1180  140.5500 C   0  0  0  0  0  0  0  0  0  0  0  0
  185.6040  179.8210  140.6000 O   0  0  0  0  0  0  0  0  0  0  0  0
  181.8640  178.4930  138.1720 C   0  0  0  0  0  3  0  0  0  0  0  0
  181.3380  177.2000  137.5690 C   0  0  0  0  0  2  0  0  0  0  0  0
  181.9060  178.2750  136.6680 C   0  0  0  0  0  2  0  0  0  0  0  0
  183.8660  179.5010  143.1240 O   0  0  0  0  0  0  0  0  0  0  0  0
  182.7570  179.2310  143.9310 C   0  0  0  0  0  2  0  0  0  0  0  0
  181.4960  179.3200  143.1000 C   0  0  0  0  0  2  0  0  0  0  0  0
  180.3770  178.5780  143.7970 C   0  0  0  0  0  1  0  0  0  0  0  0
  1 14  1  1  0  0  0
  3  1  1  1  0  0  0
  3  8  1  0  0  0  0
  4 12  1  1  0  0  0
  4  7  1  0  0  0  0
  5  9  1  6  0  0  0
  5  6  1  0  0  0  0
  5  3  1  0  0  0  0
  6  4  1  0  0  0  0
  7  2  1  0  0  0  0
  8  7  1  0  0  0  0
 10 11  1  0  0  0  0
 10  9  1  0  0  0  0
 11  9  1  0  0  0  0
 13 12  1  0  0  0  0
 14 15  1  0  0  0  0
 14 16  1  0  0  0  0
 14 17  1  0  0  0  0
 18 29  1  6  0  0  0
 18  1  1  0  0  0  0
 19 24  1  0  0  0  0
 20 23  1  0  0  0  0
 21 18  1  1  0  0  0
 22 26  1  1  0  0  0
 22 20  1  0  0  0  0
 22 19  1  0  0  0  0
 23 21  1  0  0  0  0
 24 25  2  0  0  0  0
 24 21  1  0  0  0  0
 27 26  1  0  0  0  0
 28 27  1  0  0  0  0
 28 26  1  0  0  0  0
 29 30  1  0  0  0  0
 31 32  1  0  0  0  0
 31 30  1  0  0  0  0
M  END
>  <MODEL>
4

>  <REMARK>
 VINA RESULT:      -4.3      4.478      8.328
  Name = 
  10 active torsions:
  status: ('A' for Active; 'I' for Inactive)
    1  A    between atoms: C_1  and  C_4
    2  A    between atoms: C_1  and  O_24
    3  A    between atoms: C_2  and  C_5
    4  A    between atoms: C_5  and  C_10
    5  A    between atoms: C_5  and  C_27
    6  A    between atoms: C_6  and  C_13
    7  A    between atoms: C_7  and  N_19
    8  A    between atoms: O_11  and  C_12
    9  A    between atoms: C_16  and  C_27
   10  A    between atoms: O_24  and  C_27
                            x       y       z     vdW  Elec       q    Type
                         _______ _______ _______ _____ _____    ______ ____

>  <TORSDO>
F 10

$$$$
=
 OpenBabel10272402103D

 32 35  0  0  1  0  0  0  0  0999 V2000
  186.8890  177.8800  140.9470 C   0  0  2  0  0  3  0  0  0  0  0  0
  191.1820  177.4310  141.4640 C   0  0  0  0  0  1  0  0  0  0  0  0
  187.6650  178.3770  142.1900 C   0  0  1  0  0  3  0  0  0  0  0  0
  189.6700  176.4100  142.9760 C   0  0  2  0  0  3  0  0  0  0  0  0
  187.4210  177.4930  143.4230 C   0  0  1  0  0  3  0  0  0  0  0  0
  188.1970  176.1740  143.3280 C   0  0  0  0  0  2  0  0  0  0  0  0
  189.7730  177.1760  141.7260 N   0  0  0  0  0  0  0  0  0  0  0  0
  189.1730  178.4930  141.9330 C   0  0  0  0  0  2  0  0  0  0  0  0
  187.7620  178.2450  144.7050 C   0  0  0  0  0  3  0  0  0  0  0  0
  186.5900  178.1650  145.6650 C   0  0  0  0  0  2  0  0  0  0  0  0
  187.8000  177.2770  145.8700 C   0  0  0  0  0  2  0  0  0  0  0  0
  190.2870  175.1650  142.8270 O   0  0  0  0  0  0  0  0  0  0  0  0
  191.3270  175.1580  143.7590 C   0  0  0  0  0  1  0  0  0  0  0  0
  187.6090  178.1340  139.6080 C   0  0  0  0  0  0  0  0  0  0  0  0
  188.5060  179.1810  139.7200 F   0  0  0  0  0  0  0  0  0  0  0  0
  186.6940  178.4340  138.6120 F   0  0  0  0  0  0  0  0  0  0  0  0
  188.2950  176.9960  139.2300 F   0  0  0  0  0  0  0  0  0  0  0  0
  185.3980  178.2940  140.9030 C   0  0  2  0  0  3  0  0  0  0  0  0
  182.4410  179.2270  138.9280 C   0  0  0  0  0  2  0  0  0  0  0  0
  182.9260  176.8860  138.2490 C   0  0  0  0  0  2  0  0  0  0  0  0
  184.7060  178.1250  139.5340 C   0  0  1  0  0  3  0  0  0  0  0  0
  182.1380  178.1170  138.0040 N   0  0  1  0  0  0  0  0  0  0  0  0
  183.7680  176.9160  139.5330 C   0  0  0  0  0  2  0  0  0  0  0  0
  183.9180  179.3510  139.1530 C   0  0  0  0  0  0  0  0  0  0  0  0
  184.4690  180.4270  138.9840 O   0  0  0  0  0  0  0  0  0  0  0  0
  180.7350  177.7700  138.1830 C   0  0  0  0  0  3  0  0  0  0  0  0
  180.4010  176.5530  137.3360 C   0  0  0  0  0  2  0  0  0  0  0  0
  179.9840  177.9300  136.8700 C   0  0  0  0  0  2  0  0  0  0  0  0
  185.2840  179.6160  141.3500 O   0  0  0  0  0  0  0  0  0  0  0  0
  184.9690  179.5130  142.7080 C   0  0  0  0  0  2  0  0  0  0  0  0
  183.6760  178.7440  142.8670 C   0  0  0  0  0  2  0  0  0  0  0  0
  183.2240  178.8070  144.3100 C   0  0  0  0  0  1  0  0  0  0  0  0
  1 14  1  6  0  0  0
  2  7  1  0  0  0  0
  3  1  1  6  0  0  0
  3  5  1  0  0  0  0
  4 12  1  6  0  0  0
  4  6  1  0  0  0  0
  5  9  1  1  0  0  0
  6  5  1  0  0  0  0
  7  8  1  0  0  0  0
  7  4  1  0  0  0  0
  8  3  1  0  0  0  0
  9 10  1  0  0  0  0
  9 11  1  0  0  0  0
 10 11  1  0  0  0  0
 12 13  1  0  0  0  0
 14 15  1  0  0  0  0
 16 14  1  0  0  0  0
 17 14  1  0  0  0  0
 18  1  1  0  0  0  0
 18 29  1  6  0  0  0
 19 24  1  0  0  0  0
 20 23  1  0  0  0  0
 21 18  1  1  0  0  0
 22 26  1  1  0  0  0
 22 20  1  0  0  0  0
 22 19  1  0  0  0  0
 23 21  1  0  0  0  0
 24 21  1  0  0  0  0
 25 24  2  0  0  0  0
 27 26  1  0  0  0  0
 28 27  1  0  0  0  0
 28 26  1  0  0  0  0
 29 30  1  0  0  0  0
 30 31  1  0  0  0  0
 31 32  1  0  0  0  0
M  END
>  <MODEL>
5

>  <REMARK>
 VINA RESULT:      -3.8      3.589      7.483
  Name = 
  10 active torsions:
  status: ('A' for Active; 'I' for Inactive)
    1  A    between atoms: C_1  and  C_4
    2  A    between atoms: C_1  and  O_24
    3  A    between atoms: C_2  and  C_5
    4  A    between atoms: C_5  and  C_10
    5  A    between atoms: C_5  and  C_27
    6  A    between atoms: C_6  and  C_13
    7  A    between atoms: C_7  and  N_19
    8  A    between atoms: O_11  and  C_12
    9  A    between atoms: C_16  and  C_27
   10  A    between atoms: O_24  and  C_27
                            x       y       z     vdW  Elec       q    Type
                         _______ _______ _______ _____ _____    ______ ____

>  <TORSDO>
F 10

$$$$
=
 OpenBabel10272402103D

 32 35  0  0  1  0  0  0  0  0999 V2000
  187.7140  177.7910  142.8930 C   0  0  2  0  0  3  0  0  0  0  0  0
  191.9520  177.6620  141.9340 C   0  0  0  0  0  1  0  0  0  0  0  0
  188.8290  178.2870  143.8440 C   0  0  1  0  0  3  0  0  0  0  0  0
  191.0940  176.4500  143.7800 C   0  0  2  0  0  3  0  0  0  0  0  0
  189.0640  177.3260  145.0210 C   0  0  1  0  0  3  0  0  0  0  0  0
  189.8400  176.0800  144.5790 C   0  0  0  0  0  2  0  0  0  0  0  0
  190.7290  177.2830  142.6250 N   0  0  0  0  0  0  0  0  0  0  0  0
  190.1560  178.5360  143.1140 C   0  0  0  0  0  2  0  0  0  0  0  0
  189.7670  178.0390  146.1700 C   0  0  0  0  0  3  0  0  0  0  0  0
  189.0410  177.7430  147.4680 C   0  0  0  0  0  2  0  0  0  0  0  0
  190.3280  177.0170  147.1380 C   0  0  0  0  0  2  0  0  0  0  0  0
  191.6990  175.2670  143.3450 O   0  0  0  0  0  0  0  0  0  0  0  0
  192.1940  174.6630  144.5030 C   0  0  0  0  0  1  0  0  0  0  0  0
  187.7720  178.4000  141.4780 C   0  0  0  0  0  0  0  0  0  0  0  0
  188.6060  177.6640  140.6570 F   0  0  0  0  0  0  0  0  0  0  0  0
  188.2310  179.7060  141.5280 F   0  0  0  0  0  0  0  0  0  0  0  0
  186.5040  178.4130  140.9290 F   0  0  0  0  0  0  0  0  0  0  0  0
  186.2870  177.8260  143.4910 C   0  0  2  0  0  3  0  0  0  0  0  0
  182.9870  179.4400  143.6280 C   0  0  0  0  0  2  0  0  0  0  0  0
  183.1000  178.4560  141.3500 C   0  0  0  0  0  2  0  0  0  0  0  0
  185.2440  178.6090  142.6660 C   0  0  1  0  0  3  0  0  0  0  0  0
  182.3680  179.3330  142.2930 N   0  0  1  0  0  0  0  0  0  0  0  0
  184.2530  177.6640  141.9830 C   0  0  0  0  0  2  0  0  0  0  0  0
  184.4750  179.5830  143.5210 C   0  0  0  0  0  0  0  0  0  0  0  0
  185.0390  180.5050  144.0880 O   0  0  0  0  0  0  0  0  0  0  0  0
  181.0410  178.7580  142.4720 C   0  0  0  0  0  3  0  0  0  0  0  0
  180.4820  178.3410  141.1220 C   0  0  0  0  0  2  0  0  0  0  0  0
  179.9990  179.6180  141.7740 C   0  0  0  0  0  2  0  0  0  0  0  0
  186.3570  178.3270  144.7960 O   0  0  0  0  0  0  0  0  0  0  0  0
  185.7200  177.3670  145.5870 C   0  0  0  0  0  2  0  0  0  0  0  0
  185.1070  178.0380  146.7960 C   0  0  0  0  0  2  0  0  0  0  0  0
  185.9650  179.2120  147.2140 C   0  0  0  0  0  1  0  0  0  0  0  0
  1 14  1  6  0  0  0
  1 18  1  0  0  0  0
  2  7  1  0  0  0  0
  3  1  1  6  0  0  0
  3  5  1  0  0  0  0
  4 12  1  6  0  0  0
  4  6  1  0  0  0  0
  5  9  1  1  0  0  0
  6  5  1  0  0  0  0
  7  8  1  0  0  0  0
  7  4  1  0  0  0  0
  8  3  1  0  0  0  0
  9 11  1  0  0  0  0
  9 10  1  0  0  0  0
 11 10  1  0  0  0  0
 12 13  1  0  0  0  0
 14 16  1  0  0  0  0
 15 14  1  0  0  0  0
 17 14  1  0  0  0  0
 18 29  1  1  0  0  0
 20 23  1  0  0  0  0
 20 22  1  0  0  0  0
 21 18  1  1  0  0  0
 21 24  1  0  0  0  0
 22 26  1  1  0  0  0
 22 19  1  0  0  0  0
 23 21  1  0  0  0  0
 24 19  1  0  0  0  0
 24 25  2  0  0  0  0
 27 28  1  0  0  0  0
 27 26  1  0  0  0  0
 28 26  1  0  0  0  0
 29 30  1  0  0  0  0
 30 31  1  0  0  0  0
 31 32  1  0  0  0  0
M  END
>  <MODEL>
6

>  <REMARK>
 VINA RESULT:      -3.7      5.006      8.053
  Name = 
  10 active torsions:
  status: ('A' for Active; 'I' for Inactive)
    1  A    between atoms: C_1  and  C_4
    2  A    between atoms: C_1  and  O_24
    3  A    between atoms: C_2  and  C_5
    4  A    between atoms: C_5  and  C_10
    5  A    between atoms: C_5  and  C_27
    6  A    between atoms: C_6  and  C_13
    7  A    between atoms: C_7  and  N_19
    8  A    between atoms: O_11  and  C_12
    9  A    between atoms: C_16  and  C_27
   10  A    between atoms: O_24  and  C_27
                            x       y       z     vdW  Elec       q    Type
                         _______ _______ _______ _____ _____    ______ ____

>  <TORSDO>
F 10

$$$$
=
 OpenBabel10272402103D

 32 35  0  0  1  0  0  0  0  0999 V2000
  187.2600  177.4030  136.5560 C   0  0  2  0  0  3  0  0  0  0  0  0
  191.3850  176.2570  135.8060 C   0  0  0  0  0  1  0  0  0  0  0  0
  188.4500  177.8290  137.4500 C   0  0  1  0  0  3  0  0  0  0  0  0
  190.2920  175.5950  137.8010 C   0  0  2  0  0  3  0  0  0  0  0  0
  188.4790  177.0690  138.7850 C   0  0  1  0  0  3  0  0  0  0  0  0
  188.9860  175.6340  138.6010 C   0  0  0  0  0  2  0  0  0  0  0  0
  190.1090  176.2620  136.5040 N   0  0  0  0  0  0  0  0  0  0  0  0
  189.8020  177.6710  136.7410 C   0  0  0  0  0  2  0  0  0  0  0  0
  189.3090  177.8220  139.8190 C   0  0  0  0  0  3  0  0  0  0  0  0
  188.4660  178.0830  141.0520 C   0  0  0  0  0  2  0  0  0  0  0  0
  189.4870  176.9640  141.0550 C   0  0  0  0  0  2  0  0  0  0  0  0
  190.6440  174.2560  137.6060 O   0  0  0  0  0  0  0  0  0  0  0  0
  189.5080  173.6570  137.0560 C   0  0  0  0  0  1  0  0  0  0  0  0
  187.0300  178.3120  135.3330 C   0  0  0  0  0  0  0  0  0  0  0  0
  187.9660  178.0600  134.3470 F   0  0  0  0  0  0  0  0  0  0  0  0
  187.1100  179.6460  135.6960 F   0  0  0  0  0  0  0  0  0  0  0  0
  185.7680  178.0830  134.8190 F   0  0  0  0  0  0  0  0  0  0  0  0
  185.9480  177.1020  137.3210 C   0  0  2  0  0  3  0  0  0  0  0  0
  184.3630  173.8120  137.7390 C   0  0  0  0  0  2  0  0  0  0  0  0
  184.9010  173.9370  135.3160 C   0  0  0  0  0  2  0  0  0  0  0  0
  185.0150  176.0710  136.6520 C   0  0  1  0  0  3  0  0  0  0  0  0
  184.2120  173.2030  136.4030 N   0  0  1  0  0  0  0  0  0  0  0  0
  185.8070  175.0810  135.7960 C   0  0  0  0  0  2  0  0  0  0  0  0
  184.2150  175.3020  137.6700 C   0  0  0  0  0  0  0  0  0  0  0  0
  183.4200  175.8670  138.4050 O   0  0  0  0  0  0  0  0  0  0  0  0
  184.8000  171.8720  136.4610 C   0  0  0  0  0  3  0  0  0  0  0  0
  184.6740  171.2020  135.1030 C   0  0  0  0  0  2  0  0  0  0  0  0
  183.7310  170.8160  136.2210 C   0  0  0  0  0  2  0  0  0  0  0  0
  185.2700  178.3060  137.5450 O   0  0  0  0  0  0  0  0  0  0  0  0
  185.2810  178.4760  138.9320 C   0  0  0  0  0  2  0  0  0  0  0  0
  184.2590  179.5220  139.3190 C   0  0  0  0  0  2  0  0  0  0  0  0
  183.0360  179.3850  138.4390 C   0  0  0  0  0  1  0  0  0  0  0  0
  1 14  1  6  0  0  0
  1 18  1  0  0  0  0
  2  7  1  0  0  0  0
  3  1  1  6  0  0  0
  3  5  1  0  0  0  0
  4 12  1  6  0  0  0
  4  6  1  0  0  0  0
  5  9  1  1  0  0  0
  6  5  1  0  0  0  0
  7  8  1  0  0  0  0
  7  4  1  0  0  0  0
  8  3  1  0  0  0  0
  9 10  1  0  0  0  0
  9 11  1  0  0  0  0
 10 11  1  0  0  0  0
 13 12  1  0  0  0  0
 14 16  1  0  0  0  0
 15 14  1  0  0  0  0
 17 14  1  0  0  0  0
 18 29  1  6  0  0  0
 20 23  1  0  0  0  0
 20 22  1  0  0  0  0
 21 18  1  1  0  0  0
 21 24  1  0  0  0  0
 22 26  1  1  0  0  0
 22 19  1  0  0  0  0
 23 21  1  0  0  0  0
 24 19  1  0  0  0  0
 24 25  2  0  0  0  0
 27 28  1  0  0  0  0
 27 26  1  0  0  0  0
 28 26  1  0  0  0  0
 29 30  1  0  0  0  0
 30 31  1  0  0  0  0
 32 31  1  0  0  0  0
M  END
>  <MODEL>
7

>  <REMARK>
 VINA RESULT:      -3.7      2.493      6.382
  Name = 
  10 active torsions:
  status: ('A' for Active; 'I' for Inactive)
    1  A    between atoms: C_1  and  C_4
    2  A    between atoms: C_1  and  O_24
    3  A    between atoms: C_2  and  C_5
    4  A    between atoms: C_5  and  C_10
    5  A    between atoms: C_5  and  C_27
    6  A    between atoms: C_6  and  C_13
    7  A    between atoms: C_7  and  N_19
    8  A    between atoms: O_11  and  C_12
    9  A    between atoms: C_16  and  C_27
   10  A    between atoms: O_24  and  C_27
                            x       y       z     vdW  Elec       q    Type
                         _______ _______ _______ _____ _____    ______ ____

>  <TORSDO>
F 10

$$$$
=
 OpenBabel10272402103D

 32 35  0  0  1  0  0  0  0  0999 V2000
  186.3290  178.4960  143.5470 C   0  0  2  0  0  3  0  0  0  0  0  0
  186.8030  177.2480  147.6840 C   0  0  0  0  0  1  0  0  0  0  0  0
  187.0820  177.2150  143.9810 C   0  0  1  0  0  3  0  0  0  0  0  0
  188.6950  177.7530  146.3510 C   0  0  2  0  0  3  0  0  0  0  0  0
  188.6060  177.3590  143.8470 C   0  0  1  0  0  3  0  0  0  0  0  0
  189.1870  178.2180  144.9760 C   0  0  0  0  0  2  0  0  0  0  0  0
  187.2260  177.7550  146.3870 N   0  0  0  0  0  0  0  0  0  0  0  0
  186.7320  176.7850  145.4120 C   0  0  0  0  0  2  0  0  0  0  0  0
  189.2770  175.9920  143.7890 C   0  0  0  0  0  3  0  0  0  0  0  0
  190.1060  175.8880  142.5240 C   0  0  0  0  0  2  0  0  0  0  0  0
  190.7820  176.1580  143.8520 C   0  0  0  0  0  2  0  0  0  0  0  0
  189.2000  178.6300  147.3150 O   0  0  0  0  0  0  0  0  0  0  0  0
  190.1120  177.8750  148.0550 C   0  0  0  0  0  1  0  0  0  0  0  0
  185.3620  179.0520  144.6100 C   0  0  0  0  0  0  0  0  0  0  0  0
  186.0530  179.4990  145.7210 F   0  0  0  0  0  0  0  0  0  0  0  0
  184.4600  178.0780  145.0050 F   0  0  0  0  0  0  0  0  0  0  0  0
  184.6460  180.1060  144.0750 F   0  0  0  0  0  0  0  0  0  0  0  0
  185.6830  178.4250  142.1420 C   0  0  2  0  0  3  0  0  0  0  0  0
  186.3870  178.0390  138.5550 C   0  0  0  0  0  2  0  0  0  0  0  0
  188.6110  178.4590  139.5800 C   0  0  0  0  0  2  0  0  0  0  0  0
  186.5690  178.9260  140.9820 C   0  0  1  0  0  3  0  0  0  0  0  0
  187.8190  178.3180  138.3360 N   0  0  1  0  0  0  0  0  0  0  0  0
  187.8490  178.0960  140.8630 C   0  0  0  0  0  2  0  0  0  0  0  0
  185.8380  178.8830  139.6650 C   0  0  0  0  0  0  0  0  0  0  0  0
  184.8360  179.5550  139.4780 O   0  0  0  0  0  0  0  0  0  0  0  0
  188.3760  177.1930  137.5980 C   0  0  0  0  0  3  0  0  0  0  0  0
  189.8840  177.3510  137.4940 C   0  0  0  0  0  2  0  0  0  0  0  0
  189.0100  177.6770  136.3030 C   0  0  0  0  0  2  0  0  0  0  0  0
  184.4690  179.1200  142.1680 O   0  0  0  0  0  0  0  0  0  0  0  0
  183.4910  178.1510  141.9260 C   0  0  0  0  0  2  0  0  0  0  0  0
  182.1230  178.7960  141.9650 C   0  0  0  0  0  2  0  0  0  0  0  0
  181.7170  179.0370  143.4030 C   0  0  0  0  0  1  0  0  0  0  0  0
  1 14  1  1  0  0  0
  3  1  1  1  0  0  0
  3  8  1  0  0  0  0
  4  7  1  0  0  0  0
  4 12  1  1  0  0  0
  5  9  1  1  0  0  0
  5  3  1  0  0  0  0
  5  6  1  0  0  0  0
  6  4  1  0  0  0  0
  7  2  1  0  0  0  0
  8  7  1  0  0  0  0
  9 11  1  0  0  0  0
 10  9  1  0  0  0  0
 10 11  1  0  0  0  0
 12 13  1  0  0  0  0
 14 16  1  0  0  0  0
 14 15  1  0  0  0  0
 17 14  1  0  0  0  0
 18 29  1  1  0  0  0
 18  1  1  0  0  0  0
 19 24  1  0  0  0  0
 20 23  1  0  0  0  0
 21 18  1  1  0  0  0
 22 26  1  6  0  0  0
 22 19  1  0  0  0  0
 22 20  1  0  0  0  0
 23 21  1  0  0  0  0
 24 21  1  0  0  0  0
 25 24  2  0  0  0  0
 27 26  1  0  0  0  0
 28 27  1  0  0  0  0
 28 26  1  0  0  0  0
 30 31  1  0  0  0  0
 30 29  1  0  0  0  0
 31 32  1  0  0  0  0
M  END
>  <MODEL>
8

>  <REMARK>
 VINA RESULT:      -3.6      3.990      8.452
  Name = 
  10 active torsions:
  status: ('A' for Active; 'I' for Inactive)
    1  A    between atoms: C_1  and  C_4
    2  A    between atoms: C_1  and  O_24
    3  A    between atoms: C_2  and  C_5
    4  A    between atoms: C_5  and  C_10
    5  A    between atoms: C_5  and  C_27
    6  A    between atoms: C_6  and  C_13
    7  A    between atoms: C_7  and  N_19
    8  A    between atoms: O_11  and  C_12
    9  A    between atoms: C_16  and  C_27
   10  A    between atoms: O_24  and  C_27
                            x       y       z     vdW  Elec       q    Type
                         _______ _______ _______ _____ _____    ______ ____

>  <TORSDO>
F 10

$$$$
=
 OpenBabel10272402103D

 32 35  0  0  1  0  0  0  0  0999 V2000
  187.9360  176.8160  136.7560 C   0  0  2  0  0  3  0  0  0  0  0  0
  183.9340  175.7170  135.4610 C   0  0  0  0  0  1  0  0  0  0  0  0
  187.6400  175.7200  135.7040 C   0  0  1  0  0  3  0  0  0  0  0  0
  185.3360  174.1320  136.5280 C   0  0  2  0  0  3  0  0  0  0  0  0
  187.8520  174.3030  136.2610 C   0  0  1  0  0  3  0  0  0  0  0  0
  186.7000  173.8860  137.1820 C   0  0  0  0  0  2  0  0  0  0  0  0
  185.2140  175.5420  136.1330 N   0  0  0  0  0  0  0  0  0  0  0  0
  186.2260  175.8340  135.1190 C   0  0  0  0  0  2  0  0  0  0  0  0
  188.0470  173.3000  135.1290 C   0  0  0  0  0  3  0  0  0  0  0  0
  189.4120  172.6520  135.2570 C   0  0  0  0  0  2  0  0  0  0  0  0
  188.1740  171.9030  135.7010 C   0  0  0  0  0  2  0  0  0  0  0  0
  184.3430  173.8070  137.4560 O   0  0  0  0  0  0  0  0  0  0  0  0
  184.1680  172.4270  137.3370 C   0  0  0  0  0  1  0  0  0  0  0  0
  187.4460  178.2220  136.3600 C   0  0  0  0  0  0  0  0  0  0  0  0
  187.1560  178.2820  135.0100 F   0  0  0  0  0  0  0  0  0  0  0  0
  188.4070  179.1740  136.6550 F   0  0  0  0  0  0  0  0  0  0  0  0
  186.3050  178.5300  137.0760 F   0  0  0  0  0  0  0  0  0  0  0  0
  189.3890  176.8270  137.2910 C   0  0  2  0  0  3  0  0  0  0  0  0
  192.8020  175.4620  137.2810 C   0  0  0  0  0  2  0  0  0  0  0  0
  192.3850  176.1050  134.9170 C   0  0  0  0  0  2  0  0  0  0  0  0
  190.4020  176.0030  136.4690 C   0  0  1  0  0  3  0  0  0  0  0  0
  193.2740  175.4190  135.8830 N   0  0  1  0  0  0  0  0  0  0  0  0
  191.2420  176.9030  135.5610 C   0  0  0  0  0  2  0  0  0  0  0  0
  191.3260  175.2110  137.3580 C   0  0  0  0  0  0  0  0  0  0  0  0
  190.8960  174.3440  138.1020 O   0  0  0  0  0  0  0  0  0  0  0  0
  194.5620  176.0960  135.8360 C   0  0  0  0  0  3  0  0  0  0  0  0
  195.1870  175.9030  134.4640 C   0  0  0  0  0  2  0  0  0  0  0  0
  195.6800  175.0840  135.6360 C   0  0  0  0  0  2  0  0  0  0  0  0
  189.3810  176.4060  138.6260 O   0  0  0  0  0  0  0  0  0  0  0  0
  188.9820  177.5270  139.3580 C   0  0  0  0  0  2  0  0  0  0  0  0
  189.4740  177.3990  140.7830 C   0  0  0  0  0  2  0  0  0  0  0  0
  190.9640  177.1310  140.7820 C   0  0  0  0  0  1  0  0  0  0  0  0
  1 14  1  6  0  0  0
  1 18  1  0  0  0  0
  2  7  1  0  0  0  0
  3  5  1  0  0  0  0
  3  1  1  1  0  0  0
  4  6  1  0  0  0  0
  4 12  1  1  0  0  0
  5  9  1  6  0  0  0
  5  6  1  0  0  0  0
  7  4  1  0  0  0  0
  8  3  1  0  0  0  0
  8  7  1  0  0  0  0
  9 10  1  0  0  0  0
  9 11  1  0  0  0  0
 10 11  1  0  0  0  0
 13 12  1  0  0  0  0
 14 16  1  0  0  0  0
 14 17  1  0  0  0  0
 15 14  1  0  0  0  0
 18 29  1  1  0  0  0
 19 24  1  0  0  0  0
 20 23  1  0  0  0  0
 20 22  1  0  0  0  0
 21 18  1  1  0  0  0
 21 24  1  0  0  0  0
 22 26  1  1  0  0  0
 22 19  1  0  0  0  0
 23 21  1  0  0  0  0
 24 25  2  0  0  0  0
 27 28  1  0  0  0  0
 27 26  1  0  0  0  0
 28 26  1  0  0  0  0
 29 30  1  0  0  0  0
 30 31  1  0  0  0  0
 32 31  1  0  0  0  0
M  END
>  <MODEL>
9

>  <REMARK>
 VINA RESULT:      -3.6      2.435      5.364
  Name = 
  10 active torsions:
  status: ('A' for Active; 'I' for Inactive)
    1  A    between atoms: C_1  and  C_4
    2  A    between atoms: C_1  and  O_24
    3  A    between atoms: C_2  and  C_5
    4  A    between atoms: C_5  and  C_10
    5  A    between atoms: C_5  and  C_27
    6  A    between atoms: C_6  and  C_13
    7  A    between atoms: C_7  and  N_19
    8  A    between atoms: O_11  and  C_12
    9  A    between atoms: C_16  and  C_27
   10  A    between atoms: O_24  and  C_27
                            x       y       z     vdW  Elec       q    Type
                         _______ _______ _______ _____ _____    ______ ____

>  <TORSDO>
F 10

$$$$
