=
 OpenBabel10272415083D

 34 38  0  0  0  0  0  0  0  0999 V2000
  186.6020  178.1570  144.0560 C   0  0  0  0  0  0  0  0  0  0  0  0
  187.7870  177.6940  147.5440 C   0  0  0  0  0  3  0  0  0  0  0  0
  185.7570  178.3250  146.7060 C   0  0  0  0  0  3  0  0  0  0  0  0
  186.1010  178.5040  141.5910 C   0  0  0  0  0  0  0  0  0  0  0  0
  187.0610  177.9890  142.6170 C   0  0  0  0  0  2  0  0  0  0  0  0
  184.4230  178.8800  143.3290 C   0  0  0  0  0  0  0  0  0  0  0  0
  183.1050  179.2560  143.5640 O   0  0  0  0  0  1  0  0  0  0  0  0
  184.8680  178.8680  141.9280 C   0  0  0  0  0  3  0  0  0  0  0  0
  184.8610  178.6290  145.6920 C   0  0  0  0  0  0  0  0  0  0  0  0
  185.2670  178.5600  144.3410 C   0  0  0  0  0  0  0  0  0  0  0  0
  183.5730  179.0040  146.0590 O   0  0  0  0  0  1  0  0  0  0  0  0
  189.1760  177.2740  147.7400 C   0  0  0  0  0  3  0  0  0  0  0  0
  190.1260  177.0120  146.8460 C   0  0  0  0  0  0  0  0  0  0  0  0
  189.9460  177.1030  145.3950 C   0  0  0  0  0  3  0  0  0  0  0  0
  187.0710  177.9420  146.4480 C   0  0  0  0  0  0  0  0  0  0  0  0
  188.8740  177.4460  144.6890 C   0  0  0  0  0  3  0  0  0  0  0  0
  187.5120  177.8490  145.1040 C   0  0  0  0  0  0  0  0  0  0  0  0
  191.4610  176.6000  147.3360 C   0  0  0  0  0  0  0  0  0  0  0  0
  192.2080  175.4650  146.7160 C   0  0  0  0  0  1  0  0  0  0  0  0
  191.9960  177.2110  148.3000 O   0  0  0  0  0  0  0  0  0  0  0  0
  186.5100  178.4810  140.1420 C   0  0  0  0  0  2  0  0  0  0  0  0
  190.1310  177.6010  140.5780 C   0  0  0  0  0  2  0  0  0  0  0  0
  188.1020  177.8450  138.4520 C   0  0  0  0  0  2  0  0  0  0  0  0
  191.9870  176.2050  137.5750 C   0  0  0  0  0  0  0  0  0  0  0  0
  191.6930  176.6550  138.8690 C   0  0  0  0  0  3  0  0  0  0  0  0
  190.4330  177.1810  139.1680 C   0  0  0  0  0  0  0  0  0  0  0  0
  189.7380  176.7950  136.8740 C   0  0  0  0  0  3  0  0  0  0  0  0
  189.4420  177.2310  138.1680 C   0  0  0  0  0  0  0  0  0  0  0  0
  191.0020  176.2790  136.5800 C   0  0  0  0  0  3  0  0  0  0  0  0
  187.7920  177.8090  139.8850 N   0  0  0  0  0  0  0  0  0  0  0  0
  188.8670  178.4560  140.6420 C   0  0  0  0  0  2  0  0  0  0  0  0
  193.3200  175.6580  137.2690 C   0  0  0  0  0  0  0  0  0  0  0  0
  193.6030  174.4660  137.5630 O   0  0  0  0  0  1  0  0  0  0  0  0
  194.2790  176.4520  136.6530 O   0  0  0  0  0  0  0  0  0  0  0  0
  1 10  1  0  0  0  0
  1 17  2  0  0  0  0
  2 12  1  0  0  0  0
  4  8  2  0  0  0  0
  4  5  1  0  0  0  0
  5  1  1  0  0  0  0
  6  7  1  0  0  0  0
  6 10  2  0  0  0  0
  8  6  1  0  0  0  0
  9 11  1  0  0  0  0
  9  3  2  0  0  0  0
 10  9  1  0  0  0  0
 13 18  1  0  0  0  0
 13 12  2  0  0  0  0
 14 13  1  0  0  0  0
 15  3  1  0  0  0  0
 15  2  2  0  0  0  0
 16 17  1  0  0  0  0
 16 14  2  0  0  0  0
 17 15  1  0  0  0  0
 18 20  2  0  0  0  0
 19 18  1  0  0  0  0
 21  4  1  0  0  0  0
 22 31  1  0  0  0  0
 23 30  1  0  0  0  0
 24 25  1  0  0  0  0
 25 26  2  0  0  0  0
 26 22  1  0  0  0  0
 27 28  2  0  0  0  0
 28 23  1  0  0  0  0
 28 26  1  0  0  0  0
 29 27  1  0  0  0  0
 29 24  2  0  0  0  0
 30 21  1  0  0  0  0
 30 31  1  0  0  0  0
 32 33  1  0  0  0  0
 32 24  1  0  0  0  0
 34 32  2  0  0  0  0
M  END
>  <MODEL>
1

>  <REMARK>
 VINA RESULT:     -12.1      0.000      0.000
  Name = 
  4 active torsions:
  status: ('A' for Active; 'I' for Inactive)
    1  A    between atoms: C_3  and  C_25
    2  A    between atoms: C_7  and  C_11
    3  A    between atoms: C_8  and  C_18
    4  A    between atoms: C_18  and  N_30
                            x       y       z     vdW  Elec       q    Type
                         _______ _______ _______ _____ _____    ______ ____

>  <TORSDO>
F 4

$$$$
=
 OpenBabel10272415083D

 34 38  0  0  1  0  0  0  0  0999 V2000
  188.1700  177.7660  145.0660 C   0  0  1  0  0  3  0  0  0  0  0  0
  184.6850  178.5020  146.1150 C   0  0  0  0  0  3  0  0  0  0  0  0
  186.5850  178.1320  147.3280 C   0  0  0  0  0  3  0  0  0  0  0  0
  190.4270  177.1650  144.0690 C   0  0  0  0  0  0  0  0  0  0  0  0
  189.0300  177.6410  143.8190 C   0  0  0  0  0  3  0  0  0  0  0  0
  190.0730  177.3490  146.4810 C   0  0  0  0  0  0  0  0  0  0  0  0
  190.6890  177.2540  147.7240 O   0  0  0  0  0  1  0  0  0  0  0  0
  190.9110  177.0800  145.3040 C   0  0  0  0  0  3  0  0  0  0  0  0
  187.9350  177.8520  147.4880 C   0  0  0  0  0  0  0  0  0  0  0  0
  188.7570  177.6530  146.3570 C   0  0  0  0  0  0  0  0  0  0  0  0
  188.4290  177.7710  148.7860 O   0  0  0  0  0  1  0  0  0  0  0  0
  183.6830  178.6880  145.0630 C   0  0  0  0  0  3  0  0  0  0  0  0
  183.8130  178.6440  143.7390 C   0  0  0  0  0  0  0  0  0  0  0  0
  185.0720  178.3810  143.0380 C   0  0  0  0  0  3  0  0  0  0  0  0
  185.9900  178.2320  146.0740 C   0  0  0  0  0  0  0  0  0  0  0  0
  186.2840  178.1390  143.5250 C   0  0  0  0  0  3  0  0  0  0  0  0
  186.7850  178.0510  144.9150 C   0  0  0  0  0  0  0  0  0  0  0  0
  182.6110  178.8760  142.9060 C   0  0  0  0  0  0  0  0  0  0  0  0
  181.2740  179.1420  143.5150 C   0  0  0  0  0  1  0  0  0  0  0  0
  182.7000  178.8510  141.6490 O   0  0  0  0  0  0  0  0  0  0  0  0
  191.3250  176.9070  142.8880 C   0  0  0  0  0  2  0  0  0  0  0  0
  190.8690  176.5720  139.1800 C   0  0  0  0  0  2  0  0  0  0  0  0
  189.5320  177.7570  141.5250 C   0  0  0  0  0  2  0  0  0  0  0  0
  187.5700  177.7180  137.6910 C   0  0  0  0  0  0  0  0  0  0  0  0
  188.8630  177.1940  137.8220 C   0  0  0  0  0  3  0  0  0  0  0  0
  189.5070  177.1930  139.0620 C   0  0  0  0  0  0  0  0  0  0  0  0
  187.5540  178.2300  140.0660 C   0  0  0  0  0  3  0  0  0  0  0  0
  188.8380  177.6940  140.1960 C   0  0  0  0  0  0  0  0  0  0  0  0
  186.9200  178.2360  138.8200 C   0  0  0  0  0  3  0  0  0  0  0  0
  190.6180  176.7740  141.6060 N   0  0  0  0  0  0  0  0  0  0  0  0
  191.5460  176.9670  140.4900 C   0  0  0  0  0  2  0  0  0  0  0  0
  186.9040  177.7190  136.3790 C   0  0  0  0  0  0  0  0  0  0  0  0
  185.6670  177.4890  136.2900 O   0  0  0  0  0  1  0  0  0  0  0  0
  187.6310  177.9750  135.2230 O   0  0  0  0  0  0  0  0  0  0  0  0
  1  5  1  6  0  0  0
  1 10  1  0  0  0  0
  3  9  1  0  0  0  0
  4  8  1  0  0  0  0
  5  4  2  0  0  0  0
  6  7  1  0  0  0  0
  8  6  2  0  0  0  0
  9 11  1  0  0  0  0
 10  6  1  0  0  0  0
 10  9  2  0  0  0  0
 12  2  2  0  0  0  0
 13 12  1  0  0  0  0
 14 16  1  0  0  0  0
 14 13  2  0  0  0  0
 15  2  1  0  0  0  0
 15  3  2  0  0  0  0
 16 17  2  0  0  0  0
 17  1  1  0  0  0  0
 17 15  1  0  0  0  0
 18 19  1  0  0  0  0
 18 13  1  0  0  0  0
 20 18  2  0  0  0  0
 21  4  1  0  0  0  0
 22 31  1  0  0  0  0
 23 30  1  0  0  0  0
 24 25  2  0  0  0  0
 24 29  1  0  0  0  0
 25 26  1  0  0  0  0
 26 22  1  0  0  0  0
 26 28  2  0  0  0  0
 27 28  1  0  0  0  0
 28 23  1  0  0  0  0
 29 27  2  0  0  0  0
 30 21  1  0  0  0  0
 31 30  1  0  0  0  0
 32 24  1  0  0  0  0
 33 32  1  0  0  0  0
 34 32  2  0  0  0  0
M  END
>  <MODEL>
2

>  <REMARK>
 VINA RESULT:     -11.6      2.388      5.730
  Name = 
  4 active torsions:
  status: ('A' for Active; 'I' for Inactive)
    1  A    between atoms: C_3  and  C_25
    2  A    between atoms: C_7  and  C_11
    3  A    between atoms: C_8  and  C_18
    4  A    between atoms: C_18  and  N_30
                            x       y       z     vdW  Elec       q    Type
                         _______ _______ _______ _____ _____    ______ ____

>  <TORSDO>
F 4

$$$$
=
 OpenBabel10272415083D

 34 38  0  0  1  0  0  0  0  0999 V2000
  188.8010  177.6930  144.2100 C   0  0  1  0  0  3  0  0  0  0  0  0
  185.6530  178.1090  146.1360 C   0  0  0  0  0  3  0  0  0  0  0  0
  187.7980  177.7020  146.8100 C   0  0  0  0  0  3  0  0  0  0  0  0
  190.7660  177.3390  142.6410 C   0  0  0  0  0  0  0  0  0  0  0  0
  189.3380  177.7640  142.7910 C   0  0  0  0  0  3  0  0  0  0  0  0
  190.9980  177.2160  145.0720 C   0  0  0  0  0  0  0  0  0  0  0  0
  191.8970  177.0070  146.1120 O   0  0  0  0  0  1  0  0  0  0  0  0
  191.5340  177.1350  143.7060 C   0  0  0  0  0  3  0  0  0  0  0  0
  189.1530  177.4790  146.6100 C   0  0  0  0  0  0  0  0  0  0  0  0
  189.6830  177.4610  145.3020 C   0  0  0  0  0  0  0  0  0  0  0  0
  189.9460  177.2710  147.7340 O   0  0  0  0  0  1  0  0  0  0  0  0
  184.4240  178.3640  145.3830 C   0  0  0  0  0  3  0  0  0  0  0  0
  184.2320  178.4850  144.0720 C   0  0  0  0  0  0  0  0  0  0  0  0
  185.2920  178.3760  143.0660 C   0  0  0  0  0  3  0  0  0  0  0  0
  186.9160  177.9170  145.7550 C   0  0  0  0  0  0  0  0  0  0  0  0
  186.5910  178.1440  143.2190 C   0  0  0  0  0  3  0  0  0  0  0  0
  187.4140  177.9190  144.4280 C   0  0  0  0  0  0  0  0  0  0  0  0
  182.8600  178.7480  143.5810 C   0  0  0  0  0  0  0  0  0  0  0  0
  182.5450  178.7980  142.1220 C   0  0  0  0  0  1  0  0  0  0  0  0
  181.9220  178.9360  144.4010 O   0  0  0  0  0  0  0  0  0  0  0  0
  191.3590  177.2720  141.2590 C   0  0  0  0  0  2  0  0  0  0  0  0
  190.2320  175.6560  138.0670 C   0  0  0  0  0  2  0  0  0  0  0  0
  189.4780  177.8570  139.8770 C   0  0  0  0  0  2  0  0  0  0  0  0
  186.8940  176.7360  136.6170 C   0  0  0  0  0  0  0  0  0  0  0  0
  188.1150  176.0740  136.8030 C   0  0  0  0  0  3  0  0  0  0  0  0
  188.9580  176.4230  137.8620 C   0  0  0  0  0  0  0  0  0  0  0  0
  187.3510  178.0970  138.5770 C   0  0  0  0  0  3  0  0  0  0  0  0
  188.5620  177.4270  138.7680 C   0  0  0  0  0  0  0  0  0  0  0  0
  186.5180  177.7500  137.5100 C   0  0  0  0  0  3  0  0  0  0  0  0
  190.4310  176.7980  140.2230 N   0  0  0  0  0  0  0  0  0  0  0  0
  191.1700  176.3850  139.0270 C   0  0  0  0  0  2  0  0  0  0  0  0
  186.0170  176.3650  135.4950 C   0  0  0  0  0  0  0  0  0  0  0  0
  186.1800  175.2690  134.8930 O   0  0  0  0  0  0  0  0  0  0  0  0
  184.9990  177.2190  135.0890 O   0  0  0  0  0  1  0  0  0  0  0  0
  1  5  1  1  0  0  0
  1 17  1  0  0  0  0
  1 10  1  0  0  0  0
  4  5  2  0  0  0  0
  4  8  1  0  0  0  0
  6 10  1  0  0  0  0
  6  7  1  0  0  0  0
  8  6  2  0  0  0  0
  9  3  1  0  0  0  0
  9 11  1  0  0  0  0
 10  9  2  0  0  0  0
 12  2  2  0  0  0  0
 13 12  1  0  0  0  0
 14 16  1  0  0  0  0
 14 13  2  0  0  0  0
 15  2  1  0  0  0  0
 15  3  2  0  0  0  0
 16 17  2  0  0  0  0
 17 15  1  0  0  0  0
 18 13  1  0  0  0  0
 18 20  2  0  0  0  0
 19 18  1  0  0  0  0
 21  4  1  0  0  0  0
 22 31  1  0  0  0  0
 23 30  1  0  0  0  0
 24 25  2  0  0  0  0
 24 29  1  0  0  0  0
 25 26  1  0  0  0  0
 26 22  1  0  0  0  0
 26 28  2  0  0  0  0
 27 28  1  0  0  0  0
 28 23  1  0  0  0  0
 29 27  2  0  0  0  0
 30 21  1  0  0  0  0
 31 30  1  0  0  0  0
 32 24  1  0  0  0  0
 33 32  2  0  0  0  0
 34 32  1  0  0  0  0
M  END
>  <MODEL>
3

>  <REMARK>
 VINA RESULT:     -11.5      2.588      5.754
  Name = 
  4 active torsions:
  status: ('A' for Active; 'I' for Inactive)
    1  A    between atoms: C_3  and  C_25
    2  A    between atoms: C_7  and  C_11
    3  A    between atoms: C_8  and  C_18
    4  A    between atoms: C_18  and  N_30
                            x       y       z     vdW  Elec       q    Type
                         _______ _______ _______ _____ _____    ______ ____

>  <TORSDO>
F 4

$$$$
=
 OpenBabel10272415083D

 34 38  0  0  1  0  0  0  0  0999 V2000
  184.1320  178.7130  141.5910 C   0  0  1  0  0  3  0  0  0  0  0  0
  185.0100  178.2630  138.0110 C   0  0  0  0  0  3  0  0  0  0  0  0
  182.9910  178.4620  139.0620 C   0  0  0  0  0  3  0  0  0  0  0  0
  183.8220  178.9000  144.1050 C   0  0  0  0  0  0  0  0  0  0  0  0
  184.7770  178.9200  142.9510 C   0  0  0  0  0  3  0  0  0  0  0  0
  181.9300  178.8600  142.5560 C   0  0  0  0  0  0  0  0  0  0  0  0
  180.5440  178.9110  142.4650 O   0  0  0  0  0  1  0  0  0  0  0  0
  182.5080  178.9210  143.9060 C   0  0  0  0  0  3  0  0  0  0  0  0
  182.1620  178.6170  140.1640 C   0  0  0  0  0  0  0  0  0  0  0  0
  182.7160  178.7370  141.4570 C   0  0  0  0  0  0  0  0  0  0  0  0
  180.7890  178.6410  139.9400 O   0  0  0  0  0  1  0  0  0  0  0  0
  186.4300  178.1680  137.6670 C   0  0  0  0  0  3  0  0  0  0  0  0
  187.5070  178.2240  138.4470 C   0  0  0  0  0  0  0  0  0  0  0  0
  187.4680  178.4030  139.9010 C   0  0  0  0  0  3  0  0  0  0  0  0
  184.3780  178.4220  139.1740 C   0  0  0  0  0  0  0  0  0  0  0  0
  186.4280  178.5360  140.7150 C   0  0  0  0  0  3  0  0  0  0  0  0
  184.9710  178.5520  140.4550 C   0  0  0  0  0  0  0  0  0  0  0  0
  188.8410  178.0980  137.8170 C   0  0  0  0  0  0  0  0  0  0  0  0
  189.9060  177.2300  138.4020 C   0  0  0  0  0  1  0  0  0  0  0  0
  189.1020  178.7330  136.7590 O   0  0  0  0  0  0  0  0  0  0  0  0
  184.3750  178.9910  145.5020 C   0  0  0  0  0  2  0  0  0  0  0  0
  187.6100  177.2400  144.7660 C   0  0  0  0  0  2  0  0  0  0  0  0
  186.1740  178.4840  147.0200 C   0  0  0  0  0  2  0  0  0  0  0  0
  190.2520  177.1810  147.4920 C   0  0  0  0  0  0  0  0  0  0  0  0
  189.5910  176.9860  146.2720 C   0  0  0  0  0  3  0  0  0  0  0  0
  188.2700  177.4120  146.1040 C   0  0  0  0  0  0  0  0  0  0  0  0
  188.2620  178.2540  148.3810 C   0  0  0  0  0  3  0  0  0  0  0  0
  187.6100  178.0700  147.1590 C   0  0  0  0  0  0  0  0  0  0  0  0
  189.5790  177.8170  148.5450 C   0  0  0  0  0  3  0  0  0  0  0  0
  185.8030  178.6580  145.6120 N   0  0  0  0  0  0  0  0  0  0  0  0
  186.0990  177.4320  144.8660 C   0  0  0  0  0  2  0  0  0  0  0  0
  191.6410  176.7230  147.6600 C   0  0  0  0  0  0  0  0  0  0  0  0
  192.3580  177.1860  148.5870 O   0  0  0  0  0  1  0  0  0  0  0  0
  192.1750  175.7740  146.7980 O   0  0  0  0  0  0  0  0  0  0  0  0
  1  5  1  6  0  0  0
  2 15  1  0  0  0  0
  3 15  2  0  0  0  0
  3  9  1  0  0  0  0
  4 21  1  0  0  0  0
  5  4  2  0  0  0  0
  6  8  2  0  0  0  0
  7  6  1  0  0  0  0
  8  4  1  0  0  0  0
  9 10  2  0  0  0  0
 10  1  1  0  0  0  0
 10  6  1  0  0  0  0
 11  9  1  0  0  0  0
 12  2  2  0  0  0  0
 12 13  1  0  0  0  0
 13 14  2  0  0  0  0
 14 16  1  0  0  0  0
 15 17  1  0  0  0  0
 17 16  2  0  0  0  0
 17  1  1  0  0  0  0
 18 19  1  0  0  0  0
 18 13  1  0  0  0  0
 20 18  2  0  0  0  0
 21 30  1  0  0  0  0
 22 31  1  0  0  0  0
 22 26  1  0  0  0  0
 23 28  1  0  0  0  0
 24 32  1  0  0  0  0
 24 29  1  0  0  0  0
 25 24  2  0  0  0  0
 26 25  1  0  0  0  0
 26 28  2  0  0  0  0
 27 29  2  0  0  0  0
 28 27  1  0  0  0  0
 30 23  1  0  0  0  0
 31 30  1  0  0  0  0
 32 33  1  0  0  0  0
 34 32  2  0  0  0  0
M  END
>  <MODEL>
4

>  <REMARK>
 VINA RESULT:     -11.2      2.429      7.879
  Name = 
  4 active torsions:
  status: ('A' for Active; 'I' for Inactive)
    1  A    between atoms: C_3  and  C_25
    2  A    between atoms: C_7  and  C_11
    3  A    between atoms: C_8  and  C_18
    4  A    between atoms: C_18  and  N_30
                            x       y       z     vdW  Elec       q    Type
                         _______ _______ _______ _____ _____    ______ ____

>  <TORSDO>
F 4

$$$$
=
 OpenBabel10272415083D

 34 38  0  0  0  0  0  0  0  0999 V2000
  185.9830  178.2820  143.5130 C   0  0  0  0  0  0  0  0  0  0  0  0
  187.5200  177.8440  146.8650 C   0  0  0  0  0  3  0  0  0  0  0  0
  185.4040  178.4340  146.2350 C   0  0  0  0  0  3  0  0  0  0  0  0
  185.2310  178.6200  141.1110 C   0  0  0  0  0  0  0  0  0  0  0  0
  186.2990  178.1230  142.0350 C   0  0  0  0  0  2  0  0  0  0  0  0
  183.7280  178.9620  143.0090 C   0  0  0  0  0  0  0  0  0  0  0  0
  182.4330  179.3120  143.3750 O   0  0  0  0  0  1  0  0  0  0  0  0
  184.0310  178.9590  141.5710 C   0  0  0  0  0  3  0  0  0  0  0  0
  184.4050  178.7200  145.3150 C   0  0  0  0  0  0  0  0  0  0  0  0
  184.6760  178.6590  143.9310 C   0  0  0  0  0  0  0  0  0  0  0  0
  183.1530  179.0700  145.8110 O   0  0  0  0  0  1  0  0  0  0  0  0
  188.9300  177.4520  146.9200 C   0  0  0  0  0  3  0  0  0  0  0  0
  189.7900  177.2090  145.9340 C   0  0  0  0  0  0  0  0  0  0  0  0
  189.4640  177.2960  144.5090 C   0  0  0  0  0  3  0  0  0  0  0  0
  186.6930  178.0780  145.8450 C   0  0  0  0  0  0  0  0  0  0  0  0
  188.3210  177.6180  143.9150 C   0  0  0  0  0  3  0  0  0  0  0  0
  186.9990  177.9930  144.4650 C   0  0  0  0  0  0  0  0  0  0  0  0
  191.1760  176.8240  146.2880 C   0  0  0  0  0  0  0  0  0  0  0  0
  191.4760  176.0050  147.5010 C   0  0  0  0  0  1  0  0  0  0  0  0
  192.1380  177.1880  145.5590 O   0  0  0  0  0  0  0  0  0  0  0  0
  185.4940  178.6040  139.6280 C   0  0  0  0  0  2  0  0  0  0  0  0
  188.5080  177.9930  137.4800 C   0  0  0  0  0  2  0  0  0  0  0  0
  187.6490  177.7620  140.2910 C   0  0  0  0  0  2  0  0  0  0  0  0
  191.7690  177.1150  139.2130 C   0  0  0  0  0  0  0  0  0  0  0  0
  190.8230  177.4060  138.2210 C   0  0  0  0  0  3  0  0  0  0  0  0
  189.4850  177.6260  138.5590 C   0  0  0  0  0  0  0  0  0  0  0  0
  190.0300  177.2830  140.9000 C   0  0  0  0  0  3  0  0  0  0  0  0
  189.0910  177.5860  139.9110 C   0  0  0  0  0  0  0  0  0  0  0  0
  191.3640  177.0540  140.5540 C   0  0  0  0  0  3  0  0  0  0  0  0
  186.9160  178.5100  139.2650 N   0  0  0  0  0  0  0  0  0  0  0  0
  187.0670  177.8520  137.9660 C   0  0  0  0  0  2  0  0  0  0  0  0
  193.1750  176.8790  138.8450 C   0  0  0  0  0  0  0  0  0  0  0  0
  194.0710  176.8550  139.7310 O   0  0  0  0  0  1  0  0  0  0  0  0
  193.5270  176.6780  137.5160 O   0  0  0  0  0  0  0  0  0  0  0  0
  1 10  1  0  0  0  0
  1 17  2  0  0  0  0
  2 12  1  0  0  0  0
  4  8  2  0  0  0  0
  4  5  1  0  0  0  0
  5  1  1  0  0  0  0
  6  7  1  0  0  0  0
  6 10  2  0  0  0  0
  8  6  1  0  0  0  0
  9 11  1  0  0  0  0
  9  3  2  0  0  0  0
 10  9  1  0  0  0  0
 13 18  1  0  0  0  0
 13 12  2  0  0  0  0
 14 13  1  0  0  0  0
 15  3  1  0  0  0  0
 15  2  2  0  0  0  0
 16 17  1  0  0  0  0
 16 14  2  0  0  0  0
 17 15  1  0  0  0  0
 18 19  1  0  0  0  0
 20 18  2  0  0  0  0
 21  4  1  0  0  0  0
 22 31  1  0  0  0  0
 22 26  1  0  0  0  0
 24 29  1  0  0  0  0
 25 26  1  0  0  0  0
 25 24  2  0  0  0  0
 26 28  2  0  0  0  0
 28 23  1  0  0  0  0
 28 27  1  0  0  0  0
 29 27  2  0  0  0  0
 30 21  1  0  0  0  0
 30 23  1  0  0  0  0
 31 30  1  0  0  0  0
 32 24  1  0  0  0  0
 32 33  1  0  0  0  0
 34 32  2  0  0  0  0
M  END
>  <MODEL>
5

>  <REMARK>
 VINA RESULT:     -10.9      1.171      1.803
  Name = 
  4 active torsions:
  status: ('A' for Active; 'I' for Inactive)
    1  A    between atoms: C_3  and  C_25
    2  A    between atoms: C_7  and  C_11
    3  A    between atoms: C_8  and  C_18
    4  A    between atoms: C_18  and  N_30
                            x       y       z     vdW  Elec       q    Type
                         _______ _______ _______ _____ _____    ______ ____

>  <TORSDO>
F 4

$$$$
=
 OpenBabel10272415083D

 34 38  0  0  1  0  0  0  0  0999 V2000
  184.7220  178.6860  142.3150 C   0  0  1  0  0  3  0  0  0  0  0  0
  185.9400  178.2230  138.8380 C   0  0  0  0  0  3  0  0  0  0  0  0
  183.8380  178.5310  139.6770 C   0  0  0  0  0  3  0  0  0  0  0  0
  184.1640  178.8640  144.7860 C   0  0  0  0  0  0  0  0  0  0  0  0
  185.2330  178.8390  143.7380 C   0  0  0  0  0  3  0  0  0  0  0  0
  182.4440  178.9530  143.0500 C   0  0  0  0  0  0  0  0  0  0  0  0
  181.0800  179.0870  142.8170 O   0  0  0  0  0  1  0  0  0  0  0  0
  182.8810  178.9640  144.4530 C   0  0  0  0  0  3  0  0  0  0  0  0
  182.9090  178.7220  140.6910 C   0  0  0  0  0  0  0  0  0  0  0  0
  183.3310  178.7950  142.0360 C   0  0  0  0  0  0  0  0  0  0  0  0
  181.5700  178.8300  140.3270 O   0  0  0  0  0  1  0  0  0  0  0  0
  187.3810  178.0480  138.6410 C   0  0  0  0  0  3  0  0  0  0  0  0
  188.3720  178.0310  139.5280 C   0  0  0  0  0  0  0  0  0  0  0  0
  188.1930  178.1960  140.9730 C   0  0  0  0  0  3  0  0  0  0  0  0
  185.2010  178.4070  139.9320 C   0  0  0  0  0  0  0  0  0  0  0  0
  187.0820  178.3820  141.6780 C   0  0  0  0  0  3  0  0  0  0  0  0
  185.6640  178.4880  141.2690 C   0  0  0  0  0  0  0  0  0  0  0  0
  189.7550  177.8340  139.0370 C   0  0  0  0  0  0  0  0  0  0  0  0
  190.8540  177.3930  139.9470 C   0  0  0  0  0  1  0  0  0  0  0  0
  190.0290  178.0380  137.8240 O   0  0  0  0  0  0  0  0  0  0  0  0
  184.5730  178.9060  146.2350 C   0  0  0  0  0  2  0  0  0  0  0  0
  187.4830  177.6680  148.2510 C   0  0  0  0  0  2  0  0  0  0  0  0
  186.8030  178.4070  145.4800 C   0  0  0  0  0  2  0  0  0  0  0  0
  190.6090  176.6020  146.3790 C   0  0  0  0  0  0  0  0  0  0  0  0
  189.6990  176.8700  147.4110 C   0  0  0  0  0  3  0  0  0  0  0  0
  188.4580  177.4470  147.1310 C   0  0  0  0  0  0  0  0  0  0  0  0
  189.0170  177.4800  144.7680 C   0  0  0  0  0  3  0  0  0  0  0  0
  188.1070  177.7340  145.7970 C   0  0  0  0  0  0  0  0  0  0  0  0
  190.2600  176.9110  145.0570 C   0  0  0  0  0  3  0  0  0  0  0  0
  185.8130  178.1760  146.5360 N   0  0  0  0  0  0  0  0  0  0  0  0
  186.3550  178.6060  147.8280 C   0  0  0  0  0  2  0  0  0  0  0  0
  191.9160  175.9990  146.6860 C   0  0  0  0  0  0  0  0  0  0  0  0
  192.3900  175.0930  145.9490 O   0  0  0  0  0  0  0  0  0  0  0  0
  192.6410  176.4230  147.7930 O   0  0  0  0  0  1  0  0  0  0  0  0
  1  5  1  6  0  0  0
  2 15  1  0  0  0  0
  3 15  2  0  0  0  0
  3  9  1  0  0  0  0
  4 21  1  0  0  0  0
  5  4  2  0  0  0  0
  6  8  2  0  0  0  0
  7  6  1  0  0  0  0
  8  4  1  0  0  0  0
  9 10  2  0  0  0  0
 10  1  1  0  0  0  0
 10  6  1  0  0  0  0
 11  9  1  0  0  0  0
 12  2  2  0  0  0  0
 12 13  1  0  0  0  0
 13 14  2  0  0  0  0
 14 16  1  0  0  0  0
 15 17  1  0  0  0  0
 17 16  2  0  0  0  0
 17  1  1  0  0  0  0
 18 13  1  0  0  0  0
 18 19  1  0  0  0  0
 20 18  2  0  0  0  0
 21 30  1  0  0  0  0
 23 28  1  0  0  0  0
 23 30  1  0  0  0  0
 24 32  1  0  0  0  0
 24 25  1  0  0  0  0
 26 25  2  0  0  0  0
 26 22  1  0  0  0  0
 27 29  1  0  0  0  0
 27 28  2  0  0  0  0
 28 26  1  0  0  0  0
 29 24  2  0  0  0  0
 30 31  1  0  0  0  0
 31 22  1  0  0  0  0
 32 34  1  0  0  0  0
 33 32  2  0  0  0  0
M  END
>  <MODEL>
6

>  <REMARK>
 VINA RESULT:     -10.9      2.300      7.097
  Name = 
  4 active torsions:
  status: ('A' for Active; 'I' for Inactive)
    1  A    between atoms: C_3  and  C_25
    2  A    between atoms: C_7  and  C_11
    3  A    between atoms: C_8  and  C_18
    4  A    between atoms: C_18  and  N_30
                            x       y       z     vdW  Elec       q    Type
                         _______ _______ _______ _____ _____    ______ ____

>  <TORSDO>
F 4

$$$$
=
 OpenBabel10272415083D

 34 38  0  0  0  0  0  0  0  0999 V2000
  185.2580  178.3820  142.0990 C   0  0  0  0  0  0  0  0  0  0  0  0
  185.3760  178.3520  145.8100 C   0  0  0  0  0  3  0  0  0  0  0  0
  183.6600  178.7380  144.3530 C   0  0  0  0  0  3  0  0  0  0  0  0
  185.4950  178.4510  139.5710 C   0  0  0  0  0  0  0  0  0  0  0  0
  186.1310  178.1130  140.8850 C   0  0  0  0  0  2  0  0  0  0  0  0
  183.3610  178.8580  140.6940 C   0  0  0  0  0  0  0  0  0  0  0  0
  182.0170  179.1510  140.4930 O   0  0  0  0  0  1  0  0  0  0  0  0
  184.2020  178.7470  139.4930 C   0  0  0  0  0  3  0  0  0  0  0  0
  183.0910  178.8720  143.0950 C   0  0  0  0  0  0  0  0  0  0  0  0
  183.8820  178.7050  141.9370 C   0  0  0  0  0  0  0  0  0  0  0  0
  181.7350  179.1780  143.0280 O   0  0  0  0  0  1  0  0  0  0  0  0
  186.6640  178.0640  146.4470 C   0  0  0  0  0  3  0  0  0  0  0  0
  187.8470  177.7930  145.9020 C   0  0  0  0  0  0  0  0  0  0  0  0
  188.1010  177.7300  144.4610 C   0  0  0  0  0  3  0  0  0  0  0  0
  185.0070  178.4370  144.5320 C   0  0  0  0  0  0  0  0  0  0  0  0
  187.2710  177.9170  143.4410 C   0  0  0  0  0  3  0  0  0  0  0  0
  185.8300  178.2500  143.3940 C   0  0  0  0  0  0  0  0  0  0  0  0
  188.9950  177.5370  146.8020 C   0  0  0  0  0  0  0  0  0  0  0  0
  188.8630  177.6320  148.2870 C   0  0  0  0  0  1  0  0  0  0  0  0
  190.1180  177.2290  146.3210 O   0  0  0  0  0  0  0  0  0  0  0  0
  186.3160  178.3200  138.3160 C   0  0  0  0  0  2  0  0  0  0  0  0
  189.9480  178.0490  139.2150 C   0  0  0  0  0  2  0  0  0  0  0  0
  187.9900  176.8960  137.3360 C   0  0  0  0  0  2  0  0  0  0  0  0
  191.9620  175.2530  137.6210 C   0  0  0  0  0  0  0  0  0  0  0  0
  191.6050  176.3610  138.4010 C   0  0  0  0  0  3  0  0  0  0  0  0
  190.3160  176.8980  138.3240 C   0  0  0  0  0  0  0  0  0  0  0  0
  189.7190  175.2040  136.6900 C   0  0  0  0  0  3  0  0  0  0  0  0
  189.3610  176.3010  137.4780 C   0  0  0  0  0  0  0  0  0  0  0  0
  191.0120  174.6790  136.7650 C   0  0  0  0  0  3  0  0  0  0  0  0
  187.6300  177.6920  138.5140 N   0  0  0  0  0  0  0  0  0  0  0  0
  188.6520  178.7130  138.7540 C   0  0  0  0  0  2  0  0  0  0  0  0
  193.3230  174.7000  137.7070 C   0  0  0  0  0  0  0  0  0  0  0  0
  194.2730  175.4050  138.1410 O   0  0  0  0  0  1  0  0  0  0  0  0
  193.5750  173.3920  137.3100 O   0  0  0  0  0  0  0  0  0  0  0  0
  1 17  2  0  0  0  0
  2 12  1  0  0  0  0
  3 15  1  0  0  0  0
  4  5  1  0  0  0  0
  5  1  1  0  0  0  0
  6 10  2  0  0  0  0
  7  6  1  0  0  0  0
  8  4  2  0  0  0  0
  8  6  1  0  0  0  0
  9  3  2  0  0  0  0
 10  1  1  0  0  0  0
 10  9  1  0  0  0  0
 11  9  1  0  0  0  0
 13 12  2  0  0  0  0
 13 18  1  0  0  0  0
 14 13  1  0  0  0  0
 15  2  2  0  0  0  0
 16 14  2  0  0  0  0
 17 16  1  0  0  0  0
 17 15  1  0  0  0  0
 18 19  1  0  0  0  0
 20 18  2  0  0  0  0
 21 30  1  0  0  0  0
 21  4  1  0  0  0  0
 23 28  1  0  0  0  0
 23 30  1  0  0  0  0
 24 32  1  0  0  0  0
 24 25  1  0  0  0  0
 26 25  2  0  0  0  0
 26 22  1  0  0  0  0
 27 29  1  0  0  0  0
 27 28  2  0  0  0  0
 28 26  1  0  0  0  0
 29 24  2  0  0  0  0
 30 31  1  0  0  0  0
 31 22  1  0  0  0  0
 32 33  1  0  0  0  0
 34 32  2  0  0  0  0
M  END
>  <MODEL>
7

>  <REMARK>
 VINA RESULT:     -10.5      1.530      2.395
  Name = 
  4 active torsions:
  status: ('A' for Active; 'I' for Inactive)
    1  A    between atoms: C_3  and  C_25
    2  A    between atoms: C_7  and  C_11
    3  A    between atoms: C_8  and  C_18
    4  A    between atoms: C_18  and  N_30
                            x       y       z     vdW  Elec       q    Type
                         _______ _______ _______ _____ _____    ______ ____

>  <TORSDO>
F 4

$$$$
=
 OpenBabel10272415083D

 34 38  0  0  1  0  0  0  0  0999 V2000
  186.1770  178.1870  143.8860 C   0  0  1  0  0  3  0  0  0  0  0  0
  182.5430  178.9540  143.9000 C   0  0  0  0  0  3  0  0  0  0  0  0
  184.0610  178.7850  145.5990 C   0  0  0  0  0  3  0  0  0  0  0  0
  188.6110  177.5290  143.5890 C   0  0  0  0  0  0  0  0  0  0  0  0
  187.3290  177.9340  142.9290 C   0  0  0  0  0  3  0  0  0  0  0  0
  187.6440  177.9960  145.7860 C   0  0  0  0  0  0  0  0  0  0  0  0
  187.9170  178.0680  147.1470 O   0  0  0  0  0  1  0  0  0  0  0  0
  188.7570  177.6080  144.9070 C   0  0  0  0  0  3  0  0  0  0  0  0
  185.3220  178.5610  146.1350 C   0  0  0  0  0  0  0  0  0  0  0  0
  186.4080  178.2480  145.2890 C   0  0  0  0  0  0  0  0  0  0  0  0
  185.4610  178.6520  147.5170 O   0  0  0  0  0  1  0  0  0  0  0  0
  181.8500  178.9850  142.6100 C   0  0  0  0  0  3  0  0  0  0  0  0
  182.3190  178.7840  141.3810 C   0  0  0  0  0  0  0  0  0  0  0  0
  183.7150  178.4700  141.0670 C   0  0  0  0  0  3  0  0  0  0  0  0
  183.8130  178.7150  144.2310 C   0  0  0  0  0  0  0  0  0  0  0  0
  184.7570  178.3210  141.8770 C   0  0  0  0  0  3  0  0  0  0  0  0
  184.8800  178.4160  143.3490 C   0  0  0  0  0  0  0  0  0  0  0  0
  181.3760  178.8800  140.2430 C   0  0  0  0  0  0  0  0  0  0  0  0
  181.7330  179.6080  138.9890 C   0  0  0  0  0  1  0  0  0  0  0  0
  180.2390  178.3410  140.3180 O   0  0  0  0  0  0  0  0  0  0  0  0
  189.7830  177.1530  142.7210 C   0  0  0  0  0  2  0  0  0  0  0  0
  190.3200  176.3820  139.0900 C   0  0  0  0  0  2  0  0  0  0  0  0
  188.5300  177.9530  140.8280 C   0  0  0  0  0  2  0  0  0  0  0  0
  187.6930  177.5720  136.6200 C   0  0  0  0  0  0  0  0  0  0  0  0
  188.8380  176.9740  137.1630 C   0  0  0  0  0  3  0  0  0  0  0  0
  189.1160  177.0830  138.5290 C   0  0  0  0  0  0  0  0  0  0  0  0
  187.0860  178.3820  138.8280 C   0  0  0  0  0  3  0  0  0  0  0  0
  188.2220  177.7740  139.3700 C   0  0  0  0  0  0  0  0  0  0  0  0
  186.8200  178.2770  137.4610 C   0  0  0  0  0  3  0  0  0  0  0  0
  189.4410  176.9110  141.3120 N   0  0  0  0  0  0  0  0  0  0  0  0
  190.6540  176.8900  140.4900 C   0  0  0  0  0  2  0  0  0  0  0  0
  187.4130  177.4550  135.1800 C   0  0  0  0  0  0  0  0  0  0  0  0
  186.8800  178.4110  134.5530 O   0  0  0  0  0  1  0  0  0  0  0  0
  187.7340  176.2900  134.4950 O   0  0  0  0  0  0  0  0  0  0  0  0
  1  5  1  6  0  0  0
  1 10  1  0  0  0  0
  2 15  1  0  0  0  0
  3  9  1  0  0  0  0
  4  8  1  0  0  0  0
  5  4  2  0  0  0  0
  6  7  1  0  0  0  0
  8  6  2  0  0  0  0
  9 11  1  0  0  0  0
 10  6  1  0  0  0  0
 10  9  2  0  0  0  0
 12  2  2  0  0  0  0
 13 12  1  0  0  0  0
 14 13  2  0  0  0  0
 14 16  1  0  0  0  0
 15  3  2  0  0  0  0
 16 17  2  0  0  0  0
 17  1  1  0  0  0  0
 17 15  1  0  0  0  0
 18 20  2  0  0  0  0
 18 13  1  0  0  0  0
 19 18  1  0  0  0  0
 21  4  1  0  0  0  0
 22 31  1  0  0  0  0
 23 30  1  0  0  0  0
 24 25  2  0  0  0  0
 24 29  1  0  0  0  0
 25 26  1  0  0  0  0
 26 22  1  0  0  0  0
 26 28  2  0  0  0  0
 27 28  1  0  0  0  0
 28 23  1  0  0  0  0
 29 27  2  0  0  0  0
 30 21  1  0  0  0  0
 31 30  1  0  0  0  0
 32 24  1  0  0  0  0
 33 32  1  0  0  0  0
 34 32  2  0  0  0  0
M  END
>  <MODEL>
8

>  <REMARK>
 VINA RESULT:     -10.4      2.689      6.077
  Name = 
  4 active torsions:
  status: ('A' for Active; 'I' for Inactive)
    1  A    between atoms: C_3  and  C_25
    2  A    between atoms: C_7  and  C_11
    3  A    between atoms: C_8  and  C_18
    4  A    between atoms: C_18  and  N_30
                            x       y       z     vdW  Elec       q    Type
                         _______ _______ _______ _____ _____    ______ ____

>  <TORSDO>
F 4

$$$$
=
 OpenBabel10272415083D

 34 38  0  0  0  0  0  0  0  0999 V2000
  187.3780  177.8830  142.9990 C   0  0  0  0  0  0  0  0  0  0  0  0
  184.6840  178.4360  145.4930 C   0  0  0  0  0  3  0  0  0  0  0  0
  186.9000  177.9430  145.7430 C   0  0  0  0  0  3  0  0  0  0  0  0
  188.9860  177.4410  141.0830 C   0  0  0  0  0  0  0  0  0  0  0  0
  187.6320  177.9260  141.5010 C   0  0  0  0  0  2  0  0  0  0  0  0
  189.6800  177.3190  143.4240 C   0  0  0  0  0  0  0  0  0  0  0  0
  190.7550  177.0770  144.2730 O   0  0  0  0  0  1  0  0  0  0  0  0
  189.9380  177.2100  141.9810 C   0  0  0  0  0  3  0  0  0  0  0  0
  188.1810  177.6630  145.2870 C   0  0  0  0  0  0  0  0  0  0  0  0
  188.4460  177.6180  143.9010 C   0  0  0  0  0  0  0  0  0  0  0  0
  189.1680  177.4280  146.2380 O   0  0  0  0  0  1  0  0  0  0  0  0
  183.3420  178.7390  144.9890 C   0  0  0  0  0  3  0  0  0  0  0  0
  182.9050  178.8620  143.7380 C   0  0  0  0  0  0  0  0  0  0  0  0
  183.7440  178.7050  142.5470 C   0  0  0  0  0  3  0  0  0  0  0  0
  185.8400  178.1910  144.8760 C   0  0  0  0  0  0  0  0  0  0  0  0
  185.0380  178.4200  142.4490 C   0  0  0  0  0  3  0  0  0  0  0  0
  186.0700  178.1670  143.4780 C   0  0  0  0  0  0  0  0  0  0  0  0
  181.4750  179.1790  143.5200 C   0  0  0  0  0  0  0  0  0  0  0  0
  180.3880  178.3330  144.0960 C   0  0  0  0  0  1  0  0  0  0  0  0
  181.1490  180.1850  142.8340 O   0  0  0  0  0  0  0  0  0  0  0  0
  189.2970  177.3450  139.6130 C   0  0  0  0  0  2  0  0  0  0  0  0
  192.9480  176.7270  139.0140 C   0  0  0  0  0  2  0  0  0  0  0  0
  190.3130  175.7640  138.1080 C   0  0  0  0  0  2  0  0  0  0  0  0
  193.9110  173.7480  136.8660 C   0  0  0  0  0  0  0  0  0  0  0  0
  193.9910  174.8870  137.6800 C   0  0  0  0  0  3  0  0  0  0  0  0
  192.8300  175.5450  138.0960 C   0  0  0  0  0  0  0  0  0  0  0  0
  191.4880  173.9130  136.8990 C   0  0  0  0  0  3  0  0  0  0  0  0
  191.5700  175.0410  137.7210 C   0  0  0  0  0  0  0  0  0  0  0  0
  192.6520  173.2670  136.4780 C   0  0  0  0  0  3  0  0  0  0  0  0
  190.5210  176.5930  139.3000 N   0  0  0  0  0  0  0  0  0  0  0  0
  191.6400  177.5120  139.0770 C   0  0  0  0  0  2  0  0  0  0  0  0
  195.1400  173.0670  136.4280 C   0  0  0  0  0  0  0  0  0  0  0  0
  196.2710  173.5490  136.7060 O   0  0  0  0  0  1  0  0  0  0  0  0
  195.0660  171.8830  135.7050 O   0  0  0  0  0  0  0  0  0  0  0  0
  1 17  2  0  0  0  0
  1 10  1  0  0  0  0
  4  5  1  0  0  0  0
  4  8  2  0  0  0  0
  5  1  1  0  0  0  0
  6 10  2  0  0  0  0
  6  7  1  0  0  0  0
  8  6  1  0  0  0  0
  9  3  2  0  0  0  0
  9 11  1  0  0  0  0
 10  9  1  0  0  0  0
 12  2  1  0  0  0  0
 13 12  2  0  0  0  0
 14 13  1  0  0  0  0
 15  2  2  0  0  0  0
 15  3  1  0  0  0  0
 16 14  2  0  0  0  0
 16 17  1  0  0  0  0
 17 15  1  0  0  0  0
 18 13  1  0  0  0  0
 18 19  1  0  0  0  0
 20 18  2  0  0  0  0
 21  4  1  0  0  0  0
 22 31  1  0  0  0  0
 23 30  1  0  0  0  0
 24 25  1  0  0  0  0
 25 26  2  0  0  0  0
 26 22  1  0  0  0  0
 27 28  2  0  0  0  0
 28 26  1  0  0  0  0
 28 23  1  0  0  0  0
 29 24  2  0  0  0  0
 29 27  1  0  0  0  0
 30 21  1  0  0  0  0
 31 30  1  0  0  0  0
 32 33  1  0  0  0  0
 32 24  1  0  0  0  0
 34 32  2  0  0  0  0
M  END
>  <MODEL>
9

>  <REMARK>
 VINA RESULT:     -10.4      2.136      5.378
  Name = 
  4 active torsions:
  status: ('A' for Active; 'I' for Inactive)
    1  A    between atoms: C_3  and  C_25
    2  A    between atoms: C_7  and  C_11
    3  A    between atoms: C_8  and  C_18
    4  A    between atoms: C_18  and  N_30
                            x       y       z     vdW  Elec       q    Type
                         _______ _______ _______ _____ _____    ______ ____

>  <TORSDO>
F 4

$$$$
