=
 OpenBabel10272401053D

 27 30  0  0  1  0  0  0  0  0999 V2000
  187.0260  177.2430  144.3680 C   0  0  0  0  0  2  0  0  0  0  0  0
  186.4090  178.2800  142.1380 C   0  0  0  0  0  0  0  0  0  0  0  0
  188.8990  178.4880  142.0640 N   0  0  0  0  0  2  0  0  0  0  0  0
  186.2260  178.3210  137.9820 C   0  0  0  0  0  3  0  0  0  0  0  0
  187.3020  178.4090  135.7300 C   0  0  0  0  0  1  0  0  0  0  0  0
  185.2310  178.2320  141.4570 N   0  0  0  0  0  0  0  0  0  0  0  0
  188.7260  178.4660  139.2340 C   0  0  0  0  0  3  0  0  0  0  0  0
  191.5710  177.7850  143.2260 C   0  0  0  0  0  2  0  0  0  0  0  0
  188.6390  178.4730  137.8380 C   0  0  0  0  0  3  0  0  0  0  0  0
  191.4770  176.0830  143.8550 S   0  0  0  0  0  0  0  0  0  0  0  0
  187.5630  178.3850  140.0140 C   0  0  0  0  0  0  0  0  0  0  0  0
  186.3820  178.2920  143.5740 N   0  0  0  0  0  0  0  0  0  0  0  0
  187.3900  178.4000  137.2140 C   0  0  0  0  0  0  0  0  0  0  0  0
  186.3090  178.3130  139.3770 C   0  0  0  0  0  0  0  0  0  0  0  0
  188.5250  177.1170  144.1020 C   0  0  1  0  0  3  0  0  0  0  0  0
  187.6210  178.3760  141.4150 C   0  0  0  0  0  0  0  0  0  0  0  0
  190.5500  178.6830  143.9130 C   0  0  0  0  0  2  0  0  0  0  0  0
  185.1810  178.2430  140.1250 N   0  0  0  0  0  0  0  0  0  0  0  0
  190.1570  175.6960  142.6720 C   0  0  0  0  0  2  0  0  0  0  0  0
  188.7700  175.8320  143.2940 C   0  0  0  0  0  2  0  0  0  0  0  0
  189.0990  178.4120  143.5060 C   0  0  1  0  0  3  0  0  0  0  0  0
  185.5280  179.2470  144.2650 C   0  0  0  0  0  2  0  0  0  0  0  0
  184.8850  178.4970  146.5520 C   0  0  0  0  0  3  0  0  0  0  0  0
  184.6350  178.5390  145.2380 C   0  0  0  0  0  3  0  0  0  0  0  0
  186.0780  179.1450  147.1870 C   0  0  0  0  0  2  0  0  0  0  0  0
  187.0970  178.0940  147.5870 C   0  0  0  0  0  2  0  0  0  0  0  0
  187.9230  178.6060  148.5860 O   0  0  0  0  0  1  0  0  0  0  0  0
  2 12  1  0  0  0  0
  3 21  1  0  0  0  0
  4 14  1  0  0  0  0
  5 13  1  0  0  0  0
  6  2  1  0  0  0  0
  7 11  1  0  0  0  0
  8 10  1  0  0  0  0
  8 17  1  0  0  0  0
  9  7  2  0  0  0  0
 11 16  1  0  0  0  0
 12 22  1  0  0  0  0
 12  1  1  0  0  0  0
 13  9  1  0  0  0  0
 13  4  2  0  0  0  0
 14 11  2  0  0  0  0
 14 18  1  0  0  0  0
 15 20  1  6  0  0  0
 15  1  1  0  0  0  0
 16  3  1  0  0  0  0
 16  2  2  0  0  0  0
 18  6  2  0  0  0  0
 19 20  1  0  0  0  0
 19 10  1  0  0  0  0
 21 17  1  6  0  0  0
 21 15  1  0  0  0  0
 22 24  1  0  0  0  0
 23 25  1  0  0  0  0
 24 23  2  0  0  0  0
 25 26  1  0  0  0  0
 26 27  1  0  0  0  0
M  END
>  <MODEL>
1

>  <REMARK>
 VINA RESULT:      -7.9      0.000      0.000
  Name = 
  4 active torsions:
  status: ('A' for Active; 'I' for Inactive)
    1  A    between atoms: C_7  and  C_11
    2  A    between atoms: C_7  and  C_25
    3  A    between atoms: C_9  and  N_15
    4  A    between atoms: C_9  and  C_27
                            x       y       z     vdW  Elec       q    Type
                         _______ _______ _______ _____ _____    ______ ____

>  <TORSDO>
F 4

$$$$
=
 OpenBabel10272401053D

 27 30  0  0  1  0  0  0  0  0999 V2000
  186.8330  177.5040  144.1800 C   0  0  0  0  0  2  0  0  0  0  0  0
  186.3660  178.4280  141.8650 C   0  0  0  0  0  0  0  0  0  0  0  0
  188.8630  178.5580  141.9150 N   0  0  0  0  0  2  0  0  0  0  0  0
  186.4030  178.2340  137.7100 C   0  0  0  0  0  3  0  0  0  0  0  0
  187.5970  178.1590  135.5180 C   0  0  0  0  0  1  0  0  0  0  0  0
  185.2250  178.3750  141.1250 N   0  0  0  0  0  0  0  0  0  0  0  0
  188.8370  178.3770  139.0850 C   0  0  0  0  0  3  0  0  0  0  0  0
  191.4460  177.8460  143.2570 C   0  0  0  0  0  2  0  0  0  0  0  0
  188.8240  178.3060  137.6880 C   0  0  0  0  0  3  0  0  0  0  0  0
  191.2640  176.1860  143.9740 S   0  0  0  0  0  0  0  0  0  0  0  0
  187.6330  178.3760  139.8040 C   0  0  0  0  0  0  0  0  0  0  0  0
  186.2650  178.5230  143.2950 N   0  0  0  0  0  0  0  0  0  0  0  0
  187.6080  178.2340  137.0020 C   0  0  0  0  0  0  0  0  0  0  0  0
  186.4120  178.3040  139.1050 C   0  0  0  0  0  0  0  0  0  0  0  0
  188.3390  177.3190  144.0030 C   0  0  1  0  0  3  0  0  0  0  0  0
  187.6170  178.4460  141.2040 C   0  0  0  0  0  0  0  0  0  0  0  0
  190.4200  178.8110  143.8360 C   0  0  0  0  0  2  0  0  0  0  0  0
  185.2450  178.3100  139.7940 N   0  0  0  0  0  0  0  0  0  0  0  0
  189.9960  175.7700  142.7460 C   0  0  0  0  0  2  0  0  0  0  0  0
  188.5840  175.9830  143.2830 C   0  0  0  0  0  2  0  0  0  0  0  0
  188.9840  178.5600  143.3680 C   0  0  1  0  0  3  0  0  0  0  0  0
  185.4070  179.5410  143.8840 C   0  0  0  0  0  2  0  0  0  0  0  0
  183.1610  178.7240  144.5840 C   0  0  0  0  0  3  0  0  0  0  0  0
  184.4550  178.9190  144.8590 C   0  0  0  0  0  3  0  0  0  0  0  0
  182.5250  179.1100  143.2830 C   0  0  0  0  0  2  0  0  0  0  0  0
  181.0130  179.0600  143.4000 C   0  0  0  0  0  2  0  0  0  0  0  0
  180.4750  180.2720  142.9710 O   0  0  0  0  0  1  0  0  0  0  0  0
  2 12  1  0  0  0  0
  3 21  1  0  0  0  0
  4 14  1  0  0  0  0
  5 13  1  0  0  0  0
  6  2  2  0  0  0  0
  7 11  1  0  0  0  0
  8 17  1  0  0  0  0
  8 10  1  0  0  0  0
  9  7  2  0  0  0  0
 11 16  2  0  0  0  0
 12 22  1  0  0  0  0
 12  1  1  0  0  0  0
 13  9  1  0  0  0  0
 13  4  2  0  0  0  0
 14 18  2  0  0  0  0
 14 11  1  0  0  0  0
 15 20  1  6  0  0  0
 15  1  1  0  0  0  0
 16  2  1  0  0  0  0
 16  3  1  0  0  0  0
 18  6  1  0  0  0  0
 19 20  1  0  0  0  0
 19 10  1  0  0  0  0
 21 17  1  6  0  0  0
 21 15  1  0  0  0  0
 22 24  1  0  0  0  0
 23 24  2  0  0  0  0
 25 26  1  0  0  0  0
 25 23  1  0  0  0  0
 27 26  1  0  0  0  0
M  END
>  <MODEL>
2

>  <REMARK>
 VINA RESULT:      -7.9      2.109      2.599
  Name = 
  4 active torsions:
  status: ('A' for Active; 'I' for Inactive)
    1  A    between atoms: C_7  and  C_11
    2  A    between atoms: C_7  and  C_25
    3  A    between atoms: C_9  and  N_15
    4  A    between atoms: C_9  and  C_27
                            x       y       z     vdW  Elec       q    Type
                         _______ _______ _______ _____ _____    ______ ____

>  <TORSDO>
F 4

$$$$
=
 OpenBabel10272401053D

 27 30  0  0  1  0  0  0  0  0999 V2000
  190.3330  176.3230  139.6510 C   0  0  0  0  0  2  0  0  0  0  0  0
  188.9970  177.2750  141.5840 C   0  0  0  0  0  0  0  0  0  0  0  0
  188.1250  178.6650  139.6980 N   0  0  0  0  0  2  0  0  0  0  0  0
  185.4860  177.8860  143.7320 C   0  0  0  0  0  3  0  0  0  0  0  0
  183.1910  178.8390  143.9770 C   0  0  0  0  0  1  0  0  0  0  0  0
  188.8090  176.7750  142.8370 N   0  0  0  0  0  0  0  0  0  0  0  0
  185.7330  179.0140  141.1820 C   0  0  0  0  0  3  0  0  0  0  0  0
  187.9300  179.1600  136.7480 C   0  0  0  0  0  2  0  0  0  0  0  0
  184.5610  179.2010  141.9200 C   0  0  0  0  0  3  0  0  0  0  0  0
  187.8970  177.5480  135.9110 S   0  0  0  0  0  0  0  0  0  0  0  0
  186.7900  178.2610  141.7110 C   0  0  0  0  0  0  0  0  0  0  0  0
  190.2510  177.0430  140.9240 N   0  0  0  0  0  0  0  0  0  0  0  0
  184.4380  178.6370  143.1940 C   0  0  0  0  0  0  0  0  0  0  0  0
  186.6590  177.6960  142.9960 C   0  0  0  0  0  0  0  0  0  0  0  0
  189.5270  176.9780  138.5310 C   0  0  1  0  0  3  0  0  0  0  0  0
  187.9770  178.0570  140.9930 C   0  0  0  0  0  0  0  0  0  0  0  0
  189.2060  179.3330  137.5620 C   0  0  0  0  0  2  0  0  0  0  0  0
  187.6800  176.9730  143.5170 N   0  0  0  0  0  0  0  0  0  0  0  0
  187.2040  176.7670  137.3960 C   0  0  0  0  0  2  0  0  0  0  0  0
  188.2820  176.1180  138.2590 C   0  0  0  0  0  2  0  0  0  0  0  0
  189.2720  178.4660  138.8210 C   0  0  1  0  0  3  0  0  0  0  0  0
  191.4920  177.3450  141.6210 C   0  0  0  0  0  2  0  0  0  0  0  0
  191.4140  178.3970  143.8780 C   0  0  0  0  0  3  0  0  0  0  0  0
  191.2990  178.5050  142.5500 C   0  0  0  0  0  3  0  0  0  0  0  0
  191.7410  177.1130  144.5770 C   0  0  0  0  0  2  0  0  0  0  0  0
  190.9750  177.0140  145.8830 C   0  0  0  0  0  2  0  0  0  0  0  0
  191.8740  176.8730  146.9390 O   0  0  0  0  0  1  0  0  0  0  0  0
  1 12  1  0  0  0  0
  2  6  1  0  0  0  0
  3 16  1  0  0  0  0
  6 18  2  0  0  0  0
  7 11  2  0  0  0  0
  7  9  1  0  0  0  0
  8 17  1  0  0  0  0
  9 13  2  0  0  0  0
 10  8  1  0  0  0  0
 10 19  1  0  0  0  0
 11 14  1  0  0  0  0
 12  2  1  0  0  0  0
 12 22  1  0  0  0  0
 13  4  1  0  0  0  0
 13  5  1  0  0  0  0
 14 18  1  0  0  0  0
 14  4  2  0  0  0  0
 15 20  1  1  0  0  0
 15 21  1  0  0  0  0
 15  1  1  0  0  0  0
 16  2  2  0  0  0  0
 16 11  1  0  0  0  0
 19 20  1  0  0  0  0
 21 17  1  6  0  0  0
 21  3  1  0  0  0  0
 22 24  1  0  0  0  0
 23 25  1  0  0  0  0
 24 23  2  0  0  0  0
 25 26  1  0  0  0  0
 26 27  1  0  0  0  0
M  END
>  <MODEL>
3

>  <REMARK>
 VINA RESULT:      -7.8      2.796      5.650
  Name = 
  4 active torsions:
  status: ('A' for Active; 'I' for Inactive)
    1  A    between atoms: C_7  and  C_11
    2  A    between atoms: C_7  and  C_25
    3  A    between atoms: C_9  and  N_15
    4  A    between atoms: C_9  and  C_27
                            x       y       z     vdW  Elec       q    Type
                         _______ _______ _______ _____ _____    ______ ____

>  <TORSDO>
F 4

$$$$
=
 OpenBabel10272401053D

 27 30  0  0  1  0  0  0  0  0999 V2000
  190.5850  175.8310  137.8460 C   0  0  0  0  0  2  0  0  0  0  0  0
  190.2570  176.6100  140.2370 C   0  0  0  0  0  0  0  0  0  0  0  0
  188.6840  178.1390  139.0380 N   0  0  0  0  0  2  0  0  0  0  0  0
  188.0620  177.0100  143.7470 C   0  0  0  0  0  3  0  0  0  0  0  0
  186.1330  177.9170  145.0490 C   0  0  0  0  0  1  0  0  0  0  0  0
  190.6240  176.0090  141.4020 N   0  0  0  0  0  0  0  0  0  0  0  0
  187.1950  178.3440  141.4440 C   0  0  0  0  0  3  0  0  0  0  0  0
  187.2280  178.8700  136.5220 C   0  0  0  0  0  2  0  0  0  0  0  0
  186.4710  178.4590  142.6340 C   0  0  0  0  0  3  0  0  0  0  0  0
  186.7890  177.3300  135.6630 S   0  0  0  0  0  0  0  0  0  0  0  0
  188.3570  177.5600  141.3960 C   0  0  0  0  0  0  0  0  0  0  0  0
  191.0880  176.4450  139.0770 N   0  0  0  0  0  0  0  0  0  0  0  0
  186.9040  177.7920  143.7840 C   0  0  0  0  0  0  0  0  0  0  0  0
  188.7870  176.8930  142.5590 C   0  0  0  0  0  0  0  0  0  0  0  0
  189.3870  176.5670  137.2480 C   0  0  1  0  0  3  0  0  0  0  0  0
  189.1020  177.4270  140.2150 C   0  0  0  0  0  0  0  0  0  0  0  0
  188.7360  178.9890  136.7030 C   0  0  0  0  0  2  0  0  0  0  0  0
  189.9140  176.1400  142.5220 N   0  0  0  0  0  0  0  0  0  0  0  0
  186.7970  176.4250  137.2360 C   0  0  0  0  0  2  0  0  0  0  0  0
  188.1260  175.7190  137.4860 C   0  0  0  0  0  2  0  0  0  0  0  0
  189.3250  178.0230  137.7340 C   0  0  1  0  0  3  0  0  0  0  0  0
  192.5170  176.7020  139.1790 C   0  0  0  0  0  2  0  0  0  0  0  0
  193.8780  175.6530  137.3750 C   0  0  0  0  0  3  0  0  0  0  0  0
  193.1480  176.6820  137.8200 C   0  0  0  0  0  3  0  0  0  0  0  0
  194.1470  174.4200  138.1830 C   0  0  0  0  0  2  0  0  0  0  0  0
  195.5930  174.3940  138.6400 C   0  0  0  0  0  2  0  0  0  0  0  0
  195.7340  175.1840  139.7790 O   0  0  0  0  0  1  0  0  0  0  0  0
  1 12  1  0  0  0  0
  2  6  1  0  0  0  0
  3 16  1  0  0  0  0
  4 13  1  0  0  0  0
  6 18  2  0  0  0  0
  7  9  1  0  0  0  0
  8 17  1  0  0  0  0
  9 13  2  0  0  0  0
 10  8  1  0  0  0  0
 10 19  1  0  0  0  0
 11  7  2  0  0  0  0
 11 14  1  0  0  0  0
 12 22  1  0  0  0  0
 12  2  1  0  0  0  0
 13  5  1  0  0  0  0
 14  4  2  0  0  0  0
 15 20  1  1  0  0  0
 15 21  1  0  0  0  0
 15  1  1  0  0  0  0
 16  2  2  0  0  0  0
 16 11  1  0  0  0  0
 18 14  1  0  0  0  0
 19 20  1  0  0  0  0
 21 17  1  6  0  0  0
 21  3  1  0  0  0  0
 23 24  2  0  0  0  0
 23 25  1  0  0  0  0
 24 22  1  0  0  0  0
 25 26  1  0  0  0  0
 26 27  1  0  0  0  0
M  END
>  <MODEL>
4

>  <REMARK>
 VINA RESULT:      -7.5      4.267      7.864
  Name = 
  4 active torsions:
  status: ('A' for Active; 'I' for Inactive)
    1  A    between atoms: C_7  and  C_11
    2  A    between atoms: C_7  and  C_25
    3  A    between atoms: C_9  and  N_15
    4  A    between atoms: C_9  and  C_27
                            x       y       z     vdW  Elec       q    Type
                         _______ _______ _______ _____ _____    ______ ____

>  <TORSDO>
F 4

$$$$
=
 OpenBabel10272401053D

 27 30  0  0  1  0  0  0  0  0999 V2000
  187.7920  177.1830  142.6140 C   0  0  0  0  0  2  0  0  0  0  0  0
  188.8580  177.4470  140.3280 C   0  0  0  0  0  0  0  0  0  0  0  0
  190.7850  178.0520  141.8030 N   0  0  0  0  0  2  0  0  0  0  0  0
  191.4660  176.3160  137.2900 C   0  0  0  0  0  3  0  0  0  0  0  0
  193.7630  175.9660  136.3750 C   0  0  0  0  0  1  0  0  0  0  0  0
  188.4220  177.0130  139.1140 N   0  0  0  0  0  0  0  0  0  0  0  0
  192.5210  177.2250  139.7190 C   0  0  0  0  0  3  0  0  0  0  0  0
  191.9810  178.1640  144.5480 C   0  0  0  0  0  2  0  0  0  0  0  0
  193.3770  176.8340  138.6850 C   0  0  0  0  0  3  0  0  0  0  0  0
  191.4020  176.7100  145.4710 S   0  0  0  0  0  0  0  0  0  0  0  0
  191.1310  177.1630  139.5470 C   0  0  0  0  0  0  0  0  0  0  0  0
  187.8910  177.8470  141.3120 N   0  0  0  0  0  0  0  0  0  0  0  0
  192.8500  176.3800  137.4720 C   0  0  0  0  0  0  0  0  0  0  0  0
  190.6070  176.7050  138.3220 C   0  0  0  0  0  0  0  0  0  0  0  0
  189.0840  177.2490  143.4260 C   0  0  1  0  0  3  0  0  0  0  0  0
  190.2490  177.5480  140.5670 C   0  0  0  0  0  0  0  0  0  0  0  0
  190.8130  179.0270  144.0890 C   0  0  0  0  0  2  0  0  0  0  0  0
  189.2640  176.6490  138.1460 N   0  0  0  0  0  0  0  0  0  0  0  0
  191.1720  175.7920  143.9220 C   0  0  0  0  0  2  0  0  0  0  0  0
  189.7310  175.8540  143.4270 C   0  0  0  0  0  2  0  0  0  0  0  0
  189.9790  178.4090  142.9640 C   0  0  1  0  0  3  0  0  0  0  0  0
  186.8480  178.7940  140.9440 C   0  0  0  0  0  2  0  0  0  0  0  0
  184.4960  178.5950  141.7420 C   0  0  0  0  0  3  0  0  0  0  0  0
  185.7870  178.8350  142.0010 C   0  0  0  0  0  3  0  0  0  0  0  0
  183.9750  178.2670  140.3760 C   0  0  0  0  0  2  0  0  0  0  0  0
  183.3180  179.4860  139.7560 C   0  0  0  0  0  2  0  0  0  0  0  0
  184.2920  180.2880  139.1640 O   0  0  0  0  0  1  0  0  0  0  0  0
  2 16  1  0  0  0  0
  2 12  1  0  0  0  0
  3 21  1  0  0  0  0
  4 13  2  0  0  0  0
  4 14  1  0  0  0  0
  5 13  1  0  0  0  0
  6  2  2  0  0  0  0
  8 10  1  0  0  0  0
  9  7  2  0  0  0  0
 11  7  1  0  0  0  0
 11 16  2  0  0  0  0
 12  1  1  0  0  0  0
 13  9  1  0  0  0  0
 14 11  1  0  0  0  0
 15  1  1  6  0  0  0
 15 20  1  0  0  0  0
 16  3  1  0  0  0  0
 17  8  1  0  0  0  0
 18 14  2  0  0  0  0
 18  6  1  0  0  0  0
 19 10  1  0  0  0  0
 20 19  1  0  0  0  0
 21 15  1  0  0  0  0
 21 17  1  1  0  0  0
 22 12  1  0  0  0  0
 22 24  1  0  0  0  0
 23 24  2  0  0  0  0
 25 23  1  0  0  0  0
 26 25  1  0  0  0  0
 27 26  1  0  0  0  0
M  END
>  <MODEL>
5

>  <REMARK>
 VINA RESULT:      -7.5      3.369      4.550
  Name = 
  4 active torsions:
  status: ('A' for Active; 'I' for Inactive)
    1  A    between atoms: C_7  and  C_11
    2  A    between atoms: C_7  and  C_25
    3  A    between atoms: C_9  and  N_15
    4  A    between atoms: C_9  and  C_27
                            x       y       z     vdW  Elec       q    Type
                         _______ _______ _______ _____ _____    ______ ____

>  <TORSDO>
F 4

$$$$
=
 OpenBabel10272401053D

 27 30  0  0  1  0  0  0  0  0999 V2000
  187.6670  177.2980  142.8010 C   0  0  0  0  0  2  0  0  0  0  0  0
  188.6320  177.6270  140.4790 C   0  0  0  0  0  0  0  0  0  0  0  0
  190.6510  178.0820  141.8830 N   0  0  0  0  0  2  0  0  0  0  0  0
  191.0400  176.5380  137.2670 C   0  0  0  0  0  3  0  0  0  0  0  0
  193.2740  176.1400  136.2230 C   0  0  0  0  0  1  0  0  0  0  0  0
  188.1200  177.2690  139.2700 N   0  0  0  0  0  0  0  0  0  0  0  0
  192.2480  177.2870  139.6780 C   0  0  0  0  0  3  0  0  0  0  0  0
  191.9820  178.0150  144.5670 C   0  0  0  0  0  2  0  0  0  0  0  0
  193.0370  176.9120  138.5860 C   0  0  0  0  0  3  0  0  0  0  0  0
  191.3860  176.5430  145.4500 S   0  0  0  0  0  0  0  0  0  0  0  0
  190.8500  177.2890  139.5740 C   0  0  0  0  0  0  0  0  0  0  0  0
  187.7310  178.0180  141.5280 N   0  0  0  0  0  0  0  0  0  0  0  0
  192.4330  176.5370  137.3820 C   0  0  0  0  0  0  0  0  0  0  0  0
  190.2490  176.9110  138.3570 C   0  0  0  0  0  0  0  0  0  0  0  0
  188.9980  177.2720  143.5500 C   0  0  1  0  0  3  0  0  0  0  0  0
  190.0360  177.6600  140.6530 C   0  0  0  0  0  0  0  0  0  0  0  0
  190.8300  178.9450  144.2070 C   0  0  0  0  0  2  0  0  0  0  0  0
  188.8980  176.9190  138.2460 N   0  0  0  0  0  0  0  0  0  0  0  0
  191.0430  175.7100  143.8740 C   0  0  0  0  0  2  0  0  0  0  0  0
  189.5830  175.8530  143.4550 C   0  0  0  0  0  2  0  0  0  0  0  0
  189.9180  178.4160  143.0970 C   0  0  1  0  0  3  0  0  0  0  0  0
  186.7130  179.0230  141.2560 C   0  0  0  0  0  2  0  0  0  0  0  0
  184.5230  178.6210  142.3740 C   0  0  0  0  0  3  0  0  0  0  0  0
  185.3460  178.4140  141.3400 C   0  0  0  0  0  3  0  0  0  0  0  0
  184.8790  179.4710  143.5560 C   0  0  0  0  0  2  0  0  0  0  0  0
  184.7640  178.6680  144.8380 C   0  0  0  0  0  2  0  0  0  0  0  0
  183.7090  179.1630  145.6020 O   0  0  0  0  0  1  0  0  0  0  0  0
  2 16  1  0  0  0  0
  2 12  1  0  0  0  0
  3 21  1  0  0  0  0
  4 13  2  0  0  0  0
  4 14  1  0  0  0  0
  5 13  1  0  0  0  0
  6  2  2  0  0  0  0
  8 10  1  0  0  0  0
  9  7  2  0  0  0  0
 11  7  1  0  0  0  0
 11 16  2  0  0  0  0
 12  1  1  0  0  0  0
 13  9  1  0  0  0  0
 14 11  1  0  0  0  0
 15  1  1  6  0  0  0
 16  3  1  0  0  0  0
 17  8  1  0  0  0  0
 18 14  2  0  0  0  0
 18  6  1  0  0  0  0
 19 10  1  0  0  0  0
 20 15  1  0  0  0  0
 20 19  1  0  0  0  0
 21 15  1  0  0  0  0
 21 17  1  1  0  0  0
 22 24  1  0  0  0  0
 22 12  1  0  0  0  0
 23 25  1  0  0  0  0
 24 23  2  0  0  0  0
 25 26  1  0  0  0  0
 26 27  1  0  0  0  0
M  END
>  <MODEL>
6

>  <REMARK>
 VINA RESULT:      -7.4      2.645      3.509
  Name = 
  4 active torsions:
  status: ('A' for Active; 'I' for Inactive)
    1  A    between atoms: C_7  and  C_11
    2  A    between atoms: C_7  and  C_25
    3  A    between atoms: C_9  and  N_15
    4  A    between atoms: C_9  and  C_27
                            x       y       z     vdW  Elec       q    Type
                         _______ _______ _______ _____ _____    ______ ____

>  <TORSDO>
F 4

$$$$
=
 OpenBabel10272401053D

 27 30  0  0  1  0  0  0  0  0999 V2000
  190.7590  177.8280  140.6900 C   0  0  0  0  0  2  0  0  0  0  0  0
  188.2250  177.7730  140.7520 C   0  0  0  0  0  0  0  0  0  0  0  0
  188.7580  176.7750  142.9820 N   0  0  0  0  0  2  0  0  0  0  0  0
  184.5130  179.0360  142.1410 C   0  0  0  0  0  3  0  0  0  0  0  0
  182.7960  179.2690  143.9400 C   0  0  0  0  0  1  0  0  0  0  0  0
  187.3250  178.4140  139.9560 N   0  0  0  0  0  0  0  0  0  0  0  0
  186.2360  177.6970  143.8940 C   0  0  0  0  0  3  0  0  0  0  0  0
  190.7840  176.1620  145.1030 C   0  0  0  0  0  2  0  0  0  0  0  0
  184.9850  178.1360  144.3390 C   0  0  0  0  0  3  0  0  0  0  0  0
  191.9820  177.5280  145.1440 S   0  0  0  0  0  0  0  0  0  0  0  0
  186.6350  177.9260  142.5700 C   0  0  0  0  0  0  0  0  0  0  0  0
  189.4730  177.3430  140.1850 N   0  0  0  0  0  0  0  0  0  0  0  0
  184.1250  178.8050  143.4640 C   0  0  0  0  0  0  0  0  0  0  0  0
  185.7620  178.6000  141.6930 C   0  0  0  0  0  0  0  0  0  0  0  0
  190.9850  177.5180  142.1690 C   0  0  1  0  0  3  0  0  0  0  0  0
  187.8830  177.4970  142.0970 C   0  0  0  0  0  0  0  0  0  0  0  0
  190.7530  175.4970  143.7330 C   0  0  0  0  0  2  0  0  0  0  0  0
  186.1390  178.8180  140.4090 N   0  0  0  0  0  0  0  0  0  0  0  0
  190.7370  178.6690  144.4810 C   0  0  0  0  0  2  0  0  0  0  0  0
  190.8500  178.8260  142.9670 C   0  0  0  0  0  2  0  0  0  0  0  0
  190.1080  176.3460  142.6360 C   0  0  1  0  0  3  0  0  0  0  0  0
  189.4690  176.5700  138.9520 C   0  0  0  0  0  2  0  0  0  0  0  0
  189.3790  177.6680  136.7180 C   0  0  0  0  0  3  0  0  0  0  0  0
  190.0580  177.3720  137.8320 C   0  0  0  0  0  3  0  0  0  0  0  0
  187.9680  177.2270  136.4680 C   0  0  0  0  0  2  0  0  0  0  0  0
  187.1060  178.4130  136.0820 C   0  0  0  0  0  2  0  0  0  0  0  0
  187.4820  179.5250  136.8330 O   0  0  0  0  0  1  0  0  0  0  0  0
  2 16  1  0  0  0  0
  4 13  2  0  0  0  0
  6 18  1  0  0  0  0
  6  2  2  0  0  0  0
  7  9  2  0  0  0  0
  8 10  1  0  0  0  0
 11  7  1  0  0  0  0
 12  1  1  0  0  0  0
 12  2  1  0  0  0  0
 13  5  1  0  0  0  0
 13  9  1  0  0  0  0
 14  4  1  0  0  0  0
 14 11  1  0  0  0  0
 15  1  1  6  0  0  0
 15 21  1  0  0  0  0
 15 20  1  0  0  0  0
 16 11  2  0  0  0  0
 16  3  1  0  0  0  0
 17  8  1  0  0  0  0
 18 14  2  0  0  0  0
 19 10  1  0  0  0  0
 20 19  1  0  0  0  0
 21  3  1  0  0  0  0
 21 17  1  1  0  0  0
 22 12  1  0  0  0  0
 23 24  2  0  0  0  0
 24 22  1  0  0  0  0
 25 23  1  0  0  0  0
 26 25  1  0  0  0  0
 26 27  1  0  0  0  0
M  END
>  <MODEL>
7

>  <REMARK>
 VINA RESULT:      -7.2      2.889      6.194
  Name = 
  4 active torsions:
  status: ('A' for Active; 'I' for Inactive)
    1  A    between atoms: C_7  and  C_11
    2  A    between atoms: C_7  and  C_25
    3  A    between atoms: C_9  and  N_15
    4  A    between atoms: C_9  and  C_27
                            x       y       z     vdW  Elec       q    Type
                         _______ _______ _______ _____ _____    ______ ____

>  <TORSDO>
F 4

$$$$
=
 OpenBabel10272401053D

 27 30  0  0  1  0  0  0  0  0999 V2000
  186.1720  177.6660  137.8530 C   0  0  0  0  0  2  0  0  0  0  0  0
  187.2160  178.1180  140.1190 C   0  0  0  0  0  0  0  0  0  0  0  0
  184.9890  179.2150  140.4150 N   0  0  0  0  0  2  0  0  0  0  0  0
  187.5580  177.5730  144.2290 C   0  0  0  0  0  3  0  0  0  0  0  0
  186.6790  177.7700  146.5590 C   0  0  0  0  0  1  0  0  0  0  0  0
  188.3150  177.5570  140.6940 N   0  0  0  0  0  0  0  0  0  0  0  0
  185.2490  178.7800  143.2060 C   0  0  0  0  0  3  0  0  0  0  0  0
  182.2070  179.6930  139.4090 C   0  0  0  0  0  2  0  0  0  0  0  0
  185.3840  178.5810  144.5830 C   0  0  0  0  0  3  0  0  0  0  0  0
  181.6330  178.1680  138.6060 S   0  0  0  0  0  0  0  0  0  0  0  0
  186.2660  178.3750  142.3300 C   0  0  0  0  0  0  0  0  0  0  0  0
  187.1910  178.2970  138.6950 N   0  0  0  0  0  0  0  0  0  0  0  0
  186.5370  177.9790  145.0940 C   0  0  0  0  0  0  0  0  0  0  0  0
  187.4250  177.7700  142.8520 C   0  0  0  0  0  0  0  0  0  0  0  0
  184.7460  178.0670  138.2260 C   0  0  1  0  0  3  0  0  0  0  0  0
  186.1560  178.5620  140.9450 C   0  0  0  0  0  0  0  0  0  0  0  0
  183.4630  180.2310  138.7370 C   0  0  0  0  0  2  0  0  0  0  0  0
  188.4160  177.3830  142.0120 N   0  0  0  0  0  0  0  0  0  0  0  0
  182.7560  177.1790  139.6330 C   0  0  0  0  0  2  0  0  0  0  0  0
  184.0680  176.8730  138.9180 C   0  0  0  0  0  2  0  0  0  0  0  0
  184.7210  179.3980  138.9940 C   0  0  1  0  0  3  0  0  0  0  0  0
  188.3140  178.9500  138.0370 C   0  0  0  0  0  2  0  0  0  0  0  0
  189.7240  177.3030  136.8100 C   0  0  0  0  0  3  0  0  0  0  0  0
  188.7180  178.1840  136.8140 C   0  0  0  0  0  3  0  0  0  0  0  0
  190.5550  176.9930  138.0190 C   0  0  0  0  0  2  0  0  0  0  0  0
  191.5550  175.8960  137.7030 C   0  0  0  0  0  2  0  0  0  0  0  0
  191.0530  174.6710  138.1370 O   0  0  0  0  0  1  0  0  0  0  0  0
  1 12  1  0  0  0  0
  2  6  2  0  0  0  0
  2 16  1  0  0  0  0
  3 16  1  0  0  0  0
  4 13  2  0  0  0  0
  6 18  1  0  0  0  0
  7  9  2  0  0  0  0
  9 13  1  0  0  0  0
 10  8  1  0  0  0  0
 10 19  1  0  0  0  0
 11 14  1  0  0  0  0
 11  7  1  0  0  0  0
 12  2  1  0  0  0  0
 13  5  1  0  0  0  0
 14  4  1  0  0  0  0
 15  1  1  1  0  0  0
 15 20  1  0  0  0  0
 15 21  1  0  0  0  0
 16 11  2  0  0  0  0
 17  8  1  0  0  0  0
 18 14  2  0  0  0  0
 20 19  1  0  0  0  0
 21 17  1  1  0  0  0
 21  3  1  0  0  0  0
 22 12  1  0  0  0  0
 23 24  2  0  0  0  0
 23 25  1  0  0  0  0
 24 22  1  0  0  0  0
 26 25  1  0  0  0  0
 26 27  1  0  0  0  0
M  END
>  <MODEL>
8

>  <REMARK>
 VINA RESULT:      -7.2      3.693      7.646
  Name = 
  4 active torsions:
  status: ('A' for Active; 'I' for Inactive)
    1  A    between atoms: C_7  and  C_11
    2  A    between atoms: C_7  and  C_25
    3  A    between atoms: C_9  and  N_15
    4  A    between atoms: C_9  and  C_27
                            x       y       z     vdW  Elec       q    Type
                         _______ _______ _______ _____ _____    ______ ____

>  <TORSDO>
F 4

$$$$
=
 OpenBabel10272401053D

 27 30  0  0  1  0  0  0  0  0999 V2000
  190.7350  177.7630  140.6210 C   0  0  0  0  0  2  0  0  0  0  0  0
  188.2010  177.7730  140.6990 C   0  0  0  0  0  0  0  0  0  0  0  0
  188.7230  176.8030  142.9440 N   0  0  0  0  0  2  0  0  0  0  0  0
  184.5300  179.1540  142.0870 C   0  0  0  0  0  3  0  0  0  0  0  0
  182.8320  179.4630  143.8910 C   0  0  0  0  0  1  0  0  0  0  0  0
  187.3120  178.4210  139.8970 N   0  0  0  0  0  0  0  0  0  0  0  0
  186.2310  177.8040  143.8540 C   0  0  0  0  0  3  0  0  0  0  0  0
  190.7460  176.1790  145.0640 C   0  0  0  0  0  2  0  0  0  0  0  0
  184.9940  178.2820  144.2990 C   0  0  0  0  0  3  0  0  0  0  0  0
  191.9790  177.5140  145.0720 S   0  0  0  0  0  0  0  0  0  0  0  0
  186.6270  177.9990  142.5230 C   0  0  0  0  0  0  0  0  0  0  0  0
  189.4340  177.3020  140.1330 N   0  0  0  0  0  0  0  0  0  0  0  0
  184.1460  178.9570  143.4160 C   0  0  0  0  0  0  0  0  0  0  0  0
  185.7660  178.6780  141.6390 C   0  0  0  0  0  0  0  0  0  0  0  0
  190.9630  177.4750  142.1040 C   0  0  1  0  0  3  0  0  0  0  0  0
  187.8610  177.5300  142.0510 C   0  0  0  0  0  0  0  0  0  0  0  0
  190.6900  175.4890  143.7070 C   0  0  0  0  0  2  0  0  0  0  0  0
  186.1390  178.8630  140.3490 N   0  0  0  0  0  0  0  0  0  0  0  0
  190.7580  178.6730  144.3950 C   0  0  0  0  0  2  0  0  0  0  0  0
  190.8650  178.8000  142.8780 C   0  0  0  0  0  2  0  0  0  0  0  0
  190.0590  176.3340  142.5980 C   0  0  1  0  0  3  0  0  0  0  0  0
  189.4020  176.5060  138.9140 C   0  0  0  0  0  2  0  0  0  0  0  0
  191.2500  176.7610  137.2630 C   0  0  0  0  0  3  0  0  0  0  0  0
  190.1170  177.2190  137.8070 C   0  0  0  0  0  3  0  0  0  0  0  0
  191.9250  175.4970  137.7010 C   0  0  0  0  0  2  0  0  0  0  0  0
  193.3880  175.7590  138.0040 C   0  0  0  0  0  2  0  0  0  0  0  0
  193.5030  176.9080  138.7840 O   0  0  0  0  0  1  0  0  0  0  0  0
  2 16  1  0  0  0  0
  4 13  2  0  0  0  0
  6 18  1  0  0  0  0
  6  2  2  0  0  0  0
  7  9  2  0  0  0  0
  8 10  1  0  0  0  0
 11  7  1  0  0  0  0
 12  1  1  0  0  0  0
 12  2  1  0  0  0  0
 13  5  1  0  0  0  0
 13  9  1  0  0  0  0
 14  4  1  0  0  0  0
 14 11  1  0  0  0  0
 15  1  1  6  0  0  0
 15 21  1  0  0  0  0
 15 20  1  0  0  0  0
 16 11  2  0  0  0  0
 16  3  1  0  0  0  0
 17  8  1  0  0  0  0
 18 14  2  0  0  0  0
 19 10  1  0  0  0  0
 20 19  1  0  0  0  0
 21  3  1  0  0  0  0
 21 17  1  1  0  0  0
 22 12  1  0  0  0  0
 23 25  1  0  0  0  0
 23 24  2  0  0  0  0
 24 22  1  0  0  0  0
 25 26  1  0  0  0  0
 26 27  1  0  0  0  0
M  END
>  <MODEL>
9

>  <REMARK>
 VINA RESULT:      -7.1      3.063      6.256
  Name = 
  4 active torsions:
  status: ('A' for Active; 'I' for Inactive)
    1  A    between atoms: C_7  and  C_11
    2  A    between atoms: C_7  and  C_25
    3  A    between atoms: C_9  and  N_15
    4  A    between atoms: C_9  and  C_27
                            x       y       z     vdW  Elec       q    Type
                         _______ _______ _______ _____ _____    ______ ____

>  <TORSDO>
F 4

$$$$
