=
 OpenBabel10262423493D

 34 39  0  0  0  0  0  0  0  0999 V2000
  184.3080  178.7770  144.6170 C   0  0  0  0  0  0  0  0  0  0  0  0
  186.3940  177.6650  145.1850 C   0  0  0  0  0  0  0  0  0  0  0  0
  185.8950  178.3740  142.7950 C   0  0  0  0  0  0  0  0  0  0  0  0
  187.4060  178.3460  140.9010 C   0  0  0  0  0  0  0  0  0  0  0  0
  184.8720  178.3850  146.9330 C   0  0  0  0  0  3  0  0  0  0  0  0
  186.0490  177.7580  146.5370 C   0  0  0  0  0  3  0  0  0  0  0  0
  188.3590  178.4020  142.9850 N   0  0  0  0  0  0  0  0  0  0  0  0
  185.5730  178.2800  144.1910 C   0  0  0  0  0  0  0  0  0  0  0  0
  190.7850  178.4590  142.6600 N   0  0  0  0  0  2  0  0  0  0  0  0
  189.0440  178.3740  140.5360 S   0  0  0  0  0  0  0  0  0  0  0  0
  183.9900  178.8640  145.9730 C   0  0  0  0  0  3  0  0  0  0  0  0
  184.8470  178.6420  141.8560 C   0  0  0  0  0  0  0  0  0  0  0  0
  183.3380  179.1410  143.6910 C   0  0  0  0  0  3  0  0  0  0  0  0
  187.4780  176.6900  144.8720 C   0  0  0  0  0  1  0  0  0  0  0  0
  186.3930  178.4630  140.0180 N   0  0  0  0  0  0  0  0  0  0  0  0
  185.1090  178.6060  140.4520 C   0  0  0  0  0  0  0  0  0  0  0  0
  189.4450  178.4070  142.1750 C   0  0  0  0  0  0  0  0  0  0  0  0
  187.2080  178.3290  142.2690 C   0  0  0  0  0  0  0  0  0  0  0  0
  183.5920  179.0380  142.3320 C   0  0  0  0  0  3  0  0  0  0  0  0
  182.4160  180.0990  138.3170 C   0  0  0  0  0  0  0  0  0  0  0  0
  182.0130  179.0150  137.5370 C   0  0  0  0  0  2  0  0  0  0  0  0
  184.0460  178.7550  139.4220 C   0  0  0  0  0  0  0  0  0  0  0  0
  182.6360  177.7800  137.7130 C   0  0  0  0  0  3  0  0  0  0  0  0
  183.4090  179.9460  139.2350 N   0  0  0  0  0  0  0  0  0  0  0  0
  183.6530  177.6450  138.6600 C   0  0  0  0  0  3  0  0  0  0  0  0
  181.8610  181.2180  138.1740 O   0  0  0  0  0  0  0  0  0  0  0  0
  191.0780  178.4950  144.0830 C   0  0  0  0  0  2  0  0  0  0  0  0
  191.4120  177.8350  146.8450 F   0  0  0  0  0  0  0  0  0  0  0  0
  191.4730  177.1360  144.5510 C   0  0  0  0  0  0  0  0  0  0  0  0
  191.6130  176.8620  145.9200 C   0  0  0  0  0  0  0  0  0  0  0  0
  192.1690  174.5620  145.4020 C   0  0  0  0  0  3  0  0  0  0  0  0
  192.0230  174.8310  144.0390 C   0  0  0  0  0  3  0  0  0  0  0  0
  191.6730  176.1170  143.6140 C   0  0  0  0  0  3  0  0  0  0  0  0
  191.9630  175.5750  146.3420 C   0  0  0  0  0  3  0  0  0  0  0  0
  1 11  2  0  0  0  0
  2  6  1  0  0  0  0
  3  8  1  0  0  0  0
  4 18  2  0  0  0  0
  6  5  2  0  0  0  0
  8  1  1  0  0  0  0
  8  2  2  0  0  0  0
  9 27  1  0  0  0  0
 10  4  1  0  0  0  0
 10 17  1  0  0  0  0
 11  5  1  0  0  0  0
 12 19  1  0  0  0  0
 12  3  2  0  0  0  0
 13  1  1  0  0  0  0
 14  2  1  0  0  0  0
 15 16  2  0  0  0  0
 15  4  1  0  0  0  0
 16 12  1  0  0  0  0
 17  9  1  0  0  0  0
 17  7  2  0  0  0  0
 18  3  1  0  0  0  0
 18  7  1  0  0  0  0
 19 13  2  0  0  0  0
 20 24  1  0  0  0  0
 21 23  1  0  0  0  0
 21 20  1  0  0  0  0
 22 16  1  0  0  0  0
 23 25  2  0  0  0  0
 24 22  2  0  0  0  0
 25 22  1  0  0  0  0
 26 20  2  0  0  0  0
 27 29  1  0  0  0  0
 29 30  1  0  0  0  0
 30 34  2  0  0  0  0
 30 28  1  0  0  0  0
 31 34  1  0  0  0  0
 32 31  2  0  0  0  0
 33 32  1  0  0  0  0
 33 29  2  0  0  0  0
M  END
>  <MODEL>
1

>  <REMARK>
 VINA RESULT:      -9.7      0.000      0.000
  Name = 
  3 active torsions:
  status: ('A' for Active; 'I' for Inactive)
    1  A    between atoms: C_3  and  C_13
    2  A    between atoms: C_3  and  N_17
    3  A    between atoms: C_12  and  C_28
                            x       y       z     vdW  Elec       q    Type
                         _______ _______ _______ _____ _____    ______ ____

>  <TORSDO>
F 3

$$$$
=
 OpenBabel10262423493D

 34 39  0  0  0  0  0  0  0  0999 V2000
  186.9840  178.0660  145.6410 C   0  0  0  0  0  0  0  0  0  0  0  0
  188.5210  176.8810  144.1760 C   0  0  0  0  0  0  0  0  0  0  0  0
  186.4170  177.9740  143.2600 C   0  0  0  0  0  0  0  0  0  0  0  0
  185.7970  178.2650  140.9360 C   0  0  0  0  0  0  0  0  0  0  0  0
  189.1100  177.2970  146.4940 C   0  0  0  0  0  3  0  0  0  0  0  0
  189.4060  176.7470  145.2510 C   0  0  0  0  0  3  0  0  0  0  0  0
  188.0260  177.9770  141.3850 N   0  0  0  0  0  0  0  0  0  0  0  0
  187.3260  177.6500  144.3230 C   0  0  0  0  0  0  0  0  0  0  0  0
  189.2060  178.0940  139.2420 N   0  0  0  0  0  2  0  0  0  0  0  0
  186.4760  178.3580  139.4040 S   0  0  0  0  0  0  0  0  0  0  0  0
  187.8880  177.9260  146.6960 C   0  0  0  0  0  3  0  0  0  0  0  0
  185.0860  178.3920  143.5870 C   0  0  0  0  0  0  0  0  0  0  0  0
  185.7230  178.5750  145.9220 C   0  0  0  0  0  3  0  0  0  0  0  0
  188.7820  175.9740  143.0220 C   0  0  0  0  0  1  0  0  0  0  0  0
  184.5110  178.5240  141.2520 N   0  0  0  0  0  0  0  0  0  0  0  0
  184.1170  178.5890  142.5550 C   0  0  0  0  0  0  0  0  0  0  0  0
  188.0220  178.1200  140.0380 C   0  0  0  0  0  0  0  0  0  0  0  0
  186.7670  178.0210  141.8900 C   0  0  0  0  0  0  0  0  0  0  0  0
  184.7770  178.7000  144.9170 C   0  0  0  0  0  3  0  0  0  0  0  0
  180.6400  179.9320  142.1770 C   0  0  0  0  0  0  0  0  0  0  0  0
  180.0350  179.5450  143.3740 C   0  0  0  0  0  2  0  0  0  0  0  0
  182.6900  178.9040  142.8300 C   0  0  0  0  0  0  0  0  0  0  0  0
  180.7780  178.8310  144.3130 C   0  0  0  0  0  3  0  0  0  0  0  0
  181.9400  179.6110  141.9360 N   0  0  0  0  0  0  0  0  0  0  0  0
  182.1110  178.5110  144.0460 C   0  0  0  0  0  3  0  0  0  0  0  0
  179.9840  180.5790  141.3220 O   0  0  0  0  0  0  0  0  0  0  0  0
  190.5180  177.8950  139.8370 C   0  0  0  0  0  2  0  0  0  0  0  0
  193.3650  177.6600  139.9360 F   0  0  0  0  0  0  0  0  0  0  0  0
  191.2760  176.8780  139.0550 C   0  0  0  0  0  0  0  0  0  0  0  0
  192.6740  176.7980  139.1490 C   0  0  0  0  0  0  0  0  0  0  0  0
  192.6690  174.9260  137.6110 C   0  0  0  0  0  3  0  0  0  0  0  0
  191.2770  174.9990  137.5230 C   0  0  0  0  0  3  0  0  0  0  0  0
  190.5810  175.9730  138.2460 C   0  0  0  0  0  3  0  0  0  0  0  0
  193.3670  175.8240  138.4240 C   0  0  0  0  0  3  0  0  0  0  0  0
  1 13  1  0  0  0  0
  1 11  2  0  0  0  0
  2  8  2  0  0  0  0
  2  6  1  0  0  0  0
  3 12  1  0  0  0  0
  3  8  1  0  0  0  0
  4 15  2  0  0  0  0
  4 18  1  0  0  0  0
  5 11  1  0  0  0  0
  6  5  2  0  0  0  0
  7 18  1  0  0  0  0
  8  1  1  0  0  0  0
  9 27  1  0  0  0  0
  9 17  1  0  0  0  0
 10 17  1  0  0  0  0
 10  4  1  0  0  0  0
 12 19  1  0  0  0  0
 14  2  1  0  0  0  0
 15 16  1  0  0  0  0
 16 22  1  0  0  0  0
 16 12  2  0  0  0  0
 17  7  2  0  0  0  0
 18  3  2  0  0  0  0
 19 13  2  0  0  0  0
 20 21  1  0  0  0  0
 21 23  1  0  0  0  0
 22 25  1  0  0  0  0
 24 20  1  0  0  0  0
 24 22  2  0  0  0  0
 25 23  2  0  0  0  0
 26 20  2  0  0  0  0
 29 30  1  0  0  0  0
 29 27  1  0  0  0  0
 30 28  1  0  0  0  0
 31 34  1  0  0  0  0
 32 31  2  0  0  0  0
 32 33  1  0  0  0  0
 33 29  2  0  0  0  0
 34 30  2  0  0  0  0
M  END
>  <MODEL>
2

>  <REMARK>
 VINA RESULT:      -9.5      3.113      4.412
  Name = 
  3 active torsions:
  status: ('A' for Active; 'I' for Inactive)
    1  A    between atoms: C_3  and  C_13
    2  A    between atoms: C_3  and  N_17
    3  A    between atoms: C_12  and  C_28
                            x       y       z     vdW  Elec       q    Type
                         _______ _______ _______ _____ _____    ______ ____

>  <TORSDO>
F 3

$$$$
=
 OpenBabel10262423493D

 34 39  0  0  0  0  0  0  0  0999 V2000
  189.4220  177.3250  145.8620 C   0  0  0  0  0  0  0  0  0  0  0  0
  190.7980  176.1890  144.2110 C   0  0  0  0  0  0  0  0  0  0  0  0
  188.6500  177.3710  143.5380 C   0  0  0  0  0  0  0  0  0  0  0  0
  187.8400  177.7960  141.2940 C   0  0  0  0  0  0  0  0  0  0  0  0
  191.5940  176.4700  146.4860 C   0  0  0  0  0  3  0  0  0  0  0  0
  191.7690  175.9820  145.1960 C   0  0  0  0  0  3  0  0  0  0  0  0
  190.0920  177.4410  141.5320 N   0  0  0  0  0  0  0  0  0  0  0  0
  189.6400  176.9730  144.5000 C   0  0  0  0  0  0  0  0  0  0  0  0
  191.0870  177.6470  139.3040 N   0  0  0  0  0  2  0  0  0  0  0  0
  188.3880  177.9570  139.7160 S   0  0  0  0  0  0  0  0  0  0  0  0
  190.4090  177.1120  146.8250 C   0  0  0  0  0  3  0  0  0  0  0  0
  187.3630  177.7970  144.0000 C   0  0  0  0  0  0  0  0  0  0  0  0
  188.2020  177.8440  146.2770 C   0  0  0  0  0  3  0  0  0  0  0  0
  190.9370  175.3400  142.9930 C   0  0  0  0  0  1  0  0  0  0  0  0
  186.5930  178.0640  141.7340 N   0  0  0  0  0  0  0  0  0  0  0  0
  186.3150  178.0680  143.0670 C   0  0  0  0  0  0  0  0  0  0  0  0
  189.9770  177.6540  140.1990 C   0  0  0  0  0  0  0  0  0  0  0  0
  188.8830  177.4830  142.1470 C   0  0  0  0  0  0  0  0  0  0  0  0
  187.1770  178.0400  145.3650 C   0  0  0  0  0  3  0  0  0  0  0  0
  182.6440  178.8040  142.9150 C   0  0  0  0  0  0  0  0  0  0  0  0
  182.3340  179.0700  144.2490 C   0  0  0  0  0  2  0  0  0  0  0  0
  184.9240  178.3950  143.4810 C   0  0  0  0  0  0  0  0  0  0  0  0
  183.3420  179.0030  145.2090 C   0  0  0  0  0  3  0  0  0  0  0  0
  183.9180  178.4810  142.5630 N   0  0  0  0  0  0  0  0  0  0  0  0
  184.6430  178.6690  144.8280 C   0  0  0  0  0  3  0  0  0  0  0  0
  181.7470  178.8650  142.0360 O   0  0  0  0  0  0  0  0  0  0  0  0
  192.4390  177.3910  139.7710 C   0  0  0  0  0  2  0  0  0  0  0  0
  194.8980  176.0820  140.4140 F   0  0  0  0  0  0  0  0  0  0  0  0
  193.1210  176.4440  138.8440 C   0  0  0  0  0  0  0  0  0  0  0  0
  194.3230  175.8190  139.2140 C   0  0  0  0  0  0  0  0  0  0  0  0
  194.3550  174.6330  137.1010 C   0  0  0  0  0  3  0  0  0  0  0  0
  193.1550  175.2490  136.7350 C   0  0  0  0  0  3  0  0  0  0  0  0
  192.5380  176.1520  137.6070 C   0  0  0  0  0  3  0  0  0  0  0  0
  194.9380  174.9180  138.3400 C   0  0  0  0  0  3  0  0  0  0  0  0
  1 13  1  0  0  0  0
  1 11  2  0  0  0  0
  2  8  2  0  0  0  0
  2  6  1  0  0  0  0
  3 12  1  0  0  0  0
  3  8  1  0  0  0  0
  4 15  2  0  0  0  0
  4 18  1  0  0  0  0
  5 11  1  0  0  0  0
  6  5  2  0  0  0  0
  7 18  1  0  0  0  0
  8  1  1  0  0  0  0
  9 27  1  0  0  0  0
  9 17  1  0  0  0  0
 10 17  1  0  0  0  0
 10  4  1  0  0  0  0
 12 19  1  0  0  0  0
 14  2  1  0  0  0  0
 15 16  1  0  0  0  0
 16 22  1  0  0  0  0
 16 12  2  0  0  0  0
 17  7  2  0  0  0  0
 18  3  2  0  0  0  0
 19 13  2  0  0  0  0
 20 21  1  0  0  0  0
 21 23  1  0  0  0  0
 22 25  1  0  0  0  0
 24 20  1  0  0  0  0
 24 22  2  0  0  0  0
 25 23  2  0  0  0  0
 26 20  2  0  0  0  0
 29 30  1  0  0  0  0
 29 27  1  0  0  0  0
 30 28  1  0  0  0  0
 31 34  1  0  0  0  0
 32 31  2  0  0  0  0
 32 33  1  0  0  0  0
 33 29  2  0  0  0  0
 34 30  2  0  0  0  0
M  END
>  <MODEL>
3

>  <REMARK>
 VINA RESULT:      -9.2      3.389      5.312
  Name = 
  3 active torsions:
  status: ('A' for Active; 'I' for Inactive)
    1  A    between atoms: C_3  and  C_13
    2  A    between atoms: C_3  and  N_17
    3  A    between atoms: C_12  and  C_28
                            x       y       z     vdW  Elec       q    Type
                         _______ _______ _______ _____ _____    ______ ____

>  <TORSDO>
F 3

$$$$
=
 OpenBabel10262423493D

 34 39  0  0  0  0  0  0  0  0999 V2000
  184.8040  178.9420  141.8170 C   0  0  0  0  0  0  0  0  0  0  0  0
  186.2280  178.0690  143.5840 C   0  0  0  0  0  0  0  0  0  0  0  0
  187.0060  178.0920  141.1640 C   0  0  0  0  0  0  0  0  0  0  0  0
  189.2200  177.5830  140.3210 C   0  0  0  0  0  0  0  0  0  0  0  0
  184.1530  179.2040  144.1290 C   0  0  0  0  0  3  0  0  0  0  0  0
  185.2960  178.5180  144.5250 C   0  0  0  0  0  3  0  0  0  0  0  0
  189.0700  178.2210  142.5180 N   0  0  0  0  0  0  0  0  0  0  0  0
  186.0520  178.3750  142.2000 C   0  0  0  0  0  0  0  0  0  0  0  0
  191.3490  178.2380  143.4140 N   0  0  0  0  0  2  0  0  0  0  0  0
  190.8260  177.5450  140.8070 S   0  0  0  0  0  0  0  0  0  0  0  0
  183.8930  179.3870  142.7760 C   0  0  0  0  0  3  0  0  0  0  0  0
  186.5680  178.0750  139.8000 C   0  0  0  0  0  0  0  0  0  0  0  0
  184.4380  179.0210  140.4790 C   0  0  0  0  0  3  0  0  0  0  0  0
  187.2100  177.0680  144.0900 C   0  0  0  0  0  1  0  0  0  0  0  0
  188.7680  177.4360  139.0590 N   0  0  0  0  0  0  0  0  0  0  0  0
  187.4580  177.6640  138.7610 C   0  0  0  0  0  0  0  0  0  0  0  0
  190.4030  178.0290  142.3670 C   0  0  0  0  0  0  0  0  0  0  0  0
  188.3970  177.9340  141.3750 C   0  0  0  0  0  0  0  0  0  0  0  0
  185.2920  178.5590  139.4900 C   0  0  0  0  0  3  0  0  0  0  0  0
  185.9750  176.2240  135.6360 C   0  0  0  0  0  0  0  0  0  0  0  0
  186.2990  177.1850  134.6770 C   0  0  0  0  0  2  0  0  0  0  0  0
  187.0350  177.5070  137.3440 C   0  0  0  0  0  0  0  0  0  0  0  0
  187.0090  178.3210  135.0640 C   0  0  0  0  0  3  0  0  0  0  0  0
  186.3500  176.4010  136.9320 N   0  0  0  0  0  0  0  0  0  0  0  0
  187.3840  178.4840  136.3990 C   0  0  0  0  0  3  0  0  0  0  0  0
  185.3380  175.1920  135.3020 O   0  0  0  0  0  0  0  0  0  0  0  0
  190.9340  178.6650  144.7400 C   0  0  0  0  0  2  0  0  0  0  0  0
  188.9810  178.2250  146.7820 F   0  0  0  0  0  0  0  0  0  0  0  0
  190.9890  177.5100  145.6810 C   0  0  0  0  0  0  0  0  0  0  0  0
  189.9980  177.3340  146.6590 C   0  0  0  0  0  0  0  0  0  0  0  0
  191.0930  175.3050  147.4030 C   0  0  0  0  0  3  0  0  0  0  0  0
  192.0760  175.4750  146.4240 C   0  0  0  0  0  3  0  0  0  0  0  0
  192.0230  176.5750  145.5630 C   0  0  0  0  0  3  0  0  0  0  0  0
  190.0540  176.2330  147.5190 C   0  0  0  0  0  3  0  0  0  0  0  0
  1  8  1  0  0  0  0
  1 11  2  0  0  0  0
  2 14  1  0  0  0  0
  2  6  1  0  0  0  0
  3 18  1  0  0  0  0
  3  8  1  0  0  0  0
  4 10  1  0  0  0  0
  4 18  2  0  0  0  0
  5  6  2  0  0  0  0
  8  2  2  0  0  0  0
  9 27  1  0  0  0  0
 10 17  1  0  0  0  0
 11  5  1  0  0  0  0
 12  3  2  0  0  0  0
 13  1  1  0  0  0  0
 15  4  1  0  0  0  0
 16 15  2  0  0  0  0
 16 12  1  0  0  0  0
 17  7  2  0  0  0  0
 17  9  1  0  0  0  0
 18  7  1  0  0  0  0
 19 12  1  0  0  0  0
 19 13  2  0  0  0  0
 20 24  1  0  0  0  0
 21 23  1  0  0  0  0
 21 20  1  0  0  0  0
 22 16  1  0  0  0  0
 23 25  2  0  0  0  0
 24 22  2  0  0  0  0
 25 22  1  0  0  0  0
 26 20  2  0  0  0  0
 27 29  1  0  0  0  0
 29 30  1  0  0  0  0
 30 28  1  0  0  0  0
 30 34  2  0  0  0  0
 31 34  1  0  0  0  0
 32 31  2  0  0  0  0
 33 29  2  0  0  0  0
 33 32  1  0  0  0  0
M  END
>  <MODEL>
4

>  <REMARK>
 VINA RESULT:      -9.0      2.533      3.194
  Name = 
  3 active torsions:
  status: ('A' for Active; 'I' for Inactive)
    1  A    between atoms: C_3  and  C_13
    2  A    between atoms: C_3  and  N_17
    3  A    between atoms: C_12  and  C_28
                            x       y       z     vdW  Elec       q    Type
                         _______ _______ _______ _____ _____    ______ ____

>  <TORSDO>
F 3

$$$$
=
 OpenBabel10262423493D

 34 39  0  0  0  0  0  0  0  0999 V2000
  187.3890  177.6410  138.1130 C   0  0  0  0  0  0  0  0  0  0  0  0
  188.5120  178.1080  140.2180 C   0  0  0  0  0  0  0  0  0  0  0  0
  186.0020  178.4220  139.9740 C   0  0  0  0  0  0  0  0  0  0  0  0
  184.3970  178.8980  141.7250 C   0  0  0  0  0  0  0  0  0  0  0  0
  189.7160  177.0550  138.3920 C   0  0  0  0  0  3  0  0  0  0  0  0
  189.6910  177.5810  139.6790 C   0  0  0  0  0  3  0  0  0  0  0  0
  186.3700  177.9230  142.3660 N   0  0  0  0  0  0  0  0  0  0  0  0
  187.2940  178.0450  139.4740 C   0  0  0  0  0  0  0  0  0  0  0  0
  186.2500  177.5930  144.7900 N   0  0  0  0  0  2  0  0  0  0  0  0
  184.1860  178.7380  143.3830 S   0  0  0  0  0  0  0  0  0  0  0  0
  188.5760  177.1140  137.6010 C   0  0  0  0  0  3  0  0  0  0  0  0
  184.9480  178.6930  139.0420 C   0  0  0  0  0  0  0  0  0  0  0  0
  186.3180  177.8080  137.2440 C   0  0  0  0  0  3  0  0  0  0  0  0
  188.6900  178.9380  141.4430 C   0  0  0  0  0  1  0  0  0  0  0  0
  183.4560  179.2810  140.8380 N   0  0  0  0  0  0  0  0  0  0  0  0
  183.6930  179.2010  139.4990 C   0  0  0  0  0  0  0  0  0  0  0  0
  185.7130  178.0380  143.5450 C   0  0  0  0  0  0  0  0  0  0  0  0
  185.6440  178.4410  141.3430 C   0  0  0  0  0  0  0  0  0  0  0  0
  185.1290  178.3610  137.6940 C   0  0  0  0  0  3  0  0  0  0  0  0
  181.2200  181.3280  137.6550 C   0  0  0  0  0  0  0  0  0  0  0  0
  180.5160  180.3880  136.9020 C   0  0  0  0  0  2  0  0  0  0  0  0
  182.6010  179.6180  138.5790 C   0  0  0  0  0  0  0  0  0  0  0  0
  180.8610  179.0410  136.9990 C   0  0  0  0  0  3  0  0  0  0  0  0
  182.2320  180.9270  138.4710 N   0  0  0  0  0  0  0  0  0  0  0  0
  181.9030  178.6500  137.8410 C   0  0  0  0  0  3  0  0  0  0  0  0
  180.9180  182.5470  137.5820 O   0  0  0  0  0  0  0  0  0  0  0  0
  187.5690  176.9870  144.8760 C   0  0  0  0  0  2  0  0  0  0  0  0
  190.3350  176.5380  145.4410 F   0  0  0  0  0  0  0  0  0  0  0  0
  188.1970  177.3330  146.1820 C   0  0  0  0  0  0  0  0  0  0  0  0
  189.5640  177.1020  146.4040 C   0  0  0  0  0  0  0  0  0  0  0  0
  189.3600  178.0380  148.6290 C   0  0  0  0  0  3  0  0  0  0  0  0
  188.0010  178.2760  148.4070 C   0  0  0  0  0  3  0  0  0  0  0  0
  187.4210  177.9260  147.1840 C   0  0  0  0  0  3  0  0  0  0  0  0
  190.1410  177.4530  147.6280 C   0  0  0  0  0  3  0  0  0  0  0  0
  1  8  1  0  0  0  0
  2 14  1  0  0  0  0
  3 18  1  0  0  0  0
  4 10  1  0  0  0  0
  5  6  2  0  0  0  0
  6  2  1  0  0  0  0
  7 17  2  0  0  0  0
  8  3  1  0  0  0  0
  8  2  2  0  0  0  0
  9 27  1  0  0  0  0
 10 17  1  0  0  0  0
 11  1  2  0  0  0  0
 11  5  1  0  0  0  0
 12 16  1  0  0  0  0
 12  3  2  0  0  0  0
 13 19  2  0  0  0  0
 13  1  1  0  0  0  0
 15  4  1  0  0  0  0
 16 15  2  0  0  0  0
 17  9  1  0  0  0  0
 18  4  2  0  0  0  0
 18  7  1  0  0  0  0
 19 12  1  0  0  0  0
 20 24  1  0  0  0  0
 21 23  1  0  0  0  0
 21 20  1  0  0  0  0
 22 16  1  0  0  0  0
 23 25  2  0  0  0  0
 24 22  2  0  0  0  0
 25 22  1  0  0  0  0
 26 20  2  0  0  0  0
 27 29  1  0  0  0  0
 28 30  1  0  0  0  0
 29 30  2  0  0  0  0
 29 33  1  0  0  0  0
 30 34  1  0  0  0  0
 32 31  1  0  0  0  0
 33 32  2  0  0  0  0
 34 31  2  0  0  0  0
M  END
>  <MODEL>
5

>  <REMARK>
 VINA RESULT:      -9.0      2.369      4.732
  Name = 
  3 active torsions:
  status: ('A' for Active; 'I' for Inactive)
    1  A    between atoms: C_3  and  C_13
    2  A    between atoms: C_3  and  N_17
    3  A    between atoms: C_12  and  C_28
                            x       y       z     vdW  Elec       q    Type
                         _______ _______ _______ _____ _____    ______ ____

>  <TORSDO>
F 3

$$$$
=
 OpenBabel10262423493D

 34 39  0  0  0  0  0  0  0  0999 V2000
  187.5660  178.4110  139.1100 C   0  0  0  0  0  0  0  0  0  0  0  0
  185.6270  177.8810  137.7420 C   0  0  0  0  0  0  0  0  0  0  0  0
  185.3820  178.3950  140.2190 C   0  0  0  0  0  0  0  0  0  0  0  0
  183.3280  178.7210  141.4620 C   0  0  0  0  0  0  0  0  0  0  0  0
  187.8000  178.2170  136.7130 C   0  0  0  0  0  3  0  0  0  0  0  0
  186.4480  177.9060  136.6100 C   0  0  0  0  0  3  0  0  0  0  0  0
  183.2320  179.0570  139.1970 N   0  0  0  0  0  0  0  0  0  0  0  0
  186.1540  178.2470  139.0180 C   0  0  0  0  0  0  0  0  0  0  0  0
  180.9360  179.7290  138.6720 N   0  0  0  0  0  2  0  0  0  0  0  0
  181.7240  179.1630  141.2430 S   0  0  0  0  0  0  0  0  0  0  0  0
  188.3620  178.4370  137.9650 C   0  0  0  0  0  3  0  0  0  0  0  0
  186.0530  178.3690  141.4850 C   0  0  0  0  0  0  0  0  0  0  0  0
  188.1930  178.4960  140.3470 C   0  0  0  0  0  3  0  0  0  0  0  0
  184.3080  177.2110  137.5550 C   0  0  0  0  0  1  0  0  0  0  0  0
  183.9520  178.5590  142.6470 N   0  0  0  0  0  0  0  0  0  0  0  0
  185.3020  178.3760  142.7000 C   0  0  0  0  0  0  0  0  0  0  0  0
  181.9600  179.3260  139.5790 C   0  0  0  0  0  0  0  0  0  0  0  0
  183.9960  178.6790  140.2530 C   0  0  0  0  0  0  0  0  0  0  0  0
  187.4500  178.4380  141.5160 C   0  0  0  0  0  3  0  0  0  0  0  0
  186.0540  178.8540  146.3400 C   0  0  0  0  0  0  0  0  0  0  0  0
  187.1360  177.9970  146.5400 C   0  0  0  0  0  3  0  0  0  0  0  0
  185.9260  178.2280  144.0420 C   0  0  0  0  0  0  0  0  0  0  0  0
  187.6210  177.2510  145.4670 C   0  0  0  0  0  3  0  0  0  0  0  0
  185.4820  178.9540  145.1090 N   0  0  0  0  0  0  0  0  0  0  0  0
  187.0200  177.3670  144.2120 C   0  0  0  0  0  2  0  0  0  0  0  0
  185.6070  179.5370  147.2960 O   0  0  0  0  0  0  0  0  0  0  0  0
  181.1930  179.8650  137.2470 C   0  0  0  0  0  2  0  0  0  0  0  0
  180.6290  180.6560  134.5580 F   0  0  0  0  0  0  0  0  0  0  0  0
  181.0210  181.2880  136.8390 C   0  0  0  0  0  0  0  0  0  0  0  0
  180.7340  181.6210  135.5060 C   0  0  0  0  0  0  0  0  0  0  0  0
  180.6550  183.9660  136.1100 C   0  0  0  0  0  3  0  0  0  0  0  0
  180.9330  183.6350  137.4390 C   0  0  0  0  0  3  0  0  0  0  0  0
  181.1140  182.2970  137.8030 C   0  0  0  0  0  3  0  0  0  0  0  0
  180.5550  182.9600  135.1450 C   0  0  0  0  0  3  0  0  0  0  0  0
  1 13  1  0  0  0  0
  2  8  1  0  0  0  0
  3 18  2  0  0  0  0
  3 12  1  0  0  0  0
  4 15  2  0  0  0  0
  5 11  2  0  0  0  0
  6  5  1  0  0  0  0
  6  2  2  0  0  0  0
  7 17  2  0  0  0  0
  7 18  1  0  0  0  0
  8  1  2  0  0  0  0
  8  3  1  0  0  0  0
  9 17  1  0  0  0  0
 10  4  1  0  0  0  0
 11  1  1  0  0  0  0
 12 19  1  0  0  0  0
 12 16  2  0  0  0  0
 13 19  2  0  0  0  0
 14  2  1  0  0  0  0
 15 16  1  0  0  0  0
 16 22  1  0  0  0  0
 17 10  1  0  0  0  0
 18  4  1  0  0  0  0
 20 21  1  0  0  0  0
 20 26  2  0  0  0  0
 22 25  1  0  0  0  0
 22 24  2  0  0  0  0
 23 21  2  0  0  0  0
 24 20  1  0  0  0  0
 25 23  1  0  0  0  0
 27  9  1  0  0  0  0
 28 30  1  0  0  0  0
 29 27  1  0  0  0  0
 29 33  1  0  0  0  0
 30 29  2  0  0  0  0
 31 32  1  0  0  0  0
 32 33  2  0  0  0  0
 34 30  1  0  0  0  0
 34 31  2  0  0  0  0
M  END
>  <MODEL>
6

>  <REMARK>
 VINA RESULT:      -8.9      4.443      9.774
  Name = 
  3 active torsions:
  status: ('A' for Active; 'I' for Inactive)
    1  A    between atoms: C_3  and  C_13
    2  A    between atoms: C_3  and  N_17
    3  A    between atoms: C_12  and  C_28
                            x       y       z     vdW  Elec       q    Type
                         _______ _______ _______ _____ _____    ______ ____

>  <TORSDO>
F 3

$$$$
=
 OpenBabel10262423493D

 34 39  0  0  0  0  0  0  0  0999 V2000
  191.9140  177.3420  141.0480 C   0  0  0  0  0  0  0  0  0  0  0  0
  190.6980  176.7920  139.0160 C   0  0  0  0  0  0  0  0  0  0  0  0
  189.4720  177.5210  141.1200 C   0  0  0  0  0  0  0  0  0  0  0  0
  187.1180  178.0460  141.3500 C   0  0  0  0  0  0  0  0  0  0  0  0
  193.1200  176.9400  138.9940 C   0  0  0  0  0  3  0  0  0  0  0  0
  191.9190  176.6850  138.3420 C   0  0  0  0  0  3  0  0  0  0  0  0
  188.0110  178.1960  139.2440 N   0  0  0  0  0  0  0  0  0  0  0  0
  190.6650  177.2380  140.3720 C   0  0  0  0  0  0  0  0  0  0  0  0
  186.2110  178.9280  137.7550 N   0  0  0  0  0  2  0  0  0  0  0  0
  185.7950  178.5420  140.4430 S   0  0  0  0  0  0  0  0  0  0  0  0
  193.1180  177.2360  140.3520 C   0  0  0  0  0  3  0  0  0  0  0  0
  189.5420  177.5690  142.5500 C   0  0  0  0  0  0  0  0  0  0  0  0
  191.9660  177.5010  142.4270 C   0  0  0  0  0  3  0  0  0  0  0  0
  189.5330  176.1720  138.3220 C   0  0  0  0  0  1  0  0  0  0  0  0
  187.1690  177.9540  142.6940 N   0  0  0  0  0  0  0  0  0  0  0  0
  188.3520  177.7120  143.3270 C   0  0  0  0  0  0  0  0  0  0  0  0
  186.7220  178.5550  139.0330 C   0  0  0  0  0  0  0  0  0  0  0  0
  188.2280  177.8710  140.5450 C   0  0  0  0  0  0  0  0  0  0  0  0
  190.7970  177.5750  143.1700 C   0  0  0  0  0  3  0  0  0  0  0  0
  189.4200  177.0970  146.8660 C   0  0  0  0  0  0  0  0  0  0  0  0
  188.2890  177.4700  147.5920 C   0  0  0  0  0  3  0  0  0  0  0  0
  188.3380  177.6480  144.8130 C   0  0  0  0  0  0  0  0  0  0  0  0
  187.1640  177.9320  146.9100 C   0  0  0  0  0  3  0  0  0  0  0  0
  189.4190  177.1890  145.5080 N   0  0  0  0  0  0  0  0  0  0  0  0
  187.1830  178.0190  145.5170 C   0  0  0  0  0  2  0  0  0  0  0  0
  190.4410  176.6750  147.4650 O   0  0  0  0  0  0  0  0  0  0  0  0
  187.0540  178.9330  136.5700 C   0  0  0  0  0  2  0  0  0  0  0  0
  189.2310  177.7600  135.1370 F   0  0  0  0  0  0  0  0  0  0  0  0
  186.9540  177.6180  135.8760 C   0  0  0  0  0  0  0  0  0  0  0  0
  188.0580  177.0820  135.1950 C   0  0  0  0  0  0  0  0  0  0  0  0
  186.7520  175.1230  134.6230 C   0  0  0  0  0  3  0  0  0  0  0  0
  185.6550  175.6520  135.3070 C   0  0  0  0  0  3  0  0  0  0  0  0
  185.7560  176.8980  135.9350 C   0  0  0  0  0  3  0  0  0  0  0  0
  187.9530  175.8360  134.5680 C   0  0  0  0  0  3  0  0  0  0  0  0
  1 13  1  0  0  0  0
  2  8  1  0  0  0  0
  3 12  1  0  0  0  0
  4 15  2  0  0  0  0
  5 11  2  0  0  0  0
  6  5  1  0  0  0  0
  6  2  2  0  0  0  0
  7 18  1  0  0  0  0
  8  1  2  0  0  0  0
  8  3  1  0  0  0  0
  9 17  1  0  0  0  0
 10  4  1  0  0  0  0
 11  1  1  0  0  0  0
 12 19  1  0  0  0  0
 12 16  2  0  0  0  0
 13 19  2  0  0  0  0
 14  2  1  0  0  0  0
 15 16  1  0  0  0  0
 16 22  1  0  0  0  0
 17  7  2  0  0  0  0
 17 10  1  0  0  0  0
 18  3  2  0  0  0  0
 18  4  1  0  0  0  0
 20 26  2  0  0  0  0
 20 21  1  0  0  0  0
 22 24  2  0  0  0  0
 22 25  1  0  0  0  0
 23 21  2  0  0  0  0
 24 20  1  0  0  0  0
 25 23  1  0  0  0  0
 27  9  1  0  0  0  0
 28 30  1  0  0  0  0
 29 33  1  0  0  0  0
 29 27  1  0  0  0  0
 30 29  2  0  0  0  0
 31 32  1  0  0  0  0
 32 33  2  0  0  0  0
 34 31  2  0  0  0  0
 34 30  1  0  0  0  0
M  END
>  <MODEL>
7

>  <REMARK>
 VINA RESULT:      -8.7      4.408      8.690
  Name = 
  3 active torsions:
  status: ('A' for Active; 'I' for Inactive)
    1  A    between atoms: C_3  and  C_13
    2  A    between atoms: C_3  and  N_17
    3  A    between atoms: C_12  and  C_28
                            x       y       z     vdW  Elec       q    Type
                         _______ _______ _______ _____ _____    ______ ____

>  <TORSDO>
F 3

$$$$
=
 OpenBabel10262423493D

 34 39  0  0  0  0  0  0  0  0999 V2000
  185.7360  177.9230  145.3580 C   0  0  0  0  0  0  0  0  0  0  0  0
  185.5010  179.1360  143.2640 C   0  0  0  0  0  0  0  0  0  0  0  0
  187.6290  177.8550  143.8050 C   0  0  0  0  0  0  0  0  0  0  0  0
  189.4970  177.4050  142.3290 C   0  0  0  0  0  0  0  0  0  0  0  0
  183.6020  178.8800  144.7520 C   0  0  0  0  0  3  0  0  0  0  0  0
  184.1630  179.3840  143.5840 C   0  0  0  0  0  3  0  0  0  0  0  0
  187.4830  177.8680  141.3380 N   0  0  0  0  0  0  0  0  0  0  0  0
  186.2950  178.2950  144.1020 C   0  0  0  0  0  0  0  0  0  0  0  0
  187.8280  177.7250  138.9180 N   0  0  0  0  0  2  0  0  0  0  0  0
  189.8740  177.2820  140.6980 S   0  0  0  0  0  0  0  0  0  0  0  0
  184.3960  178.1780  145.6510 C   0  0  0  0  0  3  0  0  0  0  0  0
  188.4520  177.3640  144.8700 C   0  0  0  0  0  0  0  0  0  0  0  0
  186.5240  177.3430  146.3440 C   0  0  0  0  0  3  0  0  0  0  0  0
  186.0670  179.9990  142.1880 C   0  0  0  0  0  1  0  0  0  0  0  0
  190.3040  177.0740  143.3580 N   0  0  0  0  0  0  0  0  0  0  0  0
  189.8260  177.0480  144.6340 C   0  0  0  0  0  0  0  0  0  0  0  0
  188.2850  177.6580  140.2670 C   0  0  0  0  0  0  0  0  0  0  0  0
  188.1730  177.7630  142.5020 C   0  0  0  0  0  0  0  0  0  0  0  0
  187.8700  177.1020  146.1150 C   0  0  0  0  0  3  0  0  0  0  0  0
  191.7140  177.0290  147.8700 C   0  0  0  0  0  0  0  0  0  0  0  0
  192.5710  175.9390  147.7130 C   0  0  0  0  0  3  0  0  0  0  0  0
  190.7660  176.6500  145.7150 C   0  0  0  0  0  0  0  0  0  0  0  0
  192.5240  175.2010  146.5320 C   0  0  0  0  0  3  0  0  0  0  0  0
  190.8430  177.3590  146.8780 N   0  0  0  0  0  0  0  0  0  0  0  0
  191.6240  175.5560  145.5260 C   0  0  0  0  0  2  0  0  0  0  0  0
  191.7460  177.7080  148.9280 O   0  0  0  0  0  0  0  0  0  0  0  0
  186.4460  178.0440  138.5990 C   0  0  0  0  0  2  0  0  0  0  0  0
  184.1090  176.7110  137.6330 F   0  0  0  0  0  0  0  0  0  0  0  0
  186.1940  177.7950  137.1520 C   0  0  0  0  0  0  0  0  0  0  0  0
  185.0230  177.1450  136.7290 C   0  0  0  0  0  0  0  0  0  0  0  0
  185.7230  177.3830  134.4220 C   0  0  0  0  0  3  0  0  0  0  0  0
  186.8850  178.0370  134.8410 C   0  0  0  0  0  3  0  0  0  0  0  0
  187.1190  178.2450  136.2040 C   0  0  0  0  0  3  0  0  0  0  0  0
  184.7930  176.9380  135.3660 C   0  0  0  0  0  3  0  0  0  0  0  0
  1 11  1  0  0  0  0
  1 13  1  0  0  0  0
  2  6  2  0  0  0  0
  2  8  1  0  0  0  0
  3  8  1  0  0  0  0
  3 12  1  0  0  0  0
  4 18  1  0  0  0  0
  4 15  2  0  0  0  0
  5 11  2  0  0  0  0
  6  5  1  0  0  0  0
  7 18  1  0  0  0  0
  8  1  2  0  0  0  0
  9 17  1  0  0  0  0
 10  4  1  0  0  0  0
 12 19  1  0  0  0  0
 14  2  1  0  0  0  0
 15 16  1  0  0  0  0
 16 12  2  0  0  0  0
 16 22  1  0  0  0  0
 17 10  1  0  0  0  0
 17  7  2  0  0  0  0
 18  3  2  0  0  0  0
 19 13  2  0  0  0  0
 20 26  2  0  0  0  0
 21 20  1  0  0  0  0
 22 24  2  0  0  0  0
 23 21  2  0  0  0  0
 24 20  1  0  0  0  0
 25 22  1  0  0  0  0
 25 23  1  0  0  0  0
 27  9  1  0  0  0  0
 29 27  1  0  0  0  0
 30 29  1  0  0  0  0
 30 28  1  0  0  0  0
 31 32  2  0  0  0  0
 31 34  1  0  0  0  0
 32 33  1  0  0  0  0
 33 29  2  0  0  0  0
 34 30  2  0  0  0  0
M  END
>  <MODEL>
8

>  <REMARK>
 VINA RESULT:      -8.2      3.908      8.301
  Name = 
  3 active torsions:
  status: ('A' for Active; 'I' for Inactive)
    1  A    between atoms: C_3  and  C_13
    2  A    between atoms: C_3  and  N_17
    3  A    between atoms: C_12  and  C_28
                            x       y       z     vdW  Elec       q    Type
                         _______ _______ _______ _____ _____    ______ ____

>  <TORSDO>
F 3

$$$$
=
 OpenBabel10262423493D

 34 39  0  0  0  0  0  0  0  0999 V2000
  185.5690  177.9200  145.4160 C   0  0  0  0  0  0  0  0  0  0  0  0
  185.0720  179.3760  143.5340 C   0  0  0  0  0  0  0  0  0  0  0  0
  187.1810  177.9580  143.5730 C   0  0  0  0  0  0  0  0  0  0  0  0
  188.7590  177.6100  141.7670 C   0  0  0  0  0  0  0  0  0  0  0  0
  183.4240  179.0240  145.2810 C   0  0  0  0  0  3  0  0  0  0  0  0
  183.8190  179.6380  144.0970 C   0  0  0  0  0  3  0  0  0  0  0  0
  186.6420  178.2630  141.1800 N   0  0  0  0  0  0  0  0  0  0  0  0
  185.9390  178.4130  144.1330 C   0  0  0  0  0  0  0  0  0  0  0  0
  186.5840  178.3880  138.7360 N   0  0  0  0  0  2  0  0  0  0  0  0
  188.8600  177.6610  140.0930 S   0  0  0  0  0  0  0  0  0  0  0  0
  184.3100  178.1920  145.9540 C   0  0  0  0  0  3  0  0  0  0  0  0
  188.1350  177.3150  144.4260 C   0  0  0  0  0  0  0  0  0  0  0  0
  186.4700  177.1990  146.1900 C   0  0  0  0  0  3  0  0  0  0  0  0
  185.5060  180.3350  142.4780 C   0  0  0  0  0  1  0  0  0  0  0  0
  189.7000  177.1300  142.6050 N   0  0  0  0  0  0  0  0  0  0  0  0
  189.4320  176.9750  143.9330 C   0  0  0  0  0  0  0  0  0  0  0  0
  187.2480  178.1470  139.9750 C   0  0  0  0  0  0  0  0  0  0  0  0
  187.5030  177.9970  142.1950 C   0  0  0  0  0  0  0  0  0  0  0  0
  187.7460  176.9340  145.7160 C   0  0  0  0  0  3  0  0  0  0  0  0
  191.7420  176.4430  146.8340 C   0  0  0  0  0  0  0  0  0  0  0  0
  192.5670  175.4130  146.3790 C   0  0  0  0  0  3  0  0  0  0  0  0
  190.5090  176.4170  144.7940 C   0  0  0  0  0  0  0  0  0  0  0  0
  192.3570  174.8850  145.1060 C   0  0  0  0  0  3  0  0  0  0  0  0
  190.7470  176.9200  146.0390 N   0  0  0  0  0  0  0  0  0  0  0  0
  191.3290  175.3890  144.3060 C   0  0  0  0  0  2  0  0  0  0  0  0
  191.9210  176.9330  147.9780 O   0  0  0  0  0  0  0  0  0  0  0  0
  185.1900  178.7960  138.6870 C   0  0  0  0  0  2  0  0  0  0  0  0
  183.3800  178.0800  140.7810 F   0  0  0  0  0  0  0  0  0  0  0  0
  184.3150  177.5910  138.6270 C   0  0  0  0  0  0  0  0  0  0  0  0
  183.4350  177.2910  139.6780 C   0  0  0  0  0  0  0  0  0  0  0  0
  182.6490  175.3470  138.4640 C   0  0  0  0  0  3  0  0  0  0  0  0
  183.5180  175.6500  137.4130 C   0  0  0  0  0  3  0  0  0  0  0  0
  184.3490  176.7710  137.4930 C   0  0  0  0  0  3  0  0  0  0  0  0
  182.6070  176.1670  139.5960 C   0  0  0  0  0  3  0  0  0  0  0  0
  1 11  1  0  0  0  0
  1 13  1  0  0  0  0
  2  6  2  0  0  0  0
  2  8  1  0  0  0  0
  3  8  1  0  0  0  0
  3 12  1  0  0  0  0
  4 18  1  0  0  0  0
  4 15  2  0  0  0  0
  5 11  2  0  0  0  0
  6  5  1  0  0  0  0
  7 18  1  0  0  0  0
  8  1  2  0  0  0  0
  9 17  1  0  0  0  0
 10  4  1  0  0  0  0
 12 19  1  0  0  0  0
 14  2  1  0  0  0  0
 15 16  1  0  0  0  0
 16 12  2  0  0  0  0
 16 22  1  0  0  0  0
 17 10  1  0  0  0  0
 17  7  2  0  0  0  0
 18  3  2  0  0  0  0
 19 13  2  0  0  0  0
 20 26  2  0  0  0  0
 21 20  1  0  0  0  0
 22 24  2  0  0  0  0
 23 21  2  0  0  0  0
 24 20  1  0  0  0  0
 25 22  1  0  0  0  0
 25 23  1  0  0  0  0
 27  9  1  0  0  0  0
 29 27  1  0  0  0  0
 29 30  1  0  0  0  0
 30 28  1  0  0  0  0
 31 34  1  0  0  0  0
 32 33  1  0  0  0  0
 32 31  2  0  0  0  0
 33 29  2  0  0  0  0
 34 30  2  0  0  0  0
M  END
>  <MODEL>
9

>  <REMARK>
 VINA RESULT:      -8.0      3.401      7.865
  Name = 
  3 active torsions:
  status: ('A' for Active; 'I' for Inactive)
    1  A    between atoms: C_3  and  C_13
    2  A    between atoms: C_3  and  N_17
    3  A    between atoms: C_12  and  C_28
                            x       y       z     vdW  Elec       q    Type
                         _______ _______ _______ _____ _____    ______ ____

>  <TORSDO>
F 3

$$$$
