=
 OpenBabel10272414473D

 37 43  0  0  1  0  0  0  0  0999 V2000
  182.6670  176.9980  139.0370 C   0  0  0  0  0  3  0  0  0  0  0  0
  189.7450  175.3860  137.5640 C   0  0  0  0  0  3  0  0  0  0  0  0
  183.7050  179.4130  143.3470 C   0  0  0  0  0  2  0  0  0  0  0  0
  187.0030  179.0340  140.7780 O   0  0  0  0  0  0  0  0  0  0  0  0
  188.7690  176.2550  137.0620 C   0  0  0  0  0  0  0  0  0  0  0  0
  186.8710  178.1910  136.0710 C   0  0  0  0  0  2  0  0  0  0  0  0
  188.6040  176.3850  135.6650 C   0  0  0  0  0  0  0  0  0  0  0  0
  185.9750  178.4990  142.8890 C   0  0  2  0  0  3  0  0  0  0  0  0
  185.9950  178.6520  138.3390 C   0  0  0  0  0  2  0  0  0  0  0  0
  185.7360  178.9980  141.4380 C   0  0  2  0  0  3  0  0  0  0  0  0
  186.6180  177.5560  137.4420 C   0  0  1  0  0  0  0  0  0  0  0  0
  187.5030  177.2180  135.0710 C   0  0  0  0  0  2  0  0  0  0  0  0
  186.6750  177.2790  142.8830 O   0  0  0  0  0  0  0  0  0  0  0  0
  190.3690  174.7580  135.3120 C   0  0  0  0  0  3  0  0  0  0  0  0
  189.3980  175.6240  134.8020 C   0  0  0  0  0  3  0  0  0  0  0  0
  184.7310  178.1150  140.6490 C   0  0  1  0  0  3  0  0  0  0  0  0
  182.3300  177.5660  140.3570 C   0  0  0  0  0  3  0  0  0  0  0  0
  189.0080  177.8510  140.2890 C   0  0  0  0  0  3  0  0  0  0  0  0
  188.0030  177.5640  142.5100 C   0  0  0  0  0  2  0  0  0  0  0  0
  183.2630  178.1490  141.1290 C   0  0  0  0  0  0  0  0  0  0  0  0
  185.7180  176.3120  137.2880 C   0  0  0  0  0  2  0  0  0  0  0  0
  188.0330  178.1570  141.1360 C   0  0  0  0  0  0  0  0  0  0  0  0
  184.7020  178.3470  139.1140 C   0  0  2  0  0  3  0  0  0  0  0  0
  184.7300  178.3800  143.7540 C   0  0  0  0  0  2  0  0  0  0  0  0
  187.9760  177.0960  138.0260 C   0  0  2  0  0  3  0  0  0  0  0  0
  182.7160  178.7840  142.3860 C   0  0  0  0  0  2  0  0  0  0  0  0
  184.2950  176.6380  137.2960 N   0  0  0  0  0  0  0  0  0  0  0  0
  190.5410  174.6390  136.6930 C   0  0  0  0  0  3  0  0  0  0  0  0
  183.8190  177.3330  138.4480 C   0  0  0  0  0  0  0  0  0  0  0  0
  189.0250  178.4810  138.6120 S   0  0  0  0  0  0  0  0  0  0  0  0
  183.3580  176.1030  136.2990 C   0  0  2  0  0  3  0  0  0  0  0  0
  183.9610  174.3070  134.9010 O   0  0  0  0  0  0  0  0  0  0  0  0
  183.5310  174.6360  135.9950 C   0  0  0  0  0  0  0  0  0  0  0  0
  184.4550  172.7860  137.3660 C   0  0  0  0  0  1  0  0  0  0  0  0
  183.2120  173.5800  137.0100 C   0  0  0  0  0  2  0  0  0  0  0  0
  183.2200  177.0010  135.0690 C   0  0  0  0  0  2  0  0  0  0  0  0
  182.0300  177.9400  135.1630 C   0  0  0  0  0  1  0  0  0  0  0  0
  1 17  1  0  0  0  0
  3 24  1  0  0  0  0
  4 22  1  0  0  0  0
  5  2  1  0  0  0  0
  7  5  2  0  0  0  0
  8 24  1  6  0  0  0
 10  4  1  6  0  0  0
 10  8  1  0  0  0  0
 11  6  1  6  0  0  0
 11 25  1  0  0  0  0
 11  9  1  0  0  0  0
 12  7  1  0  0  0  0
 12  6  1  0  0  0  0
 13  8  1  0  0  0  0
 14 28  1  0  0  0  0
 15 14  2  0  0  0  0
 15  7  1  0  0  0  0
 16 20  1  1  0  0  0
 16 10  1  0  0  0  0
 17 20  2  0  0  0  0
 18 22  2  0  0  0  0
 19 13  1  0  0  0  0
 20 26  1  0  0  0  0
 21 27  1  0  0  0  0
 21 11  1  0  0  0  0
 22 19  1  0  0  0  0
 23  9  1  6  0  0  0
 23 16  1  0  0  0  0
 25  5  1  6  0  0  0
 25 30  1  0  0  0  0
 26  3  1  0  0  0  0
 27 29  1  0  0  0  0
 28  2  2  0  0  0  0
 29  1  2  0  0  0  0
 29 23  1  0  0  0  0
 30 18  1  0  0  0  0
 31 36  1  6  0  0  0
 31 27  1  0  0  0  0
 32 33  2  0  0  0  0
 33 31  1  0  0  0  0
 33 35  1  0  0  0  0
 35 34  1  0  0  0  0
 36 37  1  0  0  0  0
M  END
>  <MODEL>
1

>  <REMARK>
 VINA RESULT:      -7.5      0.000      0.000
  Name = 
  4 active torsions:
  status: ('A' for Active; 'I' for Inactive)
    1  A    between atoms: C_11  and  C_26
    2  A    between atoms: C_17  and  C_23
    3  A    between atoms: C_17  and  C_26
    4  A    between atoms: C_26  and  N_33
                            x       y       z     vdW  Elec       q    Type
                         _______ _______ _______ _____ _____    ______ ____

>  <TORSDO>
F 4

$$$$
=
 OpenBabel10272414473D

 37 43  0  0  1  0  0  0  0  0999 V2000
  189.2630  176.6060  142.9280 C   0  0  0  0  0  3  0  0  0  0  0  0
  182.1750  177.6620  141.0500 C   0  0  0  0  0  3  0  0  0  0  0  0
  190.9770  176.9490  138.1920 C   0  0  0  0  0  2  0  0  0  0  0  0
  187.1660  178.6220  138.7430 O   0  0  0  0  0  0  0  0  0  0  0  0
  183.1810  178.3920  141.6950 C   0  0  0  0  0  0  0  0  0  0  0  0
  185.2390  180.0280  142.8890 C   0  0  0  0  0  2  0  0  0  0  0  0
  182.8780  179.1020  142.8780 C   0  0  0  0  0  0  0  0  0  0  0  0
  188.5380  176.9430  137.6940 C   0  0  2  0  0  3  0  0  0  0  0  0
  186.9700  179.1630  141.3460 C   0  0  0  0  0  2  0  0  0  0  0  0
  188.4360  177.9740  138.8510 C   0  0  2  0  0  3  0  0  0  0  0  0
  185.6620  178.7940  142.0850 C   0  0  1  0  0  0  0  0  0  0  0  0
  183.9390  179.8120  143.6710 C   0  0  0  0  0  2  0  0  0  0  0  0
  187.4280  176.0780  137.7040 O   0  0  0  0  0  0  0  0  0  0  0  0
  180.5870  178.3140  142.7550 C   0  0  0  0  0  3  0  0  0  0  0  0
  181.5840  179.0460  143.4050 C   0  0  0  0  0  3  0  0  0  0  0  0
  188.6070  177.3330  140.2540 C   0  0  1  0  0  3  0  0  0  0  0  0
  190.2560  176.4020  141.8560 C   0  0  0  0  0  3  0  0  0  0  0  0
  184.8190  178.3350  138.4810 C   0  0  0  0  0  3  0  0  0  0  0  0
  186.3180  176.8220  137.2590 C   0  0  0  0  0  2  0  0  0  0  0  0
  190.0090  176.7780  140.5900 C   0  0  0  0  0  0  0  0  0  0  0  0
  185.8160  177.5800  143.0240 C   0  0  0  0  0  2  0  0  0  0  0  0
  186.0610  177.9660  138.1910 C   0  0  0  0  0  0  0  0  0  0  0  0
  188.1860  178.2270  141.4520 C   0  0  2  0  0  3  0  0  0  0  0  0
  189.8260  176.1350  137.6490 C   0  0  0  0  0  2  0  0  0  0  0  0
  184.5450  178.4710  141.0620 C   0  0  2  0  0  3  0  0  0  0  0  0
  191.1830  176.6070  139.6540 C   0  0  0  0  0  2  0  0  0  0  0  0
  187.1380  177.5010  143.6360 N   0  0  0  0  0  0  0  0  0  0  0  0
  180.8830  177.6220  141.5780 C   0  0  0  0  0  3  0  0  0  0  0  0
  188.2420  177.4480  142.7330 C   0  0  0  0  0  0  0  0  0  0  0  0
  184.4820  179.6450  139.6550 S   0  0  0  0  0  0  0  0  0  0  0  0
  187.3300  177.2680  145.0730 C   0  0  2  0  0  3  0  0  0  0  0  0
  185.3720  176.9130  146.3320 O   0  0  0  0  0  0  0  0  0  0  0  0
  186.1890  177.7320  145.9440 C   0  0  0  0  0  0  0  0  0  0  0  0
  186.3570  179.3220  147.8420 C   0  0  0  0  0  1  0  0  0  0  0  0
  186.0540  179.1650  146.3630 C   0  0  0  0  0  2  0  0  0  0  0  0
  188.7190  177.6780  145.5630 C   0  0  0  0  0  2  0  0  0  0  0  0
  189.1130  176.9790  146.8520 C   0  0  0  0  0  1  0  0  0  0  0  0
  2 28  2  0  0  0  0
  2  5  1  0  0  0  0
  3 26  1  0  0  0  0
  5  7  2  0  0  0  0
  6 12  1  0  0  0  0
  7 15  1  0  0  0  0
  7 12  1  0  0  0  0
  8 24  1  1  0  0  0
  8 13  1  0  0  0  0
  8 10  1  0  0  0  0
 10  4  1  1  0  0  0
 10 16  1  0  0  0  0
 11  9  1  6  0  0  0
 11  6  1  0  0  0  0
 11 21  1  0  0  0  0
 14 15  2  0  0  0  0
 16 20  1  1  0  0  0
 16 23  1  0  0  0  0
 17  1  1  0  0  0  0
 18 30  1  0  0  0  0
 19 13  1  0  0  0  0
 19 22  1  0  0  0  0
 20 17  2  0  0  0  0
 21 27  1  0  0  0  0
 22 18  2  0  0  0  0
 22  4  1  0  0  0  0
 23  9  1  6  0  0  0
 23 29  1  0  0  0  0
 24  3  1  0  0  0  0
 25 30  1  6  0  0  0
 25  5  1  0  0  0  0
 25 11  1  0  0  0  0
 26 20  1  0  0  0  0
 27 31  1  0  0  0  0
 28 14  1  0  0  0  0
 29  1  2  0  0  0  0
 29 27  1  0  0  0  0
 31 36  1  1  0  0  0
 31 33  1  0  0  0  0
 33 32  2  0  0  0  0
 33 35  1  0  0  0  0
 35 34  1  0  0  0  0
 36 37  1  0  0  0  0
M  END
>  <MODEL>
2

>  <REMARK>
 VINA RESULT:      -7.3      2.662      8.321
  Name = 
  4 active torsions:
  status: ('A' for Active; 'I' for Inactive)
    1  A    between atoms: C_11  and  C_26
    2  A    between atoms: C_17  and  C_23
    3  A    between atoms: C_17  and  C_26
    4  A    between atoms: C_26  and  N_33
                            x       y       z     vdW  Elec       q    Type
                         _______ _______ _______ _____ _____    ______ ____

>  <TORSDO>
F 4

$$$$
=
 OpenBabel10272414473D

 37 43  0  0  1  0  0  0  0  0999 V2000
  184.4730  178.3580  141.2880 C   0  0  0  0  0  3  0  0  0  0  0  0
  189.8640  175.1660  137.3350 C   0  0  0  0  0  3  0  0  0  0  0  0
  187.0700  178.2880  145.6170 C   0  0  0  0  0  2  0  0  0  0  0  0
  189.4660  177.8840  142.1940 O   0  0  0  0  0  0  0  0  0  0  0  0
  189.2970  176.4410  137.4460 C   0  0  0  0  0  0  0  0  0  0  0  0
  188.2970  179.1350  137.7270 C   0  0  0  0  0  2  0  0  0  0  0  0
  189.0010  177.1770  136.2770 C   0  0  0  0  0  0  0  0  0  0  0  0
  188.6290  176.9230  144.2380 C   0  0  2  0  0  3  0  0  0  0  0  0
  188.0480  178.9000  140.1780 C   0  0  0  0  0  2  0  0  0  0  0  0
  188.4190  178.0190  143.1570 C   0  0  2  0  0  3  0  0  0  0  0  0
  187.9980  178.1250  138.8410 C   0  0  1  0  0  0  0  0  0  0  0  0
  188.2940  178.5020  136.3320 C   0  0  0  0  0  2  0  0  0  0  0  0
  188.7250  175.6530  143.6410 O   0  0  0  0  0  0  0  0  0  0  0  0
  189.8200  175.3390  134.9220 C   0  0  0  0  0  3  0  0  0  0  0  0
  189.2540  176.6130  135.0240 C   0  0  0  0  0  3  0  0  0  0  0  0
  187.0290  177.9380  142.4710 C   0  0  1  0  0  3  0  0  0  0  0  0
  184.6120  178.4160  142.7560 C   0  0  0  0  0  3  0  0  0  0  0  0
  190.6700  176.3950  140.7830 C   0  0  0  0  0  3  0  0  0  0  0  0
  189.9760  175.5910  142.9960 C   0  0  0  0  0  2  0  0  0  0  0  0
  185.8070  178.2750  143.3540 C   0  0  0  0  0  0  0  0  0  0  0  0
  186.6380  177.4440  138.5830 C   0  0  0  0  0  2  0  0  0  0  0  0
  190.0570  176.6430  141.9340 C   0  0  0  0  0  0  0  0  0  0  0  0
  186.8780  178.7700  141.1690 C   0  0  2  0  0  3  0  0  0  0  0  0
  187.5960  176.8970  145.3530 C   0  0  0  0  0  2  0  0  0  0  0  0
  189.0940  177.0320  138.8160 C   0  0  2  0  0  3  0  0  0  0  0  0
  185.7770  178.4870  144.8500 C   0  0  0  0  0  2  0  0  0  0  0  0
  185.5130  178.2040  139.1170 N   0  0  0  0  0  0  0  0  0  0  0  0
  190.1230  174.6160  136.0780 C   0  0  0  0  0  3  0  0  0  0  0  0
  185.5580  178.4860  140.5160 C   0  0  0  0  0  0  0  0  0  0  0  0
  190.7120  177.6060  139.4630 S   0  0  0  0  0  0  0  0  0  0  0  0
  184.3020  178.4790  138.3330 C   0  0  2  0  0  3  0  0  0  0  0  0
  184.1620  180.7780  138.8180 O   0  0  0  0  0  0  0  0  0  0  0  0
  183.5540  179.7230  138.7420 C   0  0  0  0  0  0  0  0  0  0  0  0
  181.4280  180.9920  138.5950 C   0  0  0  0  0  1  0  0  0  0  0  0
  182.0840  179.6960  139.0330 C   0  0  0  0  0  2  0  0  0  0  0  0
  183.4270  177.2400  138.1340 C   0  0  0  0  0  2  0  0  0  0  0  0
  183.0580  177.0140  136.6790 C   0  0  0  0  0  1  0  0  0  0  0  0
  1 17  1  0  0  0  0
  2  5  1  0  0  0  0
  7 12  1  0  0  0  0
  7  5  2  0  0  0  0
  8 24  1  1  0  0  0
 10  4  1  6  0  0  0
 10  8  1  0  0  0  0
 11  6  1  6  0  0  0
 11  9  1  0  0  0  0
 12  6  1  0  0  0  0
 13  8  1  0  0  0  0
 14 15  2  0  0  0  0
 14 28  1  0  0  0  0
 15  7  1  0  0  0  0
 16 10  1  0  0  0  0
 16 20  1  1  0  0  0
 17 20  2  0  0  0  0
 18 22  2  0  0  0  0
 19 13  1  0  0  0  0
 20 26  1  0  0  0  0
 21 11  1  0  0  0  0
 21 27  1  0  0  0  0
 22  4  1  0  0  0  0
 22 19  1  0  0  0  0
 23  9  1  6  0  0  0
 23 16  1  0  0  0  0
 24  3  1  0  0  0  0
 25  5  1  6  0  0  0
 25 11  1  0  0  0  0
 25 30  1  0  0  0  0
 26  3  1  0  0  0  0
 27 29  1  0  0  0  0
 28  2  2  0  0  0  0
 29 23  1  0  0  0  0
 29  1  2  0  0  0  0
 30 18  1  0  0  0  0
 31 36  1  1  0  0  0
 31 33  1  0  0  0  0
 31 27  1  0  0  0  0
 33 32  2  0  0  0  0
 33 35  1  0  0  0  0
 34 35  1  0  0  0  0
 37 36  1  0  0  0  0
M  END
>  <MODEL>
3

>  <REMARK>
 VINA RESULT:      -6.9      2.162      3.464
  Name = 
  4 active torsions:
  status: ('A' for Active; 'I' for Inactive)
    1  A    between atoms: C_11  and  C_26
    2  A    between atoms: C_17  and  C_23
    3  A    between atoms: C_17  and  C_26
    4  A    between atoms: C_26  and  N_33
                            x       y       z     vdW  Elec       q    Type
                         _______ _______ _______ _____ _____    ______ ____

>  <TORSDO>
F 4

$$$$
=
 OpenBabel10272414473D

 37 43  0  0  1  0  0  0  0  0999 V2000
  182.6410  177.0090  139.0480 C   0  0  0  0  0  3  0  0  0  0  0  0
  189.7740  175.5240  137.7080 C   0  0  0  0  0  3  0  0  0  0  0  0
  183.5550  179.4310  143.3820 C   0  0  0  0  0  2  0  0  0  0  0  0
  186.9070  179.1160  140.8760 O   0  0  0  0  0  0  0  0  0  0  0  0
  188.7930  176.3770  137.1890 C   0  0  0  0  0  0  0  0  0  0  0  0
  186.8800  178.2830  136.1650 C   0  0  0  0  0  2  0  0  0  0  0  0
  188.6520  176.5080  135.7890 C   0  0  0  0  0  0  0  0  0  0  0  0
  185.8480  178.5590  142.9660 C   0  0  2  0  0  3  0  0  0  0  0  0
  185.9530  178.7220  138.4180 C   0  0  0  0  0  2  0  0  0  0  0  0
  185.6280  179.0560  141.5110 C   0  0  2  0  0  3  0  0  0  0  0  0
  186.6120  177.6390  137.5310 C   0  0  1  0  0  0  0  0  0  0  0  0
  187.5480  177.3230  135.1760 C   0  0  0  0  0  2  0  0  0  0  0  0
  186.5700  177.3500  142.9710 O   0  0  0  0  0  0  0  0  0  0  0  0
  190.4520  174.9130  135.4670 C   0  0  0  0  0  3  0  0  0  0  0  0
  189.4760  175.7630  134.9400 C   0  0  0  0  0  3  0  0  0  0  0  0
  184.6550  178.1580  140.7020 C   0  0  1  0  0  3  0  0  0  0  0  0
  182.2700  177.5680  140.3630 C   0  0  0  0  0  3  0  0  0  0  0  0
  188.9420  177.9700  140.4230 C   0  0  0  0  0  3  0  0  0  0  0  0
  187.9000  177.6590  142.6240 C   0  0  0  0  0  2  0  0  0  0  0  0
  183.1780  178.1650  141.1530 C   0  0  0  0  0  0  0  0  0  0  0  0
  185.7370  176.3810  137.3570 C   0  0  0  0  0  2  0  0  0  0  0  0
  187.9450  178.2570  141.2520 C   0  0  0  0  0  0  0  0  0  0  0  0
  184.6510  178.3930  139.1670 C   0  0  2  0  0  3  0  0  0  0  0  0
  184.5890  178.4150  143.8060 C   0  0  0  0  0  2  0  0  0  0  0  0
  187.9660  177.2020  138.1400 C   0  0  2  0  0  3  0  0  0  0  0  0
  182.5950  178.7870  142.4020 C   0  0  0  0  0  2  0  0  0  0  0  0
  184.3090  176.6810  137.3380 N   0  0  0  0  0  0  0  0  0  0  0  0
  190.6000  174.7930  136.8510 C   0  0  0  0  0  3  0  0  0  0  0  0
  183.7990  177.3650  138.4820 C   0  0  0  0  0  0  0  0  0  0  0  0
  188.9800  178.6040  138.7480 S   0  0  0  0  0  0  0  0  0  0  0  0
  183.4010  176.1320  136.3220 C   0  0  2  0  0  3  0  0  0  0  0  0
  183.3760  177.6770  134.5460 O   0  0  0  0  0  0  0  0  0  0  0  0
  182.7340  177.1650  135.4490 C   0  0  0  0  0  0  0  0  0  0  0  0
  181.2030  178.9350  136.2720 C   0  0  0  0  0  1  0  0  0  0  0  0
  181.3010  177.5550  135.6480 C   0  0  0  0  0  2  0  0  0  0  0  0
  182.4620  175.0610  136.8800 C   0  0  0  0  0  2  0  0  0  0  0  0
  183.1300  173.7030  136.9960 C   0  0  0  0  0  1  0  0  0  0  0  0
  1 17  1  0  0  0  0
  3 24  1  0  0  0  0
  4 22  1  0  0  0  0
  5  2  1  0  0  0  0
  7  5  2  0  0  0  0
  8 13  1  0  0  0  0
  8 24  1  6  0  0  0
 10  4  1  6  0  0  0
 10  8  1  0  0  0  0
 11  6  1  6  0  0  0
 11 25  1  0  0  0  0
 11  9  1  0  0  0  0
 12  7  1  0  0  0  0
 12  6  1  0  0  0  0
 14 28  1  0  0  0  0
 15 14  2  0  0  0  0
 15  7  1  0  0  0  0
 16 20  1  1  0  0  0
 16 10  1  0  0  0  0
 17 20  2  0  0  0  0
 18 22  2  0  0  0  0
 19 13  1  0  0  0  0
 20 26  1  0  0  0  0
 21 11  1  0  0  0  0
 22 19  1  0  0  0  0
 23  9  1  6  0  0  0
 23 16  1  0  0  0  0
 25  5  1  6  0  0  0
 25 30  1  0  0  0  0
 26  3  1  0  0  0  0
 27 21  1  0  0  0  0
 27 29  1  0  0  0  0
 28  2  2  0  0  0  0
 29  1  2  0  0  0  0
 29 23  1  0  0  0  0
 30 18  1  0  0  0  0
 31 36  1  1  0  0  0
 31 27  1  0  0  0  0
 32 33  2  0  0  0  0
 33 35  1  0  0  0  0
 33 31  1  0  0  0  0
 35 34  1  0  0  0  0
 36 37  1  0  0  0  0
M  END
>  <MODEL>
4

>  <REMARK>
 VINA RESULT:      -6.7      0.714      1.807
  Name = 
  4 active torsions:
  status: ('A' for Active; 'I' for Inactive)
    1  A    between atoms: C_11  and  C_26
    2  A    between atoms: C_17  and  C_23
    3  A    between atoms: C_17  and  C_26
    4  A    between atoms: C_26  and  N_33
                            x       y       z     vdW  Elec       q    Type
                         _______ _______ _______ _____ _____    ______ ____

>  <TORSDO>
F 4

$$$$
=
 OpenBabel10272414473D

 37 43  0  0  1  0  0  0  0  0999 V2000
  185.9960  175.8970  136.0870 C   0  0  0  0  0  3  0  0  0  0  0  0
  188.9490  176.6460  142.8390 C   0  0  0  0  0  3  0  0  0  0  0  0
  181.8690  178.5980  137.1640 C   0  0  0  0  0  2  0  0  0  0  0  0
  185.0690  179.2640  139.8000 O   0  0  0  0  0  0  0  0  0  0  0  0
  189.2000  177.1410  141.5540 C   0  0  0  0  0  0  0  0  0  0  0  0
  189.6880  178.3370  138.9720 C   0  0  0  0  0  2  0  0  0  0  0  0
  190.5260  177.1840  141.0690 C   0  0  0  0  0  0  0  0  0  0  0  0
  182.8220  178.4630  139.4600 C   0  0  2  0  0  3  0  0  0  0  0  0
  187.2690  178.5290  138.4850 C   0  0  0  0  0  2  0  0  0  0  0  0
  184.1690  178.8300  138.7770 C   0  0  2  0  0  3  0  0  0  0  0  0
  188.3270  177.6790  139.2270 C   0  0  1  0  0  0  0  0  0  0  0  0
  190.8430  177.6030  139.6610 C   0  0  0  0  0  2  0  0  0  0  0  0
  183.0320  177.5370  140.4980 O   0  0  0  0  0  0  0  0  0  0  0  0
  191.3100  176.2130  143.1500 C   0  0  0  0  0  3  0  0  0  0  0  0
  191.5690  176.7070  141.8680 C   0  0  0  0  0  3  0  0  0  0  0  0
  184.7810  177.6540  137.9700 C   0  0  1  0  0  3  0  0  0  0  0  0
  184.6080  176.3500  135.8670 C   0  0  0  0  0  3  0  0  0  0  0  0
  186.0120  178.7880  141.9310 C   0  0  0  0  0  3  0  0  0  0  0  0
  183.6510  178.2310  141.5560 C   0  0  0  0  0  2  0  0  0  0  0  0
  184.0130  177.2180  136.7020 C   0  0  0  0  0  0  0  0  0  0  0  0
  188.3580  176.2080  138.7630 C   0  0  0  0  0  2  0  0  0  0  0  0
  184.9710  178.7760  141.1070 C   0  0  0  0  0  0  0  0  0  0  0  0
  186.2640  177.8350  137.5490 C   0  0  2  0  0  3  0  0  0  0  0  0
  181.7310  177.9620  138.5280 C   0  0  0  0  0  2  0  0  0  0  0  0
  188.0540  177.6960  140.7510 C   0  0  2  0  0  3  0  0  0  0  0  0
  182.6410  177.6640  136.2530 C   0  0  0  0  0  2  0  0  0  0  0  0
  188.0470  176.0530  137.3460 N   0  0  0  0  0  0  0  0  0  0  0  0
  190.0000  176.1820  143.6340 C   0  0  0  0  0  3  0  0  0  0  0  0
  186.7890  176.5780  136.9220 C   0  0  0  0  0  0  0  0  0  0  0  0
  187.6230  179.3580  141.3960 S   0  0  0  0  0  0  0  0  0  0  0  0
  188.8590  175.2240  136.4450 C   0  0  2  0  0  3  0  0  0  0  0  0
  190.2350  173.5400  137.3460 O   0  0  0  0  0  0  0  0  0  0  0  0
  189.1190  173.8240  136.9410 C   0  0  0  0  0  0  0  0  0  0  0  0
  187.5020  172.5320  135.5740 C   0  0  0  0  0  1  0  0  0  0  0  0
  188.0380  172.7870  136.9710 C   0  0  0  0  0  2  0  0  0  0  0  0
  190.0920  175.9560  135.9120 C   0  0  0  0  0  2  0  0  0  0  0  0
  189.7330  177.1620  135.0620 C   0  0  0  0  0  1  0  0  0  0  0  0
  1 29  2  0  0  0  0
  2 28  1  0  0  0  0
  3 24  1  0  0  0  0
  4 22  1  0  0  0  0
  5  2  2  0  0  0  0
  6 11  1  0  0  0  0
  6 12  1  0  0  0  0
  7  5  1  0  0  0  0
  7 15  2  0  0  0  0
  8 24  1  6  0  0  0
  8 13  1  0  0  0  0
 10  8  1  0  0  0  0
 10  4  1  1  0  0  0
 11  9  1  6  0  0  0
 11 25  1  0  0  0  0
 12  7  1  0  0  0  0
 13 19  1  0  0  0  0
 14 28  2  0  0  0  0
 15 14  1  0  0  0  0
 16 20  1  6  0  0  0
 16 10  1  0  0  0  0
 17  1  1  0  0  0  0
 17 20  2  0  0  0  0
 21 11  1  0  0  0  0
 22 19  1  0  0  0  0
 22 18  2  0  0  0  0
 23 16  1  0  0  0  0
 23  9  1  1  0  0  0
 25 30  1  1  0  0  0
 25  5  1  0  0  0  0
 26 20  1  0  0  0  0
 26  3  1  0  0  0  0
 27 21  1  0  0  0  0
 29 27  1  0  0  0  0
 29 23  1  0  0  0  0
 30 18  1  0  0  0  0
 31 36  1  1  0  0  0
 31 33  1  0  0  0  0
 31 27  1  0  0  0  0
 33 35  1  0  0  0  0
 33 32  2  0  0  0  0
 34 35  1  0  0  0  0
 37 36  1  0  0  0  0
M  END
>  <MODEL>
5

>  <REMARK>
 VINA RESULT:      -6.6      2.289      4.981
  Name = 
  4 active torsions:
  status: ('A' for Active; 'I' for Inactive)
    1  A    between atoms: C_11  and  C_26
    2  A    between atoms: C_17  and  C_23
    3  A    between atoms: C_17  and  C_26
    4  A    between atoms: C_26  and  N_33
                            x       y       z     vdW  Elec       q    Type
                         _______ _______ _______ _____ _____    ______ ____

>  <TORSDO>
F 4

$$$$
=
 OpenBabel10272414473D

 37 43  0  0  1  0  0  0  0  0999 V2000
  192.4530  176.5280  138.4070 C   0  0  0  0  0  3  0  0  0  0  0  0
  186.1920  172.8460  136.9540 C   0  0  0  0  0  3  0  0  0  0  0  0
  195.1870  174.0130  134.9870 C   0  0  0  0  0  2  0  0  0  0  0  0
  191.0430  173.7740  134.3560 O   0  0  0  0  0  0  0  0  0  0  0  0
  186.6970  174.1320  136.7280 C   0  0  0  0  0  0  0  0  0  0  0  0
  187.7180  176.7520  136.0760 C   0  0  0  0  0  2  0  0  0  0  0  0
  185.8730  175.2560  136.9630 C   0  0  0  0  0  0  0  0  0  0  0  0
  193.1100  172.6470  134.8660 C   0  0  2  0  0  3  0  0  0  0  0  0
  189.9850  175.8710  135.6180 C   0  0  0  0  0  2  0  0  0  0  0  0
  192.3740  174.0130  134.8220 C   0  0  2  0  0  3  0  0  0  0  0  0
  188.7150  175.6580  136.4750 C   0  0  1  0  0  0  0  0  0  0  0  0
  186.3950  176.6600  136.8410 C   0  0  0  0  0  2  0  0  0  0  0  0
  192.3760  171.7140  135.6220 O   0  0  0  0  0  0  0  0  0  0  0  0
  184.0780  173.7830  137.6670 C   0  0  0  0  0  3  0  0  0  0  0  0
  184.5740  175.0710  137.4430 C   0  0  0  0  0  3  0  0  0  0  0  0
  192.3520  174.7370  136.1950 C   0  0  1  0  0  3  0  0  0  0  0  0
  193.7120  176.0510  137.8010 C   0  0  0  0  0  3  0  0  0  0  0  0
  189.0760  172.4590  134.5930 C   0  0  0  0  0  3  0  0  0  0  0  0
  191.2510  171.3510  134.8550 C   0  0  0  0  0  2  0  0  0  0  0  0
  193.7110  175.2460  136.7240 C   0  0  0  0  0  0  0  0  0  0  0  0
  188.9870  175.7210  137.9920 C   0  0  0  0  0  2  0  0  0  0  0  0
  190.4000  172.5550  134.5930 C   0  0  0  0  0  0  0  0  0  0  0  0
  191.3590  175.9250  136.3070 C   0  0  2  0  0  3  0  0  0  0  0  0
  194.5490  172.6940  135.3550 C   0  0  0  0  0  2  0  0  0  0  0  0
  188.0820  174.2810  136.1570 C   0  0  2  0  0  3  0  0  0  0  0  0
  195.0860  174.9610  136.1660 C   0  0  0  0  0  2  0  0  0  0  0  0
  190.0460  176.6620  138.3390 N   0  0  0  0  0  0  0  0  0  0  0  0
  184.8880  172.6720  137.4240 C   0  0  0  0  0  3  0  0  0  0  0  0
  191.3110  176.4370  137.7170 C   0  0  0  0  0  0  0  0  0  0  0  0
  188.0320  173.8960  134.3640 S   0  0  0  0  0  0  0  0  0  0  0  0
  189.9040  177.6470  139.4190 C   0  0  2  0  0  3  0  0  0  0  0  0
  190.5460  176.1640  141.1310 O   0  0  0  0  0  0  0  0  0  0  0  0
  189.7800  177.0540  140.8000 C   0  0  0  0  0  0  0  0  0  0  0  0
  188.5880  176.5640  142.9200 C   0  0  0  0  0  1  0  0  0  0  0  0
  188.7580  177.5490  141.7790 C   0  0  0  0  0  2  0  0  0  0  0  0
  188.8850  178.7410  139.0970 C   0  0  0  0  0  2  0  0  0  0  0  0
  189.1190  179.3740  137.7370 C   0  0  0  0  0  1  0  0  0  0  0  0
  2 28  1  0  0  0  0
  3 24  1  0  0  0  0
  3 26  1  0  0  0  0
  4 22  1  0  0  0  0
  5  2  2  0  0  0  0
  5  7  1  0  0  0  0
  6 11  1  0  0  0  0
  6 12  1  0  0  0  0
  7 15  2  0  0  0  0
  8 24  1  1  0  0  0
  8 13  1  0  0  0  0
 10  4  1  1  0  0  0
 10  8  1  0  0  0  0
 10 16  1  0  0  0  0
 11  9  1  6  0  0  0
 11 21  1  0  0  0  0
 12  7  1  0  0  0  0
 15 14  1  0  0  0  0
 16 23  1  0  0  0  0
 16 20  1  6  0  0  0
 17  1  1  0  0  0  0
 19 13  1  0  0  0  0
 20 17  2  0  0  0  0
 21 27  1  0  0  0  0
 22 18  2  0  0  0  0
 22 19  1  0  0  0  0
 23  9  1  1  0  0  0
 23 29  1  0  0  0  0
 25 30  1  6  0  0  0
 25 11  1  0  0  0  0
 25  5  1  0  0  0  0
 26 20  1  0  0  0  0
 27 31  1  0  0  0  0
 28 14  2  0  0  0  0
 29 27  1  0  0  0  0
 29  1  2  0  0  0  0
 30 18  1  0  0  0  0
 31 36  1  6  0  0  0
 31 33  1  0  0  0  0
 33 32  2  0  0  0  0
 33 35  1  0  0  0  0
 35 34  1  0  0  0  0
 37 36  1  0  0  0  0
M  END
>  <MODEL>
6

>  <REMARK>
 VINA RESULT:      -6.3      3.415      8.499
  Name = 
  4 active torsions:
  status: ('A' for Active; 'I' for Inactive)
    1  A    between atoms: C_11  and  C_26
    2  A    between atoms: C_17  and  C_23
    3  A    between atoms: C_17  and  C_26
    4  A    between atoms: C_26  and  N_33
                            x       y       z     vdW  Elec       q    Type
                         _______ _______ _______ _____ _____    ______ ____

>  <TORSDO>
F 4

$$$$
=
 OpenBabel10272414473D

 37 43  0  0  1  0  0  0  0  0999 V2000
  188.4890  178.0560  142.0970 C   0  0  0  0  0  3  0  0  0  0  0  0
  182.0520  175.6880  139.2990 C   0  0  0  0  0  3  0  0  0  0  0  0
  191.1690  176.8400  137.9950 C   0  0  0  0  0  2  0  0  0  0  0  0
  187.0440  177.1720  137.2900 O   0  0  0  0  0  0  0  0  0  0  0  0
  182.6490  176.9210  139.5870 C   0  0  0  0  0  0  0  0  0  0  0  0
  183.8650  179.5070  139.9970 C   0  0  0  0  0  2  0  0  0  0  0  0
  181.8950  177.9280  140.2290 C   0  0  0  0  0  0  0  0  0  0  0  0
  189.0120  175.7830  137.3430 C   0  0  2  0  0  3  0  0  0  0  0  0
  186.0830  178.7000  139.2520 C   0  0  0  0  0  2  0  0  0  0  0  0
  188.3690  177.1140  137.8220 C   0  0  2  0  0  3  0  0  0  0  0  0
  184.7720  178.2720  139.9530 C   0  0  1  0  0  0  0  0  0  0  0  0
  182.5120  179.2290  140.6590 C   0  0  0  0  0  2  0  0  0  0  0  0
  188.1900  174.6910  137.6790 O   0  0  0  0  0  0  0  0  0  0  0  0
  179.9820  176.4380  140.3020 C   0  0  0  0  0  3  0  0  0  0  0  0
  180.5690  177.6720  140.5920 C   0  0  0  0  0  3  0  0  0  0  0  0
  188.3480  177.2580  139.3670 C   0  0  1  0  0  3  0  0  0  0  0  0
  189.7340  177.7530  141.3640 C   0  0  0  0  0  3  0  0  0  0  0  0
  184.9860  176.0170  136.9900 C   0  0  0  0  0  3  0  0  0  0  0  0
  187.0720  174.7340  136.8230 C   0  0  0  0  0  2  0  0  0  0  0  0
  189.7180  177.4230  140.0610 C   0  0  0  0  0  0  0  0  0  0  0  0
  184.9940  177.7300  141.3800 C   0  0  0  0  0  2  0  0  0  0  0  0
  186.3130  176.0060  137.0370 C   0  0  0  0  0  0  0  0  0  0  0  0
  187.4330  178.3840  139.9200 C   0  0  2  0  0  3  0  0  0  0  0  0
  190.4320  175.5320  137.8230 C   0  0  0  0  0  2  0  0  0  0  0  0
  184.0600  177.1730  139.1270 C   0  0  2  0  0  3  0  0  0  0  0  0
  191.0900  177.2700  139.4460 C   0  0  0  0  0  2  0  0  0  0  0  0
  186.1000  178.3850  142.0690 N   0  0  0  0  0  0  0  0  0  0  0  0
  180.7240  175.4460  139.6570 C   0  0  0  0  0  3  0  0  0  0  0  0
  187.3690  178.3210  141.4170 C   0  0  0  0  0  0  0  0  0  0  0  0
  184.0490  177.5070  137.3230 S   0  0  0  0  0  0  0  0  0  0  0  0
  185.9860  178.8910  143.4430 C   0  0  2  0  0  3  0  0  0  0  0  0
  186.3990  176.7140  144.2410 O   0  0  0  0  0  0  0  0  0  0  0  0
  186.3820  177.9040  144.5130 C   0  0  0  0  0  0  0  0  0  0  0  0
  187.8720  177.4620  146.4460 C   0  0  0  0  0  1  0  0  0  0  0  0
  186.7770  178.3520  145.8870 C   0  0  0  0  0  2  0  0  0  0  0  0
  184.6670  179.6210  143.7010 C   0  0  0  0  0  2  0  0  0  0  0  0
  183.6600  178.7630  144.4460 C   0  0  0  0  0  1  0  0  0  0  0  0
  2  5  2  0  0  0  0
  2 28  1  0  0  0  0
  3 26  1  0  0  0  0
  5  7  1  0  0  0  0
  6 12  1  0  0  0  0
  7 15  2  0  0  0  0
  7 12  1  0  0  0  0
  8 13  1  0  0  0  0
  8 10  1  0  0  0  0
  8 24  1  1  0  0  0
 10  4  1  1  0  0  0
 10 16  1  0  0  0  0
 11  9  1  6  0  0  0
 11  6  1  0  0  0  0
 11 21  1  0  0  0  0
 14 15  1  0  0  0  0
 16 23  1  0  0  0  0
 16 20  1  6  0  0  0
 17  1  1  0  0  0  0
 18 22  2  0  0  0  0
 18 30  1  0  0  0  0
 19 22  1  0  0  0  0
 19 13  1  0  0  0  0
 20 17  2  0  0  0  0
 21 27  1  0  0  0  0
 22  4  1  0  0  0  0
 23  9  1  6  0  0  0
 23 29  1  0  0  0  0
 24  3  1  0  0  0  0
 25 30  1  6  0  0  0
 25  5  1  0  0  0  0
 25 11  1  0  0  0  0
 26 20  1  0  0  0  0
 27 31  1  0  0  0  0
 28 14  2  0  0  0  0
 29 27  1  0  0  0  0
 29  1  2  0  0  0  0
 31 36  1  1  0  0  0
 31 33  1  0  0  0  0
 32 33  2  0  0  0  0
 33 35  1  0  0  0  0
 35 34  1  0  0  0  0
 36 37  1  0  0  0  0
M  END
>  <MODEL>
7

>  <REMARK>
 VINA RESULT:      -6.3      2.331      7.420
  Name = 
  4 active torsions:
  status: ('A' for Active; 'I' for Inactive)
    1  A    between atoms: C_11  and  C_26
    2  A    between atoms: C_17  and  C_23
    3  A    between atoms: C_17  and  C_26
    4  A    between atoms: C_26  and  N_33
                            x       y       z     vdW  Elec       q    Type
                         _______ _______ _______ _____ _____    ______ ____

>  <TORSDO>
F 4

$$$$
=
 OpenBabel10272414473D

 37 43  0  0  1  0  0  0  0  0999 V2000
  184.2110  177.7580  139.0360 C   0  0  0  0  0  3  0  0  0  0  0  0
  190.8520  174.6830  137.8910 C   0  0  0  0  0  3  0  0  0  0  0  0
  185.2360  179.1460  143.7800 C   0  0  0  0  0  2  0  0  0  0  0  0
  188.6500  178.3590  141.4670 O   0  0  0  0  0  0  0  0  0  0  0  0
  190.1730  175.8340  137.4730 C   0  0  0  0  0  0  0  0  0  0  0  0
  188.9120  178.3100  136.6910 C   0  0  0  0  0  2  0  0  0  0  0  0
  190.2170  176.2140  136.1130 C   0  0  0  0  0  0  0  0  0  0  0  0
  187.2720  177.7790  143.3560 C   0  0  2  0  0  3  0  0  0  0  0  0
  187.8910  178.6190  138.9250 C   0  0  0  0  0  2  0  0  0  0  0  0
  187.3370  178.5380  142.0030 C   0  0  2  0  0  3  0  0  0  0  0  0
  188.3500  177.5540  137.9010 C   0  0  1  0  0  0  0  0  0  0  0  0
  189.4210  177.3760  135.5890 C   0  0  0  0  0  2  0  0  0  0  0  0
  187.6670  176.4380  143.1890 O   0  0  0  0  0  0  0  0  0  0  0  0
  191.5890  174.2740  135.6230 C   0  0  0  0  0  3  0  0  0  0  0  0
  190.9150  175.4220  135.1970 C   0  0  0  0  0  3  0  0  0  0  0  0
  186.2610  178.0650  140.9880 C   0  0  1  0  0  3  0  0  0  0  0  0
  183.8530  178.1820  140.4040 C   0  0  0  0  0  3  0  0  0  0  0  0
  190.3730  176.8050  140.9430 C   0  0  0  0  0  3  0  0  0  0  0  0
  189.0610  176.4380  142.9850 C   0  0  0  0  0  2  0  0  0  0  0  0
  184.7930  178.3880  141.3420 C   0  0  0  0  0  0  0  0  0  0  0  0
  187.2130  176.6120  137.4520 C   0  0  0  0  0  2  0  0  0  0  0  0
  189.3970  177.2100  141.7470 C   0  0  0  0  0  0  0  0  0  0  0  0
  186.4770  178.5300  139.5230 C   0  0  2  0  0  3  0  0  0  0  0  0
  185.9360  177.8410  144.0790 C   0  0  0  0  0  2  0  0  0  0  0  0
  189.4820  176.6870  138.5040 C   0  0  2  0  0  3  0  0  0  0  0  0
  184.2550  178.9380  142.6440 C   0  0  0  0  0  2  0  0  0  0  0  0
  185.9150  177.2760  137.4000 N   0  0  0  0  0  0  0  0  0  0  0  0
  191.5560  173.9050  136.9700 C   0  0  0  0  0  3  0  0  0  0  0  0
  185.4740  177.8820  138.6140 C   0  0  0  0  0  0  0  0  0  0  0  0
  190.7420  177.6610  139.4130 S   0  0  0  0  0  0  0  0  0  0  0  0
  185.0110  177.1510  136.2490 C   0  0  2  0  0  3  0  0  0  0  0  0
  184.1580  175.0600  136.9170 O   0  0  0  0  0  0  0  0  0  0  0  0
  183.8990  176.1480  136.4280 C   0  0  0  0  0  0  0  0  0  0  0  0
  182.2850  177.9650  135.9310 C   0  0  0  0  0  1  0  0  0  0  0  0
  182.4850  176.4650  136.0440 C   0  0  0  0  0  2  0  0  0  0  0  0
  185.7530  177.0540  134.9150 C   0  0  0  0  0  2  0  0  0  0  0  0
  186.1160  178.4150  134.3500 C   0  0  0  0  0  1  0  0  0  0  0  0
  1 17  1  0  0  0  0
  3 24  1  0  0  0  0
  4 22  1  0  0  0  0
  5  2  1  0  0  0  0
  7  5  2  0  0  0  0
  8 24  1  6  0  0  0
 10  4  1  6  0  0  0
 10  8  1  0  0  0  0
 11  6  1  6  0  0  0
 11 25  1  0  0  0  0
 11  9  1  0  0  0  0
 12  7  1  0  0  0  0
 12  6  1  0  0  0  0
 13  8  1  0  0  0  0
 14 28  1  0  0  0  0
 15 14  2  0  0  0  0
 15  7  1  0  0  0  0
 16 20  1  1  0  0  0
 16 10  1  0  0  0  0
 17 20  2  0  0  0  0
 18 22  2  0  0  0  0
 19 13  1  0  0  0  0
 20 26  1  0  0  0  0
 21 11  1  0  0  0  0
 22 19  1  0  0  0  0
 23  9  1  6  0  0  0
 23 16  1  0  0  0  0
 25  5  1  6  0  0  0
 25 30  1  0  0  0  0
 26  3  1  0  0  0  0
 27 21  1  0  0  0  0
 27 29  1  0  0  0  0
 28  2  2  0  0  0  0
 29  1  2  0  0  0  0
 29 23  1  0  0  0  0
 30 18  1  0  0  0  0
 31 36  1  6  0  0  0
 31 33  1  0  0  0  0
 31 27  1  0  0  0  0
 33 32  2  0  0  0  0
 34 35  1  0  0  0  0
 35 33  1  0  0  0  0
 37 36  1  0  0  0  0
M  END
>  <MODEL>
8

>  <REMARK>
 VINA RESULT:      -6.2      1.510      2.102
  Name = 
  4 active torsions:
  status: ('A' for Active; 'I' for Inactive)
    1  A    between atoms: C_11  and  C_26
    2  A    between atoms: C_17  and  C_23
    3  A    between atoms: C_17  and  C_26
    4  A    between atoms: C_26  and  N_33
                            x       y       z     vdW  Elec       q    Type
                         _______ _______ _______ _____ _____    ______ ____

>  <TORSDO>
F 4

$$$$
=
 OpenBabel10272414473D

 37 43  0  0  1  0  0  0  0  0999 V2000
  191.1130  177.2790  139.9720 C   0  0  0  0  0  3  0  0  0  0  0  0
  184.8290  174.7250  136.9950 C   0  0  0  0  0  3  0  0  0  0  0  0
  194.0170  175.7310  136.1440 C   0  0  0  0  0  2  0  0  0  0  0  0
  189.9430  176.0230  135.1730 O   0  0  0  0  0  0  0  0  0  0  0  0
  185.4200  175.9740  137.2190 C   0  0  0  0  0  0  0  0  0  0  0  0
  186.6330  178.5790  137.4950 C   0  0  0  0  0  2  0  0  0  0  0  0
  184.6380  177.0320  137.7340 C   0  0  0  0  0  0  0  0  0  0  0  0
  191.8920  174.6350  135.4510 C   0  0  2  0  0  3  0  0  0  0  0  0
  188.8830  177.7070  136.9480 C   0  0  0  0  0  2  0  0  0  0  0  0
  191.2350  176.0020  135.7850 C   0  0  2  0  0  3  0  0  0  0  0  0
  187.5290  177.3410  137.6020 C   0  0  1  0  0  0  0  0  0  0  0  0
  185.2410  178.3610  138.0960 C   0  0  0  0  0  2  0  0  0  0  0  0
  191.0420  173.5760  135.8230 O   0  0  0  0  0  0  0  0  0  0  0  0
  182.7110  175.5600  137.8120 C   0  0  0  0  0  3  0  0  0  0  0  0
  183.2910  176.8120  138.0380 C   0  0  0  0  0  3  0  0  0  0  0  0
  191.1240  176.2680  137.3100 C   0  0  1  0  0  3  0  0  0  0  0  0
  192.3960  176.9140  139.3390 C   0  0  0  0  0  3  0  0  0  0  0  0
  187.8960  174.8570  134.8440 C   0  0  0  0  0  3  0  0  0  0  0  0
  189.9760  173.5560  134.9030 C   0  0  0  0  0  2  0  0  0  0  0  0
  192.4530  176.4820  138.0680 C   0  0  0  0  0  0  0  0  0  0  0  0
  187.6630  176.9130  139.0780 C   0  0  0  0  0  2  0  0  0  0  0  0
  189.2180  174.8440  134.9700 C   0  0  0  0  0  0  0  0  0  0  0  0
  190.1890  177.4390  137.7170 C   0  0  2  0  0  3  0  0  0  0  0  0
  193.2790  174.4160  136.0330 C   0  0  0  0  0  2  0  0  0  0  0  0
  186.8580  176.1830  136.8250 C   0  0  2  0  0  3  0  0  0  0  0  0
  193.8570  176.2750  137.5500 C   0  0  0  0  0  2  0  0  0  0  0  0
  188.7330  177.6160  139.7770 N   0  0  0  0  0  0  0  0  0  0  0  0
  183.4800  174.5170  137.2910 C   0  0  0  0  0  3  0  0  0  0  0  0
  190.0370  177.4950  139.2080 C   0  0  0  0  0  0  0  0  0  0  0  0
  186.9540  176.3730  135.0030 S   0  0  0  0  0  0  0  0  0  0  0  0
  188.5430  178.2290  141.0980 C   0  0  2  0  0  3  0  0  0  0  0  0
  188.8480  176.2150  142.2780 O   0  0  0  0  0  0  0  0  0  0  0  0
  189.0690  177.4150  142.2530 C   0  0  0  0  0  0  0  0  0  0  0  0
  189.3410  177.6240  144.7100 C   0  0  0  0  0  1  0  0  0  0  0  0
  189.8750  178.0390  143.3520 C   0  0  0  0  0  2  0  0  0  0  0  0
  187.1340  178.7890  141.2980 C   0  0  0  0  0  2  0  0  0  0  0  0
  186.3870  178.1020  142.4270 C   0  0  0  0  0  1  0  0  0  0  0  0
  2  5  2  0  0  0  0
  2 28  1  0  0  0  0
  3 26  1  0  0  0  0
  5  7  1  0  0  0  0
  6 11  1  0  0  0  0
  6 12  1  0  0  0  0
  7 15  2  0  0  0  0
  7 12  1  0  0  0  0
  8 10  1  0  0  0  0
  8 13  1  0  0  0  0
  8 24  1  1  0  0  0
 10  4  1  1  0  0  0
 10 16  1  0  0  0  0
 11  9  1  6  0  0  0
 11 21  1  0  0  0  0
 14 15  1  0  0  0  0
 16 23  1  0  0  0  0
 16 20  1  6  0  0  0
 17  1  1  0  0  0  0
 18 22  2  0  0  0  0
 18 30  1  0  0  0  0
 19 22  1  0  0  0  0
 19 13  1  0  0  0  0
 20 17  2  0  0  0  0
 21 27  1  0  0  0  0
 22  4  1  0  0  0  0
 23  9  1  6  0  0  0
 23 29  1  0  0  0  0
 24  3  1  0  0  0  0
 25 30  1  6  0  0  0
 25  5  1  0  0  0  0
 25 11  1  0  0  0  0
 26 20  1  0  0  0  0
 27 31  1  0  0  0  0
 28 14  2  0  0  0  0
 29 27  1  0  0  0  0
 29  1  2  0  0  0  0
 31 36  1  1  0  0  0
 31 33  1  0  0  0  0
 33 32  2  0  0  0  0
 33 35  1  0  0  0  0
 35 34  1  0  0  0  0
 36 37  1  0  0  0  0
M  END
>  <MODEL>
9

>  <REMARK>
 VINA RESULT:      -6.1      2.634      7.727
  Name = 
  4 active torsions:
  status: ('A' for Active; 'I' for Inactive)
    1  A    between atoms: C_11  and  C_26
    2  A    between atoms: C_17  and  C_23
    3  A    between atoms: C_17  and  C_26
    4  A    between atoms: C_26  and  N_33
                            x       y       z     vdW  Elec       q    Type
                         _______ _______ _______ _____ _____    ______ ____

>  <TORSDO>
F 4

$$$$
