=
 OpenBabel10272401263D

 55 59  0  0  1  0  0  0  0  0999 V2000
  186.8980  178.0860  137.5710 C   0  0  0  0  0  3  0  0  0  0  0  0
  183.6050  177.6560  141.5590 C   0  0  0  0  0  2  0  0  0  0  0  0
  183.0640  176.1260  139.2440 O   0  0  0  0  0  0  0  0  0  0  0  0
  181.0790  177.1870  136.0420 C   0  0  0  0  0  2  0  0  0  0  0  0
  179.9820  176.2170  135.6250 C   0  0  0  0  0  2  0  0  0  0  0  0
  182.7160  175.4130  135.2900 C   0  0  0  0  0  0  0  0  0  0  0  0
  181.8010  174.9340  134.4390 C   0  0  0  0  0  3  0  0  0  0  0  0
  183.2510  178.0310  137.9390 O   0  0  0  0  0  0  0  0  0  0  0  0
  180.4040  175.4890  134.3470 C   0  0  0  0  0  2  0  0  0  0  0  0
  189.0590  177.2380  138.3780 C   0  0  0  0  0  2  0  0  0  0  0  0
  182.3500  176.3980  136.3740 C   0  0  1  0  0  3  0  0  0  0  0  0
  188.3410  178.5510  140.8710 C   0  0  1  0  0  3  0  0  0  0  0  0
  185.8860  177.3630  137.1720 C   0  0  0  0  0  0  0  0  0  0  0  0
  187.7770  178.8920  139.6120 O   0  0  0  0  0  0  0  0  0  0  0  0
  185.0900  175.3910  135.9440 C   0  0  0  0  0  0  0  0  0  0  0  0
  183.9250  178.6920  142.4430 O   0  0  0  0  0  0  0  0  0  0  0  0
  184.0640  174.8460  135.2730 C   0  0  0  0  0  3  0  0  0  0  0  0
  182.8090  178.2090  140.3860 C   0  0  0  0  0  2  0  0  0  0  0  0
  183.0560  177.3840  139.1690 C   0  0  0  0  0  0  0  0  0  0  0  0
  190.1430  177.6550  139.3650 C   0  0  0  0  0  2  0  0  0  0  0  0
  185.1630  178.3170  142.9770 C   0  0  1  0  0  3  0  0  0  0  0  0
  187.6720  177.7440  138.7960 C   0  0  1  0  0  3  0  0  0  0  0  0
  183.5100  177.3410  136.7110 C   0  0  2  0  0  3  0  0  0  0  0  0
  184.8710  176.6610  136.7240 C   0  0  0  0  0  0  0  0  0  0  0  0
  186.2810  178.9890  142.2000 C   0  0  0  0  0  2  0  0  0  0  0  0
  187.3100  177.9400  141.8090 C   0  0  0  0  0  2  0  0  0  0  0  0
  189.5890  177.6550  140.7810 C   0  0  0  0  0  2  0  0  0  0  0  0
  187.2990  175.0430  134.7940 C   0  0  0  0  0  3  0  0  0  0  0  0
  188.9820  173.5130  135.6600 C   0  0  0  0  0  0  0  0  0  0  0  0
  186.8440  173.7790  136.7940 C   0  0  0  0  0  3  0  0  0  0  0  0
  188.1070  173.1840  136.7080 C   0  0  0  0  0  3  0  0  0  0  0  0
  188.5650  174.4510  134.7050 C   0  0  0  0  0  3  0  0  0  0  0  0
  186.4150  174.7070  135.8320 C   0  0  0  0  0  0  0  0  0  0  0  0
  190.2890  172.9120  135.5790 N   0  0  0  0  0  0  0  0  0  0  0  0
  191.3870  173.3860  136.4250 C   0  0  0  0  0  1  0  0  0  0  0  0
  190.5760  171.8420  134.6310 C   0  0  0  0  0  1  0  0  0  0  0  0
  184.8650  180.0980  144.7590 C   0  0  0  0  0  1  0  0  0  0  0  0
  185.2770  178.6610  144.4630 C   0  0  2  0  0  3  0  0  0  0  0  0
  186.5260  178.2740  145.0540 O   0  0  0  0  0  0  0  0  0  0  0  0
  186.7480  177.9940  146.4200 C   0  0  0  0  0  0  0  0  0  0  0  0
  185.8840  178.3690  147.2550 O   0  0  0  0  0  0  0  0  0  0  0  0
  187.9790  177.2650  146.8940 C   0  0  2  0  0  3  0  0  0  0  0  0
  187.7240  176.4250  148.1320 C   0  0  0  0  0  1  0  0  0  0  0  0
  189.2690  178.1080  146.9690 C   0  0  1  0  0  3  0  0  0  0  0  0
  189.6510  178.3270  148.4060 C   0  0  0  0  0  0  0  0  0  0  0  0
  188.7500  178.4910  149.2740 O   0  0  0  0  0  1  0  0  0  0  0  0
  190.9900  178.3520  148.7960 O   0  0  0  0  0  0  0  0  0  0  0  0
  190.4730  177.6390  146.1150 C   0  0  2  0  0  3  0  0  0  0  0  0
  190.1000  177.6280  144.6240 C   0  0  1  0  0  3  0  0  0  0  0  0
  190.4360  178.8340  144.0170 O   0  0  0  0  0  1  0  0  0  0  0  0
  190.7480  176.4720  143.8750 C   0  0  0  0  0  2  0  0  0  0  0  0
  191.9600  176.8880  143.3050 O   0  0  0  0  0  1  0  0  0  0  0  0
  191.0600  176.2890  146.5420 C   0  0  0  0  0  2  0  0  0  0  0  0
  192.4810  175.3980  147.8840 O   0  0  0  0  0  1  0  0  0  0  0  0
  192.2970  176.4900  147.1710 O   0  0  0  0  0  0  0  0  0  0  0  0
  2 16  1  0  0  0  0
  5  4  1  0  0  0  0
  6 11  1  0  0  0  0
  7  6  2  0  0  0  0
  8 19  1  0  0  0  0
  9  7  1  0  0  0  0
  9  5  1  0  0  0  0
 10 22  1  0  0  0  0
 10 20  1  0  0  0  0
 11  4  1  6  0  0  0
 11 23  1  0  0  0  0
 12 27  1  6  0  0  0
 12 26  1  0  0  0  0
 13  1  2  0  0  0  0
 14 12  1  0  0  0  0
 15 24  1  0  0  0  0
 16 21  1  0  0  0  0
 17  6  1  0  0  0  0
 17 15  2  0  0  0  0
 18  2  1  0  0  0  0
 19  3  2  0  0  0  0
 19 18  1  0  0  0  0
 20 27  1  0  0  0  0
 21 38  1  1  0  0  0
 22  1  1  6  0  0  0
 22 14  1  0  0  0  0
 23 24  1  1  0  0  0
 23  8  1  0  0  0  0
 24 13  2  0  0  0  0
 25 21  1  0  0  0  0
 26 25  1  0  0  0  0
 28 33  1  0  0  0  0
 29 31  2  0  0  0  0
 31 30  1  0  0  0  0
 32 28  2  0  0  0  0
 32 29  1  0  0  0  0
 33 15  1  0  0  0  0
 33 30  2  0  0  0  0
 34 29  1  0  0  0  0
 34 35  1  0  0  0  0
 36 34  1  0  0  0  0
 38 37  1  6  0  0  0
 38 39  1  0  0  0  0
 39 40  1  0  0  0  0
 40 42  1  0  0  0  0
 40 41  2  0  0  0  0
 42 44  1  0  0  0  0
 42 43  1  1  0  0  0
 44 45  1  1  0  0  0
 45 47  2  0  0  0  0
 45 46  1  0  0  0  0
 48 53  1  1  0  0  0
 48 44  1  0  0  0  0
 49 50  1  6  0  0  0
 49 48  1  0  0  0  0
 51 49  1  0  0  0  0
 52 51  1  0  0  0  0
 53 55  1  0  0  0  0
 55 54  1  0  0  0  0
M  END
>  <MODEL>
1

>  <REMARK>
 VINA RESULT:      -7.2      0.000      0.000
  Name = 
  13 active torsions:
  status: ('A' for Active; 'I' for Inactive)
    1  A    between atoms: C_1  and  C_53
    2  A    between atoms: C_3  and  O_14
    3  A    between atoms: C_3  and  C_38
    4  A    between atoms: C_6  and  C_20
    5  A    between atoms: C_6  and  C_53
    6  A    between atoms: C_8  and  O_22
    7  A    between atoms: C_8  and  C_43
    8  A    between atoms: N_10  and  C_32
    9  A    between atoms: C_11  and  C_29
   10  A    between atoms: C_20  and  O_22
   11  A    between atoms: C_29  and  C_38
   12  A    between atoms: C_33  and  C_52
   13  A    between atoms: C_38  and  C_53
                            x       y       z     vdW  Elec       q    Type
                         _______ _______ _______ _____ _____    ______ ____

>  <TORSDO>
F 13

$$$$
=
 OpenBabel10272401263D

 55 59  0  0  1  0  0  0  0  0999 V2000
  186.2390  177.1300  136.5540 C   0  0  0  0  0  3  0  0  0  0  0  0
  188.0900  178.1110  141.3020 C   0  0  0  0  0  2  0  0  0  0  0  0
  185.3520  177.4450  141.0760 O   0  0  0  0  0  0  0  0  0  0  0  0
  182.3260  179.8200  140.3560 C   0  0  0  0  0  2  0  0  0  0  0  0
  181.1660  179.6860  141.3340 C   0  0  0  0  0  2  0  0  0  0  0  0
  181.6480  177.5470  139.4840 C   0  0  0  0  0  0  0  0  0  0  0  0
  180.3920  177.7680  139.8900 C   0  0  0  0  0  3  0  0  0  0  0  0
  185.0880  179.0680  139.4450 O   0  0  0  0  0  0  0  0  0  0  0  0
  179.9840  179.0130  140.6340 C   0  0  0  0  0  2  0  0  0  0  0  0
  187.4260  175.1300  135.7600 C   0  0  0  0  0  2  0  0  0  0  0  0
  182.7920  178.4240  139.9320 C   0  0  1  0  0  3  0  0  0  0  0  0
  189.7320  176.2970  137.0930 C   0  0  1  0  0  3  0  0  0  0  0  0
  185.2250  177.1490  137.3770 C   0  0  0  0  0  0  0  0  0  0  0  0
  188.5980  177.0480  136.6820 O   0  0  0  0  0  0  0  0  0  0  0  0
  183.1170  176.1250  138.1090 C   0  0  0  0  0  0  0  0  0  0  0  0
  189.3570  178.6740  141.1180 O   0  0  0  0  0  0  0  0  0  0  0  0
  181.9410  176.3320  138.7230 C   0  0  0  0  0  3  0  0  0  0  0  0
  187.0190  179.1550  141.0200 C   0  0  0  0  0  2  0  0  0  0  0  0
  185.7800  178.4920  140.5210 C   0  0  0  0  0  0  0  0  0  0  0  0
  188.8370  174.7460  135.3290 C   0  0  0  0  0  2  0  0  0  0  0  0
  190.1410  177.6100  140.6560 C   0  0  1  0  0  3  0  0  0  0  0  0
  187.4270  176.2650  136.7920 C   0  0  1  0  0  3  0  0  0  0  0  0
  183.8990  178.5100  138.8750 C   0  0  2  0  0  3  0  0  0  0  0  0
  184.1780  177.1930  138.1670 C   0  0  0  0  0  0  0  0  0  0  0  0
  190.1990  177.6370  139.1400 C   0  0  0  0  0  2  0  0  0  0  0  0
  189.8660  176.2510  138.6080 C   0  0  0  0  0  2  0  0  0  0  0  0
  189.7960  174.8780  136.5010 C   0  0  0  0  0  2  0  0  0  0  0  0
  184.3580  173.9890  137.6430 C   0  0  0  0  0  3  0  0  0  0  0  0
  183.5430  172.3410  136.0470 C   0  0  0  0  0  0  0  0  0  0  0  0
  182.3210  174.4120  136.4280 C   0  0  0  0  0  3  0  0  0  0  0  0
  182.4520  173.1830  135.7740 C   0  0  0  0  0  3  0  0  0  0  0  0
  184.4930  172.7560  136.9910 C   0  0  0  0  0  3  0  0  0  0  0  0
  183.2770  174.8400  137.3620 C   0  0  0  0  0  0  0  0  0  0  0  0
  183.6710  171.0680  135.3850 N   0  0  0  0  0  0  0  0  0  0  0  0
  182.6010  170.0710  135.4600 C   0  0  0  0  0  1  0  0  0  0  0  0
  184.8800  170.7130  134.6490 C   0  0  0  0  0  1  0  0  0  0  0  0
  192.6280  177.5830  140.1540 C   0  0  0  0  0  1  0  0  0  0  0  0
  191.5560  177.6440  141.2360 C   0  0  2  0  0  3  0  0  0  0  0  0
  191.7610  176.7250  142.3180 O   0  0  0  0  0  0  0  0  0  0  0  0
  190.8050  176.3600  143.2910 C   0  0  0  0  0  0  0  0  0  0  0  0
  190.3100  175.2030  143.2380 O   0  0  0  0  0  0  0  0  0  0  0  0
  190.3680  177.3100  144.3750 C   0  0  2  0  0  3  0  0  0  0  0  0
  191.3350  178.4640  144.5700 C   0  0  0  0  0  1  0  0  0  0  0  0
  189.9070  176.6550  145.6940 C   0  0  1  0  0  3  0  0  0  0  0  0
  191.0650  176.5640  146.6480 C   0  0  0  0  0  0  0  0  0  0  0  0
  191.0230  177.1900  147.7420 O   0  0  0  0  0  1  0  0  0  0  0  0
  192.1880  175.7950  146.3410 O   0  0  0  0  0  0  0  0  0  0  0  0
  188.6430  177.2390  146.3720 C   0  0  2  0  0  3  0  0  0  0  0  0
  187.6700  177.7820  145.3140 C   0  0  1  0  0  3  0  0  0  0  0  0
  187.2770  176.7770  144.4350 O   0  0  0  0  0  1  0  0  0  0  0  0
  186.4430  178.4350  145.9360 C   0  0  0  0  0  2  0  0  0  0  0  0
  185.2830  177.7540  145.5380 O   0  0  0  0  0  1  0  0  0  0  0  0
  188.9340  178.2990  147.4410 C   0  0  0  0  0  2  0  0  0  0  0  0
  188.1140  178.0250  149.4070 O   0  0  0  0  0  1  0  0  0  0  0  0
  187.7910  178.5050  148.2250 O   0  0  0  0  0  0  0  0  0  0  0  0
  1 22  1  0  0  0  0
  1 13  2  0  0  0  0
  4  5  1  0  0  0  0
  6  7  2  0  0  0  0
  6 11  1  0  0  0  0
  7  9  1  0  0  0  0
  8 19  1  0  0  0  0
  9  5  1  0  0  0  0
 11  4  1  6  0  0  0
 12 27  1  1  0  0  0
 12 26  1  0  0  0  0
 13 24  2  0  0  0  0
 14 22  1  0  0  0  0
 14 12  1  0  0  0  0
 15 24  1  0  0  0  0
 15 17  2  0  0  0  0
 16  2  1  0  0  0  0
 17  6  1  0  0  0  0
 18  2  1  0  0  0  0
 19 18  1  0  0  0  0
 19  3  2  0  0  0  0
 20 10  1  0  0  0  0
 20 27  1  0  0  0  0
 21 16  1  0  0  0  0
 21 38  1  1  0  0  0
 22 10  1  6  0  0  0
 23 24  1  1  0  0  0
 23  8  1  0  0  0  0
 23 11  1  0  0  0  0
 25 21  1  0  0  0  0
 26 25  1  0  0  0  0
 29 32  1  0  0  0  0
 30 33  2  0  0  0  0
 31 29  2  0  0  0  0
 31 30  1  0  0  0  0
 32 28  2  0  0  0  0
 33 28  1  0  0  0  0
 33 15  1  0  0  0  0
 34 35  1  0  0  0  0
 34 29  1  0  0  0  0
 36 34  1  0  0  0  0
 38 37  1  6  0  0  0
 38 39  1  0  0  0  0
 39 40  1  0  0  0  0
 40 42  1  0  0  0  0
 41 40  2  0  0  0  0
 42 43  1  1  0  0  0
 42 44  1  0  0  0  0
 44 48  1  0  0  0  0
 44 45  1  1  0  0  0
 45 46  1  0  0  0  0
 47 45  2  0  0  0  0
 48 53  1  1  0  0  0
 49 50  1  6  0  0  0
 49 51  1  0  0  0  0
 49 48  1  0  0  0  0
 52 51  1  0  0  0  0
 53 55  1  0  0  0  0
 55 54  1  0  0  0  0
M  END
>  <MODEL>
2

>  <REMARK>
 VINA RESULT:      -6.6      2.106      4.916
  Name = 
  13 active torsions:
  status: ('A' for Active; 'I' for Inactive)
    1  A    between atoms: C_1  and  C_53
    2  A    between atoms: C_3  and  O_14
    3  A    between atoms: C_3  and  C_38
    4  A    between atoms: C_6  and  C_20
    5  A    between atoms: C_6  and  C_53
    6  A    between atoms: C_8  and  O_22
    7  A    between atoms: C_8  and  C_43
    8  A    between atoms: N_10  and  C_32
    9  A    between atoms: C_11  and  C_29
   10  A    between atoms: C_20  and  O_22
   11  A    between atoms: C_29  and  C_38
   12  A    between atoms: C_33  and  C_52
   13  A    between atoms: C_38  and  C_53
                            x       y       z     vdW  Elec       q    Type
                         _______ _______ _______ _____ _____    ______ ____

>  <TORSDO>
F 13

$$$$
=
 OpenBabel10272401263D

 55 59  0  0  1  0  0  0  0  0999 V2000
  187.1040  179.4710  140.9230 C   0  0  0  0  0  3  0  0  0  0  0  0
  190.1280  175.4060  139.8030 C   0  0  0  0  0  2  0  0  0  0  0  0
  189.2420  175.6820  142.4740 O   0  0  0  0  0  0  0  0  0  0  0  0
  190.8760  177.7430  145.3720 C   0  0  0  0  0  2  0  0  0  0  0  0
  191.0880  176.9640  146.6630 C   0  0  0  0  0  2  0  0  0  0  0  0
  188.4060  177.6360  145.9010 C   0  0  0  0  0  0  0  0  0  0  0  0
  188.6920  177.5340  147.2040 C   0  0  0  0  0  3  0  0  0  0  0  0
  190.0000  177.8700  142.5010 O   0  0  0  0  0  0  0  0  0  0  0  0
  190.1030  177.4570  147.7250 C   0  0  0  0  0  2  0  0  0  0  0  0
  185.0430  179.1670  139.6200 C   0  0  0  0  0  2  0  0  0  0  0  0
  189.4670  177.4620  144.8410 C   0  0  1  0  0  3  0  0  0  0  0  0
  186.8190  178.1730  137.5440 C   0  0  1  0  0  3  0  0  0  0  0  0
  187.4000  178.8770  142.0480 C   0  0  0  0  0  0  0  0  0  0  0  0
  187.2460  179.0110  138.6090 O   0  0  0  0  0  0  0  0  0  0  0  0
  186.6410  178.0610  144.2350 C   0  0  0  0  0  0  0  0  0  0  0  0
  190.6450  175.6440  138.5250 O   0  0  0  0  0  0  0  0  0  0  0  0
  187.0070  177.7570  145.4910 C   0  0  0  0  0  3  0  0  0  0  0  0
  190.8780  176.2460  140.8260 C   0  0  0  0  0  2  0  0  0  0  0  0
  189.9820  176.5700  141.9740 C   0  0  0  0  0  0  0  0  0  0  0  0
  184.6110  179.2020  138.1590 C   0  0  0  0  0  2  0  0  0  0  0  0
  189.5430  175.4980  137.6760 C   0  0  1  0  0  3  0  0  0  0  0  0
  186.5050  178.7310  139.7790 C   0  0  1  0  0  3  0  0  0  0  0  0
  189.1730  178.2970  143.5900 C   0  0  2  0  0  3  0  0  0  0  0  0
  187.7030  178.3290  143.2010 C   0  0  0  0  0  0  0  0  0  0  0  0
  188.9290  176.8570  137.3940 C   0  0  0  0  0  2  0  0  0  0  0  0
  187.4290  176.7810  137.6360 C   0  0  0  0  0  2  0  0  0  0  0  0
  185.2920  178.0850  137.3850 C   0  0  0  0  0  2  0  0  0  0  0  0
  184.3030  178.6650  144.9370 C   0  0  0  0  0  3  0  0  0  0  0  0
  182.4050  178.4610  143.4270 C   0  0  0  0  0  0  0  0  0  0  0  0
  184.6400  177.8220  142.7060 C   0  0  0  0  0  3  0  0  0  0  0  0
  183.2750  177.9660  142.4420 C   0  0  0  0  0  3  0  0  0  0  0  0
  182.9350  178.8120  144.6770 C   0  0  0  0  0  3  0  0  0  0  0  0
  185.1740  178.1570  143.9600 C   0  0  0  0  0  0  0  0  0  0  0  0
  181.0010  178.6240  143.1510 N   0  0  0  0  0  0  0  0  0  0  0  0
  180.5470  179.3450  141.9600 C   0  0  0  0  0  1  0  0  0  0  0  0
  179.9830  178.1110  144.0630 C   0  0  0  0  0  1  0  0  0  0  0  0
  189.9440  173.2900  136.4920 C   0  0  0  0  0  1  0  0  0  0  0  0
  189.9160  174.8080  136.3620 C   0  0  2  0  0  3  0  0  0  0  0  0
  191.0730  175.3650  135.7230 O   0  0  0  0  0  0  0  0  0  0  0  0
  192.3490  174.7650  135.6450 C   0  0  0  0  0  0  0  0  0  0  0  0
  192.5100  173.8030  134.8480 O   0  0  0  0  0  0  0  0  0  0  0  0
  193.5070  175.2420  136.4830 C   0  0  2  0  0  3  0  0  0  0  0  0
  193.1790  176.4920  137.2800 C   0  0  0  0  0  1  0  0  0  0  0  0
  194.8720  175.3020  135.7670 C   0  0  1  0  0  3  0  0  0  0  0  0
  195.0960  176.6810  135.2120 C   0  0  0  0  0  0  0  0  0  0  0  0
  194.3020  177.1420  134.3460 O   0  0  0  0  0  0  0  0  0  0  0  0
  196.1720  177.4600  135.6390 O   0  0  0  0  0  1  0  0  0  0  0  0
  196.1060  174.7850  136.5480 C   0  0  2  0  0  3  0  0  0  0  0  0
  196.8730  173.7490  135.7120 C   0  0  1  0  0  3  0  0  0  0  0  0
  196.4020  173.7160  134.4030 O   0  0  0  0  0  1  0  0  0  0  0  0
  198.3750  174.0000  135.7170 C   0  0  0  0  0  2  0  0  0  0  0  0
  198.6330  175.3630  135.9260 O   0  0  0  0  0  1  0  0  0  0  0  0
  195.7830  174.2330  137.9410 C   0  0  0  0  0  2  0  0  0  0  0  0
  195.8220  175.1650  139.8760 O   0  0  0  0  0  1  0  0  0  0  0  0
  196.6270  174.8260  138.8910 O   0  0  0  0  0  0  0  0  0  0  0  0
  1 13  2  0  0  0  0
  2 18  1  0  0  0  0
  4  5  1  0  0  0  0
  5  9  1  0  0  0  0
  6  7  2  0  0  0  0
  7  9  1  0  0  0  0
 11  4  1  1  0  0  0
 11  6  1  0  0  0  0
 12 27  1  1  0  0  0
 12 26  1  0  0  0  0
 12 14  1  0  0  0  0
 13 24  2  0  0  0  0
 14 22  1  0  0  0  0
 15 17  2  0  0  0  0
 16  2  1  0  0  0  0
 17  6  1  0  0  0  0
 18 19  1  0  0  0  0
 19  3  2  0  0  0  0
 19  8  1  0  0  0  0
 20 10  1  0  0  0  0
 21 38  1  6  0  0  0
 21 16  1  0  0  0  0
 22 10  1  6  0  0  0
 22  1  1  0  0  0  0
 23  8  1  6  0  0  0
 23 11  1  0  0  0  0
 24 23  1  0  0  0  0
 24 15  1  0  0  0  0
 25 26  1  0  0  0  0
 25 21  1  0  0  0  0
 27 20  1  0  0  0  0
 29 32  2  0  0  0  0
 30 33  1  0  0  0  0
 31 30  2  0  0  0  0
 31 29  1  0  0  0  0
 32 28  1  0  0  0  0
 33 15  1  0  0  0  0
 33 28  2  0  0  0  0
 34 29  1  0  0  0  0
 34 36  1  0  0  0  0
 35 34  1  0  0  0  0
 38 37  1  1  0  0  0
 39 38  1  0  0  0  0
 40 39  1  0  0  0  0
 40 42  1  0  0  0  0
 41 40  2  0  0  0  0
 42 43  1  6  0  0  0
 44 45  1  1  0  0  0
 44 42  1  0  0  0  0
 44 48  1  0  0  0  0
 45 47  1  0  0  0  0
 46 45  2  0  0  0  0
 48 53  1  1  0  0  0
 49 50  1  6  0  0  0
 49 51  1  0  0  0  0
 49 48  1  0  0  0  0
 51 52  1  0  0  0  0
 53 55  1  0  0  0  0
 55 54  1  0  0  0  0
M  END
>  <MODEL>
3

>  <REMARK>
 VINA RESULT:      -6.2      4.367     10.566
  Name = 
  13 active torsions:
  status: ('A' for Active; 'I' for Inactive)
    1  A    between atoms: C_1  and  C_53
    2  A    between atoms: C_3  and  O_14
    3  A    between atoms: C_3  and  C_38
    4  A    between atoms: C_6  and  C_20
    5  A    between atoms: C_6  and  C_53
    6  A    between atoms: C_8  and  O_22
    7  A    between atoms: C_8  and  C_43
    8  A    between atoms: N_10  and  C_32
    9  A    between atoms: C_11  and  C_29
   10  A    between atoms: C_20  and  O_22
   11  A    between atoms: C_29  and  C_38
   12  A    between atoms: C_33  and  C_52
   13  A    between atoms: C_38  and  C_53
                            x       y       z     vdW  Elec       q    Type
                         _______ _______ _______ _____ _____    ______ ____

>  <TORSDO>
F 13

$$$$
=
 OpenBabel10272401263D

 55 59  0  0  1  0  0  0  0  0999 V2000
  186.8260  175.1900  134.4910 C   0  0  0  0  0  3  0  0  0  0  0  0
  187.9060  177.7170  138.8920 C   0  0  0  0  0  2  0  0  0  0  0  0
  185.2500  176.8280  138.5110 O   0  0  0  0  0  0  0  0  0  0  0  0
  182.3210  178.6520  136.6640 C   0  0  0  0  0  2  0  0  0  0  0  0
  181.0280  178.7480  137.4630 C   0  0  0  0  0  2  0  0  0  0  0  0
  181.8320  176.1790  136.4710 C   0  0  0  0  0  0  0  0  0  0  0  0
  180.5250  176.4290  136.6080 C   0  0  0  0  0  3  0  0  0  0  0  0
  185.2060  177.8450  136.4310 O   0  0  0  0  0  0  0  0  0  0  0  0
  179.9820  177.8120  136.8550 C   0  0  0  0  0  2  0  0  0  0  0  0
  188.1630  173.1280  134.5440 C   0  0  0  0  0  2  0  0  0  0  0  0
  182.8750  177.2280  136.7720 C   0  0  1  0  0  3  0  0  0  0  0  0
  190.2120  174.8050  135.7450 C   0  0  1  0  0  3  0  0  0  0  0  0
  185.6980  175.3930  135.1170 C   0  0  0  0  0  0  0  0  0  0  0  0
  189.1380  175.3120  134.9650 O   0  0  0  0  0  0  0  0  0  0  0  0
  183.5250  174.5060  135.8350 C   0  0  0  0  0  0  0  0  0  0  0  0
  189.1750  178.2810  138.7180 O   0  0  0  0  0  0  0  0  0  0  0  0
  182.2640  174.8120  136.1820 C   0  0  0  0  0  3  0  0  0  0  0  0
  186.8690  178.5470  138.1490 C   0  0  0  0  0  2  0  0  0  0  0  0
  185.7360  177.6790  137.7190 C   0  0  0  0  0  0  0  0  0  0  0  0
  189.6310  172.7270  134.4560 C   0  0  0  0  0  2  0  0  0  0  0  0
  190.0420  177.1820  138.7300 C   0  0  1  0  0  3  0  0  0  0  0  0
  187.9810  174.5240  135.1530 C   0  0  1  0  0  3  0  0  0  0  0  0
  184.1290  177.0580  135.9080 C   0  0  2  0  0  3  0  0  0  0  0  0
  184.5410  175.6090  135.6980 C   0  0  0  0  0  0  0  0  0  0  0  0
  190.3310  176.7410  137.3060 C   0  0  0  0  0  2  0  0  0  0  0  0
  190.1140  175.2400  137.2000 C   0  0  0  0  0  2  0  0  0  0  0  0
  190.3960  173.2800  135.6480 C   0  0  0  0  0  2  0  0  0  0  0  0
  184.9230  172.4440  136.1770 C   0  0  0  0  0  3  0  0  0  0  0  0
  184.3490  170.3080  135.1610 C   0  0  0  0  0  0  0  0  0  0  0  0
  182.9810  172.2810  134.7610 C   0  0  0  0  0  3  0  0  0  0  0  0
  183.2410  170.9230  134.5560 C   0  0  0  0  0  3  0  0  0  0  0  0
  185.1860  171.0830  135.9760 C   0  0  0  0  0  3  0  0  0  0  0  0
  183.8240  173.0660  135.5630 C   0  0  0  0  0  0  0  0  0  0  0  0
  184.6090  168.9050  134.9620 N   0  0  0  0  0  0  0  0  0  0  0  0
  185.9520  168.3550  135.1570 C   0  0  0  0  0  1  0  0  0  0  0  0
  183.5580  167.9920  134.5250 C   0  0  0  0  0  1  0  0  0  0  0  0
  192.4930  176.5880  139.0080 C   0  0  0  0  0  1  0  0  0  0  0  0
  191.3510  177.4900  139.4590 C   0  0  2  0  0  3  0  0  0  0  0  0
  191.2110  177.5930  140.8830 O   0  0  0  0  0  0  0  0  0  0  0  0
  190.3500  176.8190  141.6920 C   0  0  0  0  0  0  0  0  0  0  0  0
  190.4930  175.5680  141.6910 O   0  0  0  0  0  0  0  0  0  0  0  0
  189.2780  177.4480  142.5440 C   0  0  2  0  0  3  0  0  0  0  0  0
  188.9660  178.8760  142.1360 C   0  0  0  0  0  1  0  0  0  0  0  0
  189.4340  177.2550  144.0660 C   0  0  1  0  0  3  0  0  0  0  0  0
  190.7810  177.7560  144.5070 C   0  0  0  0  0  0  0  0  0  0  0  0
  191.5800  176.9710  145.0850 O   0  0  0  0  0  1  0  0  0  0  0  0
  191.1600  179.0810  144.2880 O   0  0  0  0  0  0  0  0  0  0  0  0
  188.2940  177.7890  144.9690 C   0  0  2  0  0  3  0  0  0  0  0  0
  188.6930  177.6910  146.4500 C   0  0  1  0  0  3  0  0  0  0  0  0
  189.0620  178.9360  146.9500 O   0  0  0  0  0  1  0  0  0  0  0  0
  187.5860  177.0940  147.3090 C   0  0  0  0  0  2  0  0  0  0  0  0
  187.9790  177.0790  148.6550 O   0  0  0  0  0  1  0  0  0  0  0  0
  186.9340  177.1250  144.7240 C   0  0  0  0  0  2  0  0  0  0  0  0
  185.5190  178.7110  144.4130 O   0  0  0  0  0  1  0  0  0  0  0  0
  186.2330  177.8340  143.7390 O   0  0  0  0  0  0  0  0  0  0  0  0
  1 13  2  0  0  0  0
  4  5  1  0  0  0  0
  6  7  2  0  0  0  0
  6 11  1  0  0  0  0
  7  9  1  0  0  0  0
  8 19  1  0  0  0  0
  9  5  1  0  0  0  0
 10 22  1  0  0  0  0
 11  4  1  6  0  0  0
 12 27  1  1  0  0  0
 12 26  1  0  0  0  0
 13 24  2  0  0  0  0
 14 22  1  0  0  0  0
 14 12  1  0  0  0  0
 15 17  2  0  0  0  0
 16 21  1  0  0  0  0
 16  2  1  0  0  0  0
 17  6  1  0  0  0  0
 18  2  1  0  0  0  0
 19 18  1  0  0  0  0
 19  3  2  0  0  0  0
 20 10  1  0  0  0  0
 20 27  1  0  0  0  0
 21 38  1  6  0  0  0
 22  1  1  6  0  0  0
 23 24  1  1  0  0  0
 23  8  1  0  0  0  0
 23 11  1  0  0  0  0
 24 15  1  0  0  0  0
 25 21  1  0  0  0  0
 26 25  1  0  0  0  0
 29 32  2  0  0  0  0
 30 33  1  0  0  0  0
 31 30  2  0  0  0  0
 31 29  1  0  0  0  0
 32 28  1  0  0  0  0
 33 15  1  0  0  0  0
 33 28  2  0  0  0  0
 34 35  1  0  0  0  0
 34 29  1  0  0  0  0
 36 34  1  0  0  0  0
 38 37  1  1  0  0  0
 38 39  1  0  0  0  0
 39 40  1  0  0  0  0
 40 42  1  0  0  0  0
 41 40  2  0  0  0  0
 42 43  1  1  0  0  0
 42 44  1  0  0  0  0
 44 45  1  1  0  0  0
 44 48  1  0  0  0  0
 45 46  1  0  0  0  0
 47 45  2  0  0  0  0
 48 53  1  1  0  0  0
 48 49  1  0  0  0  0
 49 50  1  1  0  0  0
 49 51  1  0  0  0  0
 51 52  1  0  0  0  0
 55 54  1  0  0  0  0
 55 53  1  0  0  0  0
M  END
>  <MODEL>
4

>  <REMARK>
 VINA RESULT:      -5.8      2.466      5.257
  Name = 
  13 active torsions:
  status: ('A' for Active; 'I' for Inactive)
    1  A    between atoms: C_1  and  C_53
    2  A    between atoms: C_3  and  O_14
    3  A    between atoms: C_3  and  C_38
    4  A    between atoms: C_6  and  C_20
    5  A    between atoms: C_6  and  C_53
    6  A    between atoms: C_8  and  O_22
    7  A    between atoms: C_8  and  C_43
    8  A    between atoms: N_10  and  C_32
    9  A    between atoms: C_11  and  C_29
   10  A    between atoms: C_20  and  O_22
   11  A    between atoms: C_29  and  C_38
   12  A    between atoms: C_33  and  C_52
   13  A    between atoms: C_38  and  C_53
                            x       y       z     vdW  Elec       q    Type
                         _______ _______ _______ _____ _____    ______ ____

>  <TORSDO>
F 13

$$$$
=
 OpenBabel10272401263D

 55 59  0  0  1  0  0  0  0  0999 V2000
  187.0710  179.4300  140.6670 C   0  0  0  0  0  3  0  0  0  0  0  0
  190.3190  175.4050  140.2490 C   0  0  0  0  0  2  0  0  0  0  0  0
  188.9900  175.7640  142.7190 O   0  0  0  0  0  0  0  0  0  0  0  0
  190.0700  177.9820  145.7570 C   0  0  0  0  0  2  0  0  0  0  0  0
  190.0770  177.2610  147.0980 C   0  0  0  0  0  2  0  0  0  0  0  0
  187.5490  177.8310  145.8680 C   0  0  0  0  0  0  0  0  0  0  0  0
  187.6130  177.7880  147.2040 C   0  0  0  0  0  3  0  0  0  0  0  0
  189.6900  177.9710  142.7770 O   0  0  0  0  0  0  0  0  0  0  0  0
  188.9180  177.7690  147.9570 C   0  0  0  0  0  2  0  0  0  0  0  0
  185.2650  179.0190  139.0510 C   0  0  0  0  0  2  0  0  0  0  0  0
  188.7770  177.6420  145.0090 C   0  0  1  0  0  3  0  0  0  0  0  0
  187.3850  177.9900  137.3480 C   0  0  1  0  0  3  0  0  0  0  0  0
  187.1840  178.8890  141.8510 C   0  0  0  0  0  0  0  0  0  0  0  0
  187.6100  178.8810  138.4320 O   0  0  0  0  0  0  0  0  0  0  0  0
  186.0830  178.1420  143.9130 C   0  0  0  0  0  0  0  0  0  0  0  0
  191.0400  175.6060  139.0670 O   0  0  0  0  0  0  0  0  0  0  0  0
  186.2370  177.8980  145.2240 C   0  0  0  0  0  3  0  0  0  0  0  0
  190.8690  176.3050  141.3460 C   0  0  0  0  0  2  0  0  0  0  0  0
  189.7870  176.6510  142.3120 C   0  0  0  0  0  0  0  0  0  0  0  0
  185.0850  178.9840  137.5380 C   0  0  0  0  0  2  0  0  0  0  0  0
  190.0990  175.3970  138.0520 C   0  0  1  0  0  3  0  0  0  0  0  0
  186.6880  178.6290  139.4720 C   0  0  1  0  0  3  0  0  0  0  0  0
  188.6830  178.4190  143.6910 C   0  0  2  0  0  3  0  0  0  0  0  0
  187.2980  178.3960  143.0610 C   0  0  0  0  0  0  0  0  0  0  0  0
  189.5150  176.7260  137.6110 C   0  0  0  0  0  2  0  0  0  0  0  0
  187.9980  176.6210  137.6020 C   0  0  0  0  0  2  0  0  0  0  0  0
  185.9090  177.8550  136.9390 C   0  0  0  0  0  2  0  0  0  0  0  0
  183.6580  178.7580  144.1650 C   0  0  0  0  0  3  0  0  0  0  0  0
  182.0390  178.3950  142.3840 C   0  0  0  0  0  0  0  0  0  0  0  0
  184.3660  177.7400  142.0990 C   0  0  0  0  0  3  0  0  0  0  0  0
  183.0630  177.8360  141.6020 C   0  0  0  0  0  3  0  0  0  0  0  0
  182.3510  178.8580  143.6700 C   0  0  0  0  0  3  0  0  0  0  0  0
  184.6820  178.1870  143.3910 C   0  0  0  0  0  0  0  0  0  0  0  0
  180.6990  178.5080  141.8670 N   0  0  0  0  0  0  0  0  0  0  0  0
  180.0210  177.3510  141.2790 C   0  0  0  0  0  1  0  0  0  0  0  0
  179.9870  179.7810  141.8750 C   0  0  0  0  0  1  0  0  0  0  0  0
  189.7650  173.6020  136.2900 C   0  0  0  0  0  1  0  0  0  0  0  0
  190.7020  174.6650  136.8510 C   0  0  2  0  0  3  0  0  0  0  0  0
  192.0460  174.2110  137.0640 O   0  0  0  0  0  0  0  0  0  0  0  0
  193.0850  174.2130  136.1070 C   0  0  0  0  0  0  0  0  0  0  0  0
  192.9400  174.9110  135.0690 O   0  0  0  0  0  0  0  0  0  0  0  0
  194.3460  173.4100  136.2980 C   0  0  2  0  0  3  0  0  0  0  0  0
  194.1030  172.1000  137.0250 C   0  0  0  0  0  1  0  0  0  0  0  0
  195.5660  174.1950  136.8220 C   0  0  1  0  0  3  0  0  0  0  0  0
  195.4620  174.3650  138.3120 C   0  0  0  0  0  0  0  0  0  0  0  0
  196.1120  173.5990  139.0750 O   0  0  0  0  0  1  0  0  0  0  0  0
  194.6530  175.3580  138.8650 O   0  0  0  0  0  0  0  0  0  0  0  0
  196.9680  173.6940  136.3940 C   0  0  2  0  0  3  0  0  0  0  0  0
  197.8000  174.8530  135.8220 C   0  0  1  0  0  3  0  0  0  0  0  0
  197.6840  175.9890  136.6170 O   0  0  0  0  0  1  0  0  0  0  0  0
  199.2670  174.4850  135.6530 C   0  0  0  0  0  2  0  0  0  0  0  0
  200.0240  175.0460  136.6920 O   0  0  0  0  0  1  0  0  0  0  0  0
  196.9440  172.5080  135.4220 C   0  0  0  0  0  2  0  0  0  0  0  0
  197.4430  170.7390  136.5340 O   0  0  0  0  0  1  0  0  0  0  0  0
  197.9890  171.6260  135.7290 O   0  0  0  0  0  0  0  0  0  0  0  0
  1 13  2  0  0  0  0
  2 18  1  0  0  0  0
  4  5  1  0  0  0  0
  5  9  1  0  0  0  0
  6  7  2  0  0  0  0
  7  9  1  0  0  0  0
 11  4  1  1  0  0  0
 11  6  1  0  0  0  0
 12 27  1  1  0  0  0
 12 26  1  0  0  0  0
 12 14  1  0  0  0  0
 13 24  2  0  0  0  0
 14 22  1  0  0  0  0
 15 17  2  0  0  0  0
 16  2  1  0  0  0  0
 17  6  1  0  0  0  0
 18 19  1  0  0  0  0
 19  3  2  0  0  0  0
 19  8  1  0  0  0  0
 20 10  1  0  0  0  0
 21 38  1  6  0  0  0
 21 16  1  0  0  0  0
 22 10  1  6  0  0  0
 22  1  1  0  0  0  0
 23  8  1  6  0  0  0
 23 11  1  0  0  0  0
 24 23  1  0  0  0  0
 24 15  1  0  0  0  0
 25 21  1  0  0  0  0
 26 25  1  0  0  0  0
 27 20  1  0  0  0  0
 29 32  2  0  0  0  0
 30 33  1  0  0  0  0
 31 30  2  0  0  0  0
 31 29  1  0  0  0  0
 32 28  1  0  0  0  0
 33 15  1  0  0  0  0
 33 28  2  0  0  0  0
 34 36  1  0  0  0  0
 34 29  1  0  0  0  0
 35 34  1  0  0  0  0
 38 37  1  1  0  0  0
 38 39  1  0  0  0  0
 40 42  1  0  0  0  0
 40 39  1  0  0  0  0
 41 40  2  0  0  0  0
 42 44  1  0  0  0  0
 42 43  1  1  0  0  0
 44 45  1  1  0  0  0
 45 47  2  0  0  0  0
 45 46  1  0  0  0  0
 48 53  1  6  0  0  0
 48 44  1  0  0  0  0
 49 48  1  0  0  0  0
 49 50  1  1  0  0  0
 51 49  1  0  0  0  0
 51 52  1  0  0  0  0
 53 55  1  0  0  0  0
 55 54  1  0  0  0  0
M  END
>  <MODEL>
5

>  <REMARK>
 VINA RESULT:      -5.6      4.537     10.502
  Name = 
  13 active torsions:
  status: ('A' for Active; 'I' for Inactive)
    1  A    between atoms: C_1  and  C_53
    2  A    between atoms: C_3  and  O_14
    3  A    between atoms: C_3  and  C_38
    4  A    between atoms: C_6  and  C_20
    5  A    between atoms: C_6  and  C_53
    6  A    between atoms: C_8  and  O_22
    7  A    between atoms: C_8  and  C_43
    8  A    between atoms: N_10  and  C_32
    9  A    between atoms: C_11  and  C_29
   10  A    between atoms: C_20  and  O_22
   11  A    between atoms: C_29  and  C_38
   12  A    between atoms: C_33  and  C_52
   13  A    between atoms: C_38  and  C_53
                            x       y       z     vdW  Elec       q    Type
                         _______ _______ _______ _____ _____    ______ ____

>  <TORSDO>
F 13

$$$$
=
 OpenBabel10272401263D

 55 59  0  0  1  0  0  0  0  0999 V2000
  186.5650  175.5620  134.8730 C   0  0  0  0  0  3  0  0  0  0  0  0
  188.0840  177.8600  139.2700 C   0  0  0  0  0  2  0  0  0  0  0  0
  185.3790  177.0610  139.0770 O   0  0  0  0  0  0  0  0  0  0  0  0
  182.3640  179.0430  137.5630 C   0  0  0  0  0  2  0  0  0  0  0  0
  181.1460  179.1380  138.4720 C   0  0  0  0  0  2  0  0  0  0  0  0
  181.7860  176.5950  137.3080 C   0  0  0  0  0  0  0  0  0  0  0  0
  180.5030  176.8740  137.5650 C   0  0  0  0  0  3  0  0  0  0  0  0
  185.1930  178.1700  137.0530 O   0  0  0  0  0  0  0  0  0  0  0  0
  180.0240  178.2590  137.9150 C   0  0  0  0  0  2  0  0  0  0  0  0
  187.8380  173.4650  134.7250 C   0  0  0  0  0  2  0  0  0  0  0  0
  182.8820  177.6010  137.5640 C   0  0  1  0  0  3  0  0  0  0  0  0
  190.0300  175.0300  135.8190 C   0  0  1  0  0  3  0  0  0  0  0  0
  185.4990  175.7670  135.6000 C   0  0  0  0  0  0  0  0  0  0  0  0
  188.9110  175.6010  135.1540 O   0  0  0  0  0  0  0  0  0  0  0  0
  183.3680  174.9070  136.4610 C   0  0  0  0  0  0  0  0  0  0  0  0
  189.3510  178.3970  139.0120 O   0  0  0  0  0  0  0  0  0  0  0  0
  182.1500  175.2310  136.9260 C   0  0  0  0  0  3  0  0  0  0  0  0
  187.0150  178.7500  138.6520 C   0  0  0  0  0  2  0  0  0  0  0  0
  185.8230  177.9320  138.2840 C   0  0  0  0  0  0  0  0  0  0  0  0
  189.2800  173.0280  134.4970 C   0  0  0  0  0  2  0  0  0  0  0  0
  190.1820  177.2760  138.9050 C   0  0  1  0  0  3  0  0  0  0  0  0
  187.7500  174.8370  135.4060 C   0  0  1  0  0  3  0  0  0  0  0  0
  184.0540  177.4370  136.5900 C   0  0  2  0  0  3  0  0  0  0  0  0
  184.4020  175.9870  136.2850 C   0  0  0  0  0  0  0  0  0  0  0  0
  190.3380  176.8920  137.4450 C   0  0  0  0  0  2  0  0  0  0  0  0
  190.0660  175.4030  137.2940 C   0  0  0  0  0  2  0  0  0  0  0  0
  190.1590  173.5080  135.6420 C   0  0  0  0  0  2  0  0  0  0  0  0
  184.6630  172.7640  136.6830 C   0  0  0  0  0  3  0  0  0  0  0  0
  183.9940  170.7230  135.5390 C   0  0  0  0  0  0  0  0  0  0  0  0
  182.7240  172.7800  135.2540 C   0  0  0  0  0  3  0  0  0  0  0  0
  182.9200  171.4250  134.9690 C   0  0  0  0  0  3  0  0  0  0  0  0
  184.8620  171.4060  136.4020 C   0  0  0  0  0  3  0  0  0  0  0  0
  183.5990  173.4730  136.1040 C   0  0  0  0  0  0  0  0  0  0  0  0
  184.1870  169.3230  135.2580 N   0  0  0  0  0  0  0  0  0  0  0  0
  183.0600  168.3890  135.2840 C   0  0  0  0  0  1  0  0  0  0  0  0
  185.5120  168.7810  134.9750 C   0  0  0  0  0  1  0  0  0  0  0  0
  192.5590  176.4280  139.1680 C   0  0  0  0  0  1  0  0  0  0  0  0
  191.5560  177.5160  139.5330 C   0  0  2  0  0  3  0  0  0  0  0  0
  191.5070  177.8250  140.9340 O   0  0  0  0  0  0  0  0  0  0  0  0
  190.5420  177.3590  141.8540 C   0  0  0  0  0  0  0  0  0  0  0  0
  190.2110  176.1450  141.8100 O   0  0  0  0  0  0  0  0  0  0  0  0
  189.9090  178.2700  142.8740 C   0  0  2  0  0  3  0  0  0  0  0  0
  190.8870  179.2810  143.4450 C   0  0  0  0  0  1  0  0  0  0  0  0
  189.0380  177.5770  143.9410 C   0  0  1  0  0  3  0  0  0  0  0  0
  187.9160  176.8290  143.2750 C   0  0  0  0  0  0  0  0  0  0  0  0
  187.8730  175.5710  143.3510 O   0  0  0  0  0  1  0  0  0  0  0  0
  186.9200  177.5080  142.5720 O   0  0  0  0  0  0  0  0  0  0  0  0
  189.7650  176.7080  144.9970 C   0  0  2  0  0  3  0  0  0  0  0  0
  189.1180  176.8890  146.3790 C   0  0  1  0  0  3  0  0  0  0  0  0
  190.0770  176.8610  147.3860 O   0  0  0  0  0  1  0  0  0  0  0  0
  188.3050  178.1730  146.4720 C   0  0  0  0  0  2  0  0  0  0  0  0
  187.1020  177.9300  147.1520 O   0  0  0  0  0  1  0  0  0  0  0  0
  191.2790  176.9400  145.0680 C   0  0  0  0  0  2  0  0  0  0  0  0
  192.1430  175.1980  144.1550 O   0  0  0  0  0  1  0  0  0  0  0  0
  191.9300  175.7290  145.3410 O   0  0  0  0  0  0  0  0  0  0  0  0
  1 22  1  0  0  0  0
  1 13  2  0  0  0  0
  4  5  1  0  0  0  0
  6 11  1  0  0  0  0
  6  7  2  0  0  0  0
  7  9  1  0  0  0  0
  8 19  1  0  0  0  0
  9  5  1  0  0  0  0
 11  4  1  6  0  0  0
 12 27  1  1  0  0  0
 12 26  1  0  0  0  0
 13 24  2  0  0  0  0
 14 22  1  0  0  0  0
 14 12  1  0  0  0  0
 15 17  2  0  0  0  0
 16  2  1  0  0  0  0
 17  6  1  0  0  0  0
 18  2  1  0  0  0  0
 19 18  1  0  0  0  0
 19  3  2  0  0  0  0
 20 10  1  0  0  0  0
 20 27  1  0  0  0  0
 21 16  1  0  0  0  0
 21 38  1  6  0  0  0
 22 10  1  6  0  0  0
 23 24  1  1  0  0  0
 23  8  1  0  0  0  0
 23 11  1  0  0  0  0
 24 15  1  0  0  0  0
 25 21  1  0  0  0  0
 26 25  1  0  0  0  0
 29 32  2  0  0  0  0
 30 33  1  0  0  0  0
 31 30  2  0  0  0  0
 31 29  1  0  0  0  0
 32 28  1  0  0  0  0
 33 15  1  0  0  0  0
 33 28  2  0  0  0  0
 34 35  1  0  0  0  0
 34 29  1  0  0  0  0
 36 34  1  0  0  0  0
 38 37  1  1  0  0  0
 38 39  1  0  0  0  0
 39 40  1  0  0  0  0
 40 42  1  0  0  0  0
 41 40  2  0  0  0  0
 42 43  1  1  0  0  0
 42 44  1  0  0  0  0
 44 45  1  6  0  0  0
 44 48  1  0  0  0  0
 45 46  1  0  0  0  0
 47 45  2  0  0  0  0
 48 53  1  1  0  0  0
 48 49  1  0  0  0  0
 49 51  1  0  0  0  0
 49 50  1  1  0  0  0
 51 52  1  0  0  0  0
 53 55  1  0  0  0  0
 54 55  1  0  0  0  0
M  END
>  <MODEL>
6

>  <REMARK>
 VINA RESULT:      -5.5      2.519      5.151
  Name = 
  13 active torsions:
  status: ('A' for Active; 'I' for Inactive)
    1  A    between atoms: C_1  and  C_53
    2  A    between atoms: C_3  and  O_14
    3  A    between atoms: C_3  and  C_38
    4  A    between atoms: C_6  and  C_20
    5  A    between atoms: C_6  and  C_53
    6  A    between atoms: C_8  and  O_22
    7  A    between atoms: C_8  and  C_43
    8  A    between atoms: N_10  and  C_32
    9  A    between atoms: C_11  and  C_29
   10  A    between atoms: C_20  and  O_22
   11  A    between atoms: C_29  and  C_38
   12  A    between atoms: C_33  and  C_52
   13  A    between atoms: C_38  and  C_53
                            x       y       z     vdW  Elec       q    Type
                         _______ _______ _______ _____ _____    ______ ____

>  <TORSDO>
F 13

$$$$
=
 OpenBabel10272401263D

 55 59  0  0  1  0  0  0  0  0999 V2000
  187.2500  179.5370  140.5270 C   0  0  0  0  0  3  0  0  0  0  0  0
  190.6780  175.6570  140.1750 C   0  0  0  0  0  2  0  0  0  0  0  0
  189.1820  175.8690  142.5640 O   0  0  0  0  0  0  0  0  0  0  0  0
  189.9780  178.0060  145.7450 C   0  0  0  0  0  2  0  0  0  0  0  0
  189.9300  177.2350  147.0570 C   0  0  0  0  0  2  0  0  0  0  0  0
  187.4640  177.7560  145.6870 C   0  0  0  0  0  0  0  0  0  0  0  0
  187.4450  177.6630  147.0220 C   0  0  0  0  0  3  0  0  0  0  0  0
  189.7870  178.0970  142.7480 O   0  0  0  0  0  0  0  0  0  0  0  0
  188.6980  177.6650  147.8560 C   0  0  0  0  0  2  0  0  0  0  0  0
  185.5690  179.1210  138.7840 C   0  0  0  0  0  2  0  0  0  0  0  0
  188.7500  177.6480  144.9040 C   0  0  1  0  0  3  0  0  0  0  0  0
  187.8320  178.2400  137.1860 C   0  0  1  0  0  3  0  0  0  0  0  0
  187.3100  178.9550  141.6960 C   0  0  0  0  0  0  0  0  0  0  0  0
  187.9510  179.0960  138.3140 O   0  0  0  0  0  0  0  0  0  0  0  0
  186.1120  178.0870  143.6540 C   0  0  0  0  0  0  0  0  0  0  0  0
  191.4630  175.9310  139.0500 O   0  0  0  0  0  0  0  0  0  0  0  0
  186.1930  177.7980  144.9630 C   0  0  0  0  0  3  0  0  0  0  0  0
  191.1210  176.5340  141.3370 C   0  0  0  0  0  2  0  0  0  0  0  0
  189.9660  176.8010  142.2420 C   0  0  0  0  0  0  0  0  0  0  0  0
  185.4860  179.1380  137.2630 C   0  0  0  0  0  2  0  0  0  0  0  0
  190.5980  175.7260  137.9690 C   0  0  1  0  0  3  0  0  0  0  0  0
  186.9760  178.7690  139.2820 C   0  0  1  0  0  3  0  0  0  0  0  0
  188.7070  178.4700  143.6110 C   0  0  2  0  0  3  0  0  0  0  0  0
  187.3680  178.4190  142.8920 C   0  0  0  0  0  0  0  0  0  0  0  0
  189.9900  177.0480  137.5400 C   0  0  0  0  0  2  0  0  0  0  0  0
  188.4820  176.8860  137.4290 C   0  0  0  0  0  2  0  0  0  0  0  0
  186.3910  178.0650  136.6780 C   0  0  0  0  0  2  0  0  0  0  0  0
  183.6630  178.6490  143.7500 C   0  0  0  0  0  3  0  0  0  0  0  0
  182.1680  178.2460  141.8720 C   0  0  0  0  0  0  0  0  0  0  0  0
  184.5230  177.6420  141.7370 C   0  0  0  0  0  3  0  0  0  0  0  0
  183.2520  177.7070  141.1580 C   0  0  0  0  0  3  0  0  0  0  0  0
  182.3880  178.7180  143.1740 C   0  0  0  0  0  3  0  0  0  0  0  0
  184.7460  178.0990  143.0450 C   0  0  0  0  0  0  0  0  0  0  0  0
  180.8620  178.3270  141.2710 N   0  0  0  0  0  0  0  0  0  0  0  0
  180.2480  177.1540  140.6450 C   0  0  0  0  0  1  0  0  0  0  0  0
  180.1210  179.5840  141.2300 C   0  0  0  0  0  1  0  0  0  0  0  0
  190.6630  175.4280  135.4500 C   0  0  0  0  0  1  0  0  0  0  0  0
  191.3040  175.0640  136.7840 C   0  0  2  0  0  3  0  0  0  0  0  0
  191.5400  173.6600  136.9590 O   0  0  0  0  0  0  0  0  0  0  0  0
  192.0090  172.7670  135.9710 C   0  0  0  0  0  0  0  0  0  0  0  0
  191.1880  171.9660  135.4510 O   0  0  0  0  0  0  0  0  0  0  0  0
  193.4500  172.7490  135.5330 C   0  0  2  0  0  3  0  0  0  0  0  0
  193.6920  171.8330  134.3460 C   0  0  0  0  0  1  0  0  0  0  0  0
  194.4920  172.5930  136.6600 C   0  0  1  0  0  3  0  0  0  0  0  0
  195.0120  171.1830  136.6810 C   0  0  0  0  0  0  0  0  0  0  0  0
  196.2080  170.9540  136.3500 O   0  0  0  0  0  0  0  0  0  0  0  0
  194.1910  170.1210  137.0610 O   0  0  0  0  0  1  0  0  0  0  0  0
  195.6380  173.6340  136.7150 C   0  0  2  0  0  3  0  0  0  0  0  0
  195.8610  174.1090  138.1600 C   0  0  1  0  0  3  0  0  0  0  0  0
  195.2910  173.2230  139.0690 O   0  0  0  0  0  1  0  0  0  0  0  0
  197.3350  174.3070  138.4820 C   0  0  0  0  0  2  0  0  0  0  0  0
  198.1210  173.5000  137.6470 O   0  0  0  0  0  1  0  0  0  0  0  0
  195.4520  174.8270  135.7700 C   0  0  0  0  0  2  0  0  0  0  0  0
  195.3470  176.9690  135.8910 O   0  0  0  0  0  1  0  0  0  0  0  0
  194.8570  175.8900  136.4640 O   0  0  0  0  0  0  0  0  0  0  0  0
  1 13  2  0  0  0  0
  2 18  1  0  0  0  0
  4  5  1  0  0  0  0
  5  9  1  0  0  0  0
  6  7  2  0  0  0  0
  7  9  1  0  0  0  0
 11  6  1  0  0  0  0
 11  4  1  1  0  0  0
 12 27  1  1  0  0  0
 12 26  1  0  0  0  0
 12 14  1  0  0  0  0
 13 24  2  0  0  0  0
 14 22  1  0  0  0  0
 15 17  2  0  0  0  0
 16  2  1  0  0  0  0
 17  6  1  0  0  0  0
 18 19  1  0  0  0  0
 19  3  2  0  0  0  0
 19  8  1  0  0  0  0
 20 10  1  0  0  0  0
 21 38  1  6  0  0  0
 21 16  1  0  0  0  0
 22 10  1  6  0  0  0
 22  1  1  0  0  0  0
 23  8  1  6  0  0  0
 23 11  1  0  0  0  0
 24 23  1  0  0  0  0
 24 15  1  0  0  0  0
 25 21  1  0  0  0  0
 26 25  1  0  0  0  0
 27 20  1  0  0  0  0
 29 32  2  0  0  0  0
 30 33  1  0  0  0  0
 31 30  2  0  0  0  0
 31 29  1  0  0  0  0
 32 28  1  0  0  0  0
 33 15  1  0  0  0  0
 33 28  2  0  0  0  0
 34 29  1  0  0  0  0
 35 34  1  0  0  0  0
 36 34  1  0  0  0  0
 38 37  1  6  0  0  0
 38 39  1  0  0  0  0
 40 39  1  0  0  0  0
 41 40  2  0  0  0  0
 42 43  1  6  0  0  0
 42 40  1  0  0  0  0
 42 44  1  0  0  0  0
 44 45  1  6  0  0  0
 44 48  1  0  0  0  0
 45 47  1  0  0  0  0
 46 45  2  0  0  0  0
 48 53  1  6  0  0  0
 48 49  1  0  0  0  0
 49 51  1  0  0  0  0
 49 50  1  1  0  0  0
 52 51  1  0  0  0  0
 53 55  1  0  0  0  0
 54 55  1  0  0  0  0
M  END
>  <MODEL>
7

>  <REMARK>
 VINA RESULT:      -5.2      4.222     10.423
  Name = 
  13 active torsions:
  status: ('A' for Active; 'I' for Inactive)
    1  A    between atoms: C_1  and  C_53
    2  A    between atoms: C_3  and  O_14
    3  A    between atoms: C_3  and  C_38
    4  A    between atoms: C_6  and  C_20
    5  A    between atoms: C_6  and  C_53
    6  A    between atoms: C_8  and  O_22
    7  A    between atoms: C_8  and  C_43
    8  A    between atoms: N_10  and  C_32
    9  A    between atoms: C_11  and  C_29
   10  A    between atoms: C_20  and  O_22
   11  A    between atoms: C_29  and  C_38
   12  A    between atoms: C_33  and  C_52
   13  A    between atoms: C_38  and  C_53
                            x       y       z     vdW  Elec       q    Type
                         _______ _______ _______ _____ _____    ______ ____

>  <TORSDO>
F 13

$$$$
=
 OpenBabel10272401263D

 55 59  0  0  1  0  0  0  0  0999 V2000
  190.1760  175.7480  135.5740 C   0  0  0  0  0  3  0  0  0  0  0  0
  188.2060  177.6060  140.0000 C   0  0  0  0  0  2  0  0  0  0  0  0
  186.4970  176.0780  138.3460 O   0  0  0  0  0  0  0  0  0  0  0  0
  184.2970  177.2930  135.3460 C   0  0  0  0  0  2  0  0  0  0  0  0
  182.8380  176.8610  135.4120 C   0  0  0  0  0  2  0  0  0  0  0  0
  184.8300  174.8670  134.8790 C   0  0  0  0  0  0  0  0  0  0  0  0
  183.6070  174.7000  134.3650 C   0  0  0  0  0  3  0  0  0  0  0  0
  187.0540  177.4100  136.5350 O   0  0  0  0  0  0  0  0  0  0  0  0
  182.5740  175.7950  134.3470 C   0  0  0  0  0  2  0  0  0  0  0  0
  191.9600  174.1870  136.2240 C   0  0  0  0  0  2  0  0  0  0  0  0
  185.1930  176.0960  135.6780 C   0  0  1  0  0  3  0  0  0  0  0  0
  192.5280  176.1260  138.3150 C   0  0  1  0  0  3  0  0  0  0  0  0
  188.8950  175.4970  135.5720 C   0  0  0  0  0  0  0  0  0  0  0  0
  191.8230  176.4400  137.1210 O   0  0  0  0  0  0  0  0  0  0  0  0
  187.0850  173.9020  135.1130 C   0  0  0  0  0  0  0  0  0  0  0  0
  189.1370  178.5340  140.4820 O   0  0  0  0  0  0  0  0  0  0  0  0
  185.7860  173.7610  134.8050 C   0  0  0  0  0  3  0  0  0  0  0  0
  187.4050  178.2260  138.8640 C   0  0  0  0  0  2  0  0  0  0  0  0
  186.9640  177.1650  137.9140 C   0  0  0  0  0  0  0  0  0  0  0  0
  193.3450  174.2500  136.8570 C   0  0  0  0  0  2  0  0  0  0  0  0
  190.2210  177.7500  140.8900 C   0  0  1  0  0  3  0  0  0  0  0  0
  191.0560  175.3320  136.7000 C   0  0  1  0  0  3  0  0  0  0  0  0
  186.6750  176.4600  135.5330 C   0  0  2  0  0  3  0  0  0  0  0  0
  187.6060  175.2560  135.5180 C   0  0  0  0  0  0  0  0  0  0  0  0
  191.2550  177.6860  139.7810 C   0  0  0  0  0  2  0  0  0  0  0  0
  191.6390  176.2340  139.5450 C   0  0  0  0  0  2  0  0  0  0  0  0
  193.2460  174.7660  138.2830 C   0  0  0  0  0  2  0  0  0  0  0  0
  189.2310  172.7870  134.4250 C   0  0  0  0  0  3  0  0  0  0  0  0
  189.6550  170.4270  134.8420 C   0  0  0  0  0  0  0  0  0  0  0  0
  187.5410  171.4430  135.4930 C   0  0  0  0  0  3  0  0  0  0  0  0
  188.3780  170.3260  135.4180 C   0  0  0  0  0  3  0  0  0  0  0  0
  190.0740  171.6710  134.3480 C   0  0  0  0  0  3  0  0  0  0  0  0
  187.9480  172.6870  134.9870 C   0  0  0  0  0  0  0  0  0  0  0  0
  190.5240  169.2800  134.7770 N   0  0  0  0  0  0  0  0  0  0  0  0
  190.0150  167.9760  134.3460 C   0  0  0  0  0  1  0  0  0  0  0  0
  191.9250  169.3650  135.1730 C   0  0  0  0  0  1  0  0  0  0  0  0
  192.0540  177.4380  142.6180 C   0  0  0  0  0  1  0  0  0  0  0  0
  190.8630  178.2790  142.1750 C   0  0  2  0  0  3  0  0  0  0  0  0
  189.9210  178.5610  143.2190 O   0  0  0  0  0  0  0  0  0  0  0  0
  189.2980  177.6090  144.0560 C   0  0  0  0  0  0  0  0  0  0  0  0
  188.9190  176.5220  143.5450 O   0  0  0  0  0  0  0  0  0  0  0  0
  189.0790  177.8620  145.5250 C   0  0  2  0  0  3  0  0  0  0  0  0
  190.2080  177.3250  146.3870 C   0  0  0  0  0  1  0  0  0  0  0  0
  187.6730  177.5230  146.0610 C   0  0  1  0  0  3  0  0  0  0  0  0
  187.6550  177.6500  147.5590 C   0  0  0  0  0  0  0  0  0  0  0  0
  187.6930  178.7930  148.0890 O   0  0  0  0  0  0  0  0  0  0  0  0
  187.5970  176.5180  148.3730 O   0  0  0  0  0  1  0  0  0  0  0  0
  186.4710  178.2470  145.4040 C   0  0  2  0  0  3  0  0  0  0  0  0
  185.2700  178.2700  146.3640 C   0  0  1  0  0  3  0  0  0  0  0  0
  185.4610  179.2050  147.3770 O   0  0  0  0  0  1  0  0  0  0  0  0
  183.9590  178.5460  145.6420 C   0  0  0  0  0  2  0  0  0  0  0  0
  183.9740  179.8390  145.0990 O   0  0  0  0  0  1  0  0  0  0  0  0
  186.0670  177.6830  144.0370 C   0  0  0  0  0  2  0  0  0  0  0  0
  185.0930  178.4980  142.3040 O   0  0  0  0  0  1  0  0  0  0  0  0
  186.1480  178.6920  143.0670 O   0  0  0  0  0  0  0  0  0  0  0  0
  2 16  1  0  0  0  0
  4  5  1  0  0  0  0
  6 11  1  0  0  0  0
  7  6  2  0  0  0  0
  8 19  1  0  0  0  0
  9  7  1  0  0  0  0
  9  5  1  0  0  0  0
 10 22  1  0  0  0  0
 10 20  1  0  0  0  0
 11  4  1  6  0  0  0
 12 27  1  6  0  0  0
 12 26  1  0  0  0  0
 13  1  2  0  0  0  0
 14 12  1  0  0  0  0
 15 24  1  0  0  0  0
 16 21  1  0  0  0  0
 17  6  1  0  0  0  0
 17 15  2  0  0  0  0
 18  2  1  0  0  0  0
 19  3  2  0  0  0  0
 19 18  1  0  0  0  0
 20 27  1  0  0  0  0
 21 38  1  1  0  0  0
 22  1  1  6  0  0  0
 22 14  1  0  0  0  0
 23 24  1  1  0  0  0
 23 11  1  0  0  0  0
 23  8  1  0  0  0  0
 24 13  2  0  0  0  0
 25 21  1  0  0  0  0
 26 25  1  0  0  0  0
 28 33  1  0  0  0  0
 29 31  2  0  0  0  0
 31 30  1  0  0  0  0
 32 28  2  0  0  0  0
 32 29  1  0  0  0  0
 33 15  1  0  0  0  0
 33 30  2  0  0  0  0
 34 29  1  0  0  0  0
 34 36  1  0  0  0  0
 35 34  1  0  0  0  0
 38 37  1  1  0  0  0
 38 39  1  0  0  0  0
 39 40  1  0  0  0  0
 40 42  1  0  0  0  0
 41 40  2  0  0  0  0
 42 44  1  0  0  0  0
 42 43  1  1  0  0  0
 44 45  1  1  0  0  0
 45 46  2  0  0  0  0
 45 47  1  0  0  0  0
 48 53  1  6  0  0  0
 48 44  1  0  0  0  0
 48 49  1  0  0  0  0
 49 50  1  1  0  0  0
 51 49  1  0  0  0  0
 52 51  1  0  0  0  0
 54 55  1  0  0  0  0
 55 53  1  0  0  0  0
M  END
>  <MODEL>
8

>  <REMARK>
 VINA RESULT:      -4.5      2.156      4.643
  Name = 
  13 active torsions:
  status: ('A' for Active; 'I' for Inactive)
    1  A    between atoms: C_1  and  C_53
    2  A    between atoms: C_3  and  O_14
    3  A    between atoms: C_3  and  C_38
    4  A    between atoms: C_6  and  C_20
    5  A    between atoms: C_6  and  C_53
    6  A    between atoms: C_8  and  O_22
    7  A    between atoms: C_8  and  C_43
    8  A    between atoms: N_10  and  C_32
    9  A    between atoms: C_11  and  C_29
   10  A    between atoms: C_20  and  O_22
   11  A    between atoms: C_29  and  C_38
   12  A    between atoms: C_33  and  C_52
   13  A    between atoms: C_38  and  C_53
                            x       y       z     vdW  Elec       q    Type
                         _______ _______ _______ _____ _____    ______ ____

>  <TORSDO>
F 13

$$$$
=
 OpenBabel10272401263D

 55 59  0  0  1  0  0  0  0  0999 V2000
  188.2520  179.2570  138.5960 C   0  0  0  0  0  3  0  0  0  0  0  0
  191.7350  175.4320  138.9990 C   0  0  0  0  0  2  0  0  0  0  0  0
  189.9980  175.8570  141.1890 O   0  0  0  0  0  0  0  0  0  0  0  0
  190.4400  178.3240  144.1950 C   0  0  0  0  0  2  0  0  0  0  0  0
  190.2630  177.6900  145.5680 C   0  0  0  0  0  2  0  0  0  0  0  0
  187.9470  178.0170  143.9070 C   0  0  0  0  0  0  0  0  0  0  0  0
  187.7910  178.0620  145.2350 C   0  0  0  0  0  3  0  0  0  0  0  0
  190.5600  178.1040  141.2010 O   0  0  0  0  0  0  0  0  0  0  0  0
  188.9520  178.1740  146.1890 C   0  0  0  0  0  2  0  0  0  0  0  0
  186.7640  178.6310  136.7430 C   0  0  0  0  0  2  0  0  0  0  0  0
  189.3090  177.8560  143.2750 C   0  0  1  0  0  3  0  0  0  0  0  0
  189.1890  177.6380  135.4840 C   0  0  1  0  0  3  0  0  0  0  0  0
  188.1960  178.8000  139.8180 C   0  0  0  0  0  0  0  0  0  0  0  0
  189.1830  178.6070  136.5230 O   0  0  0  0  0  0  0  0  0  0  0  0
  186.8100  178.1120  141.7240 C   0  0  0  0  0  0  0  0  0  0  0  0
  192.6300  175.6060  137.9380 O   0  0  0  0  0  0  0  0  0  0  0  0
  186.7580  177.9600  143.0570 C   0  0  0  0  0  3  0  0  0  0  0  0
  192.0470  176.4330  140.1030 C   0  0  0  0  0  2  0  0  0  0  0  0
  190.8030  176.7670  140.8540 C   0  0  0  0  0  0  0  0  0  0  0  0
  186.8390  178.4910  135.2270 C   0  0  0  0  0  2  0  0  0  0  0  0
  191.8840  175.2740  136.8020 C   0  0  1  0  0  3  0  0  0  0  0  0
  188.1160  178.3610  137.4160 C   0  0  1  0  0  3  0  0  0  0  0  0
  189.3920  178.5410  141.9060 C   0  0  2  0  0  3  0  0  0  0  0  0
  188.1350  178.3900  141.0630 C   0  0  0  0  0  0  0  0  0  0  0  0
  191.3100  176.5330  136.1780 C   0  0  0  0  0  2  0  0  0  0  0  0
  189.8240  176.3290  135.9310 C   0  0  0  0  0  2  0  0  0  0  0  0
  187.8100  177.3830  134.8520 C   0  0  0  0  0  2  0  0  0  0  0  0
  184.2960  178.1390  141.6720 C   0  0  0  0  0  3  0  0  0  0  0  0
  183.0440  178.0090  139.5880 C   0  0  0  0  0  0  0  0  0  0  0  0
  185.4770  177.9360  139.5810 C   0  0  0  0  0  3  0  0  0  0  0  0
  184.2610  177.9180  138.8930 C   0  0  0  0  0  3  0  0  0  0  0  0
  183.0750  178.1220  140.9860 C   0  0  0  0  0  3  0  0  0  0  0  0
  185.5150  178.0340  140.9810 C   0  0  0  0  0  0  0  0  0  0  0  0
  181.7910  178.0050  138.8780 N   0  0  0  0  0  0  0  0  0  0  0  0
  180.5390  177.6800  139.5650 C   0  0  0  0  0  1  0  0  0  0  0  0
  181.7270  178.2870  137.4480 C   0  0  0  0  0  1  0  0  0  0  0  0
  192.1160  174.5850  134.3710 C   0  0  0  0  0  1  0  0  0  0  0  0
  192.7150  174.5090  135.7700 C   0  0  2  0  0  3  0  0  0  0  0  0
  193.0780  173.1840  136.1830 O   0  0  0  0  0  0  0  0  0  0  0  0
  193.9900  172.3290  135.5270 C   0  0  0  0  0  0  0  0  0  0  0  0
  193.5360  171.3210  134.9230 O   0  0  0  0  0  0  0  0  0  0  0  0
  195.4730  172.5920  135.5320 C   0  0  2  0  0  3  0  0  0  0  0  0
  196.2560  171.5570  134.7430 C   0  0  0  0  0  1  0  0  0  0  0  0
  196.0900  172.9230  136.9060 C   0  0  1  0  0  3  0  0  0  0  0  0
  196.3630  171.6520  137.6610 C   0  0  0  0  0  0  0  0  0  0  0  0
  195.4330  171.0990  138.3090 O   0  0  0  0  0  1  0  0  0  0  0  0
  197.6330  171.0750  137.6570 O   0  0  0  0  0  0  0  0  0  0  0  0
  197.3070  173.8800  136.9250 C   0  0  2  0  0  3  0  0  0  0  0  0
  197.1550  174.9190  138.0480 C   0  0  1  0  0  3  0  0  0  0  0  0
  195.8440  174.9600  138.5130 O   0  0  0  0  0  1  0  0  0  0  0  0
  198.1090  174.6630  139.2060 C   0  0  0  0  0  2  0  0  0  0  0  0
  199.4360  174.7310  138.7580 O   0  0  0  0  0  1  0  0  0  0  0  0
  197.5920  174.5650  135.5830 C   0  0  0  0  0  2  0  0  0  0  0  0
  199.5670  175.3550  135.2890 O   0  0  0  0  0  1  0  0  0  0  0  0
  198.8850  174.2380  135.1510 O   0  0  0  0  0  0  0  0  0  0  0  0
  1 13  2  0  0  0  0
  2 18  1  0  0  0  0
  4  5  1  0  0  0  0
  5  9  1  0  0  0  0
  6  7  2  0  0  0  0
  7  9  1  0  0  0  0
  8 23  1  0  0  0  0
 11  6  1  0  0  0  0
 11  4  1  1  0  0  0
 12 27  1  1  0  0  0
 12 26  1  0  0  0  0
 12 14  1  0  0  0  0
 13 24  2  0  0  0  0
 14 22  1  0  0  0  0
 15 17  2  0  0  0  0
 16  2  1  0  0  0  0
 17  6  1  0  0  0  0
 18 19  1  0  0  0  0
 19  3  2  0  0  0  0
 19  8  1  0  0  0  0
 20 10  1  0  0  0  0
 21 38  1  6  0  0  0
 21 16  1  0  0  0  0
 22 10  1  6  0  0  0
 22  1  1  0  0  0  0
 23 24  1  6  0  0  0
 23 11  1  0  0  0  0
 24 15  1  0  0  0  0
 25 21  1  0  0  0  0
 26 25  1  0  0  0  0
 27 20  1  0  0  0  0
 29 32  2  0  0  0  0
 30 33  1  0  0  0  0
 31 30  2  0  0  0  0
 31 29  1  0  0  0  0
 32 28  1  0  0  0  0
 33 28  2  0  0  0  0
 33 15  1  0  0  0  0
 34 35  1  0  0  0  0
 34 29  1  0  0  0  0
 36 34  1  0  0  0  0
 38 37  1  6  0  0  0
 38 39  1  0  0  0  0
 40 42  1  0  0  0  0
 40 39  1  0  0  0  0
 41 40  2  0  0  0  0
 42 43  1  1  0  0  0
 42 44  1  0  0  0  0
 44 48  1  0  0  0  0
 44 45  1  6  0  0  0
 45 46  1  0  0  0  0
 47 45  2  0  0  0  0
 48 53  1  6  0  0  0
 48 49  1  0  0  0  0
 49 50  1  1  0  0  0
 49 51  1  0  0  0  0
 52 51  1  0  0  0  0
 55 54  1  0  0  0  0
 55 53  1  0  0  0  0
M  END
>  <MODEL>
9

>  <REMARK>
 VINA RESULT:      -4.3      4.792     10.423
  Name = 
  13 active torsions:
  status: ('A' for Active; 'I' for Inactive)
    1  A    between atoms: C_1  and  C_53
    2  A    between atoms: C_3  and  O_14
    3  A    between atoms: C_3  and  C_38
    4  A    between atoms: C_6  and  C_20
    5  A    between atoms: C_6  and  C_53
    6  A    between atoms: C_8  and  O_22
    7  A    between atoms: C_8  and  C_43
    8  A    between atoms: N_10  and  C_32
    9  A    between atoms: C_11  and  C_29
   10  A    between atoms: C_20  and  O_22
   11  A    between atoms: C_29  and  C_38
   12  A    between atoms: C_33  and  C_52
   13  A    between atoms: C_38  and  C_53
                            x       y       z     vdW  Elec       q    Type
                         _______ _______ _______ _____ _____    ______ ____

>  <TORSDO>
F 13

$$$$
