=
 OpenBabel10272414273D

 43 48  0  0  1  0  0  0  0  0999 V2000
  186.5690  178.1910  146.7520 C   0  0  0  0  0  0  0  0  0  0  0  0
  183.7260  178.7180  142.6490 C   0  0  0  0  0  0  0  0  0  0  0  0
  184.7410  178.6530  145.2340 C   0  0  0  0  0  0  0  0  0  0  0  0
  187.3720  177.7930  145.6780 C   0  0  0  0  0  3  0  0  0  0  0  0
  187.0660  178.1610  148.0120 F   0  0  0  0  0  0  0  0  0  0  0  0
  185.5560  178.2520  144.1430 C   0  0  0  0  0  0  0  0  0  0  0  0
  185.2560  178.6190  146.5320 C   0  0  0  0  0  3  0  0  0  0  0  0
  186.8680  177.8230  144.3740 C   0  0  0  0  0  3  0  0  0  0  0  0
  185.6410  177.9030  141.5650 C   0  0  0  0  0  2  0  0  0  0  0  0
  185.0120  178.2980  142.8560 C   0  0  0  0  0  0  0  0  0  0  0  0
  182.8990  179.1080  143.7050 C   0  0  0  0  0  3  0  0  0  0  0  0
  183.3760  178.6710  141.2790 N   0  0  0  0  0  0  0  0  0  0  0  0
  184.5230  178.1520  140.5300 C   0  0  1  0  0  3  0  0  0  0  0  0
  183.4190  179.0760  145.0080 C   0  0  0  0  0  3  0  0  0  0  0  0
  184.2070  180.2700  139.3720 O   0  0  0  0  0  1  0  0  0  0  0  0
  185.0200  179.1360  139.4670 C   0  0  2  0  0  3  0  0  0  0  0  0
  185.1170  178.4400  138.1140 C   0  0  0  0  0  2  0  0  0  0  0  0
  186.4730  177.7690  137.9270 C   0  0  0  0  0  2  0  0  0  0  0  0
  187.3180  178.5560  136.9400 C   0  0  2  0  0  3  0  0  0  0  0  0
  187.0150  178.1310  135.5150 C   0  0  0  0  0  1  0  0  0  0  0  0
  188.8250  178.5120  137.2490 C   0  0  0  0  0  2  0  0  0  0  0  0
  189.4080  177.1660  137.7170 C   0  0  2  0  0  3  0  0  0  0  0  0
  190.8940  177.4680  141.2440 N   0  0  0  0  0  0  0  0  0  0  0  0
  189.9180  177.3410  140.2000 C   0  0  0  0  0  0  0  0  0  0  0  0
  190.3310  177.3440  138.8310 N   0  0  0  0  0  2  0  0  0  0  0  0
  192.3110  177.5280  140.9230 C   0  0  0  0  0  1  0  0  0  0  0  0
  188.6940  177.2390  140.4900 O   0  0  0  0  0  0  0  0  0  0  0  0
  190.4890  177.5630  142.6410 C   0  0  0  0  0  2  0  0  0  0  0  0
  191.7090  177.6140  143.5470 C   0  0  0  0  0  2  0  0  0  0  0  0
  190.6700  179.4500  143.9510 F   0  0  0  0  0  0  0  0  0  0  0  0
  191.8640  178.8970  144.0710 O   0  0  0  0  0  0  0  0  0  0  0  0
  190.5370  175.0480  137.0590 C   0  0  0  0  0  2  0  0  0  0  0  0
  190.0810  176.4110  136.5770 C   0  0  0  0  0  3  0  0  0  0  0  0
  189.2720  175.1730  136.2380 C   0  0  0  0  0  2  0  0  0  0  0  0
  182.0060  178.5100  140.8070 C   0  0  0  0  0  2  0  0  0  0  0  0
  181.8610  177.1810  140.0840 C   0  0  0  0  0  2  0  0  0  0  0  0
  181.1710  176.9460  136.4530 C   0  0  1  0  0  3  0  0  0  0  0  0
  181.3840  178.2400  136.8310 N   0  0  0  0  0  0  0  0  0  0  0  0
  182.2150  177.5210  135.7730 C   0  0  0  0  0  0  0  0  0  0  0  0
  181.4890  176.4140  137.7780 N   0  0  0  0  0  0  0  0  0  0  0  0
  181.5830  177.4170  138.6430 C   0  0  0  0  0  0  0  0  0  0  0  0
  183.3030  177.4060  135.0890 N   0  0  0  0  0  2  0  0  0  0  0  0
  181.4570  178.7590  138.0980 N   0  0  0  0  0  2  0  0  0  0  0  0
  1  5  1  0  0  0  0
  2 10  2  0  0  0  0
  2 11  1  0  0  0  0
  3  7  2  0  0  0  0
  4  1  2  0  0  0  0
  6  8  2  0  0  0  0
  6  3  1  0  0  0  0
  7  1  1  0  0  0  0
  8  4  1  0  0  0  0
  9 10  1  0  0  0  0
 10  6  1  0  0  0  0
 11 14  2  0  0  0  0
 12  2  1  0  0  0  0
 13 16  1  6  0  0  0
 13 12  1  0  0  0  0
 13  9  1  0  0  0  0
 14  3  1  0  0  0  0
 16 15  1  6  0  0  0
 17 16  1  0  0  0  0
 18 17  1  0  0  0  0
 19 20  1  6  0  0  0
 19 21  1  0  0  0  0
 19 18  1  0  0  0  0
 22 21  1  6  0  0  0
 22 25  1  0  0  0  0
 23 28  1  0  0  0  0
 24 27  2  0  0  0  0
 24 23  1  0  0  0  0
 25 24  1  0  0  0  0
 26 23  1  0  0  0  0
 28 29  1  0  0  0  0
 29 31  1  0  0  0  0
 30 31  1  0  0  0  0
 33 32  1  0  0  0  0
 33 22  1  0  0  0  0
 34 33  1  0  0  0  0
 34 32  1  0  0  0  0
 35 12  1  0  0  0  0
 36 35  1  0  0  0  0
 37 39  1  6  0  0  0
 37 38  1  0  0  0  0
 37 40  1  0  0  0  0
 38 43  1  0  0  0  0
 39 38  1  0  0  0  0
 40 41  2  0  0  0  0
 41 36  1  0  0  0  0
 42 39  2  0  0  0  0
 43 41  1  0  0  0  0
M  END
>  <MODEL>
1

>  <REMARK>
 VINA RESULT:      -8.2      0.000      0.000
  Name = 
  14 active torsions:
  status: ('A' for Active; 'I' for Inactive)
    1  A    between atoms: C_1  and  C_28
    2  A    between atoms: C_1  and  N_34
    3  A    between atoms: C_2  and  C_6
    4  A    between atoms: C_2  and  C_13
    5  A    between atoms: C_3  and  C_4
    6  A    between atoms: C_3  and  C_12
    7  A    between atoms: C_4  and  C_15
    8  A    between atoms: C_4  and  N_22
    9  A    between atoms: C_6  and  C_12
   10  A    between atoms: N_11  and  C_40
   11  A    between atoms: C_13  and  C_38
   12  A    between atoms: C_26  and  O_31
   13  A    between atoms: C_26  and  C_40
   14  A    between atoms: C_28  and  C_35
                            x       y       z     vdW  Elec       q    Type
                         _______ _______ _______ _____ _____    ______ ____

>  <TORSDO>
F 14

$$$$
=
 OpenBabel10272414273D

 43 48  0  0  1  0  0  0  0  0999 V2000
  191.4080  176.6610  147.2040 C   0  0  0  0  0  0  0  0  0  0  0  0
  187.3870  177.6980  144.3820 C   0  0  0  0  0  0  0  0  0  0  0  0
  189.1910  177.2800  146.4530 C   0  0  0  0  0  0  0  0  0  0  0  0
  191.8090  176.4580  145.8790 C   0  0  0  0  0  3  0  0  0  0  0  0
  192.2890  176.4590  148.2130 F   0  0  0  0  0  0  0  0  0  0  0  0
  189.5980  177.0780  145.1090 C   0  0  0  0  0  0  0  0  0  0  0  0
  190.1010  177.0690  147.4920 C   0  0  0  0  0  3  0  0  0  0  0  0
  190.9070  176.6660  144.8310 C   0  0  0  0  0  3  0  0  0  0  0  0
  188.8300  177.1250  142.6220 C   0  0  0  0  0  2  0  0  0  0  0  0
  188.6640  177.2980  144.0920 C   0  0  0  0  0  0  0  0  0  0  0  0
  186.9570  177.8950  145.6960 C   0  0  0  0  0  3  0  0  0  0  0  0
  186.6080  177.8450  143.2110 N   0  0  0  0  0  0  0  0  0  0  0  0
  187.4390  177.4860  142.0590 C   0  0  1  0  0  3  0  0  0  0  0  0
  187.8750  177.6850  146.7380 C   0  0  0  0  0  3  0  0  0  0  0  0
  186.4030  178.8430  140.3220 O   0  0  0  0  0  1  0  0  0  0  0  0
  187.5760  178.6360  141.0570 C   0  0  2  0  0  3  0  0  0  0  0  0
  188.7490  178.3760  140.1180 C   0  0  0  0  0  2  0  0  0  0  0  0
  188.3320  178.4960  138.6570 C   0  0  0  0  0  2  0  0  0  0  0  0
  189.2740  177.6950  137.7740 C   0  0  2  0  0  3  0  0  0  0  0  0
  189.0990  178.0760  136.3160 C   0  0  0  0  0  1  0  0  0  0  0  0
  189.1720  176.1740  137.9900 C   0  0  0  0  0  2  0  0  0  0  0  0
  188.6470  175.3300  136.8150 C   0  0  2  0  0  3  0  0  0  0  0  0
  184.9600  174.3640  137.2750 N   0  0  0  0  0  0  0  0  0  0  0  0
  186.1160  175.1470  136.9440 C   0  0  0  0  0  0  0  0  0  0  0  0
  187.4250  174.6200  137.1720 N   0  0  0  0  0  2  0  0  0  0  0  0
  185.1080  173.0060  137.7740 C   0  0  0  0  0  1  0  0  0  0  0  0
  185.9770  176.3060  136.4650 O   0  0  0  0  0  0  0  0  0  0  0  0
  183.6180  174.9160  137.1400 C   0  0  0  0  0  2  0  0  0  0  0  0
  183.1410  175.4880  138.4660 C   0  0  0  0  0  2  0  0  0  0  0  0
  184.1770  177.3160  138.9140 F   0  0  0  0  0  0  0  0  0  0  0  0
  183.0490  176.8780  138.3840 O   0  0  0  0  0  0  0  0  0  0  0  0
  189.0750  173.3920  135.3130 C   0  0  0  0  0  2  0  0  0  0  0  0
  189.7020  174.3590  136.2970 C   0  0  0  0  0  3  0  0  0  0  0  0
  189.8920  174.5600  134.8060 C   0  0  0  0  0  2  0  0  0  0  0  0
  185.1570  177.7080  143.1920 C   0  0  0  0  0  2  0  0  0  0  0  0
  184.5100  179.0740  143.0310 C   0  0  0  0  0  2  0  0  0  0  0  0
  181.2060  178.5550  141.4380 C   0  0  1  0  0  3  0  0  0  0  0  0
  181.0700  178.9450  142.7380 N   0  0  0  0  0  0  0  0  0  0  0  0
  180.4780  179.7110  141.5590 C   0  0  0  0  0  0  0  0  0  0  0  0
  182.6610  178.7130  141.4510 N   0  0  0  0  0  0  0  0  0  0  0  0
  183.0700  178.9150  142.6980 C   0  0  0  0  0  0  0  0  0  0  0  0
  180.0200  180.8030  141.0470 N   0  0  0  0  0  2  0  0  0  0  0  0
  182.0330  179.0300  143.7110 N   0  0  0  0  0  2  0  0  0  0  0  0
  1  7  1  0  0  0  0
  1  5  1  0  0  0  0
  2 11  1  0  0  0  0
  3 14  1  0  0  0  0
  3  7  2  0  0  0  0
  4  1  2  0  0  0  0
  6  3  1  0  0  0  0
  8  6  2  0  0  0  0
  8  4  1  0  0  0  0
  9 10  1  0  0  0  0
 10  2  2  0  0  0  0
 10  6  1  0  0  0  0
 11 14  2  0  0  0  0
 12  2  1  0  0  0  0
 13 16  1  6  0  0  0
 13  9  1  0  0  0  0
 13 12  1  0  0  0  0
 16 15  1  6  0  0  0
 17 16  1  0  0  0  0
 18 17  1  0  0  0  0
 19 20  1  6  0  0  0
 19 21  1  0  0  0  0
 19 18  1  0  0  0  0
 22 25  1  0  0  0  0
 22 21  1  1  0  0  0
 23 26  1  0  0  0  0
 24 25  1  0  0  0  0
 24 23  1  0  0  0  0
 27 24  2  0  0  0  0
 28 23  1  0  0  0  0
 28 29  1  0  0  0  0
 31 29  1  0  0  0  0
 31 30  1  0  0  0  0
 32 33  1  0  0  0  0
 33 22  1  0  0  0  0
 34 32  1  0  0  0  0
 34 33  1  0  0  0  0
 35 12  1  0  0  0  0
 36 35  1  0  0  0  0
 37 40  1  6  0  0  0
 37 39  1  0  0  0  0
 37 38  1  0  0  0  0
 38 43  1  0  0  0  0
 39 38  1  0  0  0  0
 40 41  2  0  0  0  0
 41 36  1  0  0  0  0
 41 43  1  0  0  0  0
 42 39  2  0  0  0  0
M  END
>  <MODEL>
2

>  <REMARK>
 VINA RESULT:      -7.9      2.905      5.322
  Name = 
  14 active torsions:
  status: ('A' for Active; 'I' for Inactive)
    1  A    between atoms: C_1  and  C_28
    2  A    between atoms: C_1  and  N_34
    3  A    between atoms: C_2  and  C_6
    4  A    between atoms: C_2  and  C_13
    5  A    between atoms: C_3  and  C_4
    6  A    between atoms: C_3  and  C_12
    7  A    between atoms: C_4  and  C_15
    8  A    between atoms: C_4  and  N_22
    9  A    between atoms: C_6  and  C_12
   10  A    between atoms: N_11  and  C_40
   11  A    between atoms: C_13  and  C_38
   12  A    between atoms: C_26  and  O_31
   13  A    between atoms: C_26  and  C_40
   14  A    between atoms: C_28  and  C_35
                            x       y       z     vdW  Elec       q    Type
                         _______ _______ _______ _____ _____    ______ ____

>  <TORSDO>
F 14

$$$$
=
 OpenBabel10272414273D

 43 48  0  0  1  0  0  0  0  0999 V2000
  187.8580  177.8150  147.9010 C   0  0  0  0  0  0  0  0  0  0  0  0
  184.9650  178.6260  143.8800 C   0  0  0  0  0  0  0  0  0  0  0  0
  186.0370  178.4450  146.4360 C   0  0  0  0  0  0  0  0  0  0  0  0
  188.5980  177.3650  146.8010 C   0  0  0  0  0  3  0  0  0  0  0  0
  188.3830  177.7280  149.1470 F   0  0  0  0  0  0  0  0  0  0  0  0
  186.7870  177.9930  145.3200 C   0  0  0  0  0  0  0  0  0  0  0  0
  186.5800  178.3520  147.7200 C   0  0  0  0  0  3  0  0  0  0  0  0
  188.0650  177.4530  145.5120 C   0  0  0  0  0  3  0  0  0  0  0  0
  186.7780  177.6700  142.7370 C   0  0  0  0  0  2  0  0  0  0  0  0
  186.2160  178.1000  144.0480 C   0  0  0  0  0  0  0  0  0  0  0  0
  184.2000  179.0710  144.9610 C   0  0  0  0  0  3  0  0  0  0  0  0
  184.5770  178.6260  142.5190 N   0  0  0  0  0  0  0  0  0  0  0  0
  185.6570  178.0240  141.7350 C   0  0  1  0  0  3  0  0  0  0  0  0
  184.7490  178.9780  146.2490 C   0  0  0  0  0  3  0  0  0  0  0  0
  185.3340  179.1200  139.5850 O   0  0  0  0  0  1  0  0  0  0  0  0
  186.2070  178.9760  140.6690 C   0  0  2  0  0  3  0  0  0  0  0  0
  187.5720  178.4950  140.1890 C   0  0  0  0  0  2  0  0  0  0  0  0
  187.4920  177.8960  138.7900 C   0  0  0  0  0  2  0  0  0  0  0  0
  188.6080  178.4470  137.9180 C   0  0  2  0  0  3  0  0  0  0  0  0
  188.4350  178.0020  136.4780 C   0  0  0  0  0  1  0  0  0  0  0  0
  190.0160  178.1340  138.4540 C   0  0  0  0  0  2  0  0  0  0  0  0
  190.3630  176.6550  138.7010 C   0  0  2  0  0  3  0  0  0  0  0  0
  190.8500  176.6230  142.5090 N   0  0  0  0  0  0  0  0  0  0  0  0
  191.0310  176.9800  141.1320 C   0  0  0  0  0  0  0  0  0  0  0  0
  190.2760  176.3140  140.1160 N   0  0  0  0  0  2  0  0  0  0  0  0
  189.8500  175.6380  142.8900 C   0  0  0  0  0  1  0  0  0  0  0  0
  191.8660  177.8710  140.8150 O   0  0  0  0  0  0  0  0  0  0  0  0
  191.6750  177.2200  143.5520 C   0  0  0  0  0  2  0  0  0  0  0  0
  191.6000  176.3960  144.8280 C   0  0  0  0  0  2  0  0  0  0  0  0
  192.0410  176.3280  146.9300 F   0  0  0  0  0  0  0  0  0  0  0  0
  191.9350  177.1850  145.9290 O   0  0  0  0  0  0  0  0  0  0  0  0
  191.7540  174.8360  137.7240 C   0  0  0  0  0  2  0  0  0  0  0  0
  191.7350  176.2920  138.1450 C   0  0  0  0  0  3  0  0  0  0  0  0
  191.6100  175.9220  136.6800 C   0  0  0  0  0  2  0  0  0  0  0  0
  183.1870  178.5850  142.0820 C   0  0  0  0  0  2  0  0  0  0  0  0
  183.0010  177.4820  141.0530 C   0  0  0  0  0  2  0  0  0  0  0  0
  180.1300  177.6090  138.7160 C   0  0  1  0  0  3  0  0  0  0  0  0
  180.7780  178.8090  138.7670 N   0  0  0  0  0  0  0  0  0  0  0  0
  180.5880  178.0040  137.4850 C   0  0  0  0  0  0  0  0  0  0  0  0
  181.1080  176.9450  139.5780 N   0  0  0  0  0  0  0  0  0  0  0  0
  181.9220  177.8550  140.1010 C   0  0  0  0  0  0  0  0  0  0  0  0
  180.9440  177.7150  136.2790 N   0  0  0  0  0  2  0  0  0  0  0  0
  181.7380  179.2260  139.6520 N   0  0  0  0  0  2  0  0  0  0  0  0
  1  5  1  0  0  0  0
  2 10  2  0  0  0  0
  2 11  1  0  0  0  0
  3  7  2  0  0  0  0
  4  1  2  0  0  0  0
  6  8  2  0  0  0  0
  6  3  1  0  0  0  0
  7  1  1  0  0  0  0
  8  4  1  0  0  0  0
  9 10  1  0  0  0  0
 10  6  1  0  0  0  0
 11 14  2  0  0  0  0
 12  2  1  0  0  0  0
 13 16  1  6  0  0  0
 13 12  1  0  0  0  0
 13  9  1  0  0  0  0
 14  3  1  0  0  0  0
 16 15  1  6  0  0  0
 17 16  1  0  0  0  0
 18 17  1  0  0  0  0
 19 20  1  6  0  0  0
 19 21  1  0  0  0  0
 19 18  1  0  0  0  0
 22 21  1  1  0  0  0
 22 25  1  0  0  0  0
 23 26  1  0  0  0  0
 23 28  1  0  0  0  0
 24 23  1  0  0  0  0
 25 24  1  0  0  0  0
 27 24  2  0  0  0  0
 28 29  1  0  0  0  0
 29 31  1  0  0  0  0
 31 30  1  0  0  0  0
 32 33  1  0  0  0  0
 33 22  1  0  0  0  0
 34 32  1  0  0  0  0
 34 33  1  0  0  0  0
 35 12  1  0  0  0  0
 36 35  1  0  0  0  0
 37 39  1  6  0  0  0
 37 38  1  0  0  0  0
 37 40  1  0  0  0  0
 38 43  1  0  0  0  0
 39 38  1  0  0  0  0
 40 41  2  0  0  0  0
 41 36  1  0  0  0  0
 42 39  2  0  0  0  0
 43 41  1  0  0  0  0
M  END
>  <MODEL>
3

>  <REMARK>
 VINA RESULT:      -7.9      1.688      2.081
  Name = 
  14 active torsions:
  status: ('A' for Active; 'I' for Inactive)
    1  A    between atoms: C_1  and  C_28
    2  A    between atoms: C_1  and  N_34
    3  A    between atoms: C_2  and  C_6
    4  A    between atoms: C_2  and  C_13
    5  A    between atoms: C_3  and  C_4
    6  A    between atoms: C_3  and  C_12
    7  A    between atoms: C_4  and  C_15
    8  A    between atoms: C_4  and  N_22
    9  A    between atoms: C_6  and  C_12
   10  A    between atoms: N_11  and  C_40
   11  A    between atoms: C_13  and  C_38
   12  A    between atoms: C_26  and  O_31
   13  A    between atoms: C_26  and  C_40
   14  A    between atoms: C_28  and  C_35
                            x       y       z     vdW  Elec       q    Type
                         _______ _______ _______ _____ _____    ______ ____

>  <TORSDO>
F 14

$$$$
=
 OpenBabel10272414273D

 43 48  0  0  1  0  0  0  0  0999 V2000
  191.2400  176.8100  147.3730 C   0  0  0  0  0  0  0  0  0  0  0  0
  186.8760  177.9660  145.1770 C   0  0  0  0  0  0  0  0  0  0  0  0
  188.9640  177.5220  146.9550 C   0  0  0  0  0  0  0  0  0  0  0  0
  191.4150  176.5420  146.0110 C   0  0  0  0  0  3  0  0  0  0  0  0
  192.2590  176.5950  148.2390 F   0  0  0  0  0  0  0  0  0  0  0  0
  189.1420  177.2540  145.5730 C   0  0  0  0  0  0  0  0  0  0  0  0
  190.0160  177.2970  147.8450 C   0  0  0  0  0  3  0  0  0  0  0  0
  190.3690  176.7630  145.1100 C   0  0  0  0  0  3  0  0  0  0  0  0
  187.9920  177.2590  143.2370 C   0  0  0  0  0  2  0  0  0  0  0  0
  188.0700  177.4900  144.7070 C   0  0  0  0  0  0  0  0  0  0  0  0
  186.6700  178.2290  146.5330 C   0  0  0  0  0  3  0  0  0  0  0  0
  185.9280  178.1160  144.1370 N   0  0  0  0  0  0  0  0  0  0  0  0
  186.5480  177.6760  142.8850 C   0  0  1  0  0  3  0  0  0  0  0  0
  187.7300  178.0050  147.4250 C   0  0  0  0  0  3  0  0  0  0  0  0
  185.5130  178.6850  140.9260 O   0  0  0  0  0  1  0  0  0  0  0  0
  186.5790  178.7830  141.8270 C   0  0  2  0  0  3  0  0  0  0  0  0
  187.9070  178.7560  141.0800 C   0  0  0  0  0  2  0  0  0  0  0  0
  187.7770  178.0520  139.7340 C   0  0  0  0  0  2  0  0  0  0  0  0
  189.0900  177.3880  139.3590 C   0  0  2  0  0  3  0  0  0  0  0  0
  190.0750  177.4530  140.5120 C   0  0  0  0  0  1  0  0  0  0  0  0
  189.6970  177.9250  138.0500 C   0  0  0  0  0  2  0  0  0  0  0  0
  189.8530  176.9300  136.8860 C   0  0  2  0  0  3  0  0  0  0  0  0
  193.2210  175.0910  137.0140 N   0  0  0  0  0  0  0  0  0  0  0  0
  191.8560  175.4220  137.3040 C   0  0  0  0  0  0  0  0  0  0  0  0
  191.2480  176.5580  136.6840 N   0  0  0  0  0  2  0  0  0  0  0  0
  193.9740  175.8610  136.0370 C   0  0  0  0  0  1  0  0  0  0  0  0
  191.1950  174.7180  138.1160 O   0  0  0  0  0  0  0  0  0  0  0  0
  193.8890  173.9950  137.7050 C   0  0  0  0  0  2  0  0  0  0  0  0
  194.6910  173.1560  136.7220 C   0  0  0  0  0  2  0  0  0  0  0  0
  193.4590  171.5660  135.9670 F   0  0  0  0  0  0  0  0  0  0  0  0
  194.3820  171.8050  136.8820 O   0  0  0  0  0  0  0  0  0  0  0  0
  189.8610  176.7580  134.4030 C   0  0  0  0  0  2  0  0  0  0  0  0
  189.2480  177.4670  135.5950 C   0  0  0  0  0  3  0  0  0  0  0  0
  188.4850  176.3610  134.8910 C   0  0  0  0  0  2  0  0  0  0  0  0
  184.4880  178.0560  144.3510 C   0  0  0  0  0  2  0  0  0  0  0  0
  183.8510  179.3800  143.9630 C   0  0  0  0  0  2  0  0  0  0  0  0
  181.2220  178.7290  141.4360 C   0  0  1  0  0  3  0  0  0  0  0  0
  180.6760  179.0020  142.6570 N   0  0  0  0  0  0  0  0  0  0  0  0
  180.3780  179.8100  141.3970 C   0  0  0  0  0  0  0  0  0  0  0  0
  182.5870  179.0010  141.8880 N   0  0  0  0  0  0  0  0  0  0  0  0
  182.5930  179.1340  143.2100 C   0  0  0  0  0  0  0  0  0  0  0  0
  179.9830  180.9000  140.8310 N   0  0  0  0  0  2  0  0  0  0  0  0
  181.3010  179.0850  143.8740 N   0  0  0  0  0  2  0  0  0  0  0  0
  1  7  1  0  0  0  0
  1  5  1  0  0  0  0
  2 11  1  0  0  0  0
  3 14  1  0  0  0  0
  3  7  2  0  0  0  0
  4  1  2  0  0  0  0
  6  3  1  0  0  0  0
  8  6  2  0  0  0  0
  8  4  1  0  0  0  0
  9 10  1  0  0  0  0
 10  2  2  0  0  0  0
 10  6  1  0  0  0  0
 11 14  2  0  0  0  0
 12 35  1  0  0  0  0
 12  2  1  0  0  0  0
 13 16  1  6  0  0  0
 13  9  1  0  0  0  0
 13 12  1  0  0  0  0
 16 15  1  6  0  0  0
 17 16  1  0  0  0  0
 18 17  1  0  0  0  0
 19 18  1  0  0  0  0
 19 20  1  1  0  0  0
 21 19  1  0  0  0  0
 22 21  1  1  0  0  0
 23 24  1  0  0  0  0
 23 28  1  0  0  0  0
 24 27  2  0  0  0  0
 25 22  1  0  0  0  0
 25 24  1  0  0  0  0
 26 23  1  0  0  0  0
 29 31  1  0  0  0  0
 29 28  1  0  0  0  0
 30 31  1  0  0  0  0
 32 34  1  0  0  0  0
 32 33  1  0  0  0  0
 33 22  1  0  0  0  0
 34 33  1  0  0  0  0
 36 35  1  0  0  0  0
 37 39  1  6  0  0  0
 37 40  1  0  0  0  0
 37 38  1  0  0  0  0
 38 43  1  0  0  0  0
 39 38  1  0  0  0  0
 40 41  2  0  0  0  0
 41 43  1  0  0  0  0
 41 36  1  0  0  0  0
 42 39  2  0  0  0  0
M  END
>  <MODEL>
4

>  <REMARK>
 VINA RESULT:      -7.7      3.332      5.088
  Name = 
  14 active torsions:
  status: ('A' for Active; 'I' for Inactive)
    1  A    between atoms: C_1  and  C_28
    2  A    between atoms: C_1  and  N_34
    3  A    between atoms: C_2  and  C_6
    4  A    between atoms: C_2  and  C_13
    5  A    between atoms: C_3  and  C_4
    6  A    between atoms: C_3  and  C_12
    7  A    between atoms: C_4  and  C_15
    8  A    between atoms: C_4  and  N_22
    9  A    between atoms: C_6  and  C_12
   10  A    between atoms: N_11  and  C_40
   11  A    between atoms: C_13  and  C_38
   12  A    between atoms: C_26  and  O_31
   13  A    between atoms: C_26  and  C_40
   14  A    between atoms: C_28  and  C_35
                            x       y       z     vdW  Elec       q    Type
                         _______ _______ _______ _____ _____    ______ ____

>  <TORSDO>
F 14

$$$$
=
 OpenBabel10272414273D

 43 48  0  0  1  0  0  0  0  0999 V2000
  184.2120  178.9680  144.6950 C   0  0  0  0  0  0  0  0  0  0  0  0
  188.2280  177.0840  142.3450 C   0  0  0  0  0  0  0  0  0  0  0  0
  186.1830  177.6820  144.1280 C   0  0  0  0  0  0  0  0  0  0  0  0
  184.2990  179.6530  143.4780 C   0  0  0  0  0  3  0  0  0  0  0  0
  183.2130  179.2590  145.5620 F   0  0  0  0  0  0  0  0  0  0  0  0
  186.2690  178.3730  142.8910 C   0  0  0  0  0  0  0  0  0  0  0  0
  185.1530  177.9860  145.0210 C   0  0  0  0  0  3  0  0  0  0  0  0
  185.3250  179.3570  142.5760 C   0  0  0  0  0  3  0  0  0  0  0  0
  187.6380  178.6430  140.6930 C   0  0  0  0  0  2  0  0  0  0  0  0
  187.3120  178.0460  142.0190 C   0  0  0  0  0  0  0  0  0  0  0  0
  188.1730  176.3950  143.5590 C   0  0  0  0  0  3  0  0  0  0  0  0
  189.2020  176.9240  141.3310 N   0  0  0  0  0  0  0  0  0  0  0  0
  188.9100  177.8820  140.2620 C   0  0  1  0  0  3  0  0  0  0  0  0
  187.1360  176.7000  144.4540 C   0  0  0  0  0  3  0  0  0  0  0  0
  189.7900  176.5010  138.4600 O   0  0  0  0  0  1  0  0  0  0  0  0
  188.6640  177.1970  138.9140 C   0  0  2  0  0  3  0  0  0  0  0  0
  188.2230  178.2240  137.8780 C   0  0  0  0  0  2  0  0  0  0  0  0
  186.8820  177.8490  137.2570 C   0  0  0  0  0  2  0  0  0  0  0  0
  187.0590  176.7110  136.2680 C   0  0  2  0  0  3  0  0  0  0  0  0
  186.5640  177.1120  134.8910 C   0  0  0  0  0  1  0  0  0  0  0  0
  186.4390  175.3840  136.7410 C   0  0  0  0  0  2  0  0  0  0  0  0
  184.9630  175.1300  136.3840 C   0  0  2  0  0  3  0  0  0  0  0  0
  182.4460  176.9610  138.6320 N   0  0  0  0  0  0  0  0  0  0  0  0
  183.3380  176.7070  137.5370 C   0  0  0  0  0  0  0  0  0  0  0  0
  184.0780  175.4850  137.4870 N   0  0  0  0  0  2  0  0  0  0  0  0
  182.2330  175.9520  139.6570 C   0  0  0  0  0  1  0  0  0  0  0  0
  183.4780  177.5680  136.6250 O   0  0  0  0  0  0  0  0  0  0  0  0
  181.7540  178.2370  138.7530 C   0  0  0  0  0  2  0  0  0  0  0  0
  182.4720  179.1420  139.7420 C   0  0  0  0  0  2  0  0  0  0  0  0
  184.5820  179.3200  139.3780 F   0  0  0  0  0  0  0  0  0  0  0  0
  183.4350  179.9060  139.0820 O   0  0  0  0  0  0  0  0  0  0  0  0
  183.2360  173.4270  135.8250 C   0  0  0  0  0  2  0  0  0  0  0  0
  184.7240  173.6900  135.9460 C   0  0  0  0  0  3  0  0  0  0  0  0
  184.0610  173.6760  134.5820 C   0  0  0  0  0  2  0  0  0  0  0  0
  190.5500  176.4330  141.5850 C   0  0  0  0  0  2  0  0  0  0  0  0
  191.4230  177.5640  142.1040 C   0  0  0  0  0  2  0  0  0  0  0  0
  191.7660  176.4540  145.6210 C   0  0  1  0  0  3  0  0  0  0  0  0
  191.6740  177.8130  145.5400 N   0  0  0  0  0  0  0  0  0  0  0  0
  190.7050  176.9460  146.3380 C   0  0  0  0  0  0  0  0  0  0  0  0
  191.5350  176.2650  144.1890 N   0  0  0  0  0  0  0  0  0  0  0  0
  191.5850  177.4430  143.5770 C   0  0  0  0  0  0  0  0  0  0  0  0
  189.5540  176.7710  146.8960 N   0  0  0  0  0  2  0  0  0  0  0  0
  191.7490  178.6110  144.4270 N   0  0  0  0  0  2  0  0  0  0  0  0
  1  7  1  0  0  0  0
  1  5  1  0  0  0  0
  2 11  1  0  0  0  0
  3 14  1  0  0  0  0
  3  7  2  0  0  0  0
  4  1  2  0  0  0  0
  6  3  1  0  0  0  0
  8  6  2  0  0  0  0
  8  4  1  0  0  0  0
  9 10  1  0  0  0  0
 10  2  2  0  0  0  0
 10  6  1  0  0  0  0
 11 14  2  0  0  0  0
 12 35  1  0  0  0  0
 12  2  1  0  0  0  0
 13 16  1  6  0  0  0
 13  9  1  0  0  0  0
 13 12  1  0  0  0  0
 16 15  1  6  0  0  0
 17 16  1  0  0  0  0
 18 17  1  0  0  0  0
 19 20  1  6  0  0  0
 19 21  1  0  0  0  0
 19 18  1  0  0  0  0
 22 21  1  1  0  0  0
 22 25  1  0  0  0  0
 23 28  1  0  0  0  0
 23 26  1  0  0  0  0
 24 23  1  0  0  0  0
 25 24  1  0  0  0  0
 27 24  2  0  0  0  0
 28 29  1  0  0  0  0
 31 30  1  0  0  0  0
 31 29  1  0  0  0  0
 32 33  1  0  0  0  0
 33 22  1  0  0  0  0
 34 32  1  0  0  0  0
 34 33  1  0  0  0  0
 35 36  1  0  0  0  0
 36 41  1  0  0  0  0
 37 40  1  6  0  0  0
 37 39  1  0  0  0  0
 38 37  1  0  0  0  0
 38 39  1  0  0  0  0
 39 42  2  0  0  0  0
 41 40  2  0  0  0  0
 41 43  1  0  0  0  0
 43 38  1  0  0  0  0
M  END
>  <MODEL>
5

>  <REMARK>
 VINA RESULT:      -7.7      2.771      7.560
  Name = 
  14 active torsions:
  status: ('A' for Active; 'I' for Inactive)
    1  A    between atoms: C_1  and  C_28
    2  A    between atoms: C_1  and  N_34
    3  A    between atoms: C_2  and  C_6
    4  A    between atoms: C_2  and  C_13
    5  A    between atoms: C_3  and  C_4
    6  A    between atoms: C_3  and  C_12
    7  A    between atoms: C_4  and  C_15
    8  A    between atoms: C_4  and  N_22
    9  A    between atoms: C_6  and  C_12
   10  A    between atoms: N_11  and  C_40
   11  A    between atoms: C_13  and  C_38
   12  A    between atoms: C_26  and  O_31
   13  A    between atoms: C_26  and  C_40
   14  A    between atoms: C_28  and  C_35
                            x       y       z     vdW  Elec       q    Type
                         _______ _______ _______ _____ _____    ______ ____

>  <TORSDO>
F 14

$$$$
=
 OpenBabel10272414273D

 43 48  0  0  1  0  0  0  0  0999 V2000
  191.4380  176.5180  147.4610 C   0  0  0  0  0  0  0  0  0  0  0  0
  187.9000  177.6250  144.0760 C   0  0  0  0  0  0  0  0  0  0  0  0
  189.3840  177.2200  146.3890 C   0  0  0  0  0  0  0  0  0  0  0  0
  191.9960  176.2190  146.2130 C   0  0  0  0  0  3  0  0  0  0  0  0
  192.1640  176.3220  148.5880 F   0  0  0  0  0  0  0  0  0  0  0  0
  189.9510  176.9210  145.1230 C   0  0  0  0  0  0  0  0  0  0  0  0
  190.1340  177.0160  147.5500 C   0  0  0  0  0  3  0  0  0  0  0  0
  191.2560  176.4200  145.0450 C   0  0  0  0  0  3  0  0  0  0  0  0
  189.5220  176.8730  142.5560 C   0  0  0  0  0  2  0  0  0  0  0  0
  189.1750  177.1370  143.9800 C   0  0  0  0  0  0  0  0  0  0  0  0
  187.3140  177.9190  145.3100 C   0  0  0  0  0  3  0  0  0  0  0  0
  187.2920  177.7520  142.8050 N   0  0  0  0  0  0  0  0  0  0  0  0
  188.2430  177.2820  141.7940 C   0  0  1  0  0  3  0  0  0  0  0  0
  188.0700  177.7150  146.4740 C   0  0  0  0  0  3  0  0  0  0  0  0
  188.0620  179.6140  141.1170 O   0  0  0  0  0  1  0  0  0  0  0  0
  188.5850  178.3650  140.7660 C   0  0  2  0  0  3  0  0  0  0  0  0
  188.0880  177.9520  139.3850 C   0  0  0  0  0  2  0  0  0  0  0  0
  189.0520  178.3930  138.2900 C   0  0  0  0  0  2  0  0  0  0  0  0
  188.3320  178.4690  136.9550 C   0  0  2  0  0  3  0  0  0  0  0  0
  186.8320  178.3410  137.1450 C   0  0  0  0  0  1  0  0  0  0  0  0
  188.8690  177.4740  135.9100 C   0  0  0  0  0  2  0  0  0  0  0  0
  189.3730  176.1140  136.4270 C   0  0  2  0  0  3  0  0  0  0  0  0
  193.0910  175.3770  137.0330 N   0  0  0  0  0  0  0  0  0  0  0  0
  191.6900  175.5350  137.2950 C   0  0  0  0  0  0  0  0  0  0  0  0
  190.8140  175.9800  136.2560 N   0  0  0  0  0  2  0  0  0  0  0  0
  193.6200  175.5980  135.6970 C   0  0  0  0  0  1  0  0  0  0  0  0
  191.2310  175.2920  138.4460 O   0  0  0  0  0  0  0  0  0  0  0  0
  194.0160  175.0160  138.1000 C   0  0  0  0  0  2  0  0  0  0  0  0
  195.3790  174.6590  137.5270 C   0  0  0  0  0  2  0  0  0  0  0  0
  195.8780  174.3650  139.5960 F   0  0  0  0  0  0  0  0  0  0  0  0
  196.3730  174.8760  138.4820 O   0  0  0  0  0  0  0  0  0  0  0  0
  188.3870  173.8580  136.7880 C   0  0  0  0  0  2  0  0  0  0  0  0
  188.6420  174.9500  135.7680 C   0  0  0  0  0  3  0  0  0  0  0  0
  187.2670  174.7940  136.3890 C   0  0  0  0  0  2  0  0  0  0  0  0
  185.8510  177.6970  142.5970 C   0  0  0  0  0  2  0  0  0  0  0  0
  185.3410  179.0570  142.1480 C   0  0  0  0  0  2  0  0  0  0  0  0
  182.7850  178.1710  139.6180 C   0  0  1  0  0  3  0  0  0  0  0  0
  183.7880  178.9140  139.0660 N   0  0  0  0  0  0  0  0  0  0  0  0
  183.4050  177.5190  138.5820 C   0  0  0  0  0  0  0  0  0  0  0  0
  183.4490  178.0800  140.9190 N   0  0  0  0  0  0  0  0  0  0  0  0
  184.4900  178.9040  140.9380 C   0  0  0  0  0  0  0  0  0  0  0  0
  183.7030  176.4240  137.9690 N   0  0  0  0  0  2  0  0  0  0  0  0
  184.7890  179.6050  139.7000 N   0  0  0  0  0  2  0  0  0  0  0  0
  1  7  1  0  0  0  0
  1  5  1  0  0  0  0
  2 11  1  0  0  0  0
  3 14  1  0  0  0  0
  3  7  2  0  0  0  0
  4  1  2  0  0  0  0
  6  3  1  0  0  0  0
  8  6  2  0  0  0  0
  8  4  1  0  0  0  0
  9 10  1  0  0  0  0
 10  2  2  0  0  0  0
 10  6  1  0  0  0  0
 11 14  2  0  0  0  0
 12  2  1  0  0  0  0
 13 16  1  6  0  0  0
 13  9  1  0  0  0  0
 13 12  1  0  0  0  0
 16 15  1  1  0  0  0
 17 16  1  0  0  0  0
 18 17  1  0  0  0  0
 19 20  1  1  0  0  0
 19 18  1  0  0  0  0
 21 19  1  0  0  0  0
 22 21  1  6  0  0  0
 23 24  1  0  0  0  0
 23 28  1  0  0  0  0
 24 27  2  0  0  0  0
 25 22  1  0  0  0  0
 25 24  1  0  0  0  0
 26 23  1  0  0  0  0
 29 28  1  0  0  0  0
 29 31  1  0  0  0  0
 31 30  1  0  0  0  0
 33 34  1  0  0  0  0
 33 22  1  0  0  0  0
 33 32  1  0  0  0  0
 34 32  1  0  0  0  0
 35 12  1  0  0  0  0
 36 35  1  0  0  0  0
 37 39  1  6  0  0  0
 37 40  1  0  0  0  0
 38 37  1  0  0  0  0
 38 43  1  0  0  0  0
 39 38  1  0  0  0  0
 40 41  2  0  0  0  0
 41 36  1  0  0  0  0
 42 39  2  0  0  0  0
 43 41  1  0  0  0  0
M  END
>  <MODEL>
6

>  <REMARK>
 VINA RESULT:      -7.5      3.010      4.469
  Name = 
  14 active torsions:
  status: ('A' for Active; 'I' for Inactive)
    1  A    between atoms: C_1  and  C_28
    2  A    between atoms: C_1  and  N_34
    3  A    between atoms: C_2  and  C_6
    4  A    between atoms: C_2  and  C_13
    5  A    between atoms: C_3  and  C_4
    6  A    between atoms: C_3  and  C_12
    7  A    between atoms: C_4  and  C_15
    8  A    between atoms: C_4  and  N_22
    9  A    between atoms: C_6  and  C_12
   10  A    between atoms: N_11  and  C_40
   11  A    between atoms: C_13  and  C_38
   12  A    between atoms: C_26  and  O_31
   13  A    between atoms: C_26  and  C_40
   14  A    between atoms: C_28  and  C_35
                            x       y       z     vdW  Elec       q    Type
                         _______ _______ _______ _____ _____    ______ ____

>  <TORSDO>
F 14

$$$$
=
 OpenBabel10272414273D

 43 48  0  0  1  0  0  0  0  0999 V2000
  193.9830  173.7520  136.6700 C   0  0  0  0  0  0  0  0  0  0  0  0
  189.3280  175.4070  137.5620 C   0  0  0  0  0  0  0  0  0  0  0  0
  191.5740  173.9790  136.7680 C   0  0  0  0  0  0  0  0  0  0  0  0
  194.1330  174.9580  137.3620 C   0  0  0  0  0  3  0  0  0  0  0  0
  195.0790  173.0550  136.2850 F   0  0  0  0  0  0  0  0  0  0  0  0
  191.7260  175.2000  137.4740 C   0  0  0  0  0  0  0  0  0  0  0  0
  192.7070  173.2630  136.3710 C   0  0  0  0  0  3  0  0  0  0  0  0
  193.0070  175.6830  137.7650 C   0  0  0  0  0  3  0  0  0  0  0  0
  190.4640  177.1970  138.5680 C   0  0  0  0  0  2  0  0  0  0  0  0
  190.5730  175.8930  137.8580 C   0  0  0  0  0  0  0  0  0  0  0  0
  189.1500  174.2130  136.8600 C   0  0  0  0  0  3  0  0  0  0  0  0
  188.3080  176.2690  138.0270 N   0  0  0  0  0  0  0  0  0  0  0  0
  188.9410  177.4300  138.6580 C   0  0  1  0  0  3  0  0  0  0  0  0
  190.2890  173.4940  136.4650 C   0  0  0  0  0  3  0  0  0  0  0  0
  188.2590  178.9220  140.4570 O   0  0  0  0  0  1  0  0  0  0  0  0
  188.5340  177.5910  140.1260 C   0  0  2  0  0  3  0  0  0  0  0  0
  189.6230  177.0330  141.0360 C   0  0  0  0  0  2  0  0  0  0  0  0
  189.9890  178.0200  142.1390 C   0  0  0  0  0  2  0  0  0  0  0  0
  191.1180  177.4630  142.9890 C   0  0  2  0  0  3  0  0  0  0  0  0
  191.1080  175.9460  142.9690 C   0  0  0  0  0  1  0  0  0  0  0  0
  191.1380  178.0220  144.4230 C   0  0  0  0  0  2  0  0  0  0  0  0
  190.5870  177.1180  145.5400 C   0  0  2  0  0  3  0  0  0  0  0  0
  186.8750  177.8680  146.1680 N   0  0  0  0  0  0  0  0  0  0  0  0
  188.0570  177.3540  145.5380 C   0  0  0  0  0  0  0  0  0  0  0  0
  189.3440  177.6440  146.0890 N   0  0  0  0  0  2  0  0  0  0  0  0
  186.9690  178.6240  147.4060 C   0  0  0  0  0  1  0  0  0  0  0  0
  187.9620  176.6550  144.4910 O   0  0  0  0  0  0  0  0  0  0  0  0
  185.5600  177.6640  145.5720 C   0  0  0  0  0  2  0  0  0  0  0  0
  184.5870  178.7300  146.0500 C   0  0  0  0  0  2  0  0  0  0  0  0
  184.2600  180.0860  144.4160 F   0  0  0  0  0  0  0  0  0  0  0  0
  183.6960  179.0590  145.0280 O   0  0  0  0  0  0  0  0  0  0  0  0
  191.1520  175.7680  147.5530 C   0  0  0  0  0  2  0  0  0  0  0  0
  191.6110  176.8920  146.6460 C   0  0  0  0  0  3  0  0  0  0  0  0
  192.2150  175.5080  146.5080 C   0  0  0  0  0  2  0  0  0  0  0  0
  186.9840  176.3440  137.4220 C   0  0  0  0  0  2  0  0  0  0  0  0
  186.6130  177.7950  137.1640 C   0  0  0  0  0  2  0  0  0  0  0  0
  183.9720  179.2880  139.2880 C   0  0  1  0  0  3  0  0  0  0  0  0
  183.5770  178.0830  138.7850 N   0  0  0  0  0  0  0  0  0  0  0  0
  183.6500  178.3940  140.2770 C   0  0  0  0  0  0  0  0  0  0  0  0
  185.3230  179.1740  138.7390 N   0  0  0  0  0  0  0  0  0  0  0  0
  185.3720  178.1400  137.9070 C   0  0  0  0  0  0  0  0  0  0  0  0
  183.7450  177.9980  141.5010 N   0  0  0  0  0  2  0  0  0  0  0  0
  184.1700  177.3300  137.8040 N   0  0  0  0  0  2  0  0  0  0  0  0
  1  4  1  0  0  0  0
  2 10  1  0  0  0  0
  2 12  1  0  0  0  0
  3  6  1  0  0  0  0
  4  8  2  0  0  0  0
  5  1  1  0  0  0  0
  6  8  1  0  0  0  0
  6 10  2  0  0  0  0
  7  1  2  0  0  0  0
  7  3  1  0  0  0  0
  9 13  1  0  0  0  0
 10  9  1  0  0  0  0
 11  2  2  0  0  0  0
 12 13  1  0  0  0  0
 13 16  1  1  0  0  0
 14  3  2  0  0  0  0
 14 11  1  0  0  0  0
 16 15  1  1  0  0  0
 16 17  1  0  0  0  0
 17 18  1  0  0  0  0
 18 19  1  0  0  0  0
 19 20  1  1  0  0  0
 19 21  1  0  0  0  0
 22 21  1  6  0  0  0
 22 25  1  0  0  0  0
 22 33  1  0  0  0  0
 23 26  1  0  0  0  0
 24 25  1  0  0  0  0
 24 23  1  0  0  0  0
 27 24  2  0  0  0  0
 28 29  1  0  0  0  0
 28 23  1  0  0  0  0
 30 31  1  0  0  0  0
 31 29  1  0  0  0  0
 33 32  1  0  0  0  0
 34 33  1  0  0  0  0
 34 32  1  0  0  0  0
 35 12  1  0  0  0  0
 36 35  1  0  0  0  0
 36 41  1  0  0  0  0
 37 40  1  1  0  0  0
 37 39  1  0  0  0  0
 38 37  1  0  0  0  0
 38 39  1  0  0  0  0
 39 42  2  0  0  0  0
 41 40  2  0  0  0  0
 43 41  1  0  0  0  0
 43 38  1  0  0  0  0
M  END
>  <MODEL>
7

>  <REMARK>
 VINA RESULT:      -7.3      3.101      8.106
  Name = 
  14 active torsions:
  status: ('A' for Active; 'I' for Inactive)
    1  A    between atoms: C_1  and  C_28
    2  A    between atoms: C_1  and  N_34
    3  A    between atoms: C_2  and  C_6
    4  A    between atoms: C_2  and  C_13
    5  A    between atoms: C_3  and  C_4
    6  A    between atoms: C_3  and  C_12
    7  A    between atoms: C_4  and  C_15
    8  A    between atoms: C_4  and  N_22
    9  A    between atoms: C_6  and  C_12
   10  A    between atoms: N_11  and  C_40
   11  A    between atoms: C_13  and  C_38
   12  A    between atoms: C_26  and  O_31
   13  A    between atoms: C_26  and  C_40
   14  A    between atoms: C_28  and  C_35
                            x       y       z     vdW  Elec       q    Type
                         _______ _______ _______ _____ _____    ______ ____

>  <TORSDO>
F 14

$$$$
=
 OpenBabel10272414273D

 43 48  0  0  1  0  0  0  0  0999 V2000
  188.1920  178.0360  148.1640 C   0  0  0  0  0  0  0  0  0  0  0  0
  185.5650  178.3660  143.8990 C   0  0  0  0  0  0  0  0  0  0  0  0
  186.4400  178.4080  146.5350 C   0  0  0  0  0  0  0  0  0  0  0  0
  189.0600  177.6210  147.1480 C   0  0  0  0  0  3  0  0  0  0  0  0
  188.6200  178.0580  149.4490 F   0  0  0  0  0  0  0  0  0  0  0  0
  187.3210  177.9900  145.5040 C   0  0  0  0  0  0  0  0  0  0  0  0
  186.8840  178.4270  147.8600 C   0  0  0  0  0  3  0  0  0  0  0  0
  188.6270  177.5980  145.8190 C   0  0  0  0  0  3  0  0  0  0  0  0
  187.5530  177.5590  142.9460 C   0  0  0  0  0  2  0  0  0  0  0  0
  186.8460  177.9820  144.1880 C   0  0  0  0  0  0  0  0  0  0  0  0
  184.6740  178.7720  144.8950 C   0  0  0  0  0  3  0  0  0  0  0  0
  185.2900  178.2670  142.5150 N   0  0  0  0  0  0  0  0  0  0  0  0
  186.4870  177.7500  141.8460 C   0  0  1  0  0  3  0  0  0  0  0  0
  185.1240  178.7930  146.2250 C   0  0  0  0  0  3  0  0  0  0  0  0
  186.4950  178.4380  139.5110 O   0  0  0  0  0  1  0  0  0  0  0  0
  187.0210  178.7090  140.7780 C   0  0  2  0  0  3  0  0  0  0  0  0
  188.5440  178.6570  140.7410 C   0  0  0  0  0  2  0  0  0  0  0  0
  189.0550  178.2310  139.3700 C   0  0  0  0  0  2  0  0  0  0  0  0
  189.8040  176.9130  139.4740 C   0  0  2  0  0  3  0  0  0  0  0  0
  190.8790  176.9890  140.5420 C   0  0  0  0  0  1  0  0  0  0  0  0
  190.3600  176.4160  138.1280 C   0  0  0  0  0  2  0  0  0  0  0  0
  189.3590  176.2430  136.9720 C   0  0  2  0  0  3  0  0  0  0  0  0
  186.7450  173.4330  137.0870 N   0  0  0  0  0  0  0  0  0  0  0  0
  187.3030  174.7540  137.1070 C   0  0  0  0  0  0  0  0  0  0  0  0
  188.7190  174.9340  137.0120 N   0  0  0  0  0  2  0  0  0  0  0  0
  187.6020  172.2740  136.8980 C   0  0  0  0  0  1  0  0  0  0  0  0
  186.5460  175.7580  137.2220 O   0  0  0  0  0  0  0  0  0  0  0  0
  185.3160  173.2210  137.2770 C   0  0  0  0  0  2  0  0  0  0  0  0
  184.8190  172.0990  136.3790 C   0  0  0  0  0  2  0  0  0  0  0  0
  183.2250  171.5640  137.7170 F   0  0  0  0  0  0  0  0  0  0  0  0
  183.4320  171.9820  136.4800 O   0  0  0  0  0  0  0  0  0  0  0  0
  188.9980  176.2560  134.5100 C   0  0  0  0  0  2  0  0  0  0  0  0
  190.0100  176.4830  135.6160 C   0  0  0  0  0  3  0  0  0  0  0  0
  189.3490  177.6660  134.9340 C   0  0  0  0  0  2  0  0  0  0  0  0
  183.9520  178.0610  141.9760 C   0  0  0  0  0  2  0  0  0  0  0  0
  183.6660  179.0870  140.8920 C   0  0  0  0  0  2  0  0  0  0  0  0
  181.0960  177.2530  138.9550 C   0  0  1  0  0  3  0  0  0  0  0  0
  181.9990  177.8550  138.1290 N   0  0  0  0  0  0  0  0  0  0  0  0
  181.7280  176.3530  138.1340 C   0  0  0  0  0  0  0  0  0  0  0  0
  181.8220  177.6300  140.1680 N   0  0  0  0  0  0  0  0  0  0  0  0
  182.7810  178.4930  139.8550 C   0  0  0  0  0  0  0  0  0  0  0  0
  182.1000  175.1460  137.8750 N   0  0  0  0  0  2  0  0  0  0  0  0
  182.9580  178.7840  138.4410 N   0  0  0  0  0  2  0  0  0  0  0  0
  1  5  1  0  0  0  0
  2 10  2  0  0  0  0
  2 11  1  0  0  0  0
  3  7  2  0  0  0  0
  4  1  2  0  0  0  0
  6  8  2  0  0  0  0
  6  3  1  0  0  0  0
  7  1  1  0  0  0  0
  8  4  1  0  0  0  0
  9 10  1  0  0  0  0
 10  6  1  0  0  0  0
 11 14  2  0  0  0  0
 12  2  1  0  0  0  0
 13 16  1  6  0  0  0
 13 12  1  0  0  0  0
 13  9  1  0  0  0  0
 14  3  1  0  0  0  0
 16 15  1  6  0  0  0
 17 16  1  0  0  0  0
 18 19  1  0  0  0  0
 18 17  1  0  0  0  0
 19 20  1  1  0  0  0
 21 19  1  0  0  0  0
 22 25  1  0  0  0  0
 22 21  1  1  0  0  0
 23 24  1  0  0  0  0
 23 28  1  0  0  0  0
 24 27  2  0  0  0  0
 25 24  1  0  0  0  0
 26 23  1  0  0  0  0
 29 31  1  0  0  0  0
 29 28  1  0  0  0  0
 31 30  1  0  0  0  0
 32 34  1  0  0  0  0
 32 33  1  0  0  0  0
 33 22  1  0  0  0  0
 34 33  1  0  0  0  0
 35 12  1  0  0  0  0
 36 35  1  0  0  0  0
 37 39  1  6  0  0  0
 37 40  1  0  0  0  0
 38 39  1  0  0  0  0
 38 43  1  0  0  0  0
 38 37  1  0  0  0  0
 41 40  2  0  0  0  0
 41 36  1  0  0  0  0
 42 39  2  0  0  0  0
 43 41  1  0  0  0  0
M  END
>  <MODEL>
8

>  <REMARK>
 VINA RESULT:      -7.2      3.155      4.723
  Name = 
  14 active torsions:
  status: ('A' for Active; 'I' for Inactive)
    1  A    between atoms: C_1  and  C_28
    2  A    between atoms: C_1  and  N_34
    3  A    between atoms: C_2  and  C_6
    4  A    between atoms: C_2  and  C_13
    5  A    between atoms: C_3  and  C_4
    6  A    between atoms: C_3  and  C_12
    7  A    between atoms: C_4  and  C_15
    8  A    between atoms: C_4  and  N_22
    9  A    between atoms: C_6  and  C_12
   10  A    between atoms: N_11  and  C_40
   11  A    between atoms: C_13  and  C_38
   12  A    between atoms: C_26  and  O_31
   13  A    between atoms: C_26  and  C_40
   14  A    between atoms: C_28  and  C_35
                            x       y       z     vdW  Elec       q    Type
                         _______ _______ _______ _____ _____    ______ ____

>  <TORSDO>
F 14

$$$$
=
 OpenBabel10272414273D

 43 48  0  0  1  0  0  0  0  0999 V2000
  188.1410  178.0180  148.2800 C   0  0  0  0  0  0  0  0  0  0  0  0
  185.7030  178.3380  143.9040 C   0  0  0  0  0  0  0  0  0  0  0  0
  186.4630  178.3890  146.5750 C   0  0  0  0  0  0  0  0  0  0  0  0
  189.0500  177.5930  147.3050 C   0  0  0  0  0  3  0  0  0  0  0  0
  188.5140  178.0440  149.5820 F   0  0  0  0  0  0  0  0  0  0  0  0
  187.3850  177.9620  145.5850 C   0  0  0  0  0  0  0  0  0  0  0  0
  186.8500  178.4130  147.9170 C   0  0  0  0  0  3  0  0  0  0  0  0
  188.6750  177.5650  145.9580 C   0  0  0  0  0  3  0  0  0  0  0  0
  187.7260  177.5160  143.0420 C   0  0  0  0  0  2  0  0  0  0  0  0
  186.9680  177.9490  144.2500 C   0  0  0  0  0  0  0  0  0  0  0  0
  184.7720  178.7530  144.8590 C   0  0  0  0  0  3  0  0  0  0  0  0
  185.4880  178.2330  142.5100 N   0  0  0  0  0  0  0  0  0  0  0  0
  186.7090  177.7060  141.8960 C   0  0  1  0  0  3  0  0  0  0  0  0
  185.1640  178.7790  146.2060 C   0  0  0  0  0  3  0  0  0  0  0  0
  186.8180  178.3850  139.5600 O   0  0  0  0  0  1  0  0  0  0  0  0
  187.2940  178.6580  140.8470 C   0  0  2  0  0  3  0  0  0  0  0  0
  188.8170  178.5940  140.8730 C   0  0  0  0  0  2  0  0  0  0  0  0
  189.3770  178.0860  139.5500 C   0  0  0  0  0  2  0  0  0  0  0  0
  190.2380  176.8560  139.7810 C   0  0  2  0  0  3  0  0  0  0  0  0
  190.4030  176.5860  141.2650 C   0  0  0  0  0  1  0  0  0  0  0  0
  191.5910  176.9090  139.0490 C   0  0  0  0  0  2  0  0  0  0  0  0
  191.6570  176.2860  137.6430 C   0  0  2  0  0  3  0  0  0  0  0  0
  188.2590  175.1370  136.2740 N   0  0  0  0  0  0  0  0  0  0  0  0
  189.3760  175.9900  136.5620 C   0  0  0  0  0  0  0  0  0  0  0  0
  190.4640  175.5010  137.3500 N   0  0  0  0  0  2  0  0  0  0  0  0
  188.2560  173.7520  136.7170 C   0  0  0  0  0  1  0  0  0  0  0  0
  189.3920  177.1760  136.1300 O   0  0  0  0  0  0  0  0  0  0  0  0
  187.0970  175.6420  135.5530 C   0  0  0  0  0  2  0  0  0  0  0  0
  186.0010  176.0480  136.5260 C   0  0  0  0  0  2  0  0  0  0  0  0
  186.4340  177.8030  135.3650 F   0  0  0  0  0  0  0  0  0  0  0  0
  185.5530  177.3360  136.2320 O   0  0  0  0  0  0  0  0  0  0  0  0
  192.8980  174.7990  136.0800 C   0  0  0  0  0  2  0  0  0  0  0  0
  192.9130  175.4470  137.4510 C   0  0  0  0  0  3  0  0  0  0  0  0
  193.7480  176.0270  136.3250 C   0  0  0  0  0  2  0  0  0  0  0  0
  184.1730  178.0300  141.9140 C   0  0  0  0  0  2  0  0  0  0  0  0
  183.8580  179.1650  140.9550 C   0  0  0  0  0  2  0  0  0  0  0  0
  182.2630  177.9350  137.8470 C   0  0  1  0  0  3  0  0  0  0  0  0
  181.3280  178.2520  138.7880 N   0  0  0  0  0  0  0  0  0  0  0  0
  181.3820  178.8880  137.4020 C   0  0  0  0  0  0  0  0  0  0  0  0
  183.3760  178.4250  138.6600 N   0  0  0  0  0  0  0  0  0  0  0  0
  182.9410  178.6860  139.8880 C   0  0  0  0  0  0  0  0  0  0  0  0
  181.0930  179.8570  136.6010 N   0  0  0  0  0  2  0  0  0  0  0  0
  181.5130  178.5340  140.1170 N   0  0  0  0  0  2  0  0  0  0  0  0
  1  5  1  0  0  0  0
  2 10  2  0  0  0  0
  2 11  1  0  0  0  0
  3  7  2  0  0  0  0
  4  1  2  0  0  0  0
  6  8  2  0  0  0  0
  6  3  1  0  0  0  0
  7  1  1  0  0  0  0
  8  4  1  0  0  0  0
  9 10  1  0  0  0  0
 10  6  1  0  0  0  0
 11 14  2  0  0  0  0
 12  2  1  0  0  0  0
 13 16  1  6  0  0  0
 13 12  1  0  0  0  0
 13  9  1  0  0  0  0
 14  3  1  0  0  0  0
 16 15  1  6  0  0  0
 16 17  1  0  0  0  0
 18 19  1  0  0  0  0
 18 17  1  0  0  0  0
 19 20  1  1  0  0  0
 21 19  1  0  0  0  0
 22 21  1  1  0  0  0
 23 24  1  0  0  0  0
 23 26  1  0  0  0  0
 24 25  1  0  0  0  0
 25 22  1  0  0  0  0
 27 24  2  0  0  0  0
 28 23  1  0  0  0  0
 28 29  1  0  0  0  0
 30 31  1  0  0  0  0
 31 29  1  0  0  0  0
 32 34  1  0  0  0  0
 32 33  1  0  0  0  0
 33 22  1  0  0  0  0
 34 33  1  0  0  0  0
 35 12  1  0  0  0  0
 36 35  1  0  0  0  0
 37 39  1  6  0  0  0
 37 40  1  0  0  0  0
 37 38  1  0  0  0  0
 38 43  1  0  0  0  0
 39 38  1  0  0  0  0
 40 41  2  0  0  0  0
 41 43  1  0  0  0  0
 41 36  1  0  0  0  0
 42 39  2  0  0  0  0
M  END
>  <MODEL>
9

>  <REMARK>
 VINA RESULT:      -7.2      2.499      4.264
  Name = 
  14 active torsions:
  status: ('A' for Active; 'I' for Inactive)
    1  A    between atoms: C_1  and  C_28
    2  A    between atoms: C_1  and  N_34
    3  A    between atoms: C_2  and  C_6
    4  A    between atoms: C_2  and  C_13
    5  A    between atoms: C_3  and  C_4
    6  A    between atoms: C_3  and  C_12
    7  A    between atoms: C_4  and  C_15
    8  A    between atoms: C_4  and  N_22
    9  A    between atoms: C_6  and  C_12
   10  A    between atoms: N_11  and  C_40
   11  A    between atoms: C_13  and  C_38
   12  A    between atoms: C_26  and  O_31
   13  A    between atoms: C_26  and  C_40
   14  A    between atoms: C_28  and  C_35
                            x       y       z     vdW  Elec       q    Type
                         _______ _______ _______ _____ _____    ______ ____

>  <TORSDO>
F 14

$$$$
