=
 OpenBabel10272400283D

 31 35  0  0  0  0  0  0  0  0999 V2000
  188.4480  177.4530  144.1430 C   0  0  0  0  0  0  0  0  0  0  0  0
  187.2090  177.9330  144.6270 C   0  0  0  0  0  0  0  0  0  0  0  0
  185.8000  178.6080  146.4240 C   0  0  0  0  0  0  0  0  0  0  0  0
  189.5510  177.1550  144.9660 C   0  0  0  0  0  0  0  0  0  0  0  0
  190.9620  176.8370  146.6060 C   0  0  0  0  0  0  0  0  0  0  0  0
  186.9910  178.1460  145.9550 N   0  0  0  0  0  2  0  0  0  0  0  0
  189.8370  176.7720  142.2240 C   0  0  0  0  0  0  0  0  0  0  0  0
  186.3620  177.9930  142.3770 N   0  0  0  0  0  0  0  0  0  0  0  0
  185.6400  178.7920  147.6580 O   0  0  0  0  0  0  0  0  0  0  0  0
  190.8890  176.4990  143.1110 C   0  0  0  0  0  3  0  0  0  0  0  0
  188.6130  177.2510  142.7450 C   0  0  0  0  0  0  0  0  0  0  0  0
  189.6620  177.2600  146.3430 C   0  0  0  0  0  3  0  0  0  0  0  0
  184.7550  178.8790  145.5390 C   0  0  0  0  0  3  0  0  0  0  0  0
  190.7000  176.7010  144.4360 N   0  0  0  0  0  0  0  0  0  0  0  0
  191.5870  176.4960  145.4200 C   0  0  0  0  0  3  0  0  0  0  0  0
  187.5410  177.5340  141.8870 C   0  0  0  0  0  3  0  0  0  0  0  0
  186.1730  178.1970  143.7060 C   0  0  0  0  0  0  0  0  0  0  0  0
  184.9460  178.6710  144.1720 C   0  0  0  0  0  3  0  0  0  0  0  0
  192.0250  177.6650  140.4780 O   0  0  0  0  0  0  0  0  0  0  0  0
  191.0670  177.0210  139.9740 C   0  0  0  0  0  0  0  0  0  0  0  0
  189.9840  176.5740  140.8070 N   0  0  0  0  0  2  0  0  0  0  0  0
  191.1040  176.0330  135.7880 C   0  0  0  0  0  0  0  0  0  0  0  0
  191.9980  175.8220  138.0200 C   0  0  0  0  0  3  0  0  0  0  0  0
  188.8300  178.3980  138.0960 Cl  0  0  0  0  0  0  0  0  0  0  0  0
  191.1400  175.6750  134.3460 C   0  0  0  0  0  1  0  0  0  0  0  0
  192.0340  175.4830  136.6670 C   0  0  0  0  0  3  0  0  0  0  0  0
  190.0920  177.2690  137.6170 C   0  0  0  0  0  0  0  0  0  0  0  0
  191.0360  176.7140  138.5210 C   0  0  0  0  0  0  0  0  0  0  0  0
  190.1390  176.9220  136.2630 C   0  0  0  0  0  3  0  0  0  0  0  0
  191.5890  176.7560  147.9280 C   0  0  0  0  0  3  0  0  0  0  0  0
  192.6750  176.0810  148.1080 N   0  0  0  0  0  2  0  0  0  0  0  0
  1  2  1  0  0  0  0
  1  4  1  0  0  0  0
  2  6  1  0  0  0  0
  3  9  2  0  0  0  0
  4 12  2  0  0  0  0
  5 30  1  0  0  0  0
  6  3  1  0  0  0  0
  7 11  1  0  0  0  0
  7 10  2  0  0  0  0
  8 17  1  0  0  0  0
 10 14  1  0  0  0  0
 11  1  2  0  0  0  0
 12  5  1  0  0  0  0
 13  3  1  0  0  0  0
 14  4  1  0  0  0  0
 14 15  1  0  0  0  0
 15  5  2  0  0  0  0
 16  8  2  0  0  0  0
 16 11  1  0  0  0  0
 17 18  1  0  0  0  0
 17  2  2  0  0  0  0
 18 13  2  0  0  0  0
 20 19  2  0  0  0  0
 20 21  1  0  0  0  0
 21  7  1  0  0  0  0
 22 29  2  0  0  0  0
 22 26  1  0  0  0  0
 23 28  1  0  0  0  0
 25 22  1  0  0  0  0
 26 23  2  0  0  0  0
 27 24  1  0  0  0  0
 27 28  2  0  0  0  0
 28 20  1  0  0  0  0
 29 27  1  0  0  0  0
 30 31  2  0  0  0  0
M  END
>  <MODEL>
1

>  <REMARK>
 VINA RESULT:     -10.2      0.000      0.000
  Name = 
  3 active torsions:
  status: ('A' for Active; 'I' for Inactive)
    1  A    between atoms: C_2  and  C_13
    2  A    between atoms: C_9  and  C_22
    3  A    between atoms: C_15  and  N_23
                            x       y       z     vdW  Elec       q    Type
                         _______ _______ _______ _____ _____    ______ ____

>  <TORSDO>
F 3

$$$$
=
 OpenBabel10272400283D

 31 35  0  0  0  0  0  0  0  0999 V2000
  188.9050  177.3300  144.0750 C   0  0  0  0  0  0  0  0  0  0  0  0
  189.4850  177.2570  145.3620 C   0  0  0  0  0  0  0  0  0  0  0  0
  189.3370  177.5040  147.7260 C   0  0  0  0  0  0  0  0  0  0  0  0
  187.5750  177.7260  143.8340 C   0  0  0  0  0  0  0  0  0  0  0  0
  185.4940  178.3860  143.9510 C   0  0  0  0  0  0  0  0  0  0  0  0
  188.7820  177.5730  146.4870 N   0  0  0  0  0  2  0  0  0  0  0  0
  189.1460  177.0490  141.6390 C   0  0  0  0  0  0  0  0  0  0  0  0
  191.5550  176.5270  144.3800 N   0  0  0  0  0  0  0  0  0  0  0  0
  188.6530  177.8030  148.7380 O   0  0  0  0  0  0  0  0  0  0  0  0
  187.8110  177.4530  141.4830 C   0  0  0  0  0  3  0  0  0  0  0  0
  189.6920  176.9880  142.9410 C   0  0  0  0  0  0  0  0  0  0  0  0
  186.6020  178.1070  144.7440 C   0  0  0  0  0  3  0  0  0  0  0  0
  190.6660  177.1010  147.8790 C   0  0  0  0  0  3  0  0  0  0  0  0
  187.0890  177.7730  142.5820 N   0  0  0  0  0  0  0  0  0  0  0  0
  185.8110  178.1750  142.6210 C   0  0  0  0  0  3  0  0  0  0  0  0
  191.0210  176.5880  143.1330 C   0  0  0  0  0  3  0  0  0  0  0  0
  190.8300  176.8470  145.4820 C   0  0  0  0  0  0  0  0  0  0  0  0
  191.4130  176.7720  146.7470 C   0  0  0  0  0  3  0  0  0  0  0  0
  189.4850  178.5210  139.1190 O   0  0  0  0  0  0  0  0  0  0  0  0
  190.1070  177.4380  139.2800 C   0  0  0  0  0  0  0  0  0  0  0  0
  189.9570  176.6990  140.5040 N   0  0  0  0  0  2  0  0  0  0  0  0
  192.5640  175.8830  136.1100 C   0  0  0  0  0  0  0  0  0  0  0  0
  190.4140  176.5270  137.0010 C   0  0  0  0  0  3  0  0  0  0  0  0
  193.2790  177.1980  139.8310 Cl  0  0  0  0  0  0  0  0  0  0  0  0
  193.3890  175.3430  134.9980 C   0  0  0  0  0  1  0  0  0  0  0  0
  191.1860  176.0190  135.9540 C   0  0  0  0  0  3  0  0  0  0  0  0
  192.4050  176.7650  138.3670 C   0  0  0  0  0  0  0  0  0  0  0  0
  191.0000  176.9070  138.2190 C   0  0  0  0  0  0  0  0  0  0  0  0
  193.1680  176.2540  137.3120 C   0  0  0  0  0  3  0  0  0  0  0  0
  184.1850  178.8370  144.4300 C   0  0  0  0  0  3  0  0  0  0  0  0
  183.9690  179.0340  145.6880 N   0  0  0  0  0  2  0  0  0  0  0  0
  1  2  1  0  0  0  0
  2 17  2  0  0  0  0
  2  6  1  0  0  0  0
  3 13  1  0  0  0  0
  3  9  2  0  0  0  0
  4  1  1  0  0  0  0
  4 12  2  0  0  0  0
  5 30  1  0  0  0  0
  5 12  1  0  0  0  0
  6  3  1  0  0  0  0
  7 11  1  0  0  0  0
  8 17  1  0  0  0  0
 10  7  2  0  0  0  0
 10 14  1  0  0  0  0
 11 16  1  0  0  0  0
 11  1  2  0  0  0  0
 14 15  1  0  0  0  0
 14  4  1  0  0  0  0
 15  5  2  0  0  0  0
 16  8  2  0  0  0  0
 17 18  1  0  0  0  0
 18 13  2  0  0  0  0
 19 20  2  0  0  0  0
 20 21  1  0  0  0  0
 21  7  1  0  0  0  0
 22 29  1  0  0  0  0
 23 28  2  0  0  0  0
 25 22  1  0  0  0  0
 26 22  2  0  0  0  0
 26 23  1  0  0  0  0
 27 24  1  0  0  0  0
 28 27  1  0  0  0  0
 28 20  1  0  0  0  0
 29 27  2  0  0  0  0
 30 31  2  0  0  0  0
M  END
>  <MODEL>
2

>  <REMARK>
 VINA RESULT:     -10.0      1.660      4.282
  Name = 
  3 active torsions:
  status: ('A' for Active; 'I' for Inactive)
    1  A    between atoms: C_2  and  C_13
    2  A    between atoms: C_9  and  C_22
    3  A    between atoms: C_15  and  N_23
                            x       y       z     vdW  Elec       q    Type
                         _______ _______ _______ _____ _____    ______ ____

>  <TORSDO>
F 3

$$$$
=
 OpenBabel10272400283D

 31 35  0  0  0  0  0  0  0  0999 V2000
  188.6420  177.3460  144.2010 C   0  0  0  0  0  0  0  0  0  0  0  0
  187.4090  177.8370  144.6870 C   0  0  0  0  0  0  0  0  0  0  0  0
  186.0060  178.5160  146.4880 C   0  0  0  0  0  0  0  0  0  0  0  0
  189.7410  177.0300  145.0230 C   0  0  0  0  0  0  0  0  0  0  0  0
  191.1470  176.6840  146.6620 C   0  0  0  0  0  0  0  0  0  0  0  0
  187.1920  178.0440  146.0170 N   0  0  0  0  0  2  0  0  0  0  0  0
  190.0240  176.6610  142.2780 C   0  0  0  0  0  0  0  0  0  0  0  0
  186.5630  177.9210  142.4380 N   0  0  0  0  0  0  0  0  0  0  0  0
  185.8480  178.6940  147.7230 O   0  0  0  0  0  0  0  0  0  0  0  0
  191.0730  176.3700  143.1650 C   0  0  0  0  0  3  0  0  0  0  0  0
  188.8050  177.1510  142.8020 C   0  0  0  0  0  0  0  0  0  0  0  0
  189.8530  177.1240  146.4010 C   0  0  0  0  0  3  0  0  0  0  0  0
  184.9650  178.8050  145.6040 C   0  0  0  0  0  3  0  0  0  0  0  0
  190.8850  176.5660  144.4910 N   0  0  0  0  0  0  0  0  0  0  0  0
  191.7690  176.3450  145.4740 C   0  0  0  0  0  3  0  0  0  0  0  0
  187.7380  177.4510  141.9450 C   0  0  0  0  0  3  0  0  0  0  0  0
  186.3760  178.1180  143.7670 C   0  0  0  0  0  0  0  0  0  0  0  0
  185.1540  178.6030  144.2360 C   0  0  0  0  0  3  0  0  0  0  0  0
  192.0750  177.7740  140.4920 O   0  0  0  0  0  0  0  0  0  0  0  0
  191.1840  177.0270  140.0070 C   0  0  0  0  0  0  0  0  0  0  0  0
  190.1700  176.4700  140.8610 N   0  0  0  0  0  2  0  0  0  0  0  0
  190.9750  176.1580  135.8000 C   0  0  0  0  0  0  0  0  0  0  0  0
  189.9800  176.9640  137.8470 C   0  0  0  0  0  3  0  0  0  0  0  0
  193.8180  175.7920  138.6060 Cl  0  0  0  0  0  0  0  0  0  0  0  0
  190.8750  175.8670  134.3460 C   0  0  0  0  0  1  0  0  0  0  0  0
  189.8840  176.6920  136.4810 C   0  0  0  0  0  3  0  0  0  0  0  0
  192.2720  176.1640  137.8530 C   0  0  0  0  0  0  0  0  0  0  0  0
  191.1650  176.7080  138.5570 C   0  0  0  0  0  0  0  0  0  0  0  0
  192.1620  175.8960  136.4850 C   0  0  0  0  0  3  0  0  0  0  0  0
  191.7720  176.5880  147.9830 C   0  0  0  0  0  3  0  0  0  0  0  0
  192.8750  175.9370  148.1510 N   0  0  0  0  0  2  0  0  0  0  0  0
  1  2  1  0  0  0  0
  1  4  1  0  0  0  0
  2  6  1  0  0  0  0
  3  9  2  0  0  0  0
  4 12  2  0  0  0  0
  5 30  1  0  0  0  0
  6  3  1  0  0  0  0
  7 11  1  0  0  0  0
  7 10  2  0  0  0  0
  8 17  1  0  0  0  0
 10 14  1  0  0  0  0
 11  1  2  0  0  0  0
 12  5  1  0  0  0  0
 13  3  1  0  0  0  0
 14  4  1  0  0  0  0
 14 15  1  0  0  0  0
 15  5  2  0  0  0  0
 16  8  2  0  0  0  0
 16 11  1  0  0  0  0
 17 18  1  0  0  0  0
 17  2  2  0  0  0  0
 18 13  2  0  0  0  0
 20 19  2  0  0  0  0
 20 21  1  0  0  0  0
 21  7  1  0  0  0  0
 22 26  2  0  0  0  0
 22 29  1  0  0  0  0
 23 28  2  0  0  0  0
 25 22  1  0  0  0  0
 26 23  1  0  0  0  0
 27 28  1  0  0  0  0
 27 24  1  0  0  0  0
 28 20  1  0  0  0  0
 29 27  2  0  0  0  0
 30 31  2  0  0  0  0
M  END
>  <MODEL>
3

>  <REMARK>
 VINA RESULT:     -10.0      1.048      1.344
  Name = 
  3 active torsions:
  status: ('A' for Active; 'I' for Inactive)
    1  A    between atoms: C_2  and  C_13
    2  A    between atoms: C_9  and  C_22
    3  A    between atoms: C_15  and  N_23
                            x       y       z     vdW  Elec       q    Type
                         _______ _______ _______ _____ _____    ______ ____

>  <TORSDO>
F 3

$$$$
=
 OpenBabel10272400283D

 31 35  0  0  0  0  0  0  0  0999 V2000
  188.9210  177.3090  144.1080 C   0  0  0  0  0  0  0  0  0  0  0  0
  189.5070  177.2370  145.3930 C   0  0  0  0  0  0  0  0  0  0  0  0
  189.3690  177.4840  147.7570 C   0  0  0  0  0  0  0  0  0  0  0  0
  187.5900  177.7020  143.8720 C   0  0  0  0  0  0  0  0  0  0  0  0
  185.5080  178.3590  143.9970 C   0  0  0  0  0  0  0  0  0  0  0  0
  188.8080  177.5510  146.5200 N   0  0  0  0  0  2  0  0  0  0  0  0
  189.1530  177.0270  141.6700 C   0  0  0  0  0  0  0  0  0  0  0  0
  191.5740  176.5100  144.4020 N   0  0  0  0  0  0  0  0  0  0  0  0
  188.6890  177.7820  148.7720 O   0  0  0  0  0  0  0  0  0  0  0  0
  187.8170  177.4290  141.5200 C   0  0  0  0  0  3  0  0  0  0  0  0
  189.7040  176.9670  142.9710 C   0  0  0  0  0  0  0  0  0  0  0  0
  186.6200  178.0820  144.7860 C   0  0  0  0  0  3  0  0  0  0  0  0
  190.6990  177.0830  147.9040 C   0  0  0  0  0  3  0  0  0  0  0  0
  187.0990  177.7480  142.6220 N   0  0  0  0  0  0  0  0  0  0  0  0
  185.8200  178.1480  142.6660 C   0  0  0  0  0  3  0  0  0  0  0  0
  191.0350  176.5700  143.1570 C   0  0  0  0  0  3  0  0  0  0  0  0
  190.8540  176.8290  145.5070 C   0  0  0  0  0  0  0  0  0  0  0  0
  191.4420  176.7540  146.7700 C   0  0  0  0  0  3  0  0  0  0  0  0
  189.4830  178.5010  139.1500 O   0  0  0  0  0  0  0  0  0  0  0  0
  190.1050  177.4180  139.3090 C   0  0  0  0  0  0  0  0  0  0  0  0
  189.9600  176.6780  140.5330 N   0  0  0  0  0  2  0  0  0  0  0  0
  192.8030  175.8910  136.3270 C   0  0  0  0  0  0  0  0  0  0  0  0
  192.3550  176.7220  138.5490 C   0  0  0  0  0  3  0  0  0  0  0  0
  188.8740  176.6910  136.4140 Cl  0  0  0  0  0  0  0  0  0  0  0  0
  193.7570  175.3660  135.3160 C   0  0  0  0  0  1  0  0  0  0  0  0
  193.2530  176.2290  137.6010 C   0  0  0  0  0  3  0  0  0  0  0  0
  190.5460  176.5400  136.9420 C   0  0  0  0  0  0  0  0  0  0  0  0
  190.9940  176.8880  138.2440 C   0  0  0  0  0  0  0  0  0  0  0  0
  191.4560  176.0470  136.0010 C   0  0  0  0  0  3  0  0  0  0  0  0
  184.2010  178.8080  144.4820 C   0  0  0  0  0  3  0  0  0  0  0  0
  184.0110  179.0780  145.7310 N   0  0  0  0  0  2  0  0  0  0  0  0
  1  2  1  0  0  0  0
  2 17  2  0  0  0  0
  2  6  1  0  0  0  0
  3 13  1  0  0  0  0
  3  9  2  0  0  0  0
  4  1  1  0  0  0  0
  4 12  2  0  0  0  0
  5 30  1  0  0  0  0
  5 12  1  0  0  0  0
  6  3  1  0  0  0  0
  7 11  1  0  0  0  0
  8 17  1  0  0  0  0
 10  7  2  0  0  0  0
 10 14  1  0  0  0  0
 11 16  1  0  0  0  0
 11  1  2  0  0  0  0
 14 15  1  0  0  0  0
 14  4  1  0  0  0  0
 15  5  2  0  0  0  0
 16  8  2  0  0  0  0
 17 18  1  0  0  0  0
 18 13  2  0  0  0  0
 19 20  2  0  0  0  0
 20 21  1  0  0  0  0
 21  7  1  0  0  0  0
 22 26  1  0  0  0  0
 24 27  1  0  0  0  0
 25 22  1  0  0  0  0
 26 23  2  0  0  0  0
 27 28  2  0  0  0  0
 28 23  1  0  0  0  0
 28 20  1  0  0  0  0
 29 22  2  0  0  0  0
 29 27  1  0  0  0  0
 30 31  2  0  0  0  0
M  END
>  <MODEL>
4

>  <REMARK>
 VINA RESULT:      -9.8      1.476      4.166
  Name = 
  3 active torsions:
  status: ('A' for Active; 'I' for Inactive)
    1  A    between atoms: C_2  and  C_13
    2  A    between atoms: C_9  and  C_22
    3  A    between atoms: C_15  and  N_23
                            x       y       z     vdW  Elec       q    Type
                         _______ _______ _______ _____ _____    ______ ____

>  <TORSDO>
F 3

$$$$
=
 OpenBabel10272400283D

 31 35  0  0  0  0  0  0  0  0999 V2000
  187.2550  178.2290  139.2770 C   0  0  0  0  0  0  0  0  0  0  0  0
  187.8420  178.0140  138.0090 C   0  0  0  0  0  0  0  0  0  0  0  0
  187.6990  177.9730  135.6330 C   0  0  0  0  0  0  0  0  0  0  0  0
  185.9170  178.6260  139.4670 C   0  0  0  0  0  0  0  0  0  0  0  0
  183.8250  179.2300  139.2690 C   0  0  0  0  0  0  0  0  0  0  0  0
  187.1370  178.1800  136.8540 N   0  0  0  0  0  2  0  0  0  0  0  0
  187.4910  178.2460  141.7310 C   0  0  0  0  0  0  0  0  0  0  0  0
  189.9200  177.4450  139.0760 N   0  0  0  0  0  0  0  0  0  0  0  0
  187.0130  178.1370  134.5910 O   0  0  0  0  0  0  0  0  0  0  0  0
  186.1490  178.6410  141.8350 C   0  0  0  0  0  3  0  0  0  0  0  0
  188.0440  178.0400  140.4450 C   0  0  0  0  0  0  0  0  0  0  0  0
  184.9410  178.8780  138.5160 C   0  0  0  0  0  3  0  0  0  0  0  0
  189.0350  177.5810  135.5320 C   0  0  0  0  0  3  0  0  0  0  0  0
  185.4250  178.8120  140.7040 N   0  0  0  0  0  0  0  0  0  0  0  0
  184.1400  179.1840  140.6150 C   0  0  0  0  0  3  0  0  0  0  0  0
  189.3810  177.6450  140.3050 C   0  0  0  0  0  3  0  0  0  0  0  0
  189.1940  177.6170  137.9420 C   0  0  0  0  0  0  0  0  0  0  0  0
  189.7840  177.4020  136.6960 C   0  0  0  0  0  3  0  0  0  0  0  0
  187.9330  175.7680  143.2470 O   0  0  0  0  0  0  0  0  0  0  0  0
  188.5050  176.8240  143.6250 C   0  0  0  0  0  0  0  0  0  0  0  0
  188.3050  178.0490  142.9000 N   0  0  0  0  0  2  0  0  0  0  0  0
  191.1920  176.7890  146.9830 C   0  0  0  0  0  0  0  0  0  0  0  0
  190.7480  176.5240  144.6250 C   0  0  0  0  0  3  0  0  0  0  0  0
  187.2730  177.5080  146.5300 Cl  0  0  0  0  0  0  0  0  0  0  0  0
  192.1430  176.7700  148.1250 C   0  0  0  0  0  1  0  0  0  0  0  0
  191.6430  176.5050  145.6950 C   0  0  0  0  0  3  0  0  0  0  0  0
  188.9410  177.1140  146.1340 C   0  0  0  0  0  0  0  0  0  0  0  0
  189.3900  176.8250  144.8170 C   0  0  0  0  0  0  0  0  0  0  0  0
  189.8480  177.0910  147.1980 C   0  0  0  0  0  3  0  0  0  0  0  0
  182.5090  179.5950  138.7370 C   0  0  0  0  0  3  0  0  0  0  0  0
  182.1820  180.8320  138.5630 N   0  0  0  0  0  2  0  0  0  0  0  0
  1  4  1  0  0  0  0
  1 11  1  0  0  0  0
  2  1  2  0  0  0  0
  3  6  1  0  0  0  0
  4 14  1  0  0  0  0
  5 15  2  0  0  0  0
  6  2  1  0  0  0  0
  7 10  2  0  0  0  0
  7 21  1  0  0  0  0
  8 16  1  0  0  0  0
  9  3  2  0  0  0  0
 11  7  1  0  0  0  0
 12  5  1  0  0  0  0
 12  4  2  0  0  0  0
 13  3  1  0  0  0  0
 13 18  2  0  0  0  0
 14 10  1  0  0  0  0
 15 14  1  0  0  0  0
 16 11  2  0  0  0  0
 17  2  1  0  0  0  0
 17  8  2  0  0  0  0
 18 17  1  0  0  0  0
 19 20  2  0  0  0  0
 20 28  1  0  0  0  0
 21 20  1  0  0  0  0
 22 29  1  0  0  0  0
 22 25  1  0  0  0  0
 23 28  2  0  0  0  0
 23 26  1  0  0  0  0
 26 22  2  0  0  0  0
 27 24  1  0  0  0  0
 27 29  2  0  0  0  0
 28 27  1  0  0  0  0
 30  5  1  0  0  0  0
 31 30  2  0  0  0  0
M  END
>  <MODEL>
5

>  <REMARK>
 VINA RESULT:      -9.4      3.511      8.706
  Name = 
  3 active torsions:
  status: ('A' for Active; 'I' for Inactive)
    1  A    between atoms: C_2  and  C_13
    2  A    between atoms: C_9  and  C_22
    3  A    between atoms: C_15  and  N_23
                            x       y       z     vdW  Elec       q    Type
                         _______ _______ _______ _____ _____    ______ ____

>  <TORSDO>
F 3

$$$$
=
 OpenBabel10272400283D

 31 35  0  0  0  0  0  0  0  0999 V2000
  189.7910  177.2320  138.7530 C   0  0  0  0  0  0  0  0  0  0  0  0
  190.9860  176.8510  138.1020 C   0  0  0  0  0  0  0  0  0  0  0  0
  192.1970  176.3250  136.1200 C   0  0  0  0  0  0  0  0  0  0  0  0
  188.5760  177.4780  138.0860 C   0  0  0  0  0  0  0  0  0  0  0  0
  186.9530  177.7500  136.6460 C   0  0  0  0  0  0  0  0  0  0  0  0
  191.0490  176.6910  136.7500 N   0  0  0  0  0  2  0  0  0  0  0  0
  188.6150  177.7610  140.8540 C   0  0  0  0  0  0  0  0  0  0  0  0
  192.1120  176.7810  140.2260 N   0  0  0  0  0  0  0  0  0  0  0  0
  192.2120  176.1890  134.8700 O   0  0  0  0  0  0  0  0  0  0  0  0
  187.4440  177.9890  140.1150 C   0  0  0  0  0  3  0  0  0  0  0  0
  189.7910  177.3820  140.1680 C   0  0  0  0  0  0  0  0  0  0  0  0
  188.2990  177.4070  136.7300 C   0  0  0  0  0  3  0  0  0  0  0  0
  193.3610  176.0990  136.8590 C   0  0  0  0  0  3  0  0  0  0  0  0
  187.4760  177.8370  138.7700 N   0  0  0  0  0  0  0  0  0  0  0  0
  186.4610  178.0120  137.9120 C   0  0  0  0  0  3  0  0  0  0  0  0
  190.9780  177.1470  140.8750 C   0  0  0  0  0  3  0  0  0  0  0  0
  192.1450  176.6300  138.8770 C   0  0  0  0  0  0  0  0  0  0  0  0
  193.3310  176.2540  138.2450 C   0  0  0  0  0  3  0  0  0  0  0  0
  188.3050  175.6770  142.9020 O   0  0  0  0  0  0  0  0  0  0  0  0
  188.4810  176.8700  143.2680 C   0  0  0  0  0  0  0  0  0  0  0  0
  188.6350  177.9070  142.2850 N   0  0  0  0  0  2  0  0  0  0  0  0
  188.4690  177.9190  147.4390 C   0  0  0  0  0  0  0  0  0  0  0  0
  187.3240  177.5580  145.3440 C   0  0  0  0  0  3  0  0  0  0  0  0
  191.3120  176.8510  144.8190 Cl  0  0  0  0  0  0  0  0  0  0  0  0
  188.4360  178.2860  148.8790 C   0  0  0  0  0  1  0  0  0  0  0  0
  187.2900  177.9030  146.6960 C   0  0  0  0  0  3  0  0  0  0  0  0
  189.7270  177.2440  145.4750 C   0  0  0  0  0  0  0  0  0  0  0  0
  188.5320  177.2250  144.7090 C   0  0  0  0  0  0  0  0  0  0  0  0
  189.6800  177.5920  146.8290 C   0  0  0  0  0  3  0  0  0  0  0  0
  186.1600  177.8260  135.4160 C   0  0  0  0  0  3  0  0  0  0  0  0
  186.6420  178.3680  134.3470 N   0  0  0  0  0  2  0  0  0  0  0  0
  1 11  1  0  0  0  0
  2  1  2  0  0  0  0
  2 17  1  0  0  0  0
  3  6  1  0  0  0  0
  3 13  1  0  0  0  0
  4  1  1  0  0  0  0
  4 14  1  0  0  0  0
  5 12  1  0  0  0  0
  5 15  2  0  0  0  0
  6  2  1  0  0  0  0
  7 21  1  0  0  0  0
  8 16  1  0  0  0  0
  9  3  2  0  0  0  0
 10  7  2  0  0  0  0
 11  7  1  0  0  0  0
 11 16  2  0  0  0  0
 12  4  2  0  0  0  0
 13 18  2  0  0  0  0
 14 10  1  0  0  0  0
 15 14  1  0  0  0  0
 17  8  2  0  0  0  0
 18 17  1  0  0  0  0
 19 20  2  0  0  0  0
 20 28  1  0  0  0  0
 21 20  1  0  0  0  0
 22 25  1  0  0  0  0
 23 26  1  0  0  0  0
 24 27  1  0  0  0  0
 26 22  2  0  0  0  0
 27 29  2  0  0  0  0
 28 23  2  0  0  0  0
 28 27  1  0  0  0  0
 29 22  1  0  0  0  0
 30  5  1  0  0  0  0
 31 30  2  0  0  0  0
M  END
>  <MODEL>
6

>  <REMARK>
 VINA RESULT:      -9.2      3.053      9.298
  Name = 
  3 active torsions:
  status: ('A' for Active; 'I' for Inactive)
    1  A    between atoms: C_2  and  C_13
    2  A    between atoms: C_9  and  C_22
    3  A    between atoms: C_15  and  N_23
                            x       y       z     vdW  Elec       q    Type
                         _______ _______ _______ _____ _____    ______ ____

>  <TORSDO>
F 3

$$$$
=
 OpenBabel10272400283D

 31 35  0  0  0  0  0  0  0  0999 V2000
  187.6410  177.7560  143.3450 C   0  0  0  0  0  0  0  0  0  0  0  0
  186.3150  178.2350  143.4460 C   0  0  0  0  0  0  0  0  0  0  0  0
  184.4660  178.9730  144.7530 C   0  0  0  0  0  0  0  0  0  0  0  0
  188.4790  177.5220  144.4510 C   0  0  0  0  0  0  0  0  0  0  0  0
  189.3910  177.3160  146.4280 C   0  0  0  0  0  0  0  0  0  0  0  0
  185.7410  178.5120  144.6510 N   0  0  0  0  0  2  0  0  0  0  0  0
  189.5040  177.0050  141.9160 C   0  0  0  0  0  0  0  0  0  0  0  0
  186.1120  178.1630  141.0510 N   0  0  0  0  0  0  0  0  0  0  0  0
  183.9740  179.2160  145.8850 O   0  0  0  0  0  0  0  0  0  0  0  0
  190.2760  176.7990  143.0690 C   0  0  0  0  0  3  0  0  0  0  0  0
  188.1810  177.4860  142.0570 C   0  0  0  0  0  0  0  0  0  0  0  0
  188.2100  177.6990  145.7990 C   0  0  0  0  0  3  0  0  0  0  0  0
  183.7000  179.1780  143.6030 C   0  0  0  0  0  3  0  0  0  0  0  0
  189.7320  177.0650  144.2800 N   0  0  0  0  0  0  0  0  0  0  0  0
  190.3180  176.9280  145.4780 C   0  0  0  0  0  3  0  0  0  0  0  0
  187.3830  177.7030  140.9260 C   0  0  0  0  0  3  0  0  0  0  0  0
  185.5670  178.4310  142.2650 C   0  0  0  0  0  0  0  0  0  0  0  0
  184.2570  178.9030  142.3540 C   0  0  0  0  0  3  0  0  0  0  0  0
  192.0650  177.8810  140.7720 O   0  0  0  0  0  0  0  0  0  0  0  0
  191.2910  177.1780  140.0690 C   0  0  0  0  0  0  0  0  0  0  0  0
  190.0330  176.7380  140.6060 N   0  0  0  0  0  2  0  0  0  0  0  0
  192.5130  176.0410  136.1040 C   0  0  0  0  0  0  0  0  0  0  0  0
  192.9960  176.4350  138.4370 C   0  0  0  0  0  3  0  0  0  0  0  0
  189.0420  177.1910  137.7520 Cl  0  0  0  0  0  0  0  0  0  0  0  0
  192.9630  175.6440  134.7450 C   0  0  0  0  0  1  0  0  0  0  0  0
  193.4210  176.0620  137.1610 C   0  0  0  0  0  3  0  0  0  0  0  0
  190.7430  176.7690  137.5990 C   0  0  0  0  0  0  0  0  0  0  0  0
  191.6610  176.7940  138.6830 C   0  0  0  0  0  0  0  0  0  0  0  0
  191.1820  176.3930  136.3250 C   0  0  0  0  0  3  0  0  0  0  0  0
  189.6340  177.3160  147.8730 C   0  0  0  0  0  3  0  0  0  0  0  0
  188.9460  178.0710  148.6640 N   0  0  0  0  0  2  0  0  0  0  0  0
  1  2  1  0  0  0  0
  1  4  1  0  0  0  0
  2  6  1  0  0  0  0
  3  9  2  0  0  0  0
  4 12  2  0  0  0  0
  5 30  1  0  0  0  0
  6  3  1  0  0  0  0
  7 11  1  0  0  0  0
  7 10  2  0  0  0  0
  8 17  1  0  0  0  0
 10 14  1  0  0  0  0
 11  1  2  0  0  0  0
 12  5  1  0  0  0  0
 13  3  1  0  0  0  0
 14  4  1  0  0  0  0
 14 15  1  0  0  0  0
 15  5  2  0  0  0  0
 16  8  2  0  0  0  0
 16 11  1  0  0  0  0
 17 18  1  0  0  0  0
 17  2  2  0  0  0  0
 18 13  2  0  0  0  0
 20 21  1  0  0  0  0
 20 19  2  0  0  0  0
 21  7  1  0  0  0  0
 22 29  2  0  0  0  0
 22 26  1  0  0  0  0
 23 28  1  0  0  0  0
 25 22  1  0  0  0  0
 26 23  2  0  0  0  0
 27 24  1  0  0  0  0
 27 28  2  0  0  0  0
 28 20  1  0  0  0  0
 29 27  1  0  0  0  0
 30 31  2  0  0  0  0
M  END
>  <MODEL>
7

>  <REMARK>
 VINA RESULT:      -8.9      1.389      1.602
  Name = 
  3 active torsions:
  status: ('A' for Active; 'I' for Inactive)
    1  A    between atoms: C_2  and  C_13
    2  A    between atoms: C_9  and  C_22
    3  A    between atoms: C_15  and  N_23
                            x       y       z     vdW  Elec       q    Type
                         _______ _______ _______ _____ _____    ______ ____

>  <TORSDO>
F 3

$$$$
=
 OpenBabel10272400283D

 31 35  0  0  0  0  0  0  0  0999 V2000
  188.6940  177.7520  142.8550 C   0  0  0  0  0  0  0  0  0  0  0  0
  188.8680  177.5760  144.2470 C   0  0  0  0  0  0  0  0  0  0  0  0
  190.2570  177.1120  146.1250 C   0  0  0  0  0  0  0  0  0  0  0  0
  189.7340  177.6440  141.9120 C   0  0  0  0  0  0  0  0  0  0  0  0
  191.6250  177.3820  140.8470 C   0  0  0  0  0  0  0  0  0  0  0  0
  190.0850  177.2820  144.7870 N   0  0  0  0  0  2  0  0  0  0  0  0
  187.1850  178.2400  140.9680 C   0  0  0  0  0  0  0  0  0  0  0  0
  186.5260  178.0000  144.5880 N   0  0  0  0  0  0  0  0  0  0  0  0
  191.3970  176.8420  146.5830 O   0  0  0  0  0  0  0  0  0  0  0  0
  188.2750  178.1160  140.0940 C   0  0  0  0  0  3  0  0  0  0  0  0
  187.3980  178.0580  142.3540 C   0  0  0  0  0  0  0  0  0  0  0  0
  191.0740  177.3600  142.1240 C   0  0  0  0  0  3  0  0  0  0  0  0
  189.1700  177.2370  146.9930 C   0  0  0  0  0  3  0  0  0  0  0  0
  189.4950  177.8240  140.6020 N   0  0  0  0  0  0  0  0  0  0  0  0
  190.6390  177.6690  139.9210 C   0  0  0  0  0  3  0  0  0  0  0  0
  186.3310  178.1750  143.2560 C   0  0  0  0  0  3  0  0  0  0  0  0
  187.7500  177.7080  145.0970 C   0  0  0  0  0  0  0  0  0  0  0  0
  187.9110  177.5370  146.4730 C   0  0  0  0  0  3  0  0  0  0  0  0
  186.2610  178.3840  138.1830 O   0  0  0  0  0  0  0  0  0  0  0  0
  185.4400  178.6120  139.1100 C   0  0  0  0  0  0  0  0  0  0  0  0
  185.8670  178.5480  140.4810 N   0  0  0  0  0  2  0  0  0  0  0  0
  181.3780  179.7440  138.2590 C   0  0  0  0  0  0  0  0  0  0  0  0
  183.6490  180.3010  138.8620 C   0  0  0  0  0  3  0  0  0  0  0  0
  183.3600  176.2590  138.3610 Cl  0  0  0  0  0  0  0  0  0  0  0  0
  179.9820  180.1630  137.9700 C   0  0  0  0  0  1  0  0  0  0  0  0
  182.3380  180.6970  138.5910 C   0  0  0  0  0  3  0  0  0  0  0  0
  183.0390  177.9850  138.4680 C   0  0  0  0  0  0  0  0  0  0  0  0
  184.0250  178.9490  138.8080 C   0  0  0  0  0  0  0  0  0  0  0  0
  181.7290  178.3950  138.1990 C   0  0  0  0  0  3  0  0  0  0  0  0
  193.0310  177.1390  140.5130 C   0  0  0  0  0  3  0  0  0  0  0  0
  193.4640  177.2930  139.3060 N   0  0  0  0  0  2  0  0  0  0  0  0
  1  2  1  0  0  0  0
  2  6  1  0  0  0  0
  2 17  2  0  0  0  0
  3  9  2  0  0  0  0
  3 13  1  0  0  0  0
  4 12  2  0  0  0  0
  4  1  1  0  0  0  0
  5 12  1  0  0  0  0
  6  3  1  0  0  0  0
  7 11  1  0  0  0  0
  8 17  1  0  0  0  0
 10 14  1  0  0  0  0
 10  7  2  0  0  0  0
 11  1  2  0  0  0  0
 11 16  1  0  0  0  0
 14  4  1  0  0  0  0
 15 14  1  0  0  0  0
 15  5  2  0  0  0  0
 16  8  2  0  0  0  0
 17 18  1  0  0  0  0
 18 13  2  0  0  0  0
 19 20  2  0  0  0  0
 20 21  1  0  0  0  0
 21  7  1  0  0  0  0
 22 26  1  0  0  0  0
 24 27  1  0  0  0  0
 25 22  1  0  0  0  0
 26 23  2  0  0  0  0
 27 28  2  0  0  0  0
 28 23  1  0  0  0  0
 28 20  1  0  0  0  0
 29 22  2  0  0  0  0
 29 27  1  0  0  0  0
 30  5  1  0  0  0  0
 31 30  2  0  0  0  0
M  END
>  <MODEL>
8

>  <REMARK>
 VINA RESULT:      -8.4      3.849      6.249
  Name = 
  3 active torsions:
  status: ('A' for Active; 'I' for Inactive)
    1  A    between atoms: C_2  and  C_13
    2  A    between atoms: C_9  and  C_22
    3  A    between atoms: C_15  and  N_23
                            x       y       z     vdW  Elec       q    Type
                         _______ _______ _______ _____ _____    ______ ____

>  <TORSDO>
F 3

$$$$
=
 OpenBabel10272400283D

 31 35  0  0  0  0  0  0  0  0999 V2000
  187.6400  178.0170  143.1910 C   0  0  0  0  0  0  0  0  0  0  0  0
  188.9060  177.6070  142.7140 C   0  0  0  0  0  0  0  0  0  0  0  0
  191.1050  176.7790  143.1020 C   0  0  0  0  0  0  0  0  0  0  0  0
  187.2740  178.0160  144.5510 C   0  0  0  0  0  0  0  0  0  0  0  0
  187.1650  177.8440  146.7280 C   0  0  0  0  0  0  0  0  0  0  0  0
  189.8860  177.1730  143.5570 N   0  0  0  0  0  2  0  0  0  0  0  0
  185.3830  178.8760  142.6990 C   0  0  0  0  0  0  0  0  0  0  0  0
  188.2030  178.0790  140.4630 N   0  0  0  0  0  0  0  0  0  0  0  0
  191.9810  176.3850  143.9140 O   0  0  0  0  0  0  0  0  0  0  0  0
  185.0960  178.8460  144.0720 C   0  0  0  0  0  3  0  0  0  0  0  0
  186.6600  178.4590  142.2590 C   0  0  0  0  0  0  0  0  0  0  0  0
  188.0240  177.6390  145.6530 C   0  0  0  0  0  3  0  0  0  0  0  0
  191.3870  176.8100  141.7350 C   0  0  0  0  0  3  0  0  0  0  0  0
  186.0500  178.4200  144.9330 N   0  0  0  0  0  0  0  0  0  0  0  0
  185.9520  178.3250  146.2660 C   0  0  0  0  0  3  0  0  0  0  0  0
  186.9790  178.4770  140.8950 C   0  0  0  0  0  3  0  0  0  0  0  0
  189.1600  177.6510  141.3260 C   0  0  0  0  0  0  0  0  0  0  0  0
  190.4060  177.2500  140.8450 C   0  0  0  0  0  3  0  0  0  0  0  0
  183.5190  177.2530  141.1100 O   0  0  0  0  0  0  0  0  0  0  0  0
  183.5030  178.5050  140.9760 C   0  0  0  0  0  0  0  0  0  0  0  0
  184.4050  179.3210  141.7420 N   0  0  0  0  0  2  0  0  0  0  0  0
  180.8990  180.4390  138.1510 C   0  0  0  0  0  0  0  0  0  0  0  0
  183.1010  179.7940  138.9030 C   0  0  0  0  0  3  0  0  0  0  0  0
  180.3310  178.4190  141.5700 Cl  0  0  0  0  0  0  0  0  0  0  0  0
  180.0230  181.1150  137.1600 C   0  0  0  0  0  1  0  0  0  0  0  0
  182.2810  180.4300  137.9700 C   0  0  0  0  0  3  0  0  0  0  0  0
  181.1520  179.1730  140.2080 C   0  0  0  0  0  0  0  0  0  0  0  0
  182.5610  179.1580  140.0330 C   0  0  0  0  0  0  0  0  0  0  0  0
  180.3400  179.8130  139.2660 C   0  0  0  0  0  3  0  0  0  0  0  0
  187.4760  177.5950  148.1380 C   0  0  0  0  0  3  0  0  0  0  0  0
  188.5710  178.0350  148.6640 N   0  0  0  0  0  2  0  0  0  0  0  0
  1  4  1  0  0  0  0
  2  1  1  0  0  0  0
  2  6  1  0  0  0  0
  3  6  1  0  0  0  0
  3  9  2  0  0  0  0
  4 14  1  0  0  0  0
  4 12  2  0  0  0  0
  5 30  1  0  0  0  0
  7 10  2  0  0  0  0
  8 16  2  0  0  0  0
  8 17  1  0  0  0  0
 10 14  1  0  0  0  0
 11  7  1  0  0  0  0
 11  1  2  0  0  0  0
 12  5  1  0  0  0  0
 13  3  1  0  0  0  0
 14 15  1  0  0  0  0
 15  5  2  0  0  0  0
 16 11  1  0  0  0  0
 17  2  2  0  0  0  0
 18 17  1  0  0  0  0
 18 13  2  0  0  0  0
 20 19  2  0  0  0  0
 20 21  1  0  0  0  0
 21  7  1  0  0  0  0
 22 29  1  0  0  0  0
 23 28  2  0  0  0  0
 25 22  1  0  0  0  0
 26 22  2  0  0  0  0
 26 23  1  0  0  0  0
 27 24  1  0  0  0  0
 28 27  1  0  0  0  0
 28 20  1  0  0  0  0
 29 27  2  0  0  0  0
 30 31  2  0  0  0  0
M  END
>  <MODEL>
9

>  <REMARK>
 VINA RESULT:      -8.4      4.120      6.952
  Name = 
  3 active torsions:
  status: ('A' for Active; 'I' for Inactive)
    1  A    between atoms: C_2  and  C_13
    2  A    between atoms: C_9  and  C_22
    3  A    between atoms: C_15  and  N_23
                            x       y       z     vdW  Elec       q    Type
                         _______ _______ _______ _____ _____    ______ ____

>  <TORSDO>
F 3

$$$$
