=
 OpenBabel10272401573D

 28 32  0  0  0  0  0  0  0  0999 V2000
  187.1820  178.1610  140.9020 N   0  0  0  0  0  0  0  0  0  0  0  0
  190.0220  177.0070  145.3930 S   0  0  0  0  0  0  0  0  0  0  0  0
  183.8090  178.7270  144.4460 C   0  0  0  0  0  1  0  0  0  0  0  0
  188.2260  177.7100  146.9950 C   0  0  0  0  0  0  0  0  0  0  0  0
  187.4360  177.8680  144.6390 C   0  0  0  0  0  0  0  0  0  0  0  0
  188.4580  177.5630  145.6420 C   0  0  0  0  0  0  0  0  0  0  0  0
  185.7880  177.9890  146.5040 C   0  0  0  0  0  2  0  0  0  0  0  0
  189.3240  177.3920  147.8000 C   0  0  0  0  0  3  0  0  0  0  0  0
  185.5440  178.4530  142.6470 C   0  0  0  0  0  0  0  0  0  0  0  0
  187.7630  177.8910  143.2780 O   0  0  0  0  0  0  0  0  0  0  0  0
  186.9360  178.2910  147.4870 C   0  0  0  0  0  2  0  0  0  0  0  0
  184.8770  178.8010  140.3150 C   0  0  0  0  0  3  0  0  0  0  0  0
  185.1810  178.4380  144.0430 N   0  0  0  0  0  0  0  0  0  0  0  0
  184.5340  178.7000  141.5990 C   0  0  0  0  0  3  0  0  0  0  0  0
  190.4110  176.9750  147.0360 C   0  0  0  0  0  0  0  0  0  0  0  0
  186.1780  178.1420  145.0400 C   0  0  0  0  0  0  0  0  0  0  0  0
  186.3130  178.7380  139.8730 C   0  0  0  0  0  2  0  0  0  0  0  0
  186.8100  178.1800  142.2920 C   0  0  0  0  0  0  0  0  0  0  0  0
  191.7130  176.5170  147.5900 C   0  0  0  0  0  2  0  0  0  0  0  0
  192.2610  175.5450  146.7520 O   0  0  0  0  0  1  0  0  0  0  0  0
  188.5100  177.7140  140.5050 C   0  0  0  0  0  2  0  0  0  0  0  0
  188.6190  177.6750  139.0180 C   0  0  0  0  0  0  0  0  0  0  0  0
  188.8760  177.5920  136.2330 C   0  0  0  0  0  0  0  0  0  0  0  0
  188.3000  176.5050  138.3200 C   0  0  0  0  0  3  0  0  0  0  0  0
  189.0730  178.8020  138.3220 C   0  0  0  0  0  3  0  0  0  0  0  0
  189.1990  178.7600  136.9300 C   0  0  0  0  0  3  0  0  0  0  0  0
  189.0100  177.5480  134.7540 C   0  0  0  0  0  1  0  0  0  0  0  0
  188.4270  176.4640  136.9280 C   0  0  0  0  0  3  0  0  0  0  0  0
  1 18  1  0  0  0  0
  2  6  1  0  0  0  0
  2 15  1  0  0  0  0
  4 11  1  0  0  0  0
  4  8  1  0  0  0  0
  5 16  2  0  0  0  0
  5  6  1  0  0  0  0
  6  4  2  0  0  0  0
  7 11  1  0  0  0  0
  9 13  1  0  0  0  0
 10  5  1  0  0  0  0
 12 14  2  0  0  0  0
 13  3  1  0  0  0  0
 13 16  1  0  0  0  0
 14  9  1  0  0  0  0
 15 19  1  0  0  0  0
 15  8  2  0  0  0  0
 16  7  1  0  0  0  0
 17 12  1  0  0  0  0
 17  1  1  0  0  0  0
 18  9  2  0  0  0  0
 18 10  1  0  0  0  0
 20 19  1  0  0  0  0
 21  1  1  0  0  0  0
 22 21  1  0  0  0  0
 23 28  2  0  0  0  0
 23 26  1  0  0  0  0
 24 22  2  0  0  0  0
 25 22  1  0  0  0  0
 26 25  2  0  0  0  0
 27 23  1  0  0  0  0
 28 24  1  0  0  0  0
M  END
>  <MODEL>
1

>  <REMARK>
 VINA RESULT:      -9.3      0.000      0.000
  Name = 
  3 active torsions:
  status: ('A' for Active; 'I' for Inactive)
    1  A    between atoms: N_1  and  C_2
    2  A    between atoms: C_2  and  C_3
    3  A    between atoms: C_12  and  C_24
                            x       y       z     vdW  Elec       q    Type
                         _______ _______ _______ _____ _____    ______ ____

>  <TORSDO>
F 3

$$$$
=
 OpenBabel10272401573D

 28 32  0  0  0  0  0  0  0  0999 V2000
  190.0210  177.6960  139.8960 N   0  0  0  0  0  0  0  0  0  0  0  0
  191.4250  176.4610  145.0020 S   0  0  0  0  0  0  0  0  0  0  0  0
  185.7770  178.2950  142.3210 C   0  0  0  0  0  1  0  0  0  0  0  0
  189.2530  177.1850  146.0250 C   0  0  0  0  0  0  0  0  0  0  0  0
  189.1800  177.3720  143.5430 C   0  0  0  0  0  0  0  0  0  0  0  0
  189.8640  177.0420  144.7940 C   0  0  0  0  0  0  0  0  0  0  0  0
  187.0660  177.5100  144.8540 C   0  0  0  0  0  2  0  0  0  0  0  0
  190.0670  176.8420  147.1090 C   0  0  0  0  0  3  0  0  0  0  0  0
  187.9530  178.0040  141.0960 C   0  0  0  0  0  0  0  0  0  0  0  0
  189.8870  177.3990  142.3350 O   0  0  0  0  0  0  0  0  0  0  0  0
  187.8840  177.7840  146.1300 C   0  0  0  0  0  2  0  0  0  0  0  0
  187.9940  178.3790  138.6750 C   0  0  0  0  0  3  0  0  0  0  0  0
  187.2020  177.9860  142.3280 N   0  0  0  0  0  0  0  0  0  0  0  0
  187.2930  178.2760  139.8040 C   0  0  0  0  0  3  0  0  0  0  0  0
  191.3220  176.4110  146.6860 C   0  0  0  0  0  0  0  0  0  0  0  0
  187.8640  177.6650  143.5670 C   0  0  0  0  0  0  0  0  0  0  0  0
  189.4950  178.2950  138.6670 C   0  0  0  0  0  2  0  0  0  0  0  0
  189.2640  177.7110  141.1190 C   0  0  0  0  0  0  0  0  0  0  0  0
  192.4010  175.9260  147.5870 C   0  0  0  0  0  2  0  0  0  0  0  0
  192.6320  176.8690  148.5890 O   0  0  0  0  0  1  0  0  0  0  0  0
  191.4010  177.2280  139.8940 C   0  0  0  0  0  2  0  0  0  0  0  0
  191.6630  176.3990  138.6820 C   0  0  0  0  0  0  0  0  0  0  0  0
  192.1870  174.8110  136.4390 C   0  0  0  0  0  0  0  0  0  0  0  0
  190.7480  175.4150  138.2910 C   0  0  0  0  0  3  0  0  0  0  0  0
  192.8440  176.5830  137.9540 C   0  0  0  0  0  3  0  0  0  0  0  0
  193.1040  175.7900  136.8310 C   0  0  0  0  0  3  0  0  0  0  0  0
  192.4630  173.9690  135.2460 C   0  0  0  0  0  1  0  0  0  0  0  0
  191.0090  174.6230  137.1700 C   0  0  0  0  0  3  0  0  0  0  0  0
  1 18  1  0  0  0  0
  2 15  1  0  0  0  0
  3 13  1  0  0  0  0
  4 11  1  0  0  0  0
  4  8  1  0  0  0  0
  5 16  2  0  0  0  0
  5  6  1  0  0  0  0
  6  2  1  0  0  0  0
  6  4  2  0  0  0  0
  7 11  1  0  0  0  0
  9 18  2  0  0  0  0
  9 13  1  0  0  0  0
 10  5  1  0  0  0  0
 12 14  2  0  0  0  0
 13 16  1  0  0  0  0
 14  9  1  0  0  0  0
 15  8  2  0  0  0  0
 15 19  1  0  0  0  0
 16  7  1  0  0  0  0
 17 12  1  0  0  0  0
 17  1  1  0  0  0  0
 18 10  1  0  0  0  0
 19 20  1  0  0  0  0
 21  1  1  0  0  0  0
 22 21  1  0  0  0  0
 23 26  2  0  0  0  0
 23 28  1  0  0  0  0
 24 22  1  0  0  0  0
 25 22  2  0  0  0  0
 26 25  1  0  0  0  0
 27 23  1  0  0  0  0
 28 24  2  0  0  0  0
M  END
>  <MODEL>
2

>  <REMARK>
 VINA RESULT:      -9.3      2.402      2.929
  Name = 
  3 active torsions:
  status: ('A' for Active; 'I' for Inactive)
    1  A    between atoms: N_1  and  C_2
    2  A    between atoms: C_2  and  C_3
    3  A    between atoms: C_12  and  C_24
                            x       y       z     vdW  Elec       q    Type
                         _______ _______ _______ _____ _____    ______ ____

>  <TORSDO>
F 3

$$$$
=
 OpenBabel10272401573D

 28 32  0  0  0  0  0  0  0  0999 V2000
  189.7450  176.9920  142.6020 N   0  0  0  0  0  0  0  0  0  0  0  0
  184.5620  178.6220  142.8040 S   0  0  0  0  0  0  0  0  0  0  0  0
  189.0640  177.7190  147.4260 C   0  0  0  0  0  1  0  0  0  0  0  0
  184.3920  178.5600  145.3050 C   0  0  0  0  0  0  0  0  0  0  0  0
  186.7050  178.0300  144.5510 C   0  0  0  0  0  0  0  0  0  0  0  0
  185.3080  178.3800  144.2880 C   0  0  0  0  0  0  0  0  0  0  0  0
  186.2800  178.5630  146.9470 C   0  0  0  0  0  2  0  0  0  0  0  0
  183.1020  178.8690  144.8630 C   0  0  0  0  0  3  0  0  0  0  0  0
  189.3950  177.3340  144.9630 C   0  0  0  0  0  0  0  0  0  0  0  0
  187.5550  177.6680  143.4990 O   0  0  0  0  0  0  0  0  0  0  0  0
  184.7760  178.3040  146.7300 C   0  0  0  0  0  2  0  0  0  0  0  0
  191.5990  176.6060  144.1780 C   0  0  0  0  0  3  0  0  0  0  0  0
  188.5390  177.7010  146.0650 N   0  0  0  0  0  0  0  0  0  0  0  0
  190.8240  177.0290  145.1760 C   0  0  0  0  0  3  0  0  0  0  0  0
  183.0450  178.9420  143.4740 C   0  0  0  0  0  0  0  0  0  0  0  0
  187.1620  178.0450  145.8200 C   0  0  0  0  0  0  0  0  0  0  0  0
  191.0470  176.3510  142.8020 C   0  0  0  0  0  2  0  0  0  0  0  0
  188.8970  177.3270  143.7160 C   0  0  0  0  0  0  0  0  0  0  0  0
  181.8320  179.3010  142.6910 C   0  0  0  0  0  2  0  0  0  0  0  0
  181.9770  178.8610  141.3750 O   0  0  0  0  0  1  0  0  0  0  0  0
  189.2540  177.1350  141.2390 C   0  0  0  0  0  2  0  0  0  0  0  0
  190.3620  176.9180  140.2650 C   0  0  0  0  0  0  0  0  0  0  0  0
  192.4240  176.5510  138.4090 C   0  0  0  0  0  0  0  0  0  0  0  0
  191.6210  177.4850  140.4950 C   0  0  0  0  0  3  0  0  0  0  0  0
  190.1340  176.1730  139.1020 C   0  0  0  0  0  3  0  0  0  0  0  0
  191.1650  175.9880  138.1760 C   0  0  0  0  0  3  0  0  0  0  0  0
  193.5180  176.3550  137.4240 C   0  0  0  0  0  1  0  0  0  0  0  0
  192.6510  177.3000  139.5680 C   0  0  0  0  0  3  0  0  0  0  0  0
  1 17  1  0  0  0  0
  1 18  1  0  0  0  0
  2 15  1  0  0  0  0
  2  6  1  0  0  0  0
  4 11  1  0  0  0  0
  5 16  2  0  0  0  0
  6  5  1  0  0  0  0
  6  4  2  0  0  0  0
  8  4  1  0  0  0  0
  9 14  1  0  0  0  0
  9 13  1  0  0  0  0
 10 18  1  0  0  0  0
 10  5  1  0  0  0  0
 11  7  1  0  0  0  0
 12 14  2  0  0  0  0
 13  3  1  0  0  0  0
 15  8  2  0  0  0  0
 16 13  1  0  0  0  0
 16  7  1  0  0  0  0
 17 12  1  0  0  0  0
 18  9  2  0  0  0  0
 19 15  1  0  0  0  0
 20 19  1  0  0  0  0
 21  1  1  0  0  0  0
 22 24  1  0  0  0  0
 22 21  1  0  0  0  0
 23 28  1  0  0  0  0
 25 22  2  0  0  0  0
 26 23  2  0  0  0  0
 26 25  1  0  0  0  0
 27 23  1  0  0  0  0
 28 24  2  0  0  0  0
M  END
>  <MODEL>
3

>  <REMARK>
 VINA RESULT:      -9.2      2.910      5.480
  Name = 
  3 active torsions:
  status: ('A' for Active; 'I' for Inactive)
    1  A    between atoms: N_1  and  C_2
    2  A    between atoms: C_2  and  C_3
    3  A    between atoms: C_12  and  C_24
                            x       y       z     vdW  Elec       q    Type
                         _______ _______ _______ _____ _____    ______ ____

>  <TORSDO>
F 3

$$$$
=
 OpenBabel10272401573D

 28 32  0  0  0  0  0  0  0  0999 V2000
  189.3680  177.8760  139.2920 N   0  0  0  0  0  0  0  0  0  0  0  0
  188.8770  177.1830  144.6620 S   0  0  0  0  0  0  0  0  0  0  0  0
  184.6070  178.8870  140.0460 C   0  0  0  0  0  1  0  0  0  0  0  0
  186.5430  178.0890  144.8050 C   0  0  0  0  0  0  0  0  0  0  0  0
  187.3250  177.9970  142.4420 C   0  0  0  0  0  0  0  0  0  0  0  0
  187.5220  177.7880  143.8780 C   0  0  0  0  0  0  0  0  0  0  0  0
  184.9080  178.3510  142.9290 C   0  0  0  0  0  2  0  0  0  0  0  0
  186.9180  177.8450  146.1290 C   0  0  0  0  0  3  0  0  0  0  0  0
  187.0430  178.3860  139.6750 C   0  0  0  0  0  0  0  0  0  0  0  0
  188.3980  177.8630  141.5530 O   0  0  0  0  0  0  0  0  0  0  0  0
  185.2650  178.7420  144.3770 C   0  0  0  0  0  2  0  0  0  0  0  0
  187.9230  178.4830  137.3900 C   0  0  0  0  0  3  0  0  0  0  0  0
  185.9210  178.5330  140.5700 N   0  0  0  0  0  0  0  0  0  0  0  0
  186.8770  178.5320  138.2150 C   0  0  0  0  0  3  0  0  0  0  0  0
  188.2090  177.3280  146.2060 C   0  0  0  0  0  0  0  0  0  0  0  0
  186.1020  178.3340  141.9850 C   0  0  0  0  0  0  0  0  0  0  0  0
  189.3300  178.3490  137.9050 C   0  0  0  0  0  2  0  0  0  0  0  0
  188.2450  178.0550  140.1730 C   0  0  0  0  0  0  0  0  0  0  0  0
  188.8840  176.9130  147.4640 C   0  0  0  0  0  2  0  0  0  0  0  0
  189.3090  178.0430  148.1610 O   0  0  0  0  0  1  0  0  0  0  0  0
  190.6300  177.3660  139.8070 C   0  0  0  0  0  2  0  0  0  0  0  0
  191.2480  176.4270  138.8260 C   0  0  0  0  0  0  0  0  0  0  0  0
  192.4230  174.6360  137.0260 C   0  0  0  0  0  0  0  0  0  0  0  0
  190.4790  175.4140  138.2430 C   0  0  0  0  0  3  0  0  0  0  0  0
  192.6070  176.5400  138.5120 C   0  0  0  0  0  3  0  0  0  0  0  0
  193.1940  175.6460  137.6110 C   0  0  0  0  0  3  0  0  0  0  0  0
  193.0470  173.6870  136.0690 C   0  0  0  0  0  1  0  0  0  0  0  0
  191.0660  174.5200  137.3430 C   0  0  0  0  0  3  0  0  0  0  0  0
  1 21  1  0  0  0  0
  1 18  1  0  0  0  0
  2 15  1  0  0  0  0
  3 13  1  0  0  0  0
  4  8  1  0  0  0  0
  5  6  1  0  0  0  0
  6  2  1  0  0  0  0
  6  4  2  0  0  0  0
  7 11  1  0  0  0  0
  8 15  2  0  0  0  0
  9 18  2  0  0  0  0
  9 13  1  0  0  0  0
 10  5  1  0  0  0  0
 11  4  1  0  0  0  0
 12 17  1  0  0  0  0
 12 14  2  0  0  0  0
 13 16  1  0  0  0  0
 14  9  1  0  0  0  0
 15 19  1  0  0  0  0
 16  5  2  0  0  0  0
 16  7  1  0  0  0  0
 17  1  1  0  0  0  0
 18 10  1  0  0  0  0
 19 20  1  0  0  0  0
 22 21  1  0  0  0  0
 23 28  2  0  0  0  0
 23 26  1  0  0  0  0
 24 22  2  0  0  0  0
 25 22  1  0  0  0  0
 26 25  2  0  0  0  0
 27 23  1  0  0  0  0
 28 24  1  0  0  0  0
M  END
>  <MODEL>
4

>  <REMARK>
 VINA RESULT:      -8.7      2.427      3.444
  Name = 
  3 active torsions:
  status: ('A' for Active; 'I' for Inactive)
    1  A    between atoms: N_1  and  C_2
    2  A    between atoms: C_2  and  C_3
    3  A    between atoms: C_12  and  C_24
                            x       y       z     vdW  Elec       q    Type
                         _______ _______ _______ _____ _____    ______ ____

>  <TORSDO>
F 3

$$$$
=
 OpenBabel10272401573D

 28 32  0  0  0  0  0  0  0  0999 V2000
  189.5560  177.8760  140.1530 N   0  0  0  0  0  0  0  0  0  0  0  0
  184.8190  178.8190  142.6490 S   0  0  0  0  0  0  0  0  0  0  0  0
  190.7210  177.2140  144.8930 C   0  0  0  0  0  1  0  0  0  0  0  0
  185.5930  178.0760  144.9150 C   0  0  0  0  0  0  0  0  0  0  0  0
  187.4600  178.0200  143.2670 C   0  0  0  0  0  0  0  0  0  0  0  0
  186.0650  178.2730  143.6320 C   0  0  0  0  0  0  0  0  0  0  0  0
  187.9570  177.8460  145.7020 C   0  0  0  0  0  2  0  0  0  0  0  0
  184.2310  178.3490  145.0700 C   0  0  0  0  0  3  0  0  0  0  0  0
  190.1110  177.5370  142.4750 C   0  0  0  0  0  0  0  0  0  0  0  0
  187.8580  178.0460  141.9250 O   0  0  0  0  0  0  0  0  0  0  0  0
  186.4820  177.4920  145.9700 C   0  0  0  0  0  2  0  0  0  0  0  0
  191.8650  177.2880  140.7820 C   0  0  0  0  0  3  0  0  0  0  0  0
  189.7270  177.5010  143.8650 N   0  0  0  0  0  0  0  0  0  0  0  0
  191.5170  177.3430  142.0680 C   0  0  0  0  0  3  0  0  0  0  0  0
  183.6600  178.7820  143.8760 C   0  0  0  0  0  0  0  0  0  0  0  0
  188.3570  177.7460  144.2360 C   0  0  0  0  0  0  0  0  0  0  0  0
  190.8400  177.3500  139.6820 C   0  0  0  0  0  2  0  0  0  0  0  0
  189.1840  177.8080  141.5410 C   0  0  0  0  0  0  0  0  0  0  0  0
  182.2420  179.2030  143.7160 C   0  0  0  0  0  2  0  0  0  0  0  0
  181.8660  179.0790  142.3790 O   0  0  0  0  0  1  0  0  0  0  0  0
  188.5920  178.3220  139.1570 C   0  0  0  0  0  2  0  0  0  0  0  0
  188.7090  177.4980  137.9200 C   0  0  0  0  0  0  0  0  0  0  0  0
  188.8770  175.9650  135.5850 C   0  0  0  0  0  0  0  0  0  0  0  0
  189.2670  178.0480  136.7600 C   0  0  0  0  0  3  0  0  0  0  0  0
  188.2290  176.1840  137.9080 C   0  0  0  0  0  3  0  0  0  0  0  0
  188.3150  175.4180  136.7420 C   0  0  0  0  0  3  0  0  0  0  0  0
  188.9690  175.1510  134.3460 C   0  0  0  0  0  1  0  0  0  0  0  0
  189.3530  177.2810  135.5940 C   0  0  0  0  0  3  0  0  0  0  0  0
  1 18  1  0  0  0  0
  2  6  1  0  0  0  0
  2 15  1  0  0  0  0
  4  8  1  0  0  0  0
  4 11  1  0  0  0  0
  5  6  1  0  0  0  0
  5 16  2  0  0  0  0
  6  4  2  0  0  0  0
  7 11  1  0  0  0  0
  9 13  1  0  0  0  0
 10  5  1  0  0  0  0
 12 14  2  0  0  0  0
 13 16  1  0  0  0  0
 13  3  1  0  0  0  0
 14  9  1  0  0  0  0
 15  8  2  0  0  0  0
 16  7  1  0  0  0  0
 17  1  1  0  0  0  0
 17 12  1  0  0  0  0
 18 10  1  0  0  0  0
 18  9  2  0  0  0  0
 19 15  1  0  0  0  0
 20 19  1  0  0  0  0
 21  1  1  0  0  0  0
 22 21  1  0  0  0  0
 23 28  2  0  0  0  0
 23 26  1  0  0  0  0
 24 22  2  0  0  0  0
 25 22  1  0  0  0  0
 26 25  2  0  0  0  0
 27 23  1  0  0  0  0
 28 24  1  0  0  0  0
M  END
>  <MODEL>
5

>  <REMARK>
 VINA RESULT:      -8.7      2.523      4.979
  Name = 
  3 active torsions:
  status: ('A' for Active; 'I' for Inactive)
    1  A    between atoms: N_1  and  C_2
    2  A    between atoms: C_2  and  C_3
    3  A    between atoms: C_12  and  C_24
                            x       y       z     vdW  Elec       q    Type
                         _______ _______ _______ _____ _____    ______ ____

>  <TORSDO>
F 3

$$$$
=
 OpenBabel10272401573D

 28 32  0  0  0  0  0  0  0  0999 V2000
  184.4150  178.9210  142.6380 N   0  0  0  0  0  0  0  0  0  0  0  0
  189.2340  177.5350  140.5360 S   0  0  0  0  0  0  0  0  0  0  0  0
  186.9830  177.6620  146.6480 C   0  0  0  0  0  1  0  0  0  0  0  0
  190.3990  177.3080  142.7450 C   0  0  0  0  0  0  0  0  0  0  0  0
  187.9800  177.8100  143.0550 C   0  0  0  0  0  0  0  0  0  0  0  0
  189.1500  177.5630  142.2120 C   0  0  0  0  0  0  0  0  0  0  0  0
  189.3350  177.0190  144.9900 C   0  0  0  0  0  2  0  0  0  0  0  0
  191.4000  177.1180  141.7870 C   0  0  0  0  0  3  0  0  0  0  0  0
  185.6870  178.3190  144.5960 C   0  0  0  0  0  0  0  0  0  0  0  0
  186.7780  178.2520  142.4880 O   0  0  0  0  0  0  0  0  0  0  0  0
  190.6230  177.3750  144.2240 C   0  0  0  0  0  2  0  0  0  0  0  0
  183.3560  179.0260  144.8600 C   0  0  0  0  0  3  0  0  0  0  0  0
  186.9140  177.8670  145.2060 N   0  0  0  0  0  0  0  0  0  0  0  0
  184.4670  178.5270  145.4010 C   0  0  0  0  0  3  0  0  0  0  0  0
  190.8910  177.2130  140.4940 C   0  0  0  0  0  0  0  0  0  0  0  0
  188.0740  177.6230  144.3870 C   0  0  0  0  0  0  0  0  0  0  0  0
  183.3070  179.4690  143.4230 C   0  0  0  0  0  2  0  0  0  0  0  0
  185.6390  178.4990  143.2660 C   0  0  0  0  0  0  0  0  0  0  0  0
  191.6840  177.0090  139.2520 C   0  0  0  0  0  2  0  0  0  0  0  0
  190.8290  176.9860  138.1500 O   0  0  0  0  0  1  0  0  0  0  0  0
  184.3140  178.9650  141.1860 C   0  0  0  0  0  2  0  0  0  0  0  0
  183.2000  178.0910  140.7190 C   0  0  0  0  0  0  0  0  0  0  0  0
  181.1170  176.4180  139.8860 C   0  0  0  0  0  0  0  0  0  0  0  0
  181.8760  178.4030  141.0490 C   0  0  0  0  0  3  0  0  0  0  0  0
  183.4810  176.9370  139.9780 C   0  0  0  0  0  3  0  0  0  0  0  0
  182.4400  176.1030  139.5600 C   0  0  0  0  0  3  0  0  0  0  0  0
  180.0110  175.5310  139.4410 C   0  0  0  0  0  1  0  0  0  0  0  0
  180.8350  177.5680  140.6310 C   0  0  0  0  0  3  0  0  0  0  0  0
  1 18  1  0  0  0  0
  1 17  1  0  0  0  0
  2  6  1  0  0  0  0
  4 11  1  0  0  0  0
  5 16  2  0  0  0  0
  6  4  2  0  0  0  0
  6  5  1  0  0  0  0
  8  4  1  0  0  0  0
  9 13  1  0  0  0  0
  9 14  1  0  0  0  0
 10  5  1  0  0  0  0
 10 18  1  0  0  0  0
 11  7  1  0  0  0  0
 12 14  2  0  0  0  0
 13  3  1  0  0  0  0
 15  2  1  0  0  0  0
 15  8  2  0  0  0  0
 16  7  1  0  0  0  0
 16 13  1  0  0  0  0
 17 12  1  0  0  0  0
 18  9  2  0  0  0  0
 19 15  1  0  0  0  0
 20 19  1  0  0  0  0
 21  1  1  0  0  0  0
 22 24  1  0  0  0  0
 22 21  1  0  0  0  0
 23 28  1  0  0  0  0
 25 22  2  0  0  0  0
 26 23  2  0  0  0  0
 26 25  1  0  0  0  0
 27 23  1  0  0  0  0
 28 24  2  0  0  0  0
M  END
>  <MODEL>
6

>  <REMARK>
 VINA RESULT:      -8.5      2.970      5.653
  Name = 
  3 active torsions:
  status: ('A' for Active; 'I' for Inactive)
    1  A    between atoms: N_1  and  C_2
    2  A    between atoms: C_2  and  C_3
    3  A    between atoms: C_12  and  C_24
                            x       y       z     vdW  Elec       q    Type
                         _______ _______ _______ _____ _____    ______ ____

>  <TORSDO>
F 3

$$$$
=
 OpenBabel10272401573D

 28 32  0  0  0  0  0  0  0  0999 V2000
  186.5810  178.4920  140.1210 N   0  0  0  0  0  0  0  0  0  0  0  0
  187.7430  177.9500  145.4050 S   0  0  0  0  0  0  0  0  0  0  0  0
  191.3540  177.2780  140.0240 C   0  0  0  0  0  1  0  0  0  0  0  0
  190.0380  177.0060  145.0470 C   0  0  0  0  0  0  0  0  0  0  0  0
  188.9820  177.6390  142.8820 C   0  0  0  0  0  0  0  0  0  0  0  0
  188.9680  177.5210  144.3420 C   0  0  0  0  0  0  0  0  0  0  0  0
  191.4240  177.1530  142.9690 C   0  0  0  0  0  2  0  0  0  0  0  0
  189.8360  176.9500  146.4290 C   0  0  0  0  0  3  0  0  0  0  0  0
  188.9130  177.8800  140.0850 C   0  0  0  0  0  0  0  0  0  0  0  0
  187.8160  177.9830  142.1880 O   0  0  0  0  0  0  0  0  0  0  0  0
  191.2280  176.4510  144.3270 C   0  0  0  0  0  2  0  0  0  0  0  0
  187.7600  178.3110  137.9660 C   0  0  0  0  0  3  0  0  0  0  0  0
  190.1280  177.5210  140.7760 N   0  0  0  0  0  0  0  0  0  0  0  0
  188.8960  178.0650  138.6200 C   0  0  0  0  0  3  0  0  0  0  0  0
  188.5860  177.4530  146.7810 C   0  0  0  0  0  0  0  0  0  0  0  0
  190.1260  177.3980  142.2110 C   0  0  0  0  0  0  0  0  0  0  0  0
  186.4330  178.3430  138.6710 C   0  0  0  0  0  2  0  0  0  0  0  0
  187.7940  178.1040  140.7920 C   0  0  0  0  0  0  0  0  0  0  0  0
  188.0840  177.5810  148.1750 C   0  0  0  0  0  2  0  0  0  0  0  0
  188.9820  178.3370  148.9280 O   0  0  0  0  0  1  0  0  0  0  0  0
  185.4120  178.8880  140.8930 C   0  0  0  0  0  2  0  0  0  0  0  0
  184.1690  178.6620  140.1000 C   0  0  0  0  0  0  0  0  0  0  0  0
  181.8080  178.2540  138.6540 C   0  0  0  0  0  0  0  0  0  0  0  0
  183.7110  179.6440  139.2150 C   0  0  0  0  0  3  0  0  0  0  0  0
  183.4400  177.4780  140.2670 C   0  0  0  0  0  3  0  0  0  0  0  0
  182.2620  177.2740  139.5420 C   0  0  0  0  0  3  0  0  0  0  0  0
  180.5560  178.0370  137.8850 C   0  0  0  0  0  1  0  0  0  0  0  0
  182.5320  179.4400  138.4910 C   0  0  0  0  0  3  0  0  0  0  0  0
  1 18  1  0  0  0  0
  1 21  1  0  0  0  0
  2 15  1  0  0  0  0
  3 13  1  0  0  0  0
  4  8  1  0  0  0  0
  5  6  1  0  0  0  0
  6  4  2  0  0  0  0
  6  2  1  0  0  0  0
  7 11  1  0  0  0  0
  8 15  2  0  0  0  0
  9 13  1  0  0  0  0
  9 18  2  0  0  0  0
 10  5  1  0  0  0  0
 11  4  1  0  0  0  0
 12 14  2  0  0  0  0
 12 17  1  0  0  0  0
 13 16  1  0  0  0  0
 14  9  1  0  0  0  0
 15 19  1  0  0  0  0
 16  5  2  0  0  0  0
 16  7  1  0  0  0  0
 17  1  1  0  0  0  0
 18 10  1  0  0  0  0
 19 20  1  0  0  0  0
 22 25  1  0  0  0  0
 22 21  1  0  0  0  0
 23 26  1  0  0  0  0
 24 22  2  0  0  0  0
 26 25  2  0  0  0  0
 27 23  1  0  0  0  0
 28 23  2  0  0  0  0
 28 24  1  0  0  0  0
M  END
>  <MODEL>
7

>  <REMARK>
 VINA RESULT:      -8.4      2.398      4.969
  Name = 
  3 active torsions:
  status: ('A' for Active; 'I' for Inactive)
    1  A    between atoms: N_1  and  C_2
    2  A    between atoms: C_2  and  C_3
    3  A    between atoms: C_12  and  C_24
                            x       y       z     vdW  Elec       q    Type
                         _______ _______ _______ _____ _____    ______ ____

>  <TORSDO>
F 3

$$$$
=
 OpenBabel10272401573D

 28 32  0  0  0  0  0  0  0  0999 V2000
  189.2130  177.7780  138.6260 N   0  0  0  0  0  0  0  0  0  0  0  0
  185.2220  178.9890  142.1140 S   0  0  0  0  0  0  0  0  0  0  0  0
  191.2570  176.6880  142.9720 C   0  0  0  0  0  1  0  0  0  0  0  0
  186.3660  178.0230  144.1260 C   0  0  0  0  0  0  0  0  0  0  0  0
  187.8340  177.9050  142.1180 C   0  0  0  0  0  0  0  0  0  0  0  0
  186.5800  178.2630  142.7820 C   0  0  0  0  0  0  0  0  0  0  0  0
  188.8040  177.5200  144.3800 C   0  0  0  0  0  2  0  0  0  0  0  0
  185.1020  178.4110  144.5800 C   0  0  0  0  0  3  0  0  0  0  0  0
  190.1980  177.2310  140.7580 C   0  0  0  0  0  0  0  0  0  0  0  0
  187.9460  177.9850  140.7250 O   0  0  0  0  0  0  0  0  0  0  0  0
  187.3860  177.2880  144.9400 C   0  0  0  0  0  2  0  0  0  0  0  0
  191.5260  176.9350  138.7200 C   0  0  0  0  0  3  0  0  0  0  0  0
  190.1080  177.1370  142.1950 N   0  0  0  0  0  0  0  0  0  0  0  0
  191.4590  176.9350  140.0520 C   0  0  0  0  0  3  0  0  0  0  0  0
  184.3450  178.9770  143.5570 C   0  0  0  0  0  0  0  0  0  0  0  0
  188.8780  177.4830  142.8600 C   0  0  0  0  0  0  0  0  0  0  0  0
  190.3090  177.1670  137.8680 C   0  0  0  0  0  2  0  0  0  0  0  0
  189.1320  177.6500  140.0560 C   0  0  0  0  0  0  0  0  0  0  0  0
  182.9780  179.5380  143.7220 C   0  0  0  0  0  2  0  0  0  0  0  0
  182.0980  178.5230  144.0970 O   0  0  0  0  0  1  0  0  0  0  0  0
  188.1170  178.3790  137.8800 C   0  0  0  0  0  2  0  0  0  0  0  0
  187.0650  177.3610  137.5950 C   0  0  0  0  0  0  0  0  0  0  0  0
  185.0900  175.4670  137.0100 C   0  0  0  0  0  0  0  0  0  0  0  0
  187.4280  176.0530  137.2530 C   0  0  0  0  0  3  0  0  0  0  0  0
  185.7140  177.7220  137.6360 C   0  0  0  0  0  3  0  0  0  0  0  0
  184.7270  176.7750  137.3460 C   0  0  0  0  0  3  0  0  0  0  0  0
  184.0410  174.4610  136.7010 C   0  0  0  0  0  1  0  0  0  0  0  0
  186.4410  175.1070  136.9620 C   0  0  0  0  0  3  0  0  0  0  0  0
  1 18  1  0  0  0  0
  2  6  1  0  0  0  0
  2 15  1  0  0  0  0
  4  8  1  0  0  0  0
  4 11  1  0  0  0  0
  5  6  1  0  0  0  0
  5 16  2  0  0  0  0
  6  4  2  0  0  0  0
  7 11  1  0  0  0  0
  9 13  1  0  0  0  0
 10  5  1  0  0  0  0
 12 14  2  0  0  0  0
 13 16  1  0  0  0  0
 13  3  1  0  0  0  0
 14  9  1  0  0  0  0
 15 19  1  0  0  0  0
 15  8  2  0  0  0  0
 16  7  1  0  0  0  0
 17  1  1  0  0  0  0
 17 12  1  0  0  0  0
 18 10  1  0  0  0  0
 18  9  2  0  0  0  0
 19 20  1  0  0  0  0
 21  1  1  0  0  0  0
 22 25  1  0  0  0  0
 22 21  1  0  0  0  0
 23 26  1  0  0  0  0
 24 22  2  0  0  0  0
 26 25  2  0  0  0  0
 27 23  1  0  0  0  0
 28 23  2  0  0  0  0
 28 24  1  0  0  0  0
M  END
>  <MODEL>
8

>  <REMARK>
 VINA RESULT:      -8.4      2.997      5.309
  Name = 
  3 active torsions:
  status: ('A' for Active; 'I' for Inactive)
    1  A    between atoms: N_1  and  C_2
    2  A    between atoms: C_2  and  C_3
    3  A    between atoms: C_12  and  C_24
                            x       y       z     vdW  Elec       q    Type
                         _______ _______ _______ _____ _____    ______ ____

>  <TORSDO>
F 3

$$$$
=
 OpenBabel10272401573D

 28 32  0  0  0  0  0  0  0  0999 V2000
  187.6860  178.0200  145.0530 N   0  0  0  0  0  0  0  0  0  0  0  0
  187.3120  178.4130  139.6430 S   0  0  0  0  0  0  0  0  0  0  0  0
  182.8660  178.7890  144.3910 C   0  0  0  0  0  1  0  0  0  0  0  0
  184.8050  178.4280  139.5800 C   0  0  0  0  0  0  0  0  0  0  0  0
  185.6420  178.4130  141.9250 C   0  0  0  0  0  0  0  0  0  0  0  0
  185.8560  178.4180  140.4770 C   0  0  0  0  0  0  0  0  0  0  0  0
  183.2500  178.9420  141.4710 C   0  0  0  0  0  2  0  0  0  0  0  0
  185.2010  178.4090  138.2390 C   0  0  0  0  0  3  0  0  0  0  0  0
  185.3250  178.3790  144.7160 C   0  0  0  0  0  0  0  0  0  0  0  0
  186.7170  178.2100  142.7990 O   0  0  0  0  0  0  0  0  0  0  0  0
  183.3910  178.3320  140.0630 C   0  0  0  0  0  2  0  0  0  0  0  0
  186.1820  178.1450  147.0000 C   0  0  0  0  0  3  0  0  0  0  0  0
  184.2000  178.5870  143.8370 N   0  0  0  0  0  0  0  0  0  0  0  0
  185.1650  178.4220  146.1830 C   0  0  0  0  0  3  0  0  0  0  0  0
  186.5880  178.4030  138.1170 C   0  0  0  0  0  0  0  0  0  0  0  0
  184.3970  178.5910  142.4100 C   0  0  0  0  0  0  0  0  0  0  0  0
  187.5210  177.7070  146.4750 C   0  0  0  0  0  2  0  0  0  0  0  0
  186.5480  178.1990  144.1900 C   0  0  0  0  0  0  0  0  0  0  0  0
  187.3280  178.4360  136.8280 C   0  0  0  0  0  2  0  0  0  0  0  0
  188.4760  179.2170  136.9670 O   0  0  0  0  0  1  0  0  0  0  0  0
  189.0300  177.9820  144.4950 C   0  0  0  0  0  2  0  0  0  0  0  0
  189.9730  177.3470  145.4600 C   0  0  0  0  0  0  0  0  0  0  0  0
  191.7760  176.1950  147.2640 C   0  0  0  0  0  0  0  0  0  0  0  0
  189.8240  177.5640  146.8350 C   0  0  0  0  0  3  0  0  0  0  0  0
  191.0290  176.5590  144.9880 C   0  0  0  0  0  3  0  0  0  0  0  0
  191.9280  175.9820  145.8900 C   0  0  0  0  0  3  0  0  0  0  0  0
  192.7320  175.5820  148.2210 C   0  0  0  0  0  1  0  0  0  0  0  0
  190.7240  176.9870  147.7360 C   0  0  0  0  0  3  0  0  0  0  0  0
  1 17  1  0  0  0  0
  2  6  1  0  0  0  0
  4 11  1  0  0  0  0
  4  6  2  0  0  0  0
  5 16  2  0  0  0  0
  5 10  1  0  0  0  0
  6  5  1  0  0  0  0
  7 16  1  0  0  0  0
  8  4  1  0  0  0  0
  9 14  1  0  0  0  0
 10 18  1  0  0  0  0
 11  7  1  0  0  0  0
 13  3  1  0  0  0  0
 13  9  1  0  0  0  0
 14 12  2  0  0  0  0
 15  8  2  0  0  0  0
 15  2  1  0  0  0  0
 16 13  1  0  0  0  0
 17 12  1  0  0  0  0
 18  9  2  0  0  0  0
 18  1  1  0  0  0  0
 19 20  1  0  0  0  0
 19 15  1  0  0  0  0
 21  1  1  0  0  0  0
 21 22  1  0  0  0  0
 22 24  1  0  0  0  0
 23 28  1  0  0  0  0
 23 27  1  0  0  0  0
 24 28  2  0  0  0  0
 25 22  2  0  0  0  0
 25 26  1  0  0  0  0
 26 23  2  0  0  0  0
M  END
>  <MODEL>
9

>  <REMARK>
 VINA RESULT:      -8.1      2.489      7.593
  Name = 
  3 active torsions:
  status: ('A' for Active; 'I' for Inactive)
    1  A    between atoms: N_1  and  C_2
    2  A    between atoms: C_2  and  C_3
    3  A    between atoms: C_12  and  C_24
                            x       y       z     vdW  Elec       q    Type
                         _______ _______ _______ _____ _____    ______ ____

>  <TORSDO>
F 3

$$$$
