=
 OpenBabel10272401083D

 27 31  0  0  1  0  0  0  0  0999 V2000
  187.5430  178.5230  142.0400 O   0  0  0  0  0  0  0  0  0  0  0  0
  187.9790  177.5570  144.1830 C   0  0  0  0  0  0  0  0  0  0  0  0
  189.6760  176.5100  142.6850 N   0  0  0  0  0  2  0  0  0  0  0  0
  190.4900  177.0490  147.4380 N   0  0  0  0  0  0  0  0  0  0  0  0
  191.7080  176.4550  147.3240 C   0  0  0  0  0  0  0  0  0  0  0  0
  187.6220  177.9750  145.4320 N   0  0  0  0  0  0  0  0  0  0  0  0
  191.3330  176.1600  144.9600 C   0  0  0  0  0  3  0  0  0  0  0  0
  190.1720  177.1660  139.0660 C   0  0  0  0  0  0  0  0  0  0  0  0
  192.1500  176.0000  146.0790 C   0  0  0  0  0  3  0  0  0  0  0  0
  191.0630  176.6750  137.9830 C   0  0  0  0  0  1  0  0  0  0  0  0
  190.0790  176.7710  145.0890 C   0  0  0  0  0  0  0  0  0  0  0  0
  187.0140  177.6750  143.0440 C   0  0  1  0  0  3  0  0  0  0  0  0
  192.5320  176.2980  148.4710 N   0  0  0  0  0  1  0  0  0  0  0  0
  189.6760  177.2160  146.3630 C   0  0  0  0  0  0  0  0  0  0  0  0
  188.4790  178.0780  141.1090 C   0  0  0  0  0  0  0  0  0  0  0  0
  189.2370  176.9620  143.9770 C   0  0  0  0  0  0  0  0  0  0  0  0
  190.2460  176.6020  140.3400 C   0  0  0  0  0  3  0  0  0  0  0  0
  188.4340  177.8260  146.5100 C   0  0  0  0  0  3  0  0  0  0  0  0
  189.2840  178.2110  138.8200 C   0  0  0  0  0  3  0  0  0  0  0  0
  188.4430  178.6620  139.8380 C   0  0  0  0  0  3  0  0  0  0  0  0
  189.4200  177.0510  141.3780 C   0  0  0  0  0  0  0  0  0  0  0  0
  183.0700  178.9540  144.1830 C   0  0  0  0  0  3  0  0  0  0  0  0
  185.6470  178.1360  143.4540 C   0  0  0  0  0  0  0  0  0  0  0  0
  184.6660  178.3250  142.4750 C   0  0  0  0  0  3  0  0  0  0  0  0
  183.3800  178.7350  142.8380 C   0  0  0  0  0  3  0  0  0  0  0  0
  184.0450  178.7620  145.1670 C   0  0  0  0  0  3  0  0  0  0  0  0
  185.3310  178.3520  144.8040 C   0  0  0  0  0  3  0  0  0  0  0  0
  1 12  1  0  0  0  0
  2  6  1  0  0  0  0
  3 16  1  0  0  0  0
  5  4  1  0  0  0  0
  5 13  1  0  0  0  0
  6 18  2  0  0  0  0
  7 11  2  0  0  0  0
  7  9  1  0  0  0  0
  8 17  1  0  0  0  0
  9  5  2  0  0  0  0
 10  8  1  0  0  0  0
 11 14  1  0  0  0  0
 12 23  1  1  0  0  0
 12  2  1  0  0  0  0
 14 18  1  0  0  0  0
 14  4  2  0  0  0  0
 15 21  1  0  0  0  0
 15  1  1  0  0  0  0
 16  2  2  0  0  0  0
 16 11  1  0  0  0  0
 17 21  2  0  0  0  0
 19  8  2  0  0  0  0
 19 20  1  0  0  0  0
 20 15  2  0  0  0  0
 21  3  1  0  0  0  0
 22 26  1  0  0  0  0
 23 27  1  0  0  0  0
 24 25  1  0  0  0  0
 24 23  2  0  0  0  0
 25 22  2  0  0  0  0
 27 26  2  0  0  0  0
M  END
>  <MODEL>
1

>  <REMARK>
 VINA RESULT:     -11.4      0.000      0.000
  Name = 
  1 active torsions:
  status: ('A' for Active; 'I' for Inactive)
    1  A    between atoms: C_9  and  C_15
                            x       y       z     vdW  Elec       q    Type
                         _______ _______ _______ _____ _____    ______ ____

>  <TORSDO>
F 1

$$$$
=
 OpenBabel10272401083D

 27 31  0  0  1  0  0  0  0  0999 V2000
  189.5430  178.3630  141.6870 O   0  0  0  0  0  0  0  0  0  0  0  0
  187.1970  178.1200  141.2980 C   0  0  0  0  0  0  0  0  0  0  0  0
  187.5010  177.4010  143.6670 N   0  0  0  0  0  2  0  0  0  0  0  0
  183.2960  179.2540  142.1070 N   0  0  0  0  0  0  0  0  0  0  0  0
  182.7410  179.1010  143.3390 C   0  0  0  0  0  0  0  0  0  0  0  0
  186.3970  178.6640  140.3350 N   0  0  0  0  0  0  0  0  0  0  0  0
  184.8120  178.1650  144.1460 C   0  0  0  0  0  3  0  0  0  0  0  0
  190.6700  177.3430  145.5970 C   0  0  0  0  0  0  0  0  0  0  0  0
  183.4920  178.5530  144.3820 C   0  0  0  0  0  3  0  0  0  0  0  0
  191.1050  176.9520  146.9620 C   0  0  0  0  0  1  0  0  0  0  0  0
  185.3730  178.3250  142.8730 C   0  0  0  0  0  0  0  0  0  0  0  0
  188.5720  177.6390  140.9530 C   0  0  1  0  0  3  0  0  0  0  0  0
  181.3960  179.5000  143.5670 N   0  0  0  0  0  1  0  0  0  0  0  0
  184.5790  178.8840  141.8530 C   0  0  0  0  0  0  0  0  0  0  0  0
  189.8470  178.0640  143.0130 C   0  0  0  0  0  0  0  0  0  0  0  0
  186.7060  177.9580  142.6060 C   0  0  0  0  0  0  0  0  0  0  0  0
  189.3460  177.1440  145.2030 C   0  0  0  0  0  3  0  0  0  0  0  0
  185.1190  179.0510  140.5820 C   0  0  0  0  0  3  0  0  0  0  0  0
  191.5740  177.9370  144.7180 C   0  0  0  0  0  3  0  0  0  0  0  0
  191.1620  178.2950  143.4340 C   0  0  0  0  0  3  0  0  0  0  0  0
  188.9100  177.5100  143.9230 C   0  0  0  0  0  0  0  0  0  0  0  0
  189.4100  177.7350  136.7360 C   0  0  0  0  0  3  0  0  0  0  0  0
  188.8800  177.6870  139.4860 C   0  0  0  0  0  0  0  0  0  0  0  0
  189.0150  176.4900  138.7740 C   0  0  0  0  0  3  0  0  0  0  0  0
  189.2820  176.5130  137.4020 C   0  0  0  0  0  3  0  0  0  0  0  0
  189.2720  178.9350  137.4410 C   0  0  0  0  0  3  0  0  0  0  0  0
  189.0040  178.9120  138.8120 C   0  0  0  0  0  3  0  0  0  0  0  0
  1 15  1  0  0  0  0
  2 16  1  0  0  0  0
  3 21  1  0  0  0  0
  4  5  2  0  0  0  0
  5 13  1  0  0  0  0
  5  9  1  0  0  0  0
  6 18  1  0  0  0  0
  6  2  2  0  0  0  0
  7  9  2  0  0  0  0
  8 10  1  0  0  0  0
 11  7  1  0  0  0  0
 12 23  1  6  0  0  0
 12  2  1  0  0  0  0
 12  1  1  0  0  0  0
 14  4  1  0  0  0  0
 14 11  1  0  0  0  0
 15 20  2  0  0  0  0
 15 21  1  0  0  0  0
 16 11  2  0  0  0  0
 16  3  1  0  0  0  0
 17  8  1  0  0  0  0
 18 14  2  0  0  0  0
 19  8  2  0  0  0  0
 20 19  1  0  0  0  0
 21 17  2  0  0  0  0
 22 25  2  0  0  0  0
 22 26  1  0  0  0  0
 24 23  2  0  0  0  0
 25 24  1  0  0  0  0
 26 27  2  0  0  0  0
 27 23  1  0  0  0  0
M  END
>  <MODEL>
2

>  <REMARK>
 VINA RESULT:     -10.5      2.296      6.819
  Name = 
  1 active torsions:
  status: ('A' for Active; 'I' for Inactive)
    1  A    between atoms: C_9  and  C_15
                            x       y       z     vdW  Elec       q    Type
                         _______ _______ _______ _____ _____    ______ ____

>  <TORSDO>
F 1

$$$$
=
 OpenBabel10272401083D

 27 31  0  0  1  0  0  0  0  0999 V2000
  189.6010  176.6990  142.7710 O   0  0  0  0  0  0  0  0  0  0  0  0
  187.8400  177.7340  144.0140 C   0  0  0  0  0  0  0  0  0  0  0  0
  187.5670  178.6330  141.7030 N   0  0  0  0  0  2  0  0  0  0  0  0
  183.7950  178.2590  144.7340 N   0  0  0  0  0  0  0  0  0  0  0  0
  182.9600  178.7890  143.8010 C   0  0  0  0  0  0  0  0  0  0  0  0
  187.2770  177.3880  145.2080 N   0  0  0  0  0  0  0  0  0  0  0  0
  184.8120  179.0000  142.2720 C   0  0  0  0  0  3  0  0  0  0  0  0
  189.6140  177.7980  138.7230 C   0  0  0  0  0  0  0  0  0  0  0  0
  183.4560  179.1680  142.5510 C   0  0  0  0  0  3  0  0  0  0  0  0
  189.6680  178.1990  137.2930 C   0  0  0  0  0  1  0  0  0  0  0  0
  185.6660  178.4560  143.2410 C   0  0  0  0  0  0  0  0  0  0  0  0
  189.3190  177.6140  143.8150 C   0  0  1  0  0  3  0  0  0  0  0  0
  181.5790  178.9550  144.0960 N   0  0  0  0  0  1  0  0  0  0  0  0
  185.1200  178.0860  144.4860 C   0  0  0  0  0  0  0  0  0  0  0  0
  189.5210  177.0580  141.4270 C   0  0  0  0  0  0  0  0  0  0  0  0
  187.0350  178.2590  142.9860 C   0  0  0  0  0  0  0  0  0  0  0  0
  188.7050  178.4130  139.5860 C   0  0  0  0  0  3  0  0  0  0  0  0
  185.9520  177.5430  145.4600 C   0  0  0  0  0  3  0  0  0  0  0  0
  190.4480  176.7880  139.1970 C   0  0  0  0  0  3  0  0  0  0  0  0
  190.4000  176.4220  140.5430 C   0  0  0  0  0  3  0  0  0  0  0  0
  188.6320  178.0490  140.9360 C   0  0  0  0  0  0  0  0  0  0  0  0
  191.5200  176.5530  147.3540 C   0  0  0  0  0  3  0  0  0  0  0  0
  190.0690  177.2380  145.0590 C   0  0  0  0  0  0  0  0  0  0  0  0
  191.2580  176.5090  144.9480 C   0  0  0  0  0  3  0  0  0  0  0  0
  191.9820  176.1650  146.0930 C   0  0  0  0  0  3  0  0  0  0  0  0
  190.3340  177.2850  147.4710 C   0  0  0  0  0  3  0  0  0  0  0  0
  189.6110  177.6290  146.3260 C   0  0  0  0  0  3  0  0  0  0  0  0
  1 12  1  0  0  0  0
  2  6  1  0  0  0  0
  3 16  1  0  0  0  0
  5 13  1  0  0  0  0
  5  4  2  0  0  0  0
  6 18  2  0  0  0  0
  7  9  2  0  0  0  0
  7 11  1  0  0  0  0
  8 19  2  0  0  0  0
  8 17  1  0  0  0  0
  9  5  1  0  0  0  0
 10  8  1  0  0  0  0
 11 14  2  0  0  0  0
 12  2  1  0  0  0  0
 12 23  1  1  0  0  0
 14  4  1  0  0  0  0
 14 18  1  0  0  0  0
 15  1  1  0  0  0  0
 16 11  1  0  0  0  0
 16  2  2  0  0  0  0
 17 21  2  0  0  0  0
 19 20  1  0  0  0  0
 20 15  2  0  0  0  0
 21 15  1  0  0  0  0
 21  3  1  0  0  0  0
 22 26  1  0  0  0  0
 23 27  1  0  0  0  0
 24 23  2  0  0  0  0
 24 25  1  0  0  0  0
 25 22  2  0  0  0  0
 27 26  2  0  0  0  0
M  END
>  <MODEL>
3

>  <REMARK>
 VINA RESULT:     -10.2      1.748      5.746
  Name = 
  1 active torsions:
  status: ('A' for Active; 'I' for Inactive)
    1  A    between atoms: C_9  and  C_15
                            x       y       z     vdW  Elec       q    Type
                         _______ _______ _______ _____ _____    ______ ____

>  <TORSDO>
F 1

$$$$
=
 OpenBabel10272401083D

 27 31  0  0  1  0  0  0  0  0999 V2000
  186.7470  178.7610  140.6640 O   0  0  0  0  0  0  0  0  0  0  0  0
  186.0990  178.1850  142.8920 C   0  0  0  0  0  0  0  0  0  0  0  0
  188.3080  177.0670  142.5910 N   0  0  0  0  0  2  0  0  0  0  0  0
  186.7320  178.4130  146.9790 N   0  0  0  0  0  0  0  0  0  0  0  0
  187.8550  177.9170  147.5630 C   0  0  0  0  0  0  0  0  0  0  0  0
  185.1830  178.7610  143.7250 N   0  0  0  0  0  0  0  0  0  0  0  0
  188.6650  177.2240  145.4000 C   0  0  0  0  0  3  0  0  0  0  0  0
  190.4850  177.1900  139.5880 C   0  0  0  0  0  0  0  0  0  0  0  0
  188.8430  177.3120  146.7810 C   0  0  0  0  0  3  0  0  0  0  0  0
  191.7870  176.6150  139.1640 C   0  0  0  0  0  1  0  0  0  0  0  0
  187.5030  177.7360  144.8080 C   0  0  0  0  0  0  0  0  0  0  0  0
  185.8010  178.0380  141.4320 C   0  0  1  0  0  3  0  0  0  0  0  0
  188.0260  178.0130  148.9710 N   0  0  0  0  0  1  0  0  0  0  0  0
  186.5360  178.3380  145.6360 C   0  0  0  0  0  0  0  0  0  0  0  0
  188.0170  178.2590  140.3840 C   0  0  0  0  0  0  0  0  0  0  0  0
  187.3010  177.6760  143.4170 C   0  0  0  0  0  0  0  0  0  0  0  0
  189.9360  176.8400  140.8220 C   0  0  0  0  0  3  0  0  0  0  0  0
  185.3760  178.8540  145.0660 C   0  0  0  0  0  3  0  0  0  0  0  0
  189.8240  178.1020  138.7670 C   0  0  0  0  0  3  0  0  0  0  0  0
  188.5960  178.6320  139.1660 C   0  0  0  0  0  3  0  0  0  0  0  0
  188.7130  177.3730  141.2460 C   0  0  0  0  0  0  0  0  0  0  0  0
  181.8100  179.1640  140.2940 C   0  0  0  0  0  3  0  0  0  0  0  0
  184.4050  178.4370  141.0550 C   0  0  0  0  0  0  0  0  0  0  0  0
  184.1950  179.1710  139.8820 C   0  0  0  0  0  3  0  0  0  0  0  0
  182.9000  179.5360  139.5030 C   0  0  0  0  0  3  0  0  0  0  0  0
  182.0130  178.4260  141.4650 C   0  0  0  0  0  3  0  0  0  0  0  0
  183.3070  178.0610  141.8430 C   0  0  0  0  0  3  0  0  0  0  0  0
  1 12  1  0  0  0  0
  2 16  2  0  0  0  0
  2  6  1  0  0  0  0
  3 16  1  0  0  0  0
  4  5  1  0  0  0  0
  5 13  1  0  0  0  0
  6 18  2  0  0  0  0
  7  9  1  0  0  0  0
  8 17  1  0  0  0  0
  9  5  2  0  0  0  0
 10  8  1  0  0  0  0
 11  7  2  0  0  0  0
 11 14  1  0  0  0  0
 12 23  1  1  0  0  0
 12  2  1  0  0  0  0
 14  4  2  0  0  0  0
 15  1  1  0  0  0  0
 15 21  1  0  0  0  0
 16 11  1  0  0  0  0
 17 21  2  0  0  0  0
 18 14  1  0  0  0  0
 19 20  1  0  0  0  0
 19  8  2  0  0  0  0
 20 15  2  0  0  0  0
 21  3  1  0  0  0  0
 22 26  1  0  0  0  0
 23 27  1  0  0  0  0
 24 23  2  0  0  0  0
 25 24  1  0  0  0  0
 25 22  2  0  0  0  0
 26 27  2  0  0  0  0
M  END
>  <MODEL>
4

>  <REMARK>
 VINA RESULT:     -10.2      1.883      2.843
  Name = 
  1 active torsions:
  status: ('A' for Active; 'I' for Inactive)
    1  A    between atoms: C_9  and  C_15
                            x       y       z     vdW  Elec       q    Type
                         _______ _______ _______ _____ _____    ______ ____

>  <TORSDO>
F 1

$$$$
=
 OpenBabel10272401083D

 27 31  0  0  1  0  0  0  0  0999 V2000
  189.8470  176.5190  141.4640 O   0  0  0  0  0  0  0  0  0  0  0  0
  188.2160  177.5990  142.8380 C   0  0  0  0  0  0  0  0  0  0  0  0
  187.8100  178.5320  140.5610 N   0  0  0  0  0  2  0  0  0  0  0  0
  184.2530  178.2530  143.8510 N   0  0  0  0  0  0  0  0  0  0  0  0
  183.3720  178.8210  142.9840 C   0  0  0  0  0  0  0  0  0  0  0  0
  187.7280  177.2590  144.0670 N   0  0  0  0  0  0  0  0  0  0  0  0
  185.1170  178.9860  141.3280 C   0  0  0  0  0  3  0  0  0  0  0  0
  189.6100  177.6610  137.4350 C   0  0  0  0  0  0  0  0  0  0  0  0
  183.7910  179.1970  141.7050 C   0  0  0  0  0  3  0  0  0  0  0  0
  189.5760  178.0750  136.0080 C   0  0  0  0  0  1  0  0  0  0  0  0
  186.0190  178.4030  142.2290 C   0  0  0  0  0  0  0  0  0  0  0  0
  189.6720  177.4310  142.5330 C   0  0  1  0  0  3  0  0  0  0  0  0
  182.0230  179.0310  143.3780 N   0  0  0  0  0  1  0  0  0  0  0  0
  185.5500  178.0380  143.5070 C   0  0  0  0  0  0  0  0  0  0  0  0
  189.6840  176.8950  140.1320 C   0  0  0  0  0  0  0  0  0  0  0  0
  187.3590  178.1620  141.8750 C   0  0  0  0  0  0  0  0  0  0  0  0
  188.7870  178.2960  138.3660 C   0  0  0  0  0  3  0  0  0  0  0  0
  186.4300  177.4570  144.4150 C   0  0  0  0  0  3  0  0  0  0  0  0
  190.4400  176.6180  137.8400 C   0  0  0  0  0  3  0  0  0  0  0  0
  190.4750  176.2390  139.1820 C   0  0  0  0  0  3  0  0  0  0  0  0
  188.7970  177.9200  139.7140 C   0  0  0  0  0  0  0  0  0  0  0  0
  191.9820  176.2520  145.9640 C   0  0  0  0  0  3  0  0  0  0  0  0
  190.4950  177.0160  143.7170 C   0  0  0  0  0  0  0  0  0  0  0  0
  190.4950  177.8150  144.8660 C   0  0  0  0  0  3  0  0  0  0  0  0
  191.2380  177.4360  145.9870 C   0  0  0  0  0  3  0  0  0  0  0  0
  191.9820  175.4470  144.8210 C   0  0  0  0  0  3  0  0  0  0  0  0
  191.2380  175.8260  143.7000 C   0  0  0  0  0  3  0  0  0  0  0  0
  1 12  1  0  0  0  0
  2  6  1  0  0  0  0
  3 16  1  0  0  0  0
  5 13  1  0  0  0  0
  5  4  2  0  0  0  0
  6 18  2  0  0  0  0
  7  9  2  0  0  0  0
  7 11  1  0  0  0  0
  8 19  2  0  0  0  0
  8 17  1  0  0  0  0
  9  5  1  0  0  0  0
 10  8  1  0  0  0  0
 11 14  2  0  0  0  0
 12  2  1  0  0  0  0
 12 23  1  1  0  0  0
 14  4  1  0  0  0  0
 14 18  1  0  0  0  0
 15  1  1  0  0  0  0
 16 11  1  0  0  0  0
 16  2  2  0  0  0  0
 17 21  2  0  0  0  0
 19 20  1  0  0  0  0
 20 15  2  0  0  0  0
 21 15  1  0  0  0  0
 21  3  1  0  0  0  0
 22 25  1  0  0  0  0
 23 24  1  0  0  0  0
 24 25  2  0  0  0  0
 26 22  2  0  0  0  0
 27 23  2  0  0  0  0
 27 26  1  0  0  0  0
M  END
>  <MODEL>
5

>  <REMARK>
 VINA RESULT:      -9.9      2.078      5.908
  Name = 
  1 active torsions:
  status: ('A' for Active; 'I' for Inactive)
    1  A    between atoms: C_9  and  C_15
                            x       y       z     vdW  Elec       q    Type
                         _______ _______ _______ _____ _____    ______ ____

>  <TORSDO>
F 1

$$$$
=
 OpenBabel10272401083D

 27 31  0  0  1  0  0  0  0  0999 V2000
  186.5870  177.5210  143.2430 O   0  0  0  0  0  0  0  0  0  0  0  0
  187.9070  177.9810  141.3030 C   0  0  0  0  0  0  0  0  0  0  0  0
  189.4960  178.2660  143.2050 N   0  0  0  0  0  2  0  0  0  0  0  0
  191.0430  176.9850  138.7870 N   0  0  0  0  0  0  0  0  0  0  0  0
  192.3330  176.9630  139.2170 C   0  0  0  0  0  0  0  0  0  0  0  0
  187.6970  177.6620  139.9930 N   0  0  0  0  0  0  0  0  0  0  0  0
  191.6020  177.6100  141.4210 C   0  0  0  0  0  3  0  0  0  0  0  0
  188.7740  177.7860  146.8130 C   0  0  0  0  0  0  0  0  0  0  0  0
  192.6350  177.2750  140.5440 C   0  0  0  0  0  3  0  0  0  0  0  0
  189.5120  177.9100  148.0960 C   0  0  0  0  0  1  0  0  0  0  0  0
  190.2760  177.6320  140.9690 C   0  0  0  0  0  0  0  0  0  0  0  0
  186.7640  178.4220  142.1640 C   0  0  1  0  0  3  0  0  0  0  0  0
  193.3770  176.6200  138.3150 N   0  0  0  0  0  1  0  0  0  0  0  0
  190.0210  177.3080  139.6220 C   0  0  0  0  0  0  0  0  0  0  0  0
  187.3780  177.5700  144.3890 C   0  0  0  0  0  0  0  0  0  0  0  0
  189.2110  177.9500  141.8310 C   0  0  0  0  0  0  0  0  0  0  0  0
  189.3960  178.1360  145.6140 C   0  0  0  0  0  3  0  0  0  0  0  0
  188.7100  177.3240  139.1540 C   0  0  0  0  0  3  0  0  0  0  0  0
  187.4710  177.2910  146.8010 C   0  0  0  0  0  3  0  0  0  0  0  0
  186.7790  177.1850  145.5940 C   0  0  0  0  0  3  0  0  0  0  0  0
  188.7230  178.0220  144.3910 C   0  0  0  0  0  0  0  0  0  0  0  0
  183.0490  178.9670  140.0680 C   0  0  0  0  0  3  0  0  0  0  0  0
  185.4770  178.6030  141.4150 C   0  0  0  0  0  0  0  0  0  0  0  0
  184.2730  178.2350  142.0250 C   0  0  0  0  0  3  0  0  0  0  0  0
  183.0610  178.4140  141.3520 C   0  0  0  0  0  3  0  0  0  0  0  0
  184.2490  179.3420  139.4560 C   0  0  0  0  0  3  0  0  0  0  0  0
  185.4610  179.1630  140.1290 C   0  0  0  0  0  3  0  0  0  0  0  0
  1 15  1  0  0  0  0
  2 16  1  0  0  0  0
  2 12  1  0  0  0  0
  3 21  1  0  0  0  0
  4  5  2  0  0  0  0
  4 14  1  0  0  0  0
  5  9  1  0  0  0  0
  6  2  2  0  0  0  0
  8 10  1  0  0  0  0
  9  7  2  0  0  0  0
 11  7  1  0  0  0  0
 11 16  2  0  0  0  0
 12 23  1  6  0  0  0
 12  1  1  0  0  0  0
 13  5  1  0  0  0  0
 14 11  1  0  0  0  0
 15 21  2  0  0  0  0
 15 20  1  0  0  0  0
 16  3  1  0  0  0  0
 17  8  2  0  0  0  0
 18 14  2  0  0  0  0
 18  6  1  0  0  0  0
 19  8  1  0  0  0  0
 20 19  2  0  0  0  0
 21 17  1  0  0  0  0
 22 25  1  0  0  0  0
 23 24  1  0  0  0  0
 25 24  2  0  0  0  0
 26 22  2  0  0  0  0
 26 27  1  0  0  0  0
 27 23  2  0  0  0  0
M  END
>  <MODEL>
6

>  <REMARK>
 VINA RESULT:      -9.9      2.338      5.677
  Name = 
  1 active torsions:
  status: ('A' for Active; 'I' for Inactive)
    1  A    between atoms: C_9  and  C_15
                            x       y       z     vdW  Elec       q    Type
                         _______ _______ _______ _____ _____    ______ ____

>  <TORSDO>
F 1

$$$$
=
 OpenBabel10272401083D

 27 31  0  0  1  0  0  0  0  0999 V2000
  187.4360  178.3950  144.8620 O   0  0  0  0  0  0  0  0  0  0  0  0
  188.6060  177.6400  142.9200 C   0  0  0  0  0  0  0  0  0  0  0  0
  186.2120  177.6650  142.2190 N   0  0  0  0  0  2  0  0  0  0  0  0
  189.7960  178.2370  138.9970 N   0  0  0  0  0  0  0  0  0  0  0  0
  188.9000  178.3320  137.9790 C   0  0  0  0  0  0  0  0  0  0  0  0
  189.9240  177.7470  142.5820 N   0  0  0  0  0  0  0  0  0  0  0  0
  187.0940  178.0390  139.5490 C   0  0  0  0  0  3  0  0  0  0  0  0
  183.2950  178.7060  144.2630 C   0  0  0  0  0  0  0  0  0  0  0  0
  187.5310  178.2340  138.2390 C   0  0  0  0  0  3  0  0  0  0  0  0
  181.8220  178.7880  144.0930 C   0  0  0  0  0  1  0  0  0  0  0  0
  188.0250  177.9400  140.5920 C   0  0  0  0  0  0  0  0  0  0  0  0
  188.2120  177.3360  144.3320 C   0  0  1  0  0  3  0  0  0  0  0  0
  189.3570  178.5320  136.6470 N   0  0  0  0  0  1  0  0  0  0  0  0
  189.3950  178.0470  140.2820 C   0  0  0  0  0  0  0  0  0  0  0  0
  186.0760  178.5310  144.5860 C   0  0  0  0  0  0  0  0  0  0  0  0
  187.6170  177.7590  141.9260 C   0  0  0  0  0  0  0  0  0  0  0  0
  184.0860  178.1730  143.2440 C   0  0  0  0  0  3  0  0  0  0  0  0
  190.3340  177.9520  141.3040 C   0  0  0  0  0  3  0  0  0  0  0  0
  183.8930  179.1880  145.4260 C   0  0  0  0  0  3  0  0  0  0  0  0
  185.2760  179.0990  145.5840 C   0  0  0  0  0  3  0  0  0  0  0  0
  185.4780  178.0890  143.3780 C   0  0  0  0  0  0  0  0  0  0  0  0
  191.5010  176.4400  146.9520 C   0  0  0  0  0  3  0  0  0  0  0  0
  189.3730  177.0340  145.2330 C   0  0  0  0  0  0  0  0  0  0  0  0
  189.2360  177.2230  146.6130 C   0  0  0  0  0  3  0  0  0  0  0  0
  190.2990  176.9290  147.4710 C   0  0  0  0  0  3  0  0  0  0  0  0
  191.6420  176.2440  145.5750 C   0  0  0  0  0  3  0  0  0  0  0  0
  190.5790  176.5380  144.7170 C   0  0  0  0  0  3  0  0  0  0  0  0
  2 12  1  0  0  0  0
  3 21  1  0  0  0  0
  4 14  1  0  0  0  0
  5  9  1  0  0  0  0
  5  4  2  0  0  0  0
  6  2  1  0  0  0  0
  7 11  1  0  0  0  0
  8 19  1  0  0  0  0
  9  7  2  0  0  0  0
 10  8  1  0  0  0  0
 11 16  1  0  0  0  0
 12  1  1  0  0  0  0
 12 23  1  1  0  0  0
 13  5  1  0  0  0  0
 14 11  2  0  0  0  0
 14 18  1  0  0  0  0
 15  1  1  0  0  0  0
 15 20  1  0  0  0  0
 16  3  1  0  0  0  0
 16  2  2  0  0  0  0
 17 21  1  0  0  0  0
 17  8  2  0  0  0  0
 18  6  2  0  0  0  0
 19 20  2  0  0  0  0
 21 15  2  0  0  0  0
 22 25  1  0  0  0  0
 23 24  1  0  0  0  0
 24 25  2  0  0  0  0
 26 22  2  0  0  0  0
 27 23  2  0  0  0  0
 27 26  1  0  0  0  0
M  END
>  <MODEL>
7

>  <REMARK>
 VINA RESULT:      -9.8      2.075      7.007
  Name = 
  1 active torsions:
  status: ('A' for Active; 'I' for Inactive)
    1  A    between atoms: C_9  and  C_15
                            x       y       z     vdW  Elec       q    Type
                         _______ _______ _______ _____ _____    ______ ____

>  <TORSDO>
F 1

$$$$
=
 OpenBabel10272401083D

 27 31  0  0  1  0  0  0  0  0999 V2000
  188.1990  177.0730  143.3930 O   0  0  0  0  0  0  0  0  0  0  0  0
  186.1280  178.2630  143.5070 C   0  0  0  0  0  0  0  0  0  0  0  0
  186.9700  178.7200  141.2040 N   0  0  0  0  0  2  0  0  0  0  0  0
  182.2250  178.7900  142.2240 N   0  0  0  0  0  0  0  0  0  0  0  0
  181.9270  179.1160  140.9370 C   0  0  0  0  0  0  0  0  0  0  0  0
  185.0720  178.1220  144.3590 N   0  0  0  0  0  0  0  0  0  0  0  0
  184.2770  179.1020  140.3970 C   0  0  0  0  0  3  0  0  0  0  0  0
  190.0850  177.4210  139.6620 C   0  0  0  0  0  0  0  0  0  0  0  0
  182.9510  179.2770  140.0000 C   0  0  0  0  0  3  0  0  0  0  0  0
  190.7960  177.5570  138.3650 C   0  0  0  0  0  1  0  0  0  0  0  0
  184.5750  178.7680  141.7250 C   0  0  0  0  0  0  0  0  0  0  0  0
  187.5310  178.1530  144.0200 C   0  0  1  0  0  3  0  0  0  0  0  0
  180.5730  179.2920  140.5450 N   0  0  0  0  0  1  0  0  0  0  0  0
  183.5090  178.6140  142.6330 C   0  0  0  0  0  0  0  0  0  0  0  0
  188.7490  177.1800  142.1170 C   0  0  0  0  0  0  0  0  0  0  0  0
  185.9000  178.5690  142.1530 C   0  0  0  0  0  0  0  0  0  0  0  0
  188.9220  178.1540  139.9010 C   0  0  0  0  0  3  0  0  0  0  0  0
  183.7850  178.2810  143.9560 C   0  0  0  0  0  3  0  0  0  0  0  0
  190.5610  176.5380  140.6300 C   0  0  0  0  0  3  0  0  0  0  0  0
  189.8940  176.4210  141.8500 C   0  0  0  0  0  3  0  0  0  0  0  0
  188.2310  178.0390  141.1140 C   0  0  0  0  0  0  0  0  0  0  0  0
  187.8490  177.8190  148.2960 C   0  0  0  0  0  3  0  0  0  0  0  0
  187.6210  178.0310  145.5130 C   0  0  0  0  0  0  0  0  0  0  0  0
  188.7170  177.3710  146.0810 C   0  0  0  0  0  3  0  0  0  0  0  0
  188.8300  177.2630  147.4690 C   0  0  0  0  0  3  0  0  0  0  0  0
  186.7550  178.4840  147.7340 C   0  0  0  0  0  3  0  0  0  0  0  0
  186.6420  178.5920  146.3450 C   0  0  0  0  0  3  0  0  0  0  0  0
  1 12  1  0  0  0  0
  2 12  1  0  0  0  0
  2  6  1  0  0  0  0
  3 16  1  0  0  0  0
  4 14  1  0  0  0  0
  5  4  2  0  0  0  0
  7 11  1  0  0  0  0
  8 17  2  0  0  0  0
  8 19  1  0  0  0  0
  9  7  2  0  0  0  0
  9  5  1  0  0  0  0
 10  8  1  0  0  0  0
 11 16  1  0  0  0  0
 11 14  2  0  0  0  0
 12 23  1  1  0  0  0
 13  5  1  0  0  0  0
 14 18  1  0  0  0  0
 15  1  1  0  0  0  0
 16  2  2  0  0  0  0
 17 21  1  0  0  0  0
 18  6  2  0  0  0  0
 19 20  2  0  0  0  0
 20 15  1  0  0  0  0
 21  3  1  0  0  0  0
 21 15  2  0  0  0  0
 23 24  2  0  0  0  0
 23 27  1  0  0  0  0
 24 25  1  0  0  0  0
 25 22  2  0  0  0  0
 26 22  1  0  0  0  0
 27 26  2  0  0  0  0
M  END
>  <MODEL>
8

>  <REMARK>
 VINA RESULT:      -9.6      2.690      6.163
  Name = 
  1 active torsions:
  status: ('A' for Active; 'I' for Inactive)
    1  A    between atoms: C_9  and  C_15
                            x       y       z     vdW  Elec       q    Type
                         _______ _______ _______ _____ _____    ______ ____

>  <TORSDO>
F 1

$$$$
=
 OpenBabel10272401083D

 27 31  0  0  1  0  0  0  0  0999 V2000
  190.2630  177.9190  142.4840 O   0  0  0  0  0  0  0  0  0  0  0  0
  188.4950  177.7160  140.8880 C   0  0  0  0  0  0  0  0  0  0  0  0
  187.3730  177.3710  143.0890 N   0  0  0  0  0  2  0  0  0  0  0  0
  184.9550  179.1280  139.2660 N   0  0  0  0  0  0  0  0  0  0  0  0
  183.8070  179.1970  139.9920 C   0  0  0  0  0  0  0  0  0  0  0  0
  188.4210  178.1330  139.5910 N   0  0  0  0  0  0  0  0  0  0  0  0
  184.9730  178.3150  141.9090 C   0  0  0  0  0  3  0  0  0  0  0  0
  188.9520  177.4890  146.4460 C   0  0  0  0  0  0  0  0  0  0  0  0
  183.7970  178.7910  141.3280 C   0  0  0  0  0  3  0  0  0  0  0  0
  188.5250  177.3020  147.8560 C   0  0  0  0  0  1  0  0  0  0  0  0
  186.1510  178.2460  141.1530 C   0  0  0  0  0  0  0  0  0  0  0  0
  189.7650  177.1280  141.4200 C   0  0  1  0  0  3  0  0  0  0  0  0
  182.6140  179.6840  139.3900 N   0  0  0  0  0  1  0  0  0  0  0  0
  186.1130  178.6680  139.8090 C   0  0  0  0  0  0  0  0  0  0  0  0
  189.7590  177.8220  143.7800 C   0  0  0  0  0  0  0  0  0  0  0  0
  187.3570  177.7860  141.7130 C   0  0  0  0  0  0  0  0  0  0  0  0
  188.0410  177.2850  145.4080 C   0  0  0  0  0  3  0  0  0  0  0  0
  187.2730  178.6080  139.0430 C   0  0  0  0  0  3  0  0  0  0  0  0
  190.2530  177.8960  146.1580 C   0  0  0  0  0  3  0  0  0  0  0  0
  190.6520  178.0610  144.8310 C   0  0  0  0  0  3  0  0  0  0  0  0
  188.4190  177.4600  144.0710 C   0  0  0  0  0  0  0  0  0  0  0  0
  192.8390  176.5410  138.4700 C   0  0  0  0  0  3  0  0  0  0  0  0
  190.8230  176.9290  140.3750 C   0  0  0  0  0  0  0  0  0  0  0  0
  192.0960  177.4750  140.5760 C   0  0  0  0  0  3  0  0  0  0  0  0
  193.1020  177.2840  139.6240 C   0  0  0  0  0  3  0  0  0  0  0  0
  191.5710  175.9890  138.2660 C   0  0  0  0  0  3  0  0  0  0  0  0
  190.5650  176.1800  139.2170 C   0  0  0  0  0  3  0  0  0  0  0  0
  1 15  1  0  0  0  0
  2 12  1  0  0  0  0
  2 16  1  0  0  0  0
  3 21  1  0  0  0  0
  4 14  1  0  0  0  0
  4  5  2  0  0  0  0
  5  9  1  0  0  0  0
  6  2  2  0  0  0  0
  8 10  1  0  0  0  0
  9  7  2  0  0  0  0
 11 16  2  0  0  0  0
 11  7  1  0  0  0  0
 12 23  1  6  0  0  0
 12  1  1  0  0  0  0
 13  5  1  0  0  0  0
 14 11  1  0  0  0  0
 15 21  2  0  0  0  0
 15 20  1  0  0  0  0
 16  3  1  0  0  0  0
 17  8  2  0  0  0  0
 18  6  1  0  0  0  0
 18 14  2  0  0  0  0
 19  8  1  0  0  0  0
 20 19  2  0  0  0  0
 21 17  1  0  0  0  0
 22 25  1  0  0  0  0
 23 24  1  0  0  0  0
 25 24  2  0  0  0  0
 26 22  2  0  0  0  0
 26 27  1  0  0  0  0
 27 23  2  0  0  0  0
M  END
>  <MODEL>
9

>  <REMARK>
 VINA RESULT:      -9.6      2.598      7.717
  Name = 
  1 active torsions:
  status: ('A' for Active; 'I' for Inactive)
    1  A    between atoms: C_9  and  C_15
                            x       y       z     vdW  Elec       q    Type
                         _______ _______ _______ _____ _____    ______ ____

>  <TORSDO>
F 1

$$$$
