=
 OpenBabel10272400413D

 25 29  0  0  1  0  0  0  0  0999 V2000
  186.0930  178.2410  144.5540 C   0  0  0  0  0  0  0  0  0  0  0  0
  187.2110  177.5110  145.2810 C   0  0  1  0  0  3  0  0  0  0  0  0
  184.7880  178.2380  146.7130 C   0  0  0  0  0  2  0  0  0  0  0  0
  186.0930  178.4810  143.1630 C   0  0  0  0  0  0  0  0  0  0  0  0
  185.2450  179.2380  141.1950 O   0  0  0  0  0  0  0  0  0  0  0  0
  186.0470  178.2840  147.3780 O   0  0  0  0  0  0  0  0  0  0  0  0
  183.9060  179.5020  143.2480 C   0  0  0  0  0  3  0  0  0  0  0  0
  185.0390  179.0990  142.5480 C   0  0  0  0  0  0  0  0  0  0  0  0
  188.3630  177.7850  147.4880 C   0  0  0  0  0  0  0  0  0  0  0  0
  188.3480  178.1310  148.9370 C   0  0  0  0  0  1  0  0  0  0  0  0
  188.5890  177.7160  144.6520 C   0  0  0  0  0  2  0  0  0  0  0  0
  186.5050  178.6810  140.8310 C   0  0  0  0  0  3  0  0  0  0  0  0
  184.9300  178.6130  145.2730 C   0  0  0  0  0  0  0  0  0  0  0  0
  183.8520  179.2410  144.6230 C   0  0  0  0  0  3  0  0  0  0  0  0
  189.7060  177.5080  146.8620 C   0  0  0  0  0  2  0  0  0  0  0  0
  187.1140  178.1310  142.1340 C   0  0  0  0  0  3  0  0  0  0  0  0
  189.6080  176.9260  145.4510 C   0  0  2  0  0  3  0  0  0  0  0  0
  187.2320  177.8700  146.7600 C   0  0  0  0  0  0  0  0  0  0  0  0
  190.9590  176.9930  144.7580 C   0  0  0  0  0  2  0  0  0  0  0  0
  191.6670  177.5700  140.2170 O   0  0  0  0  0  1  0  0  0  0  0  0
  190.4330  177.3900  140.8400 C   0  0  1  0  0  3  0  0  0  0  0  0
  190.3760  176.1660  141.3950 N   0  0  0  0  0  2  0  0  0  0  0  0
  190.8930  177.8710  143.5550 C   0  0  0  0  0  0  0  0  0  0  0  0
  190.6300  177.3060  142.2760 N   0  0  0  0  0  0  0  0  0  0  0  0
  191.0450  179.1140  143.6730 O   0  0  0  0  0  0  0  0  0  0  0  0
  1 13  1  0  0  0  0
  1  2  1  0  0  0  0
  2 11  1  6  0  0  0
  2 18  1  0  0  0  0
  3  6  1  0  0  0  0
  4  1  2  0  0  0  0
  5  8  1  0  0  0  0
  7 14  1  0  0  0  0
  8  4  1  0  0  0  0
  8  7  2  0  0  0  0
  9 10  1  0  0  0  0
 11 17  1  0  0  0  0
 12  5  1  0  0  0  0
 12 16  2  0  0  0  0
 13  3  1  0  0  0  0
 14 13  2  0  0  0  0
 15  9  1  0  0  0  0
 16  4  1  0  0  0  0
 17 19  1  6  0  0  0
 17 15  1  0  0  0  0
 18  6  1  0  0  0  0
 18  9  2  0  0  0  0
 21 20  1  6  0  0  0
 21 22  1  0  0  0  0
 21 24  1  0  0  0  0
 22 24  1  0  0  0  0
 23 25  2  0  0  0  0
 23 19  1  0  0  0  0
 24 23  1  0  0  0  0
M  END
>  <MODEL>
1

>  <REMARK>
 VINA RESULT:     -10.8      0.000      0.000
  Name = 
  2 active torsions:
  status: ('A' for Active; 'I' for Inactive)
    1  A    between atoms: C_6  and  C_15
    2  A    between atoms: C_6  and  C_23
                            x       y       z     vdW  Elec       q    Type
                         _______ _______ _______ _____ _____    ______ ____

>  <TORSDO>
F 2

$$$$
=
 OpenBabel10272400413D

 25 29  0  0  1  0  0  0  0  0999 V2000
  187.1840  177.7270  144.1540 C   0  0  0  0  0  0  0  0  0  0  0  0
  188.5100  177.0700  143.8040 C   0  0  1  0  0  3  0  0  0  0  0  0
  187.4950  176.9180  146.5240 C   0  0  0  0  0  2  0  0  0  0  0  0
  186.3240  178.3070  143.1980 C   0  0  0  0  0  0  0  0  0  0  0  0
  184.4430  179.3590  142.4760 O   0  0  0  0  0  0  0  0  0  0  0  0
  188.8950  177.0400  146.2950 O   0  0  0  0  0  0  0  0  0  0  0  0
  184.6620  178.8240  144.8730 C   0  0  0  0  0  3  0  0  0  0  0  0
  185.1190  178.8430  143.5580 C   0  0  0  0  0  0  0  0  0  0  0  0
  190.7810  176.9940  144.8560 C   0  0  0  0  0  0  0  0  0  0  0  0
  191.6680  176.9490  146.0530 C   0  0  0  0  0  1  0  0  0  0  0  0
  189.2040  177.6940  142.5940 C   0  0  0  0  0  2  0  0  0  0  0  0
  185.2060  179.1710  141.2870 C   0  0  0  0  0  3  0  0  0  0  0  0
  186.7160  177.6680  145.4910 C   0  0  0  0  0  0  0  0  0  0  0  0
  185.4710  178.2170  145.8420 C   0  0  0  0  0  3  0  0  0  0  0  0
  191.4480  177.1540  143.5140 C   0  0  0  0  0  2  0  0  0  0  0  0
  186.4890  178.4380  141.7210 C   0  0  0  0  0  3  0  0  0  0  0  0
  190.4960  176.9430  142.3360 C   0  0  2  0  0  3  0  0  0  0  0  0
  189.4430  177.0380  145.0060 C   0  0  0  0  0  0  0  0  0  0  0  0
  191.1290  177.4470  141.0490 C   0  0  0  0  0  2  0  0  0  0  0  0
  187.3530  177.5670  138.3700 O   0  0  0  0  0  1  0  0  0  0  0  0
  188.6000  178.1040  138.0560 C   0  0  1  0  0  3  0  0  0  0  0  0
  188.8930  179.1040  138.9070 N   0  0  0  0  0  2  0  0  0  0  0  0
  190.3880  176.9360  139.8600 C   0  0  0  0  0  0  0  0  0  0  0  0
  189.5320  177.8070  139.1290 N   0  0  0  0  0  0  0  0  0  0  0  0
  190.5380  175.7450  139.4880 O   0  0  0  0  0  0  0  0  0  0  0  0
  1 13  1  0  0  0  0
  2 11  1  6  0  0  0
  2  1  1  0  0  0  0
  2 18  1  0  0  0  0
  4  8  1  0  0  0  0
  4  1  2  0  0  0  0
  5  8  1  0  0  0  0
  6  3  1  0  0  0  0
  7 14  1  0  0  0  0
  8  7  2  0  0  0  0
  9 18  2  0  0  0  0
  9 10  1  0  0  0  0
 12 16  2  0  0  0  0
 12  5  1  0  0  0  0
 13 14  2  0  0  0  0
 13  3  1  0  0  0  0
 15  9  1  0  0  0  0
 16  4  1  0  0  0  0
 17 19  1  6  0  0  0
 17 11  1  0  0  0  0
 17 15  1  0  0  0  0
 18  6  1  0  0  0  0
 21 20  1  1  0  0  0
 21 22  1  0  0  0  0
 21 24  1  0  0  0  0
 22 24  1  0  0  0  0
 23 19  1  0  0  0  0
 24 23  1  0  0  0  0
 25 23  2  0  0  0  0
M  END
>  <MODEL>
2

>  <REMARK>
 VINA RESULT:     -10.2      1.900      3.079
  Name = 
  2 active torsions:
  status: ('A' for Active; 'I' for Inactive)
    1  A    between atoms: C_6  and  C_15
    2  A    between atoms: C_6  and  C_23
                            x       y       z     vdW  Elec       q    Type
                         _______ _______ _______ _____ _____    ______ ____

>  <TORSDO>
F 2

$$$$
=
 OpenBabel10272400413D

 25 29  0  0  1  0  0  0  0  0999 V2000
  186.4090  178.1280  144.4300 C   0  0  0  0  0  0  0  0  0  0  0  0
  185.3220  178.7260  143.5510 C   0  0  1  0  0  3  0  0  0  0  0  0
  185.1860  179.0440  146.4380 C   0  0  0  0  0  2  0  0  0  0  0  0
  187.5810  177.5270  143.9220 C   0  0  0  0  0  0  0  0  0  0  0  0
  189.6030  176.4990  144.0560 O   0  0  0  0  0  0  0  0  0  0  0  0
  183.9890  178.8680  145.6860 O   0  0  0  0  0  0  0  0  0  0  0  0
  188.4560  177.1460  146.1410 C   0  0  0  0  0  3  0  0  0  0  0  0
  188.5530  177.0480  144.7560 C   0  0  0  0  0  0  0  0  0  0  0  0
  182.8190  178.7840  143.6240 C   0  0  0  0  0  0  0  0  0  0  0  0
  181.5330  178.8610  144.3740 C   0  0  0  0  0  1  0  0  0  0  0  0
  185.1640  178.0200  142.2050 C   0  0  0  0  0  2  0  0  0  0  0  0
  189.3670  176.6040  142.6550 C   0  0  0  0  0  3  0  0  0  0  0  0
  186.3140  178.2680  145.8370 C   0  0  0  0  0  0  0  0  0  0  0  0
  187.3270  177.7760  146.6790 C   0  0  0  0  0  3  0  0  0  0  0  0
  182.7340  178.5370  142.1400 C   0  0  0  0  0  2  0  0  0  0  0  0
  188.0100  177.3180  142.5090 C   0  0  0  0  0  3  0  0  0  0  0  0
  184.0700  178.7180  141.4180 C   0  0  2  0  0  3  0  0  0  0  0  0
  183.9920  178.7890  144.2880 C   0  0  0  0  0  0  0  0  0  0  0  0
  183.9980  178.1310  140.0180 C   0  0  0  0  0  2  0  0  0  0  0  0
  187.9050  178.8980  137.6530 O   0  0  0  0  0  1  0  0  0  0  0  0
  186.7120  178.4020  137.1290 C   0  0  1  0  0  3  0  0  0  0  0  0
  186.4400  177.2010  137.6720 N   0  0  0  0  0  2  0  0  0  0  0  0
  184.7650  178.9700  139.0530 C   0  0  0  0  0  0  0  0  0  0  0  0
  185.7100  178.3630  138.1790 N   0  0  0  0  0  0  0  0  0  0  0  0
  184.5580  180.2090  138.9930 O   0  0  0  0  0  0  0  0  0  0  0  0
  1 13  1  0  0  0  0
  2 11  1  6  0  0  0
  2 18  1  0  0  0  0
  2  1  1  0  0  0  0
  4  1  2  0  0  0  0
  4  8  1  0  0  0  0
  5  8  1  0  0  0  0
  6  3  1  0  0  0  0
  7 14  1  0  0  0  0
  8  7  2  0  0  0  0
  9 18  2  0  0  0  0
  9 10  1  0  0  0  0
 12  5  1  0  0  0  0
 13  3  1  0  0  0  0
 13 14  2  0  0  0  0
 15  9  1  0  0  0  0
 16 12  2  0  0  0  0
 16  4  1  0  0  0  0
 17 19  1  6  0  0  0
 17 15  1  0  0  0  0
 17 11  1  0  0  0  0
 18  6  1  0  0  0  0
 21 20  1  1  0  0  0
 21 22  1  0  0  0  0
 21 24  1  0  0  0  0
 22 24  1  0  0  0  0
 23 19  1  0  0  0  0
 24 23  1  0  0  0  0
 25 23  2  0  0  0  0
M  END
>  <MODEL>
3

>  <REMARK>
 VINA RESULT:     -10.2      2.576      5.445
  Name = 
  2 active torsions:
  status: ('A' for Active; 'I' for Inactive)
    1  A    between atoms: C_6  and  C_15
    2  A    between atoms: C_6  and  C_23
                            x       y       z     vdW  Elec       q    Type
                         _______ _______ _______ _____ _____    ______ ____

>  <TORSDO>
F 2

$$$$
=
 OpenBabel10272400413D

 25 29  0  0  1  0  0  0  0  0999 V2000
  187.0370  177.8510  144.7840 C   0  0  0  0  0  0  0  0  0  0  0  0
  187.8320  177.3680  143.5810 C   0  0  1  0  0  3  0  0  0  0  0  0
  188.9600  177.1300  146.2500 C   0  0  0  0  0  2  0  0  0  0  0  0
  185.7010  178.2980  144.7070 C   0  0  0  0  0  0  0  0  0  0  0  0
  183.7320  179.0820  145.5290 O   0  0  0  0  0  0  0  0  0  0  0  0
  189.8070  177.4300  145.1450 O   0  0  0  0  0  0  0  0  0  0  0  0
  185.5770  178.6210  147.0980 C   0  0  0  0  0  3  0  0  0  0  0  0
  185.0130  178.6770  145.8270 C   0  0  0  0  0  0  0  0  0  0  0  0
  190.2040  177.6070  142.8130 C   0  0  0  0  0  0  0  0  0  0  0  0
  191.6650  177.7000  143.0890 C   0  0  0  0  0  1  0  0  0  0  0  0
  187.4470  178.0570  142.2730 C   0  0  0  0  0  2  0  0  0  0  0  0
  183.4980  178.9760  144.1270 C   0  0  0  0  0  3  0  0  0  0  0  0
  187.6120  177.7540  146.0760 C   0  0  0  0  0  0  0  0  0  0  0  0
  186.8880  178.1410  147.2170 C   0  0  0  0  0  3  0  0  0  0  0  0
  189.7580  177.8310  141.3910 C   0  0  0  0  0  2  0  0  0  0  0  0
  184.8030  178.4240  143.5230 C   0  0  0  0  0  3  0  0  0  0  0  0
  188.2900  177.4770  141.1530 C   0  0  2  0  0  3  0  0  0  0  0  0
  189.3290  177.4780  143.8300 C   0  0  0  0  0  0  0  0  0  0  0  0
  187.8210  178.0380  139.8210 C   0  0  0  0  0  2  0  0  0  0  0  0
  192.0620  176.8020  138.4270 O   0  0  0  0  0  1  0  0  0  0  0  0
  190.8670  176.5230  137.7670 C   0  0  1  0  0  3  0  0  0  0  0  0
  190.1070  175.7090  138.5230 N   0  0  0  0  0  2  0  0  0  0  0  0
  188.9740  178.2420  138.8980 C   0  0  0  0  0  0  0  0  0  0  0  0
  189.7670  177.1310  138.4930 N   0  0  0  0  0  0  0  0  0  0  0  0
  189.2320  179.3920  138.4560 O   0  0  0  0  0  0  0  0  0  0  0  0
  1 13  1  0  0  0  0
  2 11  1  6  0  0  0
  2 18  1  0  0  0  0
  2  1  1  0  0  0  0
  4  1  2  0  0  0  0
  4  8  1  0  0  0  0
  5  8  1  0  0  0  0
  6  3  1  0  0  0  0
  7 14  1  0  0  0  0
  8  7  2  0  0  0  0
  9 10  1  0  0  0  0
  9 18  2  0  0  0  0
 12  5  1  0  0  0  0
 13  3  1  0  0  0  0
 13 14  2  0  0  0  0
 15  9  1  0  0  0  0
 16 12  2  0  0  0  0
 16  4  1  0  0  0  0
 17 19  1  6  0  0  0
 17 15  1  0  0  0  0
 17 11  1  0  0  0  0
 18  6  1  0  0  0  0
 21 20  1  1  0  0  0
 21 24  1  0  0  0  0
 21 22  1  0  0  0  0
 23 19  1  0  0  0  0
 24 22  1  0  0  0  0
 24 23  1  0  0  0  0
 25 23  2  0  0  0  0
M  END
>  <MODEL>
4

>  <REMARK>
 VINA RESULT:     -10.2      1.913      4.099
  Name = 
  2 active torsions:
  status: ('A' for Active; 'I' for Inactive)
    1  A    between atoms: C_6  and  C_15
    2  A    between atoms: C_6  and  C_23
                            x       y       z     vdW  Elec       q    Type
                         _______ _______ _______ _____ _____    ______ ____

>  <TORSDO>
F 2

$$$$
=
 OpenBabel10272400413D

 25 29  0  0  1  0  0  0  0  0999 V2000
  189.3990  177.0340  144.8170 C   0  0  0  0  0  0  0  0  0  0  0  0
  188.5040  177.0650  143.5880 C   0  0  1  0  0  3  0  0  0  0  0  0
  191.2000  175.9950  143.3870 C   0  0  0  0  0  2  0  0  0  0  0  0
  188.9560  177.3760  146.1130 C   0  0  0  0  0  0  0  0  0  0  0  0
  189.1600  177.6690  148.3570 O   0  0  0  0  0  0  0  0  0  0  0  0
  190.6440  176.7270  142.3000 O   0  0  0  0  0  0  0  0  0  0  0  0
  191.0990  176.8300  147.0860 C   0  0  0  0  0  3  0  0  0  0  0  0
  189.7880  177.2850  147.1950 C   0  0  0  0  0  0  0  0  0  0  0  0
  188.8050  177.7400  141.1950 C   0  0  0  0  0  0  0  0  0  0  0  0
  189.6300  177.8420  139.9580 C   0  0  0  0  0  1  0  0  0  0  0  0
  187.4170  178.1380  143.6460 C   0  0  0  0  0  2  0  0  0  0  0  0
  187.8120  178.0430  148.0860 C   0  0  0  0  0  3  0  0  0  0  0  0
  190.7200  176.5350  144.6970 C   0  0  0  0  0  0  0  0  0  0  0  0
  191.5580  176.4410  145.8210 C   0  0  0  0  0  3  0  0  0  0  0  0
  187.4560  178.4130  141.1770 C   0  0  0  0  0  2  0  0  0  0  0  0
  187.6150  177.8390  146.5720 C   0  0  0  0  0  3  0  0  0  0  0  0
  186.5840  178.0530  142.3810 C   0  0  2  0  0  3  0  0  0  0  0  0
  189.3240  177.1960  142.3130 C   0  0  0  0  0  0  0  0  0  0  0  0
  185.4060  179.0070  142.4830 C   0  0  0  0  0  2  0  0  0  0  0  0
  182.2410  179.8930  139.2190 O   0  0  0  0  0  1  0  0  0  0  0  0
  183.4020  179.1390  139.0540 C   0  0  1  0  0  3  0  0  0  0  0  0
  184.4830  179.9240  139.2210 N   0  0  0  0  0  2  0  0  0  0  0  0
  184.2680  178.5340  141.6420 C   0  0  0  0  0  0  0  0  0  0  0  0
  184.0960  179.0470  140.3260 N   0  0  0  0  0  0  0  0  0  0  0  0
  183.4770  177.6640  142.0860 O   0  0  0  0  0  0  0  0  0  0  0  0
  1  4  1  0  0  0  0
  2 11  1  1  0  0  0
  2  1  1  0  0  0  0
  3 13  1  0  0  0  0
  4 16  1  0  0  0  0
  4  8  2  0  0  0  0
  6 18  1  0  0  0  0
  6  3  1  0  0  0  0
  7  8  1  0  0  0  0
  8  5  1  0  0  0  0
  9 18  2  0  0  0  0
 10  9  1  0  0  0  0
 12  5  1  0  0  0  0
 13  1  2  0  0  0  0
 13 14  1  0  0  0  0
 14  7  2  0  0  0  0
 15  9  1  0  0  0  0
 15 17  1  0  0  0  0
 16 12  2  0  0  0  0
 17 19  1  1  0  0  0
 17 11  1  0  0  0  0
 18  2  1  0  0  0  0
 21 20  1  1  0  0  0
 21 22  1  0  0  0  0
 21 24  1  0  0  0  0
 22 24  1  0  0  0  0
 23 25  2  0  0  0  0
 23 19  1  0  0  0  0
 24 23  1  0  0  0  0
M  END
>  <MODEL>
5

>  <REMARK>
 VINA RESULT:      -9.9      2.663      6.708
  Name = 
  2 active torsions:
  status: ('A' for Active; 'I' for Inactive)
    1  A    between atoms: C_6  and  C_15
    2  A    between atoms: C_6  and  C_23
                            x       y       z     vdW  Elec       q    Type
                         _______ _______ _______ _____ _____    ______ ____

>  <TORSDO>
F 2

$$$$
=
 OpenBabel10272400413D

 25 29  0  0  1  0  0  0  0  0999 V2000
  189.4940  177.8690  142.8000 C   0  0  0  0  0  0  0  0  0  0  0  0
  189.4100  178.0320  144.3090 C   0  0  1  0  0  3  0  0  0  0  0  0
  191.9880  177.5720  143.0470 C   0  0  0  0  0  2  0  0  0  0  0  0
  188.3980  178.0620  141.9320 C   0  0  0  0  0  0  0  0  0  0  0  0
  187.3480  178.1710  139.9190 O   0  0  0  0  0  0  0  0  0  0  0  0
  191.7100  177.0030  144.3230 O   0  0  0  0  0  0  0  0  0  0  0  0
  189.7620  177.6690  139.9770 C   0  0  0  0  0  3  0  0  0  0  0  0
  188.5370  177.9500  140.5760 C   0  0  0  0  0  0  0  0  0  0  0  0
  190.3790  176.8250  146.2780 C   0  0  0  0  0  0  0  0  0  0  0  0
  191.4870  176.0800  146.9400 C   0  0  0  0  0  1  0  0  0  0  0  0
  188.0430  177.6700  144.8910 C   0  0  0  0  0  2  0  0  0  0  0  0
  186.3160  178.4620  140.8570 C   0  0  0  0  0  3  0  0  0  0  0  0
  190.7540  177.6170  142.2020 C   0  0  0  0  0  0  0  0  0  0  0  0
  190.8810  177.5140  140.8060 C   0  0  0  0  0  3  0  0  0  0  0  0
  189.0710  176.9140  147.0220 C   0  0  0  0  0  2  0  0  0  0  0  0
  186.9850  178.4220  142.2440 C   0  0  0  0  0  3  0  0  0  0  0  0
  188.0810  177.8930  146.3910 C   0  0  2  0  0  3  0  0  0  0  0  0
  190.5170  177.2580  145.0100 C   0  0  0  0  0  0  0  0  0  0  0  0
  186.6910  177.6850  146.9700 C   0  0  0  0  0  2  0  0  0  0  0  0
  184.4590  180.2700  143.8420 O   0  0  0  0  0  1  0  0  0  0  0  0
  183.8770  179.3490  144.7120 C   0  0  1  0  0  3  0  0  0  0  0  0
  184.3130  178.1100  144.4220 N   0  0  0  0  0  2  0  0  0  0  0  0
  185.8120  178.8510  146.6670 C   0  0  0  0  0  0  0  0  0  0  0  0
  184.9050  178.7910  145.5730 N   0  0  0  0  0  0  0  0  0  0  0  0
  185.8540  179.8770  147.3940 O   0  0  0  0  0  0  0  0  0  0  0  0
  1  2  1  0  0  0  0
  2 11  1  1  0  0  0
  2 18  1  0  0  0  0
  3  6  1  0  0  0  0
  4 16  1  0  0  0  0
  4  1  2  0  0  0  0
  5  8  1  0  0  0  0
  5 12  1  0  0  0  0
  6 18  1  0  0  0  0
  7  8  2  0  0  0  0
  7 14  1  0  0  0  0
  8  4  1  0  0  0  0
  9 10  1  0  0  0  0
  9 15  1  0  0  0  0
 11 17  1  0  0  0  0
 12 16  2  0  0  0  0
 13  1  1  0  0  0  0
 13  3  1  0  0  0  0
 14 13  2  0  0  0  0
 17 19  1  1  0  0  0
 17 15  1  0  0  0  0
 18  9  2  0  0  0  0
 21 20  1  6  0  0  0
 21 24  1  0  0  0  0
 22 21  1  0  0  0  0
 22 24  1  0  0  0  0
 23 19  1  0  0  0  0
 23 25  2  0  0  0  0
 24 23  1  0  0  0  0
M  END
>  <MODEL>
6

>  <REMARK>
 VINA RESULT:      -9.9      2.496      5.277
  Name = 
  2 active torsions:
  status: ('A' for Active; 'I' for Inactive)
    1  A    between atoms: C_6  and  C_15
    2  A    between atoms: C_6  and  C_23
                            x       y       z     vdW  Elec       q    Type
                         _______ _______ _______ _____ _____    ______ ____

>  <TORSDO>
F 2

$$$$
=
 OpenBabel10272400413D

 25 29  0  0  1  0  0  0  0  0999 V2000
  186.7280  177.8330  144.2670 C   0  0  0  0  0  0  0  0  0  0  0  0
  187.9890  177.2990  143.6070 C   0  0  1  0  0  3  0  0  0  0  0  0
  187.7640  177.2990  146.5050 C   0  0  0  0  0  2  0  0  0  0  0  0
  185.5750  178.2180  143.5510 C   0  0  0  0  0  0  0  0  0  0  0  0
  183.4460  178.9780  143.3120 O   0  0  0  0  0  0  0  0  0  0  0  0
  189.0230  177.5540  145.8910 O   0  0  0  0  0  0  0  0  0  0  0  0
  184.3650  178.7060  145.5840 C   0  0  0  0  0  3  0  0  0  0  0  0
  184.4480  178.6480  144.1960 C   0  0  0  0  0  0  0  0  0  0  0  0
  190.4470  177.5800  143.9930 C   0  0  0  0  0  0  0  0  0  0  0  0
  191.6180  177.7520  144.9000 C   0  0  0  0  0  1  0  0  0  0  0  0
  188.2460  177.8760  142.2150 C   0  0  0  0  0  2  0  0  0  0  0  0
  183.8830  178.7620  141.9730 C   0  0  0  0  0  3  0  0  0  0  0  0
  186.6450  177.8530  145.6820 C   0  0  0  0  0  0  0  0  0  0  0  0
  185.4760  178.2900  146.3290 C   0  0  0  0  0  3  0  0  0  0  0  0
  190.7050  177.6830  142.5120 C   0  0  0  0  0  2  0  0  0  0  0  0
  185.3220  178.2230  142.0810 C   0  0  0  0  0  3  0  0  0  0  0  0
  189.5120  177.2530  141.6580 C   0  0  2  0  0  3  0  0  0  0  0  0
  189.2040  177.4880  144.5040 C   0  0  0  0  0  0  0  0  0  0  0  0
  189.7060  177.6980  140.2180 C   0  0  0  0  0  2  0  0  0  0  0  0
  193.4890  176.8280  137.6910 O   0  0  0  0  0  1  0  0  0  0  0  0
  193.2990  176.4880  139.0300 C   0  0  1  0  0  3  0  0  0  0  0  0
  193.1880  177.6040  139.7730 N   0  0  0  0  0  2  0  0  0  0  0  0
  190.5480  176.7190  139.4720 C   0  0  0  0  0  0  0  0  0  0  0  0
  191.9620  176.8800  139.4370 N   0  0  0  0  0  0  0  0  0  0  0  0
  190.0130  175.7380  138.8950 O   0  0  0  0  0  0  0  0  0  0  0  0
  1 13  1  0  0  0  0
  2 11  1  6  0  0  0
  2  1  1  0  0  0  0
  2 18  1  0  0  0  0
  4  8  1  0  0  0  0
  4  1  2  0  0  0  0
  5  8  1  0  0  0  0
  6  3  1  0  0  0  0
  7 14  1  0  0  0  0
  8  7  2  0  0  0  0
  9 18  2  0  0  0  0
  9 10  1  0  0  0  0
 12 16  2  0  0  0  0
 12  5  1  0  0  0  0
 13 14  2  0  0  0  0
 13  3  1  0  0  0  0
 15  9  1  0  0  0  0
 16  4  1  0  0  0  0
 17 19  1  6  0  0  0
 17 11  1  0  0  0  0
 17 15  1  0  0  0  0
 18  6  1  0  0  0  0
 21 20  1  6  0  0  0
 21 24  1  0  0  0  0
 21 22  1  0  0  0  0
 23 19  1  0  0  0  0
 24 23  1  0  0  0  0
 24 22  1  0  0  0  0
 25 23  2  0  0  0  0
M  END
>  <MODEL>
7

>  <REMARK>
 VINA RESULT:      -9.9      1.868      3.344
  Name = 
  2 active torsions:
  status: ('A' for Active; 'I' for Inactive)
    1  A    between atoms: C_6  and  C_15
    2  A    between atoms: C_6  and  C_23
                            x       y       z     vdW  Elec       q    Type
                         _______ _______ _______ _____ _____    ______ ____

>  <TORSDO>
F 2

$$$$
=
 OpenBabel10272400413D

 25 29  0  0  1  0  0  0  0  0999 V2000
  186.6420  177.9740  144.5570 C   0  0  0  0  0  0  0  0  0  0  0  0
  187.8000  177.4870  143.7020 C   0  0  1  0  0  3  0  0  0  0  0  0
  187.9990  177.3820  146.6000 C   0  0  0  0  0  2  0  0  0  0  0  0
  185.3910  178.3600  144.0300 C   0  0  0  0  0  0  0  0  0  0  0  0
  183.2390  179.0860  144.1290 O   0  0  0  0  0  0  0  0  0  0  0  0
  189.1520  177.6830  145.8200 O   0  0  0  0  0  0  0  0  0  0  0  0
  184.4820  178.7530  146.2330 C   0  0  0  0  0  3  0  0  0  0  0  0
  184.3630  178.7450  144.8460 C   0  0  0  0  0  0  0  0  0  0  0  0
  190.2840  177.8030  143.7390 C   0  0  0  0  0  0  0  0  0  0  0  0
  191.5720  177.9670  144.4730 C   0  0  0  0  0  1  0  0  0  0  0  0
  187.8440  178.1180  142.3100 C   0  0  0  0  0  2  0  0  0  0  0  0
  183.4800  178.9250  142.7340 C   0  0  0  0  0  3  0  0  0  0  0  0
  186.7640  177.9420  145.9690 C   0  0  0  0  0  0  0  0  0  0  0  0
  185.6950  178.3340  146.7930 C   0  0  0  0  0  3  0  0  0  0  0  0
  190.3230  177.9630  142.2410 C   0  0  0  0  0  2  0  0  0  0  0  0
  184.9270  178.4110  142.6130 C   0  0  0  0  0  3  0  0  0  0  0  0
  189.0250  177.5390  141.5530 C   0  0  2  0  0  3  0  0  0  0  0  0
  189.1300  177.6690  144.4200 C   0  0  0  0  0  0  0  0  0  0  0  0
  189.0010  178.0370  140.1180 C   0  0  0  0  0  2  0  0  0  0  0  0
  187.2010  174.7930  137.3450 O   0  0  0  0  0  1  0  0  0  0  0  0
  187.7990  175.9830  136.9360 C   0  0  1  0  0  3  0  0  0  0  0  0
  187.0700  177.0310  137.3630 N   0  0  0  0  0  2  0  0  0  0  0  0
  189.2100  176.9100  139.1640 C   0  0  0  0  0  0  0  0  0  0  0  0
  188.2880  176.6980  138.1010 N   0  0  0  0  0  0  0  0  0  0  0  0
  190.2160  176.1630  139.2820 O   0  0  0  0  0  0  0  0  0  0  0  0
  1 13  1  0  0  0  0
  2 11  1  6  0  0  0
  2 18  1  0  0  0  0
  2  1  1  0  0  0  0
  4  1  2  0  0  0  0
  4  8  1  0  0  0  0
  5  8  1  0  0  0  0
  6  3  1  0  0  0  0
  7 14  1  0  0  0  0
  8  7  2  0  0  0  0
  9 18  2  0  0  0  0
  9 10  1  0  0  0  0
 12  5  1  0  0  0  0
 13  3  1  0  0  0  0
 13 14  2  0  0  0  0
 15  9  1  0  0  0  0
 16 12  2  0  0  0  0
 16  4  1  0  0  0  0
 17 19  1  6  0  0  0
 17 15  1  0  0  0  0
 17 11  1  0  0  0  0
 18  6  1  0  0  0  0
 21 20  1  1  0  0  0
 21 22  1  0  0  0  0
 21 24  1  0  0  0  0
 22 24  1  0  0  0  0
 23 25  2  0  0  0  0
 23 19  1  0  0  0  0
 24 23  1  0  0  0  0
M  END
>  <MODEL>
8

>  <REMARK>
 VINA RESULT:      -9.8      2.480      3.889
  Name = 
  2 active torsions:
  status: ('A' for Active; 'I' for Inactive)
    1  A    between atoms: C_6  and  C_15
    2  A    between atoms: C_6  and  C_23
                            x       y       z     vdW  Elec       q    Type
                         _______ _______ _______ _____ _____    ______ ____

>  <TORSDO>
F 2

$$$$
=
 OpenBabel10272400413D

 25 29  0  0  1  0  0  0  0  0999 V2000
  188.9820  177.1730  144.6250 C   0  0  0  0  0  0  0  0  0  0  0  0
  187.9660  177.2210  143.4950 C   0  0  1  0  0  3  0  0  0  0  0  0
  190.7130  176.4490  142.9370 C   0  0  0  0  0  2  0  0  0  0  0  0
  188.6470  177.3530  145.9840 C   0  0  0  0  0  0  0  0  0  0  0  0
  189.0540  177.4670  148.2170 O   0  0  0  0  0  0  0  0  0  0  0  0
  189.9830  177.2140  141.9840 O   0  0  0  0  0  0  0  0  0  0  0  0
  190.9190  176.9420  146.6930 C   0  0  0  0  0  3  0  0  0  0  0  0
  189.5910  177.2510  146.9690 C   0  0  0  0  0  0  0  0  0  0  0  0
  187.9550  178.1300  141.1620 C   0  0  0  0  0  0  0  0  0  0  0  0
  188.6350  178.4220  139.8680 C   0  0  0  0  0  1  0  0  0  0  0  0
  186.7970  178.1700  143.7600 C   0  0  0  0  0  2  0  0  0  0  0  0
  187.6570  177.7260  148.1130 C   0  0  0  0  0  3  0  0  0  0  0  0
  190.3230  176.8210  144.3330 C   0  0  0  0  0  0  0  0  0  0  0  0
  191.2790  176.7130  145.3580 C   0  0  0  0  0  3  0  0  0  0  0  0
  186.5560  178.6630  141.3370 C   0  0  0  0  0  2  0  0  0  0  0  0
  187.3240  177.6370  146.6110 C   0  0  0  0  0  3  0  0  0  0  0  0
  185.8490  178.1130  142.5770 C   0  0  2  0  0  3  0  0  0  0  0  0
  188.6350  177.5450  142.1670 C   0  0  0  0  0  0  0  0  0  0  0  0
  184.6060  178.9320  142.8830 C   0  0  0  0  0  2  0  0  0  0  0  0
  180.0940  177.9260  142.5850 O   0  0  0  0  0  1  0  0  0  0  0  0
  180.7190  179.0590  142.0660 C   0  0  1  0  0  3  0  0  0  0  0  0
  181.2100  179.8090  143.0690 N   0  0  0  0  0  2  0  0  0  0  0  0
  183.4510  178.4640  142.0630 C   0  0  0  0  0  0  0  0  0  0  0  0
  182.1470  178.9740  142.3170 N   0  0  0  0  0  0  0  0  0  0  0  0
  183.6330  177.6390  141.1310 O   0  0  0  0  0  0  0  0  0  0  0  0
  1  4  1  0  0  0  0
  2 11  1  1  0  0  0
  2  1  1  0  0  0  0
  3 13  1  0  0  0  0
  4 16  1  0  0  0  0
  4  8  2  0  0  0  0
  6 18  1  0  0  0  0
  6  3  1  0  0  0  0
  7  8  1  0  0  0  0
  8  5  1  0  0  0  0
  9 15  1  0  0  0  0
  9 18  2  0  0  0  0
 10  9  1  0  0  0  0
 12  5  1  0  0  0  0
 13  1  2  0  0  0  0
 13 14  1  0  0  0  0
 14  7  2  0  0  0  0
 15 17  1  0  0  0  0
 16 12  2  0  0  0  0
 17 19  1  1  0  0  0
 17 11  1  0  0  0  0
 18  2  1  0  0  0  0
 21 24  1  0  0  0  0
 21 20  1  1  0  0  0
 21 22  1  0  0  0  0
 23 24  1  0  0  0  0
 23 19  1  0  0  0  0
 24 22  1  0  0  0  0
 25 23  2  0  0  0  0
M  END
>  <MODEL>
9

>  <REMARK>
 VINA RESULT:      -9.8      3.216      7.140
  Name = 
  2 active torsions:
  status: ('A' for Active; 'I' for Inactive)
    1  A    between atoms: C_6  and  C_15
    2  A    between atoms: C_6  and  C_23
                            x       y       z     vdW  Elec       q    Type
                         _______ _______ _______ _____ _____    ______ ____

>  <TORSDO>
F 2

$$$$
