=
 OpenBabel10272400153D

 31 34  0  0  1  0  0  0  0  0999 V2000
  184.8670  178.6970  144.6280 C   0  0  0  0  0  0  0  0  0  0  0  0
  187.9940  176.6270  143.9700 C   0  0  1  0  0  3  0  0  0  0  0  0
  189.1310  177.2050  144.8120 C   0  0  0  0  0  0  0  0  0  0  0  0
  189.0030  178.9780  139.2900 O   0  0  0  0  0  0  0  0  0  0  0  0
  189.6840  177.9210  139.3800 C   0  0  0  0  0  0  0  0  0  0  0  0
  189.0910  177.4410  147.2800 C   0  0  0  0  0  3  0  0  0  0  0  0
  186.8530  177.5920  143.7860 C   0  0  0  0  0  0  0  0  0  0  0  0
  184.8220  179.4940  143.4810 C   0  0  0  0  0  3  0  0  0  0  0  0
  188.7700  178.0830  145.9740 C   0  0  0  0  0  2  0  0  0  0  0  0
  188.5580  177.1630  141.5450 C   0  0  0  0  0  0  0  0  0  0  0  0
  183.6580  178.8940  145.8780 Cl  0  0  0  0  0  0  0  0  0  0  0  0
  190.8390  176.1630  143.3200 C   0  0  0  0  0  2  0  0  0  0  0  0
  190.3420  177.1770  147.6470 C   0  0  0  0  0  3  0  0  0  0  0  0
  187.7460  178.1820  141.5740 N   0  0  0  0  0  0  0  0  0  0  0  0
  188.4510  176.0760  142.6020 C   0  0  1  0  0  3  0  0  0  0  0  0
  189.4710  176.9950  140.4520 N   0  0  0  0  0  2  0  0  0  0  0  0
  185.8820  177.7480  144.7830 C   0  0  0  0  0  3  0  0  0  0  0  0
  191.5190  177.4010  146.7890 C   0  0  0  0  0  3  0  0  0  0  0  0
  186.7950  178.3810  142.6250 C   0  0  0  0  0  0  0  0  0  0  0  0
  185.7830  179.3360  142.4780 C   0  0  0  0  0  3  0  0  0  0  0  0
  189.7360  175.2730  142.7640 C   0  0  0  0  0  2  0  0  0  0  0  0
  190.4260  176.8720  144.5790 C   0  0  0  0  0  0  0  0  0  0  0  0
  191.5480  177.2790  145.4560 C   0  0  0  0  0  3  0  0  0  0  0  0
  190.2600  177.7480  137.0830 F   0  0  0  0  0  0  0  0  0  0  0  0
  190.7590  177.6560  138.3710 C   0  0  2  0  0  3  0  0  0  0  0  0
  190.9000  175.2340  137.6860 C   0  0  0  0  0  1  0  0  0  0  0  0
  191.4860  176.3180  138.5780 C   0  0  1  0  0  3  0  0  0  0  0  0
  193.0170  176.3780  138.4690 C   0  0  0  0  0  0  0  0  0  0  0  0
  193.5560  175.1050  138.3970 F   0  0  0  0  0  0  0  0  0  0  0  0
  193.3910  177.0920  137.3450 F   0  0  0  0  0  0  0  0  0  0  0  0
  193.5290  177.0160  139.5830 F   0  0  0  0  0  0  0  0  0  0  0  0
  1 17  1  0  0  0  0
  1 11  1  0  0  0  0
  2  7  1  6  0  0  0
  2  3  1  0  0  0  0
  3  9  1  0  0  0  0
  4  5  2  0  0  0  0
  5 16  1  0  0  0  0
  6 13  2  0  0  0  0
  7 17  2  0  0  0  0
  8  1  2  0  0  0  0
  9  6  1  0  0  0  0
 10 14  2  0  0  0  0
 10 15  1  0  0  0  0
 12 22  1  0  0  0  0
 14 19  1  0  0  0  0
 15 21  1  1  0  0  0
 15  2  1  0  0  0  0
 16 10  1  0  0  0  0
 18 13  1  0  0  0  0
 19  7  1  0  0  0  0
 20 19  2  0  0  0  0
 20  8  1  0  0  0  0
 21 12  1  0  0  0  0
 22  3  2  0  0  0  0
 22 23  1  0  0  0  0
 23 18  2  0  0  0  0
 25 24  1  6  0  0  0
 25 27  1  0  0  0  0
 25  5  1  0  0  0  0
 27 26  1  6  0  0  0
 28 27  1  0  0  0  0
 28 31  1  0  0  0  0
 29 28  1  0  0  0  0
 30 28  1  0  0  0  0
M  END
>  <MODEL>
1

>  <REMARK>
 VINA RESULT:      -9.5      0.000      0.000
  Name = 
  3 active torsions:
  status: ('A' for Active; 'I' for Inactive)
    1  A    between atoms: C_1  and  C_19
    2  A    between atoms: C_9  and  C_22
    3  A    between atoms: C_19  and  C_22
                            x       y       z     vdW  Elec       q    Type
                         _______ _______ _______ _____ _____    ______ ____

>  <TORSDO>
F 3

$$$$
=
 OpenBabel10272400153D

 31 34  0  0  1  0  0  0  0  0999 V2000
  191.4310  176.4000  145.8670 C   0  0  0  0  0  0  0  0  0  0  0  0
  189.2600  178.3510  143.4220 C   0  0  1  0  0  3  0  0  0  0  0  0
  187.8120  177.9040  143.6140 C   0  0  0  0  0  0  0  0  0  0  0  0
  190.6270  175.3350  139.2410 O   0  0  0  0  0  0  0  0  0  0  0  0
  190.0810  176.3930  138.8290 C   0  0  0  0  0  0  0  0  0  0  0  0
  186.5570  178.0360  145.7490 C   0  0  0  0  0  3  0  0  0  0  0  0
  190.2550  177.3680  143.9830 C   0  0  0  0  0  0  0  0  0  0  0  0
  191.9980  175.4410  145.0220 C   0  0  0  0  0  3  0  0  0  0  0  0
  187.4540  177.2070  144.8940 C   0  0  0  0  0  2  0  0  0  0  0  0
  189.9870  177.4630  141.1490 C   0  0  0  0  0  0  0  0  0  0  0  0
  191.8050  176.3890  147.5770 Cl  0  0  0  0  0  0  0  0  0  0  0  0
  187.2020  178.7150  141.3340 C   0  0  0  0  0  2  0  0  0  0  0  0
  185.3200  178.3520  145.3750 C   0  0  0  0  0  3  0  0  0  0  0  0
  190.5860  176.4590  141.7240 N   0  0  0  0  0  0  0  0  0  0  0  0
  189.6170  178.6940  141.9600 C   0  0  1  0  0  3  0  0  0  0  0  0
  189.7820  177.4680  139.7290 N   0  0  0  0  0  2  0  0  0  0  0  0
  190.5580  177.3610  145.3500 C   0  0  0  0  0  3  0  0  0  0  0  0
  184.7400  178.0040  144.0650 C   0  0  0  0  0  3  0  0  0  0  0  0
  190.8410  176.4170  143.1320 C   0  0  0  0  0  0  0  0  0  0  0  0
  191.7060  175.4500  143.6550 C   0  0  0  0  0  3  0  0  0  0  0  0
  188.4980  179.5130  141.3270 C   0  0  0  0  0  2  0  0  0  0  0  0
  186.8510  178.2000  142.7020 C   0  0  0  0  0  0  0  0  0  0  0  0
  185.4110  177.9280  142.9090 C   0  0  0  0  0  3  0  0  0  0  0  0
  190.8210  176.7240  136.5990 F   0  0  0  0  0  0  0  0  0  0  0  0
  189.7030  176.5080  137.3850 C   0  0  2  0  0  3  0  0  0  0  0  0
  188.8300  178.2070  135.7400 C   0  0  0  0  0  1  0  0  0  0  0  0
  188.6290  177.5710  137.1070 C   0  0  1  0  0  3  0  0  0  0  0  0
  187.1780  177.1090  137.3120 C   0  0  0  0  0  0  0  0  0  0  0  0
  187.1230  175.7440  137.5330 F   0  0  0  0  0  0  0  0  0  0  0  0
  186.6110  177.7670  138.3880 F   0  0  0  0  0  0  0  0  0  0  0  0
  186.4420  177.4060  136.1800 F   0  0  0  0  0  0  0  0  0  0  0  0
  1 11  1  0  0  0  0
  2  3  1  6  0  0  0
  2  7  1  0  0  0  0
  3  9  1  0  0  0  0
  5  4  2  0  0  0  0
  5 16  1  0  0  0  0
  7 17  2  0  0  0  0
  8  1  2  0  0  0  0
  9  6  1  0  0  0  0
 10 14  2  0  0  0  0
 10 15  1  0  0  0  0
 12 22  1  0  0  0  0
 13  6  2  0  0  0  0
 14 19  1  0  0  0  0
 15 21  1  6  0  0  0
 15  2  1  0  0  0  0
 16 10  1  0  0  0  0
 17  1  1  0  0  0  0
 18 13  1  0  0  0  0
 19 20  2  0  0  0  0
 19  7  1  0  0  0  0
 20  8  1  0  0  0  0
 21 12  1  0  0  0  0
 22 23  1  0  0  0  0
 22  3  2  0  0  0  0
 23 18  2  0  0  0  0
 25 24  1  6  0  0  0
 25  5  1  0  0  0  0
 27 26  1  6  0  0  0
 27 28  1  0  0  0  0
 27 25  1  0  0  0  0
 28 29  1  0  0  0  0
 28 30  1  0  0  0  0
 31 28  1  0  0  0  0
M  END
>  <MODEL>
2

>  <REMARK>
 VINA RESULT:      -8.0      2.587      5.015
  Name = 
  3 active torsions:
  status: ('A' for Active; 'I' for Inactive)
    1  A    between atoms: C_1  and  C_19
    2  A    between atoms: C_9  and  C_22
    3  A    between atoms: C_19  and  C_22
                            x       y       z     vdW  Elec       q    Type
                         _______ _______ _______ _____ _____    ______ ____

>  <TORSDO>
F 3

$$$$
=
 OpenBabel10272400153D

 31 34  0  0  1  0  0  0  0  0999 V2000
  181.5400  178.8410  143.6240 C   0  0  0  0  0  0  0  0  0  0  0  0
  182.9210  178.5310  140.0890 C   0  0  1  0  0  3  0  0  0  0  0  0
  182.6710  177.1030  139.6060 C   0  0  0  0  0  0  0  0  0  0  0  0
  187.9820  178.0990  141.7160 O   0  0  0  0  0  0  0  0  0  0  0  0
  187.9620  178.3520  140.4810 C   0  0  0  0  0  0  0  0  0  0  0  0
  180.4440  176.0230  139.4640 C   0  0  0  0  0  3  0  0  0  0  0  0
  182.8420  178.6640  141.5870 C   0  0  0  0  0  0  0  0  0  0  0  0
  182.7130  178.7680  144.3810 C   0  0  0  0  0  3  0  0  0  0  0  0
  181.6330  176.2890  140.3220 C   0  0  0  0  0  2  0  0  0  0  0  0
  185.4370  178.7430  140.4170 C   0  0  0  0  0  0  0  0  0  0  0  0
  179.9910  178.9880  144.4230 Cl  0  0  0  0  0  0  0  0  0  0  0  0
  184.4750  177.3070  137.8940 C   0  0  0  0  0  2  0  0  0  0  0  0
  180.5190  175.2750  138.3660 C   0  0  0  0  0  3  0  0  0  0  0  0
  185.2940  178.5520  141.6980 N   0  0  0  0  0  0  0  0  0  0  0  0
  184.2400  179.1410  139.5690 C   0  0  1  0  0  3  0  0  0  0  0  0
  186.7410  178.7020  139.8190 N   0  0  0  0  0  2  0  0  0  0  0  0
  181.6030  178.7860  142.2280 C   0  0  0  0  0  3  0  0  0  0  0  0
  181.7740  174.7130  137.8360 C   0  0  0  0  0  3  0  0  0  0  0  0
  184.0210  178.6110  142.3490 C   0  0  0  0  0  0  0  0  0  0  0  0
  183.9530  178.6560  143.7460 C   0  0  0  0  0  3  0  0  0  0  0  0
  184.4210  178.8160  138.0910 C   0  0  0  0  0  2  0  0  0  0  0  0
  183.2990  176.6040  138.5110 C   0  0  0  0  0  0  0  0  0  0  0  0
  182.9810  175.2880  137.9110 C   0  0  0  0  0  3  0  0  0  0  0  0
  189.2760  179.2050  138.6980 F   0  0  0  0  0  0  0  0  0  0  0  0
  189.2300  178.2430  139.6920 C   0  0  2  0  0  3  0  0  0  0  0  0
  188.4480  176.5080  138.0390 C   0  0  0  0  0  1  0  0  0  0  0  0
  189.4780  176.8440  139.1070 C   0  0  1  0  0  3  0  0  0  0  0  0
  190.9100  176.5800  138.6180 C   0  0  0  0  0  0  0  0  0  0  0  0
  191.8370  177.0800  139.5170 F   0  0  0  0  0  0  0  0  0  0  0  0
  191.1210  175.2230  138.4570 F   0  0  0  0  0  0  0  0  0  0  0  0
  191.0960  177.2010  137.3970 F   0  0  0  0  0  0  0  0  0  0  0  0
  1  8  1  0  0  0  0
  1 11  1  0  0  0  0
  2  3  1  1  0  0  0
  2  7  1  0  0  0  0
  3  9  1  0  0  0  0
  5  4  2  0  0  0  0
  6  9  1  0  0  0  0
  7 17  1  0  0  0  0
  7 19  2  0  0  0  0
 10 14  2  0  0  0  0
 12 21  1  0  0  0  0
 12 22  1  0  0  0  0
 13  6  2  0  0  0  0
 14 19  1  0  0  0  0
 15 21  1  6  0  0  0
 15  2  1  0  0  0  0
 15 10  1  0  0  0  0
 16 10  1  0  0  0  0
 16  5  1  0  0  0  0
 17  1  2  0  0  0  0
 18 23  2  0  0  0  0
 18 13  1  0  0  0  0
 19 20  1  0  0  0  0
 20  8  2  0  0  0  0
 22  3  2  0  0  0  0
 23 22  1  0  0  0  0
 25 24  1  6  0  0  0
 25  5  1  0  0  0  0
 27 26  1  6  0  0  0
 27 25  1  0  0  0  0
 28 27  1  0  0  0  0
 28 29  1  0  0  0  0
 30 28  1  0  0  0  0
 31 28  1  0  0  0  0
M  END
>  <MODEL>
3

>  <REMARK>
 VINA RESULT:      -8.0      3.911      6.453
  Name = 
  3 active torsions:
  status: ('A' for Active; 'I' for Inactive)
    1  A    between atoms: C_1  and  C_19
    2  A    between atoms: C_9  and  C_22
    3  A    between atoms: C_19  and  C_22
                            x       y       z     vdW  Elec       q    Type
                         _______ _______ _______ _____ _____    ______ ____

>  <TORSDO>
F 3

$$$$
=
 OpenBabel10272400153D

 31 34  0  0  1  0  0  0  0  0999 V2000
  191.4460  176.3130  145.8510 C   0  0  0  0  0  0  0  0  0  0  0  0
  189.2450  178.3480  143.5030 C   0  0  1  0  0  3  0  0  0  0  0  0
  187.7960  177.9130  143.7160 C   0  0  0  0  0  0  0  0  0  0  0  0
  190.4820  175.4170  139.2220 O   0  0  0  0  0  0  0  0  0  0  0  0
  189.9400  176.4920  138.8470 C   0  0  0  0  0  0  0  0  0  0  0  0
  186.5910  178.0080  145.8810 C   0  0  0  0  0  3  0  0  0  0  0  0
  190.2400  177.3400  144.0170 C   0  0  0  0  0  0  0  0  0  0  0  0
  191.9820  175.3680  144.9710 C   0  0  0  0  0  3  0  0  0  0  0  0
  187.4580  177.1900  144.9870 C   0  0  0  0  0  2  0  0  0  0  0  0
  189.9100  177.5060  141.1930 C   0  0  0  0  0  0  0  0  0  0  0  0
  191.8560  176.2560  147.5520 Cl  0  0  0  0  0  0  0  0  0  0  0  0
  187.1460  178.7860  141.4710 C   0  0  0  0  0  2  0  0  0  0  0  0
  185.3490  178.3480  145.5430 C   0  0  0  0  0  3  0  0  0  0  0  0
  190.5100  176.4810  141.7310 N   0  0  0  0  0  0  0  0  0  0  0  0
  189.5740  178.7210  142.0420 C   0  0  1  0  0  3  0  0  0  0  0  0
  189.6750  177.5480  139.7790 N   0  0  0  0  0  2  0  0  0  0  0  0
  190.5730  177.2960  145.3770 C   0  0  0  0  0  3  0  0  0  0  0  0
  184.7360  178.0390  144.2390 C   0  0  0  0  0  3  0  0  0  0  0  0
  190.7950  176.4020  143.1310 C   0  0  0  0  0  0  0  0  0  0  0  0
  191.6600  175.4130  143.6120 C   0  0  0  0  0  3  0  0  0  0  0  0
  188.4520  179.5690  141.4540 C   0  0  0  0  0  2  0  0  0  0  0  0
  186.8190  178.2420  142.8330 C   0  0  0  0  0  0  0  0  0  0  0  0
  185.3800  177.9820  143.0660 C   0  0  0  0  0  3  0  0  0  0  0  0
  188.8530  177.8360  137.2200 F   0  0  0  0  0  0  0  0  0  0  0  0
  189.5320  176.6450  137.4150 C   0  0  2  0  0  3  0  0  0  0  0  0
  187.2300  175.6620  137.1150 C   0  0  0  0  0  1  0  0  0  0  0  0
  188.7180  175.4600  136.8720 C   0  0  1  0  0  3  0  0  0  0  0  0
  189.0090  175.0760  135.4130 C   0  0  0  0  0  0  0  0  0  0  0  0
  188.1020  175.6770  134.5560 F   0  0  0  0  0  0  0  0  0  0  0  0
  190.2890  175.4600  135.0610 F   0  0  0  0  0  0  0  0  0  0  0  0
  188.9090  173.7040  135.2750 F   0  0  0  0  0  0  0  0  0  0  0  0
  1 11  1  0  0  0  0
  2  3  1  6  0  0  0
  2  7  1  0  0  0  0
  3  9  1  0  0  0  0
  5  4  2  0  0  0  0
  5 16  1  0  0  0  0
  7 17  2  0  0  0  0
  8  1  2  0  0  0  0
  9  6  1  0  0  0  0
 10 14  2  0  0  0  0
 10 15  1  0  0  0  0
 12 22  1  0  0  0  0
 13  6  2  0  0  0  0
 14 19  1  0  0  0  0
 15 21  1  6  0  0  0
 15  2  1  0  0  0  0
 16 10  1  0  0  0  0
 17  1  1  0  0  0  0
 18 13  1  0  0  0  0
 19 20  2  0  0  0  0
 19  7  1  0  0  0  0
 20  8  1  0  0  0  0
 21 12  1  0  0  0  0
 22 23  1  0  0  0  0
 22  3  2  0  0  0  0
 23 18  2  0  0  0  0
 25 24  1  1  0  0  0
 25  5  1  0  0  0  0
 27 26  1  6  0  0  0
 27 25  1  0  0  0  0
 28 27  1  0  0  0  0
 29 28  1  0  0  0  0
 30 28  1  0  0  0  0
 31 28  1  0  0  0  0
M  END
>  <MODEL>
4

>  <REMARK>
 VINA RESULT:      -7.5      2.721      4.838
  Name = 
  3 active torsions:
  status: ('A' for Active; 'I' for Inactive)
    1  A    between atoms: C_1  and  C_19
    2  A    between atoms: C_9  and  C_22
    3  A    between atoms: C_19  and  C_22
                            x       y       z     vdW  Elec       q    Type
                         _______ _______ _______ _____ _____    ______ ____

>  <TORSDO>
F 3

$$$$
=
 OpenBabel10272400153D

 31 34  0  0  1  0  0  0  0  0999 V2000
  182.9940  179.0350  138.5750 C   0  0  0  0  0  0  0  0  0  0  0  0
  186.4550  177.8460  137.5260 C   0  0  1  0  0  3  0  0  0  0  0  0
  186.3920  176.3340  137.3100 C   0  0  0  0  0  0  0  0  0  0  0  0
  188.4080  178.0010  142.4870 O   0  0  0  0  0  0  0  0  0  0  0  0
  189.3620  177.9200  141.6680 C   0  0  0  0  0  0  0  0  0  0  0  0
  184.8700  175.1920  135.7200 C   0  0  0  0  0  3  0  0  0  0  0  0
  185.3130  178.3660  138.3590 C   0  0  0  0  0  0  0  0  0  0  0  0
  183.1680  179.1970  139.9530 C   0  0  0  0  0  3  0  0  0  0  0  0
  185.0430  175.7090  137.1070 C   0  0  0  0  0  2  0  0  0  0  0  0
  187.8630  178.2090  139.6170 C   0  0  0  0  0  0  0  0  0  0  0  0
  181.4310  179.3420  137.8490 Cl  0  0  0  0  0  0  0  0  0  0  0  0
  188.8610  176.1330  137.6050 C   0  0  0  0  0  2  0  0  0  0  0  0
  185.5990  174.1840  135.2470 C   0  0  0  0  0  3  0  0  0  0  0  0
  186.7810  178.3570  140.3290 N   0  0  0  0  0  0  0  0  0  0  0  0
  187.8010  178.3350  138.1040 C   0  0  1  0  0  3  0  0  0  0  0  0
  189.1370  178.0490  140.2580 N   0  0  0  0  0  2  0  0  0  0  0  0
  184.0630  178.6170  137.7780 C   0  0  0  0  0  3  0  0  0  0  0  0
  186.6950  173.5380  135.9910 C   0  0  0  0  0  3  0  0  0  0  0  0
  185.4910  178.5490  139.7400 C   0  0  0  0  0  0  0  0  0  0  0  0
  184.4160  178.9580  140.5360 C   0  0  0  0  0  3  0  0  0  0  0  0
  188.9580  177.6380  137.3980 C   0  0  0  0  0  2  0  0  0  0  0  0
  187.5180  175.5830  137.2150 C   0  0  0  0  0  0  0  0  0  0  0  0
  187.5190  174.1470  136.8530 C   0  0  0  0  0  3  0  0  0  0  0  0
  191.4400  176.8340  141.2970 F   0  0  0  0  0  0  0  0  0  0  0  0
  190.7420  177.6440  142.1770 C   0  0  2  0  0  3  0  0  0  0  0  0
  191.6270  175.7990  143.6500 C   0  0  0  0  0  1  0  0  0  0  0  0
  190.7730  177.0580  143.5970 C   0  0  1  0  0  3  0  0  0  0  0  0
  191.1520  178.0480  144.7090 C   0  0  0  0  0  0  0  0  0  0  0  0
  191.8220  177.4040  145.7350 F   0  0  0  0  0  0  0  0  0  0  0  0
  191.9550  179.0540  144.2040 F   0  0  0  0  0  0  0  0  0  0  0  0
  190.0020  178.6210  145.2190 F   0  0  0  0  0  0  0  0  0  0  0  0
  1  8  1  0  0  0  0
  2  3  1  1  0  0  0
  2 15  1  0  0  0  0
  2  7  1  0  0  0  0
  5 25  1  0  0  0  0
  5  4  2  0  0  0  0
  6  9  1  0  0  0  0
  7 19  2  0  0  0  0
  8 20  2  0  0  0  0
  9  3  1  0  0  0  0
 10 16  1  0  0  0  0
 10 14  2  0  0  0  0
 11  1  1  0  0  0  0
 13  6  2  0  0  0  0
 13 18  1  0  0  0  0
 15 21  1  6  0  0  0
 15 10  1  0  0  0  0
 16  5  1  0  0  0  0
 17  7  1  0  0  0  0
 17  1  2  0  0  0  0
 18 23  2  0  0  0  0
 19 14  1  0  0  0  0
 19 20  1  0  0  0  0
 21 12  1  0  0  0  0
 22  3  2  0  0  0  0
 22 12  1  0  0  0  0
 23 22  1  0  0  0  0
 25 24  1  6  0  0  0
 25 27  1  0  0  0  0
 27 26  1  6  0  0  0
 27 28  1  0  0  0  0
 28 31  1  0  0  0  0
 28 29  1  0  0  0  0
 30 28  1  0  0  0  0
M  END
>  <MODEL>
5

>  <REMARK>
 VINA RESULT:      -7.4      4.075      7.009
  Name = 
  3 active torsions:
  status: ('A' for Active; 'I' for Inactive)
    1  A    between atoms: C_1  and  C_19
    2  A    between atoms: C_9  and  C_22
    3  A    between atoms: C_19  and  C_22
                            x       y       z     vdW  Elec       q    Type
                         _______ _______ _______ _____ _____    ______ ____

>  <TORSDO>
F 3

$$$$
=
 OpenBabel10272400153D

 31 34  0  0  1  0  0  0  0  0999 V2000
  189.4600  177.6480  143.7000 C   0  0  0  0  0  0  0  0  0  0  0  0
  188.7030  178.6300  140.1000 C   0  0  1  0  0  3  0  0  0  0  0  0
  187.2490  178.2640  139.8050 C   0  0  0  0  0  0  0  0  0  0  0  0
  191.1770  174.3790  138.0390 O   0  0  0  0  0  0  0  0  0  0  0  0
  190.9840  175.2280  137.1280 C   0  0  0  0  0  0  0  0  0  0  0  0
  185.2890  179.1060  141.0690 C   0  0  0  0  0  3  0  0  0  0  0  0
  189.2570  177.9050  141.2980 C   0  0  0  0  0  0  0  0  0  0  0  0
  190.1780  176.4630  143.5130 C   0  0  0  0  0  3  0  0  0  0  0  0
  186.3280  178.0420  140.9690 C   0  0  0  0  0  2  0  0  0  0  0  0
  190.1340  177.0250  138.7360 C   0  0  0  0  0  0  0  0  0  0  0  0
  189.1300  178.2240  145.3190 Cl  0  0  0  0  0  0  0  0  0  0  0  0
  187.6950  178.2430  137.3500 C   0  0  0  0  0  2  0  0  0  0  0  0
  184.3520  179.2660  140.1380 C   0  0  0  0  0  3  0  0  0  0  0  0
  190.3200  176.2820  139.7910 N   0  0  0  0  0  0  0  0  0  0  0  0
  189.6450  178.4560  138.8900 C   0  0  1  0  0  3  0  0  0  0  0  0
  190.5050  176.5430  137.4360 N   0  0  0  0  0  2  0  0  0  0  0  0
  188.9970  178.3680  142.5940 C   0  0  0  0  0  3  0  0  0  0  0  0
  184.2890  178.4870  138.8880 C   0  0  0  0  0  3  0  0  0  0  0  0
  189.9950  176.7250  141.1130 C   0  0  0  0  0  0  0  0  0  0  0  0
  190.4490  176.0020  142.2210 C   0  0  0  0  0  3  0  0  0  0  0  0
  188.9850  179.0010  137.6290 C   0  0  0  0  0  2  0  0  0  0  0  0
  186.7710  178.2220  138.5350 C   0  0  0  0  0  0  0  0  0  0  0  0
  185.3420  178.0260  138.2020 C   0  0  0  0  0  3  0  0  0  0  0  0
  191.5920  175.9380  134.9470 F   0  0  0  0  0  0  0  0  0  0  0  0
  191.2200  174.8400  135.7020 C   0  0  2  0  0  3  0  0  0  0  0  0
  189.9810  172.6540  135.4940 C   0  0  0  0  0  1  0  0  0  0  0  0
  190.0340  174.1090  135.0540 C   0  0  1  0  0  3  0  0  0  0  0  0
  188.6710  174.8000  135.2110 C   0  0  0  0  0  0  0  0  0  0  0  0
  188.1990  174.6670  136.5070 F   0  0  0  0  0  0  0  0  0  0  0  0
  188.7740  176.1430  134.9020 F   0  0  0  0  0  0  0  0  0  0  0  0
  187.7630  174.2190  134.3460 F   0  0  0  0  0  0  0  0  0  0  0  0
  1 11  1  0  0  0  0
  2  3  1  6  0  0  0
  2  7  1  0  0  0  0
  3  9  1  0  0  0  0
  5 16  1  0  0  0  0
  5  4  2  0  0  0  0
  7 17  1  0  0  0  0
  8  1  1  0  0  0  0
  9  6  1  0  0  0  0
 10 15  1  0  0  0  0
 10 14  2  0  0  0  0
 12 21  1  0  0  0  0
 12 22  1  0  0  0  0
 13  6  2  0  0  0  0
 14 19  1  0  0  0  0
 15 21  1  6  0  0  0
 15  2  1  0  0  0  0
 16 10  1  0  0  0  0
 17  1  2  0  0  0  0
 18 13  1  0  0  0  0
 19  7  2  0  0  0  0
 19 20  1  0  0  0  0
 20  8  2  0  0  0  0
 22  3  2  0  0  0  0
 23 22  1  0  0  0  0
 23 18  2  0  0  0  0
 25 24  1  6  0  0  0
 25  5  1  0  0  0  0
 27 28  1  0  0  0  0
 27 26  1  1  0  0  0
 27 25  1  0  0  0  0
 28 29  1  0  0  0  0
 30 28  1  0  0  0  0
 31 28  1  0  0  0  0
M  END
>  <MODEL>
6

>  <REMARK>
 VINA RESULT:      -7.0      2.900      5.858
  Name = 
  3 active torsions:
  status: ('A' for Active; 'I' for Inactive)
    1  A    between atoms: C_1  and  C_19
    2  A    between atoms: C_9  and  C_22
    3  A    between atoms: C_19  and  C_22
                            x       y       z     vdW  Elec       q    Type
                         _______ _______ _______ _____ _____    ______ ____

>  <TORSDO>
F 3

$$$$
=
 OpenBabel10272400153D

 31 34  0  0  1  0  0  0  0  0999 V2000
  184.9960  178.3610  145.6840 C   0  0  0  0  0  0  0  0  0  0  0  0
  188.0380  176.5450  144.2900 C   0  0  1  0  0  3  0  0  0  0  0  0
  189.2830  177.1160  144.9680 C   0  0  0  0  0  0  0  0  0  0  0  0
  188.0770  179.3400  139.7480 O   0  0  0  0  0  0  0  0  0  0  0  0
  188.8080  178.3230  139.6160 C   0  0  0  0  0  0  0  0  0  0  0  0
  189.6810  177.1390  147.4150 C   0  0  0  0  0  3  0  0  0  0  0  0
  186.8420  177.4530  144.4030 C   0  0  0  0  0  0  0  0  0  0  0  0
  184.7090  179.2500  144.6430 C   0  0  0  0  0  3  0  0  0  0  0  0
  189.1010  177.8700  146.2530 C   0  0  0  0  0  2  0  0  0  0  0  0
  188.1280  177.3170  141.8650 C   0  0  0  0  0  0  0  0  0  0  0  0
  184.0270  178.3790  147.1410 Cl  0  0  0  0  0  0  0  0  0  0  0  0
  190.7350  176.3080  143.1060 C   0  0  0  0  0  2  0  0  0  0  0  0
  190.9890  176.9200  147.5290 C   0  0  0  0  0  3  0  0  0  0  0  0
  187.2910  178.2810  142.1330 N   0  0  0  0  0  0  0  0  0  0  0  0
  188.2630  176.1400  142.8170 C   0  0  1  0  0  3  0  0  0  0  0  0
  188.8340  177.2970  140.6160 N   0  0  0  0  0  2  0  0  0  0  0  0
  186.0630  177.4650  145.5660 C   0  0  0  0  0  3  0  0  0  0  0  0
  191.9790  177.2850  146.5010 C   0  0  0  0  0  3  0  0  0  0  0  0
  186.5400  178.3330  143.3500 C   0  0  0  0  0  0  0  0  0  0  0  0
  185.4780  179.2340  143.4750 C   0  0  0  0  0  3  0  0  0  0  0  0
  189.5890  175.4040  142.6730 C   0  0  0  0  0  2  0  0  0  0  0  0
  190.5270  176.8820  144.4790 C   0  0  0  0  0  0  0  0  0  0  0  0
  191.7710  177.2790  145.1780 C   0  0  0  0  0  3  0  0  0  0  0  0
  189.7170  179.3970  137.7040 F   0  0  0  0  0  0  0  0  0  0  0  0
  189.6920  178.2080  138.4130 C   0  0  2  0  0  3  0  0  0  0  0  0
  189.8050  175.7110  138.0810 C   0  0  0  0  0  1  0  0  0  0  0  0
  189.3340  177.0320  137.4900 C   0  0  1  0  0  3  0  0  0  0  0  0
  187.8630  176.9660  137.0510 C   0  0  0  0  0  0  0  0  0  0  0  0
  187.7200  176.1640  135.9310 F   0  0  0  0  0  0  0  0  0  0  0  0
  187.0780  176.4630  138.0720 F   0  0  0  0  0  0  0  0  0  0  0  0
  187.4220  178.2390  136.7450 F   0  0  0  0  0  0  0  0  0  0  0  0
  1 11  1  0  0  0  0
  2  7  1  6  0  0  0
  2  3  1  0  0  0  0
  3  9  1  0  0  0  0
  5  4  2  0  0  0  0
  5 16  1  0  0  0  0
  6 13  2  0  0  0  0
  7 17  2  0  0  0  0
  8  1  2  0  0  0  0
  9  6  1  0  0  0  0
 10 14  2  0  0  0  0
 10 15  1  0  0  0  0
 12 22  1  0  0  0  0
 14 19  1  0  0  0  0
 15 21  1  1  0  0  0
 15  2  1  0  0  0  0
 16 10  1  0  0  0  0
 17  1  1  0  0  0  0
 18 13  1  0  0  0  0
 19 20  2  0  0  0  0
 19  7  1  0  0  0  0
 20  8  1  0  0  0  0
 21 12  1  0  0  0  0
 22  3  2  0  0  0  0
 22 23  1  0  0  0  0
 23 18  2  0  0  0  0
 25 24  1  6  0  0  0
 25  5  1  0  0  0  0
 27 26  1  1  0  0  0
 27 25  1  0  0  0  0
 28 27  1  0  0  0  0
 28 30  1  0  0  0  0
 29 28  1  0  0  0  0
 31 28  1  0  0  0  0
M  END
>  <MODEL>
7

>  <REMARK>
 VINA RESULT:      -7.0      1.869      2.434
  Name = 
  3 active torsions:
  status: ('A' for Active; 'I' for Inactive)
    1  A    between atoms: C_1  and  C_19
    2  A    between atoms: C_9  and  C_22
    3  A    between atoms: C_19  and  C_22
                            x       y       z     vdW  Elec       q    Type
                         _______ _______ _______ _____ _____    ______ ____

>  <TORSDO>
F 3

$$$$
=
 OpenBabel10272400153D

 31 34  0  0  1  0  0  0  0  0999 V2000
  192.3940  175.6260  138.0960 C   0  0  0  0  0  0  0  0  0  0  0  0
  189.8420  177.7880  139.9160 C   0  0  1  0  0  3  0  0  0  0  0  0
  189.5650  177.1490  141.2760 C   0  0  0  0  0  0  0  0  0  0  0  0
  185.7100  175.8890  137.1290 O   0  0  0  0  0  0  0  0  0  0  0  0
  185.3590  176.9410  137.7270 C   0  0  0  0  0  0  0  0  0  0  0  0
  191.2830  176.6880  143.0040 C   0  0  0  0  0  3  0  0  0  0  0  0
  190.4650  176.8280  138.9360 C   0  0  0  0  0  0  0  0  0  0  0  0
  191.5750  174.9360  137.1970 C   0  0  0  0  0  3  0  0  0  0  0  0
  190.5630  176.1640  141.8080 C   0  0  0  0  0  2  0  0  0  0  0  0
  187.7210  177.4840  138.5390 C   0  0  0  0  0  0  0  0  0  0  0  0
  194.1130  175.2990  138.1400 Cl  0  0  0  0  0  0  0  0  0  0  0  0
  187.3820  178.3460  141.4540 C   0  0  0  0  0  2  0  0  0  0  0  0
  190.6570  176.9330  144.1520 C   0  0  0  0  0  3  0  0  0  0  0  0
  188.2500  176.4550  137.9370 N   0  0  0  0  0  0  0  0  0  0  0  0
  188.6080  178.4670  139.2850 C   0  0  1  0  0  3  0  0  0  0  0  0
  186.3210  177.7630  138.4000 N   0  0  0  0  0  2  0  0  0  0  0  0
  191.8400  176.5690  138.9670 C   0  0  0  0  0  3  0  0  0  0  0  0
  189.2010  176.8040  144.3420 C   0  0  0  0  0  3  0  0  0  0  0  0
  189.6460  176.1490  138.0180 C   0  0  0  0  0  0  0  0  0  0  0  0
  190.2020  175.1980  137.1560 C   0  0  0  0  0  3  0  0  0  0  0  0
  187.8550  179.2690  140.3400 C   0  0  0  0  0  2  0  0  0  0  0  0
  188.4970  177.5190  142.0290 C   0  0  0  0  0  0  0  0  0  0  0  0
  188.2670  177.0480  143.4140 C   0  0  0  0  0  3  0  0  0  0  0  0
  183.5100  177.8680  136.5630 F   0  0  0  0  0  0  0  0  0  0  0  0
  183.9090  177.3120  137.7660 C   0  0  2  0  0  3  0  0  0  0  0  0
  182.5050  179.2670  138.5180 C   0  0  0  0  0  1  0  0  0  0  0  0
  183.5360  178.2310  138.9410 C   0  0  1  0  0  3  0  0  0  0  0  0
  183.1200  177.5100  140.2320 C   0  0  0  0  0  0  0  0  0  0  0  0
  184.0840  177.6640  141.2140 F   0  0  0  0  0  0  0  0  0  0  0  0
  181.9170  178.0090  140.6950 F   0  0  0  0  0  0  0  0  0  0  0  0
  182.9640  176.1620  139.9710 F   0  0  0  0  0  0  0  0  0  0  0  0
  1 11  1  0  0  0  0
  1 17  1  0  0  0  0
  2  7  1  6  0  0  0
  2  3  1  0  0  0  0
  3  9  1  0  0  0  0
  3 22  2  0  0  0  0
  4  5  2  0  0  0  0
  5 25  1  0  0  0  0
  5 16  1  0  0  0  0
  6 13  2  0  0  0  0
  7 17  2  0  0  0  0
  8  1  2  0  0  0  0
  9  6  1  0  0  0  0
 10 15  1  0  0  0  0
 12 22  1  0  0  0  0
 13 18  1  0  0  0  0
 14 19  1  0  0  0  0
 14 10  2  0  0  0  0
 15  2  1  0  0  0  0
 15 21  1  1  0  0  0
 16 10  1  0  0  0  0
 19  7  1  0  0  0  0
 20  8  1  0  0  0  0
 20 19  2  0  0  0  0
 21 12  1  0  0  0  0
 22 23  1  0  0  0  0
 23 18  2  0  0  0  0
 25 24  1  6  0  0  0
 25 27  1  0  0  0  0
 27 26  1  6  0  0  0
 27 28  1  0  0  0  0
 28 30  1  0  0  0  0
 28 29  1  0  0  0  0
 31 28  1  0  0  0  0
M  END
>  <MODEL>
8

>  <REMARK>
 VINA RESULT:      -7.0      4.612      7.177
  Name = 
  3 active torsions:
  status: ('A' for Active; 'I' for Inactive)
    1  A    between atoms: C_1  and  C_19
    2  A    between atoms: C_9  and  C_22
    3  A    between atoms: C_19  and  C_22
                            x       y       z     vdW  Elec       q    Type
                         _______ _______ _______ _____ _____    ______ ____

>  <TORSDO>
F 3

$$$$
=
 OpenBabel10272400153D

 31 34  0  0  1  0  0  0  0  0999 V2000
  193.2190  174.9400  137.7190 C   0  0  0  0  0  0  0  0  0  0  0  0
  190.4450  177.3530  138.7120 C   0  0  1  0  0  3  0  0  0  0  0  0
  190.1910  177.1920  140.2110 C   0  0  0  0  0  0  0  0  0  0  0  0
  186.5630  174.2590  136.7640 O   0  0  0  0  0  0  0  0  0  0  0  0
  186.1080  175.4160  136.9710 C   0  0  0  0  0  0  0  0  0  0  0  0
  191.9000  177.4990  141.9810 C   0  0  0  0  0  3  0  0  0  0  0  0
  191.1730  176.1780  138.1130 C   0  0  0  0  0  0  0  0  0  0  0  0
  192.4850  173.9160  137.1140 C   0  0  0  0  0  3  0  0  0  0  0  0
  191.2580  176.5380  141.0390 C   0  0  0  0  0  2  0  0  0  0  0  0
  188.3940  176.4110  137.5340 C   0  0  0  0  0  0  0  0  0  0  0  0
  194.9580  174.8040  137.8610 Cl  0  0  0  0  0  0  0  0  0  0  0  0
  187.9100  178.1770  139.9850 C   0  0  0  0  0  2  0  0  0  0  0  0
  191.2270  178.0630  142.9810 C   0  0  0  0  0  3  0  0  0  0  0  0
  189.0240  175.2910  137.3150 N   0  0  0  0  0  0  0  0  0  0  0  0
  189.1730  177.6650  137.8960 C   0  0  1  0  0  3  0  0  0  0  0  0
  186.9780  176.5000  137.3180 N   0  0  0  0  0  2  0  0  0  0  0  0
  192.5640  176.0690  138.2210 C   0  0  0  0  0  3  0  0  0  0  0  0
  189.7840  177.8760  143.2130 C   0  0  0  0  0  3  0  0  0  0  0  0
  190.4390  175.1570  137.4870 C   0  0  0  0  0  0  0  0  0  0  0  0
  191.0960  174.0240  136.9950 C   0  0  0  0  0  3  0  0  0  0  0  0
  188.3280  178.7060  138.6210 C   0  0  0  0  0  2  0  0  0  0  0  0
  189.0780  177.6970  140.8000 C   0  0  0  0  0  0  0  0  0  0  0  0
  188.8560  177.7050  142.2640 C   0  0  0  0  0  3  0  0  0  0  0  0
  184.0640  174.8750  135.8910 F   0  0  0  0  0  0  0  0  0  0  0  0
  184.6300  175.6470  136.8910 C   0  0  2  0  0  3  0  0  0  0  0  0
  183.1640  177.2890  135.6630 C   0  0  0  0  0  1  0  0  0  0  0  0
  184.2420  177.1240  136.7240 C   0  0  1  0  0  3  0  0  0  0  0  0
  183.8780  177.8590  138.0220 C   0  0  0  0  0  0  0  0  0  0  0  0
  184.8800  178.7440  138.3840 F   0  0  0  0  0  0  0  0  0  0  0  0
  182.6930  178.5550  137.8650 F   0  0  0  0  0  0  0  0  0  0  0  0
  183.7120  176.9360  139.0370 F   0  0  0  0  0  0  0  0  0  0  0  0
  1 11  1  0  0  0  0
  1 17  1  0  0  0  0
  2  7  1  6  0  0  0
  2  3  1  0  0  0  0
  3 22  2  0  0  0  0
  3  9  1  0  0  0  0
  4  5  2  0  0  0  0
  5 16  1  0  0  0  0
  6 13  2  0  0  0  0
  7 17  2  0  0  0  0
  8  1  2  0  0  0  0
  9  6  1  0  0  0  0
 10 15  1  0  0  0  0
 12 22  1  0  0  0  0
 13 18  1  0  0  0  0
 14 19  1  0  0  0  0
 14 10  2  0  0  0  0
 15 21  1  1  0  0  0
 15  2  1  0  0  0  0
 16 10  1  0  0  0  0
 19  7  1  0  0  0  0
 20  8  1  0  0  0  0
 20 19  2  0  0  0  0
 21 12  1  0  0  0  0
 22 23  1  0  0  0  0
 23 18  2  0  0  0  0
 25 24  1  6  0  0  0
 25  5  1  0  0  0  0
 27 26  1  6  0  0  0
 27 25  1  0  0  0  0
 27 28  1  0  0  0  0
 28 29  1  0  0  0  0
 28 31  1  0  0  0  0
 30 28  1  0  0  0  0
M  END
>  <MODEL>
9

>  <REMARK>
 VINA RESULT:      -6.9      4.860      7.524
  Name = 
  3 active torsions:
  status: ('A' for Active; 'I' for Inactive)
    1  A    between atoms: C_1  and  C_19
    2  A    between atoms: C_9  and  C_22
    3  A    between atoms: C_19  and  C_22
                            x       y       z     vdW  Elec       q    Type
                         _______ _______ _______ _____ _____    ______ ____

>  <TORSDO>
F 3

$$$$
