=
 OpenBabel10272401523D

 28 32  0  0  1  0  0  0  0  0999 V2000
  190.3270  176.3650  144.0120 C   0  0  0  0  0  0  0  0  0  0  0  0
  185.3820  177.8130  143.0800 C   0  0  0  0  0  3  0  0  0  0  0  0
  188.5200  177.6650  148.2730 O   0  0  0  0  0  0  0  0  0  0  0  0
  184.6900  178.7640  145.2050 C   0  0  0  0  0  0  0  0  0  0  0  0
  186.8640  177.6570  145.0300 C   0  0  0  0  0  0  0  0  0  0  0  0
  183.2370  178.9190  143.2730 C   0  0  0  0  0  0  0  0  0  0  0  0
  185.6540  178.0730  144.4320 C   0  0  0  0  0  0  0  0  0  0  0  0
  186.1200  178.6090  147.1460 C   0  0  0  0  0  3  0  0  0  0  0  0
  183.4910  179.1830  144.6220 C   0  0  0  0  0  3  0  0  0  0  0  0
  189.4620  177.0330  146.1880 C   0  0  0  0  0  0  0  0  0  0  0  0
  187.8560  176.8410  144.2330 C   0  0  0  0  0  2  0  0  0  0  0  0
  184.9280  179.0240  146.5540 C   0  0  0  0  0  3  0  0  0  0  0  0
  191.7950  176.4190  145.9420 C   0  0  0  0  0  3  0  0  0  0  0  0
  188.3610  177.5350  147.0280 C   0  0  0  0  0  0  0  0  0  0  0  0
  190.7360  176.8500  146.7390 C   0  0  0  0  0  3  0  0  0  0  0  0
  182.0740  179.3270  142.7120 F   0  0  0  0  0  0  0  0  0  0  0  0
  184.1800  178.2340  142.5040 C   0  0  0  0  0  3  0  0  0  0  0  0
  187.0880  177.9270  146.3970 C   0  0  0  0  0  0  0  0  0  0  0  0
  191.5900  176.1790  144.5840 C   0  0  0  0  0  3  0  0  0  0  0  0
  189.2470  176.7810  144.8170 C   0  0  0  0  0  0  0  0  0  0  0  0
  190.1510  176.1020  142.5460 C   0  0  0  0  0  2  0  0  0  0  0  0
  190.5470  177.5530  141.5300 S   0  0  2  0  0  0  0  0  0  0  0  0
  190.3480  178.7380  142.4690 O   0  0  0  0  0  0  0  0  0  0  0  0
  189.1810  176.7050  139.1710 C   0  0  1  0  0  3  0  0  0  0  0  0
  187.8780  178.1610  140.7240 C   0  0  0  0  0  1  0  0  0  0  0  0
  189.2400  177.6840  140.2670 C   0  0  1  0  0  0  0  0  0  0  0  0
  189.7730  178.3830  138.6560 S   0  0  0  0  0  0  0  0  0  0  0  0
  190.2590  175.8180  139.1910 O   0  0  0  0  0  1  0  0  0  0  0  0
  1 19  2  0  0  0  0
  1 20  1  0  0  0  0
  2  7  1  0  0  0  0
  4 12  1  0  0  0  0
  5 18  2  0  0  0  0
  6  9  2  0  0  0  0
  7  5  1  0  0  0  0
  7  4  2  0  0  0  0
  9  4  1  0  0  0  0
 10 15  1  0  0  0  0
 10 14  1  0  0  0  0
 11 20  1  0  0  0  0
 11  5  1  0  0  0  0
 12  8  2  0  0  0  0
 13 15  2  0  0  0  0
 14  3  2  0  0  0  0
 16  6  1  0  0  0  0
 17  2  2  0  0  0  0
 17  6  1  0  0  0  0
 18 14  1  0  0  0  0
 18  8  1  0  0  0  0
 19 13  1  0  0  0  0
 20 10  2  0  0  0  0
 21  1  1  0  0  0  0
 22 23  2  1  0  0  0
 22 21  1  0  0  0  0
 24 28  1  1  0  0  0
 24 26  1  0  0  0  0
 26 25  1  1  0  0  0
 26 22  1  0  0  0  0
 27 24  1  0  0  0  0
 27 26  1  0  0  0  0
M  END
>  <MODEL>
1

>  <REMARK>
 VINA RESULT:     -11.0      0.000      0.000
  Name = 
  3 active torsions:
  status: ('A' for Active; 'I' for Inactive)
    1  A    between atoms: C_1  and  C_2
    2  A    between atoms: C_2  and  S_3
    3  A    between atoms: S_3  and  C_11
                            x       y       z     vdW  Elec       q    Type
                         _______ _______ _______ _____ _____    ______ ____

>  <TORSDO>
F 3

$$$$
=
 OpenBabel10272401523D

 28 32  0  0  1  0  0  0  0  0999 V2000
  190.0590  176.4520  143.2670 C   0  0  0  0  0  0  0  0  0  0  0  0
  185.0340  177.8930  142.9670 C   0  0  0  0  0  3  0  0  0  0  0  0
  188.7730  177.6490  147.7420 O   0  0  0  0  0  0  0  0  0  0  0  0
  184.5990  178.7940  145.1800 C   0  0  0  0  0  0  0  0  0  0  0  0
  186.7400  177.7020  144.7220 C   0  0  0  0  0  0  0  0  0  0  0  0
  182.9250  178.9830  143.4410 C   0  0  0  0  0  0  0  0  0  0  0  0
  185.4660  178.1250  144.2830 C   0  0  0  0  0  0  0  0  0  0  0  0
  186.2530  178.6040  146.9320 C   0  0  0  0  0  3  0  0  0  0  0  0
  183.3390  179.2180  144.7540 C   0  0  0  0  0  3  0  0  0  0  0  0
  189.4600  177.0670  145.5460 C   0  0  0  0  0  0  0  0  0  0  0  0
  187.6320  176.9100  143.7940 C   0  0  0  0  0  2  0  0  0  0  0  0
  184.9970  179.0250  146.4970 C   0  0  0  0  0  3  0  0  0  0  0  0
  191.7490  176.4710  145.0080 C   0  0  0  0  0  3  0  0  0  0  0  0
  188.4660  177.5450  146.5220 C   0  0  0  0  0  0  0  0  0  0  0  0
  190.7920  176.8800  145.9360 C   0  0  0  0  0  3  0  0  0  0  0  0
  181.7020  179.3970  143.0320 F   0  0  0  0  0  0  0  0  0  0  0  0
  183.7710  178.3200  142.5490 C   0  0  0  0  0  3  0  0  0  0  0  0
  187.1260  177.9440  146.0570 C   0  0  0  0  0  0  0  0  0  0  0  0
  191.3830  176.2600  143.6790 C   0  0  0  0  0  3  0  0  0  0  0  0
  189.0820  176.8450  144.2050 C   0  0  0  0  0  0  0  0  0  0  0  0
  189.7100  176.2200  141.8270 C   0  0  0  0  0  2  0  0  0  0  0  0
  189.7360  177.7510  140.8530 S   0  0  2  0  0  0  0  0  0  0  0  0
  188.3170  178.2980  140.9690 O   0  0  0  0  0  0  0  0  0  0  0  0
  189.6110  178.2140  138.0390 C   0  0  1  0  0  3  0  0  0  0  0  0
  191.1280  176.3740  138.7780 C   0  0  0  0  0  1  0  0  0  0  0  0
  189.9500  177.2640  139.1100 C   0  0  1  0  0  0  0  0  0  0  0  0
  188.4050  176.8200  138.2250 S   0  0  0  0  0  0  0  0  0  0  0  0
  189.0420  179.3900  138.5300 O   0  0  0  0  0  1  0  0  0  0  0  0
  1 19  2  0  0  0  0
  1 20  1  0  0  0  0
  2  7  1  0  0  0  0
  4 12  1  0  0  0  0
  5 18  2  0  0  0  0
  6  9  2  0  0  0  0
  7  5  1  0  0  0  0
  7  4  2  0  0  0  0
  9  4  1  0  0  0  0
 10 15  1  0  0  0  0
 10 14  1  0  0  0  0
 11 20  1  0  0  0  0
 11  5  1  0  0  0  0
 12  8  2  0  0  0  0
 13 15  2  0  0  0  0
 14  3  2  0  0  0  0
 16  6  1  0  0  0  0
 17  2  2  0  0  0  0
 17  6  1  0  0  0  0
 18 14  1  0  0  0  0
 18  8  1  0  0  0  0
 19 13  1  0  0  0  0
 20 10  2  0  0  0  0
 21  1  1  0  0  0  0
 22 23  2  6  0  0  0
 22 21  1  0  0  0  0
 24 27  1  0  0  0  0
 24 28  1  1  0  0  0
 24 26  1  0  0  0  0
 26 25  1  6  0  0  0
 26 22  1  0  0  0  0
 27 26  1  0  0  0  0
M  END
>  <MODEL>
2

>  <REMARK>
 VINA RESULT:     -10.9      1.222      1.424
  Name = 
  3 active torsions:
  status: ('A' for Active; 'I' for Inactive)
    1  A    between atoms: C_1  and  C_2
    2  A    between atoms: C_2  and  S_3
    3  A    between atoms: S_3  and  C_11
                            x       y       z     vdW  Elec       q    Type
                         _______ _______ _______ _____ _____    ______ ____

>  <TORSDO>
F 3

$$$$
=
 OpenBabel10272401523D

 28 32  0  0  1  0  0  0  0  0999 V2000
  189.8840  177.4530  142.1700 C   0  0  0  0  0  0  0  0  0  0  0  0
  184.7530  178.3870  142.6370 C   0  0  0  0  0  3  0  0  0  0  0  0
  188.9210  177.1390  146.8690 O   0  0  0  0  0  0  0  0  0  0  0  0
  184.4520  178.5460  145.0420 C   0  0  0  0  0  0  0  0  0  0  0  0
  186.6220  177.8670  144.1410 C   0  0  0  0  0  0  0  0  0  0  0  0
  182.6160  179.0640  143.5510 C   0  0  0  0  0  0  0  0  0  0  0  0
  185.2840  178.2650  143.9320 C   0  0  0  0  0  0  0  0  0  0  0  0
  186.2680  178.0220  146.5470 C   0  0  0  0  0  3  0  0  0  0  0  0
  183.1270  178.9430  144.8450 C   0  0  0  0  0  3  0  0  0  0  0  0
  189.4480  177.3040  144.5610 C   0  0  0  0  0  0  0  0  0  0  0  0
  187.4860  177.4800  142.9630 C   0  0  0  0  0  2  0  0  0  0  0  0
  184.9490  178.4190  146.3400 C   0  0  0  0  0  3  0  0  0  0  0  0
  191.7190  177.1350  143.7250 C   0  0  0  0  0  3  0  0  0  0  0  0
  188.5130  177.3670  145.6970 C   0  0  0  0  0  0  0  0  0  0  0  0
  190.8210  177.1500  144.7920 C   0  0  0  0  0  3  0  0  0  0  0  0
  181.3310  179.4500  143.3640 F   0  0  0  0  0  0  0  0  0  0  0  0
  183.4270  178.7850  142.4490 C   0  0  0  0  0  3  0  0  0  0  0  0
  187.1080  177.7430  145.4600 C   0  0  0  0  0  0  0  0  0  0  0  0
  191.2510  177.2880  142.4200 C   0  0  0  0  0  3  0  0  0  0  0  0
  188.9690  177.4480  143.2430 C   0  0  0  0  0  0  0  0  0  0  0  0
  189.4240  177.6200  140.7520 C   0  0  0  0  0  2  0  0  0  0  0  0
  190.3200  176.5390  139.6020 S   0  0  2  0  0  0  0  0  0  0  0  0
  191.5580  177.3420  139.2150 O   0  0  0  0  0  0  0  0  0  0  0  0
  189.3650  175.2030  137.2670 C   0  0  1  0  0  3  0  0  0  0  0  0
  187.9330  177.0580  138.1270 C   0  0  0  0  0  1  0  0  0  0  0  0
  189.3040  176.4180  138.0930 C   0  0  1  0  0  0  0  0  0  0  0  0
  190.2080  176.6730  136.5170 S   0  0  0  0  0  0  0  0  0  0  0  0
  190.3260  174.2970  137.7210 O   0  0  0  0  0  1  0  0  0  0  0  0
  1 19  2  0  0  0  0
  1 20  1  0  0  0  0
  2  7  1  0  0  0  0
  4 12  1  0  0  0  0
  5 18  2  0  0  0  0
  6  9  2  0  0  0  0
  7  5  1  0  0  0  0
  7  4  2  0  0  0  0
  9  4  1  0  0  0  0
 10 15  1  0  0  0  0
 10 14  1  0  0  0  0
 11 20  1  0  0  0  0
 11  5  1  0  0  0  0
 12  8  2  0  0  0  0
 13 15  2  0  0  0  0
 14  3  2  0  0  0  0
 16  6  1  0  0  0  0
 17  2  2  0  0  0  0
 17  6  1  0  0  0  0
 18 14  1  0  0  0  0
 18  8  1  0  0  0  0
 19 13  1  0  0  0  0
 20 10  2  0  0  0  0
 21  1  1  0  0  0  0
 22 23  2  6  0  0  0
 22 21  1  0  0  0  0
 24 28  1  1  0  0  0
 24 26  1  0  0  0  0
 26 25  1  1  0  0  0
 26 22  1  0  0  0  0
 27 24  1  0  0  0  0
 27 26  1  0  0  0  0
M  END
>  <MODEL>
3

>  <REMARK>
 VINA RESULT:     -10.6      1.428      1.856
  Name = 
  3 active torsions:
  status: ('A' for Active; 'I' for Inactive)
    1  A    between atoms: C_1  and  C_2
    2  A    between atoms: C_2  and  S_3
    3  A    between atoms: S_3  and  C_11
                            x       y       z     vdW  Elec       q    Type
                         _______ _______ _______ _____ _____    ______ ____

>  <TORSDO>
F 3

$$$$
=
 OpenBabel10272401523D

 28 32  0  0  1  0  0  0  0  0999 V2000
  183.9680  178.4090  142.5190 C   0  0  0  0  0  0  0  0  0  0  0  0
  188.9530  176.8490  142.8930 C   0  0  0  0  0  3  0  0  0  0  0  0
  185.2340  179.1620  147.0960 O   0  0  0  0  0  0  0  0  0  0  0  0
  189.3690  176.9460  145.2850 C   0  0  0  0  0  0  0  0  0  0  0  0
  187.2580  177.7990  144.3930 C   0  0  0  0  0  0  0  0  0  0  0  0
  191.0340  176.0040  143.7990 C   0  0  0  0  0  0  0  0  0  0  0  0
  188.5180  177.2000  144.1820 C   0  0  0  0  0  0  0  0  0  0  0  0
  187.7260  177.8930  146.7820 C   0  0  0  0  0  3  0  0  0  0  0  0
  190.6170  176.3510  145.0870 C   0  0  0  0  0  3  0  0  0  0  0  0
  184.5570  178.7880  144.8520 C   0  0  0  0  0  0  0  0  0  0  0  0
  186.3840  178.1520  143.2110 C   0  0  0  0  0  2  0  0  0  0  0  0
  188.9690  177.2970  146.5740 C   0  0  0  0  0  3  0  0  0  0  0  0
  182.2840  179.1620  144.0940 C   0  0  0  0  0  3  0  0  0  0  0  0
  185.5400  178.7380  145.9480 C   0  0  0  0  0  0  0  0  0  0  0  0
  183.2320  179.1550  145.1160 C   0  0  0  0  0  3  0  0  0  0  0  0
  192.2440  175.4270  143.6110 F   0  0  0  0  0  0  0  0  0  0  0  0
  190.2030  176.2540  142.7040 C   0  0  0  0  0  3  0  0  0  0  0  0
  186.8680  178.1480  145.7040 C   0  0  0  0  0  0  0  0  0  0  0  0
  182.6510  178.7880  142.8020 C   0  0  0  0  0  3  0  0  0  0  0  0
  184.9370  178.4200  143.5450 C   0  0  0  0  0  0  0  0  0  0  0  0
  184.3200  178.0080  141.1180 C   0  0  0  0  0  2  0  0  0  0  0  0
  182.8570  177.5840  140.1310 S   0  0  2  0  0  0  0  0  0  0  0  0
  183.3570  176.5320  139.1460 O   0  0  0  0  0  0  0  0  0  0  0  0
  181.1340  179.6980  139.2900 C   0  0  1  0  0  3  0  0  0  0  0  0
  183.5680  180.0300  138.8460 C   0  0  0  0  0  1  0  0  0  0  0  0
  182.4470  179.0550  139.1360 C   0  0  1  0  0  0  0  0  0  0  0  0
  181.3330  178.7510  137.7100 S   0  0  0  0  0  0  0  0  0  0  0  0
  180.2920  178.9930  140.1520 O   0  0  0  0  0  1  0  0  0  0  0  0
  1 19  2  0  0  0  0
  1 20  1  0  0  0  0
  2  7  1  0  0  0  0
  4 12  1  0  0  0  0
  5 18  2  0  0  0  0
  6  9  2  0  0  0  0
  7  5  1  0  0  0  0
  7  4  2  0  0  0  0
  9  4  1  0  0  0  0
 10 15  1  0  0  0  0
 10 14  1  0  0  0  0
 11 20  1  0  0  0  0
 11  5  1  0  0  0  0
 12  8  2  0  0  0  0
 13 15  2  0  0  0  0
 14  3  2  0  0  0  0
 16  6  1  0  0  0  0
 17  2  2  0  0  0  0
 17  6  1  0  0  0  0
 18 14  1  0  0  0  0
 18  8  1  0  0  0  0
 19 13  1  0  0  0  0
 20 10  2  0  0  0  0
 21  1  1  0  0  0  0
 22 23  2  6  0  0  0
 22 21  1  0  0  0  0
 24 28  1  1  0  0  0
 26 25  1  6  0  0  0
 26 24  1  0  0  0  0
 26 22  1  0  0  0  0
 27 26  1  0  0  0  0
 27 24  1  0  0  0  0
M  END
>  <MODEL>
4

>  <REMARK>
 VINA RESULT:     -10.1      4.136      6.657
  Name = 
  3 active torsions:
  status: ('A' for Active; 'I' for Inactive)
    1  A    between atoms: C_1  and  C_2
    2  A    between atoms: C_2  and  S_3
    3  A    between atoms: S_3  and  C_11
                            x       y       z     vdW  Elec       q    Type
                         _______ _______ _______ _____ _____    ______ ____

>  <TORSDO>
F 3

$$$$
=
 OpenBabel10272401523D

 28 32  0  0  1  0  0  0  0  0999 V2000
  189.6890  177.6650  140.5050 C   0  0  0  0  0  0  0  0  0  0  0  0
  185.3130  178.3170  143.3060 C   0  0  0  0  0  3  0  0  0  0  0  0
  190.9080  176.7580  145.0660 O   0  0  0  0  0  0  0  0  0  0  0  0
  186.1130  178.1780  145.5950 C   0  0  0  0  0  0  0  0  0  0  0  0
  187.6470  177.7030  143.7500 C   0  0  0  0  0  0  0  0  0  0  0  0
  183.8130  178.7890  145.1470 C   0  0  0  0  0  0  0  0  0  0  0  0
  186.3610  178.0660  144.2060 C   0  0  0  0  0  0  0  0  0  0  0  0
  188.4010  177.5590  146.0630 C   0  0  0  0  0  3  0  0  0  0  0  0
  184.8440  178.5390  146.0550 C   0  0  0  0  0  3  0  0  0  0  0  0
  190.3580  177.2170  142.8040 C   0  0  0  0  0  0  0  0  0  0  0  0
  187.8930  177.4960  142.2730 C   0  0  0  0  0  2  0  0  0  0  0  0
  187.1320  177.9210  146.5120 C   0  0  0  0  0  3  0  0  0  0  0  0
  192.0190  177.2450  141.0360 C   0  0  0  0  0  3  0  0  0  0  0  0
  190.0260  177.1060  144.2340 C   0  0  0  0  0  0  0  0  0  0  0  0
  191.6880  177.0960  142.3820 C   0  0  0  0  0  3  0  0  0  0  0  0
  182.5840  179.1390  145.5970 F   0  0  0  0  0  0  0  0  0  0  0  0
  184.0460  178.6770  143.7740 C   0  0  0  0  0  3  0  0  0  0  0  0
  188.6670  177.4460  144.6920 C   0  0  0  0  0  0  0  0  0  0  0  0
  191.0220  177.5300  140.1030 C   0  0  0  0  0  3  0  0  0  0  0  0
  189.3450  177.4950  141.8620 C   0  0  0  0  0  0  0  0  0  0  0  0
  188.6490  177.9780  139.4710 C   0  0  0  0  0  2  0  0  0  0  0  0
  189.3560  178.1410  137.8070 S   0  0  2  0  0  0  0  0  0  0  0  0
  188.9320  179.5330  137.3500 O   0  0  0  0  0  0  0  0  0  0  0  0
  188.8430  175.5440  136.7400 C   0  0  1  0  0  3  0  0  0  0  0  0
  186.9820  177.1950  136.5380 C   0  0  0  0  0  1  0  0  0  0  0  0
  188.4650  176.9650  136.7380 C   0  0  1  0  0  0  0  0  0  0  0  0
  189.3540  176.4610  135.2140 S   0  0  0  0  0  0  0  0  0  0  0  0
  189.9670  175.2930  137.5290 O   0  0  0  0  0  1  0  0  0  0  0  0
  1 20  1  0  0  0  0
  2 17  2  0  0  0  0
  2  7  1  0  0  0  0
  4  9  1  0  0  0  0
  4 12  1  0  0  0  0
  5  7  1  0  0  0  0
  5 18  2  0  0  0  0
  6 16  1  0  0  0  0
  6  9  2  0  0  0  0
  7  4  2  0  0  0  0
  8 12  2  0  0  0  0
 10 14  1  0  0  0  0
 11  5  1  0  0  0  0
 13 15  2  0  0  0  0
 14 18  1  0  0  0  0
 14  3  2  0  0  0  0
 15 10  1  0  0  0  0
 17  6  1  0  0  0  0
 18  8  1  0  0  0  0
 19  1  2  0  0  0  0
 19 13  1  0  0  0  0
 20 11  1  0  0  0  0
 20 10  2  0  0  0  0
 21  1  1  0  0  0  0
 22 23  2  6  0  0  0
 22 21  1  0  0  0  0
 24 28  1  1  0  0  0
 26 25  1  6  0  0  0
 26 24  1  0  0  0  0
 26 22  1  0  0  0  0
 27 26  1  0  0  0  0
 27 24  1  0  0  0  0
M  END
>  <MODEL>
5

>  <REMARK>
 VINA RESULT:     -10.1      2.013      3.256
  Name = 
  3 active torsions:
  status: ('A' for Active; 'I' for Inactive)
    1  A    between atoms: C_1  and  C_2
    2  A    between atoms: C_2  and  S_3
    3  A    between atoms: S_3  and  C_11
                            x       y       z     vdW  Elec       q    Type
                         _______ _______ _______ _____ _____    ______ ____

>  <TORSDO>
F 3

$$$$
=
 OpenBabel10272401523D

 28 32  0  0  1  0  0  0  0  0999 V2000
  183.6610  178.1920  141.6540 C   0  0  0  0  0  0  0  0  0  0  0  0
  188.6480  176.8510  142.5210 C   0  0  0  0  0  3  0  0  0  0  0  0
  184.5090  179.2260  146.2720 O   0  0  0  0  0  0  0  0  0  0  0  0
  188.8570  177.0860  144.9300 C   0  0  0  0  0  0  0  0  0  0  0  0
  186.8000  177.8090  143.8220 C   0  0  0  0  0  0  0  0  0  0  0  0
  190.6730  176.1370  143.6390 C   0  0  0  0  0  0  0  0  0  0  0  0
  188.0940  177.2500  143.7490 C   0  0  0  0  0  0  0  0  0  0  0  0
  187.0620  178.0420  146.2330 C   0  0  0  0  0  3  0  0  0  0  0  0
  190.1380  176.5320  144.8680 C   0  0  0  0  0  3  0  0  0  0  0  0
  184.0370  178.7120  144.0040 C   0  0  0  0  0  0  0  0  0  0  0  0
  186.0170  178.0660  142.5550 C   0  0  0  0  0  2  0  0  0  0  0  0
  188.3380  177.4860  146.1610 C   0  0  0  0  0  3  0  0  0  0  0  0
  181.8240  178.9570  143.0420 C   0  0  0  0  0  3  0  0  0  0  0  0
  184.9250  178.7570  145.1770 C   0  0  0  0  0  0  0  0  0  0  0  0
  182.6820  179.0400  144.1380 C   0  0  0  0  0  3  0  0  0  0  0  0
  191.9150  175.5990  143.5830 F   0  0  0  0  0  0  0  0  0  0  0  0
  189.9290  176.2980  142.4680 C   0  0  0  0  0  3  0  0  0  0  0  0
  186.2890  178.2080  145.0760 C   0  0  0  0  0  0  0  0  0  0  0  0
  182.3120  178.5330  141.8060 C   0  0  0  0  0  3  0  0  0  0  0  0
  184.5380  178.2930  142.7540 C   0  0  0  0  0  0  0  0  0  0  0  0
  184.1430  177.7350  140.3100 C   0  0  0  0  0  2  0  0  0  0  0  0
  185.3550  178.8750  139.5850 S   0  0  2  0  0  0  0  0  0  0  0  0
  184.5150  180.0290  139.0500 O   0  0  0  0  0  0  0  0  0  0  0  0
  187.4530  177.5770  138.1480 C   0  0  1  0  0  3  0  0  0  0  0  0
  185.1350  177.1400  137.3310 C   0  0  0  0  0  1  0  0  0  0  0  0
  186.0570  178.0400  138.1250 C   0  0  1  0  0  0  0  0  0  0  0  0
  187.1670  179.0710  137.0910 S   0  0  0  0  0  0  0  0  0  0  0  0
  188.1200  177.9540  139.3150 O   0  0  0  0  0  1  0  0  0  0  0  0
  1 19  2  0  0  0  0
  1 20  1  0  0  0  0
  2  7  1  0  0  0  0
  4 12  1  0  0  0  0
  5 18  2  0  0  0  0
  6  9  2  0  0  0  0
  7  5  1  0  0  0  0
  7  4  2  0  0  0  0
  9  4  1  0  0  0  0
 10 15  1  0  0  0  0
 10 14  1  0  0  0  0
 11 20  1  0  0  0  0
 11  5  1  0  0  0  0
 12  8  2  0  0  0  0
 13 15  2  0  0  0  0
 14  3  2  0  0  0  0
 16  6  1  0  0  0  0
 17  2  2  0  0  0  0
 17  6  1  0  0  0  0
 18 14  1  0  0  0  0
 18  8  1  0  0  0  0
 19 13  1  0  0  0  0
 20 10  2  0  0  0  0
 21  1  1  0  0  0  0
 22 23  2  6  0  0  0
 22 21  1  0  0  0  0
 24 28  1  1  0  0  0
 26 25  1  6  0  0  0
 26 24  1  0  0  0  0
 26 22  1  0  0  0  0
 27 26  1  0  0  0  0
 27 24  1  0  0  0  0
M  END
>  <MODEL>
6

>  <REMARK>
 VINA RESULT:      -9.9      3.148      5.857
  Name = 
  3 active torsions:
  status: ('A' for Active; 'I' for Inactive)
    1  A    between atoms: C_1  and  C_2
    2  A    between atoms: C_2  and  S_3
    3  A    between atoms: S_3  and  C_11
                            x       y       z     vdW  Elec       q    Type
                         _______ _______ _______ _____ _____    ______ ____

>  <TORSDO>
F 3

$$$$
=
 OpenBabel10272401523D

 28 32  0  0  1  0  0  0  0  0999 V2000
  183.9130  178.4190  142.0860 C   0  0  0  0  0  0  0  0  0  0  0  0
  188.8970  176.9720  142.7820 C   0  0  0  0  0  3  0  0  0  0  0  0
  184.8520  179.1610  146.7420 O   0  0  0  0  0  0  0  0  0  0  0  0
  189.1510  177.0580  145.1960 C   0  0  0  0  0  0  0  0  0  0  0  0
  187.0830  177.8690  144.1710 C   0  0  0  0  0  0  0  0  0  0  0  0
  190.9320  176.1680  143.8180 C   0  0  0  0  0  0  0  0  0  0  0  0
  188.3690  177.3010  144.0410 C   0  0  0  0  0  0  0  0  0  0  0  0
  187.3890  177.9530  146.5870 C   0  0  0  0  0  3  0  0  0  0  0  0
  190.4230  176.4940  145.0780 C   0  0  0  0  0  3  0  0  0  0  0  0
  184.3360  178.7910  144.4550 C   0  0  0  0  0  0  0  0  0  0  0  0
  186.2830  178.2130  142.9360 C   0  0  0  0  0  2  0  0  0  0  0  0
  188.6570  177.3880  146.4580 C   0  0  0  0  0  3  0  0  0  0  0  0
  182.1090  179.1190  143.5500 C   0  0  0  0  0  3  0  0  0  0  0  0
  185.2440  178.7540  145.6140 C   0  0  0  0  0  0  0  0  0  0  0  0
  182.9870  179.1250  144.6330 C   0  0  0  0  0  3  0  0  0  0  0  0
  192.1660  175.6210  143.7070 F   0  0  0  0  0  0  0  0  0  0  0  0
  190.1710  176.4090  142.6720 C   0  0  0  0  0  3  0  0  0  0  0  0
  186.5990  178.1980  145.4550 C   0  0  0  0  0  0  0  0  0  0  0  0
  182.5720  178.7650  142.2820 C   0  0  0  0  0  3  0  0  0  0  0  0
  184.8100  178.4440  143.1740 C   0  0  0  0  0  0  0  0  0  0  0  0
  184.3670  178.0390  140.7080 C   0  0  0  0  0  2  0  0  0  0  0  0
  182.9820  177.6140  139.6150 S   0  0  2  0  0  0  0  0  0  0  0  0
  182.6060  176.1910  140.0170 O   0  0  0  0  0  0  0  0  0  0  0  0
  182.7670  177.6780  136.7700 C   0  0  1  0  0  3  0  0  0  0  0  0
  185.0550  178.0380  137.7010 C   0  0  0  0  0  1  0  0  0  0  0  0
  183.6580  177.5010  137.9260 C   0  0  1  0  0  0  0  0  0  0  0  0
  183.3110  175.9290  137.0470 S   0  0  0  0  0  0  0  0  0  0  0  0
  181.4290  177.8130  137.1430 O   0  0  0  0  0  1  0  0  0  0  0  0
  1 19  2  0  0  0  0
  1 20  1  0  0  0  0
  2  7  1  0  0  0  0
  4 12  1  0  0  0  0
  5 18  2  0  0  0  0
  6  9  2  0  0  0  0
  7  5  1  0  0  0  0
  7  4  2  0  0  0  0
  9  4  1  0  0  0  0
 10 15  1  0  0  0  0
 10 14  1  0  0  0  0
 11 20  1  0  0  0  0
 11  5  1  0  0  0  0
 12  8  2  0  0  0  0
 13 15  2  0  0  0  0
 14  3  2  0  0  0  0
 16  6  1  0  0  0  0
 17  2  2  0  0  0  0
 17  6  1  0  0  0  0
 18 14  1  0  0  0  0
 18  8  1  0  0  0  0
 19 13  1  0  0  0  0
 20 10  2  0  0  0  0
 21  1  1  0  0  0  0
 22 23  2  1  0  0  0
 22 21  1  0  0  0  0
 24 27  1  0  0  0  0
 24 28  1  1  0  0  0
 24 26  1  0  0  0  0
 26 25  1  6  0  0  0
 26 22  1  0  0  0  0
 27 26  1  0  0  0  0
M  END
>  <MODEL>
7

>  <REMARK>
 VINA RESULT:      -9.9      4.091      6.462
  Name = 
  3 active torsions:
  status: ('A' for Active; 'I' for Inactive)
    1  A    between atoms: C_1  and  C_2
    2  A    between atoms: C_2  and  S_3
    3  A    between atoms: S_3  and  C_11
                            x       y       z     vdW  Elec       q    Type
                         _______ _______ _______ _____ _____    ______ ____

>  <TORSDO>
F 3

$$$$
=
 OpenBabel10272401523D

 28 32  0  0  1  0  0  0  0  0999 V2000
  186.1710  178.0790  142.2420 C   0  0  0  0  0  0  0  0  0  0  0  0
  190.4060  176.9110  145.0920 C   0  0  0  0  0  3  0  0  0  0  0  0
  185.0200  179.1360  146.7890 O   0  0  0  0  0  0  0  0  0  0  0  0
  189.6040  177.1500  147.3720 C   0  0  0  0  0  0  0  0  0  0  0  0
  188.1580  177.8020  145.5100 C   0  0  0  0  0  0  0  0  0  0  0  0
  191.8180  176.2660  146.9500 C   0  0  0  0  0  0  0  0  0  0  0  0
  189.3860  177.2890  145.9800 C   0  0  0  0  0  0  0  0  0  0  0  0
  187.4020  178.0420  147.8140 C   0  0  0  0  0  3  0  0  0  0  0  0
  190.8140  176.6400  147.8470 C   0  0  0  0  0  3  0  0  0  0  0  0
  185.5360  178.6100  144.5330 C   0  0  0  0  0  0  0  0  0  0  0  0
  187.9550  178.0350  144.0300 C   0  0  0  0  0  2  0  0  0  0  0  0
  188.6130  177.5300  148.2770 C   0  0  0  0  0  3  0  0  0  0  0  0
  183.9040  178.7780  142.7470 C   0  0  0  0  0  3  0  0  0  0  0  0
  185.8630  178.6830  145.9670 C   0  0  0  0  0  0  0  0  0  0  0  0
  184.2350  178.8900  144.0960 C   0  0  0  0  0  3  0  0  0  0  0  0
  192.9910  175.7720  147.4140 F   0  0  0  0  0  0  0  0  0  0  0  0
  191.6150  176.4030  145.5750 C   0  0  0  0  0  3  0  0  0  0  0  0
  187.1660  178.1820  146.4400 C   0  0  0  0  0  0  0  0  0  0  0  0
  184.8680  178.3730  141.8250 C   0  0  0  0  0  3  0  0  0  0  0  0
  186.5180  178.2100  143.6030 C   0  0  0  0  0  0  0  0  0  0  0  0
  187.1770  177.6410  141.2200 C   0  0  0  0  0  2  0  0  0  0  0  0
  187.0850  178.6220  139.6950 S   0  0  2  0  0  0  0  0  0  0  0  0
  185.8110  178.1390  139.0100 O   0  0  0  0  0  0  0  0  0  0  0  0
  188.6380  178.6690  137.3000 C   0  0  1  0  0  3  0  0  0  0  0  0
  189.7720  177.7390  139.3190 C   0  0  0  0  0  1  0  0  0  0  0  0
  188.4660  178.0780  138.6350 C   0  0  1  0  0  0  0  0  0  0  0  0
  188.0090  176.9270  137.2820 S   0  0  0  0  0  0  0  0  0  0  0  0
  187.6010  179.5420  136.9650 O   0  0  0  0  0  1  0  0  0  0  0  0
  1 20  1  0  0  0  0
  2 17  2  0  0  0  0
  2  7  1  0  0  0  0
  4  9  1  0  0  0  0
  4 12  1  0  0  0  0
  5  7  1  0  0  0  0
  5 18  2  0  0  0  0
  6 16  1  0  0  0  0
  6  9  2  0  0  0  0
  7  4  2  0  0  0  0
  8 12  2  0  0  0  0
 10 14  1  0  0  0  0
 11  5  1  0  0  0  0
 13 15  2  0  0  0  0
 14 18  1  0  0  0  0
 14  3  2  0  0  0  0
 15 10  1  0  0  0  0
 17  6  1  0  0  0  0
 18  8  1  0  0  0  0
 19  1  2  0  0  0  0
 19 13  1  0  0  0  0
 20 11  1  0  0  0  0
 20 10  2  0  0  0  0
 21  1  1  0  0  0  0
 22 23  2  6  0  0  0
 22 21  1  0  0  0  0
 24 28  1  1  0  0  0
 24 26  1  0  0  0  0
 26 25  1  1  0  0  0
 26 22  1  0  0  0  0
 27 24  1  0  0  0  0
 27 26  1  0  0  0  0
M  END
>  <MODEL>
8

>  <REMARK>
 VINA RESULT:      -9.6      3.171      5.578
  Name = 
  3 active torsions:
  status: ('A' for Active; 'I' for Inactive)
    1  A    between atoms: C_1  and  C_2
    2  A    between atoms: C_2  and  S_3
    3  A    between atoms: S_3  and  C_11
                            x       y       z     vdW  Elec       q    Type
                         _______ _______ _______ _____ _____    ______ ____

>  <TORSDO>
F 3

$$$$
=
 OpenBabel10272401523D

 28 32  0  0  1  0  0  0  0  0999 V2000
  189.0620  177.7060  139.8580 C   0  0  0  0  0  0  0  0  0  0  0  0
  186.1730  178.0010  144.2150 C   0  0  0  0  0  3  0  0  0  0  0  0
  191.9810  176.4110  143.4530 O   0  0  0  0  0  0  0  0  0  0  0  0
  187.8160  177.6710  145.9740 C   0  0  0  0  0  0  0  0  0  0  0  0
  188.4810  177.4010  143.6360 C   0  0  0  0  0  0  0  0  0  0  0  0
  185.5370  178.2690  146.5360 C   0  0  0  0  0  0  0  0  0  0  0  0
  187.4890  177.6910  144.5960 C   0  0  0  0  0  0  0  0  0  0  0  0
  190.0900  177.0620  145.4340 C   0  0  0  0  0  3  0  0  0  0  0  0
  186.8410  177.9590  146.9320 C   0  0  0  0  0  3  0  0  0  0  0  0
  190.5830  177.0640  141.6490 C   0  0  0  0  0  0  0  0  0  0  0  0
  188.1160  177.3360  142.1700 C   0  0  0  0  0  2  0  0  0  0  0  0
  189.1110  177.3530  146.3820 C   0  0  0  0  0  3  0  0  0  0  0  0
  191.4040  177.2900  139.3770 C   0  0  0  0  0  3  0  0  0  0  0  0
  190.8460  176.8140  143.0760 C   0  0  0  0  0  0  0  0  0  0  0  0
  191.6330  177.0110  140.7240 C   0  0  0  0  0  3  0  0  0  0  0  0
  184.5950  178.5480  147.4680 F   0  0  0  0  0  0  0  0  0  0  0  0
  185.2040  178.2880  145.1800 C   0  0  0  0  0  3  0  0  0  0  0  0
  189.7870  177.0810  144.0660 C   0  0  0  0  0  0  0  0  0  0  0  0
  190.1230  177.6380  138.9480 C   0  0  0  0  0  3  0  0  0  0  0  0
  189.2840  177.4040  141.2180 C   0  0  0  0  0  0  0  0  0  0  0  0
  187.7020  178.0900  139.3560 C   0  0  0  0  0  2  0  0  0  0  0  0
  187.5290  177.8400  137.5660 S   0  0  2  0  0  0  0  0  0  0  0  0
  187.5950  179.2470  136.9810 O   0  0  0  0  0  0  0  0  0  0  0  0
  185.5850  175.8240  137.0160 C   0  0  1  0  0  3  0  0  0  0  0  0
  184.7210  177.9200  138.0630 C   0  0  0  0  0  1  0  0  0  0  0  0
  185.8290  177.2510  137.2780 C   0  0  1  0  0  0  0  0  0  0  0  0
  185.4040  176.9110  135.5260 S   0  0  0  0  0  0  0  0  0  0  0  0
  186.7680  175.0900  136.9150 O   0  0  0  0  0  1  0  0  0  0  0  0
  1 20  1  0  0  0  0
  2  7  2  0  0  0  0
  2 17  1  0  0  0  0
  4 12  1  0  0  0  0
  4  9  2  0  0  0  0
  5 18  2  0  0  0  0
  5  7  1  0  0  0  0
  6  9  1  0  0  0  0
  6 16  1  0  0  0  0
  7  4  1  0  0  0  0
  8 12  2  0  0  0  0
 10 14  1  0  0  0  0
 11  5  1  0  0  0  0
 13 15  2  0  0  0  0
 14  3  2  0  0  0  0
 14 18  1  0  0  0  0
 15 10  1  0  0  0  0
 17  6  2  0  0  0  0
 18  8  1  0  0  0  0
 19 13  1  0  0  0  0
 19  1  2  0  0  0  0
 20 10  2  0  0  0  0
 20 11  1  0  0  0  0
 21  1  1  0  0  0  0
 22 23  2  6  0  0  0
 22 21  1  0  0  0  0
 24 28  1  6  0  0  0
 24 26  1  0  0  0  0
 26 22  1  0  0  0  0
 26 25  1  1  0  0  0
 27 24  1  0  0  0  0
 27 26  1  0  0  0  0
M  END
>  <MODEL>
9

>  <REMARK>
 VINA RESULT:      -9.6      2.656      4.526
  Name = 
  3 active torsions:
  status: ('A' for Active; 'I' for Inactive)
    1  A    between atoms: C_1  and  C_2
    2  A    between atoms: C_2  and  S_3
    3  A    between atoms: S_3  and  C_11
                            x       y       z     vdW  Elec       q    Type
                         _______ _______ _______ _____ _____    ______ ____

>  <TORSDO>
F 3

$$$$
