=
 OpenBabel10272415193D

 34 39  0  0  1  0  0  0  0  0999 V2000
  184.8350  178.8120  138.7010 C   0  0  0  0  0  2  0  0  0  0  0  0
  183.5500  178.3910  140.8120 C   0  0  0  0  0  0  0  0  0  0  0  0
  184.5390  179.0370  140.1650 C   0  0  0  0  0  3  0  0  0  0  0  0
  183.1280  176.9960  138.8850 C   0  0  0  0  0  0  0  0  0  0  0  0
  182.4530  176.0910  138.0580 N   0  0  0  0  0  0  0  0  0  0  0  0
  182.7580  177.3580  140.1090 C   0  0  0  0  0  3  0  0  0  0  0  0
  184.2970  177.1140  136.9110 N   0  0  0  0  0  0  0  0  0  0  0  0
  184.2290  177.5640  138.2380 N   0  0  0  0  0  0  0  0  0  0  0  0
  183.1980  176.1250  136.7960 C   0  0  0  0  0  3  0  0  0  0  0  0
  185.4970  176.4000  136.7800 N   0  0  0  0  0  2  0  0  0  0  0  0
  187.5670  177.5620  136.9740 C   0  0  2  0  0  3  0  0  0  0  0  0
  190.7880  176.3270  138.4410 C   0  0  0  0  0  0  0  0  0  0  0  0
  190.5220  176.1330  139.6580 O   0  0  0  0  0  0  0  0  0  0  0  0
  188.3650  176.8420  138.0360 C   0  0  0  0  0  2  0  0  0  0  0  0
  192.1980  176.1590  137.9830 C   0  0  0  0  0  1  0  0  0  0  0  0
  189.7490  176.6980  137.5230 N   0  0  0  0  0  0  0  0  0  0  0  0
  190.0720  176.8590  136.0750 C   0  0  0  0  0  2  0  0  0  0  0  0
  186.4400  177.2680  136.0930 C   0  0  1  0  0  3  0  0  0  0  0  0
  188.8200  177.1810  135.2170 C   0  0  0  0  0  2  0  0  0  0  0  0
  187.6960  176.5620  135.8880 N   0  0  1  0  0  0  0  0  0  0  0  0
  183.2420  178.6580  142.1890 N   0  0  0  0  0  2  0  0  0  0  0  0
  184.5370  178.8050  145.7200 C   0  0  0  0  0  3  0  0  0  0  0  0
  185.3960  178.0570  143.1610 C   0  0  0  0  0  3  0  0  0  0  0  0
  187.9950  177.6740  146.4540 C   0  0  0  0  0  0  0  0  0  0  0  0
  186.6930  178.1760  146.6280 C   0  0  0  0  0  3  0  0  0  0  0  0
  185.8280  178.3030  145.5400 C   0  0  0  0  0  0  0  0  0  0  0  0
  187.5520  177.4270  144.0690 C   0  0  0  0  0  3  0  0  0  0  0  0
  186.2610  177.9270  144.2500 C   0  0  0  0  0  0  0  0  0  0  0  0
  188.4120  177.3030  145.1640 C   0  0  0  0  0  3  0  0  0  0  0  0
  184.1010  178.5570  143.3380 C   0  0  0  0  0  0  0  0  0  0  0  0
  183.6780  178.9290  144.6250 C   0  0  0  0  0  3  0  0  0  0  0  0
  188.8840  177.5400  147.5790 N   0  0  0  0  0  0  0  0  0  0  0  0
  190.1800  176.8910  147.4420 C   0  0  0  0  0  1  0  0  0  0  0  0
  188.5230  178.0520  148.8920 C   0  0  0  0  0  1  0  0  0  0  0  0
  1  3  1  0  0  0  0
  2 21  1  0  0  0  0
  3  2  2  0  0  0  0
  4  6  2  0  0  0  0
  5  4  1  0  0  0  0
  6  2  1  0  0  0  0
  7  8  1  0  0  0  0
  8  1  1  0  0  0  0
  8  4  1  0  0  0  0
  9  7  1  0  0  0  0
  9  5  2  0  0  0  0
 10  7  1  0  0  0  0
 11 14  1  1  0  0  0
 12 13  2  0  0  0  0
 15 12  1  0  0  0  0
 16 14  1  0  0  0  0
 16 12  1  0  0  0  0
 17 16  1  0  0  0  0
 18 10  1  1  0  0  0
 18 11  1  0  0  0  0
 19 17  1  0  0  0  0
 20 19  1  6  0  0  0
 20 18  1  0  0  0  0
 20 11  1  0  0  0  0
 21 30  1  0  0  0  0
 23 30  2  0  0  0  0
 23 28  1  0  0  0  0
 24 25  1  0  0  0  0
 24 32  1  0  0  0  0
 26 22  1  0  0  0  0
 26 25  2  0  0  0  0
 27 28  2  0  0  0  0
 27 29  1  0  0  0  0
 28 26  1  0  0  0  0
 29 24  2  0  0  0  0
 30 31  1  0  0  0  0
 31 22  2  0  0  0  0
 32 34  1  0  0  0  0
 33 32  1  0  0  0  0
M  END
>  <MODEL>
1

>  <REMARK>
 VINA RESULT:      -9.9      0.000      0.000
  Name = 
  5 active torsions:
  status: ('A' for Active; 'I' for Inactive)
    1  A    between atoms: N_5  and  N_19
    2  A    between atoms: N_5  and  C_32
    3  A    between atoms: C_7  and  N_11
    4  A    between atoms: C_8  and  N_18
    5  A    between atoms: N_18  and  C_30
                            x       y       z     vdW  Elec       q    Type
                         _______ _______ _______ _____ _____    ______ ____

>  <TORSDO>
F 5

$$$$
=
 OpenBabel10272415193D

 34 39  0  0  1  0  0  0  0  0999 V2000
  184.3510  179.1210  141.7100 C   0  0  0  0  0  2  0  0  0  0  0  0
  183.9530  179.0600  144.1840 C   0  0  0  0  0  0  0  0  0  0  0  0
  184.8130  179.1110  143.1480 C   0  0  0  0  0  3  0  0  0  0  0  0
  182.0850  178.7300  142.6890 C   0  0  0  0  0  0  0  0  0  0  0  0
  180.7510  178.6540  142.2710 N   0  0  0  0  0  0  0  0  0  0  0  0
  182.5010  178.9280  143.9350 C   0  0  0  0  0  3  0  0  0  0  0  0
  182.2550  178.5970  140.4010 N   0  0  0  0  0  0  0  0  0  0  0  0
  182.9690  178.6540  141.6080 N   0  0  0  0  0  0  0  0  0  0  0  0
  180.8310  178.5390  140.8120 C   0  0  0  0  0  3  0  0  0  0  0  0
  182.5530  177.3620  139.8060 N   0  0  0  0  0  2  0  0  0  0  0  0
  183.7810  178.2890  137.9890 C   0  0  2  0  0  3  0  0  0  0  0  0
  187.4640  178.0610  137.3260 C   0  0  0  0  0  0  0  0  0  0  0  0
  187.9930  178.6730  138.2930 O   0  0  0  0  0  0  0  0  0  0  0  0
  185.2260  178.3390  138.4290 C   0  0  0  0  0  2  0  0  0  0  0  0
  188.3420  177.5750  136.2220 C   0  0  0  0  0  1  0  0  0  0  0  0
  186.0460  177.8380  137.2990 N   0  0  0  0  0  0  0  0  0  0  0  0
  185.4480  177.0560  136.1780 C   0  0  0  0  0  2  0  0  0  0  0  0
  182.5670  177.5720  138.3670 C   0  0  1  0  0  3  0  0  0  0  0  0
  183.9200  176.8430  136.3480 C   0  0  0  0  0  2  0  0  0  0  0  0
  183.6680  176.8270  137.7740 N   0  0  1  0  0  0  0  0  0  0  0  0
  184.4030  179.1110  145.5470 N   0  0  0  0  0  2  0  0  0  0  0  0
  187.1740  178.3140  147.9660 C   0  0  0  0  0  3  0  0  0  0  0  0
  186.6300  178.1720  145.2220 C   0  0  0  0  0  3  0  0  0  0  0  0
  190.3430  176.8490  146.7070 C   0  0  0  0  0  0  0  0  0  0  0  0
  189.3690  177.3630  147.5800 C   0  0  0  0  0  3  0  0  0  0  0  0
  188.1370  177.8020  147.0930 C   0  0  0  0  0  0  0  0  0  0  0  0
  188.8240  177.2200  144.8360 C   0  0  0  0  0  3  0  0  0  0  0  0
  187.8620  177.7310  145.7100 C   0  0  0  0  0  0  0  0  0  0  0  0
  190.0560  176.7830  145.3320 C   0  0  0  0  0  3  0  0  0  0  0  0
  185.6620  178.6840  146.0950 C   0  0  0  0  0  0  0  0  0  0  0  0
  185.9440  178.7510  147.4690 C   0  0  0  0  0  3  0  0  0  0  0  0
  191.6120  176.3940  147.2130 N   0  0  0  0  0  0  0  0  0  0  0  0
  192.1780  176.9450  148.4360 C   0  0  0  0  0  1  0  0  0  0  0  0
  192.3740  175.3640  146.5240 C   0  0  0  0  0  1  0  0  0  0  0  0
  1  3  1  0  0  0  0
  2 21  1  0  0  0  0
  3  2  2  0  0  0  0
  4  6  2  0  0  0  0
  5  4  1  0  0  0  0
  6  2  1  0  0  0  0
  7  9  1  0  0  0  0
  7  8  1  0  0  0  0
  8  1  1  0  0  0  0
  8  4  1  0  0  0  0
  9  5  2  0  0  0  0
 10  7  1  0  0  0  0
 11 18  1  0  0  0  0
 11 14  1  1  0  0  0
 12 13  2  0  0  0  0
 15 12  1  0  0  0  0
 16 12  1  0  0  0  0
 16 14  1  0  0  0  0
 17 19  1  0  0  0  0
 17 16  1  0  0  0  0
 18 10  1  1  0  0  0
 20 19  1  6  0  0  0
 20 11  1  0  0  0  0
 20 18  1  0  0  0  0
 21 30  1  0  0  0  0
 23 28  2  0  0  0  0
 23 30  1  0  0  0  0
 24 32  1  0  0  0  0
 24 25  2  0  0  0  0
 26 25  1  0  0  0  0
 26 22  2  0  0  0  0
 27 29  2  0  0  0  0
 27 28  1  0  0  0  0
 28 26  1  0  0  0  0
 29 24  1  0  0  0  0
 30 31  2  0  0  0  0
 31 22  1  0  0  0  0
 32 33  1  0  0  0  0
 34 32  1  0  0  0  0
M  END
>  <MODEL>
2

>  <REMARK>
 VINA RESULT:      -9.4      1.860      3.762
  Name = 
  5 active torsions:
  status: ('A' for Active; 'I' for Inactive)
    1  A    between atoms: N_5  and  N_19
    2  A    between atoms: N_5  and  C_32
    3  A    between atoms: C_7  and  N_11
    4  A    between atoms: C_8  and  N_18
    5  A    between atoms: N_18  and  C_30
                            x       y       z     vdW  Elec       q    Type
                         _______ _______ _______ _____ _____    ______ ____

>  <TORSDO>
F 5

$$$$
=
 OpenBabel10272415193D

 34 39  0  0  1  0  0  0  0  0999 V2000
  182.3110  178.7000  141.9280 C   0  0  0  0  0  2  0  0  0  0  0  0
  183.9480  178.7950  143.8250 C   0  0  0  0  0  0  0  0  0  0  0  0
  182.6720  178.8080  143.3920 C   0  0  0  0  0  3  0  0  0  0  0  0
  184.7770  178.8660  141.5580 C   0  0  0  0  0  0  0  0  0  0  0  0
  185.6970  178.7790  140.5070 N   0  0  0  0  0  0  0  0  0  0  0  0
  185.0600  178.7560  142.8510 C   0  0  0  0  0  3  0  0  0  0  0  0
  183.4470  178.9440  139.6860 N   0  0  0  0  0  0  0  0  0  0  0  0
  183.4680  179.0060  141.0870 N   0  0  0  0  0  0  0  0  0  0  0  0
  184.8750  178.8550  139.2950 C   0  0  0  0  0  3  0  0  0  0  0  0
  182.9800  180.1850  139.2270 N   0  0  0  0  0  2  0  0  0  0  0  0
  180.9940  181.2780  138.4980 C   0  0  2  0  0  3  0  0  0  0  0  0
  180.6780  184.1800  136.1450 C   0  0  0  0  0  0  0  0  0  0  0  0
  181.2530  185.1290  136.7430 O   0  0  0  0  0  0  0  0  0  0  0  0
  181.4160  182.6330  137.9800 C   0  0  0  0  0  2  0  0  0  0  0  0
  179.9820  184.4640  134.8570 C   0  0  0  0  0  1  0  0  0  0  0  0
  180.7010  182.8550  136.6990 N   0  0  0  0  0  0  0  0  0  0  0  0
  180.0710  181.7330  135.9450 C   0  0  0  0  0  2  0  0  0  0  0  0
  181.6200  179.9830  138.7550 C   0  0  1  0  0  3  0  0  0  0  0  0
  180.2580  180.3630  136.6470 C   0  0  0  0  0  2  0  0  0  0  0  0
  181.5040  180.4480  137.3810 N   0  0  1  0  0  0  0  0  0  0  0  0
  184.2740  178.8390  145.2230 N   0  0  0  0  0  2  0  0  0  0  0  0
  186.9340  178.3360  147.8380 C   0  0  0  0  0  3  0  0  0  0  0  0
  186.5570  177.9920  145.0840 C   0  0  0  0  0  3  0  0  0  0  0  0
  190.2340  176.9520  146.8560 C   0  0  0  0  0  0  0  0  0  0  0  0
  189.1890  177.4720  147.6390 C   0  0  0  0  0  3  0  0  0  0  0  0
  187.9680  177.8170  147.0560 C   0  0  0  0  0  0  0  0  0  0  0  0
  188.8110  177.1270  144.8840 C   0  0  0  0  0  3  0  0  0  0  0  0
  187.7770  177.6450  145.6670 C   0  0  0  0  0  0  0  0  0  0  0  0
  190.0310  176.7840  145.4750 C   0  0  0  0  0  3  0  0  0  0  0  0
  185.5180  178.5100  145.8670 C   0  0  0  0  0  0  0  0  0  0  0  0
  185.7150  178.6790  147.2470 C   0  0  0  0  0  3  0  0  0  0  0  0
  191.4910  176.5930  147.4600 N   0  0  0  0  0  0  0  0  0  0  0  0
  192.0260  177.3410  148.5890 C   0  0  0  0  0  1  0  0  0  0  0  0
  192.2720  175.4690  146.9680 C   0  0  0  0  0  1  0  0  0  0  0  0
  1  3  1  0  0  0  0
  2 21  1  0  0  0  0
  3  2  2  0  0  0  0
  4  6  2  0  0  0  0
  5  4  1  0  0  0  0
  6  2  1  0  0  0  0
  7  8  1  0  0  0  0
  8  4  1  0  0  0  0
  8  1  1  0  0  0  0
  9  7  1  0  0  0  0
  9  5  2  0  0  0  0
 10  7  1  0  0  0  0
 11 14  1  1  0  0  0
 11 18  1  0  0  0  0
 12 16  1  0  0  0  0
 12 13  2  0  0  0  0
 15 12  1  0  0  0  0
 16 14  1  0  0  0  0
 17 19  1  0  0  0  0
 17 16  1  0  0  0  0
 18 10  1  1  0  0  0
 20 19  1  6  0  0  0
 20 11  1  0  0  0  0
 20 18  1  0  0  0  0
 21 30  1  0  0  0  0
 23 28  2  0  0  0  0
 23 30  1  0  0  0  0
 24 32  1  0  0  0  0
 24 25  2  0  0  0  0
 26 25  1  0  0  0  0
 26 22  2  0  0  0  0
 27 29  2  0  0  0  0
 27 28  1  0  0  0  0
 28 26  1  0  0  0  0
 29 24  1  0  0  0  0
 30 31  2  0  0  0  0
 31 22  1  0  0  0  0
 32 33  1  0  0  0  0
 34 32  1  0  0  0  0
M  END
>  <MODEL>
3

>  <REMARK>
 VINA RESULT:      -9.3      4.060      6.433
  Name = 
  5 active torsions:
  status: ('A' for Active; 'I' for Inactive)
    1  A    between atoms: N_5  and  N_19
    2  A    between atoms: N_5  and  C_32
    3  A    between atoms: C_7  and  N_11
    4  A    between atoms: C_8  and  N_18
    5  A    between atoms: N_18  and  C_30
                            x       y       z     vdW  Elec       q    Type
                         _______ _______ _______ _____ _____    ______ ____

>  <TORSDO>
F 5

$$$$
=
 OpenBabel10272415193D

 34 39  0  0  1  0  0  0  0  0999 V2000
  183.5840  178.5030  141.3270 C   0  0  0  0  0  2  0  0  0  0  0  0
  183.3180  178.9220  143.7840 C   0  0  0  0  0  0  0  0  0  0  0  0
  184.1080  178.6060  142.7400 C   0  0  0  0  0  3  0  0  0  0  0  0
  181.3460  178.8200  142.3930 C   0  0  0  0  0  0  0  0  0  0  0  0
  180.0110  179.0000  142.0160 N   0  0  0  0  0  0  0  0  0  0  0  0
  181.8640  179.1030  143.5840 C   0  0  0  0  0  3  0  0  0  0  0  0
  181.3560  178.2980  140.1560 N   0  0  0  0  0  0  0  0  0  0  0  0
  182.1280  178.3690  141.3250 N   0  0  0  0  0  0  0  0  0  0  0  0
  179.9820  178.6460  140.5940 C   0  0  0  0  0  3  0  0  0  0  0  0
  181.3260  176.9510  139.7650 N   0  0  0  0  0  2  0  0  0  0  0  0
  182.5040  176.2460  137.8200 C   0  0  2  0  0  3  0  0  0  0  0  0
  184.1920  172.9570  137.1990 C   0  0  0  0  0  0  0  0  0  0  0  0
  185.1180  172.9160  138.0530 O   0  0  0  0  0  0  0  0  0  0  0  0
  183.3790  175.0900  138.2440 C   0  0  0  0  0  2  0  0  0  0  0  0
  184.1040  171.8640  136.1880 C   0  0  0  0  0  1  0  0  0  0  0  0
  183.2440  174.0350  137.2090 N   0  0  0  0  0  0  0  0  0  0  0  0
  182.1170  174.0320  136.2320 C   0  0  0  0  0  2  0  0  0  0  0  0
  181.3090  176.9260  138.3110 C   0  0  1  0  0  3  0  0  0  0  0  0
  181.1470  175.2250  136.4360 C   0  0  0  0  0  2  0  0  0  0  0  0
  181.1950  175.5520  137.8460 N   0  0  1  0  0  0  0  0  0  0  0  0
  183.8410  179.0740  145.1130 N   0  0  0  0  0  2  0  0  0  0  0  0
  186.6800  178.2980  147.4600 C   0  0  0  0  0  3  0  0  0  0  0  0
  186.0910  178.2190  144.7220 C   0  0  0  0  0  3  0  0  0  0  0  0
  189.8720  176.9760  146.1040 C   0  0  0  0  0  0  0  0  0  0  0  0
  188.8970  177.4320  147.0090 C   0  0  0  0  0  3  0  0  0  0  0  0
  187.6420  177.8440  146.5550 C   0  0  0  0  0  0  0  0  0  0  0  0
  188.3070  177.3510  144.2710 C   0  0  0  0  0  3  0  0  0  0  0  0
  187.3450  177.8040  145.1760 C   0  0  0  0  0  0  0  0  0  0  0  0
  189.5620  176.9410  144.7330 C   0  0  0  0  0  3  0  0  0  0  0  0
  185.1230  178.6730  145.6260 C   0  0  0  0  0  0  0  0  0  0  0  0
  185.4270  178.7090  146.9970 C   0  0  0  0  0  3  0  0  0  0  0  0
  191.1630  176.5480  146.5740 N   0  0  0  0  0  0  0  0  0  0  0  0
  191.6320  176.8920  147.9090 C   0  0  0  0  0  1  0  0  0  0  0  0
  192.0470  175.7520  145.7360 C   0  0  0  0  0  1  0  0  0  0  0  0
  1  3  1  0  0  0  0
  2 21  1  0  0  0  0
  3  2  2  0  0  0  0
  4  6  2  0  0  0  0
  5  4  1  0  0  0  0
  6  2  1  0  0  0  0
  7  9  1  0  0  0  0
  7  8  1  0  0  0  0
  8  1  1  0  0  0  0
  8  4  1  0  0  0  0
  9  5  2  0  0  0  0
 10  7  1  0  0  0  0
 11 20  1  0  0  0  0
 11 14  1  1  0  0  0
 11 18  1  0  0  0  0
 12 16  1  0  0  0  0
 12 13  2  0  0  0  0
 15 12  1  0  0  0  0
 16 14  1  0  0  0  0
 17 19  1  0  0  0  0
 17 16  1  0  0  0  0
 18 10  1  1  0  0  0
 20 19  1  6  0  0  0
 20 18  1  0  0  0  0
 21 30  1  0  0  0  0
 23 28  2  0  0  0  0
 23 30  1  0  0  0  0
 24 32  1  0  0  0  0
 24 25  2  0  0  0  0
 26 25  1  0  0  0  0
 26 22  2  0  0  0  0
 27 29  2  0  0  0  0
 27 28  1  0  0  0  0
 28 26  1  0  0  0  0
 29 24  1  0  0  0  0
 30 31  2  0  0  0  0
 31 22  1  0  0  0  0
 32 33  1  0  0  0  0
 34 32  1  0  0  0  0
M  END
>  <MODEL>
4

>  <REMARK>
 VINA RESULT:      -9.1      3.660      4.785
  Name = 
  5 active torsions:
  status: ('A' for Active; 'I' for Inactive)
    1  A    between atoms: N_5  and  N_19
    2  A    between atoms: N_5  and  C_32
    3  A    between atoms: C_7  and  N_11
    4  A    between atoms: C_8  and  N_18
    5  A    between atoms: N_18  and  C_30
                            x       y       z     vdW  Elec       q    Type
                         _______ _______ _______ _____ _____    ______ ____

>  <TORSDO>
F 5

$$$$
=
 OpenBabel10272415193D

 34 39  0  0  1  0  0  0  0  0999 V2000
  184.4410  177.7810  138.3210 C   0  0  0  0  0  2  0  0  0  0  0  0
  183.3110  178.0830  140.5390 C   0  0  0  0  0  0  0  0  0  0  0  0
  184.2920  178.4230  139.6810 C   0  0  0  0  0  3  0  0  0  0  0  0
  182.6080  176.2730  139.1020 C   0  0  0  0  0  0  0  0  0  0  0  0
  181.7900  175.2540  138.6000 N   0  0  0  0  0  0  0  0  0  0  0  0
  182.3760  176.9880  140.1970 C   0  0  0  0  0  3  0  0  0  0  0  0
  183.6090  175.7290  137.1070 N   0  0  0  0  0  0  0  0  0  0  0  0
  183.6940  176.5250  138.2590 N   0  0  0  0  0  0  0  0  0  0  0  0
  182.4240  174.8670  137.3360 C   0  0  0  0  0  3  0  0  0  0  0  0
  184.7280  174.8840  137.1080 N   0  0  0  0  0  2  0  0  0  0  0  0
  186.7960  175.4470  136.0700 C   0  0  2  0  0  3  0  0  0  0  0  0
  190.2400  174.2800  136.9840 C   0  0  0  0  0  0  0  0  0  0  0  0
  190.4300  174.7480  138.1380 O   0  0  0  0  0  0  0  0  0  0  0  0
  187.8800  175.1320  137.0750 C   0  0  0  0  0  2  0  0  0  0  0  0
  191.3650  173.5750  136.3040 C   0  0  0  0  0  1  0  0  0  0  0  0
  188.9620  174.4260  136.3450 N   0  0  0  0  0  0  0  0  0  0  0  0
  188.7360  173.8100  135.0060 C   0  0  0  0  0  2  0  0  0  0  0  0
  185.4060  175.0670  135.8350 C   0  0  1  0  0  3  0  0  0  0  0  0
  187.2800  173.9960  134.5020 C   0  0  0  0  0  2  0  0  0  0  0  0
  186.4460  174.0600  135.6830 N   0  0  1  0  0  0  0  0  0  0  0  0
  183.1460  178.7420  141.8040 N   0  0  0  0  0  2  0  0  0  0  0  0
  184.3350  178.9460  145.3690 C   0  0  0  0  0  3  0  0  0  0  0  0
  185.2420  178.0840  142.8630 C   0  0  0  0  0  3  0  0  0  0  0  0
  187.7180  177.6990  146.2500 C   0  0  0  0  0  0  0  0  0  0  0  0
  186.4330  178.2590  146.3660 C   0  0  0  0  0  3  0  0  0  0  0  0
  185.6090  178.3870  145.2470 C   0  0  0  0  0  0  0  0  0  0  0  0
  187.3400  177.3960  143.8590 C   0  0  0  0  0  3  0  0  0  0  0  0
  186.0660  177.9530  143.9830 C   0  0  0  0  0  0  0  0  0  0  0  0
  188.1590  177.2710  144.9850 C   0  0  0  0  0  3  0  0  0  0  0  0
  183.9630  178.6420  142.9830 C   0  0  0  0  0  0  0  0  0  0  0  0
  183.5170  179.0710  144.2440 C   0  0  0  0  0  3  0  0  0  0  0  0
  188.5650  177.5640  147.4060 N   0  0  0  0  0  0  0  0  0  0  0  0
  189.9670  177.1940  147.2740 C   0  0  0  0  0  1  0  0  0  0  0  0
  188.0530  177.7960  148.7480 C   0  0  0  0  0  1  0  0  0  0  0  0
  1  3  1  0  0  0  0
  2 21  1  0  0  0  0
  3  2  2  0  0  0  0
  4  6  2  0  0  0  0
  5  4  1  0  0  0  0
  6  2  1  0  0  0  0
  7 10  1  0  0  0  0
  7  9  1  0  0  0  0
  7  8  1  0  0  0  0
  8  1  1  0  0  0  0
  8  4  1  0  0  0  0
  9  5  2  0  0  0  0
 11 14  1  1  0  0  0
 12 13  2  0  0  0  0
 15 12  1  0  0  0  0
 16 12  1  0  0  0  0
 16 14  1  0  0  0  0
 17 16  1  0  0  0  0
 18 11  1  0  0  0  0
 18 10  1  1  0  0  0
 19 17  1  0  0  0  0
 20 19  1  6  0  0  0
 20 18  1  0  0  0  0
 20 11  1  0  0  0  0
 21 30  1  0  0  0  0
 23 30  2  0  0  0  0
 23 28  1  0  0  0  0
 24 25  1  0  0  0  0
 24 32  1  0  0  0  0
 26 22  1  0  0  0  0
 26 25  2  0  0  0  0
 27 28  2  0  0  0  0
 27 29  1  0  0  0  0
 28 26  1  0  0  0  0
 29 24  2  0  0  0  0
 30 31  1  0  0  0  0
 31 22  2  0  0  0  0
 32 34  1  0  0  0  0
 33 32  1  0  0  0  0
M  END
>  <MODEL>
5

>  <REMARK>
 VINA RESULT:      -9.1      1.619      1.658
  Name = 
  5 active torsions:
  status: ('A' for Active; 'I' for Inactive)
    1  A    between atoms: N_5  and  N_19
    2  A    between atoms: N_5  and  C_32
    3  A    between atoms: C_7  and  N_11
    4  A    between atoms: C_8  and  N_18
    5  A    between atoms: N_18  and  C_30
                            x       y       z     vdW  Elec       q    Type
                         _______ _______ _______ _____ _____    ______ ____

>  <TORSDO>
F 5

$$$$
=
 OpenBabel10272415193D

 34 39  0  0  1  0  0  0  0  0999 V2000
  186.8190  178.7680  140.7220 C   0  0  0  0  0  2  0  0  0  0  0  0
  185.5330  178.4640  142.8530 C   0  0  0  0  0  0  0  0  0  0  0  0
  186.7070  178.4380  142.1920 C   0  0  0  0  0  3  0  0  0  0  0  0
  184.3220  178.8350  140.7960 C   0  0  0  0  0  0  0  0  0  0  0  0
  183.2470  179.1620  139.9610 N   0  0  0  0  0  0  0  0  0  0  0  0
  184.2780  178.7440  142.1210 C   0  0  0  0  0  3  0  0  0  0  0  0
  185.2950  178.9850  138.7200 N   0  0  0  0  0  0  0  0  0  0  0  0
  185.5100  178.6890  140.0740 N   0  0  0  0  0  0  0  0  0  0  0  0
  183.8360  179.2360  138.6200 C   0  0  0  0  0  3  0  0  0  0  0  0
  185.5520  177.8110  137.9960 N   0  0  0  0  0  2  0  0  0  0  0  0
  187.7930  177.9620  137.2050 C   0  0  2  0  0  3  0  0  0  0  0  0
  190.5600  175.4630  137.5960 C   0  0  0  0  0  0  0  0  0  0  0  0
  190.7610  175.4130  138.8390 O   0  0  0  0  0  0  0  0  0  0  0  0
  188.6010  176.9760  138.0160 C   0  0  0  0  0  2  0  0  0  0  0  0
  191.4690  174.6970  136.6940 C   0  0  0  0  0  1  0  0  0  0  0  0
  189.4750  176.2420  137.0680 N   0  0  0  0  0  0  0  0  0  0  0  0
  189.2140  176.2360  135.6000 C   0  0  0  0  0  2  0  0  0  0  0  0
  186.3890  178.1790  136.8660 C   0  0  1  0  0  3  0  0  0  0  0  0
  187.9590  177.0630  135.2140 C   0  0  0  0  0  2  0  0  0  0  0  0
  187.0630  176.9970  136.3500 N   0  0  1  0  0  0  0  0  0  0  0  0
  185.4500  178.2060  144.2630 N   0  0  0  0  0  2  0  0  0  0  0  0
  187.4050  177.9750  147.4710 C   0  0  0  0  0  3  0  0  0  0  0  0
  187.7630  177.5840  144.7200 C   0  0  0  0  0  3  0  0  0  0  0  0
  190.9600  176.9130  147.3800 C   0  0  0  0  0  0  0  0  0  0  0  0
  189.7080  177.3330  147.8620 C   0  0  0  0  0  3  0  0  0  0  0  0
  188.6450  177.5550  146.9840 C   0  0  0  0  0  0  0  0  0  0  0  0
  190.0650  176.9410  145.1110 C   0  0  0  0  0  3  0  0  0  0  0  0
  188.8250  177.3590  145.5980 C   0  0  0  0  0  0  0  0  0  0  0  0
  191.1250  176.7200  145.9970 C   0  0  0  0  0  3  0  0  0  0  0  0
  186.5170  178.0030  145.2040 C   0  0  0  0  0  0  0  0  0  0  0  0
  186.3470  178.1950  146.5850 C   0  0  0  0  0  3  0  0  0  0  0  0
  192.0530  176.6800  148.2870 N   0  0  0  0  0  0  0  0  0  0  0  0
  192.8620  175.4730  148.1990 C   0  0  0  0  0  1  0  0  0  0  0  0
  192.3940  177.6440  149.3220 C   0  0  0  0  0  1  0  0  0  0  0  0
  1  3  1  0  0  0  0
  2 21  1  0  0  0  0
  3  2  2  0  0  0  0
  4  6  2  0  0  0  0
  5  4  1  0  0  0  0
  6  2  1  0  0  0  0
  7  8  1  0  0  0  0
  8  1  1  0  0  0  0
  8  4  1  0  0  0  0
  9  7  1  0  0  0  0
  9  5  2  0  0  0  0
 10  7  1  0  0  0  0
 11 14  1  1  0  0  0
 12 13  2  0  0  0  0
 15 12  1  0  0  0  0
 16 12  1  0  0  0  0
 16 14  1  0  0  0  0
 17 16  1  0  0  0  0
 18 11  1  0  0  0  0
 18 10  1  1  0  0  0
 19 17  1  0  0  0  0
 20 19  1  6  0  0  0
 20 18  1  0  0  0  0
 20 11  1  0  0  0  0
 21 30  1  0  0  0  0
 23 30  2  0  0  0  0
 23 28  1  0  0  0  0
 24 25  1  0  0  0  0
 24 32  1  0  0  0  0
 26 22  1  0  0  0  0
 26 25  2  0  0  0  0
 27 28  2  0  0  0  0
 27 29  1  0  0  0  0
 28 26  1  0  0  0  0
 29 24  2  0  0  0  0
 30 31  1  0  0  0  0
 31 22  2  0  0  0  0
 32 34  1  0  0  0  0
 33 32  1  0  0  0  0
M  END
>  <MODEL>
6

>  <REMARK>
 VINA RESULT:      -8.7      1.670      2.673
  Name = 
  5 active torsions:
  status: ('A' for Active; 'I' for Inactive)
    1  A    between atoms: N_5  and  N_19
    2  A    between atoms: N_5  and  C_32
    3  A    between atoms: C_7  and  N_11
    4  A    between atoms: C_8  and  N_18
    5  A    between atoms: N_18  and  C_30
                            x       y       z     vdW  Elec       q    Type
                         _______ _______ _______ _____ _____    ______ ____

>  <TORSDO>
F 5

$$$$
=
 OpenBabel10272415193D

 34 39  0  0  1  0  0  0  0  0999 V2000
  187.1570  177.0690  144.8910 C   0  0  0  0  0  2  0  0  0  0  0  0
  185.1620  178.3570  145.6930 C   0  0  0  0  0  0  0  0  0  0  0  0
  185.7810  177.6660  144.7160 C   0  0  0  0  0  3  0  0  0  0  0  0
  187.1430  178.2880  147.0720 C   0  0  0  0  0  0  0  0  0  0  0  0
  187.9310  178.4070  148.2230 N   0  0  0  0  0  0  0  0  0  0  0  0
  185.8620  178.6250  146.9680 C   0  0  0  0  0  3  0  0  0  0  0  0
  189.1240  177.2980  146.4590 N   0  0  0  0  0  0  0  0  0  0  0  0
  187.8460  177.6820  146.0270 N   0  0  0  0  0  0  0  0  0  0  0  0
  189.2150  177.8070  147.8500 C   0  0  0  0  0  3  0  0  0  0  0  0
  190.0500  178.0290  145.7010 N   0  0  0  0  0  2  0  0  0  0  0  0
  190.0530  176.7750  143.6770 C   0  0  2  0  0  3  0  0  0  0  0  0
  189.1070  177.9270  140.2370 C   0  0  0  0  0  0  0  0  0  0  0  0
  187.8820  178.2080  140.3290 O   0  0  0  0  0  0  0  0  0  0  0  0
  189.1550  177.5150  142.7130 C   0  0  0  0  0  2  0  0  0  0  0  0
  189.7560  177.9930  138.8960 C   0  0  0  0  0  1  0  0  0  0  0  0
  189.8540  177.5560  141.4060 N   0  0  0  0  0  0  0  0  0  0  0  0
  191.3170  177.2900  141.2870 C   0  0  0  0  0  2  0  0  0  0  0  0
  190.7960  177.0730  144.8980 C   0  0  1  0  0  3  0  0  0  0  0  0
  191.9800  176.9820  142.6560 C   0  0  0  0  0  2  0  0  0  0  0  0
  191.2110  177.6980  143.6510 N   0  0  1  0  0  0  0  0  0  0  0  0
  183.8290  178.8690  145.5330 N   0  0  0  0  0  2  0  0  0  0  0  0
  180.7960  178.8020  143.3060 C   0  0  0  0  0  3  0  0  0  0  0  0
  183.5900  178.8110  143.1070 C   0  0  0  0  0  3  0  0  0  0  0  0
  181.2260  178.7400  139.6210 C   0  0  0  0  0  0  0  0  0  0  0  0
  180.6220  178.7600  140.8900 C   0  0  0  0  0  3  0  0  0  0  0  0
  181.4020  178.7850  142.0480 C   0  0  0  0  0  0  0  0  0  0  0  0
  183.4170  178.7700  140.6910 C   0  0  0  0  0  3  0  0  0  0  0  0
  182.8100  178.7890  141.9480 C   0  0  0  0  0  0  0  0  0  0  0  0
  182.6290  178.7450  139.5360 C   0  0  0  0  0  3  0  0  0  0  0  0
  182.9850  178.8300  144.3700 C   0  0  0  0  0  0  0  0  0  0  0  0
  181.5830  178.8260  144.4600 C   0  0  0  0  0  3  0  0  0  0  0  0
  180.4200  178.7180  138.4280 N   0  0  0  0  0  0  0  0  0  0  0  0
  180.0110  177.4620  137.8170 C   0  0  0  0  0  1  0  0  0  0  0  0
  179.9820  179.9500  137.7900 C   0  0  0  0  0  1  0  0  0  0  0  0
  1  8  1  0  0  0  0
  2  6  1  0  0  0  0
  3  1  1  0  0  0  0
  3  2  2  0  0  0  0
  4  5  1  0  0  0  0
  6  4  2  0  0  0  0
  7  9  1  0  0  0  0
  8  7  1  0  0  0  0
  8  4  1  0  0  0  0
  9  5  2  0  0  0  0
 10  7  1  0  0  0  0
 11 14  1  1  0  0  0
 11 18  1  0  0  0  0
 12 13  2  0  0  0  0
 12 16  1  0  0  0  0
 15 12  1  0  0  0  0
 16 14  1  0  0  0  0
 17 16  1  0  0  0  0
 17 19  1  0  0  0  0
 18 10  1  1  0  0  0
 20 19  1  6  0  0  0
 20 11  1  0  0  0  0
 20 18  1  0  0  0  0
 21  2  1  0  0  0  0
 22 31  1  0  0  0  0
 23 30  1  0  0  0  0
 24 25  2  0  0  0  0
 25 26  1  0  0  0  0
 26 22  2  0  0  0  0
 27 28  1  0  0  0  0
 28 26  1  0  0  0  0
 28 23  2  0  0  0  0
 29 24  1  0  0  0  0
 29 27  2  0  0  0  0
 30 31  2  0  0  0  0
 30 21  1  0  0  0  0
 32 24  1  0  0  0  0
 33 32  1  0  0  0  0
 34 32  1  0  0  0  0
M  END
>  <MODEL>
7

>  <REMARK>
 VINA RESULT:      -8.7      2.806      7.903
  Name = 
  5 active torsions:
  status: ('A' for Active; 'I' for Inactive)
    1  A    between atoms: N_5  and  N_19
    2  A    between atoms: N_5  and  C_32
    3  A    between atoms: C_7  and  N_11
    4  A    between atoms: C_8  and  N_18
    5  A    between atoms: N_18  and  C_30
                            x       y       z     vdW  Elec       q    Type
                         _______ _______ _______ _____ _____    ______ ____

>  <TORSDO>
F 5

$$$$
=
 OpenBabel10272415193D

 34 39  0  0  1  0  0  0  0  0999 V2000
  190.4840  176.5440  136.9240 C   0  0  0  0  0  2  0  0  0  0  0  0
  190.6980  177.1430  139.3490 C   0  0  0  0  0  0  0  0  0  0  0  0
  191.1270  176.4340  138.2870 C   0  0  0  0  0  3  0  0  0  0  0  0
  188.8020  177.9690  138.1010 C   0  0  0  0  0  0  0  0  0  0  0  0
  187.6950  178.7690  137.7960 N   0  0  0  0  0  0  0  0  0  0  0  0
  189.5050  178.0100  139.2280 C   0  0  0  0  0  3  0  0  0  0  0  0
  188.3380  177.4160  135.9200 N   0  0  0  0  0  0  0  0  0  0  0  0
  189.1560  177.1470  137.0270 N   0  0  0  0  0  0  0  0  0  0  0  0
  187.3590  178.4150  136.4140 C   0  0  0  0  0  3  0  0  0  0  0  0
  187.6160  176.2450  135.6470 N   0  0  0  0  0  2  0  0  0  0  0  0
  185.3900  175.4260  135.4410 C   0  0  2  0  0  3  0  0  0  0  0  0
  184.1270  171.9580  136.1020 C   0  0  0  0  0  0  0  0  0  0  0  0
  184.7120  171.2450  135.2430 O   0  0  0  0  0  0  0  0  0  0  0  0
  185.4940  173.9220  135.3410 C   0  0  0  0  0  2  0  0  0  0  0  0
  183.0970  171.3240  136.9750 C   0  0  0  0  0  1  0  0  0  0  0  0
  184.4560  173.3500  136.2330 N   0  0  0  0  0  0  0  0  0  0  0  0
  183.7990  174.1620  137.2980 C   0  0  0  0  0  2  0  0  0  0  0  0
  186.2170  176.5310  135.9190 C   0  0  1  0  0  3  0  0  0  0  0  0
  184.3280  175.6200  137.3480 C   0  0  0  0  0  2  0  0  0  0  0  0
  185.6990  175.5710  136.8830 N   0  0  1  0  0  0  0  0  0  0  0  0
  191.3550  177.0720  140.6250 N   0  0  0  0  0  2  0  0  0  0  0  0
  191.0230  177.9400  144.2720 C   0  0  0  0  0  3  0  0  0  0  0  0
  189.4290  177.1160  142.1200 C   0  0  0  0  0  3  0  0  0  0  0  0
  187.6890  177.7930  145.8970 C   0  0  0  0  0  0  0  0  0  0  0  0
  189.0690  177.9780  145.7050 C   0  0  0  0  0  3  0  0  0  0  0  0
  189.6500  177.7560  144.4550 C   0  0  0  0  0  0  0  0  0  0  0  0
  187.4760  177.1560  143.5520 C   0  0  0  0  0  3  0  0  0  0  0  0
  188.8480  177.3410  143.3700 C   0  0  0  0  0  0  0  0  0  0  0  0
  186.9020  177.3800  144.8070 C   0  0  0  0  0  3  0  0  0  0  0  0
  190.8050  177.3010  141.9330 C   0  0  0  0  0  0  0  0  0  0  0  0
  191.5960  177.7150  143.0170 C   0  0  0  0  0  3  0  0  0  0  0  0
  187.0920  178.0270  147.1860 N   0  0  0  0  0  0  0  0  0  0  0  0
  185.6910  178.4050  147.3100 C   0  0  0  0  0  1  0  0  0  0  0  0
  187.8630  177.8900  148.4120 C   0  0  0  0  0  1  0  0  0  0  0  0
  1  8  1  0  0  0  0
  1  3  1  0  0  0  0
  2 21  1  0  0  0  0
  3  2  2  0  0  0  0
  4  6  2  0  0  0  0
  5  4  1  0  0  0  0
  6  2  1  0  0  0  0
  7  9  1  0  0  0  0
  7  8  1  0  0  0  0
  8  4  1  0  0  0  0
  9  5  2  0  0  0  0
 10  7  1  0  0  0  0
 11 14  1  6  0  0  0
 11 18  1  0  0  0  0
 11 20  1  0  0  0  0
 12 16  1  0  0  0  0
 12 15  1  0  0  0  0
 13 12  2  0  0  0  0
 14 16  1  0  0  0  0
 16 17  1  0  0  0  0
 17 19  1  0  0  0  0
 18 10  1  6  0  0  0
 18 20  1  0  0  0  0
 20 19  1  1  0  0  0
 21 30  1  0  0  0  0
 22 26  1  0  0  0  0
 23 28  1  0  0  0  0
 24 32  1  0  0  0  0
 25 24  1  0  0  0  0
 26 25  2  0  0  0  0
 27 29  1  0  0  0  0
 28 27  2  0  0  0  0
 28 26  1  0  0  0  0
 29 24  2  0  0  0  0
 30 23  2  0  0  0  0
 30 31  1  0  0  0  0
 31 22  2  0  0  0  0
 32 33  1  0  0  0  0
 32 34  1  0  0  0  0
M  END
>  <MODEL>
8

>  <REMARK>
 VINA RESULT:      -8.7      2.842      5.575
  Name = 
  5 active torsions:
  status: ('A' for Active; 'I' for Inactive)
    1  A    between atoms: N_5  and  N_19
    2  A    between atoms: N_5  and  C_32
    3  A    between atoms: C_7  and  N_11
    4  A    between atoms: C_8  and  N_18
    5  A    between atoms: N_18  and  C_30
                            x       y       z     vdW  Elec       q    Type
                         _______ _______ _______ _____ _____    ______ ____

>  <TORSDO>
F 5

$$$$
=
 OpenBabel10272415193D

 34 39  0  0  1  0  0  0  0  0999 V2000
  186.7020  177.6310  143.4010 C   0  0  0  0  0  2  0  0  0  0  0  0
  186.3680  178.5200  141.0810 C   0  0  0  0  0  0  0  0  0  0  0  0
  187.1460  177.8860  141.9800 C   0  0  0  0  0  3  0  0  0  0  0  0
  184.7320  179.0380  142.7810 C   0  0  0  0  0  0  0  0  0  0  0  0
  183.5100  179.4470  143.3280 N   0  0  0  0  0  0  0  0  0  0  0  0
  185.0570  179.0680  141.4940 C   0  0  0  0  0  3  0  0  0  0  0  0
  184.9240  178.4530  144.9950 N   0  0  0  0  0  0  0  0  0  0  0  0
  185.5770  178.4960  143.7540 N   0  0  0  0  0  0  0  0  0  0  0  0
  183.6170  179.1110  144.7510 C   0  0  0  0  0  3  0  0  0  0  0  0
  185.6390  179.2880  145.8650 N   0  0  0  0  0  2  0  0  0  0  0  0
  186.9120  177.5390  146.8600 C   0  0  2  0  0  3  0  0  0  0  0  0
  190.5890  176.8810  146.5430 C   0  0  0  0  0  0  0  0  0  0  0  0
  190.7530  176.6150  145.3220 O   0  0  0  0  0  0  0  0  0  0  0  0
  188.1870  177.4270  146.0570 C   0  0  0  0  0  2  0  0  0  0  0  0
  191.7530  176.7460  147.4670 C   0  0  0  0  0  1  0  0  0  0  0  0
  189.3050  177.3050  147.0250 N   0  0  0  0  0  0  0  0  0  0  0  0
  189.1460  177.6770  148.4610 C   0  0  0  0  0  2  0  0  0  0  0  0
  185.8700  178.5360  147.0880 C   0  0  1  0  0  3  0  0  0  0  0  0
  187.7190  178.1870  148.7910 C   0  0  0  0  0  2  0  0  0  0  0  0
  187.2150  178.7980  147.5790 N   0  0  1  0  0  0  0  0  0  0  0  0
  186.7790  178.7040  139.7170 N   0  0  0  0  0  2  0  0  0  0  0  0
  188.9170  177.1200  137.0560 C   0  0  0  0  0  3  0  0  0  0  0  0
  189.1120  177.9960  139.7090 C   0  0  0  0  0  3  0  0  0  0  0  0
  192.4680  176.3270  137.7860 C   0  0  0  0  0  0  0  0  0  0  0  0
  191.2450  176.4500  137.1050 C   0  0  0  0  0  3  0  0  0  0  0  0
  190.1300  177.0040  137.7380 C   0  0  0  0  0  0  0  0  0  0  0  0
  191.4400  177.3270  139.7580 C   0  0  0  0  0  3  0  0  0  0  0  0
  190.2280  177.4440  139.0750 C   0  0  0  0  0  0  0  0  0  0  0  0
  192.5510  176.7720  139.1170 C   0  0  0  0  0  3  0  0  0  0  0  0
  187.8950  178.1160  139.0280 C   0  0  0  0  0  0  0  0  0  0  0  0
  187.8060  177.6750  137.6970 C   0  0  0  0  0  3  0  0  0  0  0  0
  193.6170  175.7600  137.1300 N   0  0  0  0  0  0  0  0  0  0  0  0
  194.4330  174.7450  137.7820 C   0  0  0  0  0  1  0  0  0  0  0  0
  194.0040  176.1750  135.7900 C   0  0  0  0  0  1  0  0  0  0  0  0
  1  8  1  0  0  0  0
  2  6  1  0  0  0  0
  2  3  2  0  0  0  0
  3  1  1  0  0  0  0
  4  5  1  0  0  0  0
  4  8  1  0  0  0  0
  5  9  2  0  0  0  0
  6  4  2  0  0  0  0
  7 10  1  0  0  0  0
  8  7  1  0  0  0  0
  9  7  1  0  0  0  0
 11 14  1  6  0  0  0
 11 18  1  0  0  0  0
 11 20  1  0  0  0  0
 12 16  1  0  0  0  0
 12 15  1  0  0  0  0
 13 12  2  0  0  0  0
 14 16  1  0  0  0  0
 16 17  1  0  0  0  0
 17 19  1  0  0  0  0
 18 10  1  6  0  0  0
 18 20  1  0  0  0  0
 20 19  1  1  0  0  0
 21  2  1  0  0  0  0
 22 31  2  0  0  0  0
 22 26  1  0  0  0  0
 24 29  1  0  0  0  0
 25 26  1  0  0  0  0
 25 24  2  0  0  0  0
 26 28  2  0  0  0  0
 28 23  1  0  0  0  0
 28 27  1  0  0  0  0
 29 27  2  0  0  0  0
 30 23  2  0  0  0  0
 30 21  1  0  0  0  0
 31 30  1  0  0  0  0
 32 33  1  0  0  0  0
 32 24  1  0  0  0  0
 34 32  1  0  0  0  0
M  END
>  <MODEL>
9

>  <REMARK>
 VINA RESULT:      -8.6      2.601      8.663
  Name = 
  5 active torsions:
  status: ('A' for Active; 'I' for Inactive)
    1  A    between atoms: N_5  and  N_19
    2  A    between atoms: N_5  and  C_32
    3  A    between atoms: C_7  and  N_11
    4  A    between atoms: C_8  and  N_18
    5  A    between atoms: N_18  and  C_30
                            x       y       z     vdW  Elec       q    Type
                         _______ _______ _______ _____ _____    ______ ____

>  <TORSDO>
F 5

$$$$
