=
 OpenBabel10272413363D

 32 38  0  0  1  0  0  0  0  0999 V2000
  181.1860  179.2060  143.3500 C   0  0  1  0  0  3  0  0  0  0  0  0
  186.3050  178.1270  143.1030 C   0  0  0  0  0  0  0  0  0  0  0  0
  187.7170  177.4790  147.8200 C   0  0  0  0  0  2  0  0  0  0  0  0
  189.0880  178.0050  147.4370 C   0  0  0  0  0  2  0  0  0  0  0  0
  188.0900  177.9910  141.2630 C   0  0  0  0  0  0  0  0  0  0  0  0
  189.3380  177.6240  140.9290 C   0  0  0  0  0  0  0  0  0  0  0  0
  183.8190  178.1210  142.5900 C   0  0  1  0  0  3  0  0  0  0  0  0
  184.5570  178.2840  144.9560 C   0  0  0  0  0  2  0  0  0  0  0  0
  192.1090  177.4100  140.3760 C   0  0  0  0  0  3  0  0  0  0  0  0
  182.1830  178.7290  144.4040 C   0  0  0  0  0  2  0  0  0  0  0  0
  186.6680  178.1150  146.9170 C   0  0  0  0  0  2  0  0  0  0  0  0
  185.9910  178.1670  144.4860 C   0  0  0  0  0  0  0  0  0  0  0  0
  187.0050  177.9930  145.4480 C   0  0  0  0  0  0  0  0  0  0  0  0
  188.6450  177.7370  143.6710 C   0  0  0  0  0  0  0  0  0  0  0  0
  191.1360  177.6250  139.2860 C   0  0  0  0  0  3  0  0  0  0  0  0
  181.3330  180.5700  143.1430 F   0  0  0  0  0  0  0  0  0  0  0  0
  183.6220  178.8690  143.9080 C   0  0  2  0  0  3  0  0  0  0  0  0
  189.8300  177.7400  139.5430 C   0  0  0  0  0  3  0  0  0  0  0  0
  182.8200  178.6020  141.5410 C   0  0  0  0  0  2  0  0  0  0  0  0
  181.3890  178.4280  142.0490 C   0  0  2  0  0  3  0  0  0  0  0  0
  189.4350  177.5210  146.0350 C   0  0  0  0  0  2  0  0  0  0  0  0
  188.3400  177.8000  145.0350 C   0  0  0  0  0  0  0  0  0  0  0  0
  189.9630  177.4860  143.2690 O   0  0  0  0  0  0  0  0  0  0  0  0
  185.2260  178.3870  142.0780 C   0  0  0  0  0  2  0  0  0  0  0  0
  187.2420  178.4760  140.2700 O   0  0  0  0  0  1  0  0  0  0  0  0
  191.7040  177.1650  141.6280 C   0  0  0  0  0  3  0  0  0  0  0  0
  187.6480  177.9360  142.6940 C   0  0  0  0  0  0  0  0  0  0  0  0
  190.2470  176.9990  141.9610 C   0  0  2  0  0  3  0  0  0  0  0  0
  180.3850  178.8780  140.9980 C   0  0  0  0  0  2  0  0  0  0  0  0
  181.0700  179.7080  139.9280 C   0  0  0  0  0  3  0  0  0  0  0  0
  180.2280  180.9340  139.6370 C   0  0  0  0  0  2  0  0  0  0  0  0
  180.1880  179.7480  138.6980 C   0  0  0  0  0  2  0  0  0  0  0  0
  1 16  1  6  0  0  0
  1 10  1  0  0  0  0
  2 12  1  0  0  0  0
  4  3  1  0  0  0  0
  5 27  1  0  0  0  0
  6  5  2  0  0  0  0
  6 28  1  0  0  0  0
  7 19  1  6  0  0  0
  7 17  1  0  0  0  0
  9 26  2  0  0  0  0
 11  3  1  0  0  0  0
 12  8  1  0  0  0  0
 12 13  2  0  0  0  0
 13 11  1  0  0  0  0
 14 22  2  0  0  0  0
 15 18  2  0  0  0  0
 15  9  1  0  0  0  0
 17 10  1  1  0  0  0
 17  8  1  0  0  0  0
 18  6  1  0  0  0  0
 19 20  1  0  0  0  0
 20 29  1  6  0  0  0
 20  1  1  0  0  0  0
 21  4  1  0  0  0  0
 22 13  1  0  0  0  0
 22 21  1  0  0  0  0
 23 14  1  0  0  0  0
 24  7  1  0  0  0  0
 24  2  1  0  0  0  0
 25  5  1  0  0  0  0
 27  2  2  0  0  0  0
 27 14  1  0  0  0  0
 28 26  1  6  0  0  0
 28 23  1  0  0  0  0
 30 29  1  0  0  0  0
 31 30  1  0  0  0  0
 32 31  1  0  0  0  0
 32 30  1  0  0  0  0
M  END
>  <MODEL>
1

>  <REMARK>
 VINA RESULT:     -11.0      0.000      0.000
  Name = 
  2 active torsions:
  status: ('A' for Active; 'I' for Inactive)
    1  A    between atoms: C_1  and  C_10
    2  A    between atoms: C_10  and  C_24
                            x       y       z     vdW  Elec       q    Type
                         _______ _______ _______ _____ _____    ______ ____

>  <TORSDO>
F 2

$$$$
=
 OpenBabel10272413363D

 32 38  0  0  1  0  0  0  0  0999 V2000
  188.7880  177.9520  137.1420 C   0  0  1  0  0  3  0  0  0  0  0  0
  187.5030  177.9620  142.2180 C   0  0  0  0  0  0  0  0  0  0  0  0
  182.5970  178.7330  142.3060 C   0  0  0  0  0  2  0  0  0  0  0  0
  182.7740  179.4360  143.6390 C   0  0  0  0  0  2  0  0  0  0  0  0
  188.7530  177.7910  144.4540 C   0  0  0  0  0  0  0  0  0  0  0  0
  188.6650  177.6310  145.7840 C   0  0  0  0  0  0  0  0  0  0  0  0
  188.5680  177.3080  140.0100 C   0  0  1  0  0  3  0  0  0  0  0  0
  186.2370  178.1650  140.0120 C   0  0  0  0  0  2  0  0  0  0  0  0
  188.4630  177.8920  148.5990 C   0  0  0  0  0  3  0  0  0  0  0  0
  187.4370  177.9540  137.8540 C   0  0  0  0  0  2  0  0  0  0  0  0
  183.8630  178.9050  141.4780 C   0  0  0  0  0  2  0  0  0  0  0  0
  186.3010  178.2510  141.5210 C   0  0  0  0  0  0  0  0  0  0  0  0
  185.1170  178.5230  142.2330 C   0  0  0  0  0  0  0  0  0  0  0  0
  186.3090  178.2220  144.3300 C   0  0  0  0  0  0  0  0  0  0  0  0
  189.7680  177.6380  147.9560 C   0  0  0  0  0  3  0  0  0  0  0  0
  189.3260  179.2300  137.1430 F   0  0  0  0  0  0  0  0  0  0  0  0
  187.5970  178.2790  139.3400 C   0  0  2  0  0  3  0  0  0  0  0  0
  189.8710  177.5280  146.6290 C   0  0  0  0  0  3  0  0  0  0  0  0
  189.9150  177.3110  139.2920 C   0  0  0  0  0  2  0  0  0  0  0  0
  189.7340  176.9570  137.8160 C   0  0  2  0  0  3  0  0  0  0  0  0
  183.8620  178.7290  144.4370 C   0  0  0  0  0  2  0  0  0  0  0  0
  185.1310  178.5300  143.6440 C   0  0  0  0  0  0  0  0  0  0  0  0
  186.3020  178.1720  145.7300 O   0  0  0  0  0  0  0  0  0  0  0  0
  188.7850  177.7430  141.4500 C   0  0  0  0  0  2  0  0  0  0  0  0
  190.0130  177.8410  143.8630 O   0  0  0  0  0  1  0  0  0  0  0  0
  187.3260  177.8610  147.8940 C   0  0  0  0  0  3  0  0  0  0  0  0
  187.5110  177.9730  143.6350 C   0  0  0  0  0  0  0  0  0  0  0  0
  187.3150  177.4690  146.4420 C   0  0  2  0  0  3  0  0  0  0  0  0
  191.0750  176.9290  137.0990 C   0  0  0  0  0  2  0  0  0  0  0  0
  192.1760  176.4860  138.0450 C   0  0  0  0  0  3  0  0  0  0  0  0
  193.4250  176.1800  137.2440 C   0  0  0  0  0  2  0  0  0  0  0  0
  192.5440  175.0500  137.7340 C   0  0  0  0  0  2  0  0  0  0  0  0
  1 16  1  1  0  0  0
  1 20  1  0  0  0  0
  1 10  1  0  0  0  0
  2 27  1  0  0  0  0
  3  4  1  0  0  0  0
  4 21  1  0  0  0  0
  5  6  2  0  0  0  0
  6 28  1  0  0  0  0
  6 18  1  0  0  0  0
  7 19  1  6  0  0  0
  7 24  1  0  0  0  0
  8 12  1  0  0  0  0
 11 13  1  0  0  0  0
 11  3  1  0  0  0  0
 12  2  2  0  0  0  0
 12 13  1  0  0  0  0
 13 22  2  0  0  0  0
 14 23  1  0  0  0  0
 15  9  1  0  0  0  0
 17 10  1  6  0  0  0
 17  7  1  0  0  0  0
 17  8  1  0  0  0  0
 18 15  2  0  0  0  0
 20 29  1  6  0  0  0
 20 19  1  0  0  0  0
 22 14  1  0  0  0  0
 22 21  1  0  0  0  0
 23 28  1  0  0  0  0
 24  2  1  0  0  0  0
 25  5  1  0  0  0  0
 26  9  2  0  0  0  0
 27 14  2  0  0  0  0
 27  5  1  0  0  0  0
 28 26  1  1  0  0  0
 29 30  1  0  0  0  0
 31 32  1  0  0  0  0
 31 30  1  0  0  0  0
 32 30  1  0  0  0  0
M  END
>  <MODEL>
2

>  <REMARK>
 VINA RESULT:     -10.8      2.583      7.455
  Name = 
  2 active torsions:
  status: ('A' for Active; 'I' for Inactive)
    1  A    between atoms: C_1  and  C_10
    2  A    between atoms: C_10  and  C_24
                            x       y       z     vdW  Elec       q    Type
                         _______ _______ _______ _____ _____    ______ ____

>  <TORSDO>
F 2

$$$$
=
 OpenBabel10272413363D

 32 38  0  0  1  0  0  0  0  0999 V2000
  188.3010  177.2690  147.9100 C   0  0  1  0  0  3  0  0  0  0  0  0
  187.3010  177.9850  142.8190 C   0  0  0  0  0  0  0  0  0  0  0  0
  182.4840  179.1790  142.6060 C   0  0  0  0  0  2  0  0  0  0  0  0
  182.4260  178.5220  141.2390 C   0  0  0  0  0  2  0  0  0  0  0  0
  188.6020  177.7590  140.6180 C   0  0  0  0  0  0  0  0  0  0  0  0
  188.6320  177.9990  139.2970 C   0  0  0  0  0  0  0  0  0  0  0  0
  188.4530  178.0750  145.0780 C   0  0  1  0  0  3  0  0  0  0  0  0
  185.9740  178.1900  144.9890 C   0  0  0  0  0  2  0  0  0  0  0  0
  188.4500  177.9640  136.4700 C   0  0  0  0  0  3  0  0  0  0  0  0
  187.0820  177.8220  147.1750 C   0  0  0  0  0  2  0  0  0  0  0  0
  183.5540  178.4930  143.4450 C   0  0  0  0  0  2  0  0  0  0  0  0
  186.0560  178.1530  143.4790 C   0  0  0  0  0  0  0  0  0  0  0  0
  184.8860  178.3930  142.7330 C   0  0  0  0  0  0  0  0  0  0  0  0
  186.1790  178.3030  140.6760 C   0  0  0  0  0  0  0  0  0  0  0  0
  189.7270  177.6630  137.1470 C   0  0  0  0  0  3  0  0  0  0  0  0
  188.3040  175.8840  147.8460 F   0  0  0  0  0  0  0  0  0  0  0  0
  187.1580  177.5270  145.6770 C   0  0  2  0  0  3  0  0  0  0  0  0
  189.8150  177.6650  138.4800 C   0  0  0  0  0  3  0  0  0  0  0  0
  189.6680  177.5190  145.8170 C   0  0  0  0  0  2  0  0  0  0  0  0
  189.5820  177.8490  147.3080 C   0  0  2  0  0  3  0  0  0  0  0  0
  183.7310  178.7880  140.5000 C   0  0  0  0  0  2  0  0  0  0  0  0
  184.9480  178.4450  141.3250 C   0  0  0  0  0  0  0  0  0  0  0  0
  186.2430  178.4140  139.2820 O   0  0  0  0  0  0  0  0  0  0  0  0
  188.5380  177.6560  143.6200 C   0  0  0  0  0  2  0  0  0  0  0  0
  189.7230  177.1980  141.2260 O   0  0  0  0  0  1  0  0  0  0  0  0
  187.3870  178.4010  137.1560 C   0  0  0  0  0  3  0  0  0  0  0  0
  187.3570  178.0350  141.4040 C   0  0  0  0  0  0  0  0  0  0  0  0
  187.4750  178.7010  138.6270 C   0  0  2  0  0  3  0  0  0  0  0  0
  190.8030  177.3240  148.0480 C   0  0  0  0  0  2  0  0  0  0  0  0
  191.6710  176.4930  147.1210 C   0  0  0  0  0  3  0  0  0  0  0  0
  191.5100  175.0280  147.4710 C   0  0  0  0  0  2  0  0  0  0  0  0
  192.7320  175.7880  147.9400 C   0  0  0  0  0  2  0  0  0  0  0  0
  1 16  1  6  0  0  0
  2 12  1  0  0  0  0
  2 24  1  0  0  0  0
  3 11  1  0  0  0  0
  4  3  1  0  0  0  0
  5 25  1  0  0  0  0
  5 27  1  0  0  0  0
  6  5  2  0  0  0  0
  7 24  1  6  0  0  0
  7 17  1  0  0  0  0
  7 19  1  0  0  0  0
  9 15  1  0  0  0  0
  9 26  2  0  0  0  0
 10  1  1  0  0  0  0
 12  8  1  0  0  0  0
 13 11  1  0  0  0  0
 13 12  2  0  0  0  0
 14 22  2  0  0  0  0
 14 27  1  0  0  0  0
 15 18  2  0  0  0  0
 17  8  1  6  0  0  0
 17 10  1  0  0  0  0
 18  6  1  0  0  0  0
 19 20  1  0  0  0  0
 20  1  1  0  0  0  0
 20 29  1  1  0  0  0
 21  4  1  0  0  0  0
 21 22  1  0  0  0  0
 22 13  1  0  0  0  0
 23 14  1  0  0  0  0
 27  2  2  0  0  0  0
 28 26  1  6  0  0  0
 28 23  1  0  0  0  0
 28  6  1  0  0  0  0
 30 31  1  0  0  0  0
 30 32  1  0  0  0  0
 30 29  1  0  0  0  0
 31 32  1  0  0  0  0
M  END
>  <MODEL>
3

>  <REMARK>
 VINA RESULT:     -10.7      2.442      7.215
  Name = 
  2 active torsions:
  status: ('A' for Active; 'I' for Inactive)
    1  A    between atoms: C_1  and  C_10
    2  A    between atoms: C_10  and  C_24
                            x       y       z     vdW  Elec       q    Type
                         _______ _______ _______ _____ _____    ______ ____

>  <TORSDO>
F 2

$$$$
=
 OpenBabel10272413363D

 32 38  0  0  1  0  0  0  0  0999 V2000
  191.1150  176.5540  137.6640 C   0  0  1  0  0  3  0  0  0  0  0  0
  188.4160  177.5700  142.0350 C   0  0  0  0  0  0  0  0  0  0  0  0
  191.6780  176.9750  145.7330 C   0  0  0  0  0  2  0  0  0  0  0  0
  190.5270  176.5390  146.6210 C   0  0  0  0  0  2  0  0  0  0  0  0
  185.9850  178.1370  142.6300 C   0  0  0  0  0  0  0  0  0  0  0  0
  185.1230  178.5550  143.5710 C   0  0  0  0  0  0  0  0  0  0  0  0
  189.3160  177.7500  139.6690 C   0  0  1  0  0  3  0  0  0  0  0  0
  190.8350  176.9790  141.4760 C   0  0  0  0  0  2  0  0  0  0  0  0
  183.2410  178.8530  145.6690 C   0  0  0  0  0  3  0  0  0  0  0  0
  191.5510  176.7300  139.1170 C   0  0  0  0  0  2  0  0  0  0  0  0
  191.3620  176.6080  144.2890 C   0  0  0  0  0  2  0  0  0  0  0  0
  189.7120  177.1860  142.4690 C   0  0  0  0  0  0  0  0  0  0  0  0
  190.0000  177.0920  143.8440 C   0  0  0  0  0  0  0  0  0  0  0  0
  187.7210  177.7620  144.3660 C   0  0  0  0  0  0  0  0  0  0  0  0
  182.8170  178.9390  144.2570 C   0  0  0  0  0  3  0  0  0  0  0  0
  190.5860  175.2850  137.4790 F   0  0  0  0  0  0  0  0  0  0  0  0
  190.3500  176.6960  140.0620 C   0  0  2  0  0  3  0  0  0  0  0  0
  183.6980  178.7850  143.2640 C   0  0  0  0  0  3  0  0  0  0  0  0
  188.8850  177.5690  138.2160 C   0  0  0  0  0  2  0  0  0  0  0  0
  190.0980  177.6330  137.2880 C   0  0  2  0  0  3  0  0  0  0  0  0
  189.2900  177.3570  146.2730 C   0  0  0  0  0  2  0  0  0  0  0  0
  188.9920  177.3600  144.7930 C   0  0  0  0  0  0  0  0  0  0  0  0
  186.7420  178.0830  145.3140 O   0  0  0  0  0  0  0  0  0  0  0  0
  188.0930  177.5980  140.5600 C   0  0  0  0  0  2  0  0  0  0  0  0
  185.5190  177.9350  141.3330 O   0  0  0  0  0  1  0  0  0  0  0  0
  184.5350  178.7800  146.0010 C   0  0  0  0  0  3  0  0  0  0  0  0
  187.4060  177.8350  142.9930 C   0  0  0  0  0  0  0  0  0  0  0  0
  185.6170  178.8820  144.9610 C   0  0  2  0  0  3  0  0  0  0  0  0
  189.6750  177.4820  135.8350 C   0  0  0  0  0  2  0  0  0  0  0  0
  188.2260  177.0410  135.7450 C   0  0  0  0  0  3  0  0  0  0  0  0
  188.0920  175.9960  134.6560 C   0  0  0  0  0  2  0  0  0  0  0  0
  187.6780  177.4260  134.3870 C   0  0  0  0  0  2  0  0  0  0  0  0
  1 16  1  1  0  0  0
  1 10  1  0  0  0  0
  2 12  2  0  0  0  0
  2 27  1  0  0  0  0
  3  4  1  0  0  0  0
  5 27  1  0  0  0  0
  5  6  2  0  0  0  0
  6 28  1  0  0  0  0
  7 19  1  6  0  0  0
  7 17  1  0  0  0  0
  7 24  1  0  0  0  0
  8 12  1  0  0  0  0
  9 26  2  0  0  0  0
 11  3  1  0  0  0  0
 12 13  1  0  0  0  0
 13 11  1  0  0  0  0
 13 22  2  0  0  0  0
 14 22  1  0  0  0  0
 14 23  1  0  0  0  0
 15  9  1  0  0  0  0
 17 10  1  6  0  0  0
 17  8  1  0  0  0  0
 18  6  1  0  0  0  0
 18 15  2  0  0  0  0
 20 29  1  6  0  0  0
 20  1  1  0  0  0  0
 20 19  1  0  0  0  0
 21  4  1  0  0  0  0
 22 21  1  0  0  0  0
 24  2  1  0  0  0  0
 25  5  1  0  0  0  0
 27 14  2  0  0  0  0
 28 23  1  0  0  0  0
 28 26  1  1  0  0  0
 30 29  1  0  0  0  0
 31 30  1  0  0  0  0
 32 31  1  0  0  0  0
 32 30  1  0  0  0  0
M  END
>  <MODEL>
4

>  <REMARK>
 VINA RESULT:     -10.4      3.097      7.098
  Name = 
  2 active torsions:
  status: ('A' for Active; 'I' for Inactive)
    1  A    between atoms: C_1  and  C_10
    2  A    between atoms: C_10  and  C_24
                            x       y       z     vdW  Elec       q    Type
                         _______ _______ _______ _____ _____    ______ ____

>  <TORSDO>
F 2

$$$$
=
 OpenBabel10272413363D

 32 38  0  0  1  0  0  0  0  0999 V2000
  187.6930  178.3400  136.7460 C   0  0  1  0  0  3  0  0  0  0  0  0
  188.0000  177.7800  141.9440 C   0  0  0  0  0  0  0  0  0  0  0  0
  183.4280  178.7600  143.6200 C   0  0  0  0  0  2  0  0  0  0  0  0
  184.0550  179.2840  144.8980 C   0  0  0  0  0  2  0  0  0  0  0  0
  189.8460  177.2760  143.6550 C   0  0  0  0  0  0  0  0  0  0  0  0
  190.1500  176.9570  144.9230 C   0  0  0  0  0  0  0  0  0  0  0  0
  188.2940  177.3570  139.4590 C   0  0  1  0  0  3  0  0  0  0  0  0
  186.1500  178.3130  140.2690 C   0  0  0  0  0  2  0  0  0  0  0  0
  190.8260  176.8760  147.6740 C   0  0  0  0  0  3  0  0  0  0  0  0
  186.6240  178.3160  137.8370 C   0  0  0  0  0  2  0  0  0  0  0  0
  184.3960  178.9750  142.4640 C   0  0  0  0  0  2  0  0  0  0  0  0
  186.6720  178.2090  141.6850 C   0  0  0  0  0  0  0  0  0  0  0  0
  185.7840  178.4450  142.7520 C   0  0  0  0  0  0  0  0  0  0  0  0
  187.5230  177.8310  144.3360 C   0  0  0  0  0  0  0  0  0  0  0  0
  191.8520  176.6440  146.6380 C   0  0  0  0  0  3  0  0  0  0  0  0
  188.3090  179.5820  136.7150 F   0  0  0  0  0  0  0  0  0  0  0  0
  187.2490  178.4470  139.2260 C   0  0  2  0  0  3  0  0  0  0  0  0
  191.5420  176.6950  145.3400 C   0  0  0  0  0  3  0  0  0  0  0  0
  189.3590  177.3860  138.3660 C   0  0  0  0  0  2  0  0  0  0  0  0
  188.7140  177.2270  136.9890 C   0  0  2  0  0  3  0  0  0  0  0  0
  185.2700  178.4330  145.2440 C   0  0  0  0  0  2  0  0  0  0  0  0
  186.2210  178.2760  144.0820 C   0  0  0  0  0  0  0  0  0  0  0  0
  187.9320  177.6090  145.6570 O   0  0  0  0  0  0  0  0  0  0  0  0
  188.9690  177.6000  140.8000 C   0  0  0  0  0  2  0  0  0  0  0  0
  190.8700  177.3410  142.7130 O   0  0  0  0  0  1  0  0  0  0  0  0
  189.5310  176.9850  147.3550 C   0  0  0  0  0  3  0  0  0  0  0  0
  188.4350  177.6160  143.2820 C   0  0  0  0  0  0  0  0  0  0  0  0
  189.0520  176.7770  145.9440 C   0  0  2  0  0  3  0  0  0  0  0  0
  189.7700  177.2260  135.8950 C   0  0  0  0  0  2  0  0  0  0  0  0
  190.3060  175.8240  135.6730 C   0  0  0  0  0  3  0  0  0  0  0  0
  191.8030  175.8210  135.9120 C   0  0  0  0  0  2  0  0  0  0  0  0
  191.2620  175.8430  134.4980 C   0  0  0  0  0  2  0  0  0  0  0  0
  1 16  1  1  0  0  0
  1 20  1  0  0  0  0
  1 10  1  0  0  0  0
  2 27  1  0  0  0  0
  3  4  1  0  0  0  0
  4 21  1  0  0  0  0
  5  6  2  0  0  0  0
  6 18  1  0  0  0  0
  6 28  1  0  0  0  0
  7 19  1  6  0  0  0
  7 24  1  0  0  0  0
  8 12  1  0  0  0  0
 11 13  1  0  0  0  0
 11  3  1  0  0  0  0
 12  2  2  0  0  0  0
 12 13  1  0  0  0  0
 13 22  2  0  0  0  0
 14 23  1  0  0  0  0
 15  9  1  0  0  0  0
 17 10  1  6  0  0  0
 17  7  1  0  0  0  0
 17  8  1  0  0  0  0
 18 15  2  0  0  0  0
 20 29  1  6  0  0  0
 20 19  1  0  0  0  0
 22 14  1  0  0  0  0
 22 21  1  0  0  0  0
 23 28  1  0  0  0  0
 24  2  1  0  0  0  0
 25  5  1  0  0  0  0
 26  9  2  0  0  0  0
 27  5  1  0  0  0  0
 27 14  2  0  0  0  0
 28 26  1  1  0  0  0
 30 29  1  0  0  0  0
 30 31  1  0  0  0  0
 32 30  1  0  0  0  0
 32 31  1  0  0  0  0
M  END
>  <MODEL>
5

>  <REMARK>
 VINA RESULT:     -10.2      2.909      6.737
  Name = 
  2 active torsions:
  status: ('A' for Active; 'I' for Inactive)
    1  A    between atoms: C_1  and  C_10
    2  A    between atoms: C_10  and  C_24
                            x       y       z     vdW  Elec       q    Type
                         _______ _______ _______ _____ _____    ______ ____

>  <TORSDO>
F 2

$$$$
=
 OpenBabel10272413363D

 32 38  0  0  1  0  0  0  0  0999 V2000
  191.6210  177.6350  144.4320 C   0  0  1  0  0  3  0  0  0  0  0  0
  186.9810  178.1860  142.0670 C   0  0  0  0  0  0  0  0  0  0  0  0
  187.9500  177.7740  137.2130 C   0  0  0  0  0  2  0  0  0  0  0  0
  186.7870  178.7110  136.9450 C   0  0  0  0  0  2  0  0  0  0  0  0
  184.5710  178.6920  142.7930 C   0  0  0  0  0  0  0  0  0  0  0  0
  183.2760  178.7410  142.4430 C   0  0  0  0  0  0  0  0  0  0  0  0
  188.7700  177.4450  143.7080 C   0  0  1  0  0  3  0  0  0  0  0  0
  189.3720  177.7110  141.3130 C   0  0  0  0  0  2  0  0  0  0  0  0
  180.6660  179.4130  141.5680 C   0  0  0  0  0  3  0  0  0  0  0  0
  191.1810  177.4350  142.9830 C   0  0  0  0  0  2  0  0  0  0  0  0
  188.5530  178.1010  138.5730 C   0  0  0  0  0  2  0  0  0  0  0  0
  187.9300  178.0610  141.0190 C   0  0  0  0  0  0  0  0  0  0  0  0
  187.5180  178.1590  139.6760 C   0  0  0  0  0  0  0  0  0  0  0  0
  185.2240  178.5040  140.4040 C   0  0  0  0  0  0  0  0  0  0  0  0
  180.9920  179.3720  143.0080 C   0  0  0  0  0  3  0  0  0  0  0  0
  191.7930  178.9860  144.6920 F   0  0  0  0  0  0  0  0  0  0  0  0
  189.7960  178.0320  142.7380 C   0  0  2  0  0  3  0  0  0  0  0  0
  182.2240  179.0700  143.4250 C   0  0  0  0  0  3  0  0  0  0  0  0
  189.2150  177.6480  145.1540 C   0  0  0  0  0  2  0  0  0  0  0  0
  190.5900  177.0200  145.3810 C   0  0  2  0  0  3  0  0  0  0  0  0
  185.6730  178.4260  137.9440 C   0  0  0  0  0  2  0  0  0  0  0  0
  186.1630  178.4040  139.3720 C   0  0  0  0  0  0  0  0  0  0  0  0
  183.8710  178.6880  140.0930 O   0  0  0  0  0  0  0  0  0  0  0  0
  187.4390  178.1530  143.5050 C   0  0  0  0  0  2  0  0  0  0  0  0
  184.9210  178.9420  144.1180 O   0  0  0  0  0  1  0  0  0  0  0  0
  181.5420  178.9950  140.6470 C   0  0  0  0  0  3  0  0  0  0  0  0
  185.6210  178.4360  141.7550 C   0  0  0  0  0  0  0  0  0  0  0  0
  182.8550  178.3750  141.0400 C   0  0  2  0  0  3  0  0  0  0  0  0
  191.0290  177.1920  146.8270 C   0  0  0  0  0  2  0  0  0  0  0  0
  191.2930  175.8420  147.4670 C   0  0  0  0  0  3  0  0  0  0  0  0
  192.6960  175.8320  148.0430 C   0  0  0  0  0  2  0  0  0  0  0  0
  192.4160  175.1530  146.7190 C   0  0  0  0  0  2  0  0  0  0  0  0
  1 16  1  1  0  0  0
  1 20  1  0  0  0  0
  2 24  1  0  0  0  0
  3 11  1  0  0  0  0
  4  3  1  0  0  0  0
  4 21  1  0  0  0  0
  5 25  1  0  0  0  0
  6  5  2  0  0  0  0
  6 18  1  0  0  0  0
  7 24  1  1  0  0  0
  7 19  1  0  0  0  0
  9 15  1  0  0  0  0
 10  1  1  0  0  0  0
 11 13  1  0  0  0  0
 12  8  1  0  0  0  0
 12  2  2  0  0  0  0
 13 12  1  0  0  0  0
 14 27  2  0  0  0  0
 15 18  2  0  0  0  0
 17  8  1  6  0  0  0
 17 10  1  0  0  0  0
 17  7  1  0  0  0  0
 19 20  1  0  0  0  0
 20 29  1  1  0  0  0
 21 22  1  0  0  0  0
 22 13  2  0  0  0  0
 22 14  1  0  0  0  0
 23 14  1  0  0  0  0
 23 28  1  0  0  0  0
 26  9  2  0  0  0  0
 27  2  1  0  0  0  0
 27  5  1  0  0  0  0
 28 26  1  6  0  0  0
 28  6  1  0  0  0  0
 29 30  1  0  0  0  0
 30 31  1  0  0  0  0
 32 30  1  0  0  0  0
 32 31  1  0  0  0  0
M  END
>  <MODEL>
6

>  <REMARK>
 VINA RESULT:     -10.1      2.908      8.851
  Name = 
  2 active torsions:
  status: ('A' for Active; 'I' for Inactive)
    1  A    between atoms: C_1  and  C_10
    2  A    between atoms: C_10  and  C_24
                            x       y       z     vdW  Elec       q    Type
                         _______ _______ _______ _____ _____    ______ ____

>  <TORSDO>
F 2

$$$$
=
 OpenBabel10272413363D

 32 38  0  0  1  0  0  0  0  0999 V2000
  191.0080  176.9230  138.8710 C   0  0  1  0  0  3  0  0  0  0  0  0
  187.0880  177.9190  142.1990 C   0  0  0  0  0  0  0  0  0  0  0  0
  189.1590  177.7790  146.7110 C   0  0  0  0  0  2  0  0  0  0  0  0
  187.8300  177.2920  147.2590 C   0  0  0  0  0  2  0  0  0  0  0  0
  184.5570  178.3060  142.0270 C   0  0  0  0  0  0  0  0  0  0  0  0
  183.4320  178.6950  142.6490 C   0  0  0  0  0  0  0  0  0  0  0  0
  188.6260  178.0590  140.1840 C   0  0  1  0  0  3  0  0  0  0  0  0
  189.5980  177.5070  142.4020 C   0  0  0  0  0  2  0  0  0  0  0  0
  181.0030  178.9350  144.0900 C   0  0  0  0  0  3  0  0  0  0  0  0
  190.9870  177.2050  140.3720 C   0  0  0  0  0  2  0  0  0  0  0  0
  189.3040  177.3180  145.2670 C   0  0  0  0  0  2  0  0  0  0  0  0
  188.2230  177.6660  143.0120 C   0  0  0  0  0  0  0  0  0  0  0  0
  188.1020  177.6640  144.4150 C   0  0  0  0  0  0  0  0  0  0  0  0
  185.7310  178.1630  144.2110 C   0  0  0  0  0  0  0  0  0  0  0  0
  181.0060  178.9160  142.6130 C   0  0  0  0  0  3  0  0  0  0  0  0
  190.6420  175.6070  138.6330 F   0  0  0  0  0  0  0  0  0  0  0  0
  189.5680  177.1150  140.9320 C   0  0  2  0  0  3  0  0  0  0  0  0
  182.1470  178.7890  141.9300 C   0  0  0  0  0  3  0  0  0  0  0  0
  188.6510  177.7710  138.6850 C   0  0  0  0  0  2  0  0  0  0  0  0
  190.0760  177.8930  138.1440 C   0  0  2  0  0  3  0  0  0  0  0  0
  186.6970  177.9850  146.5130 C   0  0  0  0  0  2  0  0  0  0  0  0
  186.8450  177.8910  145.0130 C   0  0  0  0  0  0  0  0  0  0  0  0
  184.4990  178.4470  144.8130 O   0  0  0  0  0  0  0  0  0  0  0  0
  187.2090  177.8470  140.6950 C   0  0  0  0  0  2  0  0  0  0  0  0
  184.5050  178.0040  140.6690 O   0  0  0  0  0  1  0  0  0  0  0  0
  182.1460  178.9870  144.7840 C   0  0  0  0  0  3  0  0  0  0  0  0
  185.8270  178.1430  142.8040 C   0  0  0  0  0  0  0  0  0  0  0  0
  183.4760  179.1290  144.0950 C   0  0  2  0  0  3  0  0  0  0  0  0
  190.1070  177.6370  136.6450 C   0  0  0  0  0  2  0  0  0  0  0  0
  188.7490  177.1670  136.1560 C   0  0  0  0  0  3  0  0  0  0  0  0
  188.9320  175.9340  135.2930 C   0  0  0  0  0  2  0  0  0  0  0  0
  188.7020  177.2840  134.6470 C   0  0  0  0  0  2  0  0  0  0  0  0
  1 16  1  1  0  0  0
  1 10  1  0  0  0  0
  2 27  2  0  0  0  0
  2 12  1  0  0  0  0
  3  4  1  0  0  0  0
  5  6  2  0  0  0  0
  5 27  1  0  0  0  0
  6 28  1  0  0  0  0
  7 19  1  6  0  0  0
  7 24  1  0  0  0  0
  7 17  1  0  0  0  0
  8 12  1  0  0  0  0
  9 26  2  0  0  0  0
 11  3  1  0  0  0  0
 12 13  2  0  0  0  0
 13 22  1  0  0  0  0
 13 11  1  0  0  0  0
 14 23  1  0  0  0  0
 14 22  2  0  0  0  0
 15  9  1  0  0  0  0
 17 10  1  6  0  0  0
 17  8  1  0  0  0  0
 18 15  2  0  0  0  0
 18  6  1  0  0  0  0
 20 29  1  6  0  0  0
 20 19  1  0  0  0  0
 20  1  1  0  0  0  0
 21  4  1  0  0  0  0
 22 21  1  0  0  0  0
 24  2  1  0  0  0  0
 25  5  1  0  0  0  0
 27 14  1  0  0  0  0
 28 26  1  1  0  0  0
 28 23  1  0  0  0  0
 30 29  1  0  0  0  0
 31 30  1  0  0  0  0
 32 31  1  0  0  0  0
 32 30  1  0  0  0  0
M  END
>  <MODEL>
7

>  <REMARK>
 VINA RESULT:     -10.0      2.813      7.138
  Name = 
  2 active torsions:
  status: ('A' for Active; 'I' for Inactive)
    1  A    between atoms: C_1  and  C_10
    2  A    between atoms: C_10  and  C_24
                            x       y       z     vdW  Elec       q    Type
                         _______ _______ _______ _____ _____    ______ ____

>  <TORSDO>
F 2

$$$$
=
 OpenBabel10272413363D

 32 38  0  0  1  0  0  0  0  0999 V2000
  190.8860  177.5760  144.8180 C   0  0  1  0  0  3  0  0  0  0  0  0
  186.9650  178.0900  141.3850 C   0  0  0  0  0  0  0  0  0  0  0  0
  189.1200  177.8310  136.9170 C   0  0  0  0  0  2  0  0  0  0  0  0
  188.0350  178.7500  136.3880 C   0  0  0  0  0  2  0  0  0  0  0  0
  184.4380  178.5240  141.4980 C   0  0  0  0  0  0  0  0  0  0  0  0
  183.2690  178.5540  140.8380 C   0  0  0  0  0  0  0  0  0  0  0  0
  188.3110  177.3440  143.4030 C   0  0  1  0  0  3  0  0  0  0  0  0
  189.4810  177.6890  141.2400 C   0  0  0  0  0  2  0  0  0  0  0  0
  180.9400  179.1910  139.3550 C   0  0  0  0  0  3  0  0  0  0  0  0
  190.8260  177.4060  143.3020 C   0  0  0  0  0  2  0  0  0  0  0  0
  189.3570  178.1340  138.3910 C   0  0  0  0  0  2  0  0  0  0  0  0
  188.1480  178.0150  140.6030 C   0  0  0  0  0  0  0  0  0  0  0  0
  188.0800  178.1400  139.2030 C   0  0  0  0  0  0  0  0  0  0  0  0
  185.6680  178.4150  139.3440 C   0  0  0  0  0  0  0  0  0  0  0  0
  180.8990  179.1190  140.8300 C   0  0  0  0  0  3  0  0  0  0  0  0
  190.9510  178.9230  145.1410 F   0  0  0  0  0  0  0  0  0  0  0  0
  189.5280  177.9800  142.7320 C   0  0  2  0  0  3  0  0  0  0  0  0
  181.9980  178.8320  141.5340 C   0  0  0  0  0  3  0  0  0  0  0  0
  188.3770  177.5170  144.9180 C   0  0  0  0  0  2  0  0  0  0  0  0
  189.6690  176.9130  145.4680 C   0  0  2  0  0  3  0  0  0  0  0  0
  186.7160  178.4130  137.0720 C   0  0  0  0  0  2  0  0  0  0  0  0
  186.8370  178.3640  138.5760 C   0  0  0  0  0  0  0  0  0  0  0  0
  184.4310  178.5780  138.7100 O   0  0  0  0  0  0  0  0  0  0  0  0
  187.0530  178.0280  142.8910 C   0  0  0  0  0  2  0  0  0  0  0  0
  184.4400  178.7450  142.8740 O   0  0  0  0  0  1  0  0  0  0  0  0
  182.0290  178.8180  138.6730 C   0  0  0  0  0  3  0  0  0  0  0  0
  185.7190  178.3180  140.7500 C   0  0  0  0  0  0  0  0  0  0  0  0
  183.2200  178.2170  139.3670 C   0  0  2  0  0  3  0  0  0  0  0  0
  189.7310  177.0550  146.9810 C   0  0  0  0  0  2  0  0  0  0  0  0
  188.6820  178.0380  147.4670 C   0  0  0  0  0  3  0  0  0  0  0  0
  188.9820  178.4130  148.9040 C   0  0  0  0  0  2  0  0  0  0  0  0
  187.8980  177.4030  148.5960 C   0  0  0  0  0  2  0  0  0  0  0  0
  1 16  1  6  0  0  0
  1 20  1  0  0  0  0
  2 24  1  0  0  0  0
  3 11  1  0  0  0  0
  4  3  1  0  0  0  0
  4 21  1  0  0  0  0
  5 25  1  0  0  0  0
  6  5  2  0  0  0  0
  6 18  1  0  0  0  0
  7 24  1  6  0  0  0
  7 19  1  0  0  0  0
  9 15  1  0  0  0  0
 10  1  1  0  0  0  0
 11 13  1  0  0  0  0
 12  8  1  0  0  0  0
 12  2  2  0  0  0  0
 13 12  1  0  0  0  0
 14 27  2  0  0  0  0
 15 18  2  0  0  0  0
 17  8  1  6  0  0  0
 17 10  1  0  0  0  0
 17  7  1  0  0  0  0
 19 20  1  0  0  0  0
 20 29  1  1  0  0  0
 21 22  1  0  0  0  0
 22 13  2  0  0  0  0
 22 14  1  0  0  0  0
 23 14  1  0  0  0  0
 23 28  1  0  0  0  0
 26  9  2  0  0  0  0
 27  2  1  0  0  0  0
 27  5  1  0  0  0  0
 28 26  1  6  0  0  0
 28  6  1  0  0  0  0
 29 30  1  0  0  0  0
 30 32  1  0  0  0  0
 30 31  1  0  0  0  0
 32 31  1  0  0  0  0
M  END
>  <MODEL>
8

>  <REMARK>
 VINA RESULT:      -9.7      2.588      8.332
  Name = 
  2 active torsions:
  status: ('A' for Active; 'I' for Inactive)
    1  A    between atoms: C_1  and  C_10
    2  A    between atoms: C_10  and  C_24
                            x       y       z     vdW  Elec       q    Type
                         _______ _______ _______ _____ _____    ______ ____

>  <TORSDO>
F 2

$$$$
=
 OpenBabel10272413363D

 32 38  0  0  1  0  0  0  0  0999 V2000
  182.5930  178.7000  140.1160 C   0  0  1  0  0  3  0  0  0  0  0  0
  187.3120  177.8830  142.2350 C   0  0  0  0  0  0  0  0  0  0  0  0
  190.4730  177.9260  138.4040 C   0  0  0  0  0  2  0  0  0  0  0  0
  191.3470  176.9500  139.1690 C   0  0  0  0  0  2  0  0  0  0  0  0
  188.2400  177.3950  144.5780 C   0  0  0  0  0  0  0  0  0  0  0  0
  189.3250  177.2960  145.3620 C   0  0  0  0  0  0  0  0  0  0  0  0
  184.9690  178.7830  141.8590 C   0  0  1  0  0  3  0  0  0  0  0  0
  186.4160  178.3380  139.8900 C   0  0  0  0  0  2  0  0  0  0  0  0
  191.6030  176.5130  146.8560 C   0  0  0  0  0  3  0  0  0  0  0  0
  184.0030  178.7770  139.5340 C   0  0  0  0  0  2  0  0  0  0  0  0
  189.0190  177.7180  138.8080 C   0  0  0  0  0  2  0  0  0  0  0  0
  187.5290  177.9410  140.8340 C   0  0  0  0  0  0  0  0  0  0  0  0
  188.8180  177.7290  140.3080 C   0  0  0  0  0  0  0  0  0  0  0  0
  189.6830  177.4040  142.5570 C   0  0  0  0  0  0  0  0  0  0  0  0
  190.2890  176.6730  147.5110 C   0  0  0  0  0  3  0  0  0  0  0  0
  182.1860  177.3770  140.1970 F   0  0  0  0  0  0  0  0  0  0  0  0
  185.0250  178.1390  140.4740 C   0  0  2  0  0  3  0  0  0  0  0  0
  189.2100  177.0290  146.8090 C   0  0  0  0  0  3  0  0  0  0  0  0
  183.5580  178.7030  142.4350 C   0  0  0  0  0  2  0  0  0  0  0  0
  182.5580  179.3710  141.4910 C   0  0  2  0  0  3  0  0  0  0  0  0
  191.3020  177.2950  140.6520 C   0  0  0  0  0  2  0  0  0  0  0  0
  189.8920  177.4380  141.1740 C   0  0  0  0  0  0  0  0  0  0  0  0
  190.7650  177.1730  143.4150 O   0  0  0  0  0  0  0  0  0  0  0  0
  185.9150  178.0380  142.7880 C   0  0  0  0  0  2  0  0  0  0  0  0
  186.9790  177.2570  145.1540 O   0  0  0  0  0  1  0  0  0  0  0  0
  191.7890  176.8710  145.5800 C   0  0  0  0  0  3  0  0  0  0  0  0
  188.3940  177.5860  143.1010 C   0  0  0  0  0  0  0  0  0  0  0  0
  190.7010  177.5430  144.7880 C   0  0  2  0  0  3  0  0  0  0  0  0
  181.1530  179.3220  142.0710 C   0  0  0  0  0  2  0  0  0  0  0  0
  181.1920  178.8990  143.5270 C   0  0  0  0  0  3  0  0  0  0  0  0
  179.9960  178.0150  143.8190 C   0  0  0  0  0  2  0  0  0  0  0  0
  179.9820  179.4700  144.2380 C   0  0  0  0  0  2  0  0  0  0  0  0
  1 16  1  1  0  0  0
  1 20  1  0  0  0  0
  2 24  1  0  0  0  0
  2 27  1  0  0  0  0
  3 11  1  0  0  0  0
  3  4  1  0  0  0  0
  4 21  1  0  0  0  0
  5 25  1  0  0  0  0
  5  6  2  0  0  0  0
  6 18  1  0  0  0  0
  7 19  1  1  0  0  0
  7 24  1  0  0  0  0
  8 17  1  0  0  0  0
  8 12  1  0  0  0  0
  9 15  1  0  0  0  0
 10  1  1  0  0  0  0
 11 13  1  0  0  0  0
 12  2  2  0  0  0  0
 13 12  1  0  0  0  0
 13 22  2  0  0  0  0
 14 27  2  0  0  0  0
 14 23  1  0  0  0  0
 17 10  1  6  0  0  0
 17  7  1  0  0  0  0
 18 15  2  0  0  0  0
 20 29  1  1  0  0  0
 20 19  1  0  0  0  0
 21 22  1  0  0  0  0
 22 14  1  0  0  0  0
 23 28  1  0  0  0  0
 26  9  2  0  0  0  0
 27  5  1  0  0  0  0
 28  6  1  0  0  0  0
 28 26  1  1  0  0  0
 29 30  1  0  0  0  0
 30 31  1  0  0  0  0
 30 32  1  0  0  0  0
 31 32  1  0  0  0  0
M  END
>  <MODEL>
9

>  <REMARK>
 VINA RESULT:      -9.4      1.821      4.915
  Name = 
  2 active torsions:
  status: ('A' for Active; 'I' for Inactive)
    1  A    between atoms: C_1  and  C_10
    2  A    between atoms: C_10  and  C_24
                            x       y       z     vdW  Elec       q    Type
                         _______ _______ _______ _____ _____    ______ ____

>  <TORSDO>
F 2

$$$$
