=
 OpenBabel10272415223D

 34 37  0  0  1  0  0  0  0  0999 V2000
  183.7710  177.7900  138.6000 N   0  0  0  0  0  0  0  0  0  0  0  0
  186.5820  176.4250  136.4480 C   0  0  0  0  0  3  0  0  0  0  0  0
  184.4240  175.4350  136.8720 C   0  0  0  0  0  2  0  0  0  0  0  0
  181.7860  176.3360  139.2160 C   0  0  0  0  0  3  0  0  0  0  0  0
  181.4110  175.0950  138.8250 N   0  0  0  0  0  2  0  0  0  0  0  0
  183.2530  175.5290  137.7940 C   0  0  0  0  0  0  0  0  0  0  0  0
  182.9610  176.6140  138.5550 C   0  0  0  0  0  0  0  0  0  0  0  0
  182.2940  174.6050  137.9600 N   0  0  0  0  0  0  0  0  0  0  0  0
  185.3910  176.5870  137.0460 C   0  0  0  0  0  0  0  0  0  0  0  0
  185.7000  178.8440  137.8270 O   0  0  0  0  0  0  0  0  0  0  0  0
  184.9900  177.8030  137.8320 C   0  0  0  0  0  0  0  0  0  0  0  0
  187.7490  177.3660  136.4320 C   0  0  2  0  0  3  0  0  0  0  0  0
  188.3450  177.4110  135.1830 F   0  0  0  0  0  0  0  0  0  0  0  0
  188.7520  177.0350  137.5290 C   0  0  0  0  0  2  0  0  0  0  0  0
  189.1640  178.2730  138.2470 C   0  0  0  0  0  0  0  0  0  0  0  0
  188.9670  179.5160  137.6610 O   0  0  0  0  0  0  0  0  0  0  0  0
  189.7210  178.1910  139.3740 O   0  0  0  0  0  1  0  0  0  0  0  0
  183.4090  178.9090  139.4640 C   0  0  0  0  0  2  0  0  0  0  0  0
  184.3400  178.9840  140.6240 C   0  0  0  0  0  0  0  0  0  0  0  0
  185.2950  179.8050  140.5990 O   0  0  0  0  0  0  0  0  0  0  0  0
  184.1090  178.1460  141.7640 N   0  0  0  0  0  2  0  0  0  0  0  0
  184.9560  178.6090  145.3650 C   0  0  0  0  0  3  0  0  0  0  0  0
  186.1810  177.6510  143.0340 C   0  0  0  0  0  3  0  0  0  0  0  0
  188.2970  177.6490  146.6370 C   0  0  0  0  0  0  0  0  0  0  0  0
  186.9820  178.1290  146.6100 C   0  0  0  0  0  3  0  0  0  0  0  0
  186.2680  178.1340  145.4120 C   0  0  0  0  0  0  0  0  0  0  0  0
  188.1640  177.1900  144.2870 N   0  0  0  0  0  0  0  0  0  0  0  0
  186.8850  177.6510  144.2410 C   0  0  0  0  0  0  0  0  0  0  0  0
  188.8730  177.1790  145.4490 C   0  0  0  0  0  3  0  0  0  0  0  0
  184.8610  178.1280  142.9840 C   0  0  0  0  0  0  0  0  0  0  0  0
  184.2580  178.6050  144.1540 C   0  0  0  0  0  3  0  0  0  0  0  0
  189.0670  177.6360  147.8920 C   0  0  0  0  0  0  0  0  0  0  0  0
  188.4870  178.0860  149.0730 O   0  0  0  0  0  1  0  0  0  0  0  0
  190.2550  177.2190  147.9070 O   0  0  0  0  0  0  0  0  0  0  0  0
  1 18  1  0  0  0  0
  2  9  2  0  0  0  0
  3  9  1  0  0  0  0
  3  6  1  0  0  0  0
  5  4  1  0  0  0  0
  6  8  2  0  0  0  0
  6  7  1  0  0  0  0
  7  1  1  0  0  0  0
  7  4  2  0  0  0  0
  8  5  1  0  0  0  0
  9 11  1  0  0  0  0
 10 11  2  0  0  0  0
 11  1  1  0  0  0  0
 12 13  1  6  0  0  0
 12  2  1  0  0  0  0
 12 14  1  0  0  0  0
 14 15  1  0  0  0  0
 15 17  1  0  0  0  0
 16 15  2  0  0  0  0
 18 19  1  0  0  0  0
 19 21  1  0  0  0  0
 20 19  2  0  0  0  0
 21 30  1  0  0  0  0
 22 26  1  0  0  0  0
 23 28  1  0  0  0  0
 24 32  1  0  0  0  0
 25 24  1  0  0  0  0
 26 25  2  0  0  0  0
 27 29  1  0  0  0  0
 28 27  2  0  0  0  0
 28 26  1  0  0  0  0
 29 24  2  0  0  0  0
 30 23  2  0  0  0  0
 30 31  1  0  0  0  0
 31 22  2  0  0  0  0
 32 34  2  0  0  0  0
 32 33  1  0  0  0  0
M  END
>  <MODEL>
1

>  <REMARK>
 VINA RESULT:      -8.8      0.000      0.000
  Name = 
  7 active torsions:
  status: ('A' for Active; 'I' for Inactive)
    1  A    between atoms: N_1  and  C_9
    2  A    between atoms: C_2  and  C_23
    3  A    between atoms: C_3  and  C_27
    4  A    between atoms: C_7  and  C_11
    5  A    between atoms: C_8  and  C_9
    6  A    between atoms: N_18  and  C_30
    7  A    between atoms: C_23  and  C_27
                            x       y       z     vdW  Elec       q    Type
                         _______ _______ _______ _____ _____    ______ ____

>  <TORSDO>
F 7

$$$$
=
 OpenBabel10272415223D

 34 37  0  0  1  0  0  0  0  0999 V2000
  183.7710  178.1700  139.5380 N   0  0  0  0  0  0  0  0  0  0  0  0
  185.9520  176.9300  136.6910 C   0  0  0  0  0  3  0  0  0  0  0  0
  183.8000  176.0900  137.3860 C   0  0  0  0  0  2  0  0  0  0  0  0
  181.7660  176.8270  140.3170 C   0  0  0  0  0  3  0  0  0  0  0  0
  181.1740  175.7100  139.8290 N   0  0  0  0  0  2  0  0  0  0  0  0
  182.8370  176.1360  138.5280 C   0  0  0  0  0  0  0  0  0  0  0  0
  182.8270  177.1010  139.4820 C   0  0  0  0  0  0  0  0  0  0  0  0
  181.8170  175.2920  138.7440 N   0  0  0  0  0  0  0  0  0  0  0  0
  184.9190  177.1000  137.5310 C   0  0  0  0  0  0  0  0  0  0  0  0
  185.6430  179.1540  138.5590 O   0  0  0  0  0  0  0  0  0  0  0  0
  184.8220  178.1990  138.5520 C   0  0  0  0  0  0  0  0  0  0  0  0
  187.2040  177.7460  136.5810 C   0  0  2  0  0  3  0  0  0  0  0  0
  187.5980  177.8910  135.2620 F   0  0  0  0  0  0  0  0  0  0  0  0
  188.3190  177.1820  137.4500 C   0  0  0  0  0  2  0  0  0  0  0  0
  189.2030  178.2770  137.9380 C   0  0  0  0  0  0  0  0  0  0  0  0
  190.2650  177.9880  138.7860 O   0  0  0  0  0  1  0  0  0  0  0  0
  188.9710  179.4690  137.6070 O   0  0  0  0  0  0  0  0  0  0  0  0
  183.7150  179.1570  140.6110 C   0  0  0  0  0  2  0  0  0  0  0  0
  184.9270  179.0510  141.4700 C   0  0  0  0  0  0  0  0  0  0  0  0
  185.8580  179.8890  141.3330 O   0  0  0  0  0  0  0  0  0  0  0  0
  184.9940  178.0200  142.4630 N   0  0  0  0  0  2  0  0  0  0  0  0
  186.7950  177.8580  145.7250 C   0  0  0  0  0  3  0  0  0  0  0  0
  187.3240  177.3700  143.0160 C   0  0  0  0  0  3  0  0  0  0  0  0
  190.3370  176.7890  145.8520 C   0  0  0  0  0  0  0  0  0  0  0  0
  189.0730  177.2260  146.2680 C   0  0  0  0  0  3  0  0  0  0  0  0
  188.0610  177.4220  145.3290 C   0  0  0  0  0  0  0  0  0  0  0  0
  189.5620  176.7540  143.5820 N   0  0  0  0  0  0  0  0  0  0  0  0
  188.3280  177.1760  143.9670 C   0  0  0  0  0  0  0  0  0  0  0  0
  190.5600  176.5570  144.4870 C   0  0  0  0  0  3  0  0  0  0  0  0
  186.0490  177.8080  143.4110 C   0  0  0  0  0  0  0  0  0  0  0  0
  185.7940  178.0490  144.7670 C   0  0  0  0  0  3  0  0  0  0  0  0
  191.4180  176.5770  146.8280 C   0  0  0  0  0  0  0  0  0  0  0  0
  192.3600  175.5750  146.6210 O   0  0  0  0  0  0  0  0  0  0  0  0
  191.5000  177.2980  147.8570 O   0  0  0  0  0  1  0  0  0  0  0  0
  1 18  1  0  0  0  0
  2  9  2  0  0  0  0
  3  9  1  0  0  0  0
  3  6  1  0  0  0  0
  5  4  1  0  0  0  0
  6  8  2  0  0  0  0
  6  7  1  0  0  0  0
  7  1  1  0  0  0  0
  7  4  2  0  0  0  0
  8  5  1  0  0  0  0
  9 11  1  0  0  0  0
 11 10  2  0  0  0  0
 11  1  1  0  0  0  0
 12 13  1  6  0  0  0
 12  2  1  0  0  0  0
 12 14  1  0  0  0  0
 14 15  1  0  0  0  0
 15 16  1  0  0  0  0
 17 15  2  0  0  0  0
 18 19  1  0  0  0  0
 19 21  1  0  0  0  0
 20 19  2  0  0  0  0
 21 30  1  0  0  0  0
 23 30  2  0  0  0  0
 23 28  1  0  0  0  0
 24 25  1  0  0  0  0
 24 32  1  0  0  0  0
 26 22  1  0  0  0  0
 26 25  2  0  0  0  0
 27 28  2  0  0  0  0
 27 29  1  0  0  0  0
 28 26  1  0  0  0  0
 29 24  2  0  0  0  0
 30 31  1  0  0  0  0
 31 22  2  0  0  0  0
 32 34  1  0  0  0  0
 33 32  2  0  0  0  0
M  END
>  <MODEL>
2

>  <REMARK>
 VINA RESULT:      -8.6      1.195      1.704
  Name = 
  7 active torsions:
  status: ('A' for Active; 'I' for Inactive)
    1  A    between atoms: N_1  and  C_9
    2  A    between atoms: C_2  and  C_23
    3  A    between atoms: C_3  and  C_27
    4  A    between atoms: C_7  and  C_11
    5  A    between atoms: C_8  and  C_9
    6  A    between atoms: N_18  and  C_30
    7  A    between atoms: C_23  and  C_27
                            x       y       z     vdW  Elec       q    Type
                         _______ _______ _______ _____ _____    ______ ____

>  <TORSDO>
F 7

$$$$
=
 OpenBabel10272415223D

 34 37  0  0  1  0  0  0  0  0999 V2000
  190.0680  176.3070  137.1440 N   0  0  0  0  0  0  0  0  0  0  0  0
  193.0000  173.9080  137.3620 C   0  0  0  0  0  3  0  0  0  0  0  0
  190.6990  173.3960  136.8510 C   0  0  0  0  0  2  0  0  0  0  0  0
  187.6890  175.4400  137.0210 C   0  0  0  0  0  3  0  0  0  0  0  0
  187.1810  174.1910  136.8930 N   0  0  0  0  0  0  0  0  0  0  0  0
  189.3250  173.9770  136.9270 C   0  0  0  0  0  0  0  0  0  0  0  0
  189.0590  175.3030  137.0390 C   0  0  1  0  0  3  0  0  0  0  0  0
  188.1690  173.3030  136.8310 N   0  0  0  0  0  0  0  0  0  0  0  0
  191.7760  174.4180  137.1490 C   0  0  0  0  0  0  0  0  0  0  0  0
  192.3540  176.7540  137.2370 O   0  0  0  0  0  0  0  0  0  0  0  0
  191.4450  175.8830  137.1830 C   0  0  0  0  0  0  0  0  0  0  0  0
  194.2690  174.6400  137.6810 C   0  0  2  0  0  3  0  0  0  0  0  0
  194.8890  175.1010  136.5330 F   0  0  0  0  0  0  0  0  0  0  0  0
  195.2040  173.7960  138.5350 C   0  0  0  0  0  2  0  0  0  0  0  0
  196.2490  174.6510  139.1630 C   0  0  0  0  0  0  0  0  0  0  0  0
  195.9590  175.3690  140.3170 O   0  0  0  0  0  1  0  0  0  0  0  0
  197.3870  174.7480  138.6330 O   0  0  0  0  0  0  0  0  0  0  0  0
  189.7070  177.7140  137.2900 C   0  0  0  0  0  2  0  0  0  0  0  0
  189.5410  178.0550  138.7300 C   0  0  0  0  0  0  0  0  0  0  0  0
  188.9110  179.0970  139.0510 O   0  0  0  0  0  0  0  0  0  0  0  0
  190.0680  177.1680  139.7250 N   0  0  0  0  0  2  0  0  0  0  0  0
  191.0450  177.6220  143.2950 C   0  0  0  0  0  3  0  0  0  0  0  0
  188.7050  177.2580  141.7960 C   0  0  0  0  0  3  0  0  0  0  0  0
  188.4630  177.6560  145.9480 C   0  0  0  0  0  0  0  0  0  0  0  0
  189.7140  177.7070  145.3220 C   0  0  0  0  0  3  0  0  0  0  0  0
  189.8050  177.5750  143.9370 C   0  0  0  0  0  0  0  0  0  0  0  0
  187.4220  177.3450  143.8100 N   0  0  0  0  0  0  0  0  0  0  0  0
  188.6280  177.3920  143.1840 C   0  0  0  0  0  0  0  0  0  0  0  0
  187.3180  177.4720  145.1610 C   0  0  0  0  0  3  0  0  0  0  0  0
  189.9500  177.3050  141.1470 C   0  0  0  0  0  0  0  0  0  0  0  0
  191.1130  177.4870  141.9050 C   0  0  0  0  0  3  0  0  0  0  0  0
  188.3470  177.7930  147.4090 C   0  0  0  0  0  0  0  0  0  0  0  0
  189.4840  177.7490  148.2090 O   0  0  0  0  0  1  0  0  0  0  0  0
  187.2200  177.9510  147.9480 O   0  0  0  0  0  0  0  0  0  0  0  0
  1 11  1  0  0  0  0
  1 18  1  0  0  0  0
  2 12  1  0  0  0  0
  3  6  1  0  0  0  0
  3  9  1  0  0  0  0
  5  4  2  0  0  0  0
  6  7  1  0  0  0  0
  7  4  1  6  0  0  0
  7  1  1  0  0  0  0
  8  5  1  0  0  0  0
  8  6  2  0  0  0  0
  9 11  1  0  0  0  0
  9  2  2  0  0  0  0
 11 10  2  0  0  0  0
 12 13  1  6  0  0  0
 12 14  1  0  0  0  0
 14 15  1  0  0  0  0
 15 16  1  0  0  0  0
 17 15  2  0  0  0  0
 18 19  1  0  0  0  0
 19 20  2  0  0  0  0
 19 21  1  0  0  0  0
 21 30  1  0  0  0  0
 22 26  1  0  0  0  0
 23 28  1  0  0  0  0
 24 32  1  0  0  0  0
 25 24  1  0  0  0  0
 26 25  2  0  0  0  0
 27 29  1  0  0  0  0
 28 27  2  0  0  0  0
 28 26  1  0  0  0  0
 29 24  2  0  0  0  0
 30 23  2  0  0  0  0
 30 31  1  0  0  0  0
 31 22  2  0  0  0  0
 32 34  2  0  0  0  0
 32 33  1  0  0  0  0
M  END
>  <MODEL>
3

>  <REMARK>
 VINA RESULT:      -8.3      4.261      5.812
  Name = 
  7 active torsions:
  status: ('A' for Active; 'I' for Inactive)
    1  A    between atoms: N_1  and  C_9
    2  A    between atoms: C_2  and  C_23
    3  A    between atoms: C_3  and  C_27
    4  A    between atoms: C_7  and  C_11
    5  A    between atoms: C_8  and  C_9
    6  A    between atoms: N_18  and  C_30
    7  A    between atoms: C_23  and  C_27
                            x       y       z     vdW  Elec       q    Type
                         _______ _______ _______ _____ _____    ______ ____

>  <TORSDO>
F 7

$$$$
=
 OpenBabel10272415223D

 34 37  0  0  1  0  0  0  0  0999 V2000
  184.4980  178.0910  138.8530 N   0  0  0  0  0  0  0  0  0  0  0  0
  186.6860  176.2630  136.3490 C   0  0  0  0  0  3  0  0  0  0  0  0
  184.4430  175.7090  137.0400 C   0  0  0  0  0  2  0  0  0  0  0  0
  182.3540  177.0420  139.7100 C   0  0  0  0  0  3  0  0  0  0  0  0
  181.6910  175.9140  139.3630 N   0  0  0  0  0  2  0  0  0  0  0  0
  183.4390  176.0050  138.1070 C   0  0  0  0  0  0  0  0  0  0  0  0
  183.4700  177.1020  138.9050 C   0  0  0  0  0  0  0  0  0  0  0  0
  182.3420  175.2860  138.3890 N   0  0  0  0  0  0  0  0  0  0  0  0
  185.6360  176.6400  137.0950 C   0  0  0  0  0  0  0  0  0  0  0  0
  186.4880  178.7650  137.8440 O   0  0  0  0  0  0  0  0  0  0  0  0
  185.5890  177.8860  137.9340 C   0  0  0  0  0  0  0  0  0  0  0  0
  188.0070  176.9530  136.1880 C   0  0  2  0  0  3  0  0  0  0  0  0
  187.9670  177.8910  135.1710 F   0  0  0  0  0  0  0  0  0  0  0  0
  189.1420  175.9560  135.9990 C   0  0  0  0  0  2  0  0  0  0  0  0
  189.9750  175.8750  137.2310 C   0  0  0  0  0  0  0  0  0  0  0  0
  190.2670  174.6380  137.7920 O   0  0  0  0  0  1  0  0  0  0  0  0
  190.3890  176.9280  137.7810 O   0  0  0  0  0  0  0  0  0  0  0  0
  184.4800  179.2320  139.7620 C   0  0  0  0  0  2  0  0  0  0  0  0
  185.1160  178.8650  141.0580 C   0  0  0  0  0  0  0  0  0  0  0  0
  184.3980  178.7450  142.0870 O   0  0  0  0  0  0  0  0  0  0  0  0
  186.5260  178.6150  141.1010 N   0  0  0  0  0  2  0  0  0  0  0  0
  187.3150  177.3590  144.5230 C   0  0  0  0  0  3  0  0  0  0  0  0
  188.6950  178.2010  142.2330 C   0  0  0  0  0  3  0  0  0  0  0  0
  190.8330  176.9700  145.6050 C   0  0  0  0  0  0  0  0  0  0  0  0
  189.4340  176.9560  145.6330 C   0  0  0  0  0  3  0  0  0  0  0  0
  188.7110  177.3650  144.5130 C   0  0  0  0  0  0  0  0  0  0  0  0
  190.7660  177.7960  143.3540 N   0  0  0  0  0  0  0  0  0  0  0  0
  189.4060  177.7880  143.3620 C   0  0  0  0  0  0  0  0  0  0  0  0
  191.4850  177.3990  144.4400 C   0  0  0  0  0  3  0  0  0  0  0  0
  187.2900  178.1960  142.2400 C   0  0  0  0  0  0  0  0  0  0  0  0
  186.6100  177.7730  143.3880 C   0  0  0  0  0  3  0  0  0  0  0  0
  191.6130  176.5430  146.7780 C   0  0  0  0  0  0  0  0  0  0  0  0
  192.3420  175.3580  146.7400 O   0  0  0  0  0  0  0  0  0  0  0  0
  191.6290  177.2440  147.8240 O   0  0  0  0  0  1  0  0  0  0  0  0
  1  7  1  0  0  0  0
  1 18  1  0  0  0  0
  2  9  2  0  0  0  0
  3  9  1  0  0  0  0
  3  6  1  0  0  0  0
  5  4  1  0  0  0  0
  6  8  2  0  0  0  0
  6  7  1  0  0  0  0
  7  4  2  0  0  0  0
  8  5  1  0  0  0  0
  9 11  1  0  0  0  0
 10 11  2  0  0  0  0
 11  1  1  0  0  0  0
 12 13  1  6  0  0  0
 12  2  1  0  0  0  0
 14 12  1  0  0  0  0
 14 15  1  0  0  0  0
 15 17  2  0  0  0  0
 15 16  1  0  0  0  0
 18 19  1  0  0  0  0
 19 21  1  0  0  0  0
 19 20  2  0  0  0  0
 21 30  1  0  0  0  0
 23 30  2  0  0  0  0
 23 28  1  0  0  0  0
 24 25  1  0  0  0  0
 24 32  1  0  0  0  0
 26 22  1  0  0  0  0
 26 25  2  0  0  0  0
 27 28  2  0  0  0  0
 27 29  1  0  0  0  0
 28 26  1  0  0  0  0
 29 24  2  0  0  0  0
 30 31  1  0  0  0  0
 31 22  2  0  0  0  0
 32 34  1  0  0  0  0
 33 32  2  0  0  0  0
M  END
>  <MODEL>
4

>  <REMARK>
 VINA RESULT:      -8.2      1.727      2.262
  Name = 
  7 active torsions:
  status: ('A' for Active; 'I' for Inactive)
    1  A    between atoms: N_1  and  C_9
    2  A    between atoms: C_2  and  C_23
    3  A    between atoms: C_3  and  C_27
    4  A    between atoms: C_7  and  C_11
    5  A    between atoms: C_8  and  C_9
    6  A    between atoms: N_18  and  C_30
    7  A    between atoms: C_23  and  C_27
                            x       y       z     vdW  Elec       q    Type
                         _______ _______ _______ _____ _____    ______ ____

>  <TORSDO>
F 7

$$$$
=
 OpenBabel10272415223D

 34 37  0  0  1  0  0  0  0  0999 V2000
  190.0290  176.4450  137.2610 N   0  0  0  0  0  0  0  0  0  0  0  0
  192.8680  173.9310  137.3780 C   0  0  0  0  0  3  0  0  0  0  0  0
  190.5500  173.5270  136.8500 C   0  0  0  0  0  2  0  0  0  0  0  0
  187.6190  175.6740  137.1060 C   0  0  0  0  0  3  0  0  0  0  0  0
  187.0640  174.4510  136.9290 N   0  0  0  0  0  0  0  0  0  0  0  0
  189.1980  174.1560  136.9520 C   0  0  0  0  0  0  0  0  0  0  0  0
  188.9830  175.4850  137.1170 C   0  0  1  0  0  3  0  0  0  0  0  0
  188.0180  173.5300  136.8300 N   0  0  0  0  0  0  0  0  0  0  0  0
  191.6650  174.4940  137.1880 C   0  0  0  0  0  0  0  0  0  0  0  0
  192.3300  176.8020  137.3670 O   0  0  0  0  0  0  0  0  0  0  0  0
  191.3890  175.9680  137.2800 C   0  0  0  0  0  0  0  0  0  0  0  0
  194.1640  174.6010  137.7250 C   0  0  2  0  0  3  0  0  0  0  0  0
  194.7710  175.1370  136.6020 F   0  0  0  0  0  0  0  0  0  0  0  0
  195.0940  173.6660  138.4830 C   0  0  0  0  0  2  0  0  0  0  0  0
  196.1510  174.4430  139.1880 C   0  0  0  0  0  0  0  0  0  0  0  0
  195.8010  175.3700  140.1610 O   0  0  0  0  0  1  0  0  0  0  0  0
  197.3610  174.2810  138.8810 O   0  0  0  0  0  0  0  0  0  0  0  0
  189.7210  177.8580  137.4620 C   0  0  0  0  0  2  0  0  0  0  0  0
  189.2990  178.0940  138.8710 C   0  0  0  0  0  0  0  0  0  0  0  0
  188.4800  179.0180  139.1250 O   0  0  0  0  0  0  0  0  0  0  0  0
  189.8020  177.2410  139.9060 N   0  0  0  0  0  2  0  0  0  0  0  0
  187.7280  177.4140  143.0010 C   0  0  0  0  0  3  0  0  0  0  0  0
  190.4380  177.2480  142.3040 C   0  0  0  0  0  3  0  0  0  0  0  0
  189.3390  177.3890  146.3330 C   0  0  0  0  0  0  0  0  0  0  0  0
  188.3470  177.4250  145.3460 C   0  0  0  0  0  3  0  0  0  0  0  0
  188.7040  177.3790  143.9990 C   0  0  0  0  0  0  0  0  0  0  0  0
  191.0170  177.2630  144.6230 N   0  0  0  0  0  0  0  0  0  0  0  0
  190.0670  177.2950  143.6500 C   0  0  0  0  0  0  0  0  0  0  0  0
  190.6830  177.3070  145.9420 C   0  0  0  0  0  3  0  0  0  0  0  0
  189.4590  177.2830  141.2980 C   0  0  0  0  0  0  0  0  0  0  0  0
  188.1080  177.3660  141.6550 C   0  0  0  0  0  3  0  0  0  0  0  0
  188.9830  177.4380  147.7600 C   0  0  0  0  0  0  0  0  0  0  0  0
  189.6430  178.3120  148.6170 O   0  0  0  0  0  1  0  0  0  0  0  0
  188.0780  176.6910  148.2180 O   0  0  0  0  0  0  0  0  0  0  0  0
  1 11  1  0  0  0  0
  1 18  1  0  0  0  0
  2 12  1  0  0  0  0
  3  6  1  0  0  0  0
  3  9  1  0  0  0  0
  5  4  2  0  0  0  0
  6  7  1  0  0  0  0
  7  4  1  6  0  0  0
  7  1  1  0  0  0  0
  8  5  1  0  0  0  0
  8  6  2  0  0  0  0
  9 11  1  0  0  0  0
  9  2  2  0  0  0  0
 11 10  2  0  0  0  0
 12 13  1  6  0  0  0
 12 14  1  0  0  0  0
 14 15  1  0  0  0  0
 15 16  1  0  0  0  0
 17 15  2  0  0  0  0
 18 19  1  0  0  0  0
 19 20  2  0  0  0  0
 19 21  1  0  0  0  0
 21 30  1  0  0  0  0
 22 26  1  0  0  0  0
 23 28  1  0  0  0  0
 24 32  1  0  0  0  0
 25 24  2  0  0  0  0
 26 25  1  0  0  0  0
 27 29  2  0  0  0  0
 28 26  2  0  0  0  0
 28 27  1  0  0  0  0
 29 24  1  0  0  0  0
 30 31  1  0  0  0  0
 30 23  2  0  0  0  0
 31 22  2  0  0  0  0
 32 34  2  0  0  0  0
 32 33  1  0  0  0  0
M  END
>  <MODEL>
5

>  <REMARK>
 VINA RESULT:      -8.1      4.182      5.587
  Name = 
  7 active torsions:
  status: ('A' for Active; 'I' for Inactive)
    1  A    between atoms: N_1  and  C_9
    2  A    between atoms: C_2  and  C_23
    3  A    between atoms: C_3  and  C_27
    4  A    between atoms: C_7  and  C_11
    5  A    between atoms: C_8  and  C_9
    6  A    between atoms: N_18  and  C_30
    7  A    between atoms: C_23  and  C_27
                            x       y       z     vdW  Elec       q    Type
                         _______ _______ _______ _____ _____    ______ ____

>  <TORSDO>
F 7

$$$$
=
 OpenBabel10272415223D

 34 37  0  0  1  0  0  0  0  0999 V2000
  190.7460  177.3290  144.8580 N   0  0  0  0  0  0  0  0  0  0  0  0
  187.2710  178.0350  146.2080 C   0  0  0  0  0  3  0  0  0  0  0  0
  189.1250  177.0010  147.3530 C   0  0  0  0  0  2  0  0  0  0  0  0
  192.3560  175.8420  146.1340 C   0  0  0  0  0  3  0  0  0  0  0  0
  192.2910  175.2730  147.3620 N   0  0  0  0  0  2  0  0  0  0  0  0
  190.4520  176.3640  147.0970 C   0  0  0  0  0  0  0  0  0  0  0  0
  191.1820  176.5420  145.9670 C   0  0  0  0  0  0  0  0  0  0  0  0
  191.1420  175.5920  147.9500 N   0  0  0  0  0  0  0  0  0  0  0  0
  188.5630  177.6820  146.1220 C   0  0  0  0  0  0  0  0  0  0  0  0
  189.0480  178.6570  143.9740 O   0  0  0  0  0  0  0  0  0  0  0  0
  189.4370  177.9270  144.9240 C   0  0  0  0  0  0  0  0  0  0  0  0
  186.4230  178.7140  145.1750 C   0  0  2  0  0  3  0  0  0  0  0  0
  185.4720  179.5320  145.7610 F   0  0  0  0  0  0  0  0  0  0  0  0
  185.8000  177.7140  144.2130 C   0  0  0  0  0  2  0  0  0  0  0  0
  185.1650  178.4200  143.0660 C   0  0  0  0  0  0  0  0  0  0  0  0
  185.9500  178.9050  142.0270 O   0  0  0  0  0  0  0  0  0  0  0  0
  183.9200  178.6040  143.0510 O   0  0  0  0  0  1  0  0  0  0  0  0
  191.5740  177.4520  143.6620 C   0  0  0  0  0  2  0  0  0  0  0  0
  190.8420  176.9310  142.4750 C   0  0  0  0  0  0  0  0  0  0  0  0
  190.2800  175.8050  142.5400 O   0  0  0  0  0  0  0  0  0  0  0  0
  190.7560  177.7390  141.2940 N   0  0  0  0  0  2  0  0  0  0  0  0
  189.9420  176.1580  138.0170 C   0  0  0  0  0  3  0  0  0  0  0  0
  188.8190  178.0330  139.7720 C   0  0  0  0  0  3  0  0  0  0  0  0
  186.8300  177.0630  136.2280 C   0  0  0  0  0  0  0  0  0  0  0  0
  188.0510  176.4460  136.5240 C   0  0  0  0  0  3  0  0  0  0  0  0
  188.7230  176.7630  137.7050 C   0  0  0  0  0  0  0  0  0  0  0  0
  186.9700  178.2960  138.2800 N   0  0  0  0  0  0  0  0  0  0  0  0
  188.1570  177.7060  138.5860 C   0  0  0  0  0  0  0  0  0  0  0  0
  186.3040  177.9960  137.1320 C   0  0  0  0  0  3  0  0  0  0  0  0
  190.0460  177.4260  140.0890 C   0  0  0  0  0  0  0  0  0  0  0  0
  190.5990  176.4910  139.2060 C   0  0  0  0  0  3  0  0  0  0  0  0
  186.1070  176.7420  134.9860 C   0  0  0  0  0  0  0  0  0  0  0  0
  186.0860  175.4370  134.5060 O   0  0  0  0  0  1  0  0  0  0  0  0
  185.5010  177.6430  134.3490 O   0  0  0  0  0  0  0  0  0  0  0  0
  1 11  1  0  0  0  0
  1  7  1  0  0  0  0
  4  5  1  0  0  0  0
  5  8  1  0  0  0  0
  6  3  1  0  0  0  0
  6  8  2  0  0  0  0
  7  4  2  0  0  0  0
  7  6  1  0  0  0  0
  9  2  2  0  0  0  0
  9  3  1  0  0  0  0
 10 11  2  0  0  0  0
 11  9  1  0  0  0  0
 12 13  1  1  0  0  0
 12  2  1  0  0  0  0
 14 12  1  0  0  0  0
 15 14  1  0  0  0  0
 16 15  2  0  0  0  0
 17 15  1  0  0  0  0
 18  1  1  0  0  0  0
 19 20  2  0  0  0  0
 19 18  1  0  0  0  0
 21 19  1  0  0  0  0
 22 31  1  0  0  0  0
 23 30  1  0  0  0  0
 24 25  2  0  0  0  0
 24 29  1  0  0  0  0
 25 26  1  0  0  0  0
 26 22  2  0  0  0  0
 26 28  1  0  0  0  0
 27 28  1  0  0  0  0
 28 23  2  0  0  0  0
 29 27  2  0  0  0  0
 30 21  1  0  0  0  0
 31 30  2  0  0  0  0
 32 24  1  0  0  0  0
 33 32  1  0  0  0  0
 34 32  2  0  0  0  0
M  END
>  <MODEL>
6

>  <REMARK>
 VINA RESULT:      -7.8      3.640      9.659
  Name = 
  7 active torsions:
  status: ('A' for Active; 'I' for Inactive)
    1  A    between atoms: N_1  and  C_9
    2  A    between atoms: C_2  and  C_23
    3  A    between atoms: C_3  and  C_27
    4  A    between atoms: C_7  and  C_11
    5  A    between atoms: C_8  and  C_9
    6  A    between atoms: N_18  and  C_30
    7  A    between atoms: C_23  and  C_27
                            x       y       z     vdW  Elec       q    Type
                         _______ _______ _______ _____ _____    ______ ____

>  <TORSDO>
F 7

$$$$
=
 OpenBabel10272415223D

 34 37  0  0  1  0  0  0  0  0999 V2000
  189.2510  176.0740  137.1800 N   0  0  0  0  0  0  0  0  0  0  0  0
  186.5730  173.4190  136.7550 C   0  0  0  0  0  3  0  0  0  0  0  0
  188.9620  173.1100  136.8760 C   0  0  0  0  0  2  0  0  0  0  0  0
  191.7000  175.5130  136.8380 C   0  0  0  0  0  3  0  0  0  0  0  0
  192.3430  174.3410  136.6220 N   0  0  0  0  0  0  0  0  0  0  0  0
  190.2470  173.8660  136.7800 C   0  0  0  0  0  0  0  0  0  0  0  0
  190.3610  175.2090  136.9420 C   0  0  1  0  0  3  0  0  0  0  0  0
  191.4680  173.3410  136.5920 N   0  0  0  0  0  0  0  0  0  0  0  0
  187.7570  174.0250  136.9390 C   0  0  0  0  0  0  0  0  0  0  0  0
  186.9410  176.2330  137.4460 O   0  0  0  0  0  0  0  0  0  0  0  0
  187.9310  175.4940  137.2000 C   0  0  0  0  0  0  0  0  0  0  0  0
  185.2060  174.0330  136.7520 C   0  0  2  0  0  3  0  0  0  0  0  0
  184.6890  174.1210  138.0340 F   0  0  0  0  0  0  0  0  0  0  0  0
  184.2640  173.3020  135.8070 C   0  0  0  0  0  2  0  0  0  0  0  0
  183.2670  172.5070  136.5770 C   0  0  0  0  0  0  0  0  0  0  0  0
  182.0030  173.0270  136.8230 O   0  0  0  0  0  0  0  0  0  0  0  0
  183.5790  171.3750  137.0320 O   0  0  0  0  0  1  0  0  0  0  0  0
  189.4450  177.5140  137.3160 C   0  0  0  0  0  2  0  0  0  0  0  0
  189.3950  177.9040  138.7530 C   0  0  0  0  0  0  0  0  0  0  0  0
  188.9050  179.0200  139.0740 O   0  0  0  0  0  0  0  0  0  0  0  0
  189.8690  176.9860  139.7460 N   0  0  0  0  0  2  0  0  0  0  0  0
  191.0690  177.5600  143.2290 C   0  0  0  0  0  3  0  0  0  0  0  0
  188.6400  177.1340  141.8960 C   0  0  0  0  0  3  0  0  0  0  0  0
  188.6630  177.6640  146.0410 C   0  0  0  0  0  0  0  0  0  0  0  0
  189.8710  177.7020  145.3340 C   0  0  0  0  0  3  0  0  0  0  0  0
  189.8740  177.5260  143.9510 C   0  0  0  0  0  0  0  0  0  0  0  0
  187.4890  177.2780  143.9850 N   0  0  0  0  0  0  0  0  0  0  0  0
  188.6520  177.3120  143.2810 C   0  0  0  0  0  0  0  0  0  0  0  0
  187.4710  177.4480  145.3350 C   0  0  0  0  0  3  0  0  0  0  0  0
  189.8410  177.1680  141.1670 C   0  0  0  0  0  0  0  0  0  0  0  0
  191.0490  177.3810  141.8420 C   0  0  0  0  0  3  0  0  0  0  0  0
  188.6400  177.8470  147.5010 C   0  0  0  0  0  0  0  0  0  0  0  0
  187.4400  178.1070  148.1550 O   0  0  0  0  0  0  0  0  0  0  0  0
  189.7030  177.7690  148.1710 O   0  0  0  0  0  1  0  0  0  0  0  0
  1 11  1  0  0  0  0
  1 18  1  0  0  0  0
  2  9  2  0  0  0  0
  3  9  1  0  0  0  0
  5  4  2  0  0  0  0
  6  3  1  0  0  0  0
  6  7  1  0  0  0  0
  7  4  1  1  0  0  0
  7  1  1  0  0  0  0
  8  5  1  0  0  0  0
  8  6  2  0  0  0  0
  9 11  1  0  0  0  0
 11 10  2  0  0  0  0
 12  2  1  0  0  0  0
 12 13  1  1  0  0  0
 14 15  1  0  0  0  0
 14 12  1  0  0  0  0
 15 16  2  0  0  0  0
 15 17  1  0  0  0  0
 18 19  1  0  0  0  0
 19 20  2  0  0  0  0
 19 21  1  0  0  0  0
 21 30  1  0  0  0  0
 22 26  1  0  0  0  0
 23 28  1  0  0  0  0
 24 32  1  0  0  0  0
 25 24  2  0  0  0  0
 26 25  1  0  0  0  0
 27 29  2  0  0  0  0
 28 26  2  0  0  0  0
 28 27  1  0  0  0  0
 29 24  1  0  0  0  0
 30 31  1  0  0  0  0
 30 23  2  0  0  0  0
 31 22  2  0  0  0  0
 32 33  2  0  0  0  0
 32 34  1  0  0  0  0
M  END
>  <MODEL>
7

>  <REMARK>
 VINA RESULT:      -7.6      3.919      5.865
  Name = 
  7 active torsions:
  status: ('A' for Active; 'I' for Inactive)
    1  A    between atoms: N_1  and  C_9
    2  A    between atoms: C_2  and  C_23
    3  A    between atoms: C_3  and  C_27
    4  A    between atoms: C_7  and  C_11
    5  A    between atoms: C_8  and  C_9
    6  A    between atoms: N_18  and  C_30
    7  A    between atoms: C_23  and  C_27
                            x       y       z     vdW  Elec       q    Type
                         _______ _______ _______ _____ _____    ______ ____

>  <TORSDO>
F 7

$$$$
=
 OpenBabel10272415223D

 34 37  0  0  1  0  0  0  0  0999 V2000
  186.7870  177.4400  137.3110 N   0  0  0  0  0  0  0  0  0  0  0  0
  183.1150  177.8540  138.1700 C   0  0  0  0  0  3  0  0  0  0  0  0
  184.2360  175.8770  137.3620 C   0  0  0  0  0  2  0  0  0  0  0  0
  187.6060  175.3840  136.0730 C   0  0  0  0  0  3  0  0  0  0  0  0
  186.9880  174.2360  135.7060 N   0  0  0  0  0  0  0  0  0  0  0  0
  185.5060  175.4330  136.7120 C   0  0  0  0  0  0  0  0  0  0  0  0
  186.6600  176.1470  136.7180 C   0  0  1  0  0  3  0  0  0  0  0  0
  185.7180  174.2600  136.0970 N   0  0  0  0  0  0  0  0  0  0  0  0
  184.2960  177.3160  137.8280 C   0  0  0  0  0  0  0  0  0  0  0  0
  185.7110  179.1620  138.4550 O   0  0  0  0  0  0  0  0  0  0  0  0
  185.6130  178.0390  137.8920 C   0  0  0  0  0  0  0  0  0  0  0  0
  182.8330  179.2410  138.6630 C   0  0  2  0  0  3  0  0  0  0  0  0
  183.1810  179.3850  139.9950 F   0  0  0  0  0  0  0  0  0  0  0  0
  181.3890  179.6460  138.4040 C   0  0  0  0  0  2  0  0  0  0  0  0
  181.3270  181.0230  137.8400 C   0  0  0  0  0  0  0  0  0  0  0  0
  180.7360  181.2420  136.6030 O   0  0  0  0  0  0  0  0  0  0  0  0
  181.8390  181.9850  138.4710 O   0  0  0  0  0  1  0  0  0  0  0  0
  188.0550  178.1620  137.2550 C   0  0  0  0  0  2  0  0  0  0  0  0
  188.6120  178.3270  138.6260 C   0  0  0  0  0  0  0  0  0  0  0  0
  188.9820  179.4680  139.0100 O   0  0  0  0  0  0  0  0  0  0  0  0
  188.6800  177.1910  139.4960 N   0  0  0  0  0  2  0  0  0  0  0  0
  190.9590  176.9030  142.4340 C   0  0  0  0  0  3  0  0  0  0  0  0
  188.2470  177.4000  141.9300 C   0  0  0  0  0  3  0  0  0  0  0  0
  189.6440  177.3290  145.8680 C   0  0  0  0  0  0  0  0  0  0  0  0
  190.5380  177.1040  144.8140 C   0  0  0  0  0  3  0  0  0  0  0  0
  190.0820  177.1260  143.4970 C   0  0  0  0  0  0  0  0  0  0  0  0
  187.8640  177.5910  144.2810 N   0  0  0  0  0  0  0  0  0  0  0  0
  188.7180  177.3760  143.2450 C   0  0  0  0  0  0  0  0  0  0  0  0
  188.2950  177.5740  145.5720 C   0  0  0  0  0  3  0  0  0  0  0  0
  189.1270  177.1770  140.8580 C   0  0  0  0  0  0  0  0  0  0  0  0
  190.4800  176.9290  141.1200 C   0  0  0  0  0  3  0  0  0  0  0  0
  190.1070  177.3100  147.2650 C   0  0  0  0  0  0  0  0  0  0  0  0
  191.4030  176.9050  147.5670 O   0  0  0  0  0  0  0  0  0  0  0  0
  189.3360  177.6590  148.1970 O   0  0  0  0  0  1  0  0  0  0  0  0
  1 11  1  0  0  0  0
  2 12  1  0  0  0  0
  3  9  1  0  0  0  0
  5  4  2  0  0  0  0
  5  8  1  0  0  0  0
  6  7  1  0  0  0  0
  6  3  1  0  0  0  0
  7  4  1  1  0  0  0
  7  1  1  0  0  0  0
  8  6  2  0  0  0  0
  9 11  1  0  0  0  0
  9  2  2  0  0  0  0
 11 10  2  0  0  0  0
 12 13  1  1  0  0  0
 14 12  1  0  0  0  0
 15 14  1  0  0  0  0
 15 17  1  0  0  0  0
 16 15  2  0  0  0  0
 18  1  1  0  0  0  0
 18 19  1  0  0  0  0
 19 20  2  0  0  0  0
 19 21  1  0  0  0  0
 21 30  1  0  0  0  0
 22 26  1  0  0  0  0
 23 28  1  0  0  0  0
 24 32  1  0  0  0  0
 25 24  2  0  0  0  0
 26 25  1  0  0  0  0
 27 29  2  0  0  0  0
 28 26  2  0  0  0  0
 28 27  1  0  0  0  0
 29 24  1  0  0  0  0
 30 31  1  0  0  0  0
 30 23  2  0  0  0  0
 31 22  2  0  0  0  0
 32 33  2  0  0  0  0
 32 34  1  0  0  0  0
M  END
>  <MODEL>
8

>  <REMARK>
 VINA RESULT:      -7.6      2.820      4.858
  Name = 
  7 active torsions:
  status: ('A' for Active; 'I' for Inactive)
    1  A    between atoms: N_1  and  C_9
    2  A    between atoms: C_2  and  C_23
    3  A    between atoms: C_3  and  C_27
    4  A    between atoms: C_7  and  C_11
    5  A    between atoms: C_8  and  C_9
    6  A    between atoms: N_18  and  C_30
    7  A    between atoms: C_23  and  C_27
                            x       y       z     vdW  Elec       q    Type
                         _______ _______ _______ _____ _____    ______ ____

>  <TORSDO>
F 7

$$$$
=
 OpenBabel10272415223D

 34 37  0  0  1  0  0  0  0  0999 V2000
  183.2120  178.0180  139.0200 N   0  0  0  0  0  0  0  0  0  0  0  0
  183.6090  175.0260  136.7200 C   0  0  0  0  0  3  0  0  0  0  0  0
  181.7530  175.5470  138.1690 C   0  0  0  0  0  2  0  0  0  0  0  0
  181.3590  178.0880  140.7490 C   0  0  0  0  0  3  0  0  0  0  0  0
  180.3090  177.2670  140.9910 N   0  0  0  0  0  2  0  0  0  0  0  0
  181.3770  176.4150  139.3250 C   0  0  0  0  0  0  0  0  0  0  0  0
  182.0390  177.5450  139.6820 C   0  0  0  0  0  0  0  0  0  0  0  0
  180.3130  176.2570  140.1280 N   0  0  0  0  0  0  0  0  0  0  0  0
  183.0940  175.9230  137.5750 C   0  0  0  0  0  0  0  0  0  0  0  0
  184.7610  177.6420  137.3190 O   0  0  0  0  0  0  0  0  0  0  0  0
  183.7490  177.2250  137.9430 C   0  0  0  0  0  0  0  0  0  0  0  0
  184.9070  175.0930  135.9720 C   0  0  2  0  0  3  0  0  0  0  0  0
  184.7950  174.5250  134.7150 F   0  0  0  0  0  0  0  0  0  0  0  0
  186.0490  174.4850  136.7730 C   0  0  0  0  0  2  0  0  0  0  0  0
  187.3090  175.2450  136.5430 C   0  0  0  0  0  0  0  0  0  0  0  0
  187.3660  176.2120  135.5470 O   0  0  0  0  0  0  0  0  0  0  0  0
  188.3320  174.9910  137.2310 O   0  0  0  0  0  1  0  0  0  0  0  0
  183.8880  179.2270  139.4770 C   0  0  0  0  0  2  0  0  0  0  0  0
  185.0280  178.8720  140.3680 C   0  0  0  0  0  0  0  0  0  0  0  0
  186.1980  178.8580  139.9000 O   0  0  0  0  0  0  0  0  0  0  0  0
  184.7770  178.5930  141.7510 N   0  0  0  0  0  2  0  0  0  0  0  0
  186.2630  177.9680  145.1130 C   0  0  0  0  0  3  0  0  0  0  0  0
  187.0980  178.0530  142.4390 C   0  0  0  0  0  3  0  0  0  0  0  0
  189.8700  177.2050  145.4490 C   0  0  0  0  0  0  0  0  0  0  0  0
  188.5330  177.4430  145.7890 C   0  0  0  0  0  3  0  0  0  0  0  0
  187.6000  177.7270  144.7920 C   0  0  0  0  0  0  0  0  0  0  0  0
  189.3250  177.5370  143.1360 N   0  0  0  0  0  0  0  0  0  0  0  0
  188.0220  177.7690  143.4480 C   0  0  0  0  0  0  0  0  0  0  0  0
  190.2460  177.2580  144.0990 C   0  0  0  0  0  3  0  0  0  0  0  0
  185.7520  178.2950  142.7580 C   0  0  0  0  0  0  0  0  0  0  0  0
  185.3440  178.2500  144.0970 C   0  0  0  0  0  3  0  0  0  0  0  0
  190.8680  176.9040  146.4870 C   0  0  0  0  0  0  0  0  0  0  0  0
  190.5280  176.9960  147.8330 O   0  0  0  0  0  1  0  0  0  0  0  0
  192.0370  176.5610  146.1680 O   0  0  0  0  0  0  0  0  0  0  0  0
  1 18  1  0  0  0  0
  1  7  1  0  0  0  0
  2  9  2  0  0  0  0
  3  6  1  0  0  0  0
  4  5  1  0  0  0  0
  6  7  1  0  0  0  0
  6  8  2  0  0  0  0
  7  4  2  0  0  0  0
  8  5  1  0  0  0  0
  9 11  1  0  0  0  0
  9  3  1  0  0  0  0
 10 11  2  0  0  0  0
 11  1  1  0  0  0  0
 12 13  1  6  0  0  0
 12  2  1  0  0  0  0
 12 14  1  0  0  0  0
 15 14  1  0  0  0  0
 15 17  1  0  0  0  0
 16 15  2  0  0  0  0
 18 19  1  0  0  0  0
 19 21  1  0  0  0  0
 20 19  2  0  0  0  0
 21 30  1  0  0  0  0
 23 30  2  0  0  0  0
 23 28  1  0  0  0  0
 24 25  1  0  0  0  0
 24 32  1  0  0  0  0
 26 22  1  0  0  0  0
 26 25  2  0  0  0  0
 27 28  2  0  0  0  0
 27 29  1  0  0  0  0
 28 26  1  0  0  0  0
 29 24  2  0  0  0  0
 30 31  1  0  0  0  0
 31 22  2  0  0  0  0
 32 33  1  0  0  0  0
 34 32  2  0  0  0  0
M  END
>  <MODEL>
9

>  <REMARK>
 VINA RESULT:      -7.4      1.959      2.510
  Name = 
  7 active torsions:
  status: ('A' for Active; 'I' for Inactive)
    1  A    between atoms: N_1  and  C_9
    2  A    between atoms: C_2  and  C_23
    3  A    between atoms: C_3  and  C_27
    4  A    between atoms: C_7  and  C_11
    5  A    between atoms: C_8  and  C_9
    6  A    between atoms: N_18  and  C_30
    7  A    between atoms: C_23  and  C_27
                            x       y       z     vdW  Elec       q    Type
                         _______ _______ _______ _____ _____    ______ ____

>  <TORSDO>
F 7

$$$$
