=
 OpenBabel10272401003D

 27 31  0  0  1  0  0  0  0  0999 V2000
  188.6280  176.6530  143.5860 C   0  0  0  0  0  2  0  0  0  0  0  0
  186.5550  178.0140  143.6690 C   0  0  0  0  0  0  0  0  0  0  0  0
  187.4390  178.6890  141.5010 N   0  0  0  0  0  2  0  0  0  0  0  0
  182.7500  178.3490  142.1880 O   0  0  0  0  0  0  0  0  0  0  0  0
  182.2910  177.4240  140.0180 C   0  0  0  0  0  1  0  0  0  0  0  0
  185.5360  177.9740  144.4880 N   0  0  0  0  0  0  0  0  0  0  0  0
  184.4140  178.6460  140.5370 C   0  0  1  0  0  3  0  0  0  0  0  0
  189.0690  177.4230  138.4180 C   0  0  0  0  0  3  0  0  0  0  0  0
  184.7330  179.7930  139.6000 C   0  0  0  0  0  1  0  0  0  0  0  0
  190.1360  176.6890  138.9360 C   0  0  0  0  0  3  0  0  0  0  0  0
  185.0450  178.8950  141.9040 C   0  0  1  0  0  3  0  0  0  0  0  0
  187.9670  177.8880  144.1750 C   0  0  1  0  0  3  0  0  0  0  0  0
  182.8960  178.5770  140.7940 C   0  0  2  0  0  3  0  0  0  0  0  0
  183.9730  178.4430  142.8070 C   0  0  0  0  0  0  0  0  0  0  0  0
  189.6340  177.0270  142.6030 N   0  0  0  0  0  2  0  0  0  0  0  0
  186.3060  178.0750  142.1730 C   0  0  2  0  0  3  0  0  0  0  0  0
  188.1700  178.0490  139.2820 C   0  0  0  0  0  3  0  0  0  0  0  0
  184.2070  178.0600  144.0230 N   0  0  0  0  0  0  0  0  0  0  0  0
  190.2980  176.5740  140.3170 C   0  0  0  0  0  3  0  0  0  0  0  0
  189.3890  177.1730  141.1980 C   0  0  0  0  0  0  0  0  0  0  0  0
  188.3140  177.9290  140.6700 C   0  0  0  0  0  0  0  0  0  0  0  0
  188.4010  178.0220  148.4550 C   0  0  0  0  0  3  0  0  0  0  0  0
  188.0950  177.9290  145.6710 C   0  0  0  0  0  0  0  0  0  0  0  0
  189.3070  177.5500  146.2600 C   0  0  0  0  0  3  0  0  0  0  0  0
  189.4590  177.5950  147.6490 C   0  0  0  0  0  3  0  0  0  0  0  0
  187.1900  178.4080  147.8730 C   0  0  0  0  0  3  0  0  0  0  0  0
  187.0360  178.3630  146.4840 C   0  0  0  0  0  3  0  0  0  0  0  0
  1 12  1  0  0  0  0
  2 12  1  0  0  0  0
  2  6  2  0  0  0  0
  4 14  1  0  0  0  0
  7  9  1  6  0  0  0
  7 13  1  0  0  0  0
  7 11  1  0  0  0  0
  8 10  2  0  0  0  0
  8 17  1  0  0  0  0
 10 19  1  0  0  0  0
 11 16  1  0  0  0  0
 11 14  1  1  0  0  0
 12 23  1  1  0  0  0
 13  5  1  6  0  0  0
 13  4  1  0  0  0  0
 14 18  2  0  0  0  0
 15  1  1  0  0  0  0
 16  3  1  6  0  0  0
 16  2  1  0  0  0  0
 17 21  2  0  0  0  0
 18  6  1  0  0  0  0
 19 20  2  0  0  0  0
 20 15  1  0  0  0  0
 21 20  1  0  0  0  0
 21  3  1  0  0  0  0
 23 24  2  0  0  0  0
 23 27  1  0  0  0  0
 24 25  1  0  0  0  0
 25 22  2  0  0  0  0
 26 22  1  0  0  0  0
 27 26  2  0  0  0  0
M  END
>  <MODEL>
1

>  <REMARK>
 VINA RESULT:      -9.5      0.000      0.000
  Name = 
  1 active torsions:
  status: ('A' for Active; 'I' for Inactive)
    1  A    between atoms: C_9  and  C_15
                            x       y       z     vdW  Elec       q    Type
                         _______ _______ _______ _____ _____    ______ ____

>  <TORSDO>
F 1

$$$$
=
 OpenBabel10272401003D

 27 31  0  0  1  0  0  0  0  0999 V2000
  186.3580  178.9420  142.2160 C   0  0  0  0  0  2  0  0  0  0  0  0
  185.9450  178.2560  144.5640 C   0  0  0  0  0  0  0  0  0  0  0  0
  187.8420  176.8290  144.0150 N   0  0  0  0  0  2  0  0  0  0  0  0
  187.3370  178.5800  148.4030 O   0  0  0  0  0  0  0  0  0  0  0  0
  189.6810  178.9970  148.7290 C   0  0  0  0  0  1  0  0  0  0  0  0
  185.1810  178.7800  145.4880 N   0  0  0  0  0  0  0  0  0  0  0  0
  188.8250  177.4290  146.9740 C   0  0  1  0  0  3  0  0  0  0  0  0
  191.1270  176.7630  142.2930 C   0  0  0  0  0  3  0  0  0  0  0  0
  189.4180  176.0360  147.0220 C   0  0  0  0  0  1  0  0  0  0  0  0
  190.8080  177.2930  141.0420 C   0  0  0  0  0  3  0  0  0  0  0  0
  187.4330  177.3840  146.3520 C   0  0  1  0  0  3  0  0  0  0  0  0
  185.4700  178.1270  143.1420 C   0  0  1  0  0  3  0  0  0  0  0  0
  188.6170  177.9670  148.4030 C   0  0  2  0  0  3  0  0  0  0  0  0
  186.6980  178.3260  147.2130 C   0  0  0  0  0  0  0  0  0  0  0  0
  187.1910  178.0690  141.4010 N   0  0  0  0  0  2  0  0  0  0  0  0
  187.3730  177.8770  144.9070 C   0  0  2  0  0  3  0  0  0  0  0  0
  190.1400  176.6490  143.2730 C   0  0  0  0  0  3  0  0  0  0  0  0
  185.6250  178.9360  146.8170 N   0  0  0  0  0  0  0  0  0  0  0  0
  189.5050  177.7160  140.7760 C   0  0  0  0  0  3  0  0  0  0  0  0
  188.5090  177.6340  141.7570 C   0  0  0  0  0  0  0  0  0  0  0  0
  188.8320  177.0830  143.0220 C   0  0  0  0  0  0  0  0  0  0  0  0
  181.3010  178.9920  142.5150 C   0  0  0  0  0  3  0  0  0  0  0  0
  184.0160  178.4440  142.9410 C   0  0  0  0  0  0  0  0  0  0  0  0
  183.4900  178.4320  141.6440 C   0  0  0  0  0  3  0  0  0  0  0  0
  182.1360  178.7070  141.4320 C   0  0  0  0  0  3  0  0  0  0  0  0
  181.8190  179.0000  143.8140 C   0  0  0  0  0  3  0  0  0  0  0  0
  183.1730  178.7250  144.0280 C   0  0  0  0  0  3  0  0  0  0  0  0
  1 12  1  0  0  0  0
  2 16  1  0  0  0  0
  2  6  2  0  0  0  0
  6 18  1  0  0  0  0
  7  9  1  1  0  0  0
  7 13  1  0  0  0  0
  8 17  1  0  0  0  0
 10  8  2  0  0  0  0
 11  7  1  0  0  0  0
 11 14  1  1  0  0  0
 12 23  1  1  0  0  0
 12  2  1  0  0  0  0
 13  4  1  0  0  0  0
 13  5  1  6  0  0  0
 14  4  1  0  0  0  0
 15 20  1  0  0  0  0
 15  1  1  0  0  0  0
 16  3  1  6  0  0  0
 16 11  1  0  0  0  0
 18 14  2  0  0  0  0
 19 10  1  0  0  0  0
 19 20  2  0  0  0  0
 20 21  1  0  0  0  0
 21 17  2  0  0  0  0
 21  3  1  0  0  0  0
 22 26  1  0  0  0  0
 23 27  1  0  0  0  0
 24 23  2  0  0  0  0
 25 24  1  0  0  0  0
 25 22  2  0  0  0  0
 26 27  2  0  0  0  0
M  END
>  <MODEL>
2

>  <REMARK>
 VINA RESULT:      -9.2      2.041      5.888
  Name = 
  1 active torsions:
  status: ('A' for Active; 'I' for Inactive)
    1  A    between atoms: C_9  and  C_15
                            x       y       z     vdW  Elec       q    Type
                         _______ _______ _______ _____ _____    ______ ____

>  <TORSDO>
F 1

$$$$
=
 OpenBabel10272401003D

 27 31  0  0  1  0  0  0  0  0999 V2000
  191.2380  177.6150  142.4010 C   0  0  0  0  0  2  0  0  0  0  0  0
  188.8680  177.6300  141.6650 C   0  0  0  0  0  0  0  0  0  0  0  0
  188.6340  176.6650  143.8900 N   0  0  0  0  0  2  0  0  0  0  0  0
  185.2650  179.5200  142.1370 O   0  0  0  0  0  0  0  0  0  0  0  0
  184.8300  180.6310  144.2230 C   0  0  0  0  0  1  0  0  0  0  0  0
  188.2950  178.1960  140.6350 N   0  0  0  0  0  0  0  0  0  0  0  0
  185.9930  178.4170  144.0950 C   0  0  1  0  0  3  0  0  0  0  0  0
  189.8070  176.9370  147.3990 C   0  0  0  0  0  3  0  0  0  0  0  0
  185.3760  177.3240  144.9440 C   0  0  0  0  0  1  0  0  0  0  0  0
  191.1930  176.9340  147.2420 C   0  0  0  0  0  3  0  0  0  0  0  0
  186.7210  177.8050  142.9020 C   0  0  1  0  0  3  0  0  0  0  0  0
  190.1950  176.9310  141.5320 C   0  0  1  0  0  3  0  0  0  0  0  0
  184.8900  179.3050  143.4890 C   0  0  2  0  0  3  0  0  0  0  0  0
  186.3510  178.7390  141.8250 C   0  0  0  0  0  0  0  0  0  0  0  0
  191.5770  176.7850  143.5480 N   0  0  0  0  0  2  0  0  0  0  0  0
  188.2420  177.7770  143.0390 C   0  0  2  0  0  3  0  0  0  0  0  0
  188.9790  176.8800  146.2780 C   0  0  0  0  0  3  0  0  0  0  0  0
  187.0670  178.8800  140.7530 N   0  0  0  0  0  0  0  0  0  0  0  0
  191.7490  176.8850  145.9620 C   0  0  0  0  0  3  0  0  0  0  0  0
  190.9320  176.8560  144.8250 C   0  0  0  0  0  0  0  0  0  0  0  0
  189.5240  176.8450  144.9890 C   0  0  0  0  0  0  0  0  0  0  0  0
  191.6170  176.4390  137.5000 C   0  0  0  0  0  3  0  0  0  0  0  0
  190.6700  176.7660  140.1170 C   0  0  0  0  0  0  0  0  0  0  0  0
  192.0070  177.0470  139.8110 C   0  0  0  0  0  3  0  0  0  0  0  0
  192.4790  176.8850  138.5050 C   0  0  0  0  0  3  0  0  0  0  0  0
  190.2820  176.1520  137.7990 C   0  0  0  0  0  3  0  0  0  0  0  0
  189.8080  176.3140  139.1050 C   0  0  0  0  0  3  0  0  0  0  0  0
  1 15  1  0  0  0  0
  3 21  1  0  0  0  0
  4 13  1  0  0  0  0
  6 18  1  0  0  0  0
  6  2  2  0  0  0  0
  7  9  1  1  0  0  0
 10  8  1  0  0  0  0
 11 14  1  6  0  0  0
 11 16  1  0  0  0  0
 11  7  1  0  0  0  0
 12 23  1  6  0  0  0
 12  2  1  0  0  0  0
 12  1  1  0  0  0  0
 13  7  1  0  0  0  0
 13  5  1  1  0  0  0
 14  4  1  0  0  0  0
 15 20  1  0  0  0  0
 16  2  1  6  0  0  0
 16  3  1  0  0  0  0
 17  8  2  0  0  0  0
 18 14  2  0  0  0  0
 19 10  2  0  0  0  0
 20 21  2  0  0  0  0
 20 19  1  0  0  0  0
 21 17  1  0  0  0  0
 22 26  2  0  0  0  0
 22 25  1  0  0  0  0
 24 23  1  0  0  0  0
 25 24  2  0  0  0  0
 26 27  1  0  0  0  0
 27 23  2  0  0  0  0
M  END
>  <MODEL>
3

>  <REMARK>
 VINA RESULT:      -8.9      2.196      6.025
  Name = 
  1 active torsions:
  status: ('A' for Active; 'I' for Inactive)
    1  A    between atoms: C_9  and  C_15
                            x       y       z     vdW  Elec       q    Type
                         _______ _______ _______ _____ _____    ______ ____

>  <TORSDO>
F 1

$$$$
=
 OpenBabel10272401003D

 27 31  0  0  1  0  0  0  0  0999 V2000
  186.0430  179.2480  141.1490 C   0  0  0  0  0  2  0  0  0  0  0  0
  186.5570  177.9570  143.2040 C   0  0  0  0  0  0  0  0  0  0  0  0
  188.0050  176.8290  141.6020 N   0  0  0  0  0  2  0  0  0  0  0  0
  189.3680  177.3550  146.1230 O   0  0  0  0  0  0  0  0  0  0  0  0
  191.6690  177.8050  145.5930 C   0  0  0  0  0  1  0  0  0  0  0  0
  186.2490  178.1800  144.4560 N   0  0  0  0  0  0  0  0  0  0  0  0
  190.1080  176.6990  143.9770 C   0  0  1  0  0  3  0  0  0  0  0  0
  190.3330  177.3960  138.7700 C   0  0  0  0  0  3  0  0  0  0  0  0
  190.5980  175.3760  143.4240 C   0  0  0  0  0  1  0  0  0  0  0  0
  189.5740  178.2120  137.9310 C   0  0  0  0  0  3  0  0  0  0  0  0
  188.5830  176.7380  143.9670 C   0  0  1  0  0  3  0  0  0  0  0  0
  185.5530  178.1730  142.1040 C   0  0  1  0  0  3  0  0  0  0  0  0
  190.5100  176.8360  145.4580 C   0  0  2  0  0  3  0  0  0  0  0  0
  188.2990  177.3820  145.2600 C   0  0  0  0  0  0  0  0  0  0  0  0
  186.4400  178.6640  139.8760 N   0  0  0  0  0  2  0  0  0  0  0  0
  187.9830  177.5830  142.8450 C   0  0  2  0  0  3  0  0  0  0  0  0
  189.8100  176.9770  139.9930 C   0  0  0  0  0  3  0  0  0  0  0  0
  187.1900  178.0120  145.4930 N   0  0  0  0  0  0  0  0  0  0  0  0
  188.2960  178.6150  138.3200 C   0  0  0  0  0  3  0  0  0  0  0  0
  187.7670  178.2270  139.5570 C   0  0  0  0  0  0  0  0  0  0  0  0
  188.5340  177.3870  140.4010 C   0  0  0  0  0  0  0  0  0  0  0  0
  181.5270  178.9220  143.4300 C   0  0  0  0  0  3  0  0  0  0  0  0
  184.1560  178.4480  142.5840 C   0  0  0  0  0  0  0  0  0  0  0  0
  183.1150  178.5030  141.6500 C   0  0  0  0  0  3  0  0  0  0  0  0
  181.8040  178.7410  142.0720 C   0  0  0  0  0  3  0  0  0  0  0  0
  182.5610  178.8630  144.3680 C   0  0  0  0  0  3  0  0  0  0  0  0
  183.8740  178.6250  143.9480 C   0  0  0  0  0  3  0  0  0  0  0  0
  1 12  1  0  0  0  0
  2  6  2  0  0  0  0
  6 18  1  0  0  0  0
  7  9  1  1  0  0  0
  7 13  1  0  0  0  0
  8 17  1  0  0  0  0
 10 19  1  0  0  0  0
 10  8  2  0  0  0  0
 11  7  1  0  0  0  0
 11 14  1  1  0  0  0
 12 23  1  1  0  0  0
 12  2  1  0  0  0  0
 13  5  1  6  0  0  0
 13  4  1  0  0  0  0
 14 18  2  0  0  0  0
 14  4  1  0  0  0  0
 15  1  1  0  0  0  0
 16  3  1  6  0  0  0
 16  2  1  0  0  0  0
 16 11  1  0  0  0  0
 17 21  2  0  0  0  0
 19 20  2  0  0  0  0
 20 15  1  0  0  0  0
 20 21  1  0  0  0  0
 21  3  1  0  0  0  0
 22 26  1  0  0  0  0
 23 27  1  0  0  0  0
 24 25  1  0  0  0  0
 24 23  2  0  0  0  0
 25 22  2  0  0  0  0
 27 26  2  0  0  0  0
M  END
>  <MODEL>
4

>  <REMARK>
 VINA RESULT:      -8.8      2.158      5.525
  Name = 
  1 active torsions:
  status: ('A' for Active; 'I' for Inactive)
    1  A    between atoms: C_9  and  C_15
                            x       y       z     vdW  Elec       q    Type
                         _______ _______ _______ _____ _____    ______ ____

>  <TORSDO>
F 1

$$$$
=
 OpenBabel10272401003D

 27 31  0  0  1  0  0  0  0  0999 V2000
  189.7470  176.6180  140.6300 C   0  0  0  0  0  2  0  0  0  0  0  0
  187.9150  177.8190  141.7950 C   0  0  0  0  0  0  0  0  0  0  0  0
  187.7320  178.7900  139.5680 N   0  0  0  0  0  2  0  0  0  0  0  0
  183.8460  178.0610  142.2010 O   0  0  0  0  0  0  0  0  0  0  0  0
  182.4770  177.3550  140.3570 C   0  0  0  0  0  1  0  0  0  0  0  0
  187.3680  177.6180  142.9660 N   0  0  0  0  0  0  0  0  0  0  0  0
  184.5960  178.6510  140.0410 C   0  0  1  0  0  3  0  0  0  0  0  0
  187.8300  177.9890  135.9470 C   0  0  0  0  0  3  0  0  0  0  0  0
  184.4510  179.9150  139.2170 C   0  0  0  0  0  1  0  0  0  0  0  0
  189.0230  177.2750  135.8400 C   0  0  0  0  0  3  0  0  0  0  0  0
  185.7670  178.7880  141.0080 C   0  0  1  0  0  3  0  0  0  0  0  0
  189.4050  177.7320  141.6060 C   0  0  1  0  0  3  0  0  0  0  0  0
  183.3530  178.4530  140.9290 C   0  0  2  0  0  3  0  0  0  0  0  0
  185.2150  178.1670  142.2240 C   0  0  0  0  0  0  0  0  0  0  0  0
  190.2060  177.1660  139.3620 N   0  0  0  0  0  2  0  0  0  0  0  0
  187.0240  178.0300  140.5850 C   0  0  2  0  0  3  0  0  0  0  0  0
  187.4040  178.4530  137.1920 C   0  0  0  0  0  3  0  0  0  0  0  0
  185.9710  177.6660  143.1510 N   0  0  0  0  0  0  0  0  0  0  0  0
  189.7850  177.0180  136.9810 C   0  0  0  0  0  3  0  0  0  0  0  0
  189.3580  177.4510  138.2420 C   0  0  0  0  0  0  0  0  0  0  0  0
  188.1530  178.1880  138.3460 C   0  0  0  0  0  0  0  0  0  0  0  0
  191.6090  177.4450  145.2920 C   0  0  0  0  0  3  0  0  0  0  0  0
  190.1870  177.6140  142.8830 C   0  0  0  0  0  0  0  0  0  0  0  0
  190.4530  178.7690  143.6270 C   0  0  0  0  0  3  0  0  0  0  0  0
  191.1640  178.6850  144.8280 C   0  0  0  0  0  3  0  0  0  0  0  0
  191.3420  176.2860  144.5560 C   0  0  0  0  0  3  0  0  0  0  0  0
  190.6320  176.3680  143.3550 C   0  0  0  0  0  3  0  0  0  0  0  0
  1 12  1  0  0  0  0
  2  6  2  0  0  0  0
  4 14  1  0  0  0  0
  6 18  1  0  0  0  0
  7  9  1  1  0  0  0
  7 13  1  0  0  0  0
  7 11  1  0  0  0  0
  8 17  1  0  0  0  0
 10  8  2  0  0  0  0
 10 19  1  0  0  0  0
 11 14  1  1  0  0  0
 12  2  1  0  0  0  0
 12 23  1  1  0  0  0
 13  5  1  6  0  0  0
 13  4  1  0  0  0  0
 14 18  2  0  0  0  0
 15  1  1  0  0  0  0
 16  3  1  6  0  0  0
 16 11  1  0  0  0  0
 16  2  1  0  0  0  0
 17 21  2  0  0  0  0
 19 20  2  0  0  0  0
 20 21  1  0  0  0  0
 20 15  1  0  0  0  0
 21  3  1  0  0  0  0
 23 27  2  0  0  0  0
 23 24  1  0  0  0  0
 24 25  2  0  0  0  0
 25 22  1  0  0  0  0
 26 22  2  0  0  0  0
 27 26  1  0  0  0  0
M  END
>  <MODEL>
5

>  <REMARK>
 VINA RESULT:      -8.6      2.211      2.863
  Name = 
  1 active torsions:
  status: ('A' for Active; 'I' for Inactive)
    1  A    between atoms: C_9  and  C_15
                            x       y       z     vdW  Elec       q    Type
                         _______ _______ _______ _____ _____    ______ ____

>  <TORSDO>
F 1

$$$$
=
 OpenBabel10272401003D

 27 31  0  0  1  0  0  0  0  0999 V2000
  189.2000  178.3910  140.1800 C   0  0  0  0  0  2  0  0  0  0  0  0
  191.2020  176.9760  139.7950 C   0  0  0  0  0  0  0  0  0  0  0  0
  189.6540  175.9960  138.1890 N   0  0  0  0  0  2  0  0  0  0  0  0
  194.2970  176.2490  137.2120 O   0  0  0  0  0  0  0  0  0  0  0  0
  193.9890  176.7900  134.8910 C   0  0  0  0  0  1  0  0  0  0  0  0
  192.4350  177.1070  140.2100 N   0  0  0  0  0  0  0  0  0  0  0  0
  192.1810  175.7570  136.2820 C   0  0  1  0  0  3  0  0  0  0  0  0
  187.0670  176.8110  135.6580 C   0  0  0  0  0  3  0  0  0  0  0  0
  191.5850  174.4870  135.7090 C   0  0  0  0  0  1  0  0  0  0  0  0
  186.2230  177.6630  136.3710 C   0  0  0  0  0  3  0  0  0  0  0  0
  192.0470  175.7590  137.8020 C   0  0  1  0  0  3  0  0  0  0  0  0
  190.0390  177.2410  140.7130 C   0  0  1  0  0  3  0  0  0  0  0  0
  193.6960  175.8040  136.0050 C   0  0  2  0  0  3  0  0  0  0  0  0
  193.3520  176.3070  138.2090 C   0  0  0  0  0  0  0  0  0  0  0  0
  187.9280  177.9040  139.6650 N   0  0  0  0  0  2  0  0  0  0  0  0
  190.9370  176.6630  138.3350 C   0  0  2  0  0  3  0  0  0  0  0  0
  188.2130  176.2970  136.2660 C   0  0  0  0  0  3  0  0  0  0  0  0
  193.5330  176.8920  139.3510 N   0  0  0  0  0  0  0  0  0  0  0  0
  186.5310  178.0070  137.6880 C   0  0  0  0  0  3  0  0  0  0  0  0
  187.6920  177.5220  138.3040 C   0  0  0  0  0  0  0  0  0  0  0  0
  188.5400  176.6460  137.5820 C   0  0  0  0  0  0  0  0  0  0  0  0
  191.1710  177.7840  144.8300 C   0  0  0  0  0  3  0  0  0  0  0  0
  190.4190  177.4490  142.1520 C   0  0  0  0  0  0  0  0  0  0  0  0
  190.7480  176.3370  142.9350 C   0  0  0  0  0  3  0  0  0  0  0  0
  191.1210  176.5040  144.2720 C   0  0  0  0  0  3  0  0  0  0  0  0
  190.8490  178.8990  144.0520 C   0  0  0  0  0  3  0  0  0  0  0  0
  190.4750  178.7340  142.7150 C   0  0  0  0  0  3  0  0  0  0  0  0
  1 12  1  0  0  0  0
  2  6  2  0  0  0  0
  2 12  1  0  0  0  0
  4 14  1  0  0  0  0
  7  9  1  1  0  0  0
  7 11  1  0  0  0  0
  8 17  2  0  0  0  0
  8 10  1  0  0  0  0
 10 19  2  0  0  0  0
 11 14  1  1  0  0  0
 11 16  1  0  0  0  0
 12 23  1  1  0  0  0
 13  5  1  6  0  0  0
 13  7  1  0  0  0  0
 13  4  1  0  0  0  0
 14 18  2  0  0  0  0
 15  1  1  0  0  0  0
 16  3  1  1  0  0  0
 16  2  1  0  0  0  0
 17 21  1  0  0  0  0
 18  6  1  0  0  0  0
 19 20  1  0  0  0  0
 20 15  1  0  0  0  0
 21  3  1  0  0  0  0
 21 20  2  0  0  0  0
 23 27  2  0  0  0  0
 23 24  1  0  0  0  0
 24 25  2  0  0  0  0
 25 22  1  0  0  0  0
 26 22  2  0  0  0  0
 27 26  1  0  0  0  0
M  END
>  <MODEL>
6

>  <REMARK>
 VINA RESULT:      -8.4      4.336      7.137
  Name = 
  1 active torsions:
  status: ('A' for Active; 'I' for Inactive)
    1  A    between atoms: C_9  and  C_15
                            x       y       z     vdW  Elec       q    Type
                         _______ _______ _______ _____ _____    ______ ____

>  <TORSDO>
F 1

$$$$
=
 OpenBabel10272401003D

 27 31  0  0  1  0  0  0  0  0999 V2000
  187.4060  177.0200  142.5320 C   0  0  0  0  0  2  0  0  0  0  0  0
  189.7570  177.0730  143.3220 C   0  0  0  0  0  0  0  0  0  0  0  0
  188.6660  178.3290  145.1020 N   0  0  0  0  0  2  0  0  0  0  0  0
  192.3660  175.5080  146.0660 O   0  0  0  0  0  0  0  0  0  0  0  0
  191.4760  174.7080  148.1500 C   0  0  0  0  0  1  0  0  0  0  0  0
  190.8130  176.4190  142.9110 N   0  0  0  0  0  0  0  0  0  0  0  0
  190.6530  176.8020  147.0520 C   0  0  1  0  0  3  0  0  0  0  0  0
  185.6580  178.4320  147.2700 C   0  0  0  0  0  3  0  0  0  0  0  0
  190.6790  178.0350  147.9330 C   0  0  0  0  0  1  0  0  0  0  0  0
  184.6260  178.3200  146.3380 C   0  0  0  0  0  3  0  0  0  0  0  0
  190.7720  177.2050  145.5850 C   0  0  1  0  0  3  0  0  0  0  0  0
  188.7730  177.6560  142.3440 C   0  0  1  0  0  3  0  0  0  0  0  0
  191.8840  175.9210  147.3360 C   0  0  2  0  0  3  0  0  0  0  0  0
  191.6830  176.1670  145.0720 C   0  0  0  0  0  0  0  0  0  0  0  0
  186.4770  177.9660  143.1350 N   0  0  0  0  0  2  0  0  0  0  0  0
  189.4590  177.1470  144.8080 C   0  0  2  0  0  3  0  0  0  0  0  0
  186.9860  178.4000  146.8450 C   0  0  0  0  0  3  0  0  0  0  0  0
  191.7260  175.8410  143.8180 N   0  0  0  0  0  0  0  0  0  0  0  0
  184.9240  178.1670  144.9830 C   0  0  0  0  0  3  0  0  0  0  0  0
  186.2520  178.1040  144.5430 C   0  0  0  0  0  0  0  0  0  0  0  0
  187.2980  178.2320  145.4900 C   0  0  0  0  0  0  0  0  0  0  0  0
  190.0340  177.5760  138.2290 C   0  0  0  0  0  3  0  0  0  0  0  0
  189.2190  177.6050  140.9100 C   0  0  0  0  0  0  0  0  0  0  0  0
  188.5570  178.3960  139.9640 C   0  0  0  0  0  3  0  0  0  0  0  0
  188.9630  178.3800  138.6260 C   0  0  0  0  0  3  0  0  0  0  0  0
  190.7020  176.7870  139.1700 C   0  0  0  0  0  3  0  0  0  0  0  0
  190.2980  176.8020  140.5080 C   0  0  0  0  0  3  0  0  0  0  0  0
  1 15  1  0  0  0  0
  3 21  1  0  0  0  0
  4 13  1  0  0  0  0
  6  2  2  0  0  0  0
  6 18  1  0  0  0  0
  7 13  1  0  0  0  0
  7  9  1  1  0  0  0
 10  8  2  0  0  0  0
 11 14  1  6  0  0  0
 11  7  1  0  0  0  0
 12 23  1  6  0  0  0
 12  1  1  0  0  0  0
 12  2  1  0  0  0  0
 13  5  1  1  0  0  0
 14  4  1  0  0  0  0
 15 20  1  0  0  0  0
 16  2  1  6  0  0  0
 16  3  1  0  0  0  0
 16 11  1  0  0  0  0
 17  8  1  0  0  0  0
 18 14  2  0  0  0  0
 19 10  1  0  0  0  0
 20 19  2  0  0  0  0
 20 21  1  0  0  0  0
 21 17  2  0  0  0  0
 22 25  2  0  0  0  0
 22 26  1  0  0  0  0
 24 23  2  0  0  0  0
 25 24  1  0  0  0  0
 26 27  2  0  0  0  0
 27 23  1  0  0  0  0
M  END
>  <MODEL>
7

>  <REMARK>
 VINA RESULT:      -8.3      3.057      7.704
  Name = 
  1 active torsions:
  status: ('A' for Active; 'I' for Inactive)
    1  A    between atoms: C_9  and  C_15
                            x       y       z     vdW  Elec       q    Type
                         _______ _______ _______ _____ _____    ______ ____

>  <TORSDO>
F 1

$$$$
=
 OpenBabel10272401003D

 27 31  0  0  1  0  0  0  0  0999 V2000
  186.6150  178.8990  140.6860 C   0  0  0  0  0  2  0  0  0  0  0  0
  185.2520  178.4240  142.7040 C   0  0  0  0  0  0  0  0  0  0  0  0
  187.1970  177.0250  143.1470 N   0  0  0  0  0  2  0  0  0  0  0  0
  184.9060  179.1630  146.7180 O   0  0  0  0  0  0  0  0  0  0  0  0
  186.8990  179.6980  147.9500 C   0  0  0  0  0  1  0  0  0  0  0  0
  184.1730  179.0030  143.1650 N   0  0  0  0  0  0  0  0  0  0  0  0
  186.8510  177.9400  146.1680 C   0  0  1  0  0  3  0  0  0  0  0  0
  190.9010  176.9230  142.9710 C   0  0  0  0  0  3  0  0  0  0  0  0
  187.3620  176.5810  146.6010 C   0  0  0  0  0  1  0  0  0  0  0  0
  191.1390  177.3190  141.6550 C   0  0  0  0  0  3  0  0  0  0  0  0
  185.8480  177.7830  145.0290 C   0  0  1  0  0  3  0  0  0  0  0  0
  185.4170  178.1420  141.2350 C   0  0  1  0  0  3  0  0  0  0  0  0
  186.0650  178.6020  147.3160 C   0  0  2  0  0  3  0  0  0  0  0  0
  184.8240  178.7730  145.4030 C   0  0  0  0  0  0  0  0  0  0  0  0
  187.7090  177.9860  140.3880 N   0  0  0  0  0  2  0  0  0  0  0  0
  186.4020  178.1340  143.6490 C   0  0  2  0  0  3  0  0  0  0  0  0
  189.5940  176.8640  143.4550 C   0  0  0  0  0  3  0  0  0  0  0  0
  184.0190  179.3010  144.5350 N   0  0  0  0  0  0  0  0  0  0  0  0
  190.0700  177.6640  140.8270 C   0  0  0  0  0  3  0  0  0  0  0  0
  188.7540  177.6370  141.3050 C   0  0  0  0  0  0  0  0  0  0  0  0
  188.5140  177.2220  142.6380 C   0  0  0  0  0  0  0  0  0  0  0  0
  181.9170  178.8610  138.8350 C   0  0  0  0  0  3  0  0  0  0  0  0
  184.1820  178.3820  140.4140 C   0  0  0  0  0  0  0  0  0  0  0  0
  184.1030  179.5380  139.6290 C   0  0  0  0  0  3  0  0  0  0  0  0
  182.9720  179.7780  138.8420 C   0  0  0  0  0  3  0  0  0  0  0  0
  181.9930  177.7020  139.6130 C   0  0  0  0  0  3  0  0  0  0  0  0
  183.1230  177.4610  140.4000 C   0  0  0  0  0  3  0  0  0  0  0  0
  1 12  1  0  0  0  0
  2  6  2  0  0  0  0
  3 16  1  0  0  0  0
  4 13  1  0  0  0  0
  6 18  1  0  0  0  0
  7  9  1  1  0  0  0
  7 13  1  0  0  0  0
  8 17  1  0  0  0  0
 10  8  2  0  0  0  0
 11 14  1  1  0  0  0
 11  7  1  0  0  0  0
 12 23  1  6  0  0  0
 12  2  1  0  0  0  0
 13  5  1  6  0  0  0
 14  4  1  0  0  0  0
 15  1  1  0  0  0  0
 15 20  1  0  0  0  0
 16  2  1  6  0  0  0
 16 11  1  0  0  0  0
 18 14  2  0  0  0  0
 19 20  2  0  0  0  0
 19 10  1  0  0  0  0
 20 21  1  0  0  0  0
 21  3  1  0  0  0  0
 21 17  2  0  0  0  0
 22 25  2  0  0  0  0
 22 26  1  0  0  0  0
 24 23  2  0  0  0  0
 25 24  1  0  0  0  0
 26 27  2  0  0  0  0
 27 23  1  0  0  0  0
M  END
>  <MODEL>
8

>  <REMARK>
 VINA RESULT:      -8.3      1.816      5.894
  Name = 
  1 active torsions:
  status: ('A' for Active; 'I' for Inactive)
    1  A    between atoms: C_9  and  C_15
                            x       y       z     vdW  Elec       q    Type
                         _______ _______ _______ _____ _____    ______ ____

>  <TORSDO>
F 1

$$$$
=
 OpenBabel10272401003D

 27 31  0  0  1  0  0  0  0  0999 V2000
  183.7800  178.1460  141.1890 C   0  0  0  0  0  2  0  0  0  0  0  0
  184.9490  178.4130  139.0160 C   0  0  0  0  0  0  0  0  0  0  0  0
  186.7890  178.8220  140.5610 N   0  0  0  0  0  2  0  0  0  0  0  0
  187.5650  176.6230  136.4210 O   0  0  0  0  0  0  0  0  0  0  0  0
  189.1610  175.0630  137.3130 C   0  0  0  0  0  1  0  0  0  0  0  0
  184.5640  178.1370  137.7970 N   0  0  0  0  0  0  0  0  0  0  0  0
  188.5570  177.1890  138.4890 C   0  0  1  0  0  3  0  0  0  0  0  0
  188.3450  177.6640  143.7220 C   0  0  0  0  0  3  0  0  0  0  0  0
  189.7340  178.0720  138.8520 C   0  0  0  0  0  1  0  0  0  0  0  0
  187.2540  177.6430  144.5910 C   0  0  0  0  0  3  0  0  0  0  0  0
  187.3020  178.0380  138.3120 C   0  0  1  0  0  3  0  0  0  0  0  0
  184.0140  179.0640  140.0000 C   0  0  1  0  0  3  0  0  0  0  0  0
  188.7960  176.5220  137.1210 C   0  0  2  0  0  3  0  0  0  0  0  0
  186.6880  177.4080  137.1300 C   0  0  0  0  0  0  0  0  0  0  0  0
  184.4490  178.6600  142.3750 N   0  0  0  0  0  2  0  0  0  0  0  0
  186.3220  177.9660  139.4820 C   0  0  2  0  0  3  0  0  0  0  0  0
  188.1650  178.0240  142.3870 C   0  0  0  0  0  3  0  0  0  0  0  0
  185.4210  177.4980  136.8760 N   0  0  0  0  0  0  0  0  0  0  0  0
  185.9820  177.9750  144.1210 C   0  0  0  0  0  3  0  0  0  0  0  0
  185.7800  178.3120  142.7770 C   0  0  0  0  0  0  0  0  0  0  0  0
  186.8920  178.3450  141.9000 C   0  0  0  0  0  0  0  0  0  0  0  0
  180.2770  180.4040  138.3370 C   0  0  0  0  0  3  0  0  0  0  0  0
  182.7220  179.5440  139.4030 C   0  0  0  0  0  0  0  0  0  0  0  0
  181.6060  178.7000  139.4300 C   0  0  0  0  0  3  0  0  0  0  0  0
  180.3870  179.1280  138.8960 C   0  0  0  0  0  3  0  0  0  0  0  0
  181.3870  181.2540  138.3130 C   0  0  0  0  0  3  0  0  0  0  0  0
  182.6070  180.8270  138.8450 C   0  0  0  0  0  3  0  0  0  0  0  0
  1 15  1  0  0  0  0
  2 12  1  0  0  0  0
  3 21  1  0  0  0  0
  4 13  1  0  0  0  0
  4 14  1  0  0  0  0
  6  2  2  0  0  0  0
  7  9  1  6  0  0  0
  8 10  1  0  0  0  0
 11 14  1  6  0  0  0
 11  7  1  0  0  0  0
 11 16  1  0  0  0  0
 12 23  1  6  0  0  0
 12  1  1  0  0  0  0
 13  5  1  1  0  0  0
 13  7  1  0  0  0  0
 15 20  1  0  0  0  0
 16  2  1  6  0  0  0
 16  3  1  0  0  0  0
 17  8  2  0  0  0  0
 18 14  2  0  0  0  0
 18  6  1  0  0  0  0
 19 10  2  0  0  0  0
 20 19  1  0  0  0  0
 21 17  1  0  0  0  0
 21 20  2  0  0  0  0
 22 25  1  0  0  0  0
 23 24  1  0  0  0  0
 25 24  2  0  0  0  0
 26 22  2  0  0  0  0
 26 27  1  0  0  0  0
 27 23  2  0  0  0  0
M  END
>  <MODEL>
9

>  <REMARK>
 VINA RESULT:      -8.2      2.691      7.139
  Name = 
  1 active torsions:
  status: ('A' for Active; 'I' for Inactive)
    1  A    between atoms: C_9  and  C_15
                            x       y       z     vdW  Elec       q    Type
                         _______ _______ _______ _____ _____    ______ ____

>  <TORSDO>
F 1

$$$$
