=
 OpenBabel10272402053D

 32 37  0  0  1  0  0  0  0  0999 V2000
  189.3410  177.2240  139.3970 C   0  0  2  0  0  0  0  0  0  0  0  0
  188.6740  177.8040  141.8180 C   0  0  2  0  0  3  0  0  0  0  0  0
  188.8060  176.4320  136.2560 O   0  0  0  0  0  1  0  0  0  0  0  0
  188.8990  176.2050  138.5270 O   0  0  0  0  0  0  0  0  0  0  0  0
  189.1860  176.7210  140.8480 C   0  0  2  0  0  3  0  0  0  0  0  0
  188.5410  177.2480  143.2590 C   0  0  2  0  0  3  0  0  0  0  0  0
  183.7220  179.0470  142.3170 C   0  0  0  0  0  2  0  0  0  0  0  0
  187.3930  178.4010  141.2660 C   0  0  0  0  0  0  0  0  0  0  0  0
  185.0480  178.3650  144.3350 C   0  0  0  0  0  2  0  0  0  0  0  0
  186.1660  177.8800  143.4180 C   0  0  2  0  0  3  0  0  0  0  0  0
  190.5750  176.2900  141.1980 C   0  0  0  0  0  2  0  0  0  0  0  0
  188.1940  178.3400  137.6200 C   0  0  2  0  0  0  0  0  0  0  0  0
  187.4990  177.9520  144.1270 C   0  0  0  0  0  2  0  0  0  0  0  0
  188.1820  176.7920  137.4560 C   0  0  1  0  0  0  0  0  0  0  0  0
  191.4300  177.1480  140.3090 C   0  0  0  0  0  2  0  0  0  0  0  0
  189.3110  179.0160  136.8130 C   0  0  0  0  0  1  0  0  0  0  0  0
  187.3760  178.7490  139.9740 C   0  0  0  0  0  3  0  0  0  0  0  0
  188.5680  178.5150  139.0760 C   0  0  1  0  0  3  0  0  0  0  0  0
  186.2010  178.7300  142.1450 C   0  0  2  0  0  3  0  0  0  0  0  0
  190.7110  177.4560  139.1400 O   0  0  0  0  0  0  0  0  0  0  0  0
  183.7060  178.2460  143.6170 C   0  0  0  0  0  2  0  0  0  0  0  0
  184.8610  178.5790  141.4150 C   0  0  0  0  0  2  0  0  0  0  0  0
  186.0550  176.6410  136.3150 O   0  0  0  0  0  1  0  0  0  0  0  0
  186.7570  176.1970  137.4400 C   0  0  1  0  0  3  0  0  0  0  0  0
  186.7830  174.7430  137.4460 N   0  0  0  0  0  2  0  0  0  0  0  0
  185.4990  174.3220  137.3700 O   0  0  0  0  0  1  0  0  0  0  0  0
  187.1990  179.9860  136.5390 O   0  0  0  0  0  1  0  0  0  0  0  0
  186.9510  178.9520  137.3260 O   0  0  0  0  0  0  0  0  0  0  0  0
  189.7820  177.1090  143.9220 O   0  0  0  0  0  0  0  0  0  0  0  0
  191.5140  178.7430  143.9120 C   0  0  0  0  0  2  0  0  0  0  0  0
  190.1540  178.3540  144.4560 C   0  0  0  0  0  3  0  0  0  0  0  0
  191.3920  178.1780  145.3100 C   0  0  0  0  0  2  0  0  0  0  0  0
  1  4  1  6  0  0  0
  1  5  1  0  0  0  0
  2  8  1  6  0  0  0
  2  6  1  0  0  0  0
  5 11  1  1  0  0  0
  5  2  1  0  0  0  0
  6 29  1  1  0  0  0
  6 13  1  0  0  0  0
  7 21  1  0  0  0  0
  8 19  1  0  0  0  0
 10 13  1  1  0  0  0
 10  9  1  0  0  0  0
 12 16  1  6  0  0  0
 12 18  1  0  0  0  0
 14  3  1  6  0  0  0
 14 12  1  0  0  0  0
 14  4  1  0  0  0  0
 15 11  1  0  0  0  0
 17  8  2  0  0  0  0
 18  1  1  0  0  0  0
 18 17  1  1  0  0  0
 19 22  1  6  0  0  0
 19 10  1  0  0  0  0
 20  1  1  0  0  0  0
 20 15  1  0  0  0  0
 21  9  1  0  0  0  0
 22  7  1  0  0  0  0
 24 23  1  6  0  0  0
 24 25  1  0  0  0  0
 24 14  1  0  0  0  0
 26 25  1  0  0  0  0
 27 28  1  0  0  0  0
 28 12  1  0  0  0  0
 29 31  1  0  0  0  0
 30 31  1  0  0  0  0
 30 32  1  0  0  0  0
 31 32  1  0  0  0  0
M  END
>  <MODEL>
1

>  <REMARK>
 VINA RESULT:      -7.0      0.000      0.000
  Name = 
  5 active torsions:
  status: ('A' for Active; 'I' for Inactive)
    1  A    between atoms: C_6  and  O_29
    2  A    between atoms: N_15  and  C_26
    3  A    between atoms: C_16  and  O_22
    4  A    between atoms: C_18  and  O_29
    5  A    between atoms: C_19  and  C_26
                            x       y       z     vdW  Elec       q    Type
                         _______ _______ _______ _____ _____    ______ ____

>  <TORSDO>
F 5

$$$$
=
 OpenBabel10272402053D

 32 37  0  0  1  0  0  0  0  0999 V2000
  189.2740  176.4980  137.3440 C   0  0  2  0  0  0  0  0  0  0  0  0
  188.8870  177.7690  139.5520 C   0  0  2  0  0  3  0  0  0  0  0  0
  188.3910  174.8030  134.6740 O   0  0  0  0  0  1  0  0  0  0  0  0
  188.7740  175.2640  136.8780 O   0  0  0  0  0  0  0  0  0  0  0  0
  189.3230  176.4500  138.8850 C   0  0  2  0  0  3  0  0  0  0  0  0
  188.9590  177.6670  141.0970 C   0  0  2  0  0  3  0  0  0  0  0  0
  183.9840  179.0750  140.3080 C   0  0  0  0  0  2  0  0  0  0  0  0
  187.5220  178.1670  139.0220 C   0  0  0  0  0  0  0  0  0  0  0  0
  185.5790  179.0340  142.2450 C   0  0  0  0  0  2  0  0  0  0  0  0
  186.5950  178.3040  141.3730 C   0  0  2  0  0  3  0  0  0  0  0  0
  190.7620  176.1510  139.1620 C   0  0  0  0  0  2  0  0  0  0  0  0
  187.8670  177.0280  135.4840 C   0  0  2  0  0  0  0  0  0  0  0  0
  188.0010  178.5920  141.8490 C   0  0  0  0  0  2  0  0  0  0  0  0
  187.9050  175.5000  135.7860 C   0  0  1  0  0  0  0  0  0  0  0  0
  191.4620  176.7090  137.9540 C   0  0  0  0  0  2  0  0  0  0  0  0
  188.8450  177.4380  134.3730 C   0  0  0  0  0  1  0  0  0  0  0  0
  187.3300  178.1140  137.6990 C   0  0  0  0  0  3  0  0  0  0  0  0
  188.4110  177.6300  136.7610 C   0  0  1  0  0  3  0  0  0  0  0  0
  186.4340  178.7360  139.9140 C   0  0  2  0  0  3  0  0  0  0  0  0
  190.5900  176.6510  136.8520 O   0  0  0  0  0  0  0  0  0  0  0  0
  184.1650  178.6980  141.7780 C   0  0  0  0  0  2  0  0  0  0  0  0
  185.0230  178.3660  139.4430 C   0  0  0  0  0  2  0  0  0  0  0  0
  186.0190  174.1700  135.0630 O   0  0  0  0  0  1  0  0  0  0  0  0
  186.5170  174.9190  136.1330 C   0  0  1  0  0  3  0  0  0  0  0  0
  186.5680  174.0830  137.3220 N   0  0  0  0  0  2  0  0  0  0  0  0
  186.3440  172.8090  136.9210 O   0  0  0  0  0  1  0  0  0  0  0  0
  186.7160  178.5280  134.3490 O   0  0  0  0  0  1  0  0  0  0  0  0
  186.5720  177.5160  135.1880 O   0  0  0  0  0  0  0  0  0  0  0  0
  190.2770  177.7390  141.6020 O   0  0  0  0  0  0  0  0  0  0  0  0
  191.5880  176.7500  143.3260 C   0  0  0  0  0  2  0  0  0  0  0  0
  190.2620  177.3880  142.9630 C   0  0  0  0  0  3  0  0  0  0  0  0
  190.3710  175.8830  143.0870 C   0  0  0  0  0  2  0  0  0  0  0  0
  1 20  1  6  0  0  0
  1  5  1  0  0  0  0
  2  8  1  1  0  0  0
  2  6  1  0  0  0  0
  4  1  1  0  0  0  0
  5 11  1  6  0  0  0
  5  2  1  0  0  0  0
  6 29  1  1  0  0  0
  6 13  1  0  0  0  0
  7 21  1  0  0  0  0
  8 19  1  0  0  0  0
 10 13  1  1  0  0  0
 10  9  1  0  0  0  0
 12 16  1  6  0  0  0
 12 14  1  0  0  0  0
 12 18  1  0  0  0  0
 14  3  1  6  0  0  0
 14 24  1  0  0  0  0
 14  4  1  0  0  0  0
 15 11  1  0  0  0  0
 17  8  2  0  0  0  0
 18  1  1  0  0  0  0
 18 17  1  1  0  0  0
 19 22  1  6  0  0  0
 19 10  1  0  0  0  0
 20 15  1  0  0  0  0
 21  9  1  0  0  0  0
 22  7  1  0  0  0  0
 24 23  1  6  0  0  0
 24 25  1  0  0  0  0
 26 25  1  0  0  0  0
 27 28  1  0  0  0  0
 28 12  1  0  0  0  0
 29 31  1  0  0  0  0
 31 32  1  0  0  0  0
 31 30  1  0  0  0  0
 32 30  1  0  0  0  0
M  END
>  <MODEL>
2

>  <REMARK>
 VINA RESULT:      -6.7      1.701      2.277
  Name = 
  5 active torsions:
  status: ('A' for Active; 'I' for Inactive)
    1  A    between atoms: C_6  and  O_29
    2  A    between atoms: N_15  and  C_26
    3  A    between atoms: C_16  and  O_22
    4  A    between atoms: C_18  and  O_29
    5  A    between atoms: C_19  and  C_26
                            x       y       z     vdW  Elec       q    Type
                         _______ _______ _______ _____ _____    ______ ____

>  <TORSDO>
F 5

$$$$
=
 OpenBabel10272402053D

 32 37  0  0  1  0  0  0  0  0999 V2000
  189.1630  176.9930  138.4800 C   0  0  2  0  0  0  0  0  0  0  0  0
  188.2020  178.0840  140.6080 C   0  0  2  0  0  3  0  0  0  0  0  0
  189.0270  175.3870  135.6190 O   0  0  0  0  0  1  0  0  0  0  0  0
  188.9020  175.7470  137.8710 O   0  0  0  0  0  0  0  0  0  0  0  0
  188.9010  176.8560  139.9940 C   0  0  2  0  0  3  0  0  0  0  0  0
  187.9680  177.8960  142.1280 C   0  0  2  0  0  3  0  0  0  0  0  0
  183.1370  178.8680  140.3750 C   0  0  0  0  0  2  0  0  0  0  0  0
  186.9390  178.3820  139.8200 C   0  0  0  0  0  0  0  0  0  0  0  0
  184.3000  178.8610  142.5990 C   0  0  0  0  0  2  0  0  0  0  0  0
  185.5440  178.2860  141.9300 C   0  0  2  0  0  3  0  0  0  0  0  0
  190.2780  176.6790  140.5530 C   0  0  0  0  0  2  0  0  0  0  0  0
  188.1160  177.4970  136.3900 C   0  0  2  0  0  0  0  0  0  0  0  0
  186.7850  178.6770  142.6990 C   0  0  0  0  0  2  0  0  0  0  0  0
  188.2530  175.9650  136.6330 C   0  0  1  0  0  0  0  0  0  0  0  0
  191.1450  177.3740  139.5410 C   0  0  0  0  0  2  0  0  0  0  0  0
  189.2500  178.0660  135.5250 C   0  0  0  0  0  1  0  0  0  0  0  0
  187.0270  178.3910  138.4850 C   0  0  0  0  0  3  0  0  0  0  0  0
  188.3210  178.0700  137.7750 C   0  0  1  0  0  3  0  0  0  0  0  0
  185.6390  178.7880  140.4880 C   0  0  2  0  0  3  0  0  0  0  0  0
  190.5280  177.3010  138.2800 O   0  0  0  0  0  0  0  0  0  0  0  0
  183.0540  178.4200  141.8340 C   0  0  0  0  0  2  0  0  0  0  0  0
  184.4000  178.3150  139.7180 C   0  0  0  0  0  2  0  0  0  0  0  0
  186.5290  174.8310  135.3700 O   0  0  0  0  0  1  0  0  0  0  0  0
  186.8930  175.2340  136.6590 C   0  0  1  0  0  3  0  0  0  0  0  0
  186.9260  174.0730  137.5340 N   0  0  0  0  0  2  0  0  0  0  0  0
  186.9760  172.9780  136.7390 O   0  0  0  0  0  1  0  0  0  0  0  0
  187.0390  178.0780  134.5550 O   0  0  0  0  0  1  0  0  0  0  0  0
  186.8640  177.8770  135.8500 O   0  0  0  0  0  0  0  0  0  0  0  0
  189.1410  178.0630  142.9000 O   0  0  0  0  0  0  0  0  0  0  0  0
  189.7290  178.0380  145.2070 C   0  0  0  0  0  2  0  0  0  0  0  0
  189.0170  177.3140  144.0820 C   0  0  0  0  0  3  0  0  0  0  0  0
  190.3910  176.8600  144.5280 C   0  0  0  0  0  2  0  0  0  0  0  0
  1  4  1  6  0  0  0
  1  5  1  0  0  0  0
  2  8  1  6  0  0  0
  2  6  1  0  0  0  0
  5 11  1  1  0  0  0
  5  2  1  0  0  0  0
  6 13  1  0  0  0  0
  6 29  1  1  0  0  0
  7 21  1  0  0  0  0
  8 19  1  0  0  0  0
 10  9  1  1  0  0  0
 10 13  1  0  0  0  0
 12 16  1  6  0  0  0
 12 14  1  0  0  0  0
 12 18  1  0  0  0  0
 14  3  1  6  0  0  0
 14 24  1  0  0  0  0
 14  4  1  0  0  0  0
 15 11  1  0  0  0  0
 17  8  2  0  0  0  0
 18  1  1  0  0  0  0
 18 17  1  1  0  0  0
 19 22  1  6  0  0  0
 19 10  1  0  0  0  0
 20  1  1  0  0  0  0
 20 15  1  0  0  0  0
 21  9  1  0  0  0  0
 22  7  1  0  0  0  0
 24 23  1  6  0  0  0
 24 25  1  0  0  0  0
 26 25  1  0  0  0  0
 27 28  1  0  0  0  0
 28 12  1  0  0  0  0
 29 31  1  0  0  0  0
 31 32  1  0  0  0  0
 31 30  1  0  0  0  0
 32 30  1  0  0  0  0
M  END
>  <MODEL>
3

>  <REMARK>
 VINA RESULT:      -6.5      1.312      1.599
  Name = 
  5 active torsions:
  status: ('A' for Active; 'I' for Inactive)
    1  A    between atoms: C_6  and  O_29
    2  A    between atoms: N_15  and  C_26
    3  A    between atoms: C_16  and  O_22
    4  A    between atoms: C_18  and  O_29
    5  A    between atoms: C_19  and  C_26
                            x       y       z     vdW  Elec       q    Type
                         _______ _______ _______ _____ _____    ______ ____

>  <TORSDO>
F 5

$$$$
=
 OpenBabel10272402053D

 32 37  0  0  1  0  0  0  0  0999 V2000
  185.1580  178.3560  138.8280 C   0  0  2  0  0  0  0  0  0  0  0  0
  187.0860  178.4720  140.5340 C   0  0  2  0  0  3  0  0  0  0  0  0
  182.0950  177.7500  137.8120 O   0  0  0  0  0  1  0  0  0  0  0  0
  184.2170  177.3420  138.5500 O   0  0  0  0  0  0  0  0  0  0  0  0
  186.4390  177.6920  139.3730 C   0  0  2  0  0  3  0  0  0  0  0  0
  188.3690  177.7640  141.0400 C   0  0  2  0  0  3  0  0  0  0  0  0
  185.5080  178.1200  145.4040 C   0  0  0  0  0  2  0  0  0  0  0  0
  186.0450  178.7080  141.6140 C   0  0  0  0  0  0  0  0  0  0  0  0
  187.9110  177.6740  144.8330 C   0  0  0  0  0  2  0  0  0  0  0  0
  187.5380  177.6370  143.3550 C   0  0  2  0  0  3  0  0  0  0  0  0
  187.3330  177.6650  138.1740 C   0  0  0  0  0  2  0  0  0  0  0  0
  183.0340  179.2450  139.4740 C   0  0  2  0  0  0  0  0  0  0  0  0
  188.7200  178.0360  142.5020 C   0  0  0  0  0  2  0  0  0  0  0  0
  182.9300  177.7870  138.9350 C   0  0  1  0  0  0  0  0  0  0  0  0
  186.8350  178.8210  137.3530 C   0  0  0  0  0  2  0  0  0  0  0  0
  182.7220  180.2990  138.4020 C   0  0  0  0  0  1  0  0  0  0  0  0
  184.8450  179.1590  141.2310 C   0  0  0  0  0  3  0  0  0  0  0  0
  184.5100  179.3810  139.7740 C   0  0  1  0  0  3  0  0  0  0  0  0
  186.3590  178.5780  143.0920 C   0  0  2  0  0  3  0  0  0  0  0  0
  185.4660  179.0120  137.6150 O   0  0  0  0  0  0  0  0  0  0  0  0
  186.7180  177.2280  145.6760 C   0  0  0  0  0  2  0  0  0  0  0  0
  185.1570  178.1040  143.9180 C   0  0  0  0  0  2  0  0  0  0  0  0
  180.9880  177.0000  140.1430 O   0  0  0  0  0  1  0  0  0  0  0  0
  182.3620  176.7980  139.9750 C   0  0  1  0  0  3  0  0  0  0  0  0
  182.6000  175.4170  139.5860 N   0  0  0  0  0  2  0  0  0  0  0  0
  181.4190  174.9190  139.1490 O   0  0  0  0  0  1  0  0  0  0  0  0
  181.1580  180.1250  140.2300 O   0  0  0  0  0  1  0  0  0  0  0  0
  182.2440  179.4820  140.6250 O   0  0  0  0  0  0  0  0  0  0  0  0
  189.4790  177.9390  140.1820 O   0  0  0  0  0  0  0  0  0  0  0  0
  191.7620  177.2890  140.0030 C   0  0  0  0  0  2  0  0  0  0  0  0
  190.3510  176.8490  140.3400 C   0  0  0  0  0  3  0  0  0  0  0  0
  190.9550  176.4990  138.9970 C   0  0  0  0  0  2  0  0  0  0  0  0
  1 20  1  6  0  0  0
  1  5  1  0  0  0  0
  1 18  1  0  0  0  0
  2  6  1  0  0  0  0
  2  8  1  1  0  0  0
  4  1  1  0  0  0  0
  4 14  1  0  0  0  0
  5 11  1  6  0  0  0
  5  2  1  0  0  0  0
  6 29  1  6  0  0  0
  6 13  1  0  0  0  0
  7 21  1  0  0  0  0
  8 19  1  0  0  0  0
  9 21  1  0  0  0  0
 10 13  1  6  0  0  0
 10  9  1  0  0  0  0
 12 16  1  6  0  0  0
 12 18  1  0  0  0  0
 12 28  1  0  0  0  0
 14  3  1  6  0  0  0
 14 12  1  0  0  0  0
 14 24  1  0  0  0  0
 15 20  1  0  0  0  0
 15 11  1  0  0  0  0
 17  8  2  0  0  0  0
 18 17  1  1  0  0  0
 19 10  1  0  0  0  0
 19 22  1  1  0  0  0
 22  7  1  0  0  0  0
 24 23  1  6  0  0  0
 25 24  1  0  0  0  0
 26 25  1  0  0  0  0
 27 28  1  0  0  0  0
 29 31  1  0  0  0  0
 30 31  1  0  0  0  0
 32 30  1  0  0  0  0
 32 31  1  0  0  0  0
M  END
>  <MODEL>
4

>  <REMARK>
 VINA RESULT:      -6.2      2.867      4.586
  Name = 
  5 active torsions:
  status: ('A' for Active; 'I' for Inactive)
    1  A    between atoms: C_6  and  O_29
    2  A    between atoms: N_15  and  C_26
    3  A    between atoms: C_16  and  O_22
    4  A    between atoms: C_18  and  O_29
    5  A    between atoms: C_19  and  C_26
                            x       y       z     vdW  Elec       q    Type
                         _______ _______ _______ _____ _____    ______ ____

>  <TORSDO>
F 5

$$$$
=
 OpenBabel10272402053D

 32 37  0  0  1  0  0  0  0  0999 V2000
  188.6750  176.1880  135.8240 C   0  0  2  0  0  0  0  0  0  0  0  0
  190.4660  176.9290  137.5220 C   0  0  2  0  0  3  0  0  0  0  0  0
  185.7250  175.1110  134.8660 O   0  0  0  0  0  1  0  0  0  0  0  0
  187.8040  175.0780  135.8120 O   0  0  0  0  0  0  0  0  0  0  0  0
  189.9420  175.8000  136.6150 C   0  0  2  0  0  3  0  0  0  0  0  0
  191.7390  176.4890  138.2880 C   0  0  2  0  0  3  0  0  0  0  0  0
  188.5530  177.9380  142.1750 C   0  0  0  0  0  2  0  0  0  0  0  0
  189.3390  177.4080  138.4210 C   0  0  0  0  0  0  0  0  0  0  0  0
  191.0090  177.4990  141.9010 C   0  0  0  0  0  2  0  0  0  0  0  0
  190.7470  177.0010  140.4840 C   0  0  2  0  0  3  0  0  0  0  0  0
  190.9210  175.4760  135.5310 C   0  0  0  0  0  2  0  0  0  0  0  0
  186.4710  177.0890  136.0520 C   0  0  2  0  0  0  0  0  0  0  0  0
  191.9700  177.2040  139.6190 C   0  0  0  0  0  2  0  0  0  0  0  0
  186.4730  175.5330  135.9710 C   0  0  1  0  0  0  0  0  0  0  0  0
  190.4320  176.3020  134.3750 C   0  0  0  0  0  2  0  0  0  0  0  0
  186.1920  177.7550  134.6970 C   0  0  0  0  0  1  0  0  0  0  0  0
  188.1510  177.6460  137.8530 C   0  0  0  0  0  3  0  0  0  0  0  0
  187.9140  177.4030  136.3810 C   0  0  1  0  0  3  0  0  0  0  0  0
  189.5500  177.7430  139.8850 C   0  0  2  0  0  3  0  0  0  0  0  0
  189.0420  176.4720  134.4890 O   0  0  0  0  0  0  0  0  0  0  0  0
  189.7790  177.2470  142.7710 C   0  0  0  0  0  2  0  0  0  0  0  0
  188.3130  177.4590  140.7460 C   0  0  0  0  0  2  0  0  0  0  0  0
  184.5200  174.5790  137.0310 O   0  0  0  0  0  1  0  0  0  0  0  0
  185.8750  174.8630  137.2270 C   0  0  1  0  0  3  0  0  0  0  0  0
  186.5790  173.6350  137.5650 N   0  0  0  0  0  2  0  0  0  0  0  0
  185.6660  172.7880  138.0960 O   0  0  0  0  0  1  0  0  0  0  0  0
  184.4000  177.7210  136.4680 O   0  0  0  0  0  1  0  0  0  0  0  0
  185.5900  177.6050  137.0320 O   0  0  0  0  0  0  0  0  0  0  0  0
  192.9000  176.4730  137.4820 O   0  0  0  0  0  0  0  0  0  0  0  0
  194.7240  175.0220  136.9960 C   0  0  0  0  0  2  0  0  0  0  0  0
  193.8550  175.6320  138.0770 C   0  0  0  0  0  3  0  0  0  0  0  0
  193.6140  174.2080  137.6240 C   0  0  0  0  0  2  0  0  0  0  0  0
  1 20  1  6  0  0  0
  1 18  1  0  0  0  0
  1  5  1  0  0  0  0
  2  6  1  0  0  0  0
  2  8  1  1  0  0  0
  4  1  1  0  0  0  0
  4 14  1  0  0  0  0
  5 11  1  6  0  0  0
  5  2  1  0  0  0  0
  6 29  1  6  0  0  0
  6 13  1  0  0  0  0
  7 21  1  0  0  0  0
  8 19  1  0  0  0  0
  9 21  1  0  0  0  0
 10 13  1  6  0  0  0
 10  9  1  0  0  0  0
 12 16  1  6  0  0  0
 12 18  1  0  0  0  0
 12 28  1  0  0  0  0
 14  3  1  6  0  0  0
 14 12  1  0  0  0  0
 14 24  1  0  0  0  0
 15 20  1  0  0  0  0
 15 11  1  0  0  0  0
 17  8  2  0  0  0  0
 18 17  1  1  0  0  0
 19 10  1  0  0  0  0
 19 22  1  1  0  0  0
 22  7  1  0  0  0  0
 24 23  1  6  0  0  0
 24 25  1  0  0  0  0
 25 26  1  0  0  0  0
 27 28  1  0  0  0  0
 29 31  1  0  0  0  0
 30 32  1  0  0  0  0
 30 31  1  0  0  0  0
 32 31  1  0  0  0  0
M  END
>  <MODEL>
5

>  <REMARK>
 VINA RESULT:      -6.2      2.678      4.908
  Name = 
  5 active torsions:
  status: ('A' for Active; 'I' for Inactive)
    1  A    between atoms: C_6  and  O_29
    2  A    between atoms: N_15  and  C_26
    3  A    between atoms: C_16  and  O_22
    4  A    between atoms: C_18  and  O_29
    5  A    between atoms: C_19  and  C_26
                            x       y       z     vdW  Elec       q    Type
                         _______ _______ _______ _____ _____    ______ ____

>  <TORSDO>
F 5

$$$$
=
 OpenBabel10272402053D

 32 37  0  0  1  0  0  0  0  0999 V2000
  187.0180  176.6590  136.8080 C   0  0  2  0  0  0  0  0  0  0  0  0
  187.5160  177.9630  138.9730 C   0  0  2  0  0  3  0  0  0  0  0  0
  185.2280  174.7890  134.7860 O   0  0  0  0  0  1  0  0  0  0  0  0
  186.4960  175.3640  136.5970 O   0  0  0  0  0  0  0  0  0  0  0  0
  187.7480  176.6700  138.1670 C   0  0  2  0  0  3  0  0  0  0  0  0
  188.2740  177.9240  140.3250 C   0  0  2  0  0  3  0  0  0  0  0  0
  183.3460  178.8030  141.8410 C   0  0  0  0  0  2  0  0  0  0  0  0
  186.0240  178.2040  139.1080 C   0  0  0  0  0  0  0  0  0  0  0  0
  185.6280  178.9890  142.8690 C   0  0  0  0  0  2  0  0  0  0  0  0
  186.2240  178.3330  141.6280 C   0  0  2  0  0  3  0  0  0  0  0  0
  189.1830  176.5260  137.7730 C   0  0  0  0  0  2  0  0  0  0  0  0
  184.8870  176.9780  135.7710 C   0  0  2  0  0  0  0  0  0  0  0  0
  187.6560  178.7760  141.4340 C   0  0  0  0  0  2  0  0  0  0  0  0
  185.2140  175.4740  136.0070 C   0  0  1  0  0  0  0  0  0  0  0  0
  189.2140  177.1070  136.3870 C   0  0  0  0  0  2  0  0  0  0  0  0
  185.2240  177.4440  134.3470 C   0  0  0  0  0  1  0  0  0  0  0  0
  185.2740  178.0850  138.0070 C   0  0  0  0  0  3  0  0  0  0  0  0
  185.8720  177.6770  136.6810 C   0  0  1  0  0  3  0  0  0  0  0  0
  185.3900  178.6940  140.3970 C   0  0  2  0  0  3  0  0  0  0  0  0
  187.9570  176.9240  135.7850 O   0  0  0  0  0  0  0  0  0  0  0  0
  184.1960  178.4980  143.0730 C   0  0  0  0  0  2  0  0  0  0  0  0
  183.9630  178.1700  140.5970 C   0  0  0  0  0  2  0  0  0  0  0  0
  183.2400  174.0860  136.1660 O   0  0  0  0  0  1  0  0  0  0  0  0
  184.1920  174.7710  136.9270 C   0  0  1  0  0  3  0  0  0  0  0  0
  184.8410  173.8390  137.8360 N   0  0  0  0  0  2  0  0  0  0  0  0
  184.6390  172.5960  137.3400 O   0  0  0  0  0  1  0  0  0  0  0  0
  182.9150  177.5170  134.9430 O   0  0  0  0  0  1  0  0  0  0  0  0
  183.5510  177.3260  136.0860 O   0  0  0  0  0  0  0  0  0  0  0  0
  189.6640  178.1450  140.1940 O   0  0  0  0  0  0  0  0  0  0  0  0
  191.3370  177.7120  141.8320 C   0  0  0  0  0  2  0  0  0  0  0  0
  190.3520  177.1100  140.8500 C   0  0  0  0  0  3  0  0  0  0  0  0
  191.8220  177.1910  140.4980 C   0  0  0  0  0  2  0  0  0  0  0  0
  1 20  1  6  0  0  0
  1  5  1  0  0  0  0
  2  8  1  1  0  0  0
  2  6  1  0  0  0  0
  4  1  1  0  0  0  0
  5 11  1  6  0  0  0
  5  2  1  0  0  0  0
  6 29  1  6  0  0  0
  6 13  1  0  0  0  0
  7 21  1  0  0  0  0
  8 19  1  0  0  0  0
  9 21  1  0  0  0  0
 10 13  1  6  0  0  0
 10  9  1  0  0  0  0
 12 16  1  6  0  0  0
 12 14  1  0  0  0  0
 12 28  1  0  0  0  0
 12 18  1  0  0  0  0
 14  3  1  6  0  0  0
 14  4  1  0  0  0  0
 14 24  1  0  0  0  0
 15 11  1  0  0  0  0
 17  8  2  0  0  0  0
 18  1  1  0  0  0  0
 18 17  1  1  0  0  0
 19 22  1  1  0  0  0
 19 10  1  0  0  0  0
 20 15  1  0  0  0  0
 22  7  1  0  0  0  0
 24 23  1  6  0  0  0
 24 25  1  0  0  0  0
 26 25  1  0  0  0  0
 27 28  1  0  0  0  0
 29 31  1  0  0  0  0
 31 30  1  0  0  0  0
 32 31  1  0  0  0  0
 32 30  1  0  0  0  0
M  END
>  <MODEL>
6

>  <REMARK>
 VINA RESULT:      -6.1      1.915      3.349
  Name = 
  5 active torsions:
  status: ('A' for Active; 'I' for Inactive)
    1  A    between atoms: C_6  and  O_29
    2  A    between atoms: N_15  and  C_26
    3  A    between atoms: C_16  and  O_22
    4  A    between atoms: C_18  and  O_29
    5  A    between atoms: C_19  and  C_26
                            x       y       z     vdW  Elec       q    Type
                         _______ _______ _______ _____ _____    ______ ____

>  <TORSDO>
F 5

$$$$
=
 OpenBabel10272402053D

 32 37  0  0  1  0  0  0  0  0999 V2000
  189.3710  177.5630  141.7860 C   0  0  2  0  0  0  0  0  0  0  0  0
  186.8050  177.7970  141.8180 C   0  0  2  0  0  3  0  0  0  0  0  0
  192.4010  177.6760  143.0460 O   0  0  0  0  0  1  0  0  0  0  0  0
  190.3920  178.4180  142.2530 O   0  0  0  0  0  0  0  0  0  0  0  0
  188.1500  178.4280  141.4100 C   0  0  2  0  0  3  0  0  0  0  0  0
  185.6140  178.7030  141.4130 C   0  0  2  0  0  3  0  0  0  0  0  0
  184.8550  178.1060  146.5540 C   0  0  0  0  0  2  0  0  0  0  0  0
  186.8450  177.4540  143.2960 C   0  0  0  0  0  0  0  0  0  0  0  0
  183.4950  178.8740  144.5890 C   0  0  0  0  0  2  0  0  0  0  0  0
  184.7420  178.7980  143.7150 C   0  0  2  0  0  3  0  0  0  0  0  0
  188.2690  178.5380  139.9220 C   0  0  0  0  0  2  0  0  0  0  0  0
  190.4140  176.4000  143.5970 C   0  0  2  0  0  0  0  0  0  0  0  0
  184.3620  178.5430  142.2740 C   0  0  0  0  0  2  0  0  0  0  0  0
  191.0410  177.8050  143.3510 C   0  0  1  0  0  0  0  0  0  0  0  0
  189.0180  177.2900  139.5490 C   0  0  0  0  0  2  0  0  0  0  0  0
  191.2020  175.2700  142.9180 C   0  0  0  0  0  1  0  0  0  0  0  0
  187.9290  176.8180  143.7560 C   0  0  0  0  0  3  0  0  0  0  0  0
  189.0980  176.4930  142.8560 C   0  0  1  0  0  3  0  0  0  0  0  0
  185.6650  177.6870  144.2200 C   0  0  2  0  0  3  0  0  0  0  0  0
  189.8430  176.9120  140.6230 O   0  0  0  0  0  0  0  0  0  0  0  0
  183.8960  179.1750  146.0320 C   0  0  0  0  0  2  0  0  0  0  0  0
  186.0880  178.0120  145.6580 C   0  0  0  0  0  2  0  0  0  0  0  0
  191.2580  180.0520  144.2200 O   0  0  0  0  0  1  0  0  0  0  0  0
  190.9210  178.7410  144.5740 C   0  0  1  0  0  3  0  0  0  0  0  0
  189.5780  178.7240  145.1320 N   0  0  0  0  0  2  0  0  0  0  0  0
  189.6960  178.3870  146.4380 O   0  0  0  0  0  1  0  0  0  0  0  0
  191.3930  175.7340  145.4570 O   0  0  0  0  0  1  0  0  0  0  0  0
  190.2200  176.0960  144.9660 O   0  0  0  0  0  0  0  0  0  0  0  0
  185.3210  178.6580  140.0310 O   0  0  0  0  0  0  0  0  0  0  0  0
  183.5990  178.4270  138.4030 C   0  0  0  0  0  2  0  0  0  0  0  0
  183.9260  178.6760  139.8620 C   0  0  0  0  0  3  0  0  0  0  0  0
  183.5510  179.8330  138.9600 C   0  0  0  0  0  2  0  0  0  0  0  0
  1 20  1  6  0  0  0
  1  4  1  0  0  0  0
  1 18  1  0  0  0  0
  2  8  1  1  0  0  0
  4 14  1  0  0  0  0
  5 11  1  6  0  0  0
  5  1  1  0  0  0  0
  5  2  1  0  0  0  0
  6 29  1  6  0  0  0
  6  2  1  0  0  0  0
  6 13  1  0  0  0  0
  8 17  2  0  0  0  0
  8 19  1  0  0  0  0
  9 21  1  0  0  0  0
 10 13  1  6  0  0  0
 10 19  1  0  0  0  0
 10  9  1  0  0  0  0
 12 16  1  6  0  0  0
 12 28  1  0  0  0  0
 14  3  1  6  0  0  0
 14 12  1  0  0  0  0
 14 24  1  0  0  0  0
 15 11  1  0  0  0  0
 15 20  1  0  0  0  0
 18 12  1  0  0  0  0
 18 17  1  1  0  0  0
 19 22  1  1  0  0  0
 21  7  1  0  0  0  0
 22  7  1  0  0  0  0
 24 23  1  6  0  0  0
 24 25  1  0  0  0  0
 25 26  1  0  0  0  0
 28 27  1  0  0  0  0
 30 32  1  0  0  0  0
 30 31  1  0  0  0  0
 31 29  1  0  0  0  0
 32 31  1  0  0  0  0
M  END
>  <MODEL>
7

>  <REMARK>
 VINA RESULT:      -6.1      2.752      6.252
  Name = 
  5 active torsions:
  status: ('A' for Active; 'I' for Inactive)
    1  A    between atoms: C_6  and  O_29
    2  A    between atoms: N_15  and  C_26
    3  A    between atoms: C_16  and  O_22
    4  A    between atoms: C_18  and  O_29
    5  A    between atoms: C_19  and  C_26
                            x       y       z     vdW  Elec       q    Type
                         _______ _______ _______ _____ _____    ______ ____

>  <TORSDO>
F 5

$$$$
=
 OpenBabel10272402053D

 32 37  0  0  1  0  0  0  0  0999 V2000
  193.1770  173.2120  135.8840 C   0  0  2  0  0  0  0  0  0  0  0  0
  190.6530  173.6200  136.2040 C   0  0  2  0  0  3  0  0  0  0  0  0
  196.3540  174.0380  135.8010 O   0  0  0  0  0  1  0  0  0  0  0  0
  194.1580  173.9420  135.1800 O   0  0  0  0  0  0  0  0  0  0  0  0
  191.8140  173.4550  135.2040 C   0  0  2  0  0  3  0  0  0  0  0  0
  189.3090  173.8560  135.4700 C   0  0  2  0  0  3  0  0  0  0  0  0
  189.6010  178.0250  138.6150 C   0  0  0  0  0  2  0  0  0  0  0  0
  191.0100  174.7050  137.2040 C   0  0  0  0  0  0  0  0  0  0  0  0
  187.8160  176.8750  137.2770 C   0  0  0  0  0  2  0  0  0  0  0  0
  188.8780  175.9620  136.6740 C   0  0  2  0  0  3  0  0  0  0  0  0
  191.6380  172.2270  134.3680 C   0  0  0  0  0  2  0  0  0  0  0  0
  194.6710  174.0630  137.5460 C   0  0  2  0  0  0  0  0  0  0  0  0
  188.2670  174.6390  136.2690 C   0  0  0  0  0  2  0  0  0  0  0  0
  195.0700  174.5030  136.1060 C   0  0  1  0  0  0  0  0  0  0  0  0
  192.4470  171.1970  135.1040 C   0  0  0  0  0  2  0  0  0  0  0  0
  195.4470  172.8280  138.0260 C   0  0  0  0  0  1  0  0  0  0  0  0
  192.2280  174.6650  137.7550 C   0  0  0  0  0  3  0  0  0  0  0  0
  193.2390  173.6110  137.3680 C   0  0  1  0  0  3  0  0  0  0  0  0
  190.0040  175.7340  137.6850 C   0  0  2  0  0  3  0  0  0  0  0  0
  193.4970  171.8390  135.7840 O   0  0  0  0  0  0  0  0  0  0  0  0
  188.4410  178.2210  137.6400 C   0  0  0  0  0  2  0  0  0  0  0  0
  190.6470  177.0860  138.0190 C   0  0  0  0  0  2  0  0  0  0  0  0
  196.3800  176.5170  135.8290 O   0  0  0  0  0  1  0  0  0  0  0  0
  195.0700  176.0360  135.9220 C   0  0  1  0  0  3  0  0  0  0  0  0
  194.3270  176.4340  134.7370 N   0  0  0  0  0  2  0  0  0  0  0  0
  194.8140  177.6370  134.3490 O   0  0  0  0  0  1  0  0  0  0  0  0
  195.8900  174.8940  139.1860 O   0  0  0  0  0  1  0  0  0  0  0  0
  194.7750  175.0980  138.5060 O   0  0  0  0  0  0  0  0  0  0  0  0
  188.7700  172.6820  134.8980 O   0  0  0  0  0  0  0  0  0  0  0  0
  188.0830  170.4710  135.4540 C   0  0  0  0  0  2  0  0  0  0  0  0
  188.1770  171.9120  135.9130 C   0  0  0  0  0  3  0  0  0  0  0  0
  186.8600  171.3590  135.4120 C   0  0  0  0  0  2  0  0  0  0  0  0
  1  4  1  6  0  0  0
  1 18  1  0  0  0  0
  2  8  1  1  0  0  0
  4 14  1  0  0  0  0
  5 11  1  6  0  0  0
  5  1  1  0  0  0  0
  5  2  1  0  0  0  0
  6 29  1  1  0  0  0
  6  2  1  0  0  0  0
  6 13  1  0  0  0  0
  8 19  1  0  0  0  0
  8 17  2  0  0  0  0
  9 21  1  0  0  0  0
 10 13  1  1  0  0  0
 10  9  1  0  0  0  0
 10 19  1  0  0  0  0
 11 15  1  0  0  0  0
 12 16  1  1  0  0  0
 12 28  1  0  0  0  0
 14  3  1  6  0  0  0
 14 12  1  0  0  0  0
 15 20  1  0  0  0  0
 18 12  1  0  0  0  0
 18 17  1  6  0  0  0
 19 22  1  6  0  0  0
 20  1  1  0  0  0  0
 21  7  1  0  0  0  0
 22  7  1  0  0  0  0
 24 23  1  6  0  0  0
 24 14  1  0  0  0  0
 25 24  1  0  0  0  0
 26 25  1  0  0  0  0
 28 27  1  0  0  0  0
 29 31  1  0  0  0  0
 30 31  1  0  0  0  0
 32 30  1  0  0  0  0
 32 31  1  0  0  0  0
M  END
>  <MODEL>
8

>  <REMARK>
 VINA RESULT:      -5.8      5.150      8.470
  Name = 
  5 active torsions:
  status: ('A' for Active; 'I' for Inactive)
    1  A    between atoms: C_6  and  O_29
    2  A    between atoms: N_15  and  C_26
    3  A    between atoms: C_16  and  O_22
    4  A    between atoms: C_18  and  O_29
    5  A    between atoms: C_19  and  C_26
                            x       y       z     vdW  Elec       q    Type
                         _______ _______ _______ _____ _____    ______ ____

>  <TORSDO>
F 5

$$$$
=
 OpenBabel10272402053D

 32 37  0  0  1  0  0  0  0  0999 V2000
  182.2840  177.1450  138.6970 C   0  0  2  0  0  0  0  0  0  0  0  0
  184.1260  175.9900  137.3140 C   0  0  2  0  0  3  0  0  0  0  0  0
  181.0910  179.1100  141.0420 O   0  0  0  0  0  1  0  0  0  0  0  0
  182.1290  177.3110  140.0900 O   0  0  0  0  0  0  0  0  0  0  0  0
  183.0950  175.8560  138.4520 C   0  0  2  0  0  3  0  0  0  0  0  0
  184.9090  174.6680  137.1080 C   0  0  2  0  0  3  0  0  0  0  0  0
  188.7550  178.1170  137.9270 C   0  0  0  0  0  2  0  0  0  0  0  0
  185.0100  177.1950  137.5840 C   0  0  0  0  0  0  0  0  0  0  0  0
  188.5600  175.7930  136.9990 C   0  0  0  0  0  2  0  0  0  0  0  0
  187.0920  175.7680  137.4120 C   0  0  2  0  0  3  0  0  0  0  0  0
  182.0350  174.8580  138.1080 C   0  0  0  0  0  2  0  0  0  0  0  0
  182.4870  179.4940  139.0970 C   0  0  2  0  0  0  0  0  0  0  0  0
  186.3090  174.8340  136.5170 C   0  0  0  0  0  2  0  0  0  0  0  0
  182.2650  178.6830  140.4090 C   0  0  1  0  0  0  0  0  0  0  0  0
  180.9370  175.7130  137.5410 C   0  0  0  0  0  2  0  0  0  0  0  0
  181.1870  180.0880  138.5380 C   0  0  0  0  0  1  0  0  0  0  0  0
  184.4100  178.3370  137.9390 C   0  0  0  0  0  3  0  0  0  0  0  0
  182.9120  178.4230  138.1170 C   0  0  1  0  0  3  0  0  0  0  0  0
  186.5070  177.1800  137.3410 C   0  0  2  0  0  3  0  0  0  0  0  0
  180.9990  176.9890  138.1280 O   0  0  0  0  0  0  0  0  0  0  0  0
  189.3430  176.7070  137.9390 C   0  0  0  0  0  2  0  0  0  0  0  0
  187.2780  178.0830  138.3110 C   0  0  0  0  0  2  0  0  0  0  0  0
  182.9260  179.0560  142.7050 O   0  0  0  0  0  1  0  0  0  0  0  0
  183.4240  178.8370  141.4170 C   0  0  1  0  0  3  0  0  0  0  0  0
  184.2840  177.6630  141.4280 N   0  0  0  0  0  2  0  0  0  0  0  0
  185.3440  177.9560  142.2170 O   0  0  0  0  0  1  0  0  0  0  0  0
  182.9020  181.6450  138.8460 O   0  0  0  0  0  1  0  0  0  0  0  0
  183.4670  180.5090  139.2160 O   0  0  0  0  0  0  0  0  0  0  0  0
  184.1610  173.6740  136.4370 O   0  0  0  0  0  0  0  0  0  0  0  0
  184.3310  171.3700  135.8640 C   0  0  0  0  0  2  0  0  0  0  0  0
  184.5210  172.4150  136.9450 C   0  0  0  0  0  3  0  0  0  0  0  0
  183.3000  171.5190  136.9610 C   0  0  0  0  0  2  0  0  0  0  0  0
  1 20  1  6  0  0  0
  1  4  1  0  0  0  0
  2  8  1  1  0  0  0
  2  5  1  0  0  0  0
  4 14  1  0  0  0  0
  5 11  1  6  0  0  0
  5  1  1  0  0  0  0
  6 29  1  6  0  0  0
  6  2  1  0  0  0  0
  7 21  1  0  0  0  0
  7 22  1  0  0  0  0
  8 17  2  0  0  0  0
  9 10  1  0  0  0  0
  9 21  1  0  0  0  0
 10 13  1  6  0  0  0
 12 16  1  6  0  0  0
 12 28  1  0  0  0  0
 12 14  1  0  0  0  0
 13  6  1  0  0  0  0
 14  3  1  1  0  0  0
 14 24  1  0  0  0  0
 15 11  1  0  0  0  0
 15 20  1  0  0  0  0
 18 17  1  1  0  0  0
 18  1  1  0  0  0  0
 18 12  1  0  0  0  0
 19 10  1  0  0  0  0
 19  8  1  0  0  0  0
 19 22  1  1  0  0  0
 24 25  1  0  0  0  0
 24 23  1  1  0  0  0
 25 26  1  0  0  0  0
 27 28  1  0  0  0  0
 29 31  1  0  0  0  0
 30 31  1  0  0  0  0
 30 32  1  0  0  0  0
 31 32  1  0  0  0  0
M  END
>  <MODEL>
9

>  <REMARK>
 VINA RESULT:      -5.8      4.016      7.840
  Name = 
  5 active torsions:
  status: ('A' for Active; 'I' for Inactive)
    1  A    between atoms: C_6  and  O_29
    2  A    between atoms: N_15  and  C_26
    3  A    between atoms: C_16  and  O_22
    4  A    between atoms: C_18  and  O_29
    5  A    between atoms: C_19  and  C_26
                            x       y       z     vdW  Elec       q    Type
                         _______ _______ _______ _____ _____    ______ ____

>  <TORSDO>
F 5

$$$$
