=
 OpenBabel10272414243D

 43 47  0  0  1  0  0  0  0  0999 V2000
  181.4830  179.0140  142.9370 C   0  0  0  0  0  0  0  0  0  0  0  0
  186.1170  178.3550  144.8320 C   0  0  0  0  0  0  0  0  0  0  0  0
  187.7860  177.5870  142.7120 C   0  0  0  0  0  0  0  0  0  0  0  0
  183.4080  178.8590  144.4020 C   0  0  0  0  0  0  0  0  0  0  0  0
  182.2750  178.6390  141.8480 C   0  0  0  0  0  3  0  0  0  0  0  0
  180.1660  179.2770  142.7550 F   0  0  0  0  0  0  0  0  0  0  0  0
  184.2170  178.4770  143.3040 C   0  0  0  0  0  0  0  0  0  0  0  0
  182.0480  179.1240  144.2110 C   0  0  0  0  0  3  0  0  0  0  0  0
  183.6350  178.3700  142.0280 C   0  0  0  0  0  3  0  0  0  0  0  0
  186.4320  177.8300  142.4760 C   0  0  0  0  0  3  0  0  0  0  0  0
  185.5850  178.2210  143.5250 C   0  0  0  0  0  0  0  0  0  0  0  0
  185.2640  178.7350  145.8780 C   0  0  0  0  0  3  0  0  0  0  0  0
  187.4820  178.1040  145.0720 C   0  0  0  0  0  0  0  0  0  0  0  0
  188.3050  177.7220  144.0020 C   0  0  0  0  0  3  0  0  0  0  0  0
  183.9470  178.9740  145.6450 N   0  0  0  0  0  0  0  0  0  0  0  0
  188.6630  177.1480  141.5940 C   0  0  0  0  0  2  0  0  0  0  0  0
  189.0840  178.3450  140.7590 C   0  0  0  0  0  2  0  0  0  0  0  0
  186.9950  178.3070  139.0750 O   0  0  0  0  0  0  0  0  0  0  0  0
  188.4910  178.1600  139.0920 S   0  0  0  0  0  0  0  0  0  0  0  0
  189.1080  179.2120  138.2140 O   0  0  0  0  0  0  0  0  0  0  0  0
  188.9410  176.5470  138.4880 C   0  0  0  0  0  2  0  0  0  0  0  0
  190.1010  176.6550  137.6180 N   0  0  0  0  0  0  0  0  0  0  0  0
  192.2230  175.9490  135.9390 C   0  0  0  0  0  2  0  0  0  0  0  0
  192.0730  175.1230  137.2160 C   0  0  2  0  0  3  0  0  0  0  0  0
  189.7100  176.0920  136.3250 C   0  0  0  0  0  2  0  0  0  0  0  0
  191.1970  175.8900  138.2450 C   0  0  1  0  0  3  0  0  0  0  0  0
  192.0300  176.8450  139.0950 C   0  0  0  0  0  1  0  0  0  0  0  0
  190.8510  176.2340  135.3140 C   0  0  0  0  0  2  0  0  0  0  0  0
  193.4220  174.6380  137.7610 C   0  0  2  0  0  3  0  0  0  0  0  0
  195.2260  173.7320  136.6230 C   0  0  0  0  0  0  0  0  0  0  0  0
  195.5390  175.0520  136.9710 N   0  0  0  0  0  0  0  0  0  0  0  0
  196.0230  172.9690  136.0180 O   0  0  0  0  0  0  0  0  0  0  0  0
  194.4560  175.6800  137.5960 N   0  0  0  0  0  0  0  0  0  0  0  0
  193.8730  173.3650  137.0330 C   0  0  0  0  0  2  0  0  0  0  0  0
  188.0110  178.2090  146.4050 N   0  0  0  0  0  2  0  0  0  0  0  0
  188.0530  177.1320  147.3990 C   0  0  2  0  0  3  0  0  0  0  0  0
  187.9120  177.7010  148.7980 C   0  0  0  0  0  1  0  0  0  0  0  0
  189.2870  176.3650  147.2890 N   0  0  0  0  0  2  0  0  0  0  0  0
  190.3470  177.2820  146.8920 C   0  0  0  0  0  2  0  0  0  0  0  0
  191.4670  176.5220  146.1960 C   0  0  0  0  0  2  0  0  0  0  0  0
  191.6900  178.3490  144.4990 O   0  0  0  0  0  1  0  0  0  0  0  0
  191.6300  176.9910  144.7850 C   0  0  0  0  0  0  0  0  0  0  0  0
  191.7420  176.1530  143.8540 O   0  0  0  0  0  0  0  0  0  0  0  0
  1  8  1  0  0  0  0
  2 13  1  0  0  0  0
  2 12  1  0  0  0  0
  3 14  1  0  0  0  0
  4 15  1  0  0  0  0
  5  9  1  0  0  0  0
  5  1  2  0  0  0  0
  6  1  1  0  0  0  0
  7 11  1  0  0  0  0
  7  4  1  0  0  0  0
  8  4  2  0  0  0  0
  9  7  2  0  0  0  0
 10  3  2  0  0  0  0
 10 11  1  0  0  0  0
 11  2  2  0  0  0  0
 13 35  1  0  0  0  0
 14 13  2  0  0  0  0
 15 12  2  0  0  0  0
 16  3  1  0  0  0  0
 17 16  1  0  0  0  0
 18 19  2  0  0  0  0
 19 17  1  0  0  0  0
 20 19  2  0  0  0  0
 21 19  1  0  0  0  0
 22 26  1  0  0  0  0
 22 21  1  0  0  0  0
 24 23  1  6  0  0  0
 24 29  1  0  0  0  0
 24 26  1  0  0  0  0
 25 22  1  0  0  0  0
 26 27  1  6  0  0  0
 28 23  1  0  0  0  0
 28 25  1  0  0  0  0
 29 34  1  6  0  0  0
 30 31  1  0  0  0  0
 30 34  1  0  0  0  0
 31 33  2  0  0  0  0
 32 30  2  0  0  0  0
 33 29  1  0  0  0  0
 35 36  1  0  0  0  0
 36 37  1  1  0  0  0
 38 36  1  0  0  0  0
 39 38  1  0  0  0  0
 40 39  1  0  0  0  0
 41 42  1  0  0  0  0
 42 40  1  0  0  0  0
 43 42  2  0  0  0  0
M  END
>  <MODEL>
1

>  <REMARK>
 VINA RESULT:      -9.4      0.000      0.000
  Name = 
  12 active torsions:
  status: ('A' for Active; 'I' for Inactive)
    1  A    between atoms: C_1  and  N_9
    2  A    between atoms: C_1  and  N_35
    3  A    between atoms: C_2  and  C_6
    4  A    between atoms: C_2  and  C_13
    5  A    between atoms: C_3  and  N_4
    6  A    between atoms: C_3  and  S_12
    7  A    between atoms: C_6  and  S_12
    8  A    between atoms: N_9  and  C_32
    9  A    between atoms: C_11  and  C_14
   10  A    between atoms: C_25  and  C_32
   11  A    between atoms: C_25  and  C_37
   12  A    between atoms: C_34  and  N_35
                            x       y       z     vdW  Elec       q    Type
                         _______ _______ _______ _____ _____    ______ ____

>  <TORSDO>
F 12

$$$$
=
 OpenBabel10272414243D

 43 47  0  0  1  0  0  0  0  0999 V2000
  191.1650  176.6670  147.0680 C   0  0  0  0  0  0  0  0  0  0  0  0
  187.0410  177.7880  144.3770 C   0  0  0  0  0  0  0  0  0  0  0  0
  187.8540  178.1570  141.7170 C   0  0  0  0  0  0  0  0  0  0  0  0
  188.8980  177.1500  146.3580 C   0  0  0  0  0  0  0  0  0  0  0  0
  191.6170  176.8350  145.7560 C   0  0  0  0  0  3  0  0  0  0  0  0
  192.0430  176.3450  148.0490 F   0  0  0  0  0  0  0  0  0  0  0  0
  189.3490  177.3250  145.0270 C   0  0  0  0  0  0  0  0  0  0  0  0
  189.8090  176.8240  147.3680 C   0  0  0  0  0  3  0  0  0  0  0  0
  190.7160  177.1640  144.7390 C   0  0  0  0  0  3  0  0  0  0  0  0
  188.8000  177.8420  142.6940 C   0  0  0  0  0  3  0  0  0  0  0  0
  188.4090  177.6490  144.0280 C   0  0  0  0  0  0  0  0  0  0  0  0
  186.6580  177.6050  145.7120 C   0  0  0  0  0  3  0  0  0  0  0  0
  186.0880  178.1110  143.3920 C   0  0  0  0  0  0  0  0  0  0  0  0
  186.5080  178.2910  142.0650 C   0  0  0  0  0  3  0  0  0  0  0  0
  187.5800  177.2960  146.6610 N   0  0  0  0  0  0  0  0  0  0  0  0
  188.2900  178.3840  140.3130 C   0  0  0  0  0  2  0  0  0  0  0  0
  189.2880  177.3170  139.8960 C   0  0  0  0  0  2  0  0  0  0  0  0
  187.6690  176.8390  137.8110 O   0  0  0  0  0  0  0  0  0  0  0  0
  189.1250  176.9800  138.1570 S   0  0  0  0  0  0  0  0  0  0  0  0
  189.7230  178.1070  137.3640 O   0  0  0  0  0  0  0  0  0  0  0  0
  189.9820  175.4670  137.7740 C   0  0  0  0  0  2  0  0  0  0  0  0
  191.1870  175.7650  137.0170 N   0  0  0  0  0  0  0  0  0  0  0  0
  193.6140  175.4300  135.6690 C   0  0  0  0  0  2  0  0  0  0  0  0
  193.4970  174.7350  137.0250 C   0  0  2  0  0  3  0  0  0  0  0  0
  191.1100  174.9860  135.7800 C   0  0  0  0  0  2  0  0  0  0  0  0
  192.3400  175.3680  137.8480 C   0  0  1  0  0  3  0  0  0  0  0  0
  192.8100  176.5850  138.6390 C   0  0  0  0  0  1  0  0  0  0  0  0
  192.3070  175.2970  134.8770 C   0  0  0  0  0  2  0  0  0  0  0  0
  194.8390  174.6610  137.7630 C   0  0  2  0  0  3  0  0  0  0  0  0
  196.5150  173.0670  137.6070 C   0  0  0  0  0  0  0  0  0  0  0  0
  196.9320  174.2170  136.9250 N   0  0  0  0  0  0  0  0  0  0  0  0
  197.2250  172.0360  137.7210 O   0  0  0  0  0  0  0  0  0  0  0  0
  195.9280  175.1920  136.9180 N   0  0  0  0  0  0  0  0  0  0  0  0
  195.1660  173.2110  138.1480 C   0  0  0  0  0  2  0  0  0  0  0  0
  184.7070  178.2840  143.7550 N   0  0  0  0  0  2  0  0  0  0  0  0
  183.6700  178.8970  142.9200 C   0  0  2  0  0  3  0  0  0  0  0  0
  182.3690  179.0080  143.6920 C   0  0  0  0  0  1  0  0  0  0  0  0
  183.4650  178.1360  141.6940 N   0  0  0  0  0  2  0  0  0  0  0  0
  182.3980  178.7830  140.9430 C   0  0  0  0  0  2  0  0  0  0  0  0
  182.6460  178.6400  139.4480 C   0  0  0  0  0  2  0  0  0  0  0  0
  184.9900  178.2700  138.6510 O   0  0  0  0  0  0  0  0  0  0  0  0
  184.0040  179.1490  139.0840 C   0  0  0  0  0  0  0  0  0  0  0  0
  184.2500  180.3800  139.1420 O   0  0  0  0  0  1  0  0  0  0  0  0
  1  8  1  0  0  0  0
  1  6  1  0  0  0  0
  2 12  1  0  0  0  0
  3 14  2  0  0  0  0
  3 10  1  0  0  0  0
  4 15  1  0  0  0  0
  4  8  2  0  0  0  0
  5  1  2  0  0  0  0
  7  4  1  0  0  0  0
  9  7  2  0  0  0  0
  9  5  1  0  0  0  0
 10 11  2  0  0  0  0
 11  2  1  0  0  0  0
 11  7  1  0  0  0  0
 12 15  2  0  0  0  0
 13 35  1  0  0  0  0
 13  2  2  0  0  0  0
 14 13  1  0  0  0  0
 16  3  1  0  0  0  0
 17 16  1  0  0  0  0
 18 19  2  0  0  0  0
 19 17  1  0  0  0  0
 20 19  2  0  0  0  0
 21 19  1  0  0  0  0
 22 21  1  0  0  0  0
 22 26  1  0  0  0  0
 24 23  1  6  0  0  0
 24 29  1  0  0  0  0
 24 26  1  0  0  0  0
 25 22  1  0  0  0  0
 26 27  1  6  0  0  0
 28 23  1  0  0  0  0
 28 25  1  0  0  0  0
 29 34  1  6  0  0  0
 30 32  2  0  0  0  0
 30 34  1  0  0  0  0
 31 30  1  0  0  0  0
 33 31  2  0  0  0  0
 33 29  1  0  0  0  0
 36 37  1  1  0  0  0
 36 35  1  0  0  0  0
 38 36  1  0  0  0  0
 39 38  1  0  0  0  0
 40 39  1  0  0  0  0
 41 42  2  0  0  0  0
 42 43  1  0  0  0  0
 42 40  1  0  0  0  0
M  END
>  <MODEL>
2

>  <REMARK>
 VINA RESULT:      -9.3      2.872      5.684
  Name = 
  12 active torsions:
  status: ('A' for Active; 'I' for Inactive)
    1  A    between atoms: C_1  and  N_9
    2  A    between atoms: C_1  and  N_35
    3  A    between atoms: C_2  and  C_6
    4  A    between atoms: C_2  and  C_13
    5  A    between atoms: C_3  and  N_4
    6  A    between atoms: C_3  and  S_12
    7  A    between atoms: C_6  and  S_12
    8  A    between atoms: N_9  and  C_32
    9  A    between atoms: C_11  and  C_14
   10  A    between atoms: C_25  and  C_32
   11  A    between atoms: C_25  and  C_37
   12  A    between atoms: C_34  and  N_35
                            x       y       z     vdW  Elec       q    Type
                         _______ _______ _______ _____ _____    ______ ____

>  <TORSDO>
F 12

$$$$
=
 OpenBabel10272414243D

 43 47  0  0  1  0  0  0  0  0999 V2000
  191.1950  176.7670  147.2340 C   0  0  0  0  0  0  0  0  0  0  0  0
  187.2320  177.6480  144.2320 C   0  0  0  0  0  0  0  0  0  0  0  0
  188.2290  178.1470  141.6570 C   0  0  0  0  0  0  0  0  0  0  0  0
  188.9640  177.0980  146.3470 C   0  0  0  0  0  0  0  0  0  0  0  0
  191.7400  177.0040  145.9690 C   0  0  0  0  0  3  0  0  0  0  0  0
  192.0120  176.4860  148.2790 F   0  0  0  0  0  0  0  0  0  0  0  0
  189.5070  177.3410  145.0630 C   0  0  0  0  0  0  0  0  0  0  0  0
  189.8110  176.8140  147.4230 C   0  0  0  0  0  3  0  0  0  0  0  0
  190.9020  177.2910  144.8870 C   0  0  0  0  0  3  0  0  0  0  0  0
  189.1130  177.8780  142.7030 C   0  0  0  0  0  3  0  0  0  0  0  0
  188.6300  177.6210  143.9950 C   0  0  0  0  0  0  0  0  0  0  0  0
  186.7560  177.4010  145.5260 C   0  0  0  0  0  3  0  0  0  0  0  0
  186.3400  177.9240  143.1770 C   0  0  0  0  0  0  0  0  0  0  0  0
  186.8530  178.1710  141.8940 C   0  0  0  0  0  3  0  0  0  0  0  0
  187.6180  177.1360  146.5420 N   0  0  0  0  0  0  0  0  0  0  0  0
  188.7600  178.4440  140.2990 C   0  0  0  0  0  2  0  0  0  0  0  0
  187.7590  178.0130  139.2410 C   0  0  0  0  0  2  0  0  0  0  0  0
  188.6980  179.5820  137.2770 O   0  0  0  0  0  0  0  0  0  0  0  0
  188.4940  178.1340  137.6260 S   0  0  0  0  0  0  0  0  0  0  0  0
  189.8180  177.4250  137.6170 O   0  0  0  0  0  0  0  0  0  0  0  0
  187.4100  177.3770  136.4340 C   0  0  0  0  0  2  0  0  0  0  0  0
  186.7370  176.2380  137.0370 N   0  0  0  0  0  0  0  0  0  0  0  0
  185.3100  173.8480  137.3070 C   0  0  0  0  0  2  0  0  0  0  0  0
  184.7480  174.8570  136.3060 C   0  0  2  0  0  3  0  0  0  0  0  0
  187.4340  175.0400  136.5650 C   0  0  0  0  0  2  0  0  0  0  0  0
  185.3300  176.2690  136.5920 C   0  0  1  0  0  3  0  0  0  0  0  0
  184.5070  177.0180  137.6350 C   0  0  0  0  0  1  0  0  0  0  0  0
  186.8400  173.7870  137.2150 C   0  0  0  0  0  2  0  0  0  0  0  0
  183.2180  174.8020  136.2160 C   0  0  2  0  0  3  0  0  0  0  0  0
  181.8430  173.0290  135.6340 C   0  0  0  0  0  0  0  0  0  0  0  0
  181.7740  173.2070  137.0220 N   0  0  0  0  0  0  0  0  0  0  0  0
  181.1820  172.1570  135.0150 O   0  0  0  0  0  0  0  0  0  0  0  0
  182.6440  174.2170  137.4450 N   0  0  0  0  0  0  0  0  0  0  0  0
  182.7760  173.9630  135.0090 C   0  0  0  0  0  2  0  0  0  0  0  0
  184.9250  177.9830  143.4270 N   0  0  0  0  0  2  0  0  0  0  0  0
  184.0420  179.1070  143.1020 C   0  0  2  0  0  3  0  0  0  0  0  0
  183.4830  179.7220  144.3710 C   0  0  0  0  0  1  0  0  0  0  0  0
  182.9570  178.6850  142.2250 N   0  0  0  0  0  2  0  0  0  0  0  0
  183.4620  178.6910  140.8590 C   0  0  0  0  0  2  0  0  0  0  0  0
  182.3520  179.0730  139.8900 C   0  0  0  0  0  2  0  0  0  0  0  0
  184.1570  180.5080  138.9150 O   0  0  0  0  0  1  0  0  0  0  0  0
  182.8260  180.1070  138.9190 C   0  0  0  0  0  0  0  0  0  0  0  0
  182.0250  180.5980  138.0840 O   0  0  0  0  0  0  0  0  0  0  0  0
  1  8  1  0  0  0  0
  1  6  1  0  0  0  0
  2 12  1  0  0  0  0
  3 14  2  0  0  0  0
  3 10  1  0  0  0  0
  4 15  1  0  0  0  0
  4  8  2  0  0  0  0
  5  1  2  0  0  0  0
  7  4  1  0  0  0  0
  9  7  2  0  0  0  0
  9  5  1  0  0  0  0
 10 11  2  0  0  0  0
 11  2  1  0  0  0  0
 11  7  1  0  0  0  0
 12 15  2  0  0  0  0
 13 35  1  0  0  0  0
 13  2  2  0  0  0  0
 14 13  1  0  0  0  0
 16  3  1  0  0  0  0
 17 16  1  0  0  0  0
 18 19  2  0  0  0  0
 19 17  1  0  0  0  0
 20 19  2  0  0  0  0
 21 22  1  0  0  0  0
 21 19  1  0  0  0  0
 24 26  1  0  0  0  0
 24 23  1  1  0  0  0
 25 22  1  0  0  0  0
 25 28  1  0  0  0  0
 26 22  1  0  0  0  0
 26 27  1  1  0  0  0
 28 23  1  0  0  0  0
 29 34  1  6  0  0  0
 29 24  1  0  0  0  0
 29 33  1  0  0  0  0
 30 31  1  0  0  0  0
 31 33  2  0  0  0  0
 32 30  2  0  0  0  0
 34 30  1  0  0  0  0
 36 35  1  0  0  0  0
 36 37  1  1  0  0  0
 38 36  1  0  0  0  0
 39 38  1  0  0  0  0
 40 39  1  0  0  0  0
 41 42  1  0  0  0  0
 42 40  1  0  0  0  0
 43 42  2  0  0  0  0
M  END
>  <MODEL>
3

>  <REMARK>
 VINA RESULT:      -8.9      4.332      7.872
  Name = 
  12 active torsions:
  status: ('A' for Active; 'I' for Inactive)
    1  A    between atoms: C_1  and  N_9
    2  A    between atoms: C_1  and  N_35
    3  A    between atoms: C_2  and  C_6
    4  A    between atoms: C_2  and  C_13
    5  A    between atoms: C_3  and  N_4
    6  A    between atoms: C_3  and  S_12
    7  A    between atoms: C_6  and  S_12
    8  A    between atoms: N_9  and  C_32
    9  A    between atoms: C_11  and  C_14
   10  A    between atoms: C_25  and  C_32
   11  A    between atoms: C_25  and  C_37
   12  A    between atoms: C_34  and  N_35
                            x       y       z     vdW  Elec       q    Type
                         _______ _______ _______ _____ _____    ______ ____

>  <TORSDO>
F 12

$$$$
=
 OpenBabel10272414243D

 43 47  0  0  1  0  0  0  0  0999 V2000
  186.7310  178.1880  147.3880 C   0  0  0  0  0  0  0  0  0  0  0  0
  184.0280  178.7330  143.1580 C   0  0  0  0  0  0  0  0  0  0  0  0
  185.7990  178.4850  140.9960 C   0  0  0  0  0  0  0  0  0  0  0  0
  184.9470  178.5310  145.7840 C   0  0  0  0  0  0  0  0  0  0  0  0
  187.6510  178.0520  146.3460 C   0  0  0  0  0  3  0  0  0  0  0  0
  187.1470  178.0830  148.6740 F   0  0  0  0  0  0  0  0  0  0  0  0
  185.8730  178.3960  144.7210 C   0  0  0  0  0  0  0  0  0  0  0  0
  185.3820  178.4270  147.1090 C   0  0  0  0  0  3  0  0  0  0  0  0
  187.2270  178.1570  145.0170 C   0  0  0  0  0  3  0  0  0  0  0  0
  186.2800  178.3850  142.3030 C   0  0  0  0  0  3  0  0  0  0  0  0
  185.4070  178.5010  143.3950 C   0  0  0  0  0  0  0  0  0  0  0  0
  183.1610  178.8590  144.2520 C   0  0  0  0  0  3  0  0  0  0  0  0
  183.5430  178.8400  141.8400 C   0  0  0  0  0  0  0  0  0  0  0  0
  184.4400  178.7120  140.7690 C   0  0  0  0  0  3  0  0  0  0  0  0
  183.6320  178.7580  145.5230 N   0  0  0  0  0  0  0  0  0  0  0  0
  186.7440  178.3860  139.8520 C   0  0  0  0  0  2  0  0  0  0  0  0
  188.1720  178.5690  140.3360 C   0  0  0  0  0  2  0  0  0  0  0  0
  188.4320  176.4260  138.7440 O   0  0  0  0  0  0  0  0  0  0  0  0
  189.2540  177.4540  139.4700 S   0  0  0  0  0  0  0  0  0  0  0  0
  190.0870  178.2190  138.4820 O   0  0  0  0  0  0  0  0  0  0  0  0
  190.3210  176.6470  140.6450 C   0  0  0  0  0  2  0  0  0  0  0  0
  190.2620  177.3440  141.9200 N   0  0  0  0  0  0  0  0  0  0  0  0
  190.9660  178.2670  144.4640 C   0  0  0  0  0  2  0  0  0  0  0  0
  191.1670  176.7740  144.2120 C   0  0  2  0  0  3  0  0  0  0  0  0
  191.4130  178.2480  141.9580 C   0  0  0  0  0  2  0  0  0  0  0  0
  190.3260  176.3240  142.9850 C   0  0  1  0  0  3  0  0  0  0  0  0
  188.9020  175.9490  143.3830 C   0  0  0  0  0  1  0  0  0  0  0  0
  191.3920  179.0870  143.2380 C   0  0  0  0  0  2  0  0  0  0  0  0
  190.9540  175.9320  145.4760 C   0  0  2  0  0  3  0  0  0  0  0  0
  192.2790  175.7640  147.3700 C   0  0  0  0  0  0  0  0  0  0  0  0
  191.1600  176.5480  147.6800 N   0  0  0  0  0  0  0  0  0  0  0  0
  193.1700  175.4710  148.2070 O   0  0  0  0  0  0  0  0  0  0  0  0
  190.3580  176.7500  146.5520 N   0  0  0  0  0  0  0  0  0  0  0  0
  192.2850  175.3490  145.9700 C   0  0  0  0  0  2  0  0  0  0  0  0
  182.1500  179.1070  141.6050 N   0  0  0  0  0  2  0  0  0  0  0  0
  181.4560  178.9780  140.3190 C   0  0  2  0  0  3  0  0  0  0  0  0
  180.1370  179.7260  140.3550 C   0  0  0  0  0  1  0  0  0  0  0  0
  181.2340  177.5780  139.9810 N   0  0  0  0  0  2  0  0  0  0  0  0
  181.1160  177.4850  138.5320 C   0  0  0  0  0  2  0  0  0  0  0  0
  182.2160  178.2970  137.8630 C   0  0  0  0  0  2  0  0  0  0  0  0
  183.9780  176.5290  138.0490 O   0  0  0  0  0  1  0  0  0  0  0  0
  183.2430  177.3970  137.2510 C   0  0  0  0  0  0  0  0  0  0  0  0
  183.4240  177.4050  136.0070 O   0  0  0  0  0  0  0  0  0  0  0  0
  1  6  1  0  0  0  0
  2 11  1  0  0  0  0
  2 12  1  0  0  0  0
  3 10  1  0  0  0  0
  4  8  2  0  0  0  0
  5  1  2  0  0  0  0
  7  9  2  0  0  0  0
  7  4  1  0  0  0  0
  8  1  1  0  0  0  0
  9  5  1  0  0  0  0
 10 11  2  0  0  0  0
 11  7  1  0  0  0  0
 12 15  2  0  0  0  0
 13  2  2  0  0  0  0
 14  3  2  0  0  0  0
 14 13  1  0  0  0  0
 15  4  1  0  0  0  0
 16 17  1  0  0  0  0
 16  3  1  0  0  0  0
 18 19  2  0  0  0  0
 19 17  1  0  0  0  0
 19 21  1  0  0  0  0
 20 19  2  0  0  0  0
 21 22  1  0  0  0  0
 22 25  1  0  0  0  0
 22 26  1  0  0  0  0
 24 23  1  1  0  0  0
 24 29  1  0  0  0  0
 25 28  1  0  0  0  0
 26 27  1  1  0  0  0
 26 24  1  0  0  0  0
 28 23  1  0  0  0  0
 29 34  1  1  0  0  0
 29 33  1  0  0  0  0
 30 31  1  0  0  0  0
 30 32  2  0  0  0  0
 33 31  2  0  0  0  0
 34 30  1  0  0  0  0
 35 13  1  0  0  0  0
 36 37  1  1  0  0  0
 36 35  1  0  0  0  0
 38 36  1  0  0  0  0
 39 38  1  0  0  0  0
 40 39  1  0  0  0  0
 42 40  1  0  0  0  0
 42 41  1  0  0  0  0
 43 42  2  0  0  0  0
M  END
>  <MODEL>
4

>  <REMARK>
 VINA RESULT:      -8.6      3.681      7.495
  Name = 
  12 active torsions:
  status: ('A' for Active; 'I' for Inactive)
    1  A    between atoms: C_1  and  N_9
    2  A    between atoms: C_1  and  N_35
    3  A    between atoms: C_2  and  C_6
    4  A    between atoms: C_2  and  C_13
    5  A    between atoms: C_3  and  N_4
    6  A    between atoms: C_3  and  S_12
    7  A    between atoms: C_6  and  S_12
    8  A    between atoms: N_9  and  C_32
    9  A    between atoms: C_11  and  C_14
   10  A    between atoms: C_25  and  C_32
   11  A    between atoms: C_25  and  C_37
   12  A    between atoms: C_34  and  N_35
                            x       y       z     vdW  Elec       q    Type
                         _______ _______ _______ _____ _____    ______ ____

>  <TORSDO>
F 12

$$$$
=
 OpenBabel10272414243D

 43 47  0  0  1  0  0  0  0  0999 V2000
  187.1030  178.0270  146.6530 C   0  0  0  0  0  0  0  0  0  0  0  0
  183.3140  178.7890  143.4040 C   0  0  0  0  0  0  0  0  0  0  0  0
  184.2680  178.1540  140.8430 C   0  0  0  0  0  0  0  0  0  0  0  0
  184.9710  178.5710  145.6360 C   0  0  0  0  0  0  0  0  0  0  0  0
  187.6230  177.6940  145.3990 C   0  0  0  0  0  3  0  0  0  0  0  0
  187.8820  177.9200  147.7570 F   0  0  0  0  0  0  0  0  0  0  0  0
  185.4910  178.2380  144.3620 C   0  0  0  0  0  0  0  0  0  0  0  0
  185.7810  178.4650  146.7720 C   0  0  0  0  0  3  0  0  0  0  0  0
  186.8230  177.8000  144.2570 C   0  0  0  0  0  3  0  0  0  0  0  0
  185.1150  178.0420  141.9460 C   0  0  0  0  0  3  0  0  0  0  0  0
  184.6520  178.3510  143.2350 C   0  0  0  0  0  0  0  0  0  0  0  0
  182.8590  179.1060  144.6910 C   0  0  0  0  0  3  0  0  0  0  0  0
  182.4600  178.9070  142.2890 C   0  0  0  0  0  0  0  0  0  0  0  0
  182.9500  178.5840  141.0150 C   0  0  0  0  0  3  0  0  0  0  0  0
  183.6850  178.9930  145.7640 N   0  0  0  0  0  0  0  0  0  0  0  0
  184.7840  177.8490  139.4810 C   0  0  0  0  0  2  0  0  0  0  0  0
  185.9260  178.7880  139.1330 C   0  0  0  0  0  2  0  0  0  0  0  0
  185.9780  177.5910  136.7320 O   0  0  0  0  0  0  0  0  0  0  0  0
  186.8950  178.1000  137.8090 S   0  0  0  0  0  0  0  0  0  0  0  0
  187.7990  179.1560  137.2400 O   0  0  0  0  0  0  0  0  0  0  0  0
  187.8780  176.7580  138.4430 C   0  0  0  0  0  2  0  0  0  0  0  0
  189.1070  177.2800  139.0190 N   0  0  0  0  0  0  0  0  0  0  0  0
  191.4430  177.4630  140.5450 C   0  0  0  0  0  2  0  0  0  0  0  0
  190.2050  176.9390  141.2720 C   0  0  2  0  0  3  0  0  0  0  0  0
  190.1780  176.3620  138.6300 C   0  0  0  0  0  2  0  0  0  0  0  0
  188.9230  177.3250  140.4840 C   0  0  1  0  0  3  0  0  0  0  0  0
  188.4210  178.7140  140.8670 C   0  0  0  0  0  1  0  0  0  0  0  0
  191.5300  176.8760  139.1300 C   0  0  0  0  0  2  0  0  0  0  0  0
  190.1870  177.3320  142.7540 C   0  0  2  0  0  3  0  0  0  0  0  0
  191.4910  176.5420  144.5000 C   0  0  0  0  0  0  0  0  0  0  0  0
  191.9480  177.8190  144.1480 N   0  0  0  0  0  0  0  0  0  0  0  0
  191.9860  175.8660  145.4370 O   0  0  0  0  0  0  0  0  0  0  0  0
  191.2460  178.3190  143.0450 N   0  0  0  0  0  0  0  0  0  0  0  0
  190.3940  176.0990  143.6440 C   0  0  0  0  0  2  0  0  0  0  0  0
  181.1140  179.3820  142.4610 N   0  0  0  0  0  2  0  0  0  0  0  0
  179.9890  179.1160  141.5590 C   0  0  2  0  0  3  0  0  0  0  0  0
  179.9820  177.6580  141.1400 C   0  0  0  0  0  1  0  0  0  0  0  0
  180.0410  179.9780  140.3850 N   0  0  0  0  0  2  0  0  0  0  0  0
  180.2770  179.1310  139.2240 C   0  0  0  0  0  2  0  0  0  0  0  0
  180.6020  179.9860  138.0070 C   0  0  0  0  0  2  0  0  0  0  0  0
  182.6810  181.1960  138.7010 O   0  0  0  0  0  1  0  0  0  0  0  0
  181.3230  181.2330  138.4110 C   0  0  0  0  0  0  0  0  0  0  0  0
  180.7050  182.3270  138.4620 O   0  0  0  0  0  0  0  0  0  0  0  0
  1  8  1  0  0  0  0
  1  6  1  0  0  0  0
  2 12  1  0  0  0  0
  3 14  2  0  0  0  0
  3 10  1  0  0  0  0
  4 15  1  0  0  0  0
  4  8  2  0  0  0  0
  5  1  2  0  0  0  0
  7  4  1  0  0  0  0
  9  7  2  0  0  0  0
  9  5  1  0  0  0  0
 10 11  2  0  0  0  0
 11  2  1  0  0  0  0
 11  7  1  0  0  0  0
 12 15  2  0  0  0  0
 13 35  1  0  0  0  0
 13  2  2  0  0  0  0
 14 13  1  0  0  0  0
 16  3  1  0  0  0  0
 17 16  1  0  0  0  0
 18 19  2  0  0  0  0
 19 21  1  0  0  0  0
 19 17  1  0  0  0  0
 20 19  2  0  0  0  0
 21 22  1  0  0  0  0
 22 26  1  0  0  0  0
 24 23  1  6  0  0  0
 24 29  1  0  0  0  0
 25 22  1  0  0  0  0
 25 28  1  0  0  0  0
 26 27  1  1  0  0  0
 26 24  1  0  0  0  0
 28 23  1  0  0  0  0
 29 33  1  0  0  0  0
 29 34  1  1  0  0  0
 30 32  2  0  0  0  0
 31 30  1  0  0  0  0
 33 31  2  0  0  0  0
 34 30  1  0  0  0  0
 36 37  1  6  0  0  0
 36 35  1  0  0  0  0
 38 36  1  0  0  0  0
 39 38  1  0  0  0  0
 40 42  1  0  0  0  0
 40 39  1  0  0  0  0
 42 43  2  0  0  0  0
 42 41  1  0  0  0  0
M  END
>  <MODEL>
5

>  <REMARK>
 VINA RESULT:      -8.6      3.330      7.109
  Name = 
  12 active torsions:
  status: ('A' for Active; 'I' for Inactive)
    1  A    between atoms: C_1  and  N_9
    2  A    between atoms: C_1  and  N_35
    3  A    between atoms: C_2  and  C_6
    4  A    between atoms: C_2  and  C_13
    5  A    between atoms: C_3  and  N_4
    6  A    between atoms: C_3  and  S_12
    7  A    between atoms: C_6  and  S_12
    8  A    between atoms: N_9  and  C_32
    9  A    between atoms: C_11  and  C_14
   10  A    between atoms: C_25  and  C_32
   11  A    between atoms: C_25  and  C_37
   12  A    between atoms: C_34  and  N_35
                            x       y       z     vdW  Elec       q    Type
                         _______ _______ _______ _____ _____    ______ ____

>  <TORSDO>
F 12

$$$$
=
 OpenBabel10272414243D

 43 47  0  0  1  0  0  0  0  0999 V2000
  191.0570  176.8740  147.0660 C   0  0  0  0  0  0  0  0  0  0  0  0
  187.1330  177.6780  143.9920 C   0  0  0  0  0  0  0  0  0  0  0  0
  188.1620  178.1110  141.4180 C   0  0  0  0  0  0  0  0  0  0  0  0
  188.8370  177.1820  146.1430 C   0  0  0  0  0  0  0  0  0  0  0  0
  191.6180  177.0790  145.8030 C   0  0  0  0  0  3  0  0  0  0  0  0
  191.8610  176.6200  148.1280 F   0  0  0  0  0  0  0  0  0  0  0  0
  189.3970  177.3920  144.8600 C   0  0  0  0  0  0  0  0  0  0  0  0
  189.6710  176.9260  147.2370 C   0  0  0  0  0  3  0  0  0  0  0  0
  190.7930  177.3380  144.7030 C   0  0  0  0  0  3  0  0  0  0  0  0
  189.0330  177.8690  142.4820 C   0  0  0  0  0  3  0  0  0  0  0  0
  188.5340  177.6450  143.7750 C   0  0  0  0  0  0  0  0  0  0  0  0
  186.6400  177.4640  145.2860 C   0  0  0  0  0  3  0  0  0  0  0  0
  186.2540  177.9270  142.9190 C   0  0  0  0  0  0  0  0  0  0  0  0
  186.7830  178.1410  141.6370 C   0  0  0  0  0  3  0  0  0  0  0  0
  187.4890  177.2250  146.3200 N   0  0  0  0  0  0  0  0  0  0  0  0
  188.7100  178.3730  140.0600 C   0  0  0  0  0  2  0  0  0  0  0  0
  187.8870  177.6420  139.0140 C   0  0  0  0  0  2  0  0  0  0  0  0
  188.1400  179.5000  137.0950 O   0  0  0  0  0  0  0  0  0  0  0  0
  188.4650  178.0610  137.3850 S   0  0  0  0  0  0  0  0  0  0  0  0
  189.9520  177.8570  137.3070 O   0  0  0  0  0  0  0  0  0  0  0  0
  187.6600  177.0120  136.1930 C   0  0  0  0  0  2  0  0  0  0  0  0
  187.4170  175.7030  136.7770 N   0  0  0  0  0  0  0  0  0  0  0  0
  186.9250  172.9600  137.0070 C   0  0  0  0  0  2  0  0  0  0  0  0
  186.0750  173.7120  135.9840 C   0  0  2  0  0  3  0  0  0  0  0  0
  188.5100  174.8360  136.3340 C   0  0  0  0  0  2  0  0  0  0  0  0
  186.1070  175.2360  136.2840 C   0  0  1  0  0  3  0  0  0  0  0  0
  185.0380  175.6340  137.2970 C   0  0  0  0  0  1  0  0  0  0  0  0
  188.3800  173.4480  136.9670 C   0  0  0  0  0  2  0  0  0  0  0  0
  184.6680  173.1170  135.8420 C   0  0  2  0  0  3  0  0  0  0  0  0
  184.0200  170.8970  135.6920 C   0  0  0  0  0  0  0  0  0  0  0  0
  183.7140  171.3620  136.9780 N   0  0  0  0  0  0  0  0  0  0  0  0
  183.7590  169.7310  135.2990 O   0  0  0  0  0  0  0  0  0  0  0  0
  184.1530  172.6790  137.1550 N   0  0  0  0  0  0  0  0  0  0  0  0
  184.6810  171.9180  134.8840 C   0  0  0  0  0  2  0  0  0  0  0  0
  184.8360  177.9920  143.1500 N   0  0  0  0  0  2  0  0  0  0  0  0
  184.0470  179.2180  143.3000 C   0  0  2  0  0  3  0  0  0  0  0  0
  183.6730  179.4300  144.7550 C   0  0  0  0  0  1  0  0  0  0  0  0
  182.8470  179.1740  142.4730 N   0  0  0  0  0  2  0  0  0  0  0  0
  183.1440  178.3600  141.3030 C   0  0  0  0  0  2  0  0  0  0  0  0
  182.6980  179.0770  140.0360 C   0  0  0  0  0  2  0  0  0  0  0  0
  184.0980  180.7750  138.8440 O   0  0  0  0  0  1  0  0  0  0  0  0
  183.8760  179.4480  139.1930 C   0  0  0  0  0  0  0  0  0  0  0  0
  184.6850  178.5620  138.8190 O   0  0  0  0  0  0  0  0  0  0  0  0
  1  8  1  0  0  0  0
  1  6  1  0  0  0  0
  2 12  1  0  0  0  0
  3 14  2  0  0  0  0
  3 10  1  0  0  0  0
  4 15  1  0  0  0  0
  4  8  2  0  0  0  0
  5  1  2  0  0  0  0
  7  4  1  0  0  0  0
  9  7  2  0  0  0  0
  9  5  1  0  0  0  0
 10 11  2  0  0  0  0
 11  2  1  0  0  0  0
 11  7  1  0  0  0  0
 12 15  2  0  0  0  0
 13 35  1  0  0  0  0
 13  2  2  0  0  0  0
 14 13  1  0  0  0  0
 16  3  1  0  0  0  0
 17 16  1  0  0  0  0
 18 19  2  0  0  0  0
 19 17  1  0  0  0  0
 20 19  2  0  0  0  0
 21 22  1  0  0  0  0
 21 19  1  0  0  0  0
 24 26  1  0  0  0  0
 24 23  1  1  0  0  0
 25 22  1  0  0  0  0
 25 28  1  0  0  0  0
 26 22  1  0  0  0  0
 26 27  1  1  0  0  0
 28 23  1  0  0  0  0
 29 34  1  6  0  0  0
 29 24  1  0  0  0  0
 29 33  1  0  0  0  0
 30 31  1  0  0  0  0
 31 33  2  0  0  0  0
 32 30  2  0  0  0  0
 34 30  1  0  0  0  0
 35 36  1  0  0  0  0
 36 37  1  1  0  0  0
 38 36  1  0  0  0  0
 39 38  1  0  0  0  0
 40 39  1  0  0  0  0
 41 42  1  0  0  0  0
 42 40  1  0  0  0  0
 43 42  2  0  0  0  0
M  END
>  <MODEL>
6

>  <REMARK>
 VINA RESULT:      -8.5      4.051      7.230
  Name = 
  12 active torsions:
  status: ('A' for Active; 'I' for Inactive)
    1  A    between atoms: C_1  and  N_9
    2  A    between atoms: C_1  and  N_35
    3  A    between atoms: C_2  and  C_6
    4  A    between atoms: C_2  and  C_13
    5  A    between atoms: C_3  and  N_4
    6  A    between atoms: C_3  and  S_12
    7  A    between atoms: C_6  and  S_12
    8  A    between atoms: N_9  and  C_32
    9  A    between atoms: C_11  and  C_14
   10  A    between atoms: C_25  and  C_32
   11  A    between atoms: C_25  and  C_37
   12  A    between atoms: C_34  and  N_35
                            x       y       z     vdW  Elec       q    Type
                         _______ _______ _______ _____ _____    ______ ____

>  <TORSDO>
F 12

$$$$
=
 OpenBabel10272414243D

 43 47  0  0  1  0  0  0  0  0999 V2000
  188.6530  177.4340  147.2020 C   0  0  0  0  0  0  0  0  0  0  0  0
  184.6700  178.7020  144.3690 C   0  0  0  0  0  0  0  0  0  0  0  0
  185.4640  178.5260  141.6840 C   0  0  0  0  0  0  0  0  0  0  0  0
  186.4630  178.1220  146.4260 C   0  0  0  0  0  0  0  0  0  0  0  0
  189.0950  177.3270  145.8810 C   0  0  0  0  0  3  0  0  0  0  0  0
  189.4990  177.1470  148.2220 F   0  0  0  0  0  0  0  0  0  0  0  0
  186.9020  178.0180  145.0840 C   0  0  0  0  0  0  0  0  0  0  0  0
  187.3410  177.8310  147.4750 C   0  0  0  0  0  3  0  0  0  0  0  0
  188.2260  177.6180  144.8250 C   0  0  0  0  0  3  0  0  0  0  0  0
  186.3780  178.2350  142.6980 C   0  0  0  0  0  3  0  0  0  0  0  0
  185.9960  178.3130  144.0460 C   0  0  0  0  0  0  0  0  0  0  0  0
  184.2960  178.7880  145.7170 C   0  0  0  0  0  3  0  0  0  0  0  0
  183.7500  179.0000  143.3460 C   0  0  0  0  0  0  0  0  0  0  0  0
  184.1600  178.9060  142.0070 C   0  0  0  0  0  3  0  0  0  0  0  0
  185.1870  178.5020  146.7020 N   0  0  0  0  0  0  0  0  0  0  0  0
  185.8960  178.4640  140.2610 C   0  0  0  0  0  2  0  0  0  0  0  0
  187.4050  178.3110  140.1790 C   0  0  0  0  0  2  0  0  0  0  0  0
  186.7310  178.4870  137.5880 O   0  0  0  0  0  0  0  0  0  0  0  0
  187.9130  178.2210  138.4770 S   0  0  0  0  0  0  0  0  0  0  0  0
  188.9810  179.2440  138.2120 O   0  0  0  0  0  0  0  0  0  0  0  0
  188.5580  176.5940  138.1470 C   0  0  0  0  0  2  0  0  0  0  0  0
  189.7680  176.7000  137.3490 N   0  0  0  0  0  0  0  0  0  0  0  0
  191.9940  175.9870  135.8120 C   0  0  0  0  0  2  0  0  0  0  0  0
  191.7690  175.1750  137.0870 C   0  0  2  0  0  3  0  0  0  0  0  0
  189.4610  176.1190  136.0410 C   0  0  0  0  0  2  0  0  0  0  0  0
  190.8280  175.9490  138.0510 C   0  0  1  0  0  3  0  0  0  0  0  0
  191.6020  176.9180  138.9390 C   0  0  0  0  0  1  0  0  0  0  0  0
  190.6620  176.2570  135.1000 C   0  0  0  0  0  2  0  0  0  0  0  0
  193.0850  174.7040  137.7200 C   0  0  2  0  0  3  0  0  0  0  0  0
  195.0000  173.8940  136.6970 C   0  0  0  0  0  0  0  0  0  0  0  0
  195.2450  175.2070  137.1200 N   0  0  0  0  0  0  0  0  0  0  0  0
  195.8650  173.1790  136.1290 O   0  0  0  0  0  0  0  0  0  0  0  0
  194.0970  175.7790  137.6790 N   0  0  0  0  0  0  0  0  0  0  0  0
  193.6310  173.4740  136.9820 C   0  0  0  0  0  2  0  0  0  0  0  0
  182.4160  179.4250  143.6780 N   0  0  0  0  0  2  0  0  0  0  0  0
  181.2100  179.1620  142.8870 C   0  0  2  0  0  3  0  0  0  0  0  0
  180.1920  178.4010  143.7160 C   0  0  0  0  0  1  0  0  0  0  0  0
  181.5290  178.4200  141.6730 N   0  0  0  0  0  2  0  0  0  0  0  0
  180.8010  179.0370  140.5730 C   0  0  0  0  0  2  0  0  0  0  0  0
  181.0980  178.3060  139.2710 C   0  0  0  0  0  2  0  0  0  0  0  0
  182.8550  180.0550  138.9200 O   0  0  0  0  0  1  0  0  0  0  0  0
  182.3990  178.7620  138.6910 C   0  0  0  0  0  0  0  0  0  0  0  0
  183.0990  177.9660  138.0160 O   0  0  0  0  0  0  0  0  0  0  0  0
  1  8  1  0  0  0  0
  1  6  1  0  0  0  0
  2 12  1  0  0  0  0
  3 14  2  0  0  0  0
  3 10  1  0  0  0  0
  4 15  1  0  0  0  0
  4  8  2  0  0  0  0
  5  1  2  0  0  0  0
  7  4  1  0  0  0  0
  9  7  2  0  0  0  0
  9  5  1  0  0  0  0
 10 11  2  0  0  0  0
 11  2  1  0  0  0  0
 11  7  1  0  0  0  0
 12 15  2  0  0  0  0
 13 35  1  0  0  0  0
 13  2  2  0  0  0  0
 14 13  1  0  0  0  0
 16  3  1  0  0  0  0
 17 16  1  0  0  0  0
 18 19  2  0  0  0  0
 19 17  1  0  0  0  0
 20 19  2  0  0  0  0
 21 19  1  0  0  0  0
 22 26  1  0  0  0  0
 22 21  1  0  0  0  0
 24 23  1  6  0  0  0
 24 29  1  0  0  0  0
 24 26  1  0  0  0  0
 25 22  1  0  0  0  0
 26 27  1  6  0  0  0
 28 23  1  0  0  0  0
 28 25  1  0  0  0  0
 29 34  1  6  0  0  0
 30 34  1  0  0  0  0
 30 31  1  0  0  0  0
 31 33  2  0  0  0  0
 32 30  2  0  0  0  0
 33 29  1  0  0  0  0
 36 35  1  0  0  0  0
 36 37  1  1  0  0  0
 38 36  1  0  0  0  0
 39 38  1  0  0  0  0
 40 39  1  0  0  0  0
 42 41  1  0  0  0  0
 42 40  1  0  0  0  0
 43 42  2  0  0  0  0
M  END
>  <MODEL>
7

>  <REMARK>
 VINA RESULT:      -8.4      2.625      5.628
  Name = 
  12 active torsions:
  status: ('A' for Active; 'I' for Inactive)
    1  A    between atoms: C_1  and  N_9
    2  A    between atoms: C_1  and  N_35
    3  A    between atoms: C_2  and  C_6
    4  A    between atoms: C_2  and  C_13
    5  A    between atoms: C_3  and  N_4
    6  A    between atoms: C_3  and  S_12
    7  A    between atoms: C_6  and  S_12
    8  A    between atoms: N_9  and  C_32
    9  A    between atoms: C_11  and  C_14
   10  A    between atoms: C_25  and  C_32
   11  A    between atoms: C_25  and  C_37
   12  A    between atoms: C_34  and  N_35
                            x       y       z     vdW  Elec       q    Type
                         _______ _______ _______ _____ _____    ______ ____

>  <TORSDO>
F 12

$$$$
=
 OpenBabel10272414243D

 43 47  0  0  1  0  0  0  0  0999 V2000
  191.2170  176.5390  147.0210 C   0  0  0  0  0  0  0  0  0  0  0  0
  188.0830  177.8400  143.2820 C   0  0  0  0  0  0  0  0  0  0  0  0
  189.4710  177.4930  140.8680 C   0  0  0  0  0  0  0  0  0  0  0  0
  189.3110  177.2850  145.7240 C   0  0  0  0  0  0  0  0  0  0  0  0
  191.9480  176.3450  145.8460 C   0  0  0  0  0  3  0  0  0  0  0  0
  191.7840  176.2660  148.2220 F   0  0  0  0  0  0  0  0  0  0  0  0
  190.0450  177.0930  144.5280 C   0  0  0  0  0  0  0  0  0  0  0  0
  189.9020  177.0080  146.9600 C   0  0  0  0  0  3  0  0  0  0  0  0
  191.3670  176.6210  144.6040 C   0  0  0  0  0  3  0  0  0  0  0  0
  190.1050  177.2130  142.0800 C   0  0  0  0  0  3  0  0  0  0  0  0
  189.4230  177.3760  143.2960 C   0  0  0  0  0  0  0  0  0  0  0  0
  187.4100  178.0120  144.4980 C   0  0  0  0  0  3  0  0  0  0  0  0
  187.4450  178.1280  142.0590 C   0  0  0  0  0  0  0  0  0  0  0  0
  188.1510  177.9480  140.8600 C   0  0  0  0  0  3  0  0  0  0  0  0
  188.0280  177.7360  145.6760 N   0  0  0  0  0  0  0  0  0  0  0  0
  190.2190  177.3400  139.5910 C   0  0  0  0  0  2  0  0  0  0  0  0
  189.4160  176.4990  138.6130 C   0  0  0  0  0  2  0  0  0  0  0  0
  189.3070  178.6270  136.9820 O   0  0  0  0  0  0  0  0  0  0  0  0
  189.5910  177.1500  136.9670 S   0  0  0  0  0  0  0  0  0  0  0  0
  190.9910  176.9140  136.4750 O   0  0  0  0  0  0  0  0  0  0  0  0
  188.4370  176.3290  135.8890 C   0  0  0  0  0  2  0  0  0  0  0  0
  187.5160  175.5260  136.6770 N   0  0  0  0  0  0  0  0  0  0  0  0
  185.4470  173.7680  137.3480 C   0  0  0  0  0  2  0  0  0  0  0  0
  185.1180  174.8210  136.2910 C   0  0  2  0  0  3  0  0  0  0  0  0
  187.7330  174.1320  136.2880 C   0  0  0  0  0  2  0  0  0  0  0  0
  186.1490  175.9820  136.3580 C   0  0  1  0  0  3  0  0  0  0  0  0
  185.7400  177.0410  137.3770 C   0  0  0  0  0  1  0  0  0  0  0  0
  186.8560  173.2000  137.1280 C   0  0  0  0  0  2  0  0  0  0  0  0
  183.6510  175.2650  136.3440 C   0  0  2  0  0  3  0  0  0  0  0  0
  181.7600  174.1840  135.5510 C   0  0  0  0  0  0  0  0  0  0  0  0
  181.7910  174.0570  136.9460 N   0  0  0  0  0  0  0  0  0  0  0  0
  180.8340  173.7220  134.8360 O   0  0  0  0  0  0  0  0  0  0  0  0
  182.9540  174.6260  137.4780 N   0  0  0  0  0  0  0  0  0  0  0  0
  182.9270  174.8980  135.0410 C   0  0  0  0  0  2  0  0  0  0  0  0
  186.0970  178.6290  142.0510 N   0  0  0  0  0  2  0  0  0  0  0  0
  184.9990  178.1240  141.2210 C   0  0  2  0  0  3  0  0  0  0  0  0
  184.5520  179.1870  140.2350 C   0  0  0  0  0  1  0  0  0  0  0  0
  183.8750  177.6940  142.0430 N   0  0  0  0  0  2  0  0  0  0  0  0
  183.1460  178.8850  142.4560 C   0  0  0  0  0  2  0  0  0  0  0  0
  182.7740  178.7890  143.9290 C   0  0  0  0  0  2  0  0  0  0  0  0
  184.1000  178.7870  146.0520 O   0  0  0  0  0  1  0  0  0  0  0  0
  183.8740  179.3240  144.7910 C   0  0  0  0  0  0  0  0  0  0  0  0
  184.6150  180.2440  144.3630 O   0  0  0  0  0  0  0  0  0  0  0  0
  1  6  1  0  0  0  0
  2 11  1  0  0  0  0
  2 12  1  0  0  0  0
  3 10  1  0  0  0  0
  4  8  2  0  0  0  0
  5  1  2  0  0  0  0
  7  9  2  0  0  0  0
  7  4  1  0  0  0  0
  8  1  1  0  0  0  0
  9  5  1  0  0  0  0
 10 11  2  0  0  0  0
 11  7  1  0  0  0  0
 12 15  2  0  0  0  0
 13  2  2  0  0  0  0
 14  3  2  0  0  0  0
 14 13  1  0  0  0  0
 15  4  1  0  0  0  0
 16  3  1  0  0  0  0
 17 16  1  0  0  0  0
 19 18  2  0  0  0  0
 19 17  1  0  0  0  0
 20 19  2  0  0  0  0
 21 22  1  0  0  0  0
 21 19  1  0  0  0  0
 24 29  1  0  0  0  0
 24 26  1  0  0  0  0
 24 23  1  1  0  0  0
 25 22  1  0  0  0  0
 25 28  1  0  0  0  0
 26 22  1  0  0  0  0
 26 27  1  1  0  0  0
 28 23  1  0  0  0  0
 29 34  1  6  0  0  0
 29 33  1  0  0  0  0
 30 31  1  0  0  0  0
 31 33  2  0  0  0  0
 32 30  2  0  0  0  0
 34 30  1  0  0  0  0
 35 13  1  0  0  0  0
 36 37  1  6  0  0  0
 36 38  1  0  0  0  0
 36 35  1  0  0  0  0
 38 39  1  0  0  0  0
 39 40  1  0  0  0  0
 40 42  1  0  0  0  0
 42 41  1  0  0  0  0
 43 42  2  0  0  0  0
M  END
>  <MODEL>
8

>  <REMARK>
 VINA RESULT:      -8.3      4.326      7.647
  Name = 
  12 active torsions:
  status: ('A' for Active; 'I' for Inactive)
    1  A    between atoms: C_1  and  N_9
    2  A    between atoms: C_1  and  N_35
    3  A    between atoms: C_2  and  C_6
    4  A    between atoms: C_2  and  C_13
    5  A    between atoms: C_3  and  N_4
    6  A    between atoms: C_3  and  S_12
    7  A    between atoms: C_6  and  S_12
    8  A    between atoms: N_9  and  C_32
    9  A    between atoms: C_11  and  C_14
   10  A    between atoms: C_25  and  C_32
   11  A    between atoms: C_25  and  C_37
   12  A    between atoms: C_34  and  N_35
                            x       y       z     vdW  Elec       q    Type
                         _______ _______ _______ _____ _____    ______ ____

>  <TORSDO>
F 12

$$$$
=
 OpenBabel10272414243D

 43 47  0  0  1  0  0  0  0  0999 V2000
  185.5270  177.1560  136.0360 C   0  0  0  0  0  0  0  0  0  0  0  0
  190.4400  176.6510  137.0880 C   0  0  0  0  0  0  0  0  0  0  0  0
  190.7750  177.2290  139.8130 C   0  0  0  0  0  0  0  0  0  0  0  0
  187.9160  176.7710  135.9060 C   0  0  0  0  0  0  0  0  0  0  0  0
  185.6420  177.4480  137.3980 C   0  0  0  0  0  3  0  0  0  0  0  0
  184.3110  177.1950  135.4370 F   0  0  0  0  0  0  0  0  0  0  0  0
  188.0420  177.0670  137.2850 C   0  0  0  0  0  0  0  0  0  0  0  0
  186.6610  176.8190  135.2920 C   0  0  0  0  0  3  0  0  0  0  0  0
  186.8930  177.4060  138.0220 C   0  0  0  0  0  3  0  0  0  0  0  0
  189.5040  177.2990  139.2400 C   0  0  0  0  0  3  0  0  0  0  0  0
  189.3180  177.0080  137.8800 C   0  0  0  0  0  0  0  0  0  0  0  0
  190.2510  176.3710  135.7280 C   0  0  0  0  0  3  0  0  0  0  0  0
  191.7230  176.5850  137.6650 C   0  0  0  0  0  0  0  0  0  0  0  0
  191.8760  176.8750  139.0290 C   0  0  0  0  0  3  0  0  0  0  0  0
  189.0120  176.4370  135.1730 N   0  0  0  0  0  0  0  0  0  0  0  0
  190.9570  177.5680  141.2500 C   0  0  0  0  0  2  0  0  0  0  0  0
  190.4640  176.4260  142.1220 C   0  0  0  0  0  2  0  0  0  0  0  0
  190.3340  176.5320  144.8000 O   0  0  0  0  0  0  0  0  0  0  0  0
  189.6590  177.0720  143.5700 S   0  0  0  0  0  0  0  0  0  0  0  0
  189.7420  178.5720  143.5700 O   0  0  0  0  0  0  0  0  0  0  0  0
  187.9490  176.5750  143.5580 C   0  0  0  0  0  2  0  0  0  0  0  0
  187.1010  177.7310  143.7930 N   0  0  0  0  0  0  0  0  0  0  0  0
  184.8220  179.2990  144.2090 C   0  0  0  0  0  2  0  0  0  0  0  0
  184.7370  178.2780  143.0760 C   0  0  2  0  0  3  0  0  0  0  0  0
  186.4020  177.4910  145.0560 C   0  0  0  0  0  2  0  0  0  0  0  0
  186.1640  177.8310  142.6550 C   0  0  1  0  0  3  0  0  0  0  0  0
  186.7660  178.7690  141.6130 C   0  0  0  0  0  1  0  0  0  0  0  0
  185.5380  178.6990  145.4270 C   0  0  0  0  0  2  0  0  0  0  0  0
  183.8520  178.7600  141.9190 C   0  0  2  0  0  3  0  0  0  0  0  0
  182.2420  177.5990  140.7210 C   0  0  0  0  0  0  0  0  0  0  0  0
  181.5940  178.4710  141.6050 N   0  0  0  0  0  0  0  0  0  0  0  0
  181.6310  176.8530  139.9150 O   0  0  0  0  0  0  0  0  0  0  0  0
  182.5150  179.1470  142.4140 N   0  0  0  0  0  0  0  0  0  0  0  0
  183.6950  177.6570  140.8630 C   0  0  0  0  0  2  0  0  0  0  0  0
  192.8620  176.2540  136.8520 N   0  0  0  0  0  2  0  0  0  0  0  0
  193.6570  175.0270  136.9470 C   0  0  2  0  0  3  0  0  0  0  0  0
  192.7690  173.8490  137.3020 C   0  0  0  0  0  1  0  0  0  0  0  0
  194.7240  175.1670  137.9310 N   0  0  0  0  0  2  0  0  0  0  0  0
  195.0310  173.8390  138.4450 C   0  0  0  0  0  2  0  0  0  0  0  0
  196.5280  173.5750  138.3590 C   0  0  0  0  0  2  0  0  0  0  0  0
  197.1060  175.0140  140.3250 O   0  0  0  0  0  1  0  0  0  0  0  0
  197.3010  174.6910  138.9870 C   0  0  0  0  0  0  0  0  0  0  0  0
  198.1520  175.3230  138.3120 O   0  0  0  0  0  0  0  0  0  0  0  0
  1  5  1  0  0  0  0
  2 13  2  0  0  0  0
  2 11  1  0  0  0  0
  3 16  1  0  0  0  0
  4  7  2  0  0  0  0
  5  9  2  0  0  0  0
  6  1  1  0  0  0  0
  7 11  1  0  0  0  0
  7  9  1  0  0  0  0
  8  4  1  0  0  0  0
  8  1  2  0  0  0  0
 10  3  1  0  0  0  0
 11 10  2  0  0  0  0
 12  2  1  0  0  0  0
 13 14  1  0  0  0  0
 14  3  2  0  0  0  0
 15 12  2  0  0  0  0
 15  4  1  0  0  0  0
 16 17  1  0  0  0  0
 17 19  1  0  0  0  0
 19 18  2  0  0  0  0
 20 19  2  0  0  0  0
 21 19  1  0  0  0  0
 21 22  1  0  0  0  0
 22 25  1  0  0  0  0
 23 28  1  0  0  0  0
 24 23  1  1  0  0  0
 25 28  1  0  0  0  0
 26 27  1  6  0  0  0
 26 24  1  0  0  0  0
 26 22  1  0  0  0  0
 29 34  1  6  0  0  0
 29 33  1  0  0  0  0
 29 24  1  0  0  0  0
 30 34  1  0  0  0  0
 30 31  1  0  0  0  0
 31 33  2  0  0  0  0
 32 30  2  0  0  0  0
 35 36  1  0  0  0  0
 35 13  1  0  0  0  0
 36 37  1  1  0  0  0
 36 38  1  0  0  0  0
 38 39  1  0  0  0  0
 40 39  1  0  0  0  0
 40 42  1  0  0  0  0
 42 41  1  0  0  0  0
 43 42  2  0  0  0  0
M  END
>  <MODEL>
9

>  <REMARK>
 VINA RESULT:      -8.2      2.828      9.408
  Name = 
  12 active torsions:
  status: ('A' for Active; 'I' for Inactive)
    1  A    between atoms: C_1  and  N_9
    2  A    between atoms: C_1  and  N_35
    3  A    between atoms: C_2  and  C_6
    4  A    between atoms: C_2  and  C_13
    5  A    between atoms: C_3  and  N_4
    6  A    between atoms: C_3  and  S_12
    7  A    between atoms: C_6  and  S_12
    8  A    between atoms: N_9  and  C_32
    9  A    between atoms: C_11  and  C_14
   10  A    between atoms: C_25  and  C_32
   11  A    between atoms: C_25  and  C_37
   12  A    between atoms: C_34  and  N_35
                            x       y       z     vdW  Elec       q    Type
                         _______ _______ _______ _____ _____    ______ ____

>  <TORSDO>
F 12

$$$$
