=
 OpenBabel10272401583D

 28 32  0  0  1  0  0  0  0  0999 V2000
  190.7160  176.7710  144.5460 C   0  0  1  0  0  3  0  0  0  0  0  0
  185.7660  178.1450  143.3250 C   0  0  0  0  0  3  0  0  0  0  0  0
  188.6970  178.3730  148.6950 C   0  0  0  0  0  2  0  0  0  0  0  0
  184.7800  178.6390  145.4920 C   0  0  0  0  0  0  0  0  0  0  0  0
  187.1390  178.0710  145.3580 C   0  0  0  0  0  0  0  0  0  0  0  0
  183.4160  178.7100  143.4910 C   0  0  0  0  0  0  0  0  0  0  0  0
  185.9050  178.2800  144.7150 C   0  0  0  0  0  0  0  0  0  0  0  0
  186.0840  178.5980  147.4710 C   0  0  0  0  0  3  0  0  0  0  0  0
  183.5430  178.8500  144.8750 C   0  0  0  0  0  3  0  0  0  0  0  0
  189.5800  177.3130  146.7150 N   0  0  0  0  0  0  0  0  0  0  0  0
  188.3830  177.8000  144.5600 C   0  0  0  0  0  2  0  0  0  0  0  0
  184.8990  178.7890  146.8360 N   0  0  0  0  0  0  0  0  0  0  0  0
  191.3960  175.6270  146.7180 C   0  0  0  0  0  2  0  0  0  0  0  0
  187.2320  178.2380  146.7490 C   0  0  0  0  0  0  0  0  0  0  0  0
  190.7120  176.7610  147.4740 C   0  0  0  0  0  2  0  0  0  0  0  0
  182.1560  178.9250  142.8680 N   0  0  0  0  0  1  0  0  0  0  0  0
  184.5250  178.3580  142.7170 C   0  0  0  0  0  3  0  0  0  0  0  0
  188.5220  177.9890  147.4290 C   0  0  0  0  0  0  0  0  0  0  0  0
  191.8480  176.1180  145.3500 C   0  0  0  0  0  2  0  0  0  0  0  0
  189.3780  176.9080  145.3100 C   0  0  1  0  0  3  0  0  0  0  0  0
  191.3170  178.2940  143.7070 S   0  0  0  0  0  0  0  0  0  0  0  0
  190.9850  177.7640  142.0250 C   0  0  0  0  0  0  0  0  0  0  0  0
  190.4760  176.9630  139.3930 C   0  0  0  0  0  0  0  0  0  0  0  0
  189.6670  177.6430  141.5720 C   0  0  0  0  0  3  0  0  0  0  0  0
  192.0480  177.5060  141.1520 C   0  0  0  0  0  3  0  0  0  0  0  0
  191.7940  177.1020  139.8390 C   0  0  0  0  0  3  0  0  0  0  0  0
  190.2290  176.5690  138.1220 F   0  0  0  0  0  0  0  0  0  0  0  0
  189.4120  177.2390  140.2580 C   0  0  0  0  0  3  0  0  0  0  0  0
  1 21  1  1  0  0  0
  1 20  1  0  0  0  0
  1 19  1  0  0  0  0
  2  7  1  0  0  0  0
  4 12  1  0  0  0  0
  5 14  2  0  0  0  0
  6  9  2  0  0  0  0
  7  5  1  0  0  0  0
  7  4  2  0  0  0  0
  9  4  1  0  0  0  0
 10 18  1  0  0  0  0
 10 15  1  0  0  0  0
 11  5  1  0  0  0  0
 12  8  2  0  0  0  0
 13 15  1  0  0  0  0
 14 18  1  0  0  0  0
 14  8  1  0  0  0  0
 16  6  1  0  0  0  0
 17  2  2  0  0  0  0
 17  6  1  0  0  0  0
 18  3  2  0  0  0  0
 19 13  1  0  0  0  0
 20 11  1  6  0  0  0
 20 10  1  0  0  0  0
 22 21  1  0  0  0  0
 23 26  2  0  0  0  0
 23 28  1  0  0  0  0
 24 22  1  0  0  0  0
 25 22  2  0  0  0  0
 26 25  1  0  0  0  0
 27 23  1  0  0  0  0
 28 24  2  0  0  0  0
M  END
>  <MODEL>
1

>  <REMARK>
 VINA RESULT:     -11.3      0.000      0.000
  Name = 
  2 active torsions:
  status: ('A' for Active; 'I' for Inactive)
    1  A    between atoms: C_1  and  S_2
    2  A    between atoms: S_2  and  C_3
                            x       y       z     vdW  Elec       q    Type
                         _______ _______ _______ _____ _____    ______ ____

>  <TORSDO>
F 2

$$$$
=
 OpenBabel10272401583D

 28 32  0  0  1  0  0  0  0  0999 V2000
  188.9500  177.0090  141.6700 C   0  0  1  0  0  3  0  0  0  0  0  0
  183.9120  178.4870  142.2390 C   0  0  0  0  0  3  0  0  0  0  0  0
  188.3770  178.0600  146.4060 C   0  0  0  0  0  2  0  0  0  0  0  0
  183.6670  178.6970  144.6490 C   0  0  0  0  0  0  0  0  0  0  0  0
  185.8480  178.1680  143.7140 C   0  0  0  0  0  0  0  0  0  0  0  0
  181.7510  179.0080  143.2010 C   0  0  0  0  0  0  0  0  0  0  0  0
  184.4820  178.4470  143.5210 C   0  0  0  0  0  0  0  0  0  0  0  0
  185.5210  178.4170  146.0990 C   0  0  0  0  0  3  0  0  0  0  0  0
  182.3070  178.9740  144.4810 C   0  0  0  0  0  3  0  0  0  0  0  0
  188.5650  177.2650  144.1350 N   0  0  0  0  0  0  0  0  0  0  0  0
  186.7720  178.0100  142.5400 C   0  0  0  0  0  2  0  0  0  0  0  0
  184.2040  178.6780  145.8960 N   0  0  0  0  0  0  0  0  0  0  0  0
  190.2360  175.6060  143.3640 C   0  0  0  0  0  2  0  0  0  0  0  0
  186.3750  178.1600  145.0150 C   0  0  0  0  0  0  0  0  0  0  0  0
  189.8590  176.6300  144.4280 C   0  0  0  0  0  2  0  0  0  0  0  0
  180.3660  179.2900  143.0350 N   0  0  0  0  0  1  0  0  0  0  0  0
  182.5520  178.7650  142.0810 C   0  0  0  0  0  3  0  0  0  0  0  0
  187.8040  177.8370  145.2220 C   0  0  0  0  0  0  0  0  0  0  0  0
  190.2550  176.2690  141.9940 C   0  0  0  0  0  2  0  0  0  0  0  0
  187.9210  177.0380  142.8260 C   0  0  1  0  0  3  0  0  0  0  0  0
  189.3070  178.6300  140.8780 S   0  0  0  0  0  0  0  0  0  0  0  0
  188.8570  178.1610  139.2060 C   0  0  0  0  0  0  0  0  0  0  0  0
  188.1430  177.4040  136.6080 C   0  0  0  0  0  0  0  0  0  0  0  0
  189.8420  177.7600  138.2970 C   0  0  0  0  0  3  0  0  0  0  0  0
  187.5110  178.1600  138.8200 C   0  0  0  0  0  3  0  0  0  0  0  0
  187.1560  177.7860  137.5210 C   0  0  0  0  0  3  0  0  0  0  0  0
  187.7990  177.0450  135.3490 F   0  0  0  0  0  0  0  0  0  0  0  0
  189.4860  177.3870  136.9980 C   0  0  0  0  0  3  0  0  0  0  0  0
  1 21  1  1  0  0  0
  1 19  1  0  0  0  0
  1 20  1  0  0  0  0
  2  7  1  0  0  0  0
  4 12  1  0  0  0  0
  5 14  2  0  0  0  0
  6  9  2  0  0  0  0
  7  5  1  0  0  0  0
  7  4  2  0  0  0  0
  9  4  1  0  0  0  0
 10 15  1  0  0  0  0
 10 18  1  0  0  0  0
 11  5  1  0  0  0  0
 12  8  2  0  0  0  0
 13 15  1  0  0  0  0
 14 18  1  0  0  0  0
 14  8  1  0  0  0  0
 16  6  1  0  0  0  0
 17  2  2  0  0  0  0
 17  6  1  0  0  0  0
 18  3  2  0  0  0  0
 19 13  1  0  0  0  0
 20 11  1  6  0  0  0
 20 10  1  0  0  0  0
 22 21  1  0  0  0  0
 23 28  2  0  0  0  0
 23 26  1  0  0  0  0
 24 22  2  0  0  0  0
 25 22  1  0  0  0  0
 26 25  2  0  0  0  0
 27 23  1  0  0  0  0
 28 24  1  0  0  0  0
M  END
>  <MODEL>
2

>  <REMARK>
 VINA RESULT:      -9.5      1.954      2.946
  Name = 
  2 active torsions:
  status: ('A' for Active; 'I' for Inactive)
    1  A    between atoms: C_1  and  S_2
    2  A    between atoms: S_2  and  C_3
                            x       y       z     vdW  Elec       q    Type
                         _______ _______ _______ _____ _____    ______ ____

>  <TORSDO>
F 2

$$$$
=
 OpenBabel10272401583D

 28 32  0  0  1  0  0  0  0  0999 V2000
  188.9940  177.3050  143.8670 C   0  0  1  0  0  3  0  0  0  0  0  0
  184.4130  177.9580  141.3240 C   0  0  0  0  0  3  0  0  0  0  0  0
  185.9260  179.2990  147.1030 C   0  0  0  0  0  2  0  0  0  0  0  0
  182.8990  178.6700  143.0880 C   0  0  0  0  0  0  0  0  0  0  0  0
  185.2510  178.3350  143.6000 C   0  0  0  0  0  0  0  0  0  0  0  0
  182.0610  178.2950  140.8470 C   0  0  0  0  0  0  0  0  0  0  0  0
  184.2000  178.3160  142.6650 C   0  0  0  0  0  0  0  0  0  0  0  0
  183.6810  179.0640  145.2910 C   0  0  0  0  0  3  0  0  0  0  0  0
  181.8380  178.6560  142.1770 C   0  0  0  0  0  3  0  0  0  0  0  0
  187.3320  178.0480  145.5910 N   0  0  0  0  0  0  0  0  0  0  0  0
  186.6670  178.0770  143.1680 C   0  0  0  0  0  2  0  0  0  0  0  0
  182.6770  179.0330  144.3780 N   0  0  0  0  0  0  0  0  0  0  0  0
  189.1970  176.5800  146.3010 C   0  0  0  0  0  2  0  0  0  0  0  0
  184.9920  178.7200  144.9250 C   0  0  0  0  0  0  0  0  0  0  0  0
  188.2780  177.7370  146.6730 C   0  0  0  0  0  2  0  0  0  0  0  0
  180.9800  178.2810  139.9230 N   0  0  0  0  0  1  0  0  0  0  0  0
  183.3470  177.9470  140.4200 C   0  0  0  0  0  3  0  0  0  0  0  0
  186.0900  178.7120  145.9160 C   0  0  0  0  0  0  0  0  0  0  0  0
  189.9360  176.9020  145.0100 C   0  0  0  0  0  2  0  0  0  0  0  0
  187.5040  177.4160  144.2680 C   0  0  1  0  0  3  0  0  0  0  0  0
  189.6820  178.7370  142.9390 S   0  0  0  0  0  0  0  0  0  0  0  0
  189.6400  177.9850  141.3110 C   0  0  0  0  0  0  0  0  0  0  0  0
  189.5540  176.7950  138.7810 C   0  0  0  0  0  0  0  0  0  0  0  0
  190.6170  177.0540  140.9410 C   0  0  0  0  0  3  0  0  0  0  0  0
  188.6070  178.3020  140.4220 C   0  0  0  0  0  3  0  0  0  0  0  0
  188.5660  177.7110  139.1560 C   0  0  0  0  0  3  0  0  0  0  0  0
  189.5160  176.2250  137.5530 F   0  0  0  0  0  0  0  0  0  0  0  0
  190.5760  176.4630  139.6750 C   0  0  0  0  0  3  0  0  0  0  0  0
  1 21  1  1  0  0  0
  1 20  1  0  0  0  0
  1 19  1  0  0  0  0
  2  7  1  0  0  0  0
  4 12  1  0  0  0  0
  5 14  2  0  0  0  0
  6  9  2  0  0  0  0
  7  4  2  0  0  0  0
  7  5  1  0  0  0  0
  9  4  1  0  0  0  0
 10 18  1  0  0  0  0
 10 15  1  0  0  0  0
 11  5  1  0  0  0  0
 12  8  2  0  0  0  0
 13 15  1  0  0  0  0
 14  8  1  0  0  0  0
 14 18  1  0  0  0  0
 16  6  1  0  0  0  0
 17  6  1  0  0  0  0
 17  2  2  0  0  0  0
 18  3  2  0  0  0  0
 19 13  1  0  0  0  0
 20 11  1  6  0  0  0
 20 10  1  0  0  0  0
 22 21  1  0  0  0  0
 23 26  2  0  0  0  0
 23 28  1  0  0  0  0
 24 22  1  0  0  0  0
 25 22  2  0  0  0  0
 26 25  1  0  0  0  0
 27 23  1  0  0  0  0
 28 24  2  0  0  0  0
M  END
>  <MODEL>
3

>  <REMARK>
 VINA RESULT:      -9.0      1.498      2.606
  Name = 
  2 active torsions:
  status: ('A' for Active; 'I' for Inactive)
    1  A    between atoms: C_1  and  S_2
    2  A    between atoms: S_2  and  C_3
                            x       y       z     vdW  Elec       q    Type
                         _______ _______ _______ _____ _____    ______ ____

>  <TORSDO>
F 2

$$$$
=
 OpenBabel10272401583D

 28 32  0  0  1  0  0  0  0  0999 V2000
  189.1410  176.6970  141.9780 C   0  0  1  0  0  3  0  0  0  0  0  0
  184.1340  178.3390  142.3200 C   0  0  0  0  0  3  0  0  0  0  0  0
  188.5120  178.1580  146.5960 C   0  0  0  0  0  2  0  0  0  0  0  0
  183.8520  178.7570  144.6980 C   0  0  0  0  0  0  0  0  0  0  0  0
  186.0340  178.0990  143.8550 C   0  0  0  0  0  0  0  0  0  0  0  0
  181.9700  178.9910  143.1920 C   0  0  0  0  0  0  0  0  0  0  0  0
  184.6800  178.3930  143.6120 C   0  0  0  0  0  0  0  0  0  0  0  0
  185.6720  178.5560  146.2040 C   0  0  0  0  0  3  0  0  0  0  0  0
  182.5020  179.0520  144.4810 C   0  0  0  0  0  3  0  0  0  0  0  0
  188.7190  177.1690  144.4050 N   0  0  0  0  0  0  0  0  0  0  0  0
  186.9750  177.8200  142.7180 C   0  0  0  0  0  2  0  0  0  0  0  0
  184.3650  178.8300  145.9530 N   0  0  0  0  0  0  0  0  0  0  0  0
  190.3610  175.4120  143.8090 C   0  0  0  0  0  2  0  0  0  0  0  0
  186.5380  178.1880  145.1630 C   0  0  0  0  0  0  0  0  0  0  0  0
  189.9910  176.5310  144.7750 C   0  0  0  0  0  2  0  0  0  0  0  0
  180.5960  179.2910  142.9750 N   0  0  0  0  0  1  0  0  0  0  0  0
  182.7840  178.6350  142.1130 C   0  0  0  0  0  3  0  0  0  0  0  0
  187.9540  177.8500  145.4240 C   0  0  0  0  0  0  0  0  0  0  0  0
  190.4210  175.9560  142.3880 C   0  0  0  0  0  2  0  0  0  0  0  0
  188.0940  176.8480  143.1060 C   0  0  1  0  0  3  0  0  0  0  0  0
  189.5540  178.2360  141.0590 S   0  0  0  0  0  0  0  0  0  0  0  0
  190.7520  177.5090  139.9390 C   0  0  0  0  0  0  0  0  0  0  0  0
  192.6270  176.4020  138.1820 C   0  0  0  0  0  0  0  0  0  0  0  0
  190.3270  176.8970  138.7550 C   0  0  0  0  0  3  0  0  0  0  0  0
  192.1180  177.5880  140.2310 C   0  0  0  0  0  3  0  0  0  0  0  0
  193.0550  177.0300  139.3560 C   0  0  0  0  0  3  0  0  0  0  0  0
  193.5340  175.8590  137.3360 F   0  0  0  0  0  0  0  0  0  0  0  0
  191.2630  176.3390  137.8790 C   0  0  0  0  0  3  0  0  0  0  0  0
  1 21  1  1  0  0  0
  1 19  1  0  0  0  0
  1 20  1  0  0  0  0
  2  7  1  0  0  0  0
  4 12  1  0  0  0  0
  5 14  2  0  0  0  0
  6  9  2  0  0  0  0
  7  5  1  0  0  0  0
  7  4  2  0  0  0  0
  9  4  1  0  0  0  0
 10 15  1  0  0  0  0
 10 18  1  0  0  0  0
 11  5  1  0  0  0  0
 12  8  2  0  0  0  0
 13 15  1  0  0  0  0
 14 18  1  0  0  0  0
 14  8  1  0  0  0  0
 16  6  1  0  0  0  0
 17  2  2  0  0  0  0
 17  6  1  0  0  0  0
 18  3  2  0  0  0  0
 19 13  1  0  0  0  0
 20 11  1  6  0  0  0
 20 10  1  0  0  0  0
 22 25  1  0  0  0  0
 22 21  1  0  0  0  0
 23 26  1  0  0  0  0
 24 22  2  0  0  0  0
 26 25  2  0  0  0  0
 27 23  1  0  0  0  0
 28 23  2  0  0  0  0
 28 24  1  0  0  0  0
M  END
>  <MODEL>
4

>  <REMARK>
 VINA RESULT:      -8.9      1.632      2.280
  Name = 
  2 active torsions:
  status: ('A' for Active; 'I' for Inactive)
    1  A    between atoms: C_1  and  S_2
    2  A    between atoms: S_2  and  C_3
                            x       y       z     vdW  Elec       q    Type
                         _______ _______ _______ _____ _____    ______ ____

>  <TORSDO>
F 2

$$$$
=
 OpenBabel10272401583D

 28 32  0  0  1  0  0  0  0  0999 V2000
  189.0650  178.2260  143.4200 C   0  0  1  0  0  3  0  0  0  0  0  0
  187.0510  177.8820  138.5510 C   0  0  0  0  0  3  0  0  0  0  0  0
  192.7180  176.7120  140.5520 C   0  0  0  0  0  2  0  0  0  0  0  0
  189.0030  177.4140  137.1790 C   0  0  0  0  0  0  0  0  0  0  0  0
  189.2480  177.5480  139.5930 C   0  0  0  0  0  0  0  0  0  0  0  0
  186.8390  177.7480  136.1410 C   0  0  0  0  0  0  0  0  0  0  0  0
  188.4270  177.6180  138.4530 C   0  0  0  0  0  0  0  0  0  0  0  0
  191.1340  177.0650  138.1550 C   0  0  0  0  0  3  0  0  0  0  0  0
  188.2060  177.4820  136.0320 C   0  0  0  0  0  3  0  0  0  0  0  0
  190.9940  177.7390  141.8930 N   0  0  0  0  0  0  0  0  0  0  0  0
  188.6590  177.6460  140.9710 C   0  0  0  0  0  2  0  0  0  0  0  0
  190.3280  177.1430  137.0650 N   0  0  0  0  0  0  0  0  0  0  0  0
  191.4150  179.0580  143.9480 C   0  0  0  0  0  2  0  0  0  0  0  0
  190.6150  177.2610  139.4440 C   0  0  0  0  0  0  0  0  0  0  0  0
  191.9520  178.0150  142.9750 C   0  0  0  0  0  2  0  0  0  0  0  0
  186.0320  177.8160  134.9720 N   0  0  0  0  0  1  0  0  0  0  0  0
  186.2620  177.9470  137.3990 C   0  0  0  0  0  3  0  0  0  0  0  0
  191.4850  177.2170  140.6390 C   0  0  0  0  0  0  0  0  0  0  0  0
  190.0780  178.5970  144.5120 C   0  0  0  0  0  2  0  0  0  0  0  0
  189.6230  178.2810  141.9780 C   0  0  1  0  0  3  0  0  0  0  0  0
  188.1650  176.6880  143.8720 S   0  0  0  0  0  0  0  0  0  0  0  0
  186.6190  177.4670  144.3410 C   0  0  0  0  0  0  0  0  0  0  0  0
  184.2180  178.7100  145.0640 C   0  0  0  0  0  0  0  0  0  0  0  0
  186.3260  177.6950  145.6900 C   0  0  0  0  0  3  0  0  0  0  0  0
  185.7190  177.8840  143.3530 C   0  0  0  0  0  3  0  0  0  0  0  0
  184.5180  178.5000  143.7150 C   0  0  0  0  0  3  0  0  0  0  0  0
  183.0530  179.3040  145.4150 F   0  0  0  0  0  0  0  0  0  0  0  0
  185.1240  178.3110  146.0520 C   0  0  0  0  0  3  0  0  0  0  0  0
  1 21  1  1  0  0  0
  1 19  1  0  0  0  0
  3 18  2  0  0  0  0
  4  7  1  0  0  0  0
  5 11  1  0  0  0  0
  6 17  1  0  0  0  0
  7  2  1  0  0  0  0
  7  5  2  0  0  0  0
  8 14  2  0  0  0  0
  9  6  2  0  0  0  0
  9  4  1  0  0  0  0
 10 20  1  0  0  0  0
 10 15  1  0  0  0  0
 12  4  2  0  0  0  0
 12  8  1  0  0  0  0
 13 19  1  0  0  0  0
 14  5  1  0  0  0  0
 14 18  1  0  0  0  0
 15 13  1  0  0  0  0
 16  6  1  0  0  0  0
 17  2  2  0  0  0  0
 18 10  1  0  0  0  0
 20 11  1  6  0  0  0
 20  1  1  0  0  0  0
 21 22  1  0  0  0  0
 22 24  1  0  0  0  0
 23 27  1  0  0  0  0
 23 28  1  0  0  0  0
 24 28  2  0  0  0  0
 25 26  1  0  0  0  0
 25 22  2  0  0  0  0
 26 23  2  0  0  0  0
M  END
>  <MODEL>
5

>  <REMARK>
 VINA RESULT:      -8.7      3.901      7.207
  Name = 
  2 active torsions:
  status: ('A' for Active; 'I' for Inactive)
    1  A    between atoms: C_1  and  S_2
    2  A    between atoms: S_2  and  C_3
                            x       y       z     vdW  Elec       q    Type
                         _______ _______ _______ _____ _____    ______ ____

>  <TORSDO>
F 2

$$$$
=
 OpenBabel10272401583D

 28 32  0  0  1  0  0  0  0  0999 V2000
  183.0080  178.5620  139.1030 C   0  0  1  0  0  3  0  0  0  0  0  0
  186.5220  177.8070  142.9710 C   0  0  0  0  0  3  0  0  0  0  0  0
  180.5600  179.1610  143.2880 C   0  0  0  0  0  2  0  0  0  0  0  0
  185.2810  178.4130  144.9710 C   0  0  0  0  0  0  0  0  0  0  0  0
  184.1490  178.4130  142.8200 C   0  0  0  0  0  0  0  0  0  0  0  0
  187.6240  177.8220  145.1280 C   0  0  0  0  0  0  0  0  0  0  0  0
  185.3200  178.2090  143.5730 C   0  0  0  0  0  0  0  0  0  0  0  0
  182.9820  178.9820  144.8630 C   0  0  0  0  0  3  0  0  0  0  0  0
  186.4330  178.2200  145.7390 C   0  0  0  0  0  3  0  0  0  0  0  0
  181.8400  179.1560  141.2420 N   0  0  0  0  0  0  0  0  0  0  0  0
  184.1160  178.0980  141.3520 C   0  0  0  0  0  2  0  0  0  0  0  0
  184.1230  178.7880  145.5730 N   0  0  0  0  0  0  0  0  0  0  0  0
  181.1620  180.3180  139.1600 C   0  0  0  0  0  2  0  0  0  0  0  0
  182.9650  178.7950  143.4720 C   0  0  0  0  0  0  0  0  0  0  0  0
  180.7130  179.7330  140.4940 C   0  0  0  0  0  2  0  0  0  0  0  0
  188.7940  177.6270  145.9130 N   0  0  0  0  0  1  0  0  0  0  0  0
  187.6690  177.6150  143.7460 C   0  0  0  0  0  3  0  0  0  0  0  0
  181.7410  179.0380  142.6780 C   0  0  0  0  0  0  0  0  0  0  0  0
  181.8670  179.2470  138.3390 C   0  0  0  0  0  2  0  0  0  0  0  0
  183.1510  179.0030  140.5790 C   0  0  1  0  0  3  0  0  0  0  0  0
  182.9820  176.7470  138.8090 S   0  0  0  0  0  0  0  0  0  0  0  0
  184.4270  176.6750  137.7480 C   0  0  0  0  0  0  0  0  0  0  0  0
  186.6940  176.5450  136.1130 C   0  0  0  0  0  0  0  0  0  0  0  0
  185.3340  177.7400  137.7210 C   0  0  0  0  0  3  0  0  0  0  0  0
  184.6690  175.5350  136.9740 C   0  0  0  0  0  3  0  0  0  0  0  0
  185.7990  175.4720  136.1530 C   0  0  0  0  0  3  0  0  0  0  0  0
  187.7860  176.4850  135.3160 F   0  0  0  0  0  0  0  0  0  0  0  0
  186.4640  177.6770  136.9000 C   0  0  0  0  0  3  0  0  0  0  0  0
  1 21  1  1  0  0  0
  1 20  1  0  0  0  0
  2  7  2  0  0  0  0
  2 17  1  0  0  0  0
  4 12  1  0  0  0  0
  4  9  2  0  0  0  0
  5 14  2  0  0  0  0
  5  7  1  0  0  0  0
  6  9  1  0  0  0  0
  6 16  1  0  0  0  0
  7  4  1  0  0  0  0
  8 12  2  0  0  0  0
 10 18  1  0  0  0  0
 11  5  1  0  0  0  0
 13 15  1  0  0  0  0
 14  8  1  0  0  0  0
 15 10  1  0  0  0  0
 17  6  2  0  0  0  0
 18  3  2  0  0  0  0
 18 14  1  0  0  0  0
 19  1  1  0  0  0  0
 19 13  1  0  0  0  0
 20 10  1  0  0  0  0
 20 11  1  1  0  0  0
 22 21  1  0  0  0  0
 23 26  2  0  0  0  0
 23 28  1  0  0  0  0
 24 22  1  0  0  0  0
 25 22  2  0  0  0  0
 26 25  1  0  0  0  0
 27 23  1  0  0  0  0
 28 24  2  0  0  0  0
M  END
>  <MODEL>
6

>  <REMARK>
 VINA RESULT:      -8.6      3.746      7.291
  Name = 
  2 active torsions:
  status: ('A' for Active; 'I' for Inactive)
    1  A    between atoms: C_1  and  S_2
    2  A    between atoms: S_2  and  C_3
                            x       y       z     vdW  Elec       q    Type
                         _______ _______ _______ _____ _____    ______ ____

>  <TORSDO>
F 2

$$$$
=
 OpenBabel10272401583D

 28 32  0  0  1  0  0  0  0  0999 V2000
  188.8440  176.7660  137.9200 C   0  0  1  0  0  3  0  0  0  0  0  0
  187.4770  177.4910  142.9690 C   0  0  0  0  0  3  0  0  0  0  0  0
  193.0100  177.5460  140.3480 C   0  0  0  0  0  2  0  0  0  0  0  0
  189.6200  177.5730  144.1140 C   0  0  0  0  0  0  0  0  0  0  0  0
  189.5700  177.3950  141.6910 C   0  0  0  0  0  0  0  0  0  0  0  0
  187.5590  177.6630  145.3840 C   0  0  0  0  0  0  0  0  0  0  0  0
  188.8800  177.4840  142.9130 C   0  0  0  0  0  0  0  0  0  0  0  0
  191.6600  177.5050  142.9080 C   0  0  0  0  0  3  0  0  0  0  0  0
  188.9550  177.6610  145.3410 C   0  0  0  0  0  3  0  0  0  0  0  0
  190.9850  176.8710  139.2210 N   0  0  0  0  0  0  0  0  0  0  0  0
  188.8260  177.4140  140.3860 C   0  0  0  0  0  2  0  0  0  0  0  0
  190.9770  177.5830  144.0800 N   0  0  0  0  0  0  0  0  0  0  0  0
  190.9190  175.4970  137.1600 C   0  0  0  0  0  2  0  0  0  0  0  0
  190.9740  177.4130  141.6860 C   0  0  0  0  0  0  0  0  0  0  0  0
  191.7480  176.4160  138.0490 C   0  0  0  0  0  2  0  0  0  0  0  0
  186.8870  177.7520  146.6340 N   0  0  0  0  0  1  0  0  0  0  0  0
  186.8210  177.5790  144.2000 C   0  0  0  0  0  3  0  0  0  0  0  0
  191.7020  177.2890  140.4040 C   0  0  0  0  0  0  0  0  0  0  0  0
  189.6420  176.2070  136.7340 C   0  0  0  0  0  2  0  0  0  0  0  0
  189.5350  176.6050  139.2950 C   0  0  1  0  0  3  0  0  0  0  0  0
  188.2120  178.4500  137.5350 S   0  0  0  0  0  0  0  0  0  0  0  0
  186.4710  178.0220  137.4710 C   0  0  0  0  0  0  0  0  0  0  0  0
  183.7600  177.3330  137.3910 C   0  0  0  0  0  0  0  0  0  0  0  0
  185.9700  177.2650  136.4050 C   0  0  0  0  0  3  0  0  0  0  0  0
  185.6170  178.4130  138.5090 C   0  0  0  0  0  3  0  0  0  0  0  0
  184.2620  178.0730  138.4670 C   0  0  0  0  0  3  0  0  0  0  0  0
  182.4470  177.0070  137.3490 F   0  0  0  0  0  0  0  0  0  0  0  0
  184.6150  176.9250  136.3630 C   0  0  0  0  0  3  0  0  0  0  0  0
  1 21  1  6  0  0  0
  1 20  1  0  0  0  0
  2 17  1  0  0  0  0
  3 18  2  0  0  0  0
  4  9  2  0  0  0  0
  5  7  1  0  0  0  0
  6 16  1  0  0  0  0
  7  2  2  0  0  0  0
  7  4  1  0  0  0  0
  8 12  2  0  0  0  0
  9  6  1  0  0  0  0
 10 20  1  0  0  0  0
 10 18  1  0  0  0  0
 11  5  1  0  0  0  0
 12  4  1  0  0  0  0
 13 15  1  0  0  0  0
 14  5  2  0  0  0  0
 14  8  1  0  0  0  0
 15 10  1  0  0  0  0
 17  6  2  0  0  0  0
 18 14  1  0  0  0  0
 19 13  1  0  0  0  0
 19  1  1  0  0  0  0
 20 11  1  1  0  0  0
 22 21  1  0  0  0  0
 22 25  1  0  0  0  0
 23 26  1  0  0  0  0
 24 22  2  0  0  0  0
 26 25  2  0  0  0  0
 27 23  1  0  0  0  0
 28 24  1  0  0  0  0
 28 23  2  0  0  0  0
M  END
>  <MODEL>
7

>  <REMARK>
 VINA RESULT:      -8.6      3.636      6.701
  Name = 
  2 active torsions:
  status: ('A' for Active; 'I' for Inactive)
    1  A    between atoms: C_1  and  S_2
    2  A    between atoms: S_2  and  C_3
                            x       y       z     vdW  Elec       q    Type
                         _______ _______ _______ _____ _____    ______ ____

>  <TORSDO>
F 2

$$$$
