=
 OpenBabel10272413503D

 30 32  0  0  1  0  0  0  0  0999 V2000
  187.8720  177.4800  143.9130 C   0  0  2  0  0  3  0  0  0  0  0  0
  188.9840  177.0660  144.8850 C   0  0  2  0  0  3  0  0  0  0  0  0
  186.6650  178.7080  147.2500 C   0  0  0  0  0  3  0  0  0  0  0  0
  187.2970  178.1940  146.1140 C   0  0  0  0  0  0  0  0  0  0  0  0
  189.0590  177.2360  147.4540 C   0  0  0  0  0  3  0  0  0  0  0  0
  188.4760  177.4970  146.2110 C   0  0  0  0  0  0  0  0  0  0  0  0
  186.8680  178.3590  144.7050 C   0  0  2  0  0  3  0  0  0  0  0  0
  188.4320  177.7270  148.6090 C   0  0  0  0  0  3  0  0  0  0  0  0
  187.2410  178.4650  148.5060 C   0  0  0  0  0  3  0  0  0  0  0  0
  187.2700  176.3250  143.4020 O   0  0  0  0  0  1  0  0  0  0  0  0
  190.2680  177.8020  144.5140 C   0  0  0  0  0  2  0  0  0  0  0  0
  191.9020  176.5040  143.1010 C   0  0  0  0  0  3  0  0  0  0  0  0
  191.4000  176.8470  144.2930 C   0  0  0  0  0  3  0  0  0  0  0  0
  191.4690  177.0320  141.8370 N   0  0  0  0  0  0  0  0  0  0  0  0
  192.3660  177.7330  140.9300 C   0  0  0  0  0  1  0  0  0  0  0  0
  190.1730  176.6260  141.3180 C   0  0  0  0  0  2  0  0  0  0  0  0
  189.4350  177.8070  140.6970 C   0  0  0  0  0  2  0  0  0  0  0  0
  189.2740  177.6410  139.2230 C   0  0  0  0  0  0  0  0  0  0  0  0
  189.9520  176.3460  138.4780 S   0  0  0  0  0  0  0  0  0  0  0  0
  188.5430  178.6280  138.4880 N   0  0  0  0  0  2  0  0  0  0  0  0
  189.0100  179.2020  137.2360 C   0  0  0  0  0  1  0  0  0  0  0  0
  185.4040  177.9620  144.5170 C   0  0  0  0  0  2  0  0  0  0  0  0
  184.7060  178.9140  143.5580 C   0  0  1  0  0  3  0  0  0  0  0  0
  184.4640  178.2650  142.2240 C   0  0  1  0  0  3  0  0  0  0  0  0
  182.9610  178.3420  142.0500 C   0  0  0  0  0  2  0  0  0  0  0  0
  183.3180  179.2160  144.0670 C   0  0  0  0  0  2  0  0  0  0  0  0
  182.4490  179.2700  142.9690 O   0  0  0  0  0  0  0  0  0  0  0  0
  185.1640  179.0700  141.1400 C   0  0  0  0  0  2  0  0  0  0  0  0
  184.2940  179.1990  139.8990 C   0  0  0  0  0  2  0  0  0  0  0  0
  184.9940  178.5910  138.6980 C   0  0  0  0  0  1  0  0  0  0  0  0
  1 10  1  1  0  0  0
  1  7  1  0  0  0  0
  1  2  1  0  0  0  0
  2 11  1  6  0  0  0
  2  6  1  0  0  0  0
  3  9  1  0  0  0  0
  4  6  1  0  0  0  0
  4  3  2  0  0  0  0
  5  8  1  0  0  0  0
  6  5  2  0  0  0  0
  7 22  1  1  0  0  0
  7  4  1  0  0  0  0
  9  8  2  0  0  0  0
 12 13  2  0  0  0  0
 13 11  1  0  0  0  0
 14 12  1  0  0  0  0
 15 14  1  0  0  0  0
 16 14  1  0  0  0  0
 17 16  1  0  0  0  0
 18 17  1  0  0  0  0
 19 18  2  0  0  0  0
 20 18  1  0  0  0  0
 21 20  1  0  0  0  0
 23 26  1  0  0  0  0
 23 22  1  1  0  0  0
 24 28  1  6  0  0  0
 24 23  1  0  0  0  0
 25 24  1  0  0  0  0
 25 27  1  0  0  0  0
 27 26  1  0  0  0  0
 29 28  1  0  0  0  0
 30 29  1  0  0  0  0
M  END
>  <MODEL>
1

>  <REMARK>
 VINA RESULT:      -7.7      0.000      0.000
  Name = 
  11 active torsions:
  status: ('A' for Active; 'I' for Inactive)
    1  A    between atoms: C_1  and  C_5
    2  A    between atoms: C_1  and  C_22
    3  A    between atoms: C_2  and  N_18
    4  A    between atoms: N_3  and  C_28
    5  A    between atoms: C_7  and  C_30
    6  A    between atoms: C_10  and  C_25
    7  A    between atoms: C_11  and  C_25
    8  A    between atoms: C_13  and  C_30
    9  A    between atoms: C_14  and  N_18
   10  A    between atoms: C_14  and  C_20
   11  A    between atoms: C_20  and  C_28
                            x       y       z     vdW  Elec       q    Type
                         _______ _______ _______ _____ _____    ______ ____

>  <TORSDO>
F 11

$$$$
=
 OpenBabel10272413503D

 30 32  0  0  1  0  0  0  0  0999 V2000
  188.9200  176.7630  143.0920 C   0  0  2  0  0  3  0  0  0  0  0  0
  190.3240  176.1570  143.1980 C   0  0  2  0  0  3  0  0  0  0  0  0
  189.9090  177.3830  146.6610 C   0  0  0  0  0  3  0  0  0  0  0  0
  189.7430  177.0730  145.3080 C   0  0  0  0  0  0  0  0  0  0  0  0
  191.8230  175.8520  145.2710 C   0  0  0  0  0  3  0  0  0  0  0  0
  190.6870  176.3480  144.6250 C   0  0  0  0  0  0  0  0  0  0  0  0
  188.6320  177.5010  144.4260 C   0  0  2  0  0  3  0  0  0  0  0  0
  192.0000  176.1360  146.6330 C   0  0  0  0  0  3  0  0  0  0  0  0
  191.0480  176.9030  147.3250 C   0  0  0  0  0  3  0  0  0  0  0  0
  188.0040  175.7330  142.8530 O   0  0  0  0  0  1  0  0  0  0  0  0
  191.2680  176.9230  142.2760 C   0  0  0  0  0  2  0  0  0  0  0  0
  190.5360  177.6660  139.9820 C   0  0  0  0  0  3  0  0  0  0  0  0
  190.5100  177.7860  141.3150 C   0  0  0  0  0  3  0  0  0  0  0  0
  191.2570  176.6600  139.2530 N   0  0  0  0  0  0  0  0  0  0  0  0
  190.5910  175.6200  138.4820 C   0  0  0  0  0  1  0  0  0  0  0  0
  192.6870  176.8330  139.0530 C   0  0  0  0  0  2  0  0  0  0  0  0
  193.0960  176.4320  137.6390 C   0  0  0  0  0  2  0  0  0  0  0  0
  194.1390  175.3660  137.6510 C   0  0  0  0  0  0  0  0  0  0  0  0
  194.2690  174.3500  136.3690 S   0  0  0  0  0  0  0  0  0  0  0  0
  194.9940  175.2430  138.7920 N   0  0  0  0  0  2  0  0  0  0  0  0
  195.8100  174.0690  139.0580 C   0  0  0  0  0  1  0  0  0  0  0  0
  187.2720  177.1740  145.0420 C   0  0  0  0  0  2  0  0  0  0  0  0
  186.4890  178.4460  145.3290 C   0  0  1  0  0  3  0  0  0  0  0  0
  185.1120  178.3860  144.7300 C   0  0  1  0  0  3  0  0  0  0  0  0
  184.1900  178.5650  145.9190 C   0  0  0  0  0  2  0  0  0  0  0  0
  186.2310  178.5570  146.8120 C   0  0  0  0  0  2  0  0  0  0  0  0
  184.9370  179.0640  146.9960 O   0  0  0  0  0  0  0  0  0  0  0  0
  184.9410  179.5370  143.7500 C   0  0  0  0  0  2  0  0  0  0  0  0
  184.7390  179.0280  142.3310 C   0  0  0  0  0  2  0  0  0  0  0  0
  186.0780  178.7750  141.6640 C   0  0  0  0  0  1  0  0  0  0  0  0
  1 10  1  1  0  0  0
  1  2  1  0  0  0  0
  1  7  1  0  0  0  0
  2 11  1  6  0  0  0
  2  6  1  0  0  0  0
  3  9  1  0  0  0  0
  4  3  2  0  0  0  0
  5  8  1  0  0  0  0
  6  5  2  0  0  0  0
  6  4  1  0  0  0  0
  7 22  1  1  0  0  0
  7  4  1  0  0  0  0
  8  9  2  0  0  0  0
 12 13  2  0  0  0  0
 13 11  1  0  0  0  0
 14 12  1  0  0  0  0
 15 14  1  0  0  0  0
 16 14  1  0  0  0  0
 17 18  1  0  0  0  0
 17 16  1  0  0  0  0
 18 20  1  0  0  0  0
 19 18  2  0  0  0  0
 20 21  1  0  0  0  0
 23 22  1  1  0  0  0
 23 26  1  0  0  0  0
 24 28  1  6  0  0  0
 24 23  1  0  0  0  0
 24 25  1  0  0  0  0
 25 27  1  0  0  0  0
 26 27  1  0  0  0  0
 29 28  1  0  0  0  0
 30 29  1  0  0  0  0
M  END
>  <MODEL>
2

>  <REMARK>
 VINA RESULT:      -7.6      2.511      3.935
  Name = 
  11 active torsions:
  status: ('A' for Active; 'I' for Inactive)
    1  A    between atoms: C_1  and  C_5
    2  A    between atoms: C_1  and  C_22
    3  A    between atoms: C_2  and  N_18
    4  A    between atoms: N_3  and  C_28
    5  A    between atoms: C_7  and  C_30
    6  A    between atoms: C_10  and  C_25
    7  A    between atoms: C_11  and  C_25
    8  A    between atoms: C_13  and  C_30
    9  A    between atoms: C_14  and  N_18
   10  A    between atoms: C_14  and  C_20
   11  A    between atoms: C_20  and  C_28
                            x       y       z     vdW  Elec       q    Type
                         _______ _______ _______ _____ _____    ______ ____

>  <TORSDO>
F 11

$$$$
=
 OpenBabel10272413503D

 30 32  0  0  1  0  0  0  0  0999 V2000
  188.6150  176.8750  143.3100 C   0  0  2  0  0  3  0  0  0  0  0  0
  190.0200  176.2640  143.3700 C   0  0  2  0  0  3  0  0  0  0  0  0
  189.7570  177.5640  146.8210 C   0  0  0  0  0  3  0  0  0  0  0  0
  189.5330  177.2270  145.4830 C   0  0  0  0  0  0  0  0  0  0  0  0
  191.6040  175.9940  145.3840 C   0  0  0  0  0  3  0  0  0  0  0  0
  190.4440  176.4820  144.7760 C   0  0  0  0  0  0  0  0  0  0  0  0
  188.3870  177.6430  144.6390 C   0  0  2  0  0  3  0  0  0  0  0  0
  191.8400  176.3050  146.7310 C   0  0  0  0  0  3  0  0  0  0  0  0
  190.9210  177.0920  147.4460 C   0  0  0  0  0  3  0  0  0  0  0  0
  187.6850  175.8460  143.1320 O   0  0  0  0  0  1  0  0  0  0  0  0
  190.9270  177.0050  142.3930 C   0  0  0  0  0  2  0  0  0  0  0  0
  190.4280  177.7390  140.0340 C   0  0  0  0  0  3  0  0  0  0  0  0
  190.1330  177.7130  141.3400 C   0  0  0  0  0  3  0  0  0  0  0  0
  191.5290  177.0520  139.4200 N   0  0  0  0  0  0  0  0  0  0  0  0
  192.9110  177.2560  139.8330 C   0  0  0  0  0  1  0  0  0  0  0  0
  191.2490  175.9230  138.5470 C   0  0  0  0  0  2  0  0  0  0  0  0
  189.8520  176.0290  137.9430 C   0  0  0  0  0  2  0  0  0  0  0  0
  189.8770  176.7210  136.6230 C   0  0  0  0  0  0  0  0  0  0  0  0
  190.5980  175.9930  135.3420 S   0  0  0  0  0  0  0  0  0  0  0  0
  189.2840  178.0190  136.5080 N   0  0  0  0  0  2  0  0  0  0  0  0
  188.0170  178.3780  137.1250 C   0  0  0  0  0  1  0  0  0  0  0  0
  187.0530  177.3360  145.3190 C   0  0  0  0  0  2  0  0  0  0  0  0
  186.1220  178.5370  145.2500 C   0  0  1  0  0  3  0  0  0  0  0  0
  185.0820  178.3600  144.1810 C   0  0  1  0  0  3  0  0  0  0  0  0
  183.7700  178.4610  144.9310 C   0  0  0  0  0  2  0  0  0  0  0  0
  185.3180  178.6270  146.5230 C   0  0  0  0  0  2  0  0  0  0  0  0
  184.0150  179.0230  146.1920 O   0  0  0  0  0  0  0  0  0  0  0  0
  185.2020  179.4910  143.1700 C   0  0  0  0  0  2  0  0  0  0  0  0
  185.1180  178.9690  141.7450 C   0  0  0  0  0  2  0  0  0  0  0  0
  186.5080  178.7660  141.1730 C   0  0  0  0  0  1  0  0  0  0  0  0
  1 10  1  1  0  0  0
  1  2  1  0  0  0  0
  1  7  1  0  0  0  0
  2 11  1  6  0  0  0
  2  6  1  0  0  0  0
  3  9  1  0  0  0  0
  4  3  2  0  0  0  0
  5  8  1  0  0  0  0
  6  5  2  0  0  0  0
  6  4  1  0  0  0  0
  7 22  1  1  0  0  0
  7  4  1  0  0  0  0
  8  9  2  0  0  0  0
 12 13  2  0  0  0  0
 13 11  1  0  0  0  0
 14 15  1  0  0  0  0
 14 12  1  0  0  0  0
 16 14  1  0  0  0  0
 17 16  1  0  0  0  0
 18 17  1  0  0  0  0
 19 18  2  0  0  0  0
 20 18  1  0  0  0  0
 20 21  1  0  0  0  0
 23 22  1  1  0  0  0
 23 26  1  0  0  0  0
 24 28  1  6  0  0  0
 24 25  1  0  0  0  0
 24 23  1  0  0  0  0
 25 27  1  0  0  0  0
 27 26  1  0  0  0  0
 29 28  1  0  0  0  0
 30 29  1  0  0  0  0
M  END
>  <MODEL>
3

>  <REMARK>
 VINA RESULT:      -7.6      1.738      2.730
  Name = 
  11 active torsions:
  status: ('A' for Active; 'I' for Inactive)
    1  A    between atoms: C_1  and  C_5
    2  A    between atoms: C_1  and  C_22
    3  A    between atoms: C_2  and  N_18
    4  A    between atoms: N_3  and  C_28
    5  A    between atoms: C_7  and  C_30
    6  A    between atoms: C_10  and  C_25
    7  A    between atoms: C_11  and  C_25
    8  A    between atoms: C_13  and  C_30
    9  A    between atoms: C_14  and  N_18
   10  A    between atoms: C_14  and  C_20
   11  A    between atoms: C_20  and  C_28
                            x       y       z     vdW  Elec       q    Type
                         _______ _______ _______ _____ _____    ______ ____

>  <TORSDO>
F 11

$$$$
=
 OpenBabel10272413503D

 30 32  0  0  1  0  0  0  0  0999 V2000
  186.0880  178.4580  141.7790 C   0  0  2  0  0  3  0  0  0  0  0  0
  184.8370  178.8760  142.5610 C   0  0  2  0  0  3  0  0  0  0  0  0
  186.9040  177.5720  145.3370 C   0  0  0  0  0  3  0  0  0  0  0  0
  186.4030  177.9550  144.0890 C   0  0  0  0  0  0  0  0  0  0  0  0
  184.4310  178.9030  145.1050 C   0  0  0  0  0  3  0  0  0  0  0  0
  185.1870  178.5820  143.9750 C   0  0  0  0  0  0  0  0  0  0  0  0
  187.0230  177.7080  142.7660 C   0  0  2  0  0  3  0  0  0  0  0  0
  184.9230  178.5440  146.3690 C   0  0  0  0  0  3  0  0  0  0  0  0
  186.1550  177.8760  146.4830 C   0  0  0  0  0  3  0  0  0  0  0  0
  186.6920  179.6050  141.2520 O   0  0  0  0  0  1  0  0  0  0  0  0
  183.6540  178.0340  142.0940 C   0  0  0  0  0  2  0  0  0  0  0  0
  182.5240  178.5010  139.8900 C   0  0  0  0  0  3  0  0  0  0  0  0
  182.7650  178.8080  141.1710 C   0  0  0  0  0  3  0  0  0  0  0  0
  183.0430  177.3520  139.2020 N   0  0  0  0  0  0  0  0  0  0  0  0
  182.5570  176.0020  139.4500 C   0  0  0  0  0  1  0  0  0  0  0  0
  183.8820  177.5590  138.0320 C   0  0  0  0  0  2  0  0  0  0  0  0
  185.0720  178.4540  138.3600 C   0  0  0  0  0  2  0  0  0  0  0  0
  186.3420  177.9070  137.8000 C   0  0  0  0  0  0  0  0  0  0  0  0
  186.3100  176.5060  136.9470 S   0  0  0  0  0  0  0  0  0  0  0  0
  187.5660  178.6110  138.0360 N   0  0  0  0  0  2  0  0  0  0  0  0
  188.6020  178.7740  137.0300 C   0  0  0  0  0  1  0  0  0  0  0  0
  188.4760  178.1810  142.7330 C   0  0  0  0  0  2  0  0  0  0  0  0
  189.3810  177.1050  142.1520 C   0  0  1  0  0  3  0  0  0  0  0  0
  190.8310  177.4430  142.3550 C   0  0  1  0  0  3  0  0  0  0  0  0
  191.3700  176.2690  143.1460 C   0  0  0  0  0  2  0  0  0  0  0  0
  189.2000  175.8210  142.9240 C   0  0  0  0  0  2  0  0  0  0  0  0
  190.4540  175.2100  143.0610 O   0  0  0  0  0  0  0  0  0  0  0  0
  191.5200  177.5300  141.0010 C   0  0  0  0  0  2  0  0  0  0  0  0
  190.5280  177.3420  139.8640 C   0  0  0  0  0  2  0  0  0  0  0  0
  191.0790  176.3730  138.8360 C   0  0  0  0  0  1  0  0  0  0  0  0
  1 10  1  1  0  0  0
  1  2  1  0  0  0  0
  1  7  1  0  0  0  0
  2 11  1  6  0  0  0
  2  6  1  0  0  0  0
  3  9  1  0  0  0  0
  4  3  2  0  0  0  0
  5  8  1  0  0  0  0
  6  4  1  0  0  0  0
  6  5  2  0  0  0  0
  7 22  1  1  0  0  0
  7  4  1  0  0  0  0
  8  9  2  0  0  0  0
 12 13  2  0  0  0  0
 13 11  1  0  0  0  0
 14 15  1  0  0  0  0
 14 12  1  0  0  0  0
 16 17  1  0  0  0  0
 16 14  1  0  0  0  0
 18 20  1  0  0  0  0
 18 17  1  0  0  0  0
 19 18  2  0  0  0  0
 21 20  1  0  0  0  0
 23 24  1  0  0  0  0
 23 22  1  1  0  0  0
 23 26  1  0  0  0  0
 24 28  1  6  0  0  0
 24 25  1  0  0  0  0
 26 27  1  0  0  0  0
 27 25  1  0  0  0  0
 29 28  1  0  0  0  0
 30 29  1  0  0  0  0
M  END
>  <MODEL>
4

>  <REMARK>
 VINA RESULT:      -7.5      2.190      5.974
  Name = 
  11 active torsions:
  status: ('A' for Active; 'I' for Inactive)
    1  A    between atoms: C_1  and  C_5
    2  A    between atoms: C_1  and  C_22
    3  A    between atoms: C_2  and  N_18
    4  A    between atoms: N_3  and  C_28
    5  A    between atoms: C_7  and  C_30
    6  A    between atoms: C_10  and  C_25
    7  A    between atoms: C_11  and  C_25
    8  A    between atoms: C_13  and  C_30
    9  A    between atoms: C_14  and  N_18
   10  A    between atoms: C_14  and  C_20
   11  A    between atoms: C_20  and  C_28
                            x       y       z     vdW  Elec       q    Type
                         _______ _______ _______ _____ _____    ______ ____

>  <TORSDO>
F 11

$$$$
=
 OpenBabel10272413503D

 30 32  0  0  1  0  0  0  0  0999 V2000
  185.4710  178.5460  142.0840 C   0  0  2  0  0  3  0  0  0  0  0  0
  184.4400  178.9870  143.1300 C   0  0  2  0  0  3  0  0  0  0  0  0
  187.0020  177.5200  145.3570 C   0  0  0  0  0  3  0  0  0  0  0  0
  186.2580  177.9600  144.2580 C   0  0  0  0  0  0  0  0  0  0  0  0
  184.5980  178.9510  145.7010 C   0  0  0  0  0  3  0  0  0  0  0  0
  185.0760  178.6370  144.4260 C   0  0  0  0  0  0  0  0  0  0  0  0
  186.5640  177.7310  142.8260 C   0  0  2  0  0  3  0  0  0  0  0  0
  185.3380  178.5340  146.8180 C   0  0  0  0  0  3  0  0  0  0  0  0
  186.5340  177.8170  146.6460 C   0  0  0  0  0  3  0  0  0  0  0  0
  185.9960  179.6840  141.4630 O   0  0  0  0  0  1  0  0  0  0  0  0
  183.1480  178.2060  142.9140 C   0  0  0  0  0  2  0  0  0  0  0  0
  181.0480  179.2550  141.9970 C   0  0  0  0  0  3  0  0  0  0  0  0
  181.9510  179.1040  142.9730 C   0  0  0  0  0  3  0  0  0  0  0  0
  181.0500  178.5440  140.7490 N   0  0  0  0  0  0  0  0  0  0  0  0
  180.4280  177.2390  140.5870 C   0  0  0  0  0  1  0  0  0  0  0  0
  181.4440  179.2550  139.5420 C   0  0  0  0  0  2  0  0  0  0  0  0
  182.9590  179.4070  139.4630 C   0  0  0  0  0  2  0  0  0  0  0  0
  183.5420  178.5480  138.3920 C   0  0  0  0  0  0  0  0  0  0  0  0
  182.5430  177.7490  137.3650 S   0  0  0  0  0  0  0  0  0  0  0  0
  184.9650  178.4250  138.2970 N   0  0  0  0  0  2  0  0  0  0  0  0
  185.6300  177.3780  137.5390 C   0  0  0  0  0  1  0  0  0  0  0  0
  187.9950  178.1480  142.4870 C   0  0  0  0  0  2  0  0  0  0  0  0
  188.7800  176.9740  141.9220 C   0  0  1  0  0  3  0  0  0  0  0  0
  190.1550  177.3960  141.4860 C   0  0  1  0  0  3  0  0  0  0  0  0
  191.0800  176.5200  142.3060 C   0  0  0  0  0  2  0  0  0  0  0  0
  189.0430  175.9680  143.0150 C   0  0  0  0  0  2  0  0  0  0  0  0
  190.3370  175.4590  142.8430 O   0  0  0  0  0  0  0  0  0  0  0  0
  190.3240  177.1010  140.0030 C   0  0  0  0  0  2  0  0  0  0  0  0
  189.0280  177.3370  139.2420 C   0  0  0  0  0  2  0  0  0  0  0  0
  189.0310  178.7160  138.6100 C   0  0  0  0  0  1  0  0  0  0  0  0
  1 10  1  1  0  0  0
  1  7  1  0  0  0  0
  1  2  1  0  0  0  0
  2 11  1  6  0  0  0
  2  6  1  0  0  0  0
  3  9  1  0  0  0  0
  4  6  1  0  0  0  0
  4  3  2  0  0  0  0
  5  8  1  0  0  0  0
  6  5  2  0  0  0  0
  7 22  1  6  0  0  0
  7  4  1  0  0  0  0
  9  8  2  0  0  0  0
 11 13  1  0  0  0  0
 12 13  2  0  0  0  0
 14 12  1  0  0  0  0
 15 14  1  0  0  0  0
 16 14  1  0  0  0  0
 17 16  1  0  0  0  0
 18 17  1  0  0  0  0
 19 18  2  0  0  0  0
 20 18  1  0  0  0  0
 21 20  1  0  0  0  0
 23 22  1  1  0  0  0
 23 26  1  0  0  0  0
 24 28  1  6  0  0  0
 24 23  1  0  0  0  0
 24 25  1  0  0  0  0
 25 27  1  0  0  0  0
 27 26  1  0  0  0  0
 29 28  1  0  0  0  0
 30 29  1  0  0  0  0
M  END
>  <MODEL>
5

>  <REMARK>
 VINA RESULT:      -7.4      2.699      6.439
  Name = 
  11 active torsions:
  status: ('A' for Active; 'I' for Inactive)
    1  A    between atoms: C_1  and  C_5
    2  A    between atoms: C_1  and  C_22
    3  A    between atoms: C_2  and  N_18
    4  A    between atoms: N_3  and  C_28
    5  A    between atoms: C_7  and  C_30
    6  A    between atoms: C_10  and  C_25
    7  A    between atoms: C_11  and  C_25
    8  A    between atoms: C_13  and  C_30
    9  A    between atoms: C_14  and  N_18
   10  A    between atoms: C_14  and  C_20
   11  A    between atoms: C_20  and  C_28
                            x       y       z     vdW  Elec       q    Type
                         _______ _______ _______ _____ _____    ______ ____

>  <TORSDO>
F 11

$$$$
=
 OpenBabel10272413503D

 30 32  0  0  1  0  0  0  0  0999 V2000
  188.5900  177.5730  143.2180 C   0  0  2  0  0  3  0  0  0  0  0  0
  189.9840  176.9480  143.0930 C   0  0  2  0  0  3  0  0  0  0  0  0
  189.8220  177.3900  146.7610 C   0  0  0  0  0  3  0  0  0  0  0  0
  189.5620  177.3850  145.3870 C   0  0  0  0  0  0  0  0  0  0  0  0
  191.6070  176.1860  144.9430 C   0  0  0  0  0  3  0  0  0  0  0  0
  190.4430  176.8190  144.5000 C   0  0  0  0  0  0  0  0  0  0  0  0
  188.4060  178.0040  144.6970 C   0  0  2  0  0  3  0  0  0  0  0  0
  191.8790  176.1630  146.3190 C   0  0  0  0  0  3  0  0  0  0  0  0
  190.9900  176.7680  147.2250 C   0  0  0  0  0  3  0  0  0  0  0  0
  187.6370  176.6280  142.8230 O   0  0  0  0  0  1  0  0  0  0  0  0
  190.8830  177.8900  142.2990 C   0  0  0  0  0  2  0  0  0  0  0  0
  191.2080  176.9270  139.9920 C   0  0  0  0  0  3  0  0  0  0  0  0
  191.6420  177.1550  141.2380 C   0  0  0  0  0  3  0  0  0  0  0  0
  189.9610  177.3900  139.4520 N   0  0  0  0  0  0  0  0  0  0  0  0
  189.3570  178.6560  139.8430 C   0  0  0  0  0  1  0  0  0  0  0  0
  189.4130  176.7180  138.2840 C   0  0  0  0  0  2  0  0  0  0  0  0
  188.4000  177.6030  137.5650 C   0  0  0  0  0  2  0  0  0  0  0  0
  187.1040  176.8940  137.3530 C   0  0  0  0  0  0  0  0  0  0  0  0
  187.1100  175.2990  136.9710 S   0  0  0  0  0  0  0  0  0  0  0  0
  185.8820  177.6310  137.4710 N   0  0  0  0  0  2  0  0  0  0  0  0
  184.6100  177.1580  136.9510 C   0  0  0  0  0  1  0  0  0  0  0  0
  187.0820  177.5610  145.3190 C   0  0  0  0  0  2  0  0  0  0  0  0
  186.0560  178.6830  145.2640 C   0  0  1  0  0  3  0  0  0  0  0  0
  184.9560  178.3700  144.2900 C   0  0  1  0  0  3  0  0  0  0  0  0
  183.7000  178.4130  145.1350 C   0  0  0  0  0  2  0  0  0  0  0  0
  185.3440  178.7820  146.5910 C   0  0  0  0  0  2  0  0  0  0  0  0
  183.9930  179.0600  146.3450 O   0  0  0  0  0  0  0  0  0  0  0  0
  184.9110  179.4510  143.2200 C   0  0  0  0  0  2  0  0  0  0  0  0
  184.5590  178.8660  141.8610 C   0  0  0  0  0  2  0  0  0  0  0  0
  185.7920  178.7920  140.9810 C   0  0  0  0  0  1  0  0  0  0  0  0
  1 10  1  1  0  0  0
  1  7  1  0  0  0  0
  2 11  1  6  0  0  0
  2  1  1  0  0  0  0
  2  6  1  0  0  0  0
  3  9  1  0  0  0  0
  4  3  2  0  0  0  0
  5  8  1  0  0  0  0
  6  5  2  0  0  0  0
  6  4  1  0  0  0  0
  7 22  1  1  0  0  0
  7  4  1  0  0  0  0
  8  9  2  0  0  0  0
 12 13  2  0  0  0  0
 13 11  1  0  0  0  0
 14 15  1  0  0  0  0
 14 12  1  0  0  0  0
 16 14  1  0  0  0  0
 17 16  1  0  0  0  0
 18 20  1  0  0  0  0
 18 17  1  0  0  0  0
 19 18  2  0  0  0  0
 21 20  1  0  0  0  0
 23 22  1  1  0  0  0
 23 26  1  0  0  0  0
 24 28  1  6  0  0  0
 24 25  1  0  0  0  0
 24 23  1  0  0  0  0
 25 27  1  0  0  0  0
 27 26  1  0  0  0  0
 29 28  1  0  0  0  0
 30 29  1  0  0  0  0
M  END
>  <MODEL>
6

>  <REMARK>
 VINA RESULT:      -7.1      1.752      2.976
  Name = 
  11 active torsions:
  status: ('A' for Active; 'I' for Inactive)
    1  A    between atoms: C_1  and  C_5
    2  A    between atoms: C_1  and  C_22
    3  A    between atoms: C_2  and  N_18
    4  A    between atoms: N_3  and  C_28
    5  A    between atoms: C_7  and  C_30
    6  A    between atoms: C_10  and  C_25
    7  A    between atoms: C_11  and  C_25
    8  A    between atoms: C_13  and  C_30
    9  A    between atoms: C_14  and  N_18
   10  A    between atoms: C_14  and  C_20
   11  A    between atoms: C_20  and  C_28
                            x       y       z     vdW  Elec       q    Type
                         _______ _______ _______ _____ _____    ______ ____

>  <TORSDO>
F 11

$$$$
=
 OpenBabel10272413503D

 30 32  0  0  1  0  0  0  0  0999 V2000
  189.4800  177.7790  142.7720 C   0  0  2  0  0  3  0  0  0  0  0  0
  188.7900  178.0910  141.4390 C   0  0  2  0  0  3  0  0  0  0  0  0
  185.8480  178.0820  143.6790 C   0  0  0  0  0  3  0  0  0  0  0  0
  187.1330  177.9940  143.1350 C   0  0  0  0  0  0  0  0  0  0  0  0
  186.3300  178.6990  140.9720 C   0  0  0  0  0  3  0  0  0  0  0  0
  187.3630  178.2720  141.8100 C   0  0  0  0  0  0  0  0  0  0  0  0
  188.3660  177.5540  143.8290 C   0  0  2  0  0  3  0  0  0  0  0  0
  185.0360  178.8110  141.5020 C   0  0  0  0  0  3  0  0  0  0  0  0
  184.7960  178.4990  142.8510 C   0  0  0  0  0  3  0  0  0  0  0  0
  190.3130  178.8510  143.1080 O   0  0  0  0  0  1  0  0  0  0  0  0
  188.9740  176.9070  140.4950 C   0  0  0  0  0  2  0  0  0  0  0  0
  190.4750  177.2640  138.5020 C   0  0  0  0  0  3  0  0  0  0  0  0
  190.2960  176.9670  139.7950 C   0  0  0  0  0  3  0  0  0  0  0  0
  189.4310  177.6220  137.5820 N   0  0  0  0  0  0  0  0  0  0  0  0
  189.0610  179.0040  137.3120 C   0  0  0  0  0  1  0  0  0  0  0  0
  188.9070  176.6000  136.6890 C   0  0  0  0  0  2  0  0  0  0  0  0
  187.6260  175.9880  137.2470 C   0  0  0  0  0  2  0  0  0  0  0  0
  186.4140  176.7000  136.7450 C   0  0  0  0  0  0  0  0  0  0  0  0
  185.9520  176.5050  135.1840 S   0  0  0  0  0  0  0  0  0  0  0  0
  185.6920  177.5550  137.6380 N   0  0  0  0  0  2  0  0  0  0  0  0
  184.2400  177.5880  137.7150 C   0  0  0  0  0  1  0  0  0  0  0  0
  188.5760  178.3200  145.1340 C   0  0  0  0  0  2  0  0  0  0  0  0
  188.4590  177.3910  146.3320 C   0  0  1  0  0  3  0  0  0  0  0  0
  189.6100  177.5740  147.2810 C   0  0  1  0  0  3  0  0  0  0  0  0
  188.9460  177.9540  148.5880 C   0  0  0  0  0  2  0  0  0  0  0  0
  187.2520  177.7730  147.1530 C   0  0  0  0  0  2  0  0  0  0  0  0
  187.5820  177.6370  148.5080 O   0  0  0  0  0  0  0  0  0  0  0  0
  190.3540  176.2550  147.4290 C   0  0  0  0  0  2  0  0  0  0  0  0
  191.7710  176.3580  146.8890 C   0  0  0  0  0  2  0  0  0  0  0  0
  191.7640  176.3140  145.3720 C   0  0  0  0  0  1  0  0  0  0  0  0
  1 10  1  1  0  0  0
  1  7  1  0  0  0  0
  2 11  1  6  0  0  0
  2  6  1  0  0  0  0
  2  1  1  0  0  0  0
  4  3  1  0  0  0  0
  4  7  1  0  0  0  0
  5  8  2  0  0  0  0
  5  6  1  0  0  0  0
  6  4  2  0  0  0  0
  7 22  1  1  0  0  0
  8  9  1  0  0  0  0
  9  3  2  0  0  0  0
 12 13  2  0  0  0  0
 13 11  1  0  0  0  0
 14 12  1  0  0  0  0
 15 14  1  0  0  0  0
 16 17  1  0  0  0  0
 16 14  1  0  0  0  0
 18 17  1  0  0  0  0
 18 20  1  0  0  0  0
 19 18  2  0  0  0  0
 20 21  1  0  0  0  0
 23 22  1  6  0  0  0
 23 26  1  0  0  0  0
 23 24  1  0  0  0  0
 24 28  1  1  0  0  0
 24 25  1  0  0  0  0
 26 27  1  0  0  0  0
 27 25  1  0  0  0  0
 29 28  1  0  0  0  0
 30 29  1  0  0  0  0
M  END
>  <MODEL>
7

>  <REMARK>
 VINA RESULT:      -7.1      2.417      5.773
  Name = 
  11 active torsions:
  status: ('A' for Active; 'I' for Inactive)
    1  A    between atoms: C_1  and  C_5
    2  A    between atoms: C_1  and  C_22
    3  A    between atoms: C_2  and  N_18
    4  A    between atoms: N_3  and  C_28
    5  A    between atoms: C_7  and  C_30
    6  A    between atoms: C_10  and  C_25
    7  A    between atoms: C_11  and  C_25
    8  A    between atoms: C_13  and  C_30
    9  A    between atoms: C_14  and  N_18
   10  A    between atoms: C_14  and  C_20
   11  A    between atoms: C_20  and  C_28
                            x       y       z     vdW  Elec       q    Type
                         _______ _______ _______ _____ _____    ______ ____

>  <TORSDO>
F 11

$$$$
=
 OpenBabel10272413503D

 30 32  0  0  1  0  0  0  0  0999 V2000
  188.0920  177.7710  142.4000 C   0  0  2  0  0  3  0  0  0  0  0  0
  188.1530  177.9820  143.9180 C   0  0  2  0  0  3  0  0  0  0  0  0
  191.2480  176.0160  143.4340 C   0  0  0  0  0  3  0  0  0  0  0  0
  190.0410  176.7030  143.2630 C   0  0  0  0  0  0  0  0  0  0  0  0
  190.0230  177.3690  145.5810 C   0  0  0  0  0  3  0  0  0  0  0  0
  189.4330  177.3410  144.3140 C   0  0  0  0  0  0  0  0  0  0  0  0
  189.2370  176.7950  142.0210 C   0  0  2  0  0  3  0  0  0  0  0  0
  191.2420  176.7020  145.7700 C   0  0  0  0  0  3  0  0  0  0  0  0
  191.8500  176.0240  144.7000 C   0  0  0  0  0  3  0  0  0  0  0  0
  188.2290  179.0120  141.7690 O   0  0  0  0  0  1  0  0  0  0  0  0
  186.9590  177.2880  144.5650 C   0  0  0  0  0  2  0  0  0  0  0  0
  185.2740  178.7880  145.6870 C   0  0  0  0  0  3  0  0  0  0  0  0
  186.4150  178.0890  145.7070 C   0  0  0  0  0  3  0  0  0  0  0  0
  184.3570  178.8470  144.5840 N   0  0  0  0  0  0  0  0  0  0  0  0
  182.9130  178.7870  144.7580 C   0  0  0  0  0  1  0  0  0  0  0  0
  184.8590  179.2500  143.2790 C   0  0  0  0  0  2  0  0  0  0  0  0
  184.5380  178.2010  142.2190 C   0  0  0  0  0  2  0  0  0  0  0  0
  183.7740  178.7880  141.0800 C   0  0  0  0  0  0  0  0  0  0  0  0
  182.1540  178.5450  140.9840 S   0  0  0  0  0  0  0  0  0  0  0  0
  184.4770  179.5370  140.0840 N   0  0  0  0  0  2  0  0  0  0  0  0
  184.0020  179.6980  138.7190 C   0  0  0  0  0  1  0  0  0  0  0  0
  190.0880  177.2560  140.8380 C   0  0  0  0  0  2  0  0  0  0  0  0
  189.4680  176.8140  139.5220 C   0  0  1  0  0  3  0  0  0  0  0  0
  188.9730  177.9900  138.7280 C   0  0  1  0  0  3  0  0  0  0  0  0
  189.7340  177.8940  137.4220 C   0  0  0  0  0  2  0  0  0  0  0  0
  190.5320  176.2080  138.6400 C   0  0  0  0  0  2  0  0  0  0  0  0
  190.2890  176.6100  137.3190 O   0  0  0  0  0  0  0  0  0  0  0  0
  187.4790  177.8380  138.4830 C   0  0  0  0  0  2  0  0  0  0  0  0
  187.1050  178.2690  137.0740 C   0  0  0  0  0  2  0  0  0  0  0  0
  186.0020  177.3830  136.5250 C   0  0  0  0  0  1  0  0  0  0  0  0
  1 10  1  6  0  0  0
  1  2  1  0  0  0  0
  2  6  1  0  0  0  0
  2 11  1  1  0  0  0
  3  9  1  0  0  0  0
  4  3  2  0  0  0  0
  4  6  1  0  0  0  0
  5  8  1  0  0  0  0
  6  5  2  0  0  0  0
  7 22  1  6  0  0  0
  7  1  1  0  0  0  0
  7  4  1  0  0  0  0
  9  8  2  0  0  0  0
 11 13  1  0  0  0  0
 12 13  2  0  0  0  0
 14 15  1  0  0  0  0
 14 12  1  0  0  0  0
 16 14  1  0  0  0  0
 17 16  1  0  0  0  0
 18 17  1  0  0  0  0
 19 18  2  0  0  0  0
 20 18  1  0  0  0  0
 21 20  1  0  0  0  0
 23 22  1  1  0  0  0
 24 28  1  6  0  0  0
 24 23  1  0  0  0  0
 25 24  1  0  0  0  0
 26 23  1  0  0  0  0
 27 25  1  0  0  0  0
 27 26  1  0  0  0  0
 29 28  1  0  0  0  0
 30 29  1  0  0  0  0
M  END
>  <MODEL>
8

>  <REMARK>
 VINA RESULT:      -7.1      2.902      5.915
  Name = 
  11 active torsions:
  status: ('A' for Active; 'I' for Inactive)
    1  A    between atoms: C_1  and  C_5
    2  A    between atoms: C_1  and  C_22
    3  A    between atoms: C_2  and  N_18
    4  A    between atoms: N_3  and  C_28
    5  A    between atoms: C_7  and  C_30
    6  A    between atoms: C_10  and  C_25
    7  A    between atoms: C_11  and  C_25
    8  A    between atoms: C_13  and  C_30
    9  A    between atoms: C_14  and  N_18
   10  A    between atoms: C_14  and  C_20
   11  A    between atoms: C_20  and  C_28
                            x       y       z     vdW  Elec       q    Type
                         _______ _______ _______ _____ _____    ______ ____

>  <TORSDO>
F 11

$$$$
=
 OpenBabel10272413503D

 30 32  0  0  1  0  0  0  0  0999 V2000
  189.0890  177.7180  143.4130 C   0  0  2  0  0  3  0  0  0  0  0  0
  188.7630  178.0400  141.9500 C   0  0  2  0  0  3  0  0  0  0  0  0
  185.3640  178.2000  143.3990 C   0  0  0  0  0  3  0  0  0  0  0  0
  186.7380  178.0450  143.1880 C   0  0  0  0  0  0  0  0  0  0  0  0
  186.5250  178.7510  140.8910 C   0  0  0  0  0  3  0  0  0  0  0  0
  187.2990  178.2910  141.9590 C   0  0  0  0  0  0  0  0  0  0  0  0
  187.7410  177.5600  144.1650 C   0  0  2  0  0  3  0  0  0  0  0  0
  185.1470  178.9310  141.0860 C   0  0  0  0  0  3  0  0  0  0  0  0
  184.5680  178.6510  142.3360 C   0  0  0  0  0  3  0  0  0  0  0  0
  189.8650  178.7560  143.9390 O   0  0  0  0  0  1  0  0  0  0  0  0
  189.1150  176.8350  141.0850 C   0  0  0  0  0  2  0  0  0  0  0  0
  190.7130  177.3180  139.1970 C   0  0  0  0  0  3  0  0  0  0  0  0
  190.4730  176.9820  140.4700 C   0  0  0  0  0  3  0  0  0  0  0  0
  189.7100  177.6400  138.2210 N   0  0  0  0  0  0  0  0  0  0  0  0
  188.9850  178.9030  138.2260 C   0  0  0  0  0  1  0  0  0  0  0  0
  189.5980  176.8070  137.0340 C   0  0  0  0  0  2  0  0  0  0  0  0
  188.7560  175.5660  137.3120 C   0  0  0  0  0  2  0  0  0  0  0  0
  189.5010  174.3140  136.9920 C   0  0  0  0  0  0  0  0  0  0  0  0
  188.6760  172.9930  136.4770 S   0  0  0  0  0  0  0  0  0  0  0  0
  190.9230  174.2890  137.1590 N   0  0  0  0  0  2  0  0  0  0  0  0
  191.7830  173.2830  136.5570 C   0  0  0  0  0  1  0  0  0  0  0  0
  187.6610  178.3370  145.4790 C   0  0  0  0  0  2  0  0  0  0  0  0
  187.9660  177.4310  146.6620 C   0  0  1  0  0  3  0  0  0  0  0  0
  189.3710  177.6330  147.1570 C   0  0  1  0  0  3  0  0  0  0  0  0
  189.1910  178.0390  148.6050 C   0  0  0  0  0  2  0  0  0  0  0  0
  187.1100  177.8300  147.8390 C   0  0  0  0  0  2  0  0  0  0  0  0
  187.8840  177.7210  149.0020 O   0  0  0  0  0  0  0  0  0  0  0  0
  190.1290  176.3180  147.0660 C   0  0  0  0  0  2  0  0  0  0  0  0
  191.6110  176.5520  146.8140 C   0  0  0  0  0  2  0  0  0  0  0  0
  192.4460  175.7930  147.8290 C   0  0  0  0  0  1  0  0  0  0  0  0
  1 10  1  1  0  0  0
  1  7  1  0  0  0  0
  2 11  1  6  0  0  0
  2  6  1  0  0  0  0
  2  1  1  0  0  0  0
  4  3  1  0  0  0  0
  4  7  1  0  0  0  0
  5  8  2  0  0  0  0
  5  6  1  0  0  0  0
  6  4  2  0  0  0  0
  7 22  1  1  0  0  0
  8  9  1  0  0  0  0
  9  3  2  0  0  0  0
 12 13  2  0  0  0  0
 13 11  1  0  0  0  0
 14 15  1  0  0  0  0
 14 12  1  0  0  0  0
 16 17  1  0  0  0  0
 16 14  1  0  0  0  0
 18 20  1  0  0  0  0
 18 17  1  0  0  0  0
 19 18  2  0  0  0  0
 21 20  1  0  0  0  0
 23 22  1  6  0  0  0
 23 24  1  0  0  0  0
 23 26  1  0  0  0  0
 24 28  1  1  0  0  0
 24 25  1  0  0  0  0
 25 27  1  0  0  0  0
 26 27  1  0  0  0  0
 29 28  1  0  0  0  0
 29 30  1  0  0  0  0
M  END
>  <MODEL>
9

>  <REMARK>
 VINA RESULT:      -7.0      2.576      5.887
  Name = 
  11 active torsions:
  status: ('A' for Active; 'I' for Inactive)
    1  A    between atoms: C_1  and  C_5
    2  A    between atoms: C_1  and  C_22
    3  A    between atoms: C_2  and  N_18
    4  A    between atoms: N_3  and  C_28
    5  A    between atoms: C_7  and  C_30
    6  A    between atoms: C_10  and  C_25
    7  A    between atoms: C_11  and  C_25
    8  A    between atoms: C_13  and  C_30
    9  A    between atoms: C_14  and  N_18
   10  A    between atoms: C_14  and  C_20
   11  A    between atoms: C_20  and  C_28
                            x       y       z     vdW  Elec       q    Type
                         _______ _______ _______ _____ _____    ______ ____

>  <TORSDO>
F 11

$$$$
